ligand
 OpenBabel11021811473D
libRbt.so/2013.1/901 2013/11/27
 10  9  0  0  0  0  0  0  0  0999 V2000
   31.7482   16.6088   20.0858 N   0  0  0  0  0  0  0  0  0  0  0  0
   31.0177   17.4287   21.0932 C   0  0  2  0  0  0  0  0  0  0  0  0
   31.9758   18.0628   22.0918 C   0  0  0  0  0  0  0  0  0  0  0  0
   33.0514   17.5422   22.3911 O   0  0  0  0  0  0  0  0  0  0  0  0
   29.9591   16.5936   21.8100 C   0  0  0  0  0  0  0  0  0  0  0  0
   28.7988   16.2202   20.9165 C   0  0  0  0  0  0  0  0  0  0  0  0
   27.8030   15.3455   21.6303 C   0  0  0  0  0  0  0  0  0  0  0  0
   26.5974   15.0706   20.7488 C   0  0  0  0  0  0  0  0  0  0  0  0
   26.9777   14.4176   19.4691 N   0  0  0  0  0  0  0  0  0  0  0  0
   31.7117   19.1483   22.6111 O   0  0  0  0  0  0  0  0  0  0  0  0
  2  1  1  6  0  0  0
  2  3  1  0  0  0  0
  2  5  1  0  0  0  0
  3  4  1  0  0  0  0
  3 10  1  0  0  0  0
  5  6  1  0  0  0  0
  6  7  1  0  0  0  0
  7  8  1  0  0  0  0
  8  9  1  0  0  0  0
M  END
>  <CHROM.1>
-28.84317078,-69.72852439,177.38172394,175.70762985,58.24732576,29.99557802
16.66584922,21.30904871,-0.54091433,-0.28244091,-2.22560491

>  <Name>
ligand

>  <RI>
0

>  <Rbt.Current_Directory>
/home/itssahil/PROJECTS/Mol_Feturizer/New_Systems/rnas/3DIX

>  <Rbt.Executable>
rbdock ($Id: //depot/dev/client3/rdock/2013.1/src/exe/rbdock.cxx#4 $)

>  <Rbt.Library>
libRbt.so (2013.1, Build901 2013/11/27)

>  <Rbt.Parameter_File>
/export/apps/rDock/src/rDock_2013.1_src/data/scripts/dock_solv.prm

>  <Rbt.Receptor>
prm/blind_docking_60.prm

>  <SCORE>
-8.15808

>  <SCORE.INTER>
-7.66539

>  <SCORE.INTER.CONST>
1

>  <SCORE.INTER.POLAR>
0

>  <SCORE.INTER.ROT>
5

>  <SCORE.INTER.SOLV>
14.6658

>  <SCORE.INTER.VDW>
-16.9322

>  <SCORE.INTER.norm>
-0.766539

>  <SCORE.INTRA>
-0.492693

>  <SCORE.INTRA.DIHEDRAL>
-1.21845

>  <SCORE.INTRA.DIHEDRAL.0>
3.281

>  <SCORE.INTRA.POLAR>
0

>  <SCORE.INTRA.POLAR.0>
0

>  <SCORE.INTRA.REPUL>
0

>  <SCORE.INTRA.REPUL.0>
0

>  <SCORE.INTRA.SOLV>
0.245627

>  <SCORE.INTRA.SOLV.lig_0>
-31.9458

>  <SCORE.INTRA.VDW>
-0.00628283

>  <SCORE.INTRA.VDW.0>
-0.672612

>  <SCORE.INTRA.norm>
-0.0492693

>  <SCORE.RESTR>
0

>  <SCORE.RESTR.CAVITY>
0

>  <SCORE.RESTR.norm>
0

>  <SCORE.SYSTEM>
0

>  <SCORE.SYSTEM.CONST>
0

>  <SCORE.SYSTEM.DIHEDRAL>
0

>  <SCORE.SYSTEM.SOLV>
0

>  <SCORE.SYSTEM.norm>
0

>  <SCORE.heavy>
10

>  <SCORE.norm>
-0.815808

>  <RMSD>
0.988

$$$$
ligand
 OpenBabel11021811473D
libRbt.so/2013.1/901 2013/11/27
 10  9  0  0  0  0  0  0  0  0999 V2000
   32.5479   15.8849   19.7470 N   0  0  0  0  0  0  0  0  0  0  0  0
   31.4264   16.5312   20.4854 C   0  0  2  0  0  0  0  0  0  0  0  0
   31.9267   17.2642   21.7222 C   0  0  0  0  0  0  0  0  0  0  0  0
   31.4035   18.3039   22.1258 O   0  0  0  0  0  0  0  0  0  0  0  0
   30.3569   15.5062   20.8561 C   0  0  0  0  0  0  0  0  0  0  0  0
   29.1285   16.1335   21.4737 C   0  0  0  0  0  0  0  0  0  0  0  0
   28.0227   15.1295   21.6612 C   0  0  0  0  0  0  0  0  0  0  0  0
   27.4404   14.7123   20.3223 C   0  0  0  0  0  0  0  0  0  0  0  0
   26.8731   15.8652   19.5756 N   0  0  0  0  0  0  0  0  0  0  0  0
   32.8631   16.8118   22.3828 O   0  0  0  0  0  0  0  0  0  0  0  0
  2  1  1  1  0  0  0
  2  3  1  0  0  0  0
  2  5  1  0  0  0  0
  3  4  1  0  0  0  0
  3 10  1  0  0  0  0
  5  6  1  0  0  0  0
  6  7  1  0  0  0  0
  7  8  1  0  0  0  0
  8  9  1  0  0  0  0
M  END
>  <CHROM.1>
146.08202616,-173.75887008,172.47153176,-70.16657516,-59.98889166,30.21967110
16.23467559,21.06379955,-0.38845640,-0.14464751,-2.22967735

>  <Name>
ligand

>  <RI>
0

>  <Rbt.Current_Directory>
/home/itssahil/PROJECTS/Mol_Feturizer/New_Systems/rnas/3DIX

>  <Rbt.Executable>
rbdock ($Id: //depot/dev/client3/rdock/2013.1/src/exe/rbdock.cxx#4 $)

>  <Rbt.Library>
libRbt.so (2013.1, Build901 2013/11/27)

>  <Rbt.Parameter_File>
/export/apps/rDock/src/rDock_2013.1_src/data/scripts/dock_solv.prm

>  <Rbt.Receptor>
prm/blind_docking_80.prm

>  <SCORE>
-6.49611

>  <SCORE.INTER>
-6.64544

>  <SCORE.INTER.CONST>
1

>  <SCORE.INTER.POLAR>
0

>  <SCORE.INTER.ROT>
5

>  <SCORE.INTER.SOLV>
17.0666

>  <SCORE.INTER.VDW>
-17.0525

>  <SCORE.INTER.norm>
-0.664544

>  <SCORE.INTRA>
0.149334

>  <SCORE.INTRA.DIHEDRAL>
-1.05719

>  <SCORE.INTRA.DIHEDRAL.0>
3.281

>  <SCORE.INTRA.POLAR>
0

>  <SCORE.INTRA.POLAR.0>
0

>  <SCORE.INTRA.REPUL>
0

>  <SCORE.INTRA.REPUL.0>
0

>  <SCORE.INTRA.SOLV>
-0.0755297

>  <SCORE.INTRA.SOLV.lig_0>
-31.9458

>  <SCORE.INTRA.VDW>
0.715694

>  <SCORE.INTRA.VDW.0>
-0.672612

>  <SCORE.INTRA.norm>
0.0149334

>  <SCORE.RESTR>
0

>  <SCORE.RESTR.CAVITY>
0

>  <SCORE.RESTR.norm>
0

>  <SCORE.SYSTEM>
0

>  <SCORE.SYSTEM.CONST>
0

>  <SCORE.SYSTEM.DIHEDRAL>
0

>  <SCORE.SYSTEM.SOLV>
0

>  <SCORE.SYSTEM.norm>
0

>  <SCORE.heavy>
10

>  <SCORE.norm>
-0.649611

>  <RMSD>
1.006

$$$$
ligand
 OpenBabel11021811473D
libRbt.so/2013.1/901 2013/11/27
 10  9  0  0  0  0  0  0  0  0999 V2000
   31.6047   16.9724   19.9505 N   0  0  0  0  0  0  0  0  0  0  0  0
   30.9453   17.6034   21.1285 C   0  0  2  0  0  0  0  0  0  0  0  0
   31.9715   18.1345   22.1194 C   0  0  0  0  0  0  0  0  0  0  0  0
   33.0291   17.5456   22.3485 O   0  0  0  0  0  0  0  0  0  0  0  0
   29.9903   16.6239   21.8069 C   0  0  0  0  0  0  0  0  0  0  0  0
   28.7722   16.3124   20.9684 C   0  0  0  0  0  0  0  0  0  0  0  0
   27.8513   15.3426   21.6595 C   0  0  0  0  0  0  0  0  0  0  0  0
   26.6154   15.0789   20.8175 C   0  0  0  0  0  0  0  0  0  0  0  0
   26.9553   14.4998   19.4917 N   0  0  0  0  0  0  0  0  0  0  0  0
   31.7837   19.2025   22.7042 O   0  0  0  0  0  0  0  0  0  0  0  0
  2  1  1  6  0  0  0
  2  3  1  0  0  0  0
  2  5  1  0  0  0  0
  3  4  1  0  0  0  0
  3 10  1  0  0  0  0
  5  6  1  0  0  0  0
  6  7  1  0  0  0  0
  7  8  1  0  0  0  0
  8  9  1  0  0  0  0
M  END
>  <CHROM.1>
-37.00193717,-69.01742984,179.84578535,178.23644521,60.07729107,29.98475474
16.75153546,21.32375368,-0.49823409,-0.36887682,-2.08926750

>  <Name>
ligand

>  <RI>
0

>  <Rbt.Current_Directory>
/home/itssahil/PROJECTS/Mol_Feturizer/New_Systems/rnas/3DIX

>  <Rbt.Executable>
rbdock ($Id: //depot/dev/client3/rdock/2013.1/src/exe/rbdock.cxx#4 $)

>  <Rbt.Library>
libRbt.so (2013.1, Build901 2013/11/27)

>  <Rbt.Parameter_File>
/export/apps/rDock/src/rDock_2013.1_src/data/scripts/dock_solv.prm

>  <Rbt.Receptor>
prm/blind_docking_100.prm

>  <SCORE>
-8.41677

>  <SCORE.INTER>
-7.78606

>  <SCORE.INTER.CONST>
1

>  <SCORE.INTER.POLAR>
0

>  <SCORE.INTER.ROT>
5

>  <SCORE.INTER.SOLV>
14.8167

>  <SCORE.INTER.VDW>
-17.0629

>  <SCORE.INTER.norm>
-0.778606

>  <SCORE.INTRA>
-0.630711

>  <SCORE.INTRA.DIHEDRAL>
-1.38133

>  <SCORE.INTRA.DIHEDRAL.0>
3.281

>  <SCORE.INTRA.POLAR>
0

>  <SCORE.INTRA.POLAR.0>
0

>  <SCORE.INTRA.REPUL>
0

>  <SCORE.INTRA.REPUL.0>
0

>  <SCORE.INTRA.SOLV>
0.225772

>  <SCORE.INTRA.SOLV.lig_0>
-31.9458

>  <SCORE.INTRA.VDW>
-0.0529344

>  <SCORE.INTRA.VDW.0>
-0.672612

>  <SCORE.INTRA.norm>
-0.0630711

>  <SCORE.RESTR>
0

>  <SCORE.RESTR.CAVITY>
0

>  <SCORE.RESTR.norm>
0

>  <SCORE.SYSTEM>
0

>  <SCORE.SYSTEM.CONST>
0

>  <SCORE.SYSTEM.DIHEDRAL>
0

>  <SCORE.SYSTEM.SOLV>
0

>  <SCORE.SYSTEM.norm>
0

>  <SCORE.heavy>
10

>  <SCORE.norm>
-0.841677

>  <RMSD>
1.051

$$$$
ligand
 OpenBabel11021811473D
libRbt.so/2013.1/901 2013/11/27
 10  9  0  0  0  0  0  0  0  0999 V2000
   31.6159   16.9701   19.9489 N   0  0  0  0  0  0  0  0  0  0  0  0
   30.9565   17.6145   21.1196 C   0  0  2  0  0  0  0  0  0  0  0  0
   31.9826   18.1608   22.1023 C   0  0  0  0  0  0  0  0  0  0  0  0
   31.8053   19.2117   22.7204 O   0  0  0  0  0  0  0  0  0  0  0  0
   30.0048   16.6413   21.8118 C   0  0  0  0  0  0  0  0  0  0  0  0
   28.7843   16.3195   20.9808 C   0  0  0  0  0  0  0  0  0  0  0  0
   27.8594   15.3679   21.6918 C   0  0  0  0  0  0  0  0  0  0  0  0
   26.6301   15.0794   20.8483 C   0  0  0  0  0  0  0  0  0  0  0  0
   26.9793   14.4518   19.5473 N   0  0  0  0  0  0  0  0  0  0  0  0
   33.0206   17.5393   22.3347 O   0  0  0  0  0  0  0  0  0  0  0  0
  2  1  1  6  0  0  0
  2  3  1  0  0  0  0
  2  5  1  0  0  0  0
  3  4  1  0  0  0  0
  3 10  1  0  0  0  0
  5  6  1  0  0  0  0
  6  7  1  0  0  0  0
  7  8  1  0  0  0  0
  8  9  1  0  0  0  0
M  END
>  <CHROM.1>
143.39882168,-69.20039658,-179.53082325,178.99122572,60.65387264,29.99662020
16.75513390,21.33510452,-0.49941603,-0.36936377,-2.10351541

>  <Name>
ligand

>  <RI>
0

>  <Rbt.Current_Directory>
/home/itssahil/PROJECTS/Mol_Feturizer/New_Systems/rnas/3DIX

>  <Rbt.Executable>
rbdock ($Id: //depot/dev/client3/rdock/2013.1/src/exe/rbdock.cxx#4 $)

>  <Rbt.Library>
libRbt.so (2013.1, Build901 2013/11/27)

>  <Rbt.Parameter_File>
/export/apps/rDock/src/rDock_2013.1_src/data/scripts/dock_solv.prm

>  <Rbt.Receptor>
prm/blind_docking_60.prm

>  <SCORE>
-8.47518

>  <SCORE.INTER>
-7.7898

>  <SCORE.INTER.CONST>
1

>  <SCORE.INTER.POLAR>
0

>  <SCORE.INTER.ROT>
5

>  <SCORE.INTER.SOLV>
14.8343

>  <SCORE.INTER.VDW>
-17.0713

>  <SCORE.INTER.norm>
-0.77898

>  <SCORE.INTRA>
-0.685373

>  <SCORE.INTRA.DIHEDRAL>
-1.49829

>  <SCORE.INTRA.DIHEDRAL.0>
3.281

>  <SCORE.INTRA.POLAR>
0

>  <SCORE.INTRA.POLAR.0>
0

>  <SCORE.INTRA.REPUL>
0

>  <SCORE.INTRA.REPUL.0>
0

>  <SCORE.INTRA.SOLV>
0.214617

>  <SCORE.INTRA.SOLV.lig_0>
-31.9458

>  <SCORE.INTRA.VDW>
-0.0435382

>  <SCORE.INTRA.VDW.0>
-0.672612

>  <SCORE.INTRA.norm>
-0.0685373

>  <SCORE.RESTR>
0

>  <SCORE.RESTR.CAVITY>
0

>  <SCORE.RESTR.norm>
0

>  <SCORE.SYSTEM>
0

>  <SCORE.SYSTEM.CONST>
0

>  <SCORE.SYSTEM.DIHEDRAL>
0

>  <SCORE.SYSTEM.SOLV>
0

>  <SCORE.SYSTEM.norm>
0

>  <SCORE.heavy>
10

>  <SCORE.norm>
-0.847518

>  <RMSD>
1.055

$$$$
ligand
 OpenBabel11021811473D
libRbt.so/2013.1/901 2013/11/27
 10  9  0  0  0  0  0  0  0  0999 V2000
   31.5581   17.0338   19.9177 N   0  0  0  0  0  0  0  0  0  0  0  0
   30.9253   17.6389   21.1235 C   0  0  2  0  0  0  0  0  0  0  0  0
   31.9730   18.1678   22.0929 C   0  0  0  0  0  0  0  0  0  0  0  0
   31.8130   19.2115   22.7276 O   0  0  0  0  0  0  0  0  0  0  0  0
   30.0019   16.6376   21.8138 C   0  0  0  0  0  0  0  0  0  0  0  0
   28.7639   16.3238   21.0059 C   0  0  0  0  0  0  0  0  0  0  0  0
   27.8829   15.3201   21.7006 C   0  0  0  0  0  0  0  0  0  0  0  0
   26.6157   15.0707   20.9019 C   0  0  0  0  0  0  0  0  0  0  0  0
   26.9056   14.5376   19.5453 N   0  0  0  0  0  0  0  0  0  0  0  0
   33.0123   17.5385   22.2969 O   0  0  0  0  0  0  0  0  0  0  0  0
  2  1  1  6  0  0  0
  2  3  1  0  0  0  0
  2  5  1  0  0  0  0
  3  4  1  0  0  0  0
  3 10  1  0  0  0  0
  5  6  1  0  0  0  0
  6  7  1  0  0  0  0
  7  8  1  0  0  0  0
  8  9  1  0  0  0  0
M  END
>  <CHROM.1>
142.12320883,-69.02998305,179.17332737,177.31995717,60.24487778,29.97836576
16.76713011,21.33681141,-0.47351575,-0.39542926,-2.05155193

>  <Name>
ligand

>  <RI>
0

>  <Rbt.Current_Directory>
/home/itssahil/PROJECTS/Mol_Feturizer/New_Systems/rnas/3DIX

>  <Rbt.Executable>
rbdock ($Id: //depot/dev/client3/rdock/2013.1/src/exe/rbdock.cxx#4 $)

>  <Rbt.Library>
libRbt.so (2013.1, Build901 2013/11/27)

>  <Rbt.Parameter_File>
/export/apps/rDock/src/rDock_2013.1_src/data/scripts/dock_solv.prm

>  <Rbt.Receptor>
prm/pocket_docking_4.prm

>  <SCORE>
-8.44139

>  <SCORE.INTER>
-7.77274

>  <SCORE.INTER.CONST>
1

>  <SCORE.INTER.POLAR>
0

>  <SCORE.INTER.ROT>
5

>  <SCORE.INTER.SOLV>
14.9504

>  <SCORE.INTER.VDW>
-17.0986

>  <SCORE.INTER.norm>
-0.777274

>  <SCORE.INTRA>
-0.668652

>  <SCORE.INTRA.DIHEDRAL>
-1.48205

>  <SCORE.INTRA.DIHEDRAL.0>
3.281

>  <SCORE.INTRA.POLAR>
0

>  <SCORE.INTRA.POLAR.0>
0

>  <SCORE.INTRA.REPUL>
0

>  <SCORE.INTRA.REPUL.0>
0

>  <SCORE.INTRA.SOLV>
0.220525

>  <SCORE.INTRA.SOLV.lig_0>
-31.9458

>  <SCORE.INTRA.VDW>
-0.0378918

>  <SCORE.INTRA.VDW.0>
-0.672612

>  <SCORE.INTRA.norm>
-0.0668652

>  <SCORE.RESTR>
0

>  <SCORE.RESTR.CAVITY>
0

>  <SCORE.RESTR.norm>
0

>  <SCORE.SYSTEM>
0

>  <SCORE.SYSTEM.CONST>
0

>  <SCORE.SYSTEM.DIHEDRAL>
0

>  <SCORE.SYSTEM.SOLV>
0

>  <SCORE.SYSTEM.norm>
0

>  <SCORE.heavy>
10

>  <SCORE.norm>
-0.844139

>  <RMSD>
1.072

$$$$
ligand
 OpenBabel11021811473D
libRbt.so/2013.1/901 2013/11/27
 10  9  0  0  0  0  0  0  0  0999 V2000
   31.6170   16.8909   19.9918 N   0  0  0  0  0  0  0  0  0  0  0  0
   30.8920   17.5927   21.0885 C   0  0  2  0  0  0  0  0  0  0  0  0
   31.8603   18.1855   22.1024 C   0  0  0  0  0  0  0  0  0  0  0  0
   32.9918   17.7295   22.2741 O   0  0  0  0  0  0  0  0  0  0  0  0
   29.8973   16.6555   21.7698 C   0  0  0  0  0  0  0  0  0  0  0  0
   28.7136   16.3152   20.8940 C   0  0  0  0  0  0  0  0  0  0  0  0
   27.7591   15.3778   21.5843 C   0  0  0  0  0  0  0  0  0  0  0  0
   26.5489   15.1003   20.7100 C   0  0  0  0  0  0  0  0  0  0  0  0
   26.9253   14.4706   19.4176 N   0  0  0  0  0  0  0  0  0  0  0  0
   31.5451   19.1744   22.7661 O   0  0  0  0  0  0  0  0  0  0  0  0
  2  1  1  6  0  0  0
  2  3  1  0  0  0  0
  2  5  1  0  0  0  0
  3  4  1  0  0  0  0
  3 10  1  0  0  0  0
  5  6  1  0  0  0  0
  6  7  1  0  0  0  0
  7  8  1  0  0  0  0
  8  9  1  0  0  0  0
M  END
>  <CHROM.1>
-25.28083688,-70.27914940,179.30805762,177.45505655,60.30222788,29.90652024
16.77060563,21.28472422,-0.53542905,-0.33327412,-2.15649181

>  <Name>
ligand

>  <RI>
0

>  <Rbt.Current_Directory>
/home/itssahil/PROJECTS/Mol_Feturizer/New_Systems/rnas/3DIX

>  <Rbt.Executable>
rbdock ($Id: //depot/dev/client3/rdock/2013.1/src/exe/rbdock.cxx#4 $)

>  <Rbt.Library>
libRbt.so (2013.1, Build901 2013/11/27)

>  <Rbt.Parameter_File>
/export/apps/rDock/src/rDock_2013.1_src/data/scripts/dock_solv.prm

>  <Rbt.Receptor>
prm/blind_docking_60.prm

>  <SCORE>
-8.24859

>  <SCORE.INTER>
-7.69401

>  <SCORE.INTER.CONST>
1

>  <SCORE.INTER.POLAR>
0

>  <SCORE.INTER.ROT>
5

>  <SCORE.INTER.SOLV>
14.8739

>  <SCORE.INTER.VDW>
-17.0206

>  <SCORE.INTER.norm>
-0.769401

>  <SCORE.INTRA>
-0.55458

>  <SCORE.INTRA.DIHEDRAL>
-1.26451

>  <SCORE.INTRA.DIHEDRAL.0>
3.281

>  <SCORE.INTRA.POLAR>
0

>  <SCORE.INTRA.POLAR.0>
0

>  <SCORE.INTRA.REPUL>
0

>  <SCORE.INTRA.REPUL.0>
0

>  <SCORE.INTRA.SOLV>
0.207801

>  <SCORE.INTRA.SOLV.lig_0>
-31.9458

>  <SCORE.INTRA.VDW>
-0.0262264

>  <SCORE.INTRA.VDW.0>
-0.672612

>  <SCORE.INTRA.norm>
-0.055458

>  <SCORE.RESTR>
0

>  <SCORE.RESTR.CAVITY>
0

>  <SCORE.RESTR.norm>
0

>  <SCORE.SYSTEM>
0

>  <SCORE.SYSTEM.CONST>
0

>  <SCORE.SYSTEM.DIHEDRAL>
0

>  <SCORE.SYSTEM.SOLV>
0

>  <SCORE.SYSTEM.norm>
0

>  <SCORE.heavy>
10

>  <SCORE.norm>
-0.824859

>  <RMSD>
1.074

$$$$
ligand
 OpenBabel11021811473D
libRbt.so/2013.1/901 2013/11/27
 10  9  0  0  0  0  0  0  0  0999 V2000
   32.3238   15.8648   19.8432 N   0  0  0  0  0  0  0  0  0  0  0  0
   31.1203   16.3622   20.5677 C   0  0  2  0  0  0  0  0  0  0  0  0
   31.4834   17.4617   21.5558 C   0  0  0  0  0  0  0  0  0  0  0  0
   30.7324   18.4103   21.7876 O   0  0  0  0  0  0  0  0  0  0  0  0
   30.3964   15.2162   21.2708 C   0  0  0  0  0  0  0  0  0  0  0  0
   29.0680   15.6315   21.8595 C   0  0  0  0  0  0  0  0  0  0  0  0
   28.0770   16.0092   20.7911 C   0  0  0  0  0  0  0  0  0  0  0  0
   27.6617   14.7906   19.9857 C   0  0  0  0  0  0  0  0  0  0  0  0
   26.7786   15.1485   18.8452 N   0  0  0  0  0  0  0  0  0  0  0  0
   32.5413   17.4141   22.1855 O   0  0  0  0  0  0  0  0  0  0  0  0
  2  1  1  1  0  0  0
  2  3  1  0  0  0  0
  2  5  1  0  0  0  0
  3  4  1  0  0  0  0
  3 10  1  0  0  0  0
  5  6  1  0  0  0  0
  6  7  1  0  0  0  0
  7  8  1  0  0  0  0
  8  9  1  0  0  0  0
M  END
>  <CHROM.1>
145.15669395,-172.03357337,66.00525194,68.47272879,-174.84294515,30.03488634
16.25959433,20.89321260,-0.55020704,-0.03688940,-2.40115767

>  <Name>
ligand

>  <RI>
0

>  <Rbt.Current_Directory>
/home/itssahil/PROJECTS/Mol_Feturizer/New_Systems/rnas/3DIX

>  <Rbt.Executable>
rbdock ($Id: //depot/dev/client3/rdock/2013.1/src/exe/rbdock.cxx#4 $)

>  <Rbt.Library>
libRbt.so (2013.1, Build901 2013/11/27)

>  <Rbt.Parameter_File>
/export/apps/rDock/src/rDock_2013.1_src/data/scripts/dock_solv.prm

>  <Rbt.Receptor>
prm/pocket_docking_8.prm

>  <SCORE>
-6.25829

>  <SCORE.INTER>
-6.00385

>  <SCORE.INTER.CONST>
1

>  <SCORE.INTER.POLAR>
0

>  <SCORE.INTER.ROT>
5

>  <SCORE.INTER.SOLV>
16.6841

>  <SCORE.INTER.VDW>
-16.4973

>  <SCORE.INTER.norm>
-0.600385

>  <SCORE.INTRA>
-0.254434

>  <SCORE.INTRA.DIHEDRAL>
-1.07651

>  <SCORE.INTRA.DIHEDRAL.0>
3.281

>  <SCORE.INTRA.POLAR>
0

>  <SCORE.INTRA.POLAR.0>
0

>  <SCORE.INTRA.REPUL>
0

>  <SCORE.INTRA.REPUL.0>
0

>  <SCORE.INTRA.SOLV>
-0.981404

>  <SCORE.INTRA.SOLV.lig_0>
-31.9458

>  <SCORE.INTRA.VDW>
0.774522

>  <SCORE.INTRA.VDW.0>
-0.672612

>  <SCORE.INTRA.norm>
-0.0254434

>  <SCORE.RESTR>
0

>  <SCORE.RESTR.CAVITY>
0

>  <SCORE.RESTR.norm>
0

>  <SCORE.SYSTEM>
0

>  <SCORE.SYSTEM.CONST>
0

>  <SCORE.SYSTEM.DIHEDRAL>
0

>  <SCORE.SYSTEM.SOLV>
0

>  <SCORE.SYSTEM.norm>
0

>  <SCORE.heavy>
10

>  <SCORE.norm>
-0.625829

>  <RMSD>
1.168

$$$$
ligand
 OpenBabel11021811473D
libRbt.so/2013.1/901 2013/11/27
 10  9  0  0  0  0  0  0  0  0999 V2000
   32.2822   16.2880   20.5429 N   0  0  0  0  0  0  0  0  0  0  0  0
   31.3824   17.3284   21.1162 C   0  0  2  0  0  0  0  0  0  0  0  0
   32.1592   18.3287   21.9607 C   0  0  0  0  0  0  0  0  0  0  0  0
   31.5988   19.1351   22.7045 O   0  0  0  0  0  0  0  0  0  0  0  0
   30.2585   16.6883   21.9278 C   0  0  0  0  0  0  0  0  0  0  0  0
   29.2592   15.9483   21.0689 C   0  0  0  0  0  0  0  0  0  0  0  0
   28.0557   15.5126   21.8613 C   0  0  0  0  0  0  0  0  0  0  0  0
   27.0168   14.8736   20.9567 C   0  0  0  0  0  0  0  0  0  0  0  0
   26.5669   15.7969   19.8825 N   0  0  0  0  0  0  0  0  0  0  0  0
   33.3911   18.3366   21.9477 O   0  0  0  0  0  0  0  0  0  0  0  0
  2  1  1  1  0  0  0
  2  3  1  0  0  0  0
  2  5  1  0  0  0  0
  3  4  1  0  0  0  0
  3 10  1  0  0  0  0
  5  6  1  0  0  0  0
  6  7  1  0  0  0  0
  7  8  1  0  0  0  0
  8  9  1  0  0  0  0
M  END
>  <CHROM.1>
-167.68445293,-69.58501019,-171.12255463,175.34814232,-58.55592464,30.22505388
16.85223489,21.41718563,-0.50614814,-0.16429553,-2.47201659

>  <Name>
ligand

>  <RI>
0

>  <Rbt.Current_Directory>
/home/itssahil/PROJECTS/Mol_Feturizer/New_Systems/rnas/3DIX

>  <Rbt.Executable>
rbdock ($Id: //depot/dev/client3/rdock/2013.1/src/exe/rbdock.cxx#4 $)

>  <Rbt.Library>
libRbt.so (2013.1, Build901 2013/11/27)

>  <Rbt.Parameter_File>
/export/apps/rDock/src/rDock_2013.1_src/data/scripts/dock_solv.prm

>  <Rbt.Receptor>
prm/pocket_docking_3.prm

>  <SCORE>
-7.43292

>  <SCORE.INTER>
-7.43045

>  <SCORE.INTER.CONST>
1

>  <SCORE.INTER.POLAR>
0

>  <SCORE.INTER.ROT>
5

>  <SCORE.INTER.SOLV>
15.776

>  <SCORE.INTER.VDW>
-17.1456

>  <SCORE.INTER.norm>
-0.743045

>  <SCORE.INTRA>
-0.00247111

>  <SCORE.INTRA.DIHEDRAL>
-0.955524

>  <SCORE.INTRA.DIHEDRAL.0>
3.281

>  <SCORE.INTRA.POLAR>
0

>  <SCORE.INTRA.POLAR.0>
0

>  <SCORE.INTRA.REPUL>
0

>  <SCORE.INTRA.REPUL.0>
0

>  <SCORE.INTRA.SOLV>
0.248464

>  <SCORE.INTRA.SOLV.lig_0>
-31.9458

>  <SCORE.INTRA.VDW>
0.351059

>  <SCORE.INTRA.VDW.0>
-0.672612

>  <SCORE.INTRA.norm>
-0.000247111

>  <SCORE.RESTR>
0

>  <SCORE.RESTR.CAVITY>
0

>  <SCORE.RESTR.norm>
0

>  <SCORE.SYSTEM>
0

>  <SCORE.SYSTEM.CONST>
0

>  <SCORE.SYSTEM.DIHEDRAL>
0

>  <SCORE.SYSTEM.SOLV>
0

>  <SCORE.SYSTEM.norm>
0

>  <SCORE.heavy>
10

>  <SCORE.norm>
-0.743292

>  <RMSD>
1.178

$$$$
ligand
 OpenBabel11021811473D
libRbt.so/2013.1/901 2013/11/27
 10  9  0  0  0  0  0  0  0  0999 V2000
   31.5529   17.0057   19.8904 N   0  0  0  0  0  0  0  0  0  0  0  0
   31.0481   17.3208   21.2566 C   0  0  2  0  0  0  0  0  0  0  0  0
   31.9780   18.2826   21.9829 C   0  0  0  0  0  0  0  0  0  0  0  0
   33.2043   18.1992   21.8994 O   0  0  0  0  0  0  0  0  0  0  0  0
   30.8438   16.0441   22.0690 C   0  0  0  0  0  0  0  0  0  0  0  0
   29.7248   15.1794   21.5361 C   0  0  0  0  0  0  0  0  0  0  0  0
   28.3784   15.8231   21.7344 C   0  0  0  0  0  0  0  0  0  0  0  0
   27.2841   14.9958   21.0832 C   0  0  0  0  0  0  0  0  0  0  0  0
   27.4227   14.9502   19.6043 N   0  0  0  0  0  0  0  0  0  0  0  0
   31.5211   19.2061   22.6583 O   0  0  0  0  0  0  0  0  0  0  0  0
  2  1  1  6  0  0  0
  2  3  1  0  0  0  0
  2  5  1  0  0  0  0
  3  4  1  0  0  0  0
  3 10  1  0  0  0  0
  5  6  1  0  0  0  0
  6  7  1  0  0  0  0
  7  8  1  0  0  0  0
  8  9  1  0  0  0  0
M  END
>  <CHROM.1>
-39.55097659,-67.28001283,-68.56813883,174.98306656,-65.34783889,30.32443863
16.72983147,21.38936975,-0.50689258,-0.44982234,-2.11607524

>  <Name>
ligand

>  <RI>
0

>  <Rbt.Current_Directory>
/home/itssahil/PROJECTS/Mol_Feturizer/New_Systems/rnas/3DIX

>  <Rbt.Executable>
rbdock ($Id: //depot/dev/client3/rdock/2013.1/src/exe/rbdock.cxx#4 $)

>  <Rbt.Library>
libRbt.so (2013.1, Build901 2013/11/27)

>  <Rbt.Parameter_File>
/export/apps/rDock/src/rDock_2013.1_src/data/scripts/dock_solv.prm

>  <Rbt.Receptor>
prm/pocket_docking_5.prm

>  <SCORE>
-8.72084

>  <SCORE.INTER>
-8.62828

>  <SCORE.INTER.CONST>
1

>  <SCORE.INTER.POLAR>
0

>  <SCORE.INTER.ROT>
5

>  <SCORE.INTER.SOLV>
12.3178

>  <SCORE.INTER.VDW>
-16.7914

>  <SCORE.INTER.norm>
-0.862828

>  <SCORE.INTRA>
-0.0925614

>  <SCORE.INTRA.DIHEDRAL>
-0.995697

>  <SCORE.INTRA.DIHEDRAL.0>
3.281

>  <SCORE.INTRA.POLAR>
0

>  <SCORE.INTRA.POLAR.0>
0

>  <SCORE.INTRA.REPUL>
0

>  <SCORE.INTRA.REPUL.0>
0

>  <SCORE.INTRA.SOLV>
0.658625

>  <SCORE.INTRA.SOLV.lig_0>
-31.9458

>  <SCORE.INTRA.VDW>
0.0759749

>  <SCORE.INTRA.VDW.0>
-0.672612

>  <SCORE.INTRA.norm>
-0.00925614

>  <SCORE.RESTR>
0

>  <SCORE.RESTR.CAVITY>
0

>  <SCORE.RESTR.norm>
0

>  <SCORE.SYSTEM>
0

>  <SCORE.SYSTEM.CONST>
0

>  <SCORE.SYSTEM.DIHEDRAL>
0

>  <SCORE.SYSTEM.SOLV>
0

>  <SCORE.SYSTEM.norm>
0

>  <SCORE.heavy>
10

>  <SCORE.norm>
-0.872084

>  <RMSD>
1.201

$$$$
ligand
 OpenBabel11021811473D
libRbt.so/2013.1/901 2013/11/27
 10  9  0  0  0  0  0  0  0  0999 V2000
   32.2539   15.8657   19.7928 N   0  0  0  0  0  0  0  0  0  0  0  0
   31.0514   16.3073   20.5542 C   0  0  2  0  0  0  0  0  0  0  0  0
   31.3757   17.4772   21.4725 C   0  0  0  0  0  0  0  0  0  0  0  0
   30.5755   18.3906   21.6798 O   0  0  0  0  0  0  0  0  0  0  0  0
   30.4508   15.1463   21.3437 C   0  0  0  0  0  0  0  0  0  0  0  0
   29.0902   15.4661   21.9184 C   0  0  0  0  0  0  0  0  0  0  0  0
   27.9792   15.0135   21.0090 C   0  0  0  0  0  0  0  0  0  0  0  0
   27.9098   15.8850   19.7673 C   0  0  0  0  0  0  0  0  0  0  0  0
   26.9607   15.3464   18.7585 N   0  0  0  0  0  0  0  0  0  0  0  0
   32.4526   17.5258   22.0690 O   0  0  0  0  0  0  0  0  0  0  0  0
  2  1  1  1  0  0  0
  2  3  1  0  0  0  0
  2  5  1  0  0  0  0
  3  4  1  0  0  0  0
  3 10  1  0  0  0  0
  5  6  1  0  0  0  0
  6  7  1  0  0  0  0
  7  8  1  0  0  0  0
  8  9  1  0  0  0  0
M  END
>  <CHROM.1>
143.78339578,-168.99011321,94.14645197,-71.17318554,171.55835222,30.02521584
16.27244502,20.85888284,-0.53936815,-0.04873852,-2.37379860

>  <Name>
ligand

>  <RI>
0

>  <Rbt.Current_Directory>
/home/itssahil/PROJECTS/Mol_Feturizer/New_Systems/rnas/3DIX

>  <Rbt.Executable>
rbdock ($Id: //depot/dev/client3/rdock/2013.1/src/exe/rbdock.cxx#4 $)

>  <Rbt.Library>
libRbt.so (2013.1, Build901 2013/11/27)

>  <Rbt.Parameter_File>
/export/apps/rDock/src/rDock_2013.1_src/data/scripts/dock_solv.prm

>  <Rbt.Receptor>
prm/blind_docking_60.prm

>  <SCORE>
-4.66192

>  <SCORE.INTER>
-6.15114

>  <SCORE.INTER.CONST>
1

>  <SCORE.INTER.POLAR>
0

>  <SCORE.INTER.ROT>
5

>  <SCORE.INTER.SOLV>
16.119

>  <SCORE.INTER.VDW>
-16.4071

>  <SCORE.INTER.norm>
-0.615114

>  <SCORE.INTRA>
1.48922

>  <SCORE.INTRA.DIHEDRAL>
3.08598

>  <SCORE.INTRA.DIHEDRAL.0>
3.281

>  <SCORE.INTRA.POLAR>
0

>  <SCORE.INTRA.POLAR.0>
0

>  <SCORE.INTRA.REPUL>
0

>  <SCORE.INTRA.REPUL.0>
0

>  <SCORE.INTRA.SOLV>
-0.787187

>  <SCORE.INTRA.SOLV.lig_0>
-31.9458

>  <SCORE.INTRA.VDW>
0.339822

>  <SCORE.INTRA.VDW.0>
-0.672612

>  <SCORE.INTRA.norm>
0.148922

>  <SCORE.RESTR>
0

>  <SCORE.RESTR.CAVITY>
0

>  <SCORE.RESTR.norm>
0

>  <SCORE.SYSTEM>
0

>  <SCORE.SYSTEM.CONST>
0

>  <SCORE.SYSTEM.DIHEDRAL>
0

>  <SCORE.SYSTEM.SOLV>
0

>  <SCORE.SYSTEM.norm>
0

>  <SCORE.heavy>
10

>  <SCORE.norm>
-0.466192

>  <RMSD>
1.259

$$$$
ligand
 OpenBabel11021811473D
libRbt.so/2013.1/901 2013/11/27
 10  9  0  0  0  0  0  0  0  0999 V2000
   31.8162   16.2055   20.4429 N   0  0  0  0  0  0  0  0  0  0  0  0
   30.9283   17.1672   21.1552 C   0  0  2  0  0  0  0  0  0  0  0  0
   31.7361   18.1745   21.9614 C   0  0  0  0  0  0  0  0  0  0  0  0
   31.2209   19.1688   22.4749 O   0  0  0  0  0  0  0  0  0  0  0  0
   29.9323   16.4298   22.0474 C   0  0  0  0  0  0  0  0  0  0  0  0
   28.9453   15.5954   21.2643 C   0  0  0  0  0  0  0  0  0  0  0  0
   28.0620   16.4469   20.3921 C   0  0  0  0  0  0  0  0  0  0  0  0
   27.0056   15.6001   19.7043 C   0  0  0  0  0  0  0  0  0  0  0  0
   26.0502   15.0024   20.6730 N   0  0  0  0  0  0  0  0  0  0  0  0
   32.9408   18.0021   22.1531 O   0  0  0  0  0  0  0  0  0  0  0  0
  2  1  1  1  0  0  0
  2  3  1  0  0  0  0
  2  5  1  0  0  0  0
  3  4  1  0  0  0  0
  3 10  1  0  0  0  0
  5  6  1  0  0  0  0
  6  7  1  0  0  0  0
  7  8  1  0  0  0  0
  8  9  1  0  0  0  0
M  END
>  <CHROM.1>
169.64444479,-65.72397721,-64.08855730,-175.31539185,65.32748847,29.89167151
16.80738805,21.24745613,-0.54641234,-0.02656424,-2.55379167

>  <Name>
ligand

>  <RI>
0

>  <Rbt.Current_Directory>
/home/itssahil/PROJECTS/Mol_Feturizer/New_Systems/rnas/3DIX

>  <Rbt.Executable>
rbdock ($Id: //depot/dev/client3/rdock/2013.1/src/exe/rbdock.cxx#4 $)

>  <Rbt.Library>
libRbt.so (2013.1, Build901 2013/11/27)

>  <Rbt.Parameter_File>
/export/apps/rDock/src/rDock_2013.1_src/data/scripts/dock_solv.prm

>  <Rbt.Receptor>
prm/pocket_docking_3.prm

>  <SCORE>
-6.57622

>  <SCORE.INTER>
-6.6487

>  <SCORE.INTER.CONST>
1

>  <SCORE.INTER.POLAR>
0

>  <SCORE.INTER.ROT>
5

>  <SCORE.INTER.SOLV>
16.7893

>  <SCORE.INTER.VDW>
-16.9622

>  <SCORE.INTER.norm>
-0.66487

>  <SCORE.INTRA>
0.0724851

>  <SCORE.INTRA.DIHEDRAL>
-1.42144

>  <SCORE.INTRA.DIHEDRAL.0>
3.281

>  <SCORE.INTRA.POLAR>
0

>  <SCORE.INTRA.POLAR.0>
0

>  <SCORE.INTRA.REPUL>
0

>  <SCORE.INTRA.REPUL.0>
0

>  <SCORE.INTRA.SOLV>
0.75175

>  <SCORE.INTRA.SOLV.lig_0>
-31.9458

>  <SCORE.INTRA.VDW>
0.407328

>  <SCORE.INTRA.VDW.0>
-0.672612

>  <SCORE.INTRA.norm>
0.00724851

>  <SCORE.RESTR>
0

>  <SCORE.RESTR.CAVITY>
0

>  <SCORE.RESTR.norm>
0

>  <SCORE.SYSTEM>
0

>  <SCORE.SYSTEM.CONST>
0

>  <SCORE.SYSTEM.DIHEDRAL>
0

>  <SCORE.SYSTEM.SOLV>
0

>  <SCORE.SYSTEM.norm>
0

>  <SCORE.heavy>
10

>  <SCORE.norm>
-0.657622

>  <RMSD>
1.304

$$$$
ligand
 OpenBabel11021811473D
libRbt.so/2013.1/901 2013/11/27
 10  9  0  0  0  0  0  0  0  0999 V2000
   30.6077   15.0336   21.4326 N   0  0  0  0  0  0  0  0  0  0  0  0
   31.0499   16.0884   20.4774 C   0  0  2  0  0  0  0  0  0  0  0  0
   32.4670   16.5533   20.7823 C   0  0  0  0  0  0  0  0  0  0  0  0
   33.3571   16.5485   19.9307 O   0  0  0  0  0  0  0  0  0  0  0  0
   30.0785   17.2666   20.4800 C   0  0  0  0  0  0  0  0  0  0  0  0
   28.7466   16.9335   19.8485 C   0  0  0  0  0  0  0  0  0  0  0  0
   27.9322   16.0110   20.7157 C   0  0  0  0  0  0  0  0  0  0  0  0
   26.6729   15.5644   19.9941 C   0  0  0  0  0  0  0  0  0  0  0  0
   26.9786   14.7808   18.7689 N   0  0  0  0  0  0  0  0  0  0  0  0
   32.7582   16.9852   21.8987 O   0  0  0  0  0  0  0  0  0  0  0  0
  2  1  1  1  0  0  0
  2  3  1  0  0  0  0
  2  5  1  0  0  0  0
  3  4  1  0  0  0  0
  3 10  1  0  0  0  0
  5  6  1  0  0  0  0
  6  7  1  0  0  0  0
  7  8  1  0  0  0  0
  8  9  1  0  0  0  0
M  END
>  <CHROM.1>
125.77980762,-70.39972844,71.42668411,-173.51015252,62.73752422,30.10755148
16.18864019,20.44113425,0.26571466,0.10599613,1.20829204

>  <Name>
ligand

>  <RI>
0

>  <Rbt.Current_Directory>
/home/itssahil/PROJECTS/Mol_Feturizer/New_Systems/rnas/3DIX

>  <Rbt.Executable>
rbdock ($Id: //depot/dev/client3/rdock/2013.1/src/exe/rbdock.cxx#4 $)

>  <Rbt.Library>
libRbt.so (2013.1, Build901 2013/11/27)

>  <Rbt.Parameter_File>
/export/apps/rDock/src/rDock_2013.1_src/data/scripts/dock_solv.prm

>  <Rbt.Receptor>
prm/pocket_docking_3.prm

>  <SCORE>
-6.70002

>  <SCORE.INTER>
-7.5287

>  <SCORE.INTER.CONST>
1

>  <SCORE.INTER.POLAR>
0

>  <SCORE.INTER.ROT>
5

>  <SCORE.INTER.SOLV>
15.1561

>  <SCORE.INTER.VDW>
-17.0045

>  <SCORE.INTER.norm>
-0.75287

>  <SCORE.INTRA>
0.828673

>  <SCORE.INTRA.DIHEDRAL>
-0.631836

>  <SCORE.INTRA.DIHEDRAL.0>
3.281

>  <SCORE.INTRA.POLAR>
0

>  <SCORE.INTRA.POLAR.0>
0

>  <SCORE.INTRA.REPUL>
0

>  <SCORE.INTRA.REPUL.0>
0

>  <SCORE.INTRA.SOLV>
1.67889

>  <SCORE.INTRA.SOLV.lig_0>
-31.9458

>  <SCORE.INTRA.VDW>
0.305145

>  <SCORE.INTRA.VDW.0>
-0.672612

>  <SCORE.INTRA.norm>
0.0828673

>  <SCORE.RESTR>
0

>  <SCORE.RESTR.CAVITY>
0

>  <SCORE.RESTR.norm>
0

>  <SCORE.SYSTEM>
0

>  <SCORE.SYSTEM.CONST>
0

>  <SCORE.SYSTEM.DIHEDRAL>
0

>  <SCORE.SYSTEM.SOLV>
0

>  <SCORE.SYSTEM.norm>
0

>  <SCORE.heavy>
10

>  <SCORE.norm>
-0.670002

>  <RMSD>
1.388

$$$$
ligand
 OpenBabel11021811473D
libRbt.so/2013.1/901 2013/11/27
 10  9  0  0  0  0  0  0  0  0999 V2000
   30.8425   15.2374   21.5864 N   0  0  0  0  0  0  0  0  0  0  0  0
   30.9900   16.1156   20.3916 C   0  0  2  0  0  0  0  0  0  0  0  0
   32.4012   16.6765   20.2868 C   0  0  0  0  0  0  0  0  0  0  0  0
   32.8532   17.4747   21.1091 O   0  0  0  0  0  0  0  0  0  0  0  0
   29.9577   17.2407   20.4126 C   0  0  0  0  0  0  0  0  0  0  0  0
   28.5729   16.7770   20.0241 C   0  0  0  0  0  0  0  0  0  0  0  0
   27.9973   15.8251   21.0384 C   0  0  0  0  0  0  0  0  0  0  0  0
   26.6739   15.2579   20.5556 C   0  0  0  0  0  0  0  0  0  0  0  0
   26.8302   14.4492   19.3186 N   0  0  0  0  0  0  0  0  0  0  0  0
   33.1533   16.3157   19.3802 O   0  0  0  0  0  0  0  0  0  0  0  0
  2  1  1  1  0  0  0
  2  3  1  0  0  0  0
  2  5  1  0  0  0  0
  3  4  1  0  0  0  0
  3 10  1  0  0  0  0
  5  6  1  0  0  0  0
  6  7  1  0  0  0  0
  7  8  1  0  0  0  0
  8  9  1  0  0  0  0
M  END
>  <CHROM.1>
-66.75352978,-76.26789106,66.36726726,-173.89007463,63.19567334,30.06998244
16.15098872,20.40758644,0.21470649,0.15596734,0.74661159

>  <Name>
ligand

>  <RI>
0

>  <Rbt.Current_Directory>
/home/itssahil/PROJECTS/Mol_Feturizer/New_Systems/rnas/3DIX

>  <Rbt.Executable>
rbdock ($Id: //depot/dev/client3/rdock/2013.1/src/exe/rbdock.cxx#4 $)

>  <Rbt.Library>
libRbt.so (2013.1, Build901 2013/11/27)

>  <Rbt.Parameter_File>
/export/apps/rDock/src/rDock_2013.1_src/data/scripts/dock_solv.prm

>  <Rbt.Receptor>
prm/pocket_docking_5.prm

>  <SCORE>
-6.66976

>  <SCORE.INTER>
-7.64742

>  <SCORE.INTER.CONST>
1

>  <SCORE.INTER.POLAR>
0

>  <SCORE.INTER.ROT>
5

>  <SCORE.INTER.SOLV>
16.0512

>  <SCORE.INTER.VDW>
-17.382

>  <SCORE.INTER.norm>
-0.764742

>  <SCORE.INTRA>
0.977655

>  <SCORE.INTRA.DIHEDRAL>
-0.440745

>  <SCORE.INTRA.DIHEDRAL.0>
3.281

>  <SCORE.INTRA.POLAR>
0

>  <SCORE.INTRA.POLAR.0>
0

>  <SCORE.INTRA.REPUL>
0

>  <SCORE.INTRA.REPUL.0>
0

>  <SCORE.INTRA.SOLV>
1.56835

>  <SCORE.INTRA.SOLV.lig_0>
-31.9458

>  <SCORE.INTRA.VDW>
0.413852

>  <SCORE.INTRA.VDW.0>
-0.672612

>  <SCORE.INTRA.norm>
0.0977655

>  <SCORE.RESTR>
0

>  <SCORE.RESTR.CAVITY>
0

>  <SCORE.RESTR.norm>
0

>  <SCORE.SYSTEM>
0

>  <SCORE.SYSTEM.CONST>
0

>  <SCORE.SYSTEM.DIHEDRAL>
0

>  <SCORE.SYSTEM.SOLV>
0

>  <SCORE.SYSTEM.norm>
0

>  <SCORE.heavy>
10

>  <SCORE.norm>
-0.666976

>  <RMSD>
1.474

$$$$
ligand
 OpenBabel11021811473D
libRbt.so/2013.1/901 2013/11/27
 10  9  0  0  0  0  0  0  0  0999 V2000
   31.0761   17.5958   21.9874 N   0  0  0  0  0  0  0  0  0  0  0  0
   31.8344   16.5093   21.3054 C   0  0  2  0  0  0  0  0  0  0  0  0
   33.1625   17.0173   20.7619 C   0  0  0  0  0  0  0  0  0  0  0  0
   33.6659   18.0754   21.1421 O   0  0  0  0  0  0  0  0  0  0  0  0
   30.9986   15.8767   20.1950 C   0  0  0  0  0  0  0  0  0  0  0  0
   29.7879   15.1379   20.7170 C   0  0  0  0  0  0  0  0  0  0  0  0
   28.6768   16.0814   21.0929 C   0  0  0  0  0  0  0  0  0  0  0  0
   27.3812   15.3239   21.3243 C   0  0  0  0  0  0  0  0  0  0  0  0
   26.8971   14.6538   20.0893 N   0  0  0  0  0  0  0  0  0  0  0  0
   33.7963   16.3564   19.9377 O   0  0  0  0  0  0  0  0  0  0  0  0
  2  1  1  6  0  0  0
  2  3  1  0  0  0  0
  2  5  1  0  0  0  0
  3  4  1  0  0  0  0
  3 10  1  0  0  0  0
  5  6  1  0  0  0  0
  6  7  1  0  0  0  0
  7  8  1  0  0  0  0
  8  9  1  0  0  0  0
M  END
>  <CHROM.1>
17.01818209,-66.12912657,77.71750047,167.70847416,-63.73307582,30.76945949
16.27692983,20.84455236,0.25645343,0.23279338,0.73933798

>  <Name>
ligand

>  <RI>
0

>  <Rbt.Current_Directory>
/home/itssahil/PROJECTS/Mol_Feturizer/New_Systems/rnas/3DIX

>  <Rbt.Executable>
rbdock ($Id: //depot/dev/client3/rdock/2013.1/src/exe/rbdock.cxx#4 $)

>  <Rbt.Library>
libRbt.so (2013.1, Build901 2013/11/27)

>  <Rbt.Parameter_File>
/export/apps/rDock/src/rDock_2013.1_src/data/scripts/dock_solv.prm

>  <Rbt.Receptor>
prm/blind_docking_100.prm

>  <SCORE>
-6.30009

>  <SCORE.INTER>
-7.86015

>  <SCORE.INTER.CONST>
1

>  <SCORE.INTER.POLAR>
0

>  <SCORE.INTER.ROT>
5

>  <SCORE.INTER.SOLV>
13.5138

>  <SCORE.INTER.VDW>
-16.678

>  <SCORE.INTER.norm>
-0.786015

>  <SCORE.INTRA>
1.56007

>  <SCORE.INTRA.DIHEDRAL>
0.21019

>  <SCORE.INTRA.DIHEDRAL.0>
3.281

>  <SCORE.INTRA.POLAR>
0

>  <SCORE.INTRA.POLAR.0>
0

>  <SCORE.INTRA.REPUL>
0

>  <SCORE.INTRA.REPUL.0>
0

>  <SCORE.INTRA.SOLV>
1.60052

>  <SCORE.INTRA.SOLV.lig_0>
-31.9458

>  <SCORE.INTRA.VDW>
0.654714

>  <SCORE.INTRA.VDW.0>
-0.672612

>  <SCORE.INTRA.norm>
0.156007

>  <SCORE.RESTR>
0

>  <SCORE.RESTR.CAVITY>
0

>  <SCORE.RESTR.norm>
0

>  <SCORE.SYSTEM>
0

>  <SCORE.SYSTEM.CONST>
0

>  <SCORE.SYSTEM.DIHEDRAL>
0

>  <SCORE.SYSTEM.SOLV>
0

>  <SCORE.SYSTEM.norm>
0

>  <SCORE.heavy>
10

>  <SCORE.norm>
-0.630009

>  <RMSD>
1.535

$$$$
ligand
 OpenBabel11021811473D
libRbt.so/2013.1/901 2013/11/27
 10  9  0  0  0  0  0  0  0  0999 V2000
   33.5627   17.1627   20.6589 N   0  0  0  0  0  0  0  0  0  0  0  0
   32.1470   17.4633   21.0140 C   0  0  2  0  0  0  0  0  0  0  0  0
   32.0614   18.5369   22.0897 C   0  0  0  0  0  0  0  0  0  0  0  0
   31.0054   19.1092   22.3637 O   0  0  0  0  0  0  0  0  0  0  0  0
   31.4149   16.1963   21.4506 C   0  0  0  0  0  0  0  0  0  0  0  0
   29.9115   16.3490   21.4335 C   0  0  0  0  0  0  0  0  0  0  0  0
   29.2153   15.0655   21.7995 C   0  0  0  0  0  0  0  0  0  0  0  0
   27.7220   15.1703   21.5447 C   0  0  0  0  0  0  0  0  0  0  0  0
   27.4095   15.3019   20.0978 N   0  0  0  0  0  0  0  0  0  0  0  0
   33.0558   18.8440   22.7491 O   0  0  0  0  0  0  0  0  0  0  0  0
  2  1  1  1  0  0  0
  2  3  1  0  0  0  0
  2  5  1  0  0  0  0
  3  4  1  0  0  0  0
  3 10  1  0  0  0  0
  5  6  1  0  0  0  0
  6  7  1  0  0  0  0
  7  8  1  0  0  0  0
  8  9  1  0  0  0  0
M  END
>  <CHROM.1>
166.71875221,-163.23691372,177.07068049,-170.19674685,66.26535000,30.75773386
16.95062210,21.54494445,-0.58843253,-0.18560122,-2.59177666

>  <Name>
ligand

>  <RI>
0

>  <Rbt.Current_Directory>
/home/itssahil/PROJECTS/Mol_Feturizer/New_Systems/rnas/3DIX

>  <Rbt.Executable>
rbdock ($Id: //depot/dev/client3/rdock/2013.1/src/exe/rbdock.cxx#4 $)

>  <Rbt.Library>
libRbt.so (2013.1, Build901 2013/11/27)

>  <Rbt.Parameter_File>
/export/apps/rDock/src/rDock_2013.1_src/data/scripts/dock_solv.prm

>  <Rbt.Receptor>
prm/pocket_docking_7.prm

>  <SCORE>
-8.1237

>  <SCORE.INTER>
-7.72924

>  <SCORE.INTER.CONST>
1

>  <SCORE.INTER.POLAR>
0

>  <SCORE.INTER.ROT>
5

>  <SCORE.INTER.SOLV>
13.8915

>  <SCORE.INTER.VDW>
-16.7167

>  <SCORE.INTER.norm>
-0.772924

>  <SCORE.INTRA>
-0.394458

>  <SCORE.INTRA.DIHEDRAL>
-0.247654

>  <SCORE.INTRA.DIHEDRAL.0>
3.281

>  <SCORE.INTRA.POLAR>
0

>  <SCORE.INTRA.POLAR.0>
0

>  <SCORE.INTRA.REPUL>
0

>  <SCORE.INTRA.REPUL.0>
0

>  <SCORE.INTRA.SOLV>
-0.5774

>  <SCORE.INTRA.SOLV.lig_0>
-31.9458

>  <SCORE.INTRA.VDW>
0.0180683

>  <SCORE.INTRA.VDW.0>
-0.672612

>  <SCORE.INTRA.norm>
-0.0394458

>  <SCORE.RESTR>
0

>  <SCORE.RESTR.CAVITY>
0

>  <SCORE.RESTR.norm>
0

>  <SCORE.SYSTEM>
0

>  <SCORE.SYSTEM.CONST>
0

>  <SCORE.SYSTEM.DIHEDRAL>
0

>  <SCORE.SYSTEM.SOLV>
0

>  <SCORE.SYSTEM.norm>
0

>  <SCORE.heavy>
10

>  <SCORE.norm>
-0.81237

>  <RMSD>
1.611

$$$$
ligand
 OpenBabel11021811473D
libRbt.so/2013.1/901 2013/11/27
 10  9  0  0  0  0  0  0  0  0999 V2000
   31.4053   17.5167   22.1498 N   0  0  0  0  0  0  0  0  0  0  0  0
   31.5397   16.4960   21.0723 C   0  0  2  0  0  0  0  0  0  0  0  0
   32.7783   16.7460   20.2235 C   0  0  0  0  0  0  0  0  0  0  0  0
   33.5868   17.6371   20.4882 O   0  0  0  0  0  0  0  0  0  0  0  0
   30.2845   16.4535   20.2036 C   0  0  0  0  0  0  0  0  0  0  0  0
   29.0654   15.9681   20.9532 C   0  0  0  0  0  0  0  0  0  0  0  0
   27.8906   15.7612   20.0350 C   0  0  0  0  0  0  0  0  0  0  0  0
   28.1341   14.5866   19.1039 C   0  0  0  0  0  0  0  0  0  0  0  0
   27.0551   14.4419   18.0922 N   0  0  0  0  0  0  0  0  0  0  0  0
   33.0269   16.0307   19.2518 O   0  0  0  0  0  0  0  0  0  0  0  0
  2  1  1  1  0  0  0
  2  3  1  0  0  0  0
  2  5  1  0  0  0  0
  3  4  1  0  0  0  0
  3 10  1  0  0  0  0
  5  6  1  0  0  0  0
  6  7  1  0  0  0  0
  7  8  1  0  0  0  0
  8  9  1  0  0  0  0
M  END
>  <CHROM.1>
4.53846435,-65.97924183,-172.40339160,68.59457386,-174.13845810,30.51567606
16.17187647,20.14184441,0.41030520,0.21688528,1.05516965

>  <Name>
ligand

>  <RI>
0

>  <Rbt.Current_Directory>
/home/itssahil/PROJECTS/Mol_Feturizer/New_Systems/rnas/3DIX

>  <Rbt.Executable>
rbdock ($Id: //depot/dev/client3/rdock/2013.1/src/exe/rbdock.cxx#4 $)

>  <Rbt.Library>
libRbt.so (2013.1, Build901 2013/11/27)

>  <Rbt.Parameter_File>
/export/apps/rDock/src/rDock_2013.1_src/data/scripts/dock_solv.prm

>  <Rbt.Receptor>
prm/pocket_docking_4.prm

>  <SCORE>
-6.56645

>  <SCORE.INTER>
-6.62868

>  <SCORE.INTER.CONST>
1

>  <SCORE.INTER.POLAR>
0

>  <SCORE.INTER.ROT>
5

>  <SCORE.INTER.SOLV>
14.056

>  <SCORE.INTER.VDW>
-16.0378

>  <SCORE.INTER.norm>
-0.662868

>  <SCORE.INTRA>
0.0622331

>  <SCORE.INTRA.DIHEDRAL>
-0.975472

>  <SCORE.INTRA.DIHEDRAL.0>
3.281

>  <SCORE.INTRA.POLAR>
0

>  <SCORE.INTRA.POLAR.0>
0

>  <SCORE.INTRA.REPUL>
0

>  <SCORE.INTRA.REPUL.0>
0

>  <SCORE.INTRA.SOLV>
-0.450188

>  <SCORE.INTRA.SOLV.lig_0>
-31.9458

>  <SCORE.INTRA.VDW>
0.775063

>  <SCORE.INTRA.VDW.0>
-0.672612

>  <SCORE.INTRA.norm>
0.00622331

>  <SCORE.RESTR>
0

>  <SCORE.RESTR.CAVITY>
0

>  <SCORE.RESTR.norm>
0

>  <SCORE.SYSTEM>
0

>  <SCORE.SYSTEM.CONST>
0

>  <SCORE.SYSTEM.DIHEDRAL>
0

>  <SCORE.SYSTEM.SOLV>
0

>  <SCORE.SYSTEM.norm>
0

>  <SCORE.heavy>
10

>  <SCORE.norm>
-0.656645

>  <RMSD>
1.773

$$$$
ligand
 OpenBabel11021811473D
libRbt.so/2013.1/901 2013/11/27
 10  9  0  0  0  0  0  0  0  0999 V2000
   31.2460   17.5089   22.1432 N   0  0  0  0  0  0  0  0  0  0  0  0
   31.4151   16.4444   21.1142 C   0  0  2  0  0  0  0  0  0  0  0  0
   32.6995   16.6395   20.3209 C   0  0  0  0  0  0  0  0  0  0  0  0
   33.5631   17.4505   20.6587 O   0  0  0  0  0  0  0  0  0  0  0  0
   30.2048   16.3891   20.1847 C   0  0  0  0  0  0  0  0  0  0  0  0
   28.9390   15.9606   20.8905 C   0  0  0  0  0  0  0  0  0  0  0  0
   27.8047   15.7485   19.9237 C   0  0  0  0  0  0  0  0  0  0  0  0
   28.0616   14.5340   19.0491 C   0  0  0  0  0  0  0  0  0  0  0  0
   27.0196   14.3682   18.0025 N   0  0  0  0  0  0  0  0  0  0  0  0
   32.9286   15.9565   19.3214 O   0  0  0  0  0  0  0  0  0  0  0  0
  2  1  1  1  0  0  0
  2  3  1  0  0  0  0
  2  5  1  0  0  0  0
  3  4  1  0  0  0  0
  3 10  1  0  0  0  0
  5  6  1  0  0  0  0
  6  7  1  0  0  0  0
  7  8  1  0  0  0  0
  8  9  1  0  0  0  0
M  END
>  <CHROM.1>
10.79425078,-65.71269710,-172.87580563,68.67104820,-174.87289008,30.42809357
16.10677023,20.14704021,0.44001802,0.17819849,1.02706676

>  <Name>
ligand

>  <RI>
0

>  <Rbt.Current_Directory>
/home/itssahil/PROJECTS/Mol_Feturizer/New_Systems/rnas/3DIX

>  <Rbt.Executable>
rbdock ($Id: //depot/dev/client3/rdock/2013.1/src/exe/rbdock.cxx#4 $)

>  <Rbt.Library>
libRbt.so (2013.1, Build901 2013/11/27)

>  <Rbt.Parameter_File>
/export/apps/rDock/src/rDock_2013.1_src/data/scripts/dock_solv.prm

>  <Rbt.Receptor>
prm/blind_docking_60.prm

>  <SCORE>
-6.51702

>  <SCORE.INTER>
-6.61391

>  <SCORE.INTER.CONST>
1

>  <SCORE.INTER.POLAR>
0

>  <SCORE.INTER.ROT>
5

>  <SCORE.INTER.SOLV>
14.3239

>  <SCORE.INTER.VDW>
-16.1172

>  <SCORE.INTER.norm>
-0.661391

>  <SCORE.INTRA>
0.0968902

>  <SCORE.INTRA.DIHEDRAL>
-1.06251

>  <SCORE.INTRA.DIHEDRAL.0>
3.281

>  <SCORE.INTRA.POLAR>
0

>  <SCORE.INTRA.POLAR.0>
0

>  <SCORE.INTRA.REPUL>
0

>  <SCORE.INTRA.REPUL.0>
0

>  <SCORE.INTRA.SOLV>
-0.452307

>  <SCORE.INTRA.SOLV.lig_0>
-31.9458

>  <SCORE.INTRA.VDW>
0.8543

>  <SCORE.INTRA.VDW.0>
-0.672612

>  <SCORE.INTRA.norm>
0.00968902

>  <SCORE.RESTR>
0

>  <SCORE.RESTR.CAVITY>
0

>  <SCORE.RESTR.norm>
0

>  <SCORE.SYSTEM>
0

>  <SCORE.SYSTEM.CONST>
0

>  <SCORE.SYSTEM.DIHEDRAL>
0

>  <SCORE.SYSTEM.SOLV>
0

>  <SCORE.SYSTEM.norm>
0

>  <SCORE.heavy>
10

>  <SCORE.norm>
-0.651702

>  <RMSD>
1.784

$$$$
ligand
 OpenBabel11021811473D
libRbt.so/2013.1/901 2013/11/27
 10  9  0  0  0  0  0  0  0  0999 V2000
   31.5402   17.5273   22.1512 N   0  0  0  0  0  0  0  0  0  0  0  0
   31.7350   16.4363   21.1550 C   0  0  2  0  0  0  0  0  0  0  0  0
   32.8958   16.7415   20.2188 C   0  0  0  0  0  0  0  0  0  0  0  0
   33.6394   17.7089   20.3886 O   0  0  0  0  0  0  0  0  0  0  0  0
   30.4519   16.1843   20.3663 C   0  0  0  0  0  0  0  0  0  0  0  0
   29.3041   15.7301   21.2381 C   0  0  0  0  0  0  0  0  0  0  0  0
   28.0319   15.5715   20.4491 C   0  0  0  0  0  0  0  0  0  0  0  0
   26.8938   15.1178   21.3463 C   0  0  0  0  0  0  0  0  0  0  0  0
   25.6040   15.0319   20.6132 N   0  0  0  0  0  0  0  0  0  0  0  0
   33.1471   15.9980   19.2691 O   0  0  0  0  0  0  0  0  0  0  0  0
  2  1  1  1  0  0  0
  2  3  1  0  0  0  0
  2  5  1  0  0  0  0
  3  4  1  0  0  0  0
  3 10  1  0  0  0  0
  5  6  1  0  0  0  0
  6  7  1  0  0  0  0
  7  8  1  0  0  0  0
  8  9  1  0  0  0  0
M  END
>  <CHROM.1>
7.00297537,-62.01132947,176.47480062,-179.88080106,176.50337362,30.36378684
16.21354562,20.69852630,0.06936746,0.27516676,1.02333358

>  <Name>
ligand

>  <RI>
0

>  <Rbt.Current_Directory>
/home/itssahil/PROJECTS/Mol_Feturizer/New_Systems/rnas/3DIX

>  <Rbt.Executable>
rbdock ($Id: //depot/dev/client3/rdock/2013.1/src/exe/rbdock.cxx#4 $)

>  <Rbt.Library>
libRbt.so (2013.1, Build901 2013/11/27)

>  <Rbt.Parameter_File>
/export/apps/rDock/src/rDock_2013.1_src/data/scripts/dock_solv.prm

>  <Rbt.Receptor>
prm/blind_docking_60.prm

>  <SCORE>
-7.7988

>  <SCORE.INTER>
-6.7795

>  <SCORE.INTER.CONST>
1

>  <SCORE.INTER.POLAR>
0

>  <SCORE.INTER.ROT>
5

>  <SCORE.INTER.SOLV>
17.5551

>  <SCORE.INTER.VDW>
-17.3047

>  <SCORE.INTER.norm>
-0.67795

>  <SCORE.INTRA>
-1.01931

>  <SCORE.INTRA.DIHEDRAL>
-1.69083

>  <SCORE.INTRA.DIHEDRAL.0>
3.281

>  <SCORE.INTRA.POLAR>
0

>  <SCORE.INTRA.POLAR.0>
0

>  <SCORE.INTRA.REPUL>
0

>  <SCORE.INTRA.REPUL.0>
0

>  <SCORE.INTRA.SOLV>
-0.645018

>  <SCORE.INTRA.SOLV.lig_0>
-31.9458

>  <SCORE.INTRA.VDW>
0.148615

>  <SCORE.INTRA.VDW.0>
-0.672612

>  <SCORE.INTRA.norm>
-0.101931

>  <SCORE.RESTR>
0

>  <SCORE.RESTR.CAVITY>
0

>  <SCORE.RESTR.norm>
0

>  <SCORE.SYSTEM>
0

>  <SCORE.SYSTEM.CONST>
0

>  <SCORE.SYSTEM.DIHEDRAL>
0

>  <SCORE.SYSTEM.SOLV>
0

>  <SCORE.SYSTEM.norm>
0

>  <SCORE.heavy>
10

>  <SCORE.norm>
-0.77988

>  <RMSD>
1.802

$$$$
ligand
 OpenBabel11021811473D
libRbt.so/2013.1/901 2013/11/27
 10  9  0  0  0  0  0  0  0  0999 V2000
   31.0241   17.8289   21.1895 N   0  0  0  0  0  0  0  0  0  0  0  0
   31.6780   16.4899   21.1817 C   0  0  2  0  0  0  0  0  0  0  0  0
   32.8901   16.4704   20.2612 C   0  0  0  0  0  0  0  0  0  0  0  0
   34.0157   16.7852   20.6508 O   0  0  0  0  0  0  0  0  0  0  0  0
   30.6817   15.4001   20.7923 C   0  0  0  0  0  0  0  0  0  0  0  0
   29.3260   15.5848   21.4340 C   0  0  0  0  0  0  0  0  0  0  0  0
   28.3774   14.4755   21.0651 C   0  0  0  0  0  0  0  0  0  0  0  0
   26.9355   14.9178   21.2419 C   0  0  0  0  0  0  0  0  0  0  0  0
   26.5190   15.8950   20.2026 N   0  0  0  0  0  0  0  0  0  0  0  0
   32.7823   16.1012   19.0907 O   0  0  0  0  0  0  0  0  0  0  0  0
  2  1  1  6  0  0  0
  2  3  1  0  0  0  0
  2  5  1  0  0  0  0
  3  4  1  0  0  0  0
  3 10  1  0  0  0  0
  5  6  1  0  0  0  0
  6  7  1  0  0  0  0
  7  8  1  0  0  0  0
  8  9  1  0  0  0  0
M  END
>  <CHROM.1>
88.22552515,-41.49219227,-178.32625961,-158.03593975,71.82921600,30.46244672
15.99684196,20.69057092,0.16616909,0.20129942,0.47112008

>  <Name>
ligand

>  <RI>
0

>  <Rbt.Current_Directory>
/home/itssahil/PROJECTS/Mol_Feturizer/New_Systems/rnas/3DIX

>  <Rbt.Executable>
rbdock ($Id: //depot/dev/client3/rdock/2013.1/src/exe/rbdock.cxx#4 $)

>  <Rbt.Library>
libRbt.so (2013.1, Build901 2013/11/27)

>  <Rbt.Parameter_File>
/export/apps/rDock/src/rDock_2013.1_src/data/scripts/dock_solv.prm

>  <Rbt.Receptor>
prm/pocket_docking_8.prm

>  <SCORE>
-5.83097

>  <SCORE.INTER>
-7.75499

>  <SCORE.INTER.CONST>
1

>  <SCORE.INTER.POLAR>
0

>  <SCORE.INTER.ROT>
5

>  <SCORE.INTER.SOLV>
16.8624

>  <SCORE.INTER.VDW>
-17.7241

>  <SCORE.INTER.norm>
-0.775499

>  <SCORE.INTRA>
1.92402

>  <SCORE.INTRA.DIHEDRAL>
1.83294

>  <SCORE.INTRA.DIHEDRAL.0>
3.281

>  <SCORE.INTRA.POLAR>
0

>  <SCORE.INTRA.POLAR.0>
0

>  <SCORE.INTRA.REPUL>
0

>  <SCORE.INTRA.REPUL.0>
0

>  <SCORE.INTRA.SOLV>
0.525463

>  <SCORE.INTRA.SOLV.lig_0>
-31.9458

>  <SCORE.INTRA.VDW>
0.744817

>  <SCORE.INTRA.VDW.0>
-0.672612

>  <SCORE.INTRA.norm>
0.192402

>  <SCORE.RESTR>
0

>  <SCORE.RESTR.CAVITY>
0

>  <SCORE.RESTR.norm>
0

>  <SCORE.SYSTEM>
0

>  <SCORE.SYSTEM.CONST>
0

>  <SCORE.SYSTEM.DIHEDRAL>
0

>  <SCORE.SYSTEM.SOLV>
0

>  <SCORE.SYSTEM.norm>
0

>  <SCORE.heavy>
10

>  <SCORE.norm>
-0.583097

>  <RMSD>
1.834

$$$$
ligand
 OpenBabel11021811473D
libRbt.so/2013.1/901 2013/11/27
 10  9  0  0  0  0  0  0  0  0999 V2000
   31.4774   17.5233   22.1061 N   0  0  0  0  0  0  0  0  0  0  0  0
   31.7987   16.3205   21.2871 C   0  0  2  0  0  0  0  0  0  0  0  0
   32.7763   16.6561   20.1696 C   0  0  0  0  0  0  0  0  0  0  0  0
   32.8554   15.9814   19.1418 O   0  0  0  0  0  0  0  0  0  0  0  0
   30.5268   15.6890   20.7257 C   0  0  0  0  0  0  0  0  0  0  0  0
   29.6369   15.1037   21.7978 C   0  0  0  0  0  0  0  0  0  0  0  0
   28.3449   14.5819   21.2280 C   0  0  0  0  0  0  0  0  0  0  0  0
   27.4488   15.7260   20.7874 C   0  0  0  0  0  0  0  0  0  0  0  0
   26.1446   15.2445   20.2623 N   0  0  0  0  0  0  0  0  0  0  0  0
   33.5036   17.6473   20.2498 O   0  0  0  0  0  0  0  0  0  0  0  0
  2  1  1  6  0  0  0
  2  3  1  0  0  0  0
  2  5  1  0  0  0  0
  3  4  1  0  0  0  0
  3 10  1  0  0  0  0
  5  6  1  0  0  0  0
  6  7  1  0  0  0  0
  7  8  1  0  0  0  0
  8  9  1  0  0  0  0
M  END
>  <CHROM.1>
-156.07340186,-66.49513012,175.69208356,-71.04604905,-178.05564983,30.48526490
16.05806584,20.75025719,0.03648219,0.31322293,1.16243256

>  <Name>
ligand

>  <RI>
0

>  <Rbt.Current_Directory>
/home/itssahil/PROJECTS/Mol_Feturizer/New_Systems/rnas/3DIX

>  <Rbt.Executable>
rbdock ($Id: //depot/dev/client3/rdock/2013.1/src/exe/rbdock.cxx#4 $)

>  <Rbt.Library>
libRbt.so (2013.1, Build901 2013/11/27)

>  <Rbt.Parameter_File>
/export/apps/rDock/src/rDock_2013.1_src/data/scripts/dock_solv.prm

>  <Rbt.Receptor>
prm/blind_docking_100.prm

>  <SCORE>
-7.8798

>  <SCORE.INTER>
-8.12134

>  <SCORE.INTER.CONST>
1

>  <SCORE.INTER.POLAR>
0

>  <SCORE.INTER.ROT>
5

>  <SCORE.INTER.SOLV>
16.4017

>  <SCORE.INTER.VDW>
-17.8148

>  <SCORE.INTER.norm>
-0.812134

>  <SCORE.INTRA>
0.24154

>  <SCORE.INTRA.DIHEDRAL>
-0.959014

>  <SCORE.INTRA.DIHEDRAL.0>
3.281

>  <SCORE.INTRA.POLAR>
0

>  <SCORE.INTRA.POLAR.0>
0

>  <SCORE.INTRA.REPUL>
0

>  <SCORE.INTRA.REPUL.0>
0

>  <SCORE.INTRA.SOLV>
-0.386169

>  <SCORE.INTRA.SOLV.lig_0>
-31.9458

>  <SCORE.INTRA.VDW>
0.914131

>  <SCORE.INTRA.VDW.0>
-0.672612

>  <SCORE.INTRA.norm>
0.024154

>  <SCORE.RESTR>
0

>  <SCORE.RESTR.CAVITY>
0

>  <SCORE.RESTR.norm>
0

>  <SCORE.SYSTEM>
0

>  <SCORE.SYSTEM.CONST>
0

>  <SCORE.SYSTEM.DIHEDRAL>
0

>  <SCORE.SYSTEM.SOLV>
0

>  <SCORE.SYSTEM.norm>
0

>  <SCORE.heavy>
10

>  <SCORE.norm>
-0.78798

>  <RMSD>
1.846

$$$$
ligand
 OpenBabel11021811473D
libRbt.so/2013.1/901 2013/11/27
 10  9  0  0  0  0  0  0  0  0999 V2000
   31.5509   17.5321   22.1097 N   0  0  0  0  0  0  0  0  0  0  0  0
   31.8609   16.3273   21.2894 C   0  0  2  0  0  0  0  0  0  0  0  0
   32.8227   16.6599   20.1575 C   0  0  0  0  0  0  0  0  0  0  0  0
   32.9060   15.9678   19.1418 O   0  0  0  0  0  0  0  0  0  0  0  0
   30.5813   15.6942   20.7475 C   0  0  0  0  0  0  0  0  0  0  0  0
   29.6937   15.1357   21.8356 C   0  0  0  0  0  0  0  0  0  0  0  0
   28.4061   14.5881   21.2802 C   0  0  0  0  0  0  0  0  0  0  0  0
   27.5029   15.7123   20.8042 C   0  0  0  0  0  0  0  0  0  0  0  0
   26.2223   15.2032   20.2478 N   0  0  0  0  0  0  0  0  0  0  0  0
   33.5320   17.6658   20.2131 O   0  0  0  0  0  0  0  0  0  0  0  0
  2  1  1  6  0  0  0
  2  3  1  0  0  0  0
  2  5  1  0  0  0  0
  3  4  1  0  0  0  0
  3 10  1  0  0  0  0
  5  6  1  0  0  0  0
  6  7  1  0  0  0  0
  7  8  1  0  0  0  0
  8  9  1  0  0  0  0
M  END
>  <CHROM.1>
-157.51191168,-65.36758142,176.79452568,-71.06198697,179.92546828,30.54139580
16.05929168,20.75699764,0.02734581,0.32018932,1.18287030

>  <Name>
ligand

>  <RI>
0

>  <Rbt.Current_Directory>
/home/itssahil/PROJECTS/Mol_Feturizer/New_Systems/rnas/3DIX

>  <Rbt.Executable>
rbdock ($Id: //depot/dev/client3/rdock/2013.1/src/exe/rbdock.cxx#4 $)

>  <Rbt.Library>
libRbt.so (2013.1, Build901 2013/11/27)

>  <Rbt.Parameter_File>
/export/apps/rDock/src/rDock_2013.1_src/data/scripts/dock_solv.prm

>  <Rbt.Receptor>
prm/blind_docking_100.prm

>  <SCORE>
-7.89615

>  <SCORE.INTER>
-8.08116

>  <SCORE.INTER.CONST>
1

>  <SCORE.INTER.POLAR>
0

>  <SCORE.INTER.ROT>
5

>  <SCORE.INTER.SOLV>
16.2873

>  <SCORE.INTER.VDW>
-17.7499

>  <SCORE.INTER.norm>
-0.808116

>  <SCORE.INTRA>
0.185012

>  <SCORE.INTRA.DIHEDRAL>
-1.06292

>  <SCORE.INTRA.DIHEDRAL.0>
3.281

>  <SCORE.INTRA.POLAR>
0

>  <SCORE.INTRA.POLAR.0>
0

>  <SCORE.INTRA.REPUL>
0

>  <SCORE.INTRA.REPUL.0>
0

>  <SCORE.INTRA.SOLV>
-0.382519

>  <SCORE.INTRA.SOLV.lig_0>
-31.9458

>  <SCORE.INTRA.VDW>
0.90773

>  <SCORE.INTRA.VDW.0>
-0.672612

>  <SCORE.INTRA.norm>
0.0185012

>  <SCORE.RESTR>
0

>  <SCORE.RESTR.CAVITY>
0

>  <SCORE.RESTR.norm>
0

>  <SCORE.SYSTEM>
0

>  <SCORE.SYSTEM.CONST>
0

>  <SCORE.SYSTEM.DIHEDRAL>
0

>  <SCORE.SYSTEM.SOLV>
0

>  <SCORE.SYSTEM.norm>
0

>  <SCORE.heavy>
10

>  <SCORE.norm>
-0.789615

>  <RMSD>
1.849

$$$$
ligand
 OpenBabel11021811473D
libRbt.so/2013.1/901 2013/11/27
 10  9  0  0  0  0  0  0  0  0999 V2000
   31.1611   17.5851   21.9938 N   0  0  0  0  0  0  0  0  0  0  0  0
   31.4750   16.2879   21.3307 C   0  0  2  0  0  0  0  0  0  0  0  0
   32.5085   16.4653   20.2274 C   0  0  0  0  0  0  0  0  0  0  0  0
   33.3921   17.3217   20.2869 O   0  0  0  0  0  0  0  0  0  0  0  0
   30.2066   15.6336   20.7878 C   0  0  0  0  0  0  0  0  0  0  0  0
   29.1692   15.3819   21.8576 C   0  0  0  0  0  0  0  0  0  0  0  0
   27.9707   14.6518   21.3129 C   0  0  0  0  0  0  0  0  0  0  0  0
   27.1483   15.5596   20.4153 C   0  0  0  0  0  0  0  0  0  0  0  0
   27.7543   15.7104   19.0667 N   0  0  0  0  0  0  0  0  0  0  0  0
   32.5092   15.7230   19.2442 O   0  0  0  0  0  0  0  0  0  0  0  0
  2  1  1  6  0  0  0
  2  3  1  0  0  0  0
  2  5  1  0  0  0  0
  3  4  1  0  0  0  0
  3 10  1  0  0  0  0
  5  6  1  0  0  0  0
  6  7  1  0  0  0  0
  7  8  1  0  0  0  0
  8  9  1  0  0  0  0
M  END
>  <CHROM.1>
31.82808240,-58.19763303,-176.07693256,-71.31917762,78.06190924,30.36373668
16.03754715,20.62878927,0.03285966,0.28849594,1.32250791

>  <Name>
ligand

>  <RI>
0

>  <Rbt.Current_Directory>
/home/itssahil/PROJECTS/Mol_Feturizer/New_Systems/rnas/3DIX

>  <Rbt.Executable>
rbdock ($Id: //depot/dev/client3/rdock/2013.1/src/exe/rbdock.cxx#4 $)

>  <Rbt.Library>
libRbt.so (2013.1, Build901 2013/11/27)

>  <Rbt.Parameter_File>
/export/apps/rDock/src/rDock_2013.1_src/data/scripts/dock_solv.prm

>  <Rbt.Receptor>
prm/blind_docking_100.prm

>  <SCORE>
-7.94602

>  <SCORE.INTER>
-9.86688

>  <SCORE.INTER.CONST>
1

>  <SCORE.INTER.POLAR>
0

>  <SCORE.INTER.ROT>
5

>  <SCORE.INTER.SOLV>
10.6928

>  <SCORE.INTER.VDW>
-17.0755

>  <SCORE.INTER.norm>
-0.986688

>  <SCORE.INTRA>
1.92086

>  <SCORE.INTRA.DIHEDRAL>
-0.11801

>  <SCORE.INTRA.DIHEDRAL.0>
3.281

>  <SCORE.INTRA.POLAR>
0

>  <SCORE.INTRA.POLAR.0>
0

>  <SCORE.INTRA.REPUL>
0

>  <SCORE.INTRA.REPUL.0>
0

>  <SCORE.INTRA.SOLV>
1.4223

>  <SCORE.INTRA.SOLV.lig_0>
-31.9458

>  <SCORE.INTRA.VDW>
1.26871

>  <SCORE.INTRA.VDW.0>
-0.672612

>  <SCORE.INTRA.norm>
0.192086

>  <SCORE.RESTR>
0

>  <SCORE.RESTR.CAVITY>
0

>  <SCORE.RESTR.norm>
0

>  <SCORE.SYSTEM>
0

>  <SCORE.SYSTEM.CONST>
0

>  <SCORE.SYSTEM.DIHEDRAL>
0

>  <SCORE.SYSTEM.SOLV>
0

>  <SCORE.SYSTEM.norm>
0

>  <SCORE.heavy>
10

>  <SCORE.norm>
-0.794602

>  <RMSD>
1.859

$$$$
ligand
 OpenBabel11021811473D
libRbt.so/2013.1/901 2013/11/27
 10  9  0  0  0  0  0  0  0  0999 V2000
   31.2367   17.2452   22.1182 N   0  0  0  0  0  0  0  0  0  0  0  0
   31.2878   16.4091   20.8857 C   0  0  2  0  0  0  0  0  0  0  0  0
   32.5437   16.6942   20.0743 C   0  0  0  0  0  0  0  0  0  0  0  0
   33.3625   17.5510   20.4109 O   0  0  0  0  0  0  0  0  0  0  0  0
   30.0344   16.6131   20.0377 C   0  0  0  0  0  0  0  0  0  0  0  0
   28.8053   15.9715   20.6391 C   0  0  0  0  0  0  0  0  0  0  0  0
   27.5866   16.1866   19.7819 C   0  0  0  0  0  0  0  0  0  0  0  0
   27.7256   15.4608   18.4552 C   0  0  0  0  0  0  0  0  0  0  0  0
   27.8398   13.9897   18.6320 N   0  0  0  0  0  0  0  0  0  0  0  0
   32.7960   16.0420   19.0601 O   0  0  0  0  0  0  0  0  0  0  0  0
  2  1  1  1  0  0  0
  2  3  1  0  0  0  0
  2  5  1  0  0  0  0
  3  4  1  0  0  0  0
  3 10  1  0  0  0  0
  5  6  1  0  0  0  0
  6  7  1  0  0  0  0
  7  8  1  0  0  0  0
  8  9  1  0  0  0  0
M  END
>  <CHROM.1>
-2.32158064,-72.57319328,-179.91412239,66.15052657,62.12616319,30.36052515
16.22450784,19.99456767,0.38631913,0.16755929,1.02750265

>  <Name>
ligand

>  <RI>
0

>  <Rbt.Current_Directory>
/home/itssahil/PROJECTS/Mol_Feturizer/New_Systems/rnas/3DIX

>  <Rbt.Executable>
rbdock ($Id: //depot/dev/client3/rdock/2013.1/src/exe/rbdock.cxx#4 $)

>  <Rbt.Library>
libRbt.so (2013.1, Build901 2013/11/27)

>  <Rbt.Parameter_File>
/export/apps/rDock/src/rDock_2013.1_src/data/scripts/dock_solv.prm

>  <Rbt.Receptor>
prm/pocket_docking_4.prm

>  <SCORE>
-6.91548

>  <SCORE.INTER>
-7.67062

>  <SCORE.INTER.CONST>
1

>  <SCORE.INTER.POLAR>
0

>  <SCORE.INTER.ROT>
5

>  <SCORE.INTER.SOLV>
12.0272

>  <SCORE.INTER.VDW>
-16.0561

>  <SCORE.INTER.norm>
-0.767062

>  <SCORE.INTRA>
0.755139

>  <SCORE.INTRA.DIHEDRAL>
-0.973845

>  <SCORE.INTRA.DIHEDRAL.0>
3.281

>  <SCORE.INTRA.POLAR>
0

>  <SCORE.INTRA.POLAR.0>
0

>  <SCORE.INTRA.REPUL>
0

>  <SCORE.INTRA.REPUL.0>
0

>  <SCORE.INTRA.SOLV>
0.696414

>  <SCORE.INTRA.SOLV.lig_0>
-31.9458

>  <SCORE.INTRA.VDW>
0.893855

>  <SCORE.INTRA.VDW.0>
-0.672612

>  <SCORE.INTRA.norm>
0.0755139

>  <SCORE.RESTR>
0

>  <SCORE.RESTR.CAVITY>
0

>  <SCORE.RESTR.norm>
0

>  <SCORE.SYSTEM>
0

>  <SCORE.SYSTEM.CONST>
0

>  <SCORE.SYSTEM.DIHEDRAL>
0

>  <SCORE.SYSTEM.SOLV>
0

>  <SCORE.SYSTEM.norm>
0

>  <SCORE.heavy>
10

>  <SCORE.norm>
-0.691548

>  <RMSD>
1.863

$$$$
ligand
 OpenBabel11021811473D
libRbt.so/2013.1/901 2013/11/27
 10  9  0  0  0  0  0  0  0  0999 V2000
   31.0834   17.6233   21.8383 N   0  0  0  0  0  0  0  0  0  0  0  0
   31.5880   16.3268   21.3042 C   0  0  2  0  0  0  0  0  0  0  0  0
   32.6982   16.5417   20.2853 C   0  0  0  0  0  0  0  0  0  0  0  0
   33.5887   17.3768   20.4507 O   0  0  0  0  0  0  0  0  0  0  0  0
   30.4493   15.5060   20.7030 C   0  0  0  0  0  0  0  0  0  0  0  0
   29.2801   15.3409   21.6462 C   0  0  0  0  0  0  0  0  0  0  0  0
   28.2513   14.3877   21.0993 C   0  0  0  0  0  0  0  0  0  0  0  0
   27.6303   14.9365   19.8268 C   0  0  0  0  0  0  0  0  0  0  0  0
   26.8967   16.2067   20.0654 N   0  0  0  0  0  0  0  0  0  0  0  0
   32.7558   15.8516   19.2664 O   0  0  0  0  0  0  0  0  0  0  0  0
  2  1  1  6  0  0  0
  2  3  1  0  0  0  0
  2  5  1  0  0  0  0
  3  4  1  0  0  0  0
  3 10  1  0  0  0  0
  5  6  1  0  0  0  0
  6  7  1  0  0  0  0
  7  8  1  0  0  0  0
  8  9  1  0  0  0  0
M  END
>  <CHROM.1>
41.82955542,-52.02179685,-172.78504093,-64.19444698,-62.80807703,30.45863613
16.01656868,20.62688571,0.16747721,0.24437123,0.89237241

>  <Name>
ligand

>  <RI>
0

>  <Rbt.Current_Directory>
/home/itssahil/PROJECTS/Mol_Feturizer/New_Systems/rnas/3DIX

>  <Rbt.Executable>
rbdock ($Id: //depot/dev/client3/rdock/2013.1/src/exe/rbdock.cxx#4 $)

>  <Rbt.Library>
libRbt.so (2013.1, Build901 2013/11/27)

>  <Rbt.Parameter_File>
/export/apps/rDock/src/rDock_2013.1_src/data/scripts/dock_solv.prm

>  <Rbt.Receptor>
prm/pocket_docking_5.prm

>  <SCORE>
-6.12491

>  <SCORE.INTER>
-7.74195

>  <SCORE.INTER.CONST>
1

>  <SCORE.INTER.POLAR>
0

>  <SCORE.INTER.ROT>
5

>  <SCORE.INTER.SOLV>
14.7325

>  <SCORE.INTER.VDW>
-17.0055

>  <SCORE.INTER.norm>
-0.774195

>  <SCORE.INTRA>
1.61704

>  <SCORE.INTRA.DIHEDRAL>
-1.29724

>  <SCORE.INTRA.DIHEDRAL.0>
3.281

>  <SCORE.INTRA.POLAR>
0

>  <SCORE.INTRA.POLAR.0>
0

>  <SCORE.INTRA.REPUL>
0

>  <SCORE.INTRA.REPUL.0>
0

>  <SCORE.INTRA.SOLV>
0.927777

>  <SCORE.INTRA.SOLV.lig_0>
-31.9458

>  <SCORE.INTRA.VDW>
1.80177

>  <SCORE.INTRA.VDW.0>
-0.672612

>  <SCORE.INTRA.norm>
0.161704

>  <SCORE.RESTR>
0

>  <SCORE.RESTR.CAVITY>
0

>  <SCORE.RESTR.norm>
0

>  <SCORE.SYSTEM>
0

>  <SCORE.SYSTEM.CONST>
0

>  <SCORE.SYSTEM.DIHEDRAL>
0

>  <SCORE.SYSTEM.SOLV>
0

>  <SCORE.SYSTEM.norm>
0

>  <SCORE.heavy>
10

>  <SCORE.norm>
-0.612491

>  <RMSD>
1.863

$$$$
ligand
 OpenBabel11021811473D
libRbt.so/2013.1/901 2013/11/27
 10  9  0  0  0  0  0  0  0  0999 V2000
   31.3975   18.0331   22.2081 N   0  0  0  0  0  0  0  0  0  0  0  0
   31.8013   16.6556   21.8080 C   0  0  2  0  0  0  0  0  0  0  0  0
   32.1782   16.5946   20.3345 C   0  0  0  0  0  0  0  0  0  0  0  0
   33.0737   15.8595   19.9157 O   0  0  0  0  0  0  0  0  0  0  0  0
   30.6978   15.6503   22.1293 C   0  0  0  0  0  0  0  0  0  0  0  0
   29.3991   15.9537   21.4185 C   0  0  0  0  0  0  0  0  0  0  0  0
   28.3638   14.8897   21.6679 C   0  0  0  0  0  0  0  0  0  0  0  0
   27.0946   15.1784   20.8857 C   0  0  0  0  0  0  0  0  0  0  0  0
   27.3137   15.1052   19.4176 N   0  0  0  0  0  0  0  0  0  0  0  0
   31.5653   17.2654   19.5026 O   0  0  0  0  0  0  0  0  0  0  0  0
  2  1  1  6  0  0  0
  2  3  1  0  0  0  0
  2  5  1  0  0  0  0
  3  4  1  0  0  0  0
  3 10  1  0  0  0  0
  5  6  1  0  0  0  0
  6  7  1  0  0  0  0
  7  8  1  0  0  0  0
  8  9  1  0  0  0  0
M  END
>  <CHROM.1>
145.03430603,59.93404211,175.54839563,-177.00376637,65.16089969,30.30776788
16.12019191,20.89693365,0.06734333,0.33568940,1.37290697

>  <Name>
ligand

>  <RI>
0

>  <Rbt.Current_Directory>
/home/itssahil/PROJECTS/Mol_Feturizer/New_Systems/rnas/3DIX

>  <Rbt.Executable>
rbdock ($Id: //depot/dev/client3/rdock/2013.1/src/exe/rbdock.cxx#4 $)

>  <Rbt.Library>
libRbt.so (2013.1, Build901 2013/11/27)

>  <Rbt.Parameter_File>
/export/apps/rDock/src/rDock_2013.1_src/data/scripts/dock_solv.prm

>  <Rbt.Receptor>
prm/pocket_docking_6.prm

>  <SCORE>
-8.55898

>  <SCORE.INTER>
-7.9656

>  <SCORE.INTER.CONST>
1

>  <SCORE.INTER.POLAR>
0

>  <SCORE.INTER.ROT>
5

>  <SCORE.INTER.SOLV>
12.685

>  <SCORE.INTER.VDW>
-16.4721

>  <SCORE.INTER.norm>
-0.79656

>  <SCORE.INTRA>
-0.593375

>  <SCORE.INTRA.DIHEDRAL>
-1.63371

>  <SCORE.INTRA.DIHEDRAL.0>
3.281

>  <SCORE.INTRA.POLAR>
0

>  <SCORE.INTRA.POLAR.0>
0

>  <SCORE.INTRA.REPUL>
0

>  <SCORE.INTRA.REPUL.0>
0

>  <SCORE.INTRA.SOLV>
0.271372

>  <SCORE.INTRA.SOLV.lig_0>
-31.9458

>  <SCORE.INTRA.VDW>
0.0877943

>  <SCORE.INTRA.VDW.0>
-0.672612

>  <SCORE.INTRA.norm>
-0.0593375

>  <SCORE.RESTR>
0

>  <SCORE.RESTR.CAVITY>
0

>  <SCORE.RESTR.norm>
0

>  <SCORE.SYSTEM>
0

>  <SCORE.SYSTEM.CONST>
0

>  <SCORE.SYSTEM.DIHEDRAL>
0

>  <SCORE.SYSTEM.SOLV>
0

>  <SCORE.SYSTEM.norm>
0

>  <SCORE.heavy>
10

>  <SCORE.norm>
-0.855898

>  <RMSD>
1.868

$$$$
ligand
 OpenBabel11021811473D
libRbt.so/2013.1/901 2013/11/27
 10  9  0  0  0  0  0  0  0  0999 V2000
   31.1687   17.5732   21.9607 N   0  0  0  0  0  0  0  0  0  0  0  0
   31.4432   16.2396   21.3551 C   0  0  2  0  0  0  0  0  0  0  0  0
   32.4975   16.3342   20.2611 C   0  0  0  0  0  0  0  0  0  0  0  0
   33.5064   17.0310   20.3800 O   0  0  0  0  0  0  0  0  0  0  0  0
   30.1589   15.6104   20.8198 C   0  0  0  0  0  0  0  0  0  0  0  0
   29.0919   15.4575   21.8791 C   0  0  0  0  0  0  0  0  0  0  0  0
   27.8930   14.7091   21.3605 C   0  0  0  0  0  0  0  0  0  0  0  0
   27.1017   15.5659   20.3881 C   0  0  0  0  0  0  0  0  0  0  0  0
   27.7517   15.6431   19.0539 N   0  0  0  0  0  0  0  0  0  0  0  0
   32.3845   15.6794   19.2237 O   0  0  0  0  0  0  0  0  0  0  0  0
  2  1  1  6  0  0  0
  2  3  1  0  0  0  0
  2  5  1  0  0  0  0
  3  4  1  0  0  0  0
  3 10  1  0  0  0  0
  5  6  1  0  0  0  0
  6  7  1  0  0  0  0
  7  8  1  0  0  0  0
  8  9  1  0  0  0  0
M  END
>  <CHROM.1>
41.67395460,-57.42823593,-174.16203630,-71.89396383,76.74802682,30.33439018
15.98773234,20.64493362,0.03911531,0.25409984,1.30377295

>  <Name>
ligand

>  <RI>
0

>  <Rbt.Current_Directory>
/home/itssahil/PROJECTS/Mol_Feturizer/New_Systems/rnas/3DIX

>  <Rbt.Executable>
rbdock ($Id: //depot/dev/client3/rdock/2013.1/src/exe/rbdock.cxx#4 $)

>  <Rbt.Library>
libRbt.so (2013.1, Build901 2013/11/27)

>  <Rbt.Parameter_File>
/export/apps/rDock/src/rDock_2013.1_src/data/scripts/dock_solv.prm

>  <Rbt.Receptor>
prm/pocket_docking_6.prm

>  <SCORE>
-7.89676

>  <SCORE.INTER>
-9.97532

>  <SCORE.INTER.CONST>
1

>  <SCORE.INTER.POLAR>
0

>  <SCORE.INTER.ROT>
5

>  <SCORE.INTER.SOLV>
10.56

>  <SCORE.INTER.VDW>
-17.1035

>  <SCORE.INTER.norm>
-0.997532

>  <SCORE.INTRA>
2.07856

>  <SCORE.INTRA.DIHEDRAL>
-0.116907

>  <SCORE.INTRA.DIHEDRAL.0>
3.281

>  <SCORE.INTRA.POLAR>
0

>  <SCORE.INTRA.POLAR.0>
0

>  <SCORE.INTRA.REPUL>
0

>  <SCORE.INTRA.REPUL.0>
0

>  <SCORE.INTRA.SOLV>
1.44098

>  <SCORE.INTRA.SOLV.lig_0>
-31.9458

>  <SCORE.INTRA.VDW>
1.41652

>  <SCORE.INTRA.VDW.0>
-0.672612

>  <SCORE.INTRA.norm>
0.207856

>  <SCORE.RESTR>
0

>  <SCORE.RESTR.CAVITY>
0

>  <SCORE.RESTR.norm>
0

>  <SCORE.SYSTEM>
0

>  <SCORE.SYSTEM.CONST>
0

>  <SCORE.SYSTEM.DIHEDRAL>
0

>  <SCORE.SYSTEM.SOLV>
0

>  <SCORE.SYSTEM.norm>
0

>  <SCORE.heavy>
10

>  <SCORE.norm>
-0.789676

>  <RMSD>
1.884

$$$$
ligand
 OpenBabel11021811473D
libRbt.so/2013.1/901 2013/11/27
 10  9  0  0  0  0  0  0  0  0999 V2000
   31.1728   17.5457   21.9146 N   0  0  0  0  0  0  0  0  0  0  0  0
   31.4544   16.2165   21.3026 C   0  0  2  0  0  0  0  0  0  0  0  0
   32.4877   16.3263   20.1902 C   0  0  0  0  0  0  0  0  0  0  0  0
   33.4820   17.0472   20.2864 O   0  0  0  0  0  0  0  0  0  0  0  0
   30.1694   15.5706   20.7896 C   0  0  0  0  0  0  0  0  0  0  0  0
   29.0979   15.4669   21.8503 C   0  0  0  0  0  0  0  0  0  0  0  0
   27.8782   14.7446   21.3437 C   0  0  0  0  0  0  0  0  0  0  0  0
   27.1461   15.5820   20.3099 C   0  0  0  0  0  0  0  0  0  0  0  0
   27.8378   15.5770   18.9946 N   0  0  0  0  0  0  0  0  0  0  0  0
   32.3724   15.6606   19.1600 O   0  0  0  0  0  0  0  0  0  0  0  0
  2  1  1  6  0  0  0
  2  3  1  0  0  0  0
  2  5  1  0  0  0  0
  3  4  1  0  0  0  0
  3 10  1  0  0  0  0
  5  6  1  0  0  0  0
  6  7  1  0  0  0  0
  7  8  1  0  0  0  0
  8  9  1  0  0  0  0
M  END
>  <CHROM.1>
40.91096984,-54.47792348,-176.17818558,-69.38696554,75.88411169,30.34398167
15.97743139,20.59046653,0.03168253,0.25869604,1.30227085

>  <Name>
ligand

>  <RI>
0

>  <Rbt.Current_Directory>
/home/itssahil/PROJECTS/Mol_Feturizer/New_Systems/rnas/3DIX

>  <Rbt.Executable>
rbdock ($Id: //depot/dev/client3/rdock/2013.1/src/exe/rbdock.cxx#4 $)

>  <Rbt.Library>
libRbt.so (2013.1, Build901 2013/11/27)

>  <Rbt.Parameter_File>
/export/apps/rDock/src/rDock_2013.1_src/data/scripts/dock_solv.prm

>  <Rbt.Receptor>
prm/pocket_docking_8.prm

>  <SCORE>
-7.90256

>  <SCORE.INTER>
-10.0418

>  <SCORE.INTER.CONST>
1

>  <SCORE.INTER.POLAR>
0

>  <SCORE.INTER.ROT>
5

>  <SCORE.INTER.SOLV>
10.2707

>  <SCORE.INTER.VDW>
-17.0514

>  <SCORE.INTER.norm>
-1.00418

>  <SCORE.INTRA>
2.13923

>  <SCORE.INTRA.DIHEDRAL>
-0.417578

>  <SCORE.INTRA.DIHEDRAL.0>
3.281

>  <SCORE.INTRA.POLAR>
0

>  <SCORE.INTRA.POLAR.0>
0

>  <SCORE.INTRA.REPUL>
0

>  <SCORE.INTRA.REPUL.0>
0

>  <SCORE.INTRA.SOLV>
1.5674

>  <SCORE.INTRA.SOLV.lig_0>
-31.9458

>  <SCORE.INTRA.VDW>
1.56432

>  <SCORE.INTRA.VDW.0>
-0.672612

>  <SCORE.INTRA.norm>
0.213923

>  <SCORE.RESTR>
0

>  <SCORE.RESTR.CAVITY>
0

>  <SCORE.RESTR.norm>
0

>  <SCORE.SYSTEM>
0

>  <SCORE.SYSTEM.CONST>
0

>  <SCORE.SYSTEM.DIHEDRAL>
0

>  <SCORE.SYSTEM.SOLV>
0

>  <SCORE.SYSTEM.norm>
0

>  <SCORE.heavy>
10

>  <SCORE.norm>
-0.790256

>  <RMSD>
1.892

$$$$
ligand
 OpenBabel11021811473D
libRbt.so/2013.1/901 2013/11/27
 10  9  0  0  0  0  0  0  0  0999 V2000
   30.9371   17.2779   22.1467 N   0  0  0  0  0  0  0  0  0  0  0  0
   31.0312   16.2619   21.0606 C   0  0  2  0  0  0  0  0  0  0  0  0
   32.2807   16.4677   20.2160 C   0  0  0  0  0  0  0  0  0  0  0  0
   33.0982   17.3568   20.4587 O   0  0  0  0  0  0  0  0  0  0  0  0
   29.7770   16.2789   20.1896 C   0  0  0  0  0  0  0  0  0  0  0  0
   28.5264   15.9026   20.9501 C   0  0  0  0  0  0  0  0  0  0  0  0
   27.3035   15.9520   20.0737 C   0  0  0  0  0  0  0  0  0  0  0  0
   27.2252   14.7214   19.1874 C   0  0  0  0  0  0  0  0  0  0  0  0
   28.3004   14.7018   18.1616 N   0  0  0  0  0  0  0  0  0  0  0  0
   32.5292   15.7170   19.2713 O   0  0  0  0  0  0  0  0  0  0  0  0
  2  1  1  1  0  0  0
  2  3  1  0  0  0  0
  2  5  1  0  0  0  0
  3  4  1  0  0  0  0
  3 10  1  0  0  0  0
  5  6  1  0  0  0  0
  6  7  1  0  0  0  0
  7  8  1  0  0  0  0
  8  9  1  0  0  0  0
M  END
>  <CHROM.1>
1.58073834,-63.18742741,178.96591387,77.96159743,-68.31882867,30.13907870
16.06986044,20.15602747,0.34307064,0.16605926,1.04559170

>  <Name>
ligand

>  <RI>
0

>  <Rbt.Current_Directory>
/home/itssahil/PROJECTS/Mol_Feturizer/New_Systems/rnas/3DIX

>  <Rbt.Executable>
rbdock ($Id: //depot/dev/client3/rdock/2013.1/src/exe/rbdock.cxx#4 $)

>  <Rbt.Library>
libRbt.so (2013.1, Build901 2013/11/27)

>  <Rbt.Parameter_File>
/export/apps/rDock/src/rDock_2013.1_src/data/scripts/dock_solv.prm

>  <Rbt.Receptor>
prm/pocket_docking_5.prm

>  <SCORE>
-7.12154

>  <SCORE.INTER>
-8.47237

>  <SCORE.INTER.CONST>
1

>  <SCORE.INTER.POLAR>
0

>  <SCORE.INTER.ROT>
5

>  <SCORE.INTER.SOLV>
10.8155

>  <SCORE.INTER.VDW>
-16.1867

>  <SCORE.INTER.norm>
-0.847237

>  <SCORE.INTRA>
1.35083

>  <SCORE.INTRA.DIHEDRAL>
-0.224729

>  <SCORE.INTRA.DIHEDRAL.0>
3.281

>  <SCORE.INTRA.POLAR>
0

>  <SCORE.INTRA.POLAR.0>
0

>  <SCORE.INTRA.REPUL>
0

>  <SCORE.INTRA.REPUL.0>
0

>  <SCORE.INTRA.SOLV>
1.58041

>  <SCORE.INTRA.SOLV.lig_0>
-31.9458

>  <SCORE.INTRA.VDW>
0.672994

>  <SCORE.INTRA.VDW.0>
-0.672612

>  <SCORE.INTRA.norm>
0.135083

>  <SCORE.RESTR>
0

>  <SCORE.RESTR.CAVITY>
0

>  <SCORE.RESTR.norm>
0

>  <SCORE.SYSTEM>
0

>  <SCORE.SYSTEM.CONST>
0

>  <SCORE.SYSTEM.DIHEDRAL>
0

>  <SCORE.SYSTEM.SOLV>
0

>  <SCORE.SYSTEM.norm>
0

>  <SCORE.heavy>
10

>  <SCORE.norm>
-0.712154

>  <RMSD>
1.897

$$$$
ligand
 OpenBabel11021811473D
libRbt.so/2013.1/901 2013/11/27
 10  9  0  0  0  0  0  0  0  0999 V2000
   31.0102   15.7796   22.0817 N   0  0  0  0  0  0  0  0  0  0  0  0
   31.0597   15.9881   20.6070 C   0  0  2  0  0  0  0  0  0  0  0  0
   32.4773   16.2809   20.1360 C   0  0  0  0  0  0  0  0  0  0  0  0
   32.8881   15.9264   19.0300 O   0  0  0  0  0  0  0  0  0  0  0  0
   30.1046   17.1015   20.1826 C   0  0  0  0  0  0  0  0  0  0  0  0
   28.6578   16.7815   20.4794 C   0  0  0  0  0  0  0  0  0  0  0  0
   28.1349   15.6838   19.5918 C   0  0  0  0  0  0  0  0  0  0  0  0
   26.6844   15.3727   19.9164 C   0  0  0  0  0  0  0  0  0  0  0  0
   26.5164   14.8789   21.3080 N   0  0  0  0  0  0  0  0  0  0  0  0
   33.2544   16.9200   20.8469 O   0  0  0  0  0  0  0  0  0  0  0  0
  2  1  1  1  0  0  0
  2  3  1  0  0  0  0
  2  5  1  0  0  0  0
  3  4  1  0  0  0  0
  3 10  1  0  0  0  0
  5  6  1  0  0  0  0
  6  7  1  0  0  0  0
  7  8  1  0  0  0  0
  8  9  1  0  0  0  0
M  END
>  <CHROM.1>
147.57251253,-62.69852670,-69.79906859,179.52825276,-62.18673208,30.12154599
16.07899604,20.40689067,-0.04265478,0.16434339,1.62339101

>  <Name>
ligand

>  <RI>
0

>  <Rbt.Current_Directory>
/home/itssahil/PROJECTS/Mol_Feturizer/New_Systems/rnas/3DIX

>  <Rbt.Executable>
rbdock ($Id: //depot/dev/client3/rdock/2013.1/src/exe/rbdock.cxx#4 $)

>  <Rbt.Library>
libRbt.so (2013.1, Build901 2013/11/27)

>  <Rbt.Parameter_File>
/export/apps/rDock/src/rDock_2013.1_src/data/scripts/dock_solv.prm

>  <Rbt.Receptor>
prm/blind_docking_100.prm

>  <SCORE>
-6.81602

>  <SCORE.INTER>
-6.66188

>  <SCORE.INTER.CONST>
1

>  <SCORE.INTER.POLAR>
0

>  <SCORE.INTER.ROT>
5

>  <SCORE.INTER.SOLV>
18.3779

>  <SCORE.INTER.VDW>
-17.5006

>  <SCORE.INTER.norm>
-0.666188

>  <SCORE.INTRA>
-0.154148

>  <SCORE.INTRA.DIHEDRAL>
-1.40946

>  <SCORE.INTRA.DIHEDRAL.0>
3.281

>  <SCORE.INTRA.POLAR>
0

>  <SCORE.INTRA.POLAR.0>
0

>  <SCORE.INTRA.REPUL>
0

>  <SCORE.INTRA.REPUL.0>
0

>  <SCORE.INTRA.SOLV>
0.75286

>  <SCORE.INTRA.SOLV.lig_0>
-31.9458

>  <SCORE.INTRA.VDW>
0.174154

>  <SCORE.INTRA.VDW.0>
-0.672612

>  <SCORE.INTRA.norm>
-0.0154148

>  <SCORE.RESTR>
0

>  <SCORE.RESTR.CAVITY>
0

>  <SCORE.RESTR.norm>
0

>  <SCORE.SYSTEM>
0

>  <SCORE.SYSTEM.CONST>
0

>  <SCORE.SYSTEM.DIHEDRAL>
0

>  <SCORE.SYSTEM.SOLV>
0

>  <SCORE.SYSTEM.norm>
0

>  <SCORE.heavy>
10

>  <SCORE.norm>
-0.681602

>  <RMSD>
1.903

$$$$
ligand
 OpenBabel11021811473D
libRbt.so/2013.1/901 2013/11/27
 10  9  0  0  0  0  0  0  0  0999 V2000
   31.0106   17.5389   22.3338 N   0  0  0  0  0  0  0  0  0  0  0  0
   31.3296   16.2002   21.7621 C   0  0  2  0  0  0  0  0  0  0  0  0
   31.8571   16.3167   20.3390 C   0  0  0  0  0  0  0  0  0  0  0  0
   31.5453   17.2499   19.5976 O   0  0  0  0  0  0  0  0  0  0  0  0
   30.1116   15.2808   21.8172 C   0  0  0  0  0  0  0  0  0  0  0  0
   28.9341   15.8153   21.0351 C   0  0  0  0  0  0  0  0  0  0  0  0
   27.7335   14.9142   21.1473 C   0  0  0  0  0  0  0  0  0  0  0  0
   26.6265   15.3721   20.2141 C   0  0  0  0  0  0  0  0  0  0  0  0
   27.0332   15.3004   18.7865 N   0  0  0  0  0  0  0  0  0  0  0  0
   32.6493   15.4847   19.8942 O   0  0  0  0  0  0  0  0  0  0  0  0
  2  1  1  6  0  0  0
  2  3  1  0  0  0  0
  2  5  1  0  0  0  0
  3  4  1  0  0  0  0
  3 10  1  0  0  0  0
  5  6  1  0  0  0  0
  6  7  1  0  0  0  0
  7  8  1  0  0  0  0
  8  9  1  0  0  0  0
M  END
>  <CHROM.1>
-27.69340384,60.41091442,-177.96489839,-172.62975528,62.89775786,29.90669634
15.95184226,20.66367509,0.15485865,0.23506892,1.45150934

>  <Name>
ligand

>  <RI>
0

>  <Rbt.Current_Directory>
/home/itssahil/PROJECTS/Mol_Feturizer/New_Systems/rnas/3DIX

>  <Rbt.Executable>
rbdock ($Id: //depot/dev/client3/rdock/2013.1/src/exe/rbdock.cxx#4 $)

>  <Rbt.Library>
libRbt.so (2013.1, Build901 2013/11/27)

>  <Rbt.Parameter_File>
/export/apps/rDock/src/rDock_2013.1_src/data/scripts/dock_solv.prm

>  <Rbt.Receptor>
prm/pocket_docking_7.prm

>  <SCORE>
-8.57074

>  <SCORE.INTER>
-8.13918

>  <SCORE.INTER.CONST>
1

>  <SCORE.INTER.POLAR>
0

>  <SCORE.INTER.ROT>
5

>  <SCORE.INTER.SOLV>
13.7445

>  <SCORE.INTER.VDW>
-16.941

>  <SCORE.INTER.norm>
-0.813918

>  <SCORE.INTRA>
-0.431562

>  <SCORE.INTRA.DIHEDRAL>
-1.44784

>  <SCORE.INTRA.DIHEDRAL.0>
3.281

>  <SCORE.INTRA.POLAR>
0

>  <SCORE.INTRA.POLAR.0>
0

>  <SCORE.INTRA.REPUL>
0

>  <SCORE.INTRA.REPUL.0>
0

>  <SCORE.INTRA.SOLV>
0.355997

>  <SCORE.INTRA.SOLV.lig_0>
-31.9458

>  <SCORE.INTRA.VDW>
0.114358

>  <SCORE.INTRA.VDW.0>
-0.672612

>  <SCORE.INTRA.norm>
-0.0431562

>  <SCORE.RESTR>
0

>  <SCORE.RESTR.CAVITY>
0

>  <SCORE.RESTR.norm>
0

>  <SCORE.SYSTEM>
0

>  <SCORE.SYSTEM.CONST>
0

>  <SCORE.SYSTEM.DIHEDRAL>
0

>  <SCORE.SYSTEM.SOLV>
0

>  <SCORE.SYSTEM.norm>
0

>  <SCORE.heavy>
10

>  <SCORE.norm>
-0.857074

>  <RMSD>
1.906

$$$$
ligand
 OpenBabel11021811473D
libRbt.so/2013.1/901 2013/11/27
 10  9  0  0  0  0  0  0  0  0999 V2000
   31.3365   15.8138   20.4293 N   0  0  0  0  0  0  0  0  0  0  0  0
   30.5691   17.0912   20.4235 C   0  0  2  0  0  0  0  0  0  0  0  0
   30.5906   17.7568   21.7923 C   0  0  0  0  0  0  0  0  0  0  0  0
   30.9009   18.9395   21.9425 O   0  0  0  0  0  0  0  0  0  0  0  0
   29.1347   16.8620   19.9526 C   0  0  0  0  0  0  0  0  0  0  0  0
   28.3735   15.8960   20.8309 C   0  0  0  0  0  0  0  0  0  0  0  0
   27.0061   15.5961   20.2774 C   0  0  0  0  0  0  0  0  0  0  0  0
   27.0902   14.5754   19.1562 C   0  0  0  0  0  0  0  0  0  0  0  0
   27.8098   15.1064   17.9693 N   0  0  0  0  0  0  0  0  0  0  0  0
   30.2608   17.1290   22.7997 O   0  0  0  0  0  0  0  0  0  0  0  0
  2  1  1  1  0  0  0
  2  3  1  0  0  0  0
  2  5  1  0  0  0  0
  3  4  1  0  0  0  0
  3 10  1  0  0  0  0
  5  6  1  0  0  0  0
  6  7  1  0  0  0  0
  7  8  1  0  0  0  0
  8  9  1  0  0  0  0
M  END
>  <CHROM.1>
129.26459437,60.04400256,-175.00807082,79.43683537,-66.09897716,29.31541232
16.49777413,20.59179039,-0.82248905,-0.29288726,-2.08946479

>  <Name>
ligand

>  <RI>
0

>  <Rbt.Current_Directory>
/home/itssahil/PROJECTS/Mol_Feturizer/New_Systems/rnas/3DIX

>  <Rbt.Executable>
rbdock ($Id: //depot/dev/client3/rdock/2013.1/src/exe/rbdock.cxx#4 $)

>  <Rbt.Library>
libRbt.so (2013.1, Build901 2013/11/27)

>  <Rbt.Parameter_File>
/export/apps/rDock/src/rDock_2013.1_src/data/scripts/dock_solv.prm

>  <Rbt.Receptor>
prm/pocket_docking_3.prm

>  <SCORE>
-5.83087

>  <SCORE.INTER>
-7.42368

>  <SCORE.INTER.CONST>
1

>  <SCORE.INTER.POLAR>
0

>  <SCORE.INTER.ROT>
5

>  <SCORE.INTER.SOLV>
13.1263

>  <SCORE.INTER.VDW>
-16.2579

>  <SCORE.INTER.norm>
-0.742368

>  <SCORE.INTRA>
1.59281

>  <SCORE.INTRA.DIHEDRAL>
-0.120835

>  <SCORE.INTRA.DIHEDRAL.0>
3.281

>  <SCORE.INTRA.POLAR>
0

>  <SCORE.INTRA.POLAR.0>
0

>  <SCORE.INTRA.REPUL>
0

>  <SCORE.INTRA.REPUL.0>
0

>  <SCORE.INTRA.SOLV>
1.82484

>  <SCORE.INTRA.SOLV.lig_0>
-31.9458

>  <SCORE.INTRA.VDW>
0.740806

>  <SCORE.INTRA.VDW.0>
-0.672612

>  <SCORE.INTRA.norm>
0.159281

>  <SCORE.RESTR>
0

>  <SCORE.RESTR.CAVITY>
0

>  <SCORE.RESTR.norm>
0

>  <SCORE.SYSTEM>
0

>  <SCORE.SYSTEM.CONST>
0

>  <SCORE.SYSTEM.DIHEDRAL>
0

>  <SCORE.SYSTEM.SOLV>
0

>  <SCORE.SYSTEM.norm>
0

>  <SCORE.heavy>
10

>  <SCORE.norm>
-0.583087

>  <RMSD>
1.916

$$$$
ligand
 OpenBabel11021811473D
libRbt.so/2013.1/901 2013/11/27
 10  9  0  0  0  0  0  0  0  0999 V2000
   30.9434   17.2716   22.1267 N   0  0  0  0  0  0  0  0  0  0  0  0
   31.0027   16.2799   21.0160 C   0  0  2  0  0  0  0  0  0  0  0  0
   32.2445   16.4813   20.1589 C   0  0  0  0  0  0  0  0  0  0  0  0
   33.0534   17.3844   20.3770 O   0  0  0  0  0  0  0  0  0  0  0  0
   29.7374   16.3418   20.1633 C   0  0  0  0  0  0  0  0  0  0  0  0
   28.4876   15.9917   20.9375 C   0  0  0  0  0  0  0  0  0  0  0  0
   27.2653   16.0002   20.0587 C   0  0  0  0  0  0  0  0  0  0  0  0
   27.2208   14.7592   19.1848 C   0  0  0  0  0  0  0  0  0  0  0  0
   28.2685   14.7794   18.1311 N   0  0  0  0  0  0  0  0  0  0  0  0
   32.4952   15.7132   19.2288 O   0  0  0  0  0  0  0  0  0  0  0  0
  2  1  1  1  0  0  0
  2  3  1  0  0  0  0
  2  5  1  0  0  0  0
  3  4  1  0  0  0  0
  3 10  1  0  0  0  0
  5  6  1  0  0  0  0
  6  7  1  0  0  0  0
  7  8  1  0  0  0  0
  8  9  1  0  0  0  0
M  END
>  <CHROM.1>
-1.56319556,-62.34058044,-177.42543294,75.79257249,-70.29511692,30.10988184
16.10611059,20.12234774,0.32983236,0.16354335,1.05076201

>  <Name>
ligand

>  <RI>
0

>  <Rbt.Current_Directory>
/home/itssahil/PROJECTS/Mol_Feturizer/New_Systems/rnas/3DIX

>  <Rbt.Executable>
rbdock ($Id: //depot/dev/client3/rdock/2013.1/src/exe/rbdock.cxx#4 $)

>  <Rbt.Library>
libRbt.so (2013.1, Build901 2013/11/27)

>  <Rbt.Parameter_File>
/export/apps/rDock/src/rDock_2013.1_src/data/scripts/dock_solv.prm

>  <Rbt.Receptor>
prm/pocket_docking_5.prm

>  <SCORE>
-7.104

>  <SCORE.INTER>
-8.4102

>  <SCORE.INTER.CONST>
1

>  <SCORE.INTER.POLAR>
0

>  <SCORE.INTER.ROT>
5

>  <SCORE.INTER.SOLV>
10.7568

>  <SCORE.INTER.VDW>
-16.1257

>  <SCORE.INTER.norm>
-0.84102

>  <SCORE.INTRA>
1.3062

>  <SCORE.INTRA.DIHEDRAL>
-0.345307

>  <SCORE.INTRA.DIHEDRAL.0>
3.281

>  <SCORE.INTRA.POLAR>
0

>  <SCORE.INTRA.POLAR.0>
0

>  <SCORE.INTRA.REPUL>
0

>  <SCORE.INTRA.REPUL.0>
0

>  <SCORE.INTRA.SOLV>
1.58754

>  <SCORE.INTRA.SOLV.lig_0>
-31.9458

>  <SCORE.INTRA.VDW>
0.685081

>  <SCORE.INTRA.VDW.0>
-0.672612

>  <SCORE.INTRA.norm>
0.13062

>  <SCORE.RESTR>
0

>  <SCORE.RESTR.CAVITY>
0

>  <SCORE.RESTR.norm>
0

>  <SCORE.SYSTEM>
0

>  <SCORE.SYSTEM.CONST>
0

>  <SCORE.SYSTEM.DIHEDRAL>
0

>  <SCORE.SYSTEM.SOLV>
0

>  <SCORE.SYSTEM.norm>
0

>  <SCORE.heavy>
10

>  <SCORE.norm>
-0.7104

>  <RMSD>
1.917

$$$$
ligand
 OpenBabel11021811473D
libRbt.so/2013.1/901 2013/11/27
 10  9  0  0  0  0  0  0  0  0999 V2000
   31.2469   17.8050   21.9151 N   0  0  0  0  0  0  0  0  0  0  0  0
   31.5497   16.3553   21.7498 C   0  0  2  0  0  0  0  0  0  0  0  0
   32.0874   16.0566   20.3575 C   0  0  0  0  0  0  0  0  0  0  0  0
   31.4332   15.4323   19.5209 O   0  0  0  0  0  0  0  0  0  0  0  0
   30.3179   15.5045   22.0512 C   0  0  0  0  0  0  0  0  0  0  0  0
   29.1048   15.9201   21.2516 C   0  0  0  0  0  0  0  0  0  0  0  0
   27.9272   15.0199   21.5144 C   0  0  0  0  0  0  0  0  0  0  0  0
   26.7722   15.3587   20.5886 C   0  0  0  0  0  0  0  0  0  0  0  0
   27.1205   15.1471   19.1594 N   0  0  0  0  0  0  0  0  0  0  0  0
   33.1968   16.4668   20.0128 O   0  0  0  0  0  0  0  0  0  0  0  0
  2  1  1  6  0  0  0
  2  3  1  0  0  0  0
  2  5  1  0  0  0  0
  3  4  1  0  0  0  0
  3 10  1  0  0  0  0
  5  6  1  0  0  0  0
  6  7  1  0  0  0  0
  7  8  1  0  0  0  0
  8  9  1  0  0  0  0
M  END
>  <CHROM.1>
-109.75690050,53.58409049,176.98411276,-173.65024714,62.51466278,30.09924514
15.90231874,20.78278154,0.12442340,0.21340442,1.20981599

>  <Name>
ligand

>  <RI>
0

>  <Rbt.Current_Directory>
/home/itssahil/PROJECTS/Mol_Feturizer/New_Systems/rnas/3DIX

>  <Rbt.Executable>
rbdock ($Id: //depot/dev/client3/rdock/2013.1/src/exe/rbdock.cxx#4 $)

>  <Rbt.Library>
libRbt.so (2013.1, Build901 2013/11/27)

>  <Rbt.Parameter_File>
/export/apps/rDock/src/rDock_2013.1_src/data/scripts/dock_solv.prm

>  <Rbt.Receptor>
prm/pocket_docking_8.prm

>  <SCORE>
-8.64874

>  <SCORE.INTER>
-9.08392

>  <SCORE.INTER.CONST>
1

>  <SCORE.INTER.POLAR>
0

>  <SCORE.INTER.ROT>
5

>  <SCORE.INTER.SOLV>
13.1013

>  <SCORE.INTER.VDW>
-17.3564

>  <SCORE.INTER.norm>
-0.908392

>  <SCORE.INTRA>
0.435182

>  <SCORE.INTRA.DIHEDRAL>
-1.41592

>  <SCORE.INTRA.DIHEDRAL.0>
3.281

>  <SCORE.INTRA.POLAR>
0

>  <SCORE.INTRA.POLAR.0>
0

>  <SCORE.INTRA.REPUL>
0

>  <SCORE.INTRA.REPUL.0>
0

>  <SCORE.INTRA.SOLV>
0.409633

>  <SCORE.INTRA.SOLV.lig_0>
-31.9458

>  <SCORE.INTRA.VDW>
0.938327

>  <SCORE.INTRA.VDW.0>
-0.672612

>  <SCORE.INTRA.norm>
0.0435182

>  <SCORE.RESTR>
0

>  <SCORE.RESTR.CAVITY>
0

>  <SCORE.RESTR.norm>
0

>  <SCORE.SYSTEM>
0

>  <SCORE.SYSTEM.CONST>
0

>  <SCORE.SYSTEM.DIHEDRAL>
0

>  <SCORE.SYSTEM.SOLV>
0

>  <SCORE.SYSTEM.norm>
0

>  <SCORE.heavy>
10

>  <SCORE.norm>
-0.864874

>  <RMSD>
1.957

$$$$
ligand
 OpenBabel11021811473D
libRbt.so/2013.1/901 2013/11/27
 10  9  0  0  0  0  0  0  0  0999 V2000
   31.0145   17.8684   21.8022 N   0  0  0  0  0  0  0  0  0  0  0  0
   31.4771   16.4533   21.7378 C   0  0  2  0  0  0  0  0  0  0  0  0
   32.2365   16.1767   20.4479 C   0  0  0  0  0  0  0  0  0  0  0  0
   31.7627   15.4899   19.5415 O   0  0  0  0  0  0  0  0  0  0  0  0
   30.3032   15.4895   21.8953 C   0  0  0  0  0  0  0  0  0  0  0  0
   29.2298   15.6928   20.8510 C   0  0  0  0  0  0  0  0  0  0  0  0
   28.0289   14.8219   21.1073 C   0  0  0  0  0  0  0  0  0  0  0  0
   27.0595   14.8831   19.9401 C   0  0  0  0  0  0  0  0  0  0  0  0
   26.6062   16.2708   19.6618 N   0  0  0  0  0  0  0  0  0  0  0  0
   33.3504   16.6679   20.2588 O   0  0  0  0  0  0  0  0  0  0  0  0
  2  1  1  6  0  0  0
  2  3  1  0  0  0  0
  2  5  1  0  0  0  0
  3  4  1  0  0  0  0
  3 10  1  0  0  0  0
  5  6  1  0  0  0  0
  6  7  1  0  0  0  0
  7  8  1  0  0  0  0
  8  9  1  0  0  0  0
M  END
>  <CHROM.1>
-108.32847042,57.90210612,-174.55899245,-171.34405914,-57.73486812,30.13552399
15.97769675,20.69802875,0.18641695,0.13640889,1.00082259

>  <Name>
ligand

>  <RI>
0

>  <Rbt.Current_Directory>
/home/itssahil/PROJECTS/Mol_Feturizer/New_Systems/rnas/3DIX

>  <Rbt.Executable>
rbdock ($Id: //depot/dev/client3/rdock/2013.1/src/exe/rbdock.cxx#4 $)

>  <Rbt.Library>
libRbt.so (2013.1, Build901 2013/11/27)

>  <Rbt.Parameter_File>
/export/apps/rDock/src/rDock_2013.1_src/data/scripts/dock_solv.prm

>  <Rbt.Receptor>
prm/pocket_docking_5.prm

>  <SCORE>
-6.74154

>  <SCORE.INTER>
-7.46134

>  <SCORE.INTER.CONST>
1

>  <SCORE.INTER.POLAR>
0

>  <SCORE.INTER.ROT>
5

>  <SCORE.INTER.SOLV>
16.2949

>  <SCORE.INTER.VDW>
-17.3392

>  <SCORE.INTER.norm>
-0.746134

>  <SCORE.INTRA>
0.719799

>  <SCORE.INTRA.DIHEDRAL>
-1.35105

>  <SCORE.INTRA.DIHEDRAL.0>
3.281

>  <SCORE.INTRA.POLAR>
0

>  <SCORE.INTRA.POLAR.0>
0

>  <SCORE.INTRA.REPUL>
0

>  <SCORE.INTRA.REPUL.0>
0

>  <SCORE.INTRA.SOLV>
0.390097

>  <SCORE.INTRA.SOLV.lig_0>
-31.9458

>  <SCORE.INTRA.VDW>
1.20027

>  <SCORE.INTRA.VDW.0>
-0.672612

>  <SCORE.INTRA.norm>
0.0719799

>  <SCORE.RESTR>
0

>  <SCORE.RESTR.CAVITY>
0

>  <SCORE.RESTR.norm>
0

>  <SCORE.SYSTEM>
0

>  <SCORE.SYSTEM.CONST>
0

>  <SCORE.SYSTEM.DIHEDRAL>
0

>  <SCORE.SYSTEM.SOLV>
0

>  <SCORE.SYSTEM.norm>
0

>  <SCORE.heavy>
10

>  <SCORE.norm>
-0.674154

>  <RMSD>
1.962

$$$$
ligand
 OpenBabel11021811473D
libRbt.so/2013.1/901 2013/11/27
 10  9  0  0  0  0  0  0  0  0999 V2000
   30.7536   15.7171   19.9535 N   0  0  0  0  0  0  0  0  0  0  0  0
   30.2148   17.0600   20.3098 C   0  0  2  0  0  0  0  0  0  0  0  0
   30.5144   17.4101   21.7606 C   0  0  0  0  0  0  0  0  0  0  0  0
   30.7808   18.5589   22.1172 O   0  0  0  0  0  0  0  0  0  0  0  0
   28.7155   17.1363   20.0304 C   0  0  0  0  0  0  0  0  0  0  0  0
   27.9236   16.0841   20.7717 C   0  0  0  0  0  0  0  0  0  0  0  0
   28.0061   14.7423   20.0942 C   0  0  0  0  0  0  0  0  0  0  0  0
   27.2915   14.7699   18.7545 C   0  0  0  0  0  0  0  0  0  0  0  0
   27.4983   13.5156   17.9846 N   0  0  0  0  0  0  0  0  0  0  0  0
   30.4652   16.5456   22.6370 O   0  0  0  0  0  0  0  0  0  0  0  0
  2  1  1  1  0  0  0
  2  3  1  0  0  0  0
  2  5  1  0  0  0  0
  3  4  1  0  0  0  0
  3 10  1  0  0  0  0
  5  6  1  0  0  0  0
  6  7  1  0  0  0  0
  7  8  1  0  0  0  0
  8  9  1  0  0  0  0
M  END
>  <CHROM.1>
143.96482416,57.71440099,-79.17316288,-67.60916224,172.85169475,29.23005346
16.16909830,20.47797822,-0.97955872,0.00393209,-2.37750660

>  <Name>
ligand

>  <RI>
0

>  <Rbt.Current_Directory>
/home/itssahil/PROJECTS/Mol_Feturizer/New_Systems/rnas/3DIX

>  <Rbt.Executable>
rbdock ($Id: //depot/dev/client3/rdock/2013.1/src/exe/rbdock.cxx#4 $)

>  <Rbt.Library>
libRbt.so (2013.1, Build901 2013/11/27)

>  <Rbt.Parameter_File>
/export/apps/rDock/src/rDock_2013.1_src/data/scripts/dock_solv.prm

>  <Rbt.Receptor>
prm/blind_docking_80.prm

>  <SCORE>
-4.88651

>  <SCORE.INTER>
-6.60895

>  <SCORE.INTER.CONST>
1

>  <SCORE.INTER.POLAR>
0

>  <SCORE.INTER.ROT>
5

>  <SCORE.INTER.SOLV>
14.8822

>  <SCORE.INTER.VDW>
-16.3

>  <SCORE.INTER.norm>
-0.660895

>  <SCORE.INTRA>
1.72244

>  <SCORE.INTRA.DIHEDRAL>
0.0198935

>  <SCORE.INTRA.DIHEDRAL.0>
3.281

>  <SCORE.INTRA.POLAR>
0

>  <SCORE.INTRA.POLAR.0>
0

>  <SCORE.INTRA.REPUL>
0

>  <SCORE.INTRA.REPUL.0>
0

>  <SCORE.INTRA.SOLV>
1.40551

>  <SCORE.INTRA.SOLV.lig_0>
-31.9458

>  <SCORE.INTRA.VDW>
1.00974

>  <SCORE.INTRA.VDW.0>
-0.672612

>  <SCORE.INTRA.norm>
0.172244

>  <SCORE.RESTR>
0

>  <SCORE.RESTR.CAVITY>
0

>  <SCORE.RESTR.norm>
0

>  <SCORE.SYSTEM>
0

>  <SCORE.SYSTEM.CONST>
0

>  <SCORE.SYSTEM.DIHEDRAL>
0

>  <SCORE.SYSTEM.SOLV>
0

>  <SCORE.SYSTEM.norm>
0

>  <SCORE.heavy>
10

>  <SCORE.norm>
-0.488651

>  <RMSD>
1.970

$$$$
ligand
 OpenBabel11021811473D
libRbt.so/2013.1/901 2013/11/27
 10  9  0  0  0  0  0  0  0  0999 V2000
   32.0493   17.8102   22.1125 N   0  0  0  0  0  0  0  0  0  0  0  0
   31.4181   16.7498   21.2773 C   0  0  2  0  0  0  0  0  0  0  0  0
   32.2353   16.4720   20.0235 C   0  0  0  0  0  0  0  0  0  0  0  0
   32.0287   15.4898   19.3092 O   0  0  0  0  0  0  0  0  0  0  0  0
   29.9814   17.1230   20.9186 C   0  0  0  0  0  0  0  0  0  0  0  0
   29.2159   15.9820   20.2894 C   0  0  0  0  0  0  0  0  0  0  0  0
   27.7941   16.3671   19.9789 C   0  0  0  0  0  0  0  0  0  0  0  0
   27.0429   15.2021   19.3590 C   0  0  0  0  0  0  0  0  0  0  0  0
   27.6550   14.7595   18.0791 N   0  0  0  0  0  0  0  0  0  0  0  0
   33.1183   17.2529   19.6652 O   0  0  0  0  0  0  0  0  0  0  0  0
  2  1  1  6  0  0  0
  2  3  1  0  0  0  0
  2  5  1  0  0  0  0
  3  4  1  0  0  0  0
  3 10  1  0  0  0  0
  5  6  1  0  0  0  0
  6  7  1  0  0  0  0
  7  8  1  0  0  0  0
  8  9  1  0  0  0  0
M  END
>  <CHROM.1>
167.49423602,-169.60675161,178.54209587,-179.52234077,-60.90565009,30.28223604
16.31703841,20.07680337,0.41181466,0.11608161,0.97573453

>  <Name>
ligand

>  <RI>
0

>  <Rbt.Current_Directory>
/home/itssahil/PROJECTS/Mol_Feturizer/New_Systems/rnas/3DIX

>  <Rbt.Executable>
rbdock ($Id: //depot/dev/client3/rdock/2013.1/src/exe/rbdock.cxx#4 $)

>  <Rbt.Library>
libRbt.so (2013.1, Build901 2013/11/27)

>  <Rbt.Parameter_File>
/export/apps/rDock/src/rDock_2013.1_src/data/scripts/dock_solv.prm

>  <Rbt.Receptor>
prm/pocket_docking_8.prm

>  <SCORE>
-8.09984

>  <SCORE.INTER>
-7.29535

>  <SCORE.INTER.CONST>
1

>  <SCORE.INTER.POLAR>
0

>  <SCORE.INTER.ROT>
5

>  <SCORE.INTER.SOLV>
12.6672

>  <SCORE.INTER.VDW>
-16.0193

>  <SCORE.INTER.norm>
-0.729535

>  <SCORE.INTRA>
-0.804485

>  <SCORE.INTRA.DIHEDRAL>
-1.42607

>  <SCORE.INTRA.DIHEDRAL.0>
3.281

>  <SCORE.INTRA.POLAR>
0

>  <SCORE.INTRA.POLAR.0>
0

>  <SCORE.INTRA.REPUL>
0

>  <SCORE.INTRA.REPUL.0>
0

>  <SCORE.INTRA.SOLV>
-0.57481

>  <SCORE.INTRA.SOLV.lig_0>
-31.9458

>  <SCORE.INTRA.VDW>
0.195954

>  <SCORE.INTRA.VDW.0>
-0.672612

>  <SCORE.INTRA.norm>
-0.0804485

>  <SCORE.RESTR>
0

>  <SCORE.RESTR.CAVITY>
0

>  <SCORE.RESTR.norm>
0

>  <SCORE.SYSTEM>
0

>  <SCORE.SYSTEM.CONST>
0

>  <SCORE.SYSTEM.DIHEDRAL>
0

>  <SCORE.SYSTEM.SOLV>
0

>  <SCORE.SYSTEM.norm>
0

>  <SCORE.heavy>
10

>  <SCORE.norm>
-0.809984

>  <RMSD>
1.970

$$$$
ligand
 OpenBabel11021811473D
libRbt.so/2013.1/901 2013/11/27
 10  9  0  0  0  0  0  0  0  0999 V2000
   31.8830   17.9697   22.1375 N   0  0  0  0  0  0  0  0  0  0  0  0
   31.3213   16.8450   21.3373 C   0  0  2  0  0  0  0  0  0  0  0  0
   32.2445   16.4677   20.1874 C   0  0  0  0  0  0  0  0  0  0  0  0
   33.2906   17.0768   19.9582 O   0  0  0  0  0  0  0  0  0  0  0  0
   29.9245   17.1871   20.8238 C   0  0  0  0  0  0  0  0  0  0  0  0
   29.1933   15.9894   20.2629 C   0  0  0  0  0  0  0  0  0  0  0  0
   27.8271   16.3588   19.7498 C   0  0  0  0  0  0  0  0  0  0  0  0
   27.1165   15.1421   19.1836 C   0  0  0  0  0  0  0  0  0  0  0  0
   27.8409   14.5613   18.0232 N   0  0  0  0  0  0  0  0  0  0  0  0
   31.9826   15.5062   19.4630 O   0  0  0  0  0  0  0  0  0  0  0  0
  2  1  1  6  0  0  0
  2  3  1  0  0  0  0
  2  5  1  0  0  0  0
  3  4  1  0  0  0  0
  3 10  1  0  0  0  0
  5  6  1  0  0  0  0
  6  7  1  0  0  0  0
  7  8  1  0  0  0  0
  8  9  1  0  0  0  0
M  END
>  <CHROM.1>
-2.40887923,-167.76979745,-179.32824922,179.61819449,-62.06740352,30.29305319
16.30382134,20.09162028,0.47804174,0.05916682,0.89038856

>  <Name>
ligand

>  <RI>
0

>  <Rbt.Current_Directory>
/home/itssahil/PROJECTS/Mol_Feturizer/New_Systems/rnas/3DIX

>  <Rbt.Executable>
rbdock ($Id: //depot/dev/client3/rdock/2013.1/src/exe/rbdock.cxx#4 $)

>  <Rbt.Library>
libRbt.so (2013.1, Build901 2013/11/27)

>  <Rbt.Parameter_File>
/export/apps/rDock/src/rDock_2013.1_src/data/scripts/dock_solv.prm

>  <Rbt.Receptor>
prm/pocket_docking_3.prm

>  <SCORE>
-7.87666

>  <SCORE.INTER>
-7.29399

>  <SCORE.INTER.CONST>
1

>  <SCORE.INTER.POLAR>
0

>  <SCORE.INTER.ROT>
5

>  <SCORE.INTER.SOLV>
12.7665

>  <SCORE.INTER.VDW>
-16.0515

>  <SCORE.INTER.norm>
-0.729399

>  <SCORE.INTRA>
-0.582671

>  <SCORE.INTRA.DIHEDRAL>
-1.20835

>  <SCORE.INTRA.DIHEDRAL.0>
3.281

>  <SCORE.INTRA.POLAR>
0

>  <SCORE.INTRA.POLAR.0>
0

>  <SCORE.INTRA.REPUL>
0

>  <SCORE.INTRA.REPUL.0>
0

>  <SCORE.INTRA.SOLV>
-0.591985

>  <SCORE.INTRA.SOLV.lig_0>
-31.9458

>  <SCORE.INTRA.VDW>
0.317497

>  <SCORE.INTRA.VDW.0>
-0.672612

>  <SCORE.INTRA.norm>
-0.0582671

>  <SCORE.RESTR>
0

>  <SCORE.RESTR.CAVITY>
0

>  <SCORE.RESTR.norm>
0

>  <SCORE.SYSTEM>
0

>  <SCORE.SYSTEM.CONST>
0

>  <SCORE.SYSTEM.DIHEDRAL>
0

>  <SCORE.SYSTEM.SOLV>
0

>  <SCORE.SYSTEM.norm>
0

>  <SCORE.heavy>
10

>  <SCORE.norm>
-0.787666

>  <RMSD>
1.984

$$$$
ligand
 OpenBabel11021811473D
libRbt.so/2013.1/901 2013/11/27
 10  9  0  0  0  0  0  0  0  0999 V2000
   31.9606   17.9089   22.0700 N   0  0  0  0  0  0  0  0  0  0  0  0
   31.3422   16.8150   21.2690 C   0  0  2  0  0  0  0  0  0  0  0  0
   32.1821   16.4826   20.0438 C   0  0  0  0  0  0  0  0  0  0  0  0
   31.9716   15.4832   19.3549 O   0  0  0  0  0  0  0  0  0  0  0  0
   29.9136   17.1754   20.8677 C   0  0  0  0  0  0  0  0  0  0  0  0
   29.1554   16.0088   20.2777 C   0  0  0  0  0  0  0  0  0  0  0  0
   27.7541   16.3943   19.8851 C   0  0  0  0  0  0  0  0  0  0  0  0
   27.0104   15.2048   19.3039 C   0  0  0  0  0  0  0  0  0  0  0  0
   27.6502   14.6978   18.0620 N   0  0  0  0  0  0  0  0  0  0  0  0
   33.0891   17.2343   19.6830 O   0  0  0  0  0  0  0  0  0  0  0  0
  2  1  1  6  0  0  0
  2  3  1  0  0  0  0
  2  5  1  0  0  0  0
  3  4  1  0  0  0  0
  3 10  1  0  0  0  0
  5  6  1  0  0  0  0
  6  7  1  0  0  0  0
  7  8  1  0  0  0  0
  8  9  1  0  0  0  0
M  END
>  <CHROM.1>
168.76957988,-169.41047978,-179.70691871,-179.63574790,-62.20982009,30.23171032
16.33560982,20.05803549,0.43132480,0.10018538,0.93477883

>  <Name>
ligand

>  <RI>
0

>  <Rbt.Current_Directory>
/home/itssahil/PROJECTS/Mol_Feturizer/New_Systems/rnas/3DIX

>  <Rbt.Executable>
rbdock ($Id: //depot/dev/client3/rdock/2013.1/src/exe/rbdock.cxx#4 $)

>  <Rbt.Library>
libRbt.so (2013.1, Build901 2013/11/27)

>  <Rbt.Parameter_File>
/export/apps/rDock/src/rDock_2013.1_src/data/scripts/dock_solv.prm

>  <Rbt.Receptor>
prm/blind_docking_80.prm

>  <SCORE>
-8.08965

>  <SCORE.INTER>
-7.28539

>  <SCORE.INTER.CONST>
1

>  <SCORE.INTER.POLAR>
0

>  <SCORE.INTER.ROT>
5

>  <SCORE.INTER.SOLV>
12.8948

>  <SCORE.INTER.VDW>
-16.0885

>  <SCORE.INTER.norm>
-0.728539

>  <SCORE.INTRA>
-0.804264

>  <SCORE.INTRA.DIHEDRAL>
-1.40104

>  <SCORE.INTRA.DIHEDRAL.0>
3.281

>  <SCORE.INTRA.POLAR>
0

>  <SCORE.INTRA.POLAR.0>
0

>  <SCORE.INTRA.REPUL>
0

>  <SCORE.INTRA.REPUL.0>
0

>  <SCORE.INTRA.SOLV>
-0.591667

>  <SCORE.INTRA.SOLV.lig_0>
-31.9458

>  <SCORE.INTRA.VDW>
0.192087

>  <SCORE.INTRA.VDW.0>
-0.672612

>  <SCORE.INTRA.norm>
-0.0804264

>  <SCORE.RESTR>
0

>  <SCORE.RESTR.CAVITY>
0

>  <SCORE.RESTR.norm>
0

>  <SCORE.SYSTEM>
0

>  <SCORE.SYSTEM.CONST>
0

>  <SCORE.SYSTEM.DIHEDRAL>
0

>  <SCORE.SYSTEM.SOLV>
0

>  <SCORE.SYSTEM.norm>
0

>  <SCORE.heavy>
10

>  <SCORE.norm>
-0.808965

>  <RMSD>
1.986

$$$$
ligand
 OpenBabel11021811473D
libRbt.so/2013.1/901 2013/11/27
 10  9  0  0  0  0  0  0  0  0999 V2000
   31.9130   17.9191   22.0561 N   0  0  0  0  0  0  0  0  0  0  0  0
   31.3078   16.8177   21.2553 C   0  0  2  0  0  0  0  0  0  0  0  0
   32.1680   16.4734   20.0475 C   0  0  0  0  0  0  0  0  0  0  0  0
   31.9432   15.4902   19.3401 O   0  0  0  0  0  0  0  0  0  0  0  0
   29.8862   17.1743   20.8267 C   0  0  0  0  0  0  0  0  0  0  0  0
   29.1236   15.9926   20.2737 C   0  0  0  0  0  0  0  0  0  0  0  0
   27.7364   16.3787   19.8348 C   0  0  0  0  0  0  0  0  0  0  0  0
   26.9875   15.1742   19.2924 C   0  0  0  0  0  0  0  0  0  0  0  0
   27.6218   14.6277   18.0646 N   0  0  0  0  0  0  0  0  0  0  0  0
   33.1078   17.1995   19.7201 O   0  0  0  0  0  0  0  0  0  0  0  0
  2  1  1  6  0  0  0
  2  3  1  0  0  0  0
  2  5  1  0  0  0  0
  3  4  1  0  0  0  0
  3 10  1  0  0  0  0
  5  6  1  0  0  0  0
  6  7  1  0  0  0  0
  7  8  1  0  0  0  0
  8  9  1  0  0  0  0
M  END
>  <CHROM.1>
171.08308787,-167.68008840,-178.88470987,-179.60860554,-63.94941252,30.20876946
16.31967290,20.04786388,0.43741022,0.09676594,0.91993627

>  <Name>
ligand

>  <RI>
0

>  <Rbt.Current_Directory>
/home/itssahil/PROJECTS/Mol_Feturizer/New_Systems/rnas/3DIX

>  <Rbt.Executable>
rbdock ($Id: //depot/dev/client3/rdock/2013.1/src/exe/rbdock.cxx#4 $)

>  <Rbt.Library>
libRbt.so (2013.1, Build901 2013/11/27)

>  <Rbt.Parameter_File>
/export/apps/rDock/src/rDock_2013.1_src/data/scripts/dock_solv.prm

>  <Rbt.Receptor>
prm/pocket_docking_7.prm

>  <SCORE>
-7.99221

>  <SCORE.INTER>
-7.24309

>  <SCORE.INTER.CONST>
1

>  <SCORE.INTER.POLAR>
0

>  <SCORE.INTER.ROT>
5

>  <SCORE.INTER.SOLV>
13.0505

>  <SCORE.INTER.VDW>
-16.1122

>  <SCORE.INTER.norm>
-0.724309

>  <SCORE.INTRA>
-0.749117

>  <SCORE.INTRA.DIHEDRAL>
-1.20422

>  <SCORE.INTRA.DIHEDRAL.0>
3.281

>  <SCORE.INTRA.POLAR>
0

>  <SCORE.INTRA.POLAR.0>
0

>  <SCORE.INTRA.REPUL>
0

>  <SCORE.INTRA.REPUL.0>
0

>  <SCORE.INTRA.SOLV>
-0.612868

>  <SCORE.INTRA.SOLV.lig_0>
-31.9458

>  <SCORE.INTRA.VDW>
0.159428

>  <SCORE.INTRA.VDW.0>
-0.672612

>  <SCORE.INTRA.norm>
-0.0749117

>  <SCORE.RESTR>
0

>  <SCORE.RESTR.CAVITY>
0

>  <SCORE.RESTR.norm>
0

>  <SCORE.SYSTEM>
0

>  <SCORE.SYSTEM.CONST>
0

>  <SCORE.SYSTEM.DIHEDRAL>
0

>  <SCORE.SYSTEM.SOLV>
0

>  <SCORE.SYSTEM.norm>
0

>  <SCORE.heavy>
10

>  <SCORE.norm>
-0.799221

>  <RMSD>
1.989

$$$$
ligand
 OpenBabel11021811473D
libRbt.so/2013.1/901 2013/11/27
 10  9  0  0  0  0  0  0  0  0999 V2000
   32.2804   18.0760   22.2749 N   0  0  0  0  0  0  0  0  0  0  0  0
   31.6342   17.0188   21.4470 C   0  0  2  0  0  0  0  0  0  0  0  0
   32.5238   16.6054   20.2830 C   0  0  0  0  0  0  0  0  0  0  0  0
   33.4926   17.2775   19.9260 O   0  0  0  0  0  0  0  0  0  0  0  0
   30.2657   17.4782   20.9492 C   0  0  0  0  0  0  0  0  0  0  0  0
   29.4921   16.3808   20.2557 C   0  0  0  0  0  0  0  0  0  0  0  0
   28.2001   16.8895   19.6742 C   0  0  0  0  0  0  0  0  0  0  0  0
   27.4244   15.7624   19.0155 C   0  0  0  0  0  0  0  0  0  0  0  0
   27.0183   14.7181   19.9917 N   0  0  0  0  0  0  0  0  0  0  0  0
   32.3150   15.5529   19.6777 O   0  0  0  0  0  0  0  0  0  0  0  0
  2  1  1  6  0  0  0
  2  3  1  0  0  0  0
  2  5  1  0  0  0  0
  3  4  1  0  0  0  0
  3 10  1  0  0  0  0
  5  6  1  0  0  0  0
  6  7  1  0  0  0  0
  7  8  1  0  0  0  0
  8  9  1  0  0  0  0
M  END
>  <CHROM.1>
-15.02544929,-172.57445584,-175.18208865,-178.50157663,63.21293820,30.49533012
16.56793907,20.32705814,0.33891434,0.05625413,0.81205974

>  <Name>
ligand

>  <RI>
0

>  <Rbt.Current_Directory>
/home/itssahil/PROJECTS/Mol_Feturizer/New_Systems/rnas/3DIX

>  <Rbt.Executable>
rbdock ($Id: //depot/dev/client3/rdock/2013.1/src/exe/rbdock.cxx#4 $)

>  <Rbt.Library>
libRbt.so (2013.1, Build901 2013/11/27)

>  <Rbt.Parameter_File>
/export/apps/rDock/src/rDock_2013.1_src/data/scripts/dock_solv.prm

>  <Rbt.Receptor>
prm/pocket_docking_5.prm

>  <SCORE>
-7.14887

>  <SCORE.INTER>
-6.36091

>  <SCORE.INTER.CONST>
1

>  <SCORE.INTER.POLAR>
0

>  <SCORE.INTER.ROT>
5

>  <SCORE.INTER.SOLV>
13.9607

>  <SCORE.INTER.VDW>
-15.8275

>  <SCORE.INTER.norm>
-0.636091

>  <SCORE.INTRA>
-0.787957

>  <SCORE.INTRA.DIHEDRAL>
-1.39192

>  <SCORE.INTRA.DIHEDRAL.0>
3.281

>  <SCORE.INTRA.POLAR>
0

>  <SCORE.INTRA.POLAR.0>
0

>  <SCORE.INTRA.REPUL>
0

>  <SCORE.INTRA.REPUL.0>
0

>  <SCORE.INTRA.SOLV>
-0.607976

>  <SCORE.INTRA.SOLV.lig_0>
-31.9458

>  <SCORE.INTRA.VDW>
0.211991

>  <SCORE.INTRA.VDW.0>
-0.672612

>  <SCORE.INTRA.norm>
-0.0787957

>  <SCORE.RESTR>
0

>  <SCORE.RESTR.CAVITY>
0

>  <SCORE.RESTR.norm>
0

>  <SCORE.SYSTEM>
0

>  <SCORE.SYSTEM.CONST>
0

>  <SCORE.SYSTEM.DIHEDRAL>
0

>  <SCORE.SYSTEM.SOLV>
0

>  <SCORE.SYSTEM.norm>
0

>  <SCORE.heavy>
10

>  <SCORE.norm>
-0.714887

>  <RMSD>
1.994

$$$$
ligand
 OpenBabel11021811473D
libRbt.so/2013.1/901 2013/11/27
 10  9  0  0  0  0  0  0  0  0999 V2000
   32.6746   18.0391   22.2742 N   0  0  0  0  0  0  0  0  0  0  0  0
   32.2714   16.7255   21.6974 C   0  0  2  0  0  0  0  0  0  0  0  0
   32.5700   16.6599   20.2063 C   0  0  0  0  0  0  0  0  0  0  0  0
   31.8800   17.2478   19.3720 O   0  0  0  0  0  0  0  0  0  0  0  0
   30.7959   16.4417   21.9697 C   0  0  0  0  0  0  0  0  0  0  0  0
   30.3303   15.1293   21.3826 C   0  0  0  0  0  0  0  0  0  0  0  0
   28.9166   14.8065   21.7871 C   0  0  0  0  0  0  0  0  0  0  0  0
   27.9325   15.7306   21.0917 C   0  0  0  0  0  0  0  0  0  0  0  0
   27.8894   15.4994   19.6243 N   0  0  0  0  0  0  0  0  0  0  0  0
   33.5456   16.0337   19.7895 O   0  0  0  0  0  0  0  0  0  0  0  0
  2  1  1  6  0  0  0
  2  3  1  0  0  0  0
  2  5  1  0  0  0  0
  3  4  1  0  0  0  0
  3 10  1  0  0  0  0
  5  6  1  0  0  0  0
  6  7  1  0  0  0  0
  7  8  1  0  0  0  0
  8  9  1  0  0  0  0
M  END
>  <CHROM.1>
-75.22205948,178.98217704,174.02019446,70.99424656,67.00774222,30.89794450
16.23299142,20.88667220,0.00671313,0.34456902,1.43244335

>  <Name>
ligand

>  <RI>
0

>  <Rbt.Current_Directory>
/home/itssahil/PROJECTS/Mol_Feturizer/New_Systems/rnas/3DIX

>  <Rbt.Executable>
rbdock ($Id: //depot/dev/client3/rdock/2013.1/src/exe/rbdock.cxx#4 $)

>  <Rbt.Library>
libRbt.so (2013.1, Build901 2013/11/27)

>  <Rbt.Parameter_File>
/export/apps/rDock/src/rDock_2013.1_src/data/scripts/dock_solv.prm

>  <Rbt.Receptor>
prm/blind_docking_80.prm

>  <SCORE>
-8.01108

>  <SCORE.INTER>
-8.20633

>  <SCORE.INTER.CONST>
1

>  <SCORE.INTER.POLAR>
0

>  <SCORE.INTER.ROT>
5

>  <SCORE.INTER.SOLV>
11.2167

>  <SCORE.INTER.VDW>
-16.1431

>  <SCORE.INTER.norm>
-0.820633

>  <SCORE.INTRA>
0.195249

>  <SCORE.INTRA.DIHEDRAL>
-1.0108

>  <SCORE.INTRA.DIHEDRAL.0>
3.281

>  <SCORE.INTRA.POLAR>
0

>  <SCORE.INTRA.POLAR.0>
0

>  <SCORE.INTRA.REPUL>
0

>  <SCORE.INTRA.REPUL.0>
0

>  <SCORE.INTRA.SOLV>
-0.247955

>  <SCORE.INTRA.SOLV.lig_0>
-31.9458

>  <SCORE.INTRA.VDW>
0.824627

>  <SCORE.INTRA.VDW.0>
-0.672612

>  <SCORE.INTRA.norm>
0.0195249

>  <SCORE.RESTR>
0

>  <SCORE.RESTR.CAVITY>
0

>  <SCORE.RESTR.norm>
0

>  <SCORE.SYSTEM>
0

>  <SCORE.SYSTEM.CONST>
0

>  <SCORE.SYSTEM.DIHEDRAL>
0

>  <SCORE.SYSTEM.SOLV>
0

>  <SCORE.SYSTEM.norm>
0

>  <SCORE.heavy>
10

>  <SCORE.norm>
-0.801108

>  <RMSD>
2.000

$$$$
ligand
 OpenBabel11021811473D
libRbt.so/2013.1/901 2013/11/27
 10  9  0  0  0  0  0  0  0  0999 V2000
   31.0350   17.6621   21.9318 N   0  0  0  0  0  0  0  0  0  0  0  0
   31.3052   16.2103   21.7319 C   0  0  2  0  0  0  0  0  0  0  0  0
   31.9127   15.9431   20.3620 C   0  0  0  0  0  0  0  0  0  0  0  0
   31.3194   15.3002   19.4947 O   0  0  0  0  0  0  0  0  0  0  0  0
   30.0345   15.3877   21.9332 C   0  0  0  0  0  0  0  0  0  0  0  0
   28.9006   15.8259   21.0353 C   0  0  0  0  0  0  0  0  0  0  0  0
   27.6579   15.0078   21.2650 C   0  0  0  0  0  0  0  0  0  0  0  0
   26.5972   15.3358   20.2289 C   0  0  0  0  0  0  0  0  0  0  0  0
   27.0439   15.0110   18.8492 N   0  0  0  0  0  0  0  0  0  0  0  0
   33.0189   16.3986   20.0675 O   0  0  0  0  0  0  0  0  0  0  0  0
  2  1  1  6  0  0  0
  2  3  1  0  0  0  0
  2  5  1  0  0  0  0
  3  4  1  0  0  0  0
  3 10  1  0  0  0  0
  5  6  1  0  0  0  0
  6  7  1  0  0  0  0
  7  8  1  0  0  0  0
  8  9  1  0  0  0  0
M  END
>  <CHROM.1>
-114.07825694,56.27576061,-179.41566077,-172.30680690,62.15515841,29.90754536
15.80443569,20.66186954,0.18711381,0.18229100,1.20115688

>  <Name>
ligand

>  <RI>
0

>  <Rbt.Current_Directory>
/home/itssahil/PROJECTS/Mol_Feturizer/New_Systems/rnas/3DIX

>  <Rbt.Executable>
rbdock ($Id: //depot/dev/client3/rdock/2013.1/src/exe/rbdock.cxx#4 $)

>  <Rbt.Library>
libRbt.so (2013.1, Build901 2013/11/27)

>  <Rbt.Parameter_File>
/export/apps/rDock/src/rDock_2013.1_src/data/scripts/dock_solv.prm

>  <Rbt.Receptor>
prm/pocket_docking_4.prm

>  <SCORE>
-8.83347

>  <SCORE.INTER>
-9.32649

>  <SCORE.INTER.CONST>
1

>  <SCORE.INTER.POLAR>
0

>  <SCORE.INTER.ROT>
5

>  <SCORE.INTER.SOLV>
13.6828

>  <SCORE.INTER.VDW>
-17.7119

>  <SCORE.INTER.norm>
-0.932649

>  <SCORE.INTRA>
0.493025

>  <SCORE.INTRA.DIHEDRAL>
-1.47911

>  <SCORE.INTRA.DIHEDRAL.0>
3.281

>  <SCORE.INTRA.POLAR>
0

>  <SCORE.INTRA.POLAR.0>
0

>  <SCORE.INTRA.REPUL>
0

>  <SCORE.INTRA.REPUL.0>
0

>  <SCORE.INTRA.SOLV>
0.407068

>  <SCORE.INTRA.SOLV.lig_0>
-31.9458

>  <SCORE.INTRA.VDW>
1.02904

>  <SCORE.INTRA.VDW.0>
-0.672612

>  <SCORE.INTRA.norm>
0.0493025

>  <SCORE.RESTR>
0

>  <SCORE.RESTR.CAVITY>
0

>  <SCORE.RESTR.norm>
0

>  <SCORE.SYSTEM>
0

>  <SCORE.SYSTEM.CONST>
0

>  <SCORE.SYSTEM.DIHEDRAL>
0

>  <SCORE.SYSTEM.SOLV>
0

>  <SCORE.SYSTEM.norm>
0

>  <SCORE.heavy>
10

>  <SCORE.norm>
-0.883347

>  <RMSD>
2.002

$$$$
ligand
 OpenBabel11021811473D
libRbt.so/2013.1/901 2013/11/27
 10  9  0  0  0  0  0  0  0  0999 V2000
   32.1171   17.9093   22.1964 N   0  0  0  0  0  0  0  0  0  0  0  0
   31.6625   16.5865   21.6822 C   0  0  2  0  0  0  0  0  0  0  0  0
   32.1940   16.3245   20.2801 C   0  0  0  0  0  0  0  0  0  0  0  0
   33.1319   16.9652   19.8031 O   0  0  0  0  0  0  0  0  0  0  0  0
   30.1392   16.4848   21.7143 C   0  0  0  0  0  0  0  0  0  0  0  0
   29.6406   15.0646   21.5788 C   0  0  0  0  0  0  0  0  0  0  0  0
   28.1371   14.9950   21.6085 C   0  0  0  0  0  0  0  0  0  0  0  0
   27.5461   15.5525   20.3256 C   0  0  0  0  0  0  0  0  0  0  0  0
   26.0673   15.4110   20.2836 N   0  0  0  0  0  0  0  0  0  0  0  0
   31.7141   15.4273   19.5856 O   0  0  0  0  0  0  0  0  0  0  0  0
  2  1  1  6  0  0  0
  2  3  1  0  0  0  0
  2  5  1  0  0  0  0
  3  4  1  0  0  0  0
  3 10  1  0  0  0  0
  5  6  1  0  0  0  0
  6  7  1  0  0  0  0
  7  8  1  0  0  0  0
  8  9  1  0  0  0  0
M  END
>  <CHROM.1>
16.82115580,-163.92918047,-179.78787412,71.68977271,176.00444549,30.25832051
16.06809708,20.87526273,0.10786237,0.26261840,1.12597881

>  <Name>
ligand

>  <RI>
0

>  <Rbt.Current_Directory>
/home/itssahil/PROJECTS/Mol_Feturizer/New_Systems/rnas/3DIX

>  <Rbt.Executable>
rbdock ($Id: //depot/dev/client3/rdock/2013.1/src/exe/rbdock.cxx#4 $)

>  <Rbt.Library>
libRbt.so (2013.1, Build901 2013/11/27)

>  <Rbt.Parameter_File>
/export/apps/rDock/src/rDock_2013.1_src/data/scripts/dock_solv.prm

>  <Rbt.Receptor>
prm/pocket_docking_3.prm

>  <SCORE>
-7.21834

>  <SCORE.INTER>
-7.42296

>  <SCORE.INTER.CONST>
1

>  <SCORE.INTER.POLAR>
0

>  <SCORE.INTER.ROT>
5

>  <SCORE.INTER.SOLV>
17.1917

>  <SCORE.INTER.VDW>
-17.6125

>  <SCORE.INTER.norm>
-0.742296

>  <SCORE.INTRA>
0.204614

>  <SCORE.INTRA.DIHEDRAL>
-0.288559

>  <SCORE.INTRA.DIHEDRAL.0>
3.281

>  <SCORE.INTRA.POLAR>
0

>  <SCORE.INTRA.POLAR.0>
0

>  <SCORE.INTRA.REPUL>
0

>  <SCORE.INTRA.REPUL.0>
0

>  <SCORE.INTRA.SOLV>
-1.33872

>  <SCORE.INTRA.SOLV.lig_0>
-31.9458

>  <SCORE.INTRA.VDW>
1.01825

>  <SCORE.INTRA.VDW.0>
-0.672612

>  <SCORE.INTRA.norm>
0.0204614

>  <SCORE.RESTR>
0

>  <SCORE.RESTR.CAVITY>
0

>  <SCORE.RESTR.norm>
0

>  <SCORE.SYSTEM>
0

>  <SCORE.SYSTEM.CONST>
0

>  <SCORE.SYSTEM.DIHEDRAL>
0

>  <SCORE.SYSTEM.SOLV>
0

>  <SCORE.SYSTEM.norm>
0

>  <SCORE.heavy>
10

>  <SCORE.norm>
-0.721834

>  <RMSD>
2.042

$$$$
ligand
 OpenBabel11021811473D
libRbt.so/2013.1/901 2013/11/27
 10  9  0  0  0  0  0  0  0  0999 V2000
   30.9612   17.6347   21.9878 N   0  0  0  0  0  0  0  0  0  0  0  0
   31.2215   16.1835   21.7713 C   0  0  2  0  0  0  0  0  0  0  0  0
   31.8205   15.9271   20.3956 C   0  0  0  0  0  0  0  0  0  0  0  0
   31.2049   15.3279   19.5127 O   0  0  0  0  0  0  0  0  0  0  0  0
   29.9468   15.3665   21.9704 C   0  0  0  0  0  0  0  0  0  0  0  0
   28.7964   15.8528   21.1195 C   0  0  0  0  0  0  0  0  0  0  0  0
   27.5659   15.0062   21.3071 C   0  0  0  0  0  0  0  0  0  0  0  0
   26.4864   15.3960   20.3127 C   0  0  0  0  0  0  0  0  0  0  0  0
   26.9216   15.1921   18.9064 N   0  0  0  0  0  0  0  0  0  0  0  0
   32.9433   16.3480   20.1126 O   0  0  0  0  0  0  0  0  0  0  0  0
  2  1  1  6  0  0  0
  2  3  1  0  0  0  0
  2  5  1  0  0  0  0
  3  4  1  0  0  0  0
  3 10  1  0  0  0  0
  5  6  1  0  0  0  0
  6  7  1  0  0  0  0
  7  8  1  0  0  0  0
  8  9  1  0  0  0  0
M  END
>  <CHROM.1>
-112.09652239,54.19025911,178.39384936,-172.48826453,61.46970154,29.81173261
15.81968248,20.71131717,0.16584103,0.16807170,1.23567387

>  <Name>
ligand

>  <RI>
0

>  <Rbt.Current_Directory>
/home/itssahil/PROJECTS/Mol_Feturizer/New_Systems/rnas/3DIX

>  <Rbt.Executable>
rbdock ($Id: //depot/dev/client3/rdock/2013.1/src/exe/rbdock.cxx#4 $)

>  <Rbt.Library>
libRbt.so (2013.1, Build901 2013/11/27)

>  <Rbt.Parameter_File>
/export/apps/rDock/src/rDock_2013.1_src/data/scripts/dock_solv.prm

>  <Rbt.Receptor>
prm/pocket_docking_7.prm

>  <SCORE>
-8.73208

>  <SCORE.INTER>
-9.21421

>  <SCORE.INTER.CONST>
1

>  <SCORE.INTER.POLAR>
0

>  <SCORE.INTER.ROT>
5

>  <SCORE.INTER.SOLV>
14.0469

>  <SCORE.INTER.VDW>
-17.7584

>  <SCORE.INTER.norm>
-0.921421

>  <SCORE.INTRA>
0.48213

>  <SCORE.INTRA.DIHEDRAL>
-1.41513

>  <SCORE.INTRA.DIHEDRAL.0>
3.281

>  <SCORE.INTRA.POLAR>
0

>  <SCORE.INTRA.POLAR.0>
0

>  <SCORE.INTRA.REPUL>
0

>  <SCORE.INTRA.REPUL.0>
0

>  <SCORE.INTRA.SOLV>
0.430543

>  <SCORE.INTRA.SOLV.lig_0>
-31.9458

>  <SCORE.INTRA.VDW>
0.974425

>  <SCORE.INTRA.VDW.0>
-0.672612

>  <SCORE.INTRA.norm>
0.048213

>  <SCORE.RESTR>
0

>  <SCORE.RESTR.CAVITY>
0

>  <SCORE.RESTR.norm>
0

>  <SCORE.SYSTEM>
0

>  <SCORE.SYSTEM.CONST>
0

>  <SCORE.SYSTEM.DIHEDRAL>
0

>  <SCORE.SYSTEM.SOLV>
0

>  <SCORE.SYSTEM.norm>
0

>  <SCORE.heavy>
10

>  <SCORE.norm>
-0.873208

>  <RMSD>
2.043

$$$$
ligand
 OpenBabel11021811473D
libRbt.so/2013.1/901 2013/11/27
 10  9  0  0  0  0  0  0  0  0999 V2000
   32.8362   17.0891   22.1621 N   0  0  0  0  0  0  0  0  0  0  0  0
   31.6536   16.4902   21.4814 C   0  0  2  0  0  0  0  0  0  0  0  0
   31.9804   16.0948   20.0482 C   0  0  0  0  0  0  0  0  0  0  0  0
   32.9344   16.5767   19.4355 O   0  0  0  0  0  0  0  0  0  0  0  0
   30.4609   17.4428   21.5243 C   0  0  0  0  0  0  0  0  0  0  0  0
   29.2055   16.8421   20.9354 C   0  0  0  0  0  0  0  0  0  0  0  0
   28.6983   15.6888   21.7594 C   0  0  0  0  0  0  0  0  0  0  0  0
   27.3557   15.2047   21.2405 C   0  0  0  0  0  0  0  0  0  0  0  0
   27.4349   14.7426   19.8303 N   0  0  0  0  0  0  0  0  0  0  0  0
   31.3081   15.2436   19.4641 O   0  0  0  0  0  0  0  0  0  0  0  0
  2  1  1  6  0  0  0
  2  3  1  0  0  0  0
  2  5  1  0  0  0  0
  3  4  1  0  0  0  0
  3 10  1  0  0  0  0
  5  6  1  0  0  0  0
  6  7  1  0  0  0  0
  7  8  1  0  0  0  0
  8  9  1  0  0  0  0
M  END
>  <CHROM.1>
-20.41362952,-175.81677007,66.27468258,173.52898275,60.02351962,30.40356554
16.13330445,20.75626170,0.10305427,0.25202394,1.02522543

>  <Name>
ligand

>  <RI>
0

>  <Rbt.Current_Directory>
/home/itssahil/PROJECTS/Mol_Feturizer/New_Systems/rnas/3DIX

>  <Rbt.Executable>
rbdock ($Id: //depot/dev/client3/rdock/2013.1/src/exe/rbdock.cxx#4 $)

>  <Rbt.Library>
libRbt.so (2013.1, Build901 2013/11/27)

>  <Rbt.Parameter_File>
/export/apps/rDock/src/rDock_2013.1_src/data/scripts/dock_solv.prm

>  <Rbt.Receptor>
prm/pocket_docking_7.prm

>  <SCORE>
-7.92446

>  <SCORE.INTER>
-7.51366

>  <SCORE.INTER.CONST>
1

>  <SCORE.INTER.POLAR>
0

>  <SCORE.INTER.ROT>
5

>  <SCORE.INTER.SOLV>
14.4393

>  <SCORE.INTER.VDW>
-16.7555

>  <SCORE.INTER.norm>
-0.751366

>  <SCORE.INTRA>
-0.410802

>  <SCORE.INTRA.DIHEDRAL>
-1.32952

>  <SCORE.INTRA.DIHEDRAL.0>
3.281

>  <SCORE.INTRA.POLAR>
0

>  <SCORE.INTRA.POLAR.0>
0

>  <SCORE.INTRA.REPUL>
0

>  <SCORE.INTRA.REPUL.0>
0

>  <SCORE.INTRA.SOLV>
-0.291575

>  <SCORE.INTRA.SOLV.lig_0>
-31.9458

>  <SCORE.INTRA.VDW>
0.399747

>  <SCORE.INTRA.VDW.0>
-0.672612

>  <SCORE.INTRA.norm>
-0.0410802

>  <SCORE.RESTR>
0

>  <SCORE.RESTR.CAVITY>
0

>  <SCORE.RESTR.norm>
0

>  <SCORE.SYSTEM>
0

>  <SCORE.SYSTEM.CONST>
0

>  <SCORE.SYSTEM.DIHEDRAL>
0

>  <SCORE.SYSTEM.SOLV>
0

>  <SCORE.SYSTEM.norm>
0

>  <SCORE.heavy>
10

>  <SCORE.norm>
-0.792446

>  <RMSD>
2.098

$$$$
ligand
 OpenBabel11021811473D
libRbt.so/2013.1/901 2013/11/27
 10  9  0  0  0  0  0  0  0  0999 V2000
   32.8653   17.0132   22.1465 N   0  0  0  0  0  0  0  0  0  0  0  0
   31.6744   16.4404   21.4576 C   0  0  2  0  0  0  0  0  0  0  0  0
   31.9972   16.0557   20.0207 C   0  0  0  0  0  0  0  0  0  0  0  0
   32.9787   16.5033   19.4257 O   0  0  0  0  0  0  0  0  0  0  0  0
   30.4968   17.4112   21.5094 C   0  0  0  0  0  0  0  0  0  0  0  0
   29.2280   16.8297   20.9297 C   0  0  0  0  0  0  0  0  0  0  0  0
   28.6971   15.6988   21.7696 C   0  0  0  0  0  0  0  0  0  0  0  0
   27.3534   15.2230   21.2459 C   0  0  0  0  0  0  0  0  0  0  0  0
   27.4407   14.7334   19.8455 N   0  0  0  0  0  0  0  0  0  0  0  0
   31.2921   15.2470   19.4150 O   0  0  0  0  0  0  0  0  0  0  0  0
  2  1  1  6  0  0  0
  2  3  1  0  0  0  0
  2  5  1  0  0  0  0
  3  4  1  0  0  0  0
  3 10  1  0  0  0  0
  5  6  1  0  0  0  0
  6  7  1  0  0  0  0
  7  8  1  0  0  0  0
  8  9  1  0  0  0  0
M  END
>  <CHROM.1>
-18.54669378,-175.01497334,67.20169134,174.37782069,60.03803612,30.41901869
16.10744575,20.74450051,0.08551921,0.24415815,1.03504932

>  <Name>
ligand

>  <RI>
0

>  <Rbt.Current_Directory>
/home/itssahil/PROJECTS/Mol_Feturizer/New_Systems/rnas/3DIX

>  <Rbt.Executable>
rbdock ($Id: //depot/dev/client3/rdock/2013.1/src/exe/rbdock.cxx#4 $)

>  <Rbt.Library>
libRbt.so (2013.1, Build901 2013/11/27)

>  <Rbt.Parameter_File>
/export/apps/rDock/src/rDock_2013.1_src/data/scripts/dock_solv.prm

>  <Rbt.Receptor>
prm/blind_docking_80.prm

>  <SCORE>
-7.86636

>  <SCORE.INTER>
-7.46701

>  <SCORE.INTER.CONST>
1

>  <SCORE.INTER.POLAR>
0

>  <SCORE.INTER.ROT>
5

>  <SCORE.INTER.SOLV>
14.6191

>  <SCORE.INTER.VDW>
-16.7844

>  <SCORE.INTER.norm>
-0.746701

>  <SCORE.INTRA>
-0.399356

>  <SCORE.INTRA.DIHEDRAL>
-1.29633

>  <SCORE.INTRA.DIHEDRAL.0>
3.281

>  <SCORE.INTRA.POLAR>
0

>  <SCORE.INTRA.POLAR.0>
0

>  <SCORE.INTRA.REPUL>
0

>  <SCORE.INTRA.REPUL.0>
0

>  <SCORE.INTRA.SOLV>
-0.279331

>  <SCORE.INTRA.SOLV.lig_0>
-31.9458

>  <SCORE.INTRA.VDW>
0.388474

>  <SCORE.INTRA.VDW.0>
-0.672612

>  <SCORE.INTRA.norm>
-0.0399356

>  <SCORE.RESTR>
0

>  <SCORE.RESTR.CAVITY>
0

>  <SCORE.RESTR.norm>
0

>  <SCORE.SYSTEM>
0

>  <SCORE.SYSTEM.CONST>
0

>  <SCORE.SYSTEM.DIHEDRAL>
0

>  <SCORE.SYSTEM.SOLV>
0

>  <SCORE.SYSTEM.norm>
0

>  <SCORE.heavy>
10

>  <SCORE.norm>
-0.786636

>  <RMSD>
2.103

$$$$
ligand
 OpenBabel11021811473D
libRbt.so/2013.1/901 2013/11/27
 10  9  0  0  0  0  0  0  0  0999 V2000
   31.5630   17.4677   22.1230 N   0  0  0  0  0  0  0  0  0  0  0  0
   30.9617   16.2083   21.6005 C   0  0  2  0  0  0  0  0  0  0  0  0
   31.4347   15.9145   20.1838 C   0  0  0  0  0  0  0  0  0  0  0  0
   32.4416   16.4391   19.7057 O   0  0  0  0  0  0  0  0  0  0  0  0
   29.4370   16.2663   21.6638 C   0  0  0  0  0  0  0  0  0  0  0  0
   28.7873   14.9165   21.4643 C   0  0  0  0  0  0  0  0  0  0  0  0
   27.2871   15.0228   21.3988 C   0  0  0  0  0  0  0  0  0  0  0  0
   26.8509   15.7156   20.1198 C   0  0  0  0  0  0  0  0  0  0  0  0
   27.2858   14.9755   18.9067 N   0  0  0  0  0  0  0  0  0  0  0  0
   30.8318   15.1053   19.4770 O   0  0  0  0  0  0  0  0  0  0  0  0
  2  1  1  6  0  0  0
  2  3  1  0  0  0  0
  2  5  1  0  0  0  0
  3  4  1  0  0  0  0
  3 10  1  0  0  0  0
  5  6  1  0  0  0  0
  6  7  1  0  0  0  0
  7  8  1  0  0  0  0
  8  9  1  0  0  0  0
M  END
>  <CHROM.1>
18.42414495,-166.22412110,-174.49626167,69.45783766,60.62354712,29.70861259
15.79768701,20.63457015,0.17485329,0.23349006,1.21928865

>  <Name>
ligand

>  <RI>
0

>  <Rbt.Current_Directory>
/home/itssahil/PROJECTS/Mol_Feturizer/New_Systems/rnas/3DIX

>  <Rbt.Executable>
rbdock ($Id: //depot/dev/client3/rdock/2013.1/src/exe/rbdock.cxx#4 $)

>  <Rbt.Library>
libRbt.so (2013.1, Build901 2013/11/27)

>  <Rbt.Parameter_File>
/export/apps/rDock/src/rDock_2013.1_src/data/scripts/dock_solv.prm

>  <Rbt.Receptor>
prm/pocket_docking_8.prm

>  <SCORE>
-8.4231

>  <SCORE.INTER>
-9.44678

>  <SCORE.INTER.CONST>
1

>  <SCORE.INTER.POLAR>
0

>  <SCORE.INTER.ROT>
5

>  <SCORE.INTER.SOLV>
12.3545

>  <SCORE.INTER.VDW>
-17.3493

>  <SCORE.INTER.norm>
-0.944678

>  <SCORE.INTRA>
1.02368

>  <SCORE.INTRA.DIHEDRAL>
-0.653996

>  <SCORE.INTRA.DIHEDRAL.0>
3.281

>  <SCORE.INTRA.POLAR>
0

>  <SCORE.INTRA.POLAR.0>
0

>  <SCORE.INTRA.REPUL>
0

>  <SCORE.INTRA.REPUL.0>
0

>  <SCORE.INTRA.SOLV>
0.170922

>  <SCORE.INTRA.SOLV.lig_0>
-31.9458

>  <SCORE.INTRA.VDW>
1.26522

>  <SCORE.INTRA.VDW.0>
-0.672612

>  <SCORE.INTRA.norm>
0.102368

>  <SCORE.RESTR>
0

>  <SCORE.RESTR.CAVITY>
0

>  <SCORE.RESTR.norm>
0

>  <SCORE.SYSTEM>
0

>  <SCORE.SYSTEM.CONST>
0

>  <SCORE.SYSTEM.DIHEDRAL>
0

>  <SCORE.SYSTEM.SOLV>
0

>  <SCORE.SYSTEM.norm>
0

>  <SCORE.heavy>
10

>  <SCORE.norm>
-0.84231

>  <RMSD>
2.200

$$$$
ligand
 OpenBabel11021811473D
libRbt.so/2013.1/901 2013/11/27
 10  9  0  0  0  0  0  0  0  0999 V2000
   31.5298   17.3564   22.0954 N   0  0  0  0  0  0  0  0  0  0  0  0
   30.8956   16.0818   21.6549 C   0  0  2  0  0  0  0  0  0  0  0  0
   31.3812   15.6702   20.2721 C   0  0  0  0  0  0  0  0  0  0  0  0
   32.5469   15.8355   19.9095 O   0  0  0  0  0  0  0  0  0  0  0  0
   29.3730   16.1927   21.6860 C   0  0  0  0  0  0  0  0  0  0  0  0
   28.6816   14.8598   21.5145 C   0  0  0  0  0  0  0  0  0  0  0  0
   27.1893   15.0161   21.3927 C   0  0  0  0  0  0  0  0  0  0  0  0
   26.8234   15.6978   20.0860 C   0  0  0  0  0  0  0  0  0  0  0  0
   27.2633   14.9128   18.9034 N   0  0  0  0  0  0  0  0  0  0  0  0
   30.6166   15.1213   19.4772 O   0  0  0  0  0  0  0  0  0  0  0  0
  2  1  1  6  0  0  0
  2  3  1  0  0  0  0
  2  5  1  0  0  0  0
  3  4  1  0  0  0  0
  3 10  1  0  0  0  0
  5  6  1  0  0  0  0
  6  7  1  0  0  0  0
  7  8  1  0  0  0  0
  8  9  1  0  0  0  0
M  END
>  <CHROM.1>
37.59617092,-168.65899745,-173.54021513,68.37850681,61.18003629,29.65065180
15.66598648,20.67035762,0.18362379,0.16419871,1.17840204

>  <Name>
ligand

>  <RI>
0

>  <Rbt.Current_Directory>
/home/itssahil/PROJECTS/Mol_Feturizer/New_Systems/rnas/3DIX

>  <Rbt.Executable>
rbdock ($Id: //depot/dev/client3/rdock/2013.1/src/exe/rbdock.cxx#4 $)

>  <Rbt.Library>
libRbt.so (2013.1, Build901 2013/11/27)

>  <Rbt.Parameter_File>
/export/apps/rDock/src/rDock_2013.1_src/data/scripts/dock_solv.prm

>  <Rbt.Receptor>
prm/blind_docking_80.prm

>  <SCORE>
-8.5867

>  <SCORE.INTER>
-9.96069

>  <SCORE.INTER.CONST>
1

>  <SCORE.INTER.POLAR>
0

>  <SCORE.INTER.ROT>
5

>  <SCORE.INTER.SOLV>
12.7027

>  <SCORE.INTER.VDW>
-17.808

>  <SCORE.INTER.norm>
-0.996069

>  <SCORE.INTRA>
1.37399

>  <SCORE.INTRA.DIHEDRAL>
-0.914054

>  <SCORE.INTRA.DIHEDRAL.0>
3.281

>  <SCORE.INTRA.POLAR>
0

>  <SCORE.INTRA.POLAR.0>
0

>  <SCORE.INTRA.REPUL>
0

>  <SCORE.INTRA.REPUL.0>
0

>  <SCORE.INTRA.SOLV>
0.269322

>  <SCORE.INTRA.SOLV.lig_0>
-31.9458

>  <SCORE.INTRA.VDW>
1.69636

>  <SCORE.INTRA.VDW.0>
-0.672612

>  <SCORE.INTRA.norm>
0.137399

>  <SCORE.RESTR>
0

>  <SCORE.RESTR.CAVITY>
0

>  <SCORE.RESTR.norm>
0

>  <SCORE.SYSTEM>
0

>  <SCORE.SYSTEM.CONST>
0

>  <SCORE.SYSTEM.DIHEDRAL>
0

>  <SCORE.SYSTEM.SOLV>
0

>  <SCORE.SYSTEM.norm>
0

>  <SCORE.heavy>
10

>  <SCORE.norm>
-0.85867

>  <RMSD>
2.246

$$$$
ligand
 OpenBabel11021811473D
libRbt.so/2013.1/901 2013/11/27
 10  9  0  0  0  0  0  0  0  0999 V2000
   31.2751   17.2435   22.0956 N   0  0  0  0  0  0  0  0  0  0  0  0
   30.6329   15.9896   21.6099 C   0  0  2  0  0  0  0  0  0  0  0  0
   31.1767   15.5798   20.2484 C   0  0  0  0  0  0  0  0  0  0  0  0
   32.3514   15.7660   19.9275 O   0  0  0  0  0  0  0  0  0  0  0  0
   29.1137   16.1379   21.5666 C   0  0  0  0  0  0  0  0  0  0  0  0
   28.3970   14.8168   21.4081 C   0  0  0  0  0  0  0  0  0  0  0  0
   26.9219   15.0059   21.1748 C   0  0  0  0  0  0  0  0  0  0  0  0
   26.6676   15.6460   19.8214 C   0  0  0  0  0  0  0  0  0  0  0  0
   27.1830   14.8135   18.7035 N   0  0  0  0  0  0  0  0  0  0  0  0
   30.4526   15.0115   19.4296 O   0  0  0  0  0  0  0  0  0  0  0  0
  2  1  1  6  0  0  0
  2  3  1  0  0  0  0
  2  5  1  0  0  0  0
  3  4  1  0  0  0  0
  3 10  1  0  0  0  0
  5  6  1  0  0  0  0
  6  7  1  0  0  0  0
  7  8  1  0  0  0  0
  8  9  1  0  0  0  0
M  END
>  <CHROM.1>
34.78484475,-166.08586489,-171.99738515,67.84496040,60.44536371,29.43892389
15.59252691,20.57065684,0.22401265,0.14024021,1.17103210

>  <Name>
ligand

>  <RI>
0

>  <Rbt.Current_Directory>
/home/itssahil/PROJECTS/Mol_Feturizer/New_Systems/rnas/3DIX

>  <Rbt.Executable>
rbdock ($Id: //depot/dev/client3/rdock/2013.1/src/exe/rbdock.cxx#4 $)

>  <Rbt.Library>
libRbt.so (2013.1, Build901 2013/11/27)

>  <Rbt.Parameter_File>
/export/apps/rDock/src/rDock_2013.1_src/data/scripts/dock_solv.prm

>  <Rbt.Receptor>
prm/pocket_docking_8.prm

>  <SCORE>
-8.64981

>  <SCORE.INTER>
-10.0264

>  <SCORE.INTER.CONST>
1

>  <SCORE.INTER.POLAR>
0

>  <SCORE.INTER.ROT>
5

>  <SCORE.INTER.SOLV>
13.373

>  <SCORE.INTER.VDW>
-18.0753

>  <SCORE.INTER.norm>
-1.00264

>  <SCORE.INTRA>
1.37662

>  <SCORE.INTRA.DIHEDRAL>
-0.630209

>  <SCORE.INTRA.DIHEDRAL.0>
3.281

>  <SCORE.INTRA.POLAR>
0

>  <SCORE.INTRA.POLAR.0>
0

>  <SCORE.INTRA.REPUL>
0

>  <SCORE.INTRA.REPUL.0>
0

>  <SCORE.INTRA.SOLV>
0.328223

>  <SCORE.INTRA.SOLV.lig_0>
-31.9458

>  <SCORE.INTRA.VDW>
1.52761

>  <SCORE.INTRA.VDW.0>
-0.672612

>  <SCORE.INTRA.norm>
0.137662

>  <SCORE.RESTR>
0

>  <SCORE.RESTR.CAVITY>
0

>  <SCORE.RESTR.norm>
0

>  <SCORE.SYSTEM>
0

>  <SCORE.SYSTEM.CONST>
0

>  <SCORE.SYSTEM.DIHEDRAL>
0

>  <SCORE.SYSTEM.SOLV>
0

>  <SCORE.SYSTEM.norm>
0

>  <SCORE.heavy>
10

>  <SCORE.norm>
-0.864981

>  <RMSD>
2.357

$$$$
ligand
 OpenBabel11021811473D
libRbt.so/2013.1/901 2013/11/27
 10  9  0  0  0  0  0  0  0  0999 V2000
   29.2456   15.5216   21.8487 N   0  0  0  0  0  0  0  0  0  0  0  0
   29.7929   16.3326   20.7247 C   0  0  2  0  0  0  0  0  0  0  0  0
   30.8200   17.3419   21.2183 C   0  0  0  0  0  0  0  0  0  0  0  0
   30.6336   18.0307   22.2225 O   0  0  0  0  0  0  0  0  0  0  0  0
   28.6700   17.0292   19.9593 C   0  0  0  0  0  0  0  0  0  0  0  0
   27.7339   16.0600   19.2751 C   0  0  0  0  0  0  0  0  0  0  0  0
   28.4386   15.2571   18.2144 C   0  0  0  0  0  0  0  0  0  0  0  0
   27.4506   14.4038   17.4386 C   0  0  0  0  0  0  0  0  0  0  0  0
   26.8398   13.3461   18.2853 N   0  0  0  0  0  0  0  0  0  0  0  0
   31.8973   17.4754   20.6359 O   0  0  0  0  0  0  0  0  0  0  0  0
  2  1  1  1  0  0  0
  2  3  1  0  0  0  0
  2  5  1  0  0  0  0
  3  4  1  0  0  0  0
  3 10  1  0  0  0  0
  5  6  1  0  0  0  0
  6  7  1  0  0  0  0
  7  8  1  0  0  0  0
  8  9  1  0  0  0  0
M  END
>  <CHROM.1>
-44.70149053,-64.24539704,-63.68474119,-173.73753431,-66.32808593,29.18321992
16.10725282,19.99974770,0.66470682,0.68895292,1.50550967

>  <Name>
ligand

>  <RI>
0

>  <Rbt.Current_Directory>
/home/itssahil/PROJECTS/Mol_Feturizer/New_Systems/rnas/3DIX

>  <Rbt.Executable>
rbdock ($Id: //depot/dev/client3/rdock/2013.1/src/exe/rbdock.cxx#4 $)

>  <Rbt.Library>
libRbt.so (2013.1, Build901 2013/11/27)

>  <Rbt.Parameter_File>
/export/apps/rDock/src/rDock_2013.1_src/data/scripts/dock_solv.prm

>  <Rbt.Receptor>
prm/pocket_docking_3.prm

>  <SCORE>
-5.17909

>  <SCORE.INTER>
-5.12703

>  <SCORE.INTER.CONST>
1

>  <SCORE.INTER.POLAR>
0

>  <SCORE.INTER.ROT>
5

>  <SCORE.INTER.SOLV>
15.0462

>  <SCORE.INTER.VDW>
-15.3667

>  <SCORE.INTER.norm>
-0.512703

>  <SCORE.INTRA>
-0.0520564

>  <SCORE.INTRA.DIHEDRAL>
-1.29536

>  <SCORE.INTRA.DIHEDRAL.0>
3.281

>  <SCORE.INTRA.POLAR>
0

>  <SCORE.INTRA.POLAR.0>
0

>  <SCORE.INTRA.REPUL>
0

>  <SCORE.INTRA.REPUL.0>
0

>  <SCORE.INTRA.SOLV>
0.700651

>  <SCORE.INTRA.SOLV.lig_0>
-31.9458

>  <SCORE.INTRA.VDW>
0.2453

>  <SCORE.INTRA.VDW.0>
-0.672612

>  <SCORE.INTRA.norm>
-0.00520564

>  <SCORE.RESTR>
0

>  <SCORE.RESTR.CAVITY>
0

>  <SCORE.RESTR.norm>
0

>  <SCORE.SYSTEM>
0

>  <SCORE.SYSTEM.CONST>
0

>  <SCORE.SYSTEM.DIHEDRAL>
0

>  <SCORE.SYSTEM.SOLV>
0

>  <SCORE.SYSTEM.norm>
0

>  <SCORE.heavy>
10

>  <SCORE.norm>
-0.517909

>  <RMSD>
2.397

$$$$
ligand
 OpenBabel11021811473D
libRbt.so/2013.1/901 2013/11/27
 10  9  0  0  0  0  0  0  0  0999 V2000
   29.0891   15.7602   22.2068 N   0  0  0  0  0  0  0  0  0  0  0  0
   29.6661   15.5293   20.8524 C   0  0  2  0  0  0  0  0  0  0  0  0
   31.1731   15.7434   20.8482 C   0  0  0  0  0  0  0  0  0  0  0  0
   31.7855   16.1212   21.8483 O   0  0  0  0  0  0  0  0  0  0  0  0
   28.9875   16.4188   19.8131 C   0  0  0  0  0  0  0  0  0  0  0  0
   27.4921   16.2112   19.7462 C   0  0  0  0  0  0  0  0  0  0  0  0
   27.1405   14.7913   19.3903 C   0  0  0  0  0  0  0  0  0  0  0  0
   27.3586   14.5368   17.9092 C   0  0  0  0  0  0  0  0  0  0  0  0
   28.8011   14.5150   17.5521 N   0  0  0  0  0  0  0  0  0  0  0  0
   31.8366   15.5089   19.8370 O   0  0  0  0  0  0  0  0  0  0  0  0
  2  1  1  1  0  0  0
  2  3  1  0  0  0  0
  2  5  1  0  0  0  0
  3  4  1  0  0  0  0
  3 10  1  0  0  0  0
  5  6  1  0  0  0  0
  6  7  1  0  0  0  0
  7  8  1  0  0  0  0
  8  9  1  0  0  0  0
M  END
>  <CHROM.1>
-3.13833988,-57.64371761,-59.85446852,-76.15662642,70.46229916,29.37373274
15.51875071,20.00574985,0.67221120,-0.00577218,1.23184301

>  <Name>
ligand

>  <RI>
0

>  <Rbt.Current_Directory>
/home/itssahil/PROJECTS/Mol_Feturizer/New_Systems/rnas/3DIX

>  <Rbt.Executable>
rbdock ($Id: //depot/dev/client3/rdock/2013.1/src/exe/rbdock.cxx#4 $)

>  <Rbt.Library>
libRbt.so (2013.1, Build901 2013/11/27)

>  <Rbt.Parameter_File>
/export/apps/rDock/src/rDock_2013.1_src/data/scripts/dock_solv.prm

>  <Rbt.Receptor>
prm/blind_docking_100.prm

>  <SCORE>
-5.84226

>  <SCORE.INTER>
-8.12446

>  <SCORE.INTER.CONST>
1

>  <SCORE.INTER.POLAR>
0

>  <SCORE.INTER.ROT>
5

>  <SCORE.INTER.SOLV>
14.246

>  <SCORE.INTER.VDW>
-17.0983

>  <SCORE.INTER.norm>
-0.812446

>  <SCORE.INTRA>
2.2822

>  <SCORE.INTRA.DIHEDRAL>
-0.321059

>  <SCORE.INTRA.DIHEDRAL.0>
3.281

>  <SCORE.INTRA.POLAR>
0

>  <SCORE.INTRA.POLAR.0>
0

>  <SCORE.INTRA.REPUL>
0

>  <SCORE.INTRA.REPUL.0>
0

>  <SCORE.INTRA.SOLV>
2.80797

>  <SCORE.INTRA.SOLV.lig_0>
-31.9458

>  <SCORE.INTRA.VDW>
1.03875

>  <SCORE.INTRA.VDW.0>
-0.672612

>  <SCORE.INTRA.norm>
0.22822

>  <SCORE.RESTR>
0

>  <SCORE.RESTR.CAVITY>
0

>  <SCORE.RESTR.norm>
0

>  <SCORE.SYSTEM>
0

>  <SCORE.SYSTEM.CONST>
0

>  <SCORE.SYSTEM.DIHEDRAL>
0

>  <SCORE.SYSTEM.SOLV>
0

>  <SCORE.SYSTEM.norm>
0

>  <SCORE.heavy>
10

>  <SCORE.norm>
-0.584226

>  <RMSD>
2.581

$$$$
ligand
 OpenBabel11021811473D
libRbt.so/2013.1/901 2013/11/27
 10  9  0  0  0  0  0  0  0  0999 V2000
   29.1969   15.0341   21.6652 N   0  0  0  0  0  0  0  0  0  0  0  0
   29.8985   15.4264   20.4104 C   0  0  2  0  0  0  0  0  0  0  0  0
   31.2111   16.1373   20.7084 C   0  0  0  0  0  0  0  0  0  0  0  0
   31.8955   16.6510   19.8221 O   0  0  0  0  0  0  0  0  0  0  0  0
   28.9983   16.2920   19.5316 C   0  0  0  0  0  0  0  0  0  0  0  0
   27.8082   15.5383   18.9846 C   0  0  0  0  0  0  0  0  0  0  0  0
   28.2296   14.3654   18.1402 C   0  0  0  0  0  0  0  0  0  0  0  0
   27.0214   13.5627   17.6908 C   0  0  0  0  0  0  0  0  0  0  0  0
   27.4103   12.2897   17.0299 N   0  0  0  0  0  0  0  0  0  0  0  0
   31.6143   16.2489   21.8672 O   0  0  0  0  0  0  0  0  0  0  0  0
  2  1  1  1  0  0  0
  2  3  1  0  0  0  0
  2  5  1  0  0  0  0
  3  4  1  0  0  0  0
  3 10  1  0  0  0  0
  5  6  1  0  0  0  0
  6  7  1  0  0  0  0
  7  8  1  0  0  0  0
  8  9  1  0  0  0  0
M  END
>  <CHROM.1>
-173.52554453,-67.00413170,-59.91922939,175.64091552,-171.43363074,29.36557665
15.17522182,19.59836071,0.70886079,0.52214964,1.40222863

>  <Name>
ligand

>  <RI>
0

>  <Rbt.Current_Directory>
/home/itssahil/PROJECTS/Mol_Feturizer/New_Systems/rnas/3DIX

>  <Rbt.Executable>
rbdock ($Id: //depot/dev/client3/rdock/2013.1/src/exe/rbdock.cxx#4 $)

>  <Rbt.Library>
libRbt.so (2013.1, Build901 2013/11/27)

>  <Rbt.Parameter_File>
/export/apps/rDock/src/rDock_2013.1_src/data/scripts/dock_solv.prm

>  <Rbt.Receptor>
prm/blind_docking_100.prm

>  <SCORE>
-6.85381

>  <SCORE.INTER>
-6.72837

>  <SCORE.INTER.CONST>
1

>  <SCORE.INTER.POLAR>
0

>  <SCORE.INTER.ROT>
5

>  <SCORE.INTER.SOLV>
15.7252

>  <SCORE.INTER.VDW>
-16.6606

>  <SCORE.INTER.norm>
-0.672837

>  <SCORE.INTRA>
-0.125445

>  <SCORE.INTRA.DIHEDRAL>
-1.21407

>  <SCORE.INTRA.DIHEDRAL.0>
3.281

>  <SCORE.INTRA.POLAR>
0

>  <SCORE.INTRA.POLAR.0>
0

>  <SCORE.INTRA.REPUL>
0

>  <SCORE.INTRA.REPUL.0>
0

>  <SCORE.INTRA.SOLV>
-0.157972

>  <SCORE.INTRA.SOLV.lig_0>
-31.9458

>  <SCORE.INTRA.VDW>
0.560575

>  <SCORE.INTRA.VDW.0>
-0.672612

>  <SCORE.INTRA.norm>
-0.0125445

>  <SCORE.RESTR>
0

>  <SCORE.RESTR.CAVITY>
0

>  <SCORE.RESTR.norm>
0

>  <SCORE.SYSTEM>
0

>  <SCORE.SYSTEM.CONST>
0

>  <SCORE.SYSTEM.DIHEDRAL>
0

>  <SCORE.SYSTEM.SOLV>
0

>  <SCORE.SYSTEM.norm>
0

>  <SCORE.heavy>
10

>  <SCORE.norm>
-0.685381

>  <RMSD>
2.681

$$$$
ligand
 OpenBabel11021811473D
libRbt.so/2013.1/901 2013/11/27
 10  9  0  0  0  0  0  0  0  0999 V2000
   28.7992   15.7793   22.2237 N   0  0  0  0  0  0  0  0  0  0  0  0
   29.4685   15.4827   20.9257 C   0  0  2  0  0  0  0  0  0  0  0  0
   30.9769   15.6608   21.0265 C   0  0  0  0  0  0  0  0  0  0  0  0
   31.5329   15.9653   22.0828 O   0  0  0  0  0  0  0  0  0  0  0  0
   28.8924   16.3472   19.8065 C   0  0  0  0  0  0  0  0  0  0  0  0
   27.4038   16.1603   19.6246 C   0  0  0  0  0  0  0  0  0  0  0  0
   27.0620   14.7484   19.2298 C   0  0  0  0  0  0  0  0  0  0  0  0
   27.5211   14.4589   17.8115 C   0  0  0  0  0  0  0  0  0  0  0  0
   27.1845   13.0753   17.3863 N   0  0  0  0  0  0  0  0  0  0  0  0
   31.6974   15.4695   20.0457 O   0  0  0  0  0  0  0  0  0  0  0  0
  2  1  1  1  0  0  0
  2  3  1  0  0  0  0
  2  5  1  0  0  0  0
  3  4  1  0  0  0  0
  3 10  1  0  0  0  0
  5  6  1  0  0  0  0
  6  7  1  0  0  0  0
  7  8  1  0  0  0  0
  8  9  1  0  0  0  0
M  END
>  <CHROM.1>
2.43484925,-58.32396555,-62.27909202,-70.23214843,-179.37896557,29.09535593
15.32013272,20.02475676,0.76239149,-0.08859273,1.02998567

>  <Name>
ligand

>  <RI>
0

>  <Rbt.Current_Directory>
/home/itssahil/PROJECTS/Mol_Feturizer/New_Systems/rnas/3DIX

>  <Rbt.Executable>
rbdock ($Id: //depot/dev/client3/rdock/2013.1/src/exe/rbdock.cxx#4 $)

>  <Rbt.Library>
libRbt.so (2013.1, Build901 2013/11/27)

>  <Rbt.Parameter_File>
/export/apps/rDock/src/rDock_2013.1_src/data/scripts/dock_solv.prm

>  <Rbt.Receptor>
prm/pocket_docking_4.prm

>  <SCORE>
-7.27125

>  <SCORE.INTER>
-7.82503

>  <SCORE.INTER.CONST>
1

>  <SCORE.INTER.POLAR>
0

>  <SCORE.INTER.ROT>
5

>  <SCORE.INTER.SOLV>
16.8235

>  <SCORE.INTER.VDW>
-17.7578

>  <SCORE.INTER.norm>
-0.782503

>  <SCORE.INTRA>
0.553781

>  <SCORE.INTRA.DIHEDRAL>
-1.33343

>  <SCORE.INTRA.DIHEDRAL.0>
3.281

>  <SCORE.INTRA.POLAR>
0

>  <SCORE.INTRA.POLAR.0>
0

>  <SCORE.INTRA.REPUL>
0

>  <SCORE.INTRA.REPUL.0>
0

>  <SCORE.INTRA.SOLV>
0.218987

>  <SCORE.INTRA.SOLV.lig_0>
-31.9458

>  <SCORE.INTRA.VDW>
1.111

>  <SCORE.INTRA.VDW.0>
-0.672612

>  <SCORE.INTRA.norm>
0.0553781

>  <SCORE.RESTR>
0

>  <SCORE.RESTR.CAVITY>
0

>  <SCORE.RESTR.norm>
0

>  <SCORE.SYSTEM>
0

>  <SCORE.SYSTEM.CONST>
0

>  <SCORE.SYSTEM.DIHEDRAL>
0

>  <SCORE.SYSTEM.SOLV>
0

>  <SCORE.SYSTEM.norm>
0

>  <SCORE.heavy>
10

>  <SCORE.norm>
-0.727125

>  <RMSD>
2.683

$$$$
ligand
 OpenBabel11021811473D
libRbt.so/2013.1/901 2013/11/27
 10  9  0  0  0  0  0  0  0  0999 V2000
   29.0502   17.3057   20.3460 N   0  0  0  0  0  0  0  0  0  0  0  0
   29.1130   16.3919   21.5214 C   0  0  2  0  0  0  0  0  0  0  0  0
   30.4467   15.6608   21.5844 C   0  0  0  0  0  0  0  0  0  0  0  0
   30.8805   15.0035   20.6370 O   0  0  0  0  0  0  0  0  0  0  0  0
   27.9504   15.4020   21.5037 C   0  0  0  0  0  0  0  0  0  0  0  0
   27.9338   14.5348   20.2661 C   0  0  0  0  0  0  0  0  0  0  0  0
   27.4815   15.3019   19.0524 C   0  0  0  0  0  0  0  0  0  0  0  0
   27.6897   14.4847   17.7895 C   0  0  0  0  0  0  0  0  0  0  0  0
   26.8970   13.2277   17.7998 N   0  0  0  0  0  0  0  0  0  0  0  0
   31.1553   15.7352   22.5894 O   0  0  0  0  0  0  0  0  0  0  0  0
  2  1  1  6  0  0  0
  2  3  1  0  0  0  0
  2  5  1  0  0  0  0
  3  4  1  0  0  0  0
  3 10  1  0  0  0  0
  5  6  1  0  0  0  0
  6  7  1  0  0  0  0
  7  8  1  0  0  0  0
  8  9  1  0  0  0  0
M  END
>  <CHROM.1>
-54.41236937,59.75923869,-73.92126752,170.64901077,61.75289277,28.89592249
15.29377533,20.31890863,0.78749532,-0.47569350,0.68705297

>  <Name>
ligand

>  <RI>
0

>  <Rbt.Current_Directory>
/home/itssahil/PROJECTS/Mol_Feturizer/New_Systems/rnas/3DIX

>  <Rbt.Executable>
rbdock ($Id: //depot/dev/client3/rdock/2013.1/src/exe/rbdock.cxx#4 $)

>  <Rbt.Library>
libRbt.so (2013.1, Build901 2013/11/27)

>  <Rbt.Parameter_File>
/export/apps/rDock/src/rDock_2013.1_src/data/scripts/dock_solv.prm

>  <Rbt.Receptor>
prm/blind_docking_100.prm

>  <SCORE>
-6.58415

>  <SCORE.INTER>
-7.9034

>  <SCORE.INTER.CONST>
1

>  <SCORE.INTER.POLAR>
0

>  <SCORE.INTER.ROT>
5

>  <SCORE.INTER.SOLV>
17.43

>  <SCORE.INTER.VDW>
-18.0123

>  <SCORE.INTER.norm>
-0.79034

>  <SCORE.INTRA>
1.31925

>  <SCORE.INTRA.DIHEDRAL>
-0.626389

>  <SCORE.INTRA.DIHEDRAL.0>
3.281

>  <SCORE.INTRA.POLAR>
0

>  <SCORE.INTRA.POLAR.0>
0

>  <SCORE.INTRA.REPUL>
0

>  <SCORE.INTRA.REPUL.0>
0

>  <SCORE.INTRA.SOLV>
1.8752

>  <SCORE.INTRA.SOLV.lig_0>
-31.9458

>  <SCORE.INTRA.VDW>
0.694843

>  <SCORE.INTRA.VDW.0>
-0.672612

>  <SCORE.INTRA.norm>
0.131925

>  <SCORE.RESTR>
0

>  <SCORE.RESTR.CAVITY>
0

>  <SCORE.RESTR.norm>
0

>  <SCORE.SYSTEM>
0

>  <SCORE.SYSTEM.CONST>
0

>  <SCORE.SYSTEM.DIHEDRAL>
0

>  <SCORE.SYSTEM.SOLV>
0

>  <SCORE.SYSTEM.norm>
0

>  <SCORE.heavy>
10

>  <SCORE.norm>
-0.658415

>  <RMSD>
2.721

$$$$
ligand
 OpenBabel11021811473D
libRbt.so/2013.1/901 2013/11/27
 10  9  0  0  0  0  0  0  0  0999 V2000
   28.9508   14.4499   21.9720 N   0  0  0  0  0  0  0  0  0  0  0  0
   29.4573   15.5507   21.1045 C   0  0  2  0  0  0  0  0  0  0  0  0
   30.4332   16.4446   21.8566 C   0  0  0  0  0  0  0  0  0  0  0  0
   31.3844   15.9887   22.4931 O   0  0  0  0  0  0  0  0  0  0  0  0
   28.3014   16.3680   20.5321 C   0  0  0  0  0  0  0  0  0  0  0  0
   27.4566   15.5874   19.5518 C   0  0  0  0  0  0  0  0  0  0  0  0
   28.2691   15.0908   18.3858 C   0  0  0  0  0  0  0  0  0  0  0  0
   27.3901   14.3527   17.3915 C   0  0  0  0  0  0  0  0  0  0  0  0
   26.8545   13.0849   17.9523 N   0  0  0  0  0  0  0  0  0  0  0  0
   30.3153   17.6704   21.8209 O   0  0  0  0  0  0  0  0  0  0  0  0
  2  1  1  1  0  0  0
  2  3  1  0  0  0  0
  2  5  1  0  0  0  0
  3  4  1  0  0  0  0
  3 10  1  0  0  0  0
  5  6  1  0  0  0  0
  6  7  1  0  0  0  0
  7  8  1  0  0  0  0
  8  9  1  0  0  0  0
M  END
>  <CHROM.1>
50.07949900,-67.24898865,-59.07413076,-178.00088295,-66.96239328,28.91029353
15.48287423,20.33003633,-0.19244337,0.95225704,2.85643454

>  <Name>
ligand

>  <RI>
0

>  <Rbt.Current_Directory>
/home/itssahil/PROJECTS/Mol_Feturizer/New_Systems/rnas/3DIX

>  <Rbt.Executable>
rbdock ($Id: //depot/dev/client3/rdock/2013.1/src/exe/rbdock.cxx#4 $)

>  <Rbt.Library>
libRbt.so (2013.1, Build901 2013/11/27)

>  <Rbt.Parameter_File>
/export/apps/rDock/src/rDock_2013.1_src/data/scripts/dock_solv.prm

>  <Rbt.Receptor>
prm/blind_docking_80.prm

>  <SCORE>
-4.7096

>  <SCORE.INTER>
-5.60858

>  <SCORE.INTER.CONST>
1

>  <SCORE.INTER.POLAR>
0

>  <SCORE.INTER.ROT>
5

>  <SCORE.INTER.SOLV>
18.4569

>  <SCORE.INTER.VDW>
-16.8247

>  <SCORE.INTER.norm>
-0.560858

>  <SCORE.INTRA>
0.898981

>  <SCORE.INTRA.DIHEDRAL>
-1.40678

>  <SCORE.INTRA.DIHEDRAL.0>
3.281

>  <SCORE.INTRA.POLAR>
0

>  <SCORE.INTRA.POLAR.0>
0

>  <SCORE.INTRA.REPUL>
0

>  <SCORE.INTRA.REPUL.0>
0

>  <SCORE.INTRA.SOLV>
0.6954

>  <SCORE.INTRA.SOLV.lig_0>
-31.9458

>  <SCORE.INTRA.VDW>
1.25467

>  <SCORE.INTRA.VDW.0>
-0.672612

>  <SCORE.INTRA.norm>
0.0898981

>  <SCORE.RESTR>
0

>  <SCORE.RESTR.CAVITY>
0

>  <SCORE.RESTR.norm>
0

>  <SCORE.SYSTEM>
0

>  <SCORE.SYSTEM.CONST>
0

>  <SCORE.SYSTEM.DIHEDRAL>
0

>  <SCORE.SYSTEM.SOLV>
0

>  <SCORE.SYSTEM.norm>
0

>  <SCORE.heavy>
10

>  <SCORE.norm>
-0.47096

>  <RMSD>
2.728

$$$$
ligand
 OpenBabel11021811473D
libRbt.so/2013.1/901 2013/11/27
 10  9  0  0  0  0  0  0  0  0999 V2000
   29.5214   16.3073   22.3737 N   0  0  0  0  0  0  0  0  0  0  0  0
   29.3608   15.8289   20.9716 C   0  0  2  0  0  0  0  0  0  0  0  0
   30.6045   16.1162   20.1421 C   0  0  0  0  0  0  0  0  0  0  0  0
   31.1797   15.2392   19.4959 O   0  0  0  0  0  0  0  0  0  0  0  0
   28.1218   16.4445   20.3253 C   0  0  0  0  0  0  0  0  0  0  0  0
   27.8707   15.9316   18.9261 C   0  0  0  0  0  0  0  0  0  0  0  0
   27.4187   14.4956   18.9302 C   0  0  0  0  0  0  0  0  0  0  0  0
   27.3080   13.9611   17.5131 C   0  0  0  0  0  0  0  0  0  0  0  0
   26.8372   12.5519   17.4822 N   0  0  0  0  0  0  0  0  0  0  0  0
   31.0574   17.2595   20.0671 O   0  0  0  0  0  0  0  0  0  0  0  0
  2  1  1  1  0  0  0
  2  3  1  0  0  0  0
  2  5  1  0  0  0  0
  3  4  1  0  0  0  0
  3 10  1  0  0  0  0
  5  6  1  0  0  0  0
  6  7  1  0  0  0  0
  7  8  1  0  0  0  0
  8  9  1  0  0  0  0
M  END
>  <CHROM.1>
127.31669599,-176.81154280,70.40777177,-174.29084805,-178.86385907,28.96243938
15.42422094,19.61003322,0.88002533,0.19680955,0.95674664

>  <Name>
ligand

>  <RI>
0

>  <Rbt.Current_Directory>
/home/itssahil/PROJECTS/Mol_Feturizer/New_Systems/rnas/3DIX

>  <Rbt.Executable>
rbdock ($Id: //depot/dev/client3/rdock/2013.1/src/exe/rbdock.cxx#4 $)

>  <Rbt.Library>
libRbt.so (2013.1, Build901 2013/11/27)

>  <Rbt.Parameter_File>
/export/apps/rDock/src/rDock_2013.1_src/data/scripts/dock_solv.prm

>  <Rbt.Receptor>
prm/pocket_docking_6.prm

>  <SCORE>
-6.88289

>  <SCORE.INTER>
-5.67257

>  <SCORE.INTER.CONST>
1

>  <SCORE.INTER.POLAR>
0

>  <SCORE.INTER.ROT>
5

>  <SCORE.INTER.SOLV>
17.3605

>  <SCORE.INTER.VDW>
-16.5019

>  <SCORE.INTER.norm>
-0.567257

>  <SCORE.INTRA>
-1.21031

>  <SCORE.INTRA.DIHEDRAL>
-1.19279

>  <SCORE.INTRA.DIHEDRAL.0>
3.281

>  <SCORE.INTRA.POLAR>
0

>  <SCORE.INTRA.POLAR.0>
0

>  <SCORE.INTRA.REPUL>
0

>  <SCORE.INTRA.REPUL.0>
0

>  <SCORE.INTRA.SOLV>
-1.34582

>  <SCORE.INTRA.SOLV.lig_0>
-31.9458

>  <SCORE.INTRA.VDW>
0.0589898

>  <SCORE.INTRA.VDW.0>
-0.672612

>  <SCORE.INTRA.norm>
-0.121031

>  <SCORE.RESTR>
0

>  <SCORE.RESTR.CAVITY>
0

>  <SCORE.RESTR.norm>
0

>  <SCORE.SYSTEM>
0

>  <SCORE.SYSTEM.CONST>
0

>  <SCORE.SYSTEM.DIHEDRAL>
0

>  <SCORE.SYSTEM.SOLV>
0

>  <SCORE.SYSTEM.norm>
0

>  <SCORE.heavy>
10

>  <SCORE.norm>
-0.688289

>  <RMSD>
2.872

$$$$
ligand
 OpenBabel11021811473D
libRbt.so/2013.1/901 2013/11/27
 10  9  0  0  0  0  0  0  0  0999 V2000
   29.5136   16.2286   22.3108 N   0  0  0  0  0  0  0  0  0  0  0  0
   29.3690   15.8093   20.8881 C   0  0  2  0  0  0  0  0  0  0  0  0
   30.6002   16.1797   20.0733 C   0  0  0  0  0  0  0  0  0  0  0  0
   30.9938   17.3425   19.9700 O   0  0  0  0  0  0  0  0  0  0  0  0
   28.1074   16.4078   20.2701 C   0  0  0  0  0  0  0  0  0  0  0  0
   27.8223   15.8785   18.8836 C   0  0  0  0  0  0  0  0  0  0  0  0
   27.4259   14.4264   18.9106 C   0  0  0  0  0  0  0  0  0  0  0  0
   27.2180   13.8980   17.5022 C   0  0  0  0  0  0  0  0  0  0  0  0
   26.8113   12.4686   17.4957 N   0  0  0  0  0  0  0  0  0  0  0  0
   31.2664   15.3079   19.5129 O   0  0  0  0  0  0  0  0  0  0  0  0
  2  1  1  1  0  0  0
  2  3  1  0  0  0  0
  2  5  1  0  0  0  0
  3  4  1  0  0  0  0
  3 10  1  0  0  0  0
  5  6  1  0  0  0  0
  6  7  1  0  0  0  0
  7  8  1  0  0  0  0
  8  9  1  0  0  0  0
M  END
>  <CHROM.1>
-58.59659582,-172.89430789,68.56664257,-176.92869497,-179.39802154,28.94762035
15.40686504,19.56973986,0.85999565,0.22843528,0.95767771

>  <Name>
ligand

>  <RI>
0

>  <Rbt.Current_Directory>
/home/itssahil/PROJECTS/Mol_Feturizer/New_Systems/rnas/3DIX

>  <Rbt.Executable>
rbdock ($Id: //depot/dev/client3/rdock/2013.1/src/exe/rbdock.cxx#4 $)

>  <Rbt.Library>
libRbt.so (2013.1, Build901 2013/11/27)

>  <Rbt.Parameter_File>
/export/apps/rDock/src/rDock_2013.1_src/data/scripts/dock_solv.prm

>  <Rbt.Receptor>
prm/blind_docking_80.prm

>  <SCORE>
-6.94534

>  <SCORE.INTER>
-5.69325

>  <SCORE.INTER.CONST>
1

>  <SCORE.INTER.POLAR>
0

>  <SCORE.INTER.ROT>
5

>  <SCORE.INTER.SOLV>
17.1144

>  <SCORE.INTER.VDW>
-16.4336

>  <SCORE.INTER.norm>
-0.569325

>  <SCORE.INTRA>
-1.25209

>  <SCORE.INTRA.DIHEDRAL>
-1.26377

>  <SCORE.INTRA.DIHEDRAL.0>
3.281

>  <SCORE.INTRA.POLAR>
0

>  <SCORE.INTRA.POLAR.0>
0

>  <SCORE.INTRA.REPUL>
0

>  <SCORE.INTRA.REPUL.0>
0

>  <SCORE.INTRA.SOLV>
-1.30339

>  <SCORE.INTRA.SOLV.lig_0>
-31.9458

>  <SCORE.INTRA.VDW>
0.0314943

>  <SCORE.INTRA.VDW.0>
-0.672612

>  <SCORE.INTRA.norm>
-0.125209

>  <SCORE.RESTR>
0

>  <SCORE.RESTR.CAVITY>
0

>  <SCORE.RESTR.norm>
0

>  <SCORE.SYSTEM>
0

>  <SCORE.SYSTEM.CONST>
0

>  <SCORE.SYSTEM.DIHEDRAL>
0

>  <SCORE.SYSTEM.SOLV>
0

>  <SCORE.SYSTEM.norm>
0

>  <SCORE.heavy>
10

>  <SCORE.norm>
-0.694534

>  <RMSD>
2.877

$$$$
ligand
 OpenBabel11021811473D
libRbt.so/2013.1/901 2013/11/27
 10  9  0  0  0  0  0  0  0  0999 V2000
   28.5884   15.4803   21.4188 N   0  0  0  0  0  0  0  0  0  0  0  0
   29.3018   15.8176   20.1547 C   0  0  2  0  0  0  0  0  0  0  0  0
   30.4274   16.8120   20.4020 C   0  0  0  0  0  0  0  0  0  0  0  0
   31.5685   16.6319   19.9739 O   0  0  0  0  0  0  0  0  0  0  0  0
   28.3277   16.3485   19.1053 C   0  0  0  0  0  0  0  0  0  0  0  0
   27.3059   15.3209   18.6767 C   0  0  0  0  0  0  0  0  0  0  0  0
   27.9465   14.1580   17.9671 C   0  0  0  0  0  0  0  0  0  0  0  0
   26.8939   13.1812   17.4734 C   0  0  0  0  0  0  0  0  0  0  0  0
   27.4961   11.9268   16.9516 N   0  0  0  0  0  0  0  0  0  0  0  0
   30.2160   17.8572   21.0190 O   0  0  0  0  0  0  0  0  0  0  0  0
  2  1  1  1  0  0  0
  2  3  1  0  0  0  0
  2  5  1  0  0  0  0
  3  4  1  0  0  0  0
  3 10  1  0  0  0  0
  5  6  1  0  0  0  0
  6  7  1  0  0  0  0
  7  8  1  0  0  0  0
  8  9  1  0  0  0  0
M  END
>  <CHROM.1>
130.42900835,-64.09832342,-65.04009054,-176.59942919,-171.40106189,28.83904197
15.38261729,19.32580498,1.01593658,0.13793086,0.76235881

>  <Name>
ligand

>  <RI>
0

>  <Rbt.Current_Directory>
/home/itssahil/PROJECTS/Mol_Feturizer/New_Systems/rnas/3DIX

>  <Rbt.Executable>
rbdock ($Id: //depot/dev/client3/rdock/2013.1/src/exe/rbdock.cxx#4 $)

>  <Rbt.Library>
libRbt.so (2013.1, Build901 2013/11/27)

>  <Rbt.Parameter_File>
/export/apps/rDock/src/rDock_2013.1_src/data/scripts/dock_solv.prm

>  <Rbt.Receptor>
prm/pocket_docking_4.prm

>  <SCORE>
-8.31143

>  <SCORE.INTER>
-7.71535

>  <SCORE.INTER.CONST>
1

>  <SCORE.INTER.POLAR>
0

>  <SCORE.INTER.ROT>
5

>  <SCORE.INTER.SOLV>
14.9108

>  <SCORE.INTER.VDW>
-17.0472

>  <SCORE.INTER.norm>
-0.771535

>  <SCORE.INTRA>
-0.596081

>  <SCORE.INTRA.DIHEDRAL>
-1.31651

>  <SCORE.INTRA.DIHEDRAL.0>
3.281

>  <SCORE.INTRA.POLAR>
0

>  <SCORE.INTRA.POLAR.0>
0

>  <SCORE.INTRA.REPUL>
0

>  <SCORE.INTRA.REPUL.0>
0

>  <SCORE.INTRA.SOLV>
-0.19022

>  <SCORE.INTRA.SOLV.lig_0>
-31.9458

>  <SCORE.INTRA.VDW>
0.157286

>  <SCORE.INTRA.VDW.0>
-0.672612

>  <SCORE.INTRA.norm>
-0.0596081

>  <SCORE.RESTR>
0

>  <SCORE.RESTR.CAVITY>
0

>  <SCORE.RESTR.norm>
0

>  <SCORE.SYSTEM>
0

>  <SCORE.SYSTEM.CONST>
0

>  <SCORE.SYSTEM.DIHEDRAL>
0

>  <SCORE.SYSTEM.SOLV>
0

>  <SCORE.SYSTEM.norm>
0

>  <SCORE.heavy>
10

>  <SCORE.norm>
-0.831143

>  <RMSD>
3.056

$$$$
ligand
 OpenBabel11021811473D
libRbt.so/2013.1/901 2013/11/27
 10  9  0  0  0  0  0  0  0  0999 V2000
   28.5605   15.4547   21.3444 N   0  0  0  0  0  0  0  0  0  0  0  0
   29.2996   15.8302   20.1061 C   0  0  2  0  0  0  0  0  0  0  0  0
   30.3740   16.8690   20.3955 C   0  0  0  0  0  0  0  0  0  0  0  0
   31.4623   16.8662   19.8184 O   0  0  0  0  0  0  0  0  0  0  0  0
   28.3385   16.3274   19.0286 C   0  0  0  0  0  0  0  0  0  0  0  0
   27.3092   15.2934   18.6346 C   0  0  0  0  0  0  0  0  0  0  0  0
   27.9356   14.1245   17.9222 C   0  0  0  0  0  0  0  0  0  0  0  0
   26.8731   13.1457   17.4544 C   0  0  0  0  0  0  0  0  0  0  0  0
   27.4650   11.8955   16.9111 N   0  0  0  0  0  0  0  0  0  0  0  0
   30.1678   17.7752   21.2042 O   0  0  0  0  0  0  0  0  0  0  0  0
  2  1  1  1  0  0  0
  2  3  1  0  0  0  0
  2  5  1  0  0  0  0
  3  4  1  0  0  0  0
  3 10  1  0  0  0  0
  5  6  1  0  0  0  0
  6  7  1  0  0  0  0
  7  8  1  0  0  0  0
  8  9  1  0  0  0  0
M  END
>  <CHROM.1>
143.42297089,-59.82227219,-67.62943885,-176.17683994,-172.30698982,28.80920136
15.38856115,19.29456709,1.00853731,0.29070800,0.85144474

>  <Name>
ligand

>  <RI>
0

>  <Rbt.Current_Directory>
/home/itssahil/PROJECTS/Mol_Feturizer/New_Systems/rnas/3DIX

>  <Rbt.Executable>
rbdock ($Id: //depot/dev/client3/rdock/2013.1/src/exe/rbdock.cxx#4 $)

>  <Rbt.Library>
libRbt.so (2013.1, Build901 2013/11/27)

>  <Rbt.Parameter_File>
/export/apps/rDock/src/rDock_2013.1_src/data/scripts/dock_solv.prm

>  <Rbt.Receptor>
prm/blind_docking_100.prm

>  <SCORE>
-8.29125

>  <SCORE.INTER>
-7.69294

>  <SCORE.INTER.CONST>
1

>  <SCORE.INTER.POLAR>
0

>  <SCORE.INTER.ROT>
5

>  <SCORE.INTER.SOLV>
14.8086

>  <SCORE.INTER.VDW>
-16.9982

>  <SCORE.INTER.norm>
-0.769294

>  <SCORE.INTRA>
-0.598308

>  <SCORE.INTRA.DIHEDRAL>
-1.32949

>  <SCORE.INTRA.DIHEDRAL.0>
3.281

>  <SCORE.INTRA.POLAR>
0

>  <SCORE.INTRA.POLAR.0>
0

>  <SCORE.INTRA.REPUL>
0

>  <SCORE.INTRA.REPUL.0>
0

>  <SCORE.INTRA.SOLV>
-0.130386

>  <SCORE.INTRA.SOLV.lig_0>
-31.9458

>  <SCORE.INTRA.VDW>
0.131632

>  <SCORE.INTRA.VDW.0>
-0.672612

>  <SCORE.INTRA.norm>
-0.0598308

>  <SCORE.RESTR>
0

>  <SCORE.RESTR.CAVITY>
0

>  <SCORE.RESTR.norm>
0

>  <SCORE.SYSTEM>
0

>  <SCORE.SYSTEM.CONST>
0

>  <SCORE.SYSTEM.DIHEDRAL>
0

>  <SCORE.SYSTEM.SOLV>
0

>  <SCORE.SYSTEM.norm>
0

>  <SCORE.heavy>
10

>  <SCORE.norm>
-0.829125

>  <RMSD>
3.091

$$$$
ligand
 OpenBabel11021811473D
libRbt.so/2013.1/901 2013/11/27
 10  9  0  0  0  0  0  0  0  0999 V2000
   29.1577   17.3327   20.6344 N   0  0  0  0  0  0  0  0  0  0  0  0
   28.3124   16.1287   20.8721 C   0  0  2  0  0  0  0  0  0  0  0  0
   29.1636   14.8777   21.0377 C   0  0  0  0  0  0  0  0  0  0  0  0
   30.3366   14.8276   20.6644 O   0  0  0  0  0  0  0  0  0  0  0  0
   27.2938   15.9488   19.7487 C   0  0  0  0  0  0  0  0  0  0  0  0
   27.9306   15.8940   18.3792 C   0  0  0  0  0  0  0  0  0  0  0  0
   28.3621   14.4974   18.0192 C   0  0  0  0  0  0  0  0  0  0  0  0
   27.1612   13.6331   17.6776 C   0  0  0  0  0  0  0  0  0  0  0  0
   27.5584   12.2614   17.2662 N   0  0  0  0  0  0  0  0  0  0  0  0
   28.7048   13.8759   21.5887 O   0  0  0  0  0  0  0  0  0  0  0  0
  2  1  1  6  0  0  0
  2  3  1  0  0  0  0
  2  5  1  0  0  0  0
  3  4  1  0  0  0  0
  3 10  1  0  0  0  0
  5  6  1  0  0  0  0
  6  7  1  0  0  0  0
  7  8  1  0  0  0  0
  8  9  1  0  0  0  0
M  END
>  <CHROM.1>
-17.97343969,55.02824544,86.60685350,73.91333816,177.78228054,28.41919931
14.90380689,19.60212166,0.79963165,-1.04068887,0.24291722

>  <Name>
ligand

>  <RI>
0

>  <Rbt.Current_Directory>
/home/itssahil/PROJECTS/Mol_Feturizer/New_Systems/rnas/3DIX

>  <Rbt.Executable>
rbdock ($Id: //depot/dev/client3/rdock/2013.1/src/exe/rbdock.cxx#4 $)

>  <Rbt.Library>
libRbt.so (2013.1, Build901 2013/11/27)

>  <Rbt.Parameter_File>
/export/apps/rDock/src/rDock_2013.1_src/data/scripts/dock_solv.prm

>  <Rbt.Receptor>
prm/blind_docking_80.prm

>  <SCORE>
-7.39516

>  <SCORE.INTER>
-8.58186

>  <SCORE.INTER.CONST>
1

>  <SCORE.INTER.POLAR>
0

>  <SCORE.INTER.ROT>
5

>  <SCORE.INTER.SOLV>
17.905

>  <SCORE.INTER.VDW>
-18.6229

>  <SCORE.INTER.norm>
-0.858186

>  <SCORE.INTRA>
1.1867

>  <SCORE.INTRA.DIHEDRAL>
1.69031

>  <SCORE.INTRA.DIHEDRAL.0>
3.281

>  <SCORE.INTRA.POLAR>
0

>  <SCORE.INTRA.POLAR.0>
0

>  <SCORE.INTRA.REPUL>
0

>  <SCORE.INTRA.REPUL.0>
0

>  <SCORE.INTRA.SOLV>
-0.0596228

>  <SCORE.INTRA.SOLV.lig_0>
-31.9458

>  <SCORE.INTRA.VDW>
0.371359

>  <SCORE.INTRA.VDW.0>
-0.672612

>  <SCORE.INTRA.norm>
0.11867

>  <SCORE.RESTR>
0

>  <SCORE.RESTR.CAVITY>
0

>  <SCORE.RESTR.norm>
0

>  <SCORE.SYSTEM>
0

>  <SCORE.SYSTEM.CONST>
0

>  <SCORE.SYSTEM.DIHEDRAL>
0

>  <SCORE.SYSTEM.SOLV>
0

>  <SCORE.SYSTEM.norm>
0

>  <SCORE.heavy>
10

>  <SCORE.norm>
-0.739516

>  <RMSD>
3.708

$$$$
ligand
 OpenBabel11021811473D
libRbt.so/2013.1/901 2013/11/27
 10  9  0  0  0  0  0  0  0  0999 V2000
   29.8075   16.7082   22.1048 N   0  0  0  0  0  0  0  0  0  0  0  0
   28.6772   16.3605   21.1981 C   0  0  2  0  0  0  0  0  0  0  0  0
   28.0576   15.0216   21.5733 C   0  0  0  0  0  0  0  0  0  0  0  0
   26.8384   14.8588   21.6430 O   0  0  0  0  0  0  0  0  0  0  0  0
   29.1297   16.3608   19.7397 C   0  0  0  0  0  0  0  0  0  0  0  0
   28.0569   15.8804   18.7898 C   0  0  0  0  0  0  0  0  0  0  0  0
   28.0784   14.3833   18.6338 C   0  0  0  0  0  0  0  0  0  0  0  0
   27.0740   13.9358   17.5865 C   0  0  0  0  0  0  0  0  0  0  0  0
   27.0618   12.4592   17.4183 N   0  0  0  0  0  0  0  0  0  0  0  0
   28.7699   14.0398   21.7886 O   0  0  0  0  0  0  0  0  0  0  0  0
  2  1  1  1  0  0  0
  2  3  1  0  0  0  0
  2  5  1  0  0  0  0
  3  4  1  0  0  0  0
  3 10  1  0  0  0  0
  5  6  1  0  0  0  0
  6  7  1  0  0  0  0
  7  8  1  0  0  0  0
  8  9  1  0  0  0  0
M  END
>  <CHROM.1>
134.56819882,174.26917287,-87.20611438,-175.10480613,-179.44538882,28.14292388
14.97553444,20.06429500,-0.87315174,-1.03055264,-1.49305942

>  <Name>
ligand

>  <RI>
0

>  <Rbt.Current_Directory>
/home/itssahil/PROJECTS/Mol_Feturizer/New_Systems/rnas/3DIX

>  <Rbt.Executable>
rbdock ($Id: //depot/dev/client3/rdock/2013.1/src/exe/rbdock.cxx#4 $)

>  <Rbt.Library>
libRbt.so (2013.1, Build901 2013/11/27)

>  <Rbt.Parameter_File>
/export/apps/rDock/src/rDock_2013.1_src/data/scripts/dock_solv.prm

>  <Rbt.Receptor>
prm/pocket_docking_3.prm

>  <SCORE>
-8.41576

>  <SCORE.INTER>
-8.5317

>  <SCORE.INTER.CONST>
1

>  <SCORE.INTER.POLAR>
0

>  <SCORE.INTER.ROT>
5

>  <SCORE.INTER.SOLV>
16.6092

>  <SCORE.INTER.VDW>
-18.1575

>  <SCORE.INTER.norm>
-0.85317

>  <SCORE.INTRA>
0.115941

>  <SCORE.INTRA.DIHEDRAL>
1.02286

>  <SCORE.INTRA.DIHEDRAL.0>
3.281

>  <SCORE.INTRA.POLAR>
0

>  <SCORE.INTRA.POLAR.0>
0

>  <SCORE.INTRA.REPUL>
0

>  <SCORE.INTRA.REPUL.0>
0

>  <SCORE.INTRA.SOLV>
-1.43228

>  <SCORE.INTRA.SOLV.lig_0>
-31.9458

>  <SCORE.INTRA.VDW>
0.320652

>  <SCORE.INTRA.VDW.0>
-0.672612

>  <SCORE.INTRA.norm>
0.0115941

>  <SCORE.RESTR>
0

>  <SCORE.RESTR.CAVITY>
0

>  <SCORE.RESTR.norm>
0

>  <SCORE.SYSTEM>
0

>  <SCORE.SYSTEM.CONST>
0

>  <SCORE.SYSTEM.DIHEDRAL>
0

>  <SCORE.SYSTEM.SOLV>
0

>  <SCORE.SYSTEM.norm>
0

>  <SCORE.heavy>
10

>  <SCORE.norm>
-0.841576

>  <RMSD>
3.948

$$$$
ligand
 OpenBabel11021811473D
libRbt.so/2013.1/901 2013/11/27
 10  9  0  0  0  0  0  0  0  0999 V2000
   30.3005   16.3303   21.3635 N   0  0  0  0  0  0  0  0  0  0  0  0
   28.9369   16.1174   20.8015 C   0  0  2  0  0  0  0  0  0  0  0  0
   28.1152   15.1839   21.6792 C   0  0  0  0  0  0  0  0  0  0  0  0
   26.9265   15.3921   21.9266 O   0  0  0  0  0  0  0  0  0  0  0  0
   29.0145   15.5905   19.3703 C   0  0  0  0  0  0  0  0  0  0  0  0
   27.7132   15.7392   18.6164 C   0  0  0  0  0  0  0  0  0  0  0  0
   27.6362   14.7982   17.4438 C   0  0  0  0  0  0  0  0  0  0  0  0
   27.1968   13.4150   17.8904 C   0  0  0  0  0  0  0  0  0  0  0  0
   26.9973   12.4936   16.7415 N   0  0  0  0  0  0  0  0  0  0  0  0
   28.6166   14.1601   22.1464 O   0  0  0  0  0  0  0  0  0  0  0  0
  2  1  1  1  0  0  0
  2  3  1  0  0  0  0
  2  5  1  0  0  0  0
  3  4  1  0  0  0  0
  3 10  1  0  0  0  0
  5  6  1  0  0  0  0
  6  7  1  0  0  0  0
  7  8  1  0  0  0  0
  8  9  1  0  0  0  0
M  END
>  <CHROM.1>
138.36882985,-163.06731319,-159.01514060,82.12379978,175.05681980,28.12954919
14.90582240,19.82673362,-1.10433441,-0.84490882,-1.63035604

>  <Name>
ligand

>  <RI>
0

>  <Rbt.Current_Directory>
/home/itssahil/PROJECTS/Mol_Feturizer/New_Systems/rnas/3DIX

>  <Rbt.Executable>
rbdock ($Id: //depot/dev/client3/rdock/2013.1/src/exe/rbdock.cxx#4 $)

>  <Rbt.Library>
libRbt.so (2013.1, Build901 2013/11/27)

>  <Rbt.Parameter_File>
/export/apps/rDock/src/rDock_2013.1_src/data/scripts/dock_solv.prm

>  <Rbt.Receptor>
prm/pocket_docking_4.prm

>  <SCORE>
-7.41484

>  <SCORE.INTER>
-7.94441

>  <SCORE.INTER.CONST>
1

>  <SCORE.INTER.POLAR>
0

>  <SCORE.INTER.ROT>
5

>  <SCORE.INTER.SOLV>
15.077

>  <SCORE.INTER.VDW>
-17.2553

>  <SCORE.INTER.norm>
-0.794441

>  <SCORE.INTRA>
0.529569

>  <SCORE.INTRA.DIHEDRAL>
2.78393

>  <SCORE.INTRA.DIHEDRAL.0>
3.281

>  <SCORE.INTRA.POLAR>
0

>  <SCORE.INTRA.POLAR.0>
0

>  <SCORE.INTRA.REPUL>
0

>  <SCORE.INTRA.REPUL.0>
0

>  <SCORE.INTRA.SOLV>
-1.40442

>  <SCORE.INTRA.SOLV.lig_0>
-31.9458

>  <SCORE.INTRA.VDW>
-0.160184

>  <SCORE.INTRA.VDW.0>
-0.672612

>  <SCORE.INTRA.norm>
0.0529569

>  <SCORE.RESTR>
0

>  <SCORE.RESTR.CAVITY>
0

>  <SCORE.RESTR.norm>
0

>  <SCORE.SYSTEM>
0

>  <SCORE.SYSTEM.CONST>
0

>  <SCORE.SYSTEM.DIHEDRAL>
0

>  <SCORE.SYSTEM.SOLV>
0

>  <SCORE.SYSTEM.norm>
0

>  <SCORE.heavy>
10

>  <SCORE.norm>
-0.741484

>  <RMSD>
3.959

$$$$
ligand
 OpenBabel11021811473D
libRbt.so/2013.1/901 2013/11/27
 10  9  0  0  0  0  0  0  0  0999 V2000
   29.9910   16.3992   21.0128 N   0  0  0  0  0  0  0  0  0  0  0  0
   28.5100   16.2843   20.8950 C   0  0  2  0  0  0  0  0  0  0  0  0
   27.9721   15.1492   21.7549 C   0  0  0  0  0  0  0  0  0  0  0  0
   26.7758   15.0436   22.0295 O   0  0  0  0  0  0  0  0  0  0  0  0
   28.0923   16.1071   19.4369 C   0  0  0  0  0  0  0  0  0  0  0  0
   28.7471   14.9156   18.7771 C   0  0  0  0  0  0  0  0  0  0  0  0
   28.2248   14.6920   17.3830 C   0  0  0  0  0  0  0  0  0  0  0  0
   27.0096   13.7816   17.4020 C   0  0  0  0  0  0  0  0  0  0  0  0
   27.3877   12.3444   17.4048 N   0  0  0  0  0  0  0  0  0  0  0  0
   28.7266   14.2724   22.1788 O   0  0  0  0  0  0  0  0  0  0  0  0
  2  1  1  6  0  0  0
  2  3  1  0  0  0  0
  2  5  1  0  0  0  0
  3  4  1  0  0  0  0
  3 10  1  0  0  0  0
  5  6  1  0  0  0  0
  6  7  1  0  0  0  0
  7  8  1  0  0  0  0
  8  9  1  0  0  0  0
M  END
>  <CHROM.1>
164.68464596,56.55468746,174.86696103,-89.25570423,-84.69834273,28.13239787
14.87888598,19.85615446,-1.28089955,-0.90242532,-1.75017012

>  <Name>
ligand

>  <RI>
0

>  <Rbt.Current_Directory>
/home/itssahil/PROJECTS/Mol_Feturizer/New_Systems/rnas/3DIX

>  <Rbt.Executable>
rbdock ($Id: //depot/dev/client3/rdock/2013.1/src/exe/rbdock.cxx#4 $)

>  <Rbt.Library>
libRbt.so (2013.1, Build901 2013/11/27)

>  <Rbt.Parameter_File>
/export/apps/rDock/src/rDock_2013.1_src/data/scripts/dock_solv.prm

>  <Rbt.Receptor>
prm/pocket_docking_6.prm

>  <SCORE>
-7.916

>  <SCORE.INTER>
-9.79194

>  <SCORE.INTER.CONST>
1

>  <SCORE.INTER.POLAR>
0

>  <SCORE.INTER.ROT>
5

>  <SCORE.INTER.SOLV>
13.353

>  <SCORE.INTER.VDW>
-17.9123

>  <SCORE.INTER.norm>
-0.979194

>  <SCORE.INTRA>
1.87595

>  <SCORE.INTRA.DIHEDRAL>
3.26536

>  <SCORE.INTRA.DIHEDRAL.0>
3.281

>  <SCORE.INTRA.POLAR>
0

>  <SCORE.INTRA.POLAR.0>
0

>  <SCORE.INTRA.REPUL>
0

>  <SCORE.INTRA.REPUL.0>
0

>  <SCORE.INTRA.SOLV>
0.191344

>  <SCORE.INTRA.SOLV.lig_0>
-31.9458

>  <SCORE.INTRA.VDW>
0.147595

>  <SCORE.INTRA.VDW.0>
-0.672612

>  <SCORE.INTRA.norm>
0.187595

>  <SCORE.RESTR>
0

>  <SCORE.RESTR.CAVITY>
0

>  <SCORE.RESTR.norm>
0

>  <SCORE.SYSTEM>
0

>  <SCORE.SYSTEM.CONST>
0

>  <SCORE.SYSTEM.DIHEDRAL>
0

>  <SCORE.SYSTEM.SOLV>
0

>  <SCORE.SYSTEM.norm>
0

>  <SCORE.heavy>
10

>  <SCORE.norm>
-0.7916

>  <RMSD>
4.041

$$$$
ligand
 OpenBabel11021811473D
libRbt.so/2013.1/901 2013/11/27
 10  9  0  0  0  0  0  0  0  0999 V2000
   30.1992   16.3488   21.0202 N   0  0  0  0  0  0  0  0  0  0  0  0
   28.8129   16.0205   20.5830 C   0  0  2  0  0  0  0  0  0  0  0  0
   28.0998   15.1507   21.6086 C   0  0  0  0  0  0  0  0  0  0  0  0
   28.6625   14.2170   22.1826 O   0  0  0  0  0  0  0  0  0  0  0  0
   28.8196   15.3495   19.2113 C   0  0  0  0  0  0  0  0  0  0  0  0
   27.4623   15.3534   18.5469 C   0  0  0  0  0  0  0  0  0  0  0  0
   27.4324   14.4650   17.3319 C   0  0  0  0  0  0  0  0  0  0  0  0
   27.0724   13.0402   17.7145 C   0  0  0  0  0  0  0  0  0  0  0  0
   26.8708   12.1753   16.5229 N   0  0  0  0  0  0  0  0  0  0  0  0
   26.9309   15.3816   21.9218 O   0  0  0  0  0  0  0  0  0  0  0  0
  2  1  1  1  0  0  0
  2  3  1  0  0  0  0
  2  5  1  0  0  0  0
  3  4  1  0  0  0  0
  3 10  1  0  0  0  0
  5  6  1  0  0  0  0
  6  7  1  0  0  0  0
  7  8  1  0  0  0  0
  8  9  1  0  0  0  0
M  END
>  <CHROM.1>
-41.67319163,-163.51007126,-169.03606565,87.88687285,172.97623300,28.02299261
14.73691801,19.69704274,-1.10743223,-0.83897791,-1.68639028

>  <Name>
ligand

>  <RI>
0

>  <Rbt.Current_Directory>
/home/itssahil/PROJECTS/Mol_Feturizer/New_Systems/rnas/3DIX

>  <Rbt.Executable>
rbdock ($Id: //depot/dev/client3/rdock/2013.1/src/exe/rbdock.cxx#4 $)

>  <Rbt.Library>
libRbt.so (2013.1, Build901 2013/11/27)

>  <Rbt.Parameter_File>
/export/apps/rDock/src/rDock_2013.1_src/data/scripts/dock_solv.prm

>  <Rbt.Receptor>
prm/blind_docking_100.prm

>  <SCORE>
-7.3492

>  <SCORE.INTER>
-7.7338

>  <SCORE.INTER.CONST>
1

>  <SCORE.INTER.POLAR>
0

>  <SCORE.INTER.ROT>
5

>  <SCORE.INTER.SOLV>
14.4852

>  <SCORE.INTER.VDW>
-16.9176

>  <SCORE.INTER.norm>
-0.77338

>  <SCORE.INTRA>
0.381286

>  <SCORE.INTRA.DIHEDRAL>
2.64132

>  <SCORE.INTRA.DIHEDRAL.0>
3.281

>  <SCORE.INTRA.POLAR>
0

>  <SCORE.INTRA.POLAR.0>
0

>  <SCORE.INTRA.REPUL>
0

>  <SCORE.INTRA.REPUL.0>
0

>  <SCORE.INTRA.SOLV>
-1.45263

>  <SCORE.INTRA.SOLV.lig_0>
-31.9458

>  <SCORE.INTRA.VDW>
-0.213055

>  <SCORE.INTRA.VDW.0>
-0.672612

>  <SCORE.INTRA.norm>
0.0381286

>  <SCORE.RESTR>
0.00331982

>  <SCORE.RESTR.CAVITY>
0.00331982

>  <SCORE.RESTR.norm>
0.000331982

>  <SCORE.SYSTEM>
0

>  <SCORE.SYSTEM.CONST>
0

>  <SCORE.SYSTEM.DIHEDRAL>
0

>  <SCORE.SYSTEM.SOLV>
0

>  <SCORE.SYSTEM.norm>
0

>  <SCORE.heavy>
10

>  <SCORE.norm>
-0.73492

>  <RMSD>
4.064

$$$$
ligand
 OpenBabel11021811473D
libRbt.so/2013.1/901 2013/11/27
 10  9  0  0  0  0  0  0  0  0999 V2000
   29.9003   16.1998   20.7513 N   0  0  0  0  0  0  0  0  0  0  0  0
   28.4311   16.4004   20.8994 C   0  0  2  0  0  0  0  0  0  0  0  0
   27.7627   15.1745   21.5055 C   0  0  0  0  0  0  0  0  0  0  0  0
   28.3981   14.1650   21.8136 O   0  0  0  0  0  0  0  0  0  0  0  0
   27.7936   16.7610   19.5595 C   0  0  0  0  0  0  0  0  0  0  0  0
   28.0726   15.7403   18.4806 C   0  0  0  0  0  0  0  0  0  0  0  0
   27.1931   14.5264   18.6190 C   0  0  0  0  0  0  0  0  0  0  0  0
   27.4989   13.5120   17.5311 C   0  0  0  0  0  0  0  0  0  0  0  0
   26.5822   12.3434   17.5825 N   0  0  0  0  0  0  0  0  0  0  0  0
   26.5529   15.1713   21.7387 O   0  0  0  0  0  0  0  0  0  0  0  0
  2  1  1  6  0  0  0
  2  3  1  0  0  0  0
  2  5  1  0  0  0  0
  3  4  1  0  0  0  0
  3 10  1  0  0  0  0
  5  6  1  0  0  0  0
  6  7  1  0  0  0  0
  7  8  1  0  0  0  0
  8  9  1  0  0  0  0
M  END
>  <CHROM.1>
-0.26334396,55.86965982,78.40521484,-179.57973127,-175.99238969,27.80525837
14.97785056,19.87102317,-0.96469427,-1.04112036,-1.63028137

>  <Name>
ligand

>  <RI>
0

>  <Rbt.Current_Directory>
/home/itssahil/PROJECTS/Mol_Feturizer/New_Systems/rnas/3DIX

>  <Rbt.Executable>
rbdock ($Id: //depot/dev/client3/rdock/2013.1/src/exe/rbdock.cxx#4 $)

>  <Rbt.Library>
libRbt.so (2013.1, Build901 2013/11/27)

>  <Rbt.Parameter_File>
/export/apps/rDock/src/rDock_2013.1_src/data/scripts/dock_solv.prm

>  <Rbt.Receptor>
prm/blind_docking_80.prm

>  <SCORE>
-10.7151

>  <SCORE.INTER>
-10.7802

>  <SCORE.INTER.CONST>
1

>  <SCORE.INTER.POLAR>
0

>  <SCORE.INTER.ROT>
5

>  <SCORE.INTER.SOLV>
14.4191

>  <SCORE.INTER.VDW>
-18.9265

>  <SCORE.INTER.norm>
-1.07802

>  <SCORE.INTRA>
0.065085

>  <SCORE.INTRA.DIHEDRAL>
-0.332085

>  <SCORE.INTRA.DIHEDRAL.0>
3.281

>  <SCORE.INTRA.POLAR>
0

>  <SCORE.INTRA.POLAR.0>
0

>  <SCORE.INTRA.REPUL>
0

>  <SCORE.INTRA.REPUL.0>
0

>  <SCORE.INTRA.SOLV>
-0.19684

>  <SCORE.INTRA.SOLV.lig_0>
-31.9458

>  <SCORE.INTRA.VDW>
0.329548

>  <SCORE.INTRA.VDW.0>
-0.672612

>  <SCORE.INTRA.norm>
0.0065085

>  <SCORE.RESTR>
0

>  <SCORE.RESTR.CAVITY>
0

>  <SCORE.RESTR.norm>
0

>  <SCORE.SYSTEM>
0

>  <SCORE.SYSTEM.CONST>
0

>  <SCORE.SYSTEM.DIHEDRAL>
0

>  <SCORE.SYSTEM.SOLV>
0

>  <SCORE.SYSTEM.norm>
0

>  <SCORE.heavy>
10

>  <SCORE.norm>
-1.07151

>  <RMSD>
4.086

$$$$
ligand
 OpenBabel11021811473D
libRbt.so/2013.1/901 2013/11/27
 10  9  0  0  0  0  0  0  0  0999 V2000
   29.8740   16.2201   20.7131 N   0  0  0  0  0  0  0  0  0  0  0  0
   28.4025   16.3471   20.9110 C   0  0  2  0  0  0  0  0  0  0  0  0
   27.8143   15.0831   21.5220 C   0  0  0  0  0  0  0  0  0  0  0  0
   28.5158   14.1262   21.8535 O   0  0  0  0  0  0  0  0  0  0  0  0
   27.7046   16.6919   19.5972 C   0  0  0  0  0  0  0  0  0  0  0  0
   28.0029   15.7027   18.4944 C   0  0  0  0  0  0  0  0  0  0  0  0
   27.1883   14.4447   18.6368 C   0  0  0  0  0  0  0  0  0  0  0  0
   27.4786   13.4826   17.4983 C   0  0  0  0  0  0  0  0  0  0  0  0
   26.5912   12.2910   17.5333 N   0  0  0  0  0  0  0  0  0  0  0  0
   26.6041   14.9948   21.7355 O   0  0  0  0  0  0  0  0  0  0  0  0
  2  1  1  6  0  0  0
  2  3  1  0  0  0  0
  2  5  1  0  0  0  0
  3  4  1  0  0  0  0
  3 10  1  0  0  0  0
  5  6  1  0  0  0  0
  6  7  1  0  0  0  0
  7  8  1  0  0  0  0
  8  9  1  0  0  0  0
M  END
>  <CHROM.1>
3.18745761,55.56599456,78.70848906,178.51940713,-174.21956801,27.80618696
14.91591203,19.87261206,-0.89682592,-1.07656672,-1.54400631

>  <Name>
ligand

>  <RI>
0

>  <Rbt.Current_Directory>
/home/itssahil/PROJECTS/Mol_Feturizer/New_Systems/rnas/3DIX

>  <Rbt.Executable>
rbdock ($Id: //depot/dev/client3/rdock/2013.1/src/exe/rbdock.cxx#4 $)

>  <Rbt.Library>
libRbt.so (2013.1, Build901 2013/11/27)

>  <Rbt.Parameter_File>
/export/apps/rDock/src/rDock_2013.1_src/data/scripts/dock_solv.prm

>  <Rbt.Receptor>
prm/pocket_docking_7.prm

>  <SCORE>
-10.8242

>  <SCORE.INTER>
-10.9841

>  <SCORE.INTER.CONST>
1

>  <SCORE.INTER.POLAR>
0

>  <SCORE.INTER.ROT>
5

>  <SCORE.INTER.SOLV>
14.4824

>  <SCORE.INTER.VDW>
-19.0835

>  <SCORE.INTER.norm>
-1.09841

>  <SCORE.INTRA>
0.159836

>  <SCORE.INTRA.DIHEDRAL>
-0.220099

>  <SCORE.INTRA.DIHEDRAL.0>
3.281

>  <SCORE.INTRA.POLAR>
0

>  <SCORE.INTRA.POLAR.0>
0

>  <SCORE.INTRA.REPUL>
0

>  <SCORE.INTRA.REPUL.0>
0

>  <SCORE.INTRA.SOLV>
-0.194444

>  <SCORE.INTRA.SOLV.lig_0>
-31.9458

>  <SCORE.INTRA.VDW>
0.367107

>  <SCORE.INTRA.VDW.0>
-0.672612

>  <SCORE.INTRA.norm>
0.0159836

>  <SCORE.RESTR>
0

>  <SCORE.RESTR.CAVITY>
0

>  <SCORE.RESTR.norm>
0

>  <SCORE.SYSTEM>
0

>  <SCORE.SYSTEM.CONST>
0

>  <SCORE.SYSTEM.DIHEDRAL>
0

>  <SCORE.SYSTEM.SOLV>
0

>  <SCORE.SYSTEM.norm>
0

>  <SCORE.heavy>
10

>  <SCORE.norm>
-1.08242

>  <RMSD>
4.095

$$$$
ligand
 OpenBabel11021811473D
libRbt.so/2013.1/901 2013/11/27
 10  9  0  0  0  0  0  0  0  0999 V2000
   29.8698   16.1658   20.7385 N   0  0  0  0  0  0  0  0  0  0  0  0
   28.4035   16.3334   20.9449 C   0  0  2  0  0  0  0  0  0  0  0  0
   27.7804   15.0781   21.5390 C   0  0  0  0  0  0  0  0  0  0  0  0
   26.5675   14.9735   21.7282 O   0  0  0  0  0  0  0  0  0  0  0  0
   27.7110   16.7189   19.6396 C   0  0  0  0  0  0  0  0  0  0  0  0
   27.9796   15.7411   18.5191 C   0  0  0  0  0  0  0  0  0  0  0  0
   27.1489   14.4931   18.6554 C   0  0  0  0  0  0  0  0  0  0  0  0
   27.4596   13.5136   17.5374 C   0  0  0  0  0  0  0  0  0  0  0  0
   26.5656   12.3269   17.5691 N   0  0  0  0  0  0  0  0  0  0  0  0
   28.4802   14.1041   21.8207 O   0  0  0  0  0  0  0  0  0  0  0  0
  2  1  1  6  0  0  0
  2  3  1  0  0  0  0
  2  5  1  0  0  0  0
  3  4  1  0  0  0  0
  3 10  1  0  0  0  0
  5  6  1  0  0  0  0
  6  7  1  0  0  0  0
  7  8  1  0  0  0  0
  8  9  1  0  0  0  0
M  END
>  <CHROM.1>
-176.23079450,55.35176742,77.76828913,-178.68391235,-174.60196292,27.78475862
14.92189175,19.89111857,-0.88872851,-1.06920999,-1.53614338

>  <Name>
ligand

>  <RI>
0

>  <Rbt.Current_Directory>
/home/itssahil/PROJECTS/Mol_Feturizer/New_Systems/rnas/3DIX

>  <Rbt.Executable>
rbdock ($Id: //depot/dev/client3/rdock/2013.1/src/exe/rbdock.cxx#4 $)

>  <Rbt.Library>
libRbt.so (2013.1, Build901 2013/11/27)

>  <Rbt.Parameter_File>
/export/apps/rDock/src/rDock_2013.1_src/data/scripts/dock_solv.prm

>  <Rbt.Receptor>
prm/pocket_docking_4.prm

>  <SCORE>
-10.7623

>  <SCORE.INTER>
-10.9283

>  <SCORE.INTER.CONST>
1

>  <SCORE.INTER.POLAR>
0

>  <SCORE.INTER.ROT>
5

>  <SCORE.INTER.SOLV>
14.4899

>  <SCORE.INTER.VDW>
-19.0488

>  <SCORE.INTER.norm>
-1.09283

>  <SCORE.INTRA>
0.166041

>  <SCORE.INTRA.DIHEDRAL>
-0.339322

>  <SCORE.INTRA.DIHEDRAL.0>
3.281

>  <SCORE.INTRA.POLAR>
0

>  <SCORE.INTRA.POLAR.0>
0

>  <SCORE.INTRA.REPUL>
0

>  <SCORE.INTRA.REPUL.0>
0

>  <SCORE.INTRA.SOLV>
-0.167466

>  <SCORE.INTRA.SOLV.lig_0>
-31.9458

>  <SCORE.INTRA.VDW>
0.419435

>  <SCORE.INTRA.VDW.0>
-0.672612

>  <SCORE.INTRA.norm>
0.0166041

>  <SCORE.RESTR>
0

>  <SCORE.RESTR.CAVITY>
0

>  <SCORE.RESTR.norm>
0

>  <SCORE.SYSTEM>
0

>  <SCORE.SYSTEM.CONST>
0

>  <SCORE.SYSTEM.DIHEDRAL>
0

>  <SCORE.SYSTEM.SOLV>
0

>  <SCORE.SYSTEM.norm>
0

>  <SCORE.heavy>
10

>  <SCORE.norm>
-1.07623

>  <RMSD>
4.104

$$$$
ligand
 OpenBabel11021811473D
libRbt.so/2013.1/901 2013/11/27
 10  9  0  0  0  0  0  0  0  0999 V2000
   29.6576   17.0684   21.0986 N   0  0  0  0  0  0  0  0  0  0  0  0
   28.4382   16.3272   20.6694 C   0  0  2  0  0  0  0  0  0  0  0  0
   28.0170   15.3018   21.7126 C   0  0  0  0  0  0  0  0  0  0  0  0
   28.8309   14.5766   22.2864 O   0  0  0  0  0  0  0  0  0  0  0  0
   28.6546   15.6640   19.3111 C   0  0  0  0  0  0  0  0  0  0  0  0
   27.4568   14.8683   18.8464 C   0  0  0  0  0  0  0  0  0  0  0  0
   27.8172   13.9079   17.7446 C   0  0  0  0  0  0  0  0  0  0  0  0
   26.6450   13.0006   17.4151 C   0  0  0  0  0  0  0  0  0  0  0  0
   27.0311   11.9005   16.4936 N   0  0  0  0  0  0  0  0  0  0  0  0
   26.8347   15.1908   22.0405 O   0  0  0  0  0  0  0  0  0  0  0  0
  2  1  1  1  0  0  0
  2  3  1  0  0  0  0
  2  5  1  0  0  0  0
  3  4  1  0  0  0  0
  3 10  1  0  0  0  0
  5  6  1  0  0  0  0
  6  7  1  0  0  0  0
  7  8  1  0  0  0  0
  8  9  1  0  0  0  0
M  END
>  <CHROM.1>
-43.03196261,178.51602234,-162.92038476,172.88695220,-170.67990173,27.93054242
14.76507755,19.79489593,-1.13076750,-0.92558217,-1.79443917

>  <Name>
ligand

>  <RI>
0

>  <Rbt.Current_Directory>
/home/itssahil/PROJECTS/Mol_Feturizer/New_Systems/rnas/3DIX

>  <Rbt.Executable>
rbdock ($Id: //depot/dev/client3/rdock/2013.1/src/exe/rbdock.cxx#4 $)

>  <Rbt.Library>
libRbt.so (2013.1, Build901 2013/11/27)

>  <Rbt.Parameter_File>
/export/apps/rDock/src/rDock_2013.1_src/data/scripts/dock_solv.prm

>  <Rbt.Receptor>
prm/pocket_docking_4.prm

>  <SCORE>
-9.42437

>  <SCORE.INTER>
-8.58573

>  <SCORE.INTER.CONST>
1

>  <SCORE.INTER.POLAR>
0

>  <SCORE.INTER.ROT>
5

>  <SCORE.INTER.SOLV>
17.3536

>  <SCORE.INTER.VDW>
-18.4417

>  <SCORE.INTER.norm>
-0.858573

>  <SCORE.INTRA>
-0.838641

>  <SCORE.INTRA.DIHEDRAL>
-0.0528134

>  <SCORE.INTRA.DIHEDRAL.0>
3.281

>  <SCORE.INTRA.POLAR>
0

>  <SCORE.INTRA.POLAR.0>
0

>  <SCORE.INTRA.REPUL>
0

>  <SCORE.INTRA.REPUL.0>
0

>  <SCORE.INTRA.SOLV>
-1.57031

>  <SCORE.INTRA.SOLV.lig_0>
-31.9458

>  <SCORE.INTRA.VDW>
-0.027081

>  <SCORE.INTRA.VDW.0>
-0.672612

>  <SCORE.INTRA.norm>
-0.0838641

>  <SCORE.RESTR>
0

>  <SCORE.RESTR.CAVITY>
0

>  <SCORE.RESTR.norm>
0

>  <SCORE.SYSTEM>
0

>  <SCORE.SYSTEM.CONST>
0

>  <SCORE.SYSTEM.DIHEDRAL>
0

>  <SCORE.SYSTEM.SOLV>
0

>  <SCORE.SYSTEM.norm>
0

>  <SCORE.heavy>
10

>  <SCORE.norm>
-0.942437

>  <RMSD>
4.127

$$$$
ligand
 OpenBabel11021811473D
libRbt.so/2013.1/901 2013/11/27
 10  9  0  0  0  0  0  0  0  0999 V2000
   26.8802   15.1553   21.8238 N   0  0  0  0  0  0  0  0  0  0  0  0
   27.7223   15.2228   20.5962 C   0  0  2  0  0  0  0  0  0  0  0  0
   28.7376   16.3537   20.6822 C   0  0  0  0  0  0  0  0  0  0  0  0
   28.5704   17.4313   20.1090 O   0  0  0  0  0  0  0  0  0  0  0  0
   26.8540   15.3651   19.3481 C   0  0  0  0  0  0  0  0  0  0  0  0
   27.6371   15.2101   18.0649 C   0  0  0  0  0  0  0  0  0  0  0  0
   28.0174   13.7756   17.8123 C   0  0  0  0  0  0  0  0  0  0  0  0
   26.8199   12.9776   17.3274 C   0  0  0  0  0  0  0  0  0  0  0  0
   27.1586   11.5504   17.0883 N   0  0  0  0  0  0  0  0  0  0  0  0
   29.7553   16.2315   21.3657 O   0  0  0  0  0  0  0  0  0  0  0  0
  2  1  1  1  0  0  0
  2  3  1  0  0  0  0
  2  5  1  0  0  0  0
  3  4  1  0  0  0  0
  3 10  1  0  0  0  0
  5  6  1  0  0  0  0
  6  7  1  0  0  0  0
  7  8  1  0  0  0  0
  8  9  1  0  0  0  0
M  END
>  <CHROM.1>
-101.13360596,-170.53798225,73.70265013,75.63488874,-179.13805632,27.84065304
14.95853253,19.43216589,1.11066096,0.93068902,1.15139011

>  <Name>
ligand

>  <RI>
0

>  <Rbt.Current_Directory>
/home/itssahil/PROJECTS/Mol_Feturizer/New_Systems/rnas/3DIX

>  <Rbt.Executable>
rbdock ($Id: //depot/dev/client3/rdock/2013.1/src/exe/rbdock.cxx#4 $)

>  <Rbt.Library>
libRbt.so (2013.1, Build901 2013/11/27)

>  <Rbt.Parameter_File>
/export/apps/rDock/src/rDock_2013.1_src/data/scripts/dock_solv.prm

>  <Rbt.Receptor>
prm/blind_docking_80.prm

>  <SCORE>
-7.70537

>  <SCORE.INTER>
-8.25866

>  <SCORE.INTER.CONST>
1

>  <SCORE.INTER.POLAR>
0

>  <SCORE.INTER.ROT>
5

>  <SCORE.INTER.SOLV>
20.686

>  <SCORE.INTER.VDW>
-19.3344

>  <SCORE.INTER.norm>
-0.825866

>  <SCORE.INTRA>
0.553289

>  <SCORE.INTRA.DIHEDRAL>
0.211438

>  <SCORE.INTRA.DIHEDRAL.0>
3.281

>  <SCORE.INTRA.POLAR>
0

>  <SCORE.INTRA.POLAR.0>
0

>  <SCORE.INTRA.REPUL>
0

>  <SCORE.INTRA.REPUL.0>
0

>  <SCORE.INTRA.SOLV>
-1.09476

>  <SCORE.INTRA.SOLV.lig_0>
-31.9458

>  <SCORE.INTRA.VDW>
0.994951

>  <SCORE.INTRA.VDW.0>
-0.672612

>  <SCORE.INTRA.norm>
0.0553289

>  <SCORE.RESTR>
0

>  <SCORE.RESTR.CAVITY>
0

>  <SCORE.RESTR.norm>
0

>  <SCORE.SYSTEM>
0

>  <SCORE.SYSTEM.CONST>
0

>  <SCORE.SYSTEM.DIHEDRAL>
0

>  <SCORE.SYSTEM.SOLV>
0

>  <SCORE.SYSTEM.norm>
0

>  <SCORE.heavy>
10

>  <SCORE.norm>
-0.770537

>  <RMSD>
4.131

$$$$
ligand
 OpenBabel11021811473D
libRbt.so/2013.1/901 2013/11/27
 10  9  0  0  0  0  0  0  0  0999 V2000
   29.8396   16.1806   20.7064 N   0  0  0  0  0  0  0  0  0  0  0  0
   28.3575   16.2966   20.8094 C   0  0  2  0  0  0  0  0  0  0  0  0
   27.7490   15.0623   21.4601 C   0  0  0  0  0  0  0  0  0  0  0  0
   28.4367   14.1123   21.8373 O   0  0  0  0  0  0  0  0  0  0  0  0
   27.7351   16.5515   19.4385 C   0  0  0  0  0  0  0  0  0  0  0  0
   28.0869   15.4873   18.4247 C   0  0  0  0  0  0  0  0  0  0  0  0
   27.2031   14.2758   18.5569 C   0  0  0  0  0  0  0  0  0  0  0  0
   27.5101   13.2630   17.4679 C   0  0  0  0  0  0  0  0  0  0  0  0
   26.5667   12.1149   17.4900 N   0  0  0  0  0  0  0  0  0  0  0  0
   26.5353   14.9934   21.6604 O   0  0  0  0  0  0  0  0  0  0  0  0
  2  1  1  6  0  0  0
  2  3  1  0  0  0  0
  2  5  1  0  0  0  0
  3  4  1  0  0  0  0
  3 10  1  0  0  0  0
  5  6  1  0  0  0  0
  6  7  1  0  0  0  0
  7  8  1  0  0  0  0
  8  9  1  0  0  0  0
M  END
>  <CHROM.1>
-0.01671202,56.77110196,82.02804991,176.03183323,-174.44682586,27.78982984
14.81239455,19.80900589,-0.98187705,-1.04283400,-1.66550084

>  <Name>
ligand

>  <RI>
0

>  <Rbt.Current_Directory>
/home/itssahil/PROJECTS/Mol_Feturizer/New_Systems/rnas/3DIX

>  <Rbt.Executable>
rbdock ($Id: //depot/dev/client3/rdock/2013.1/src/exe/rbdock.cxx#4 $)

>  <Rbt.Library>
libRbt.so (2013.1, Build901 2013/11/27)

>  <Rbt.Parameter_File>
/export/apps/rDock/src/rDock_2013.1_src/data/scripts/dock_solv.prm

>  <Rbt.Receptor>
prm/pocket_docking_8.prm

>  <SCORE>
-10.6567

>  <SCORE.INTER>
-10.8774

>  <SCORE.INTER.CONST>
1

>  <SCORE.INTER.POLAR>
0

>  <SCORE.INTER.ROT>
5

>  <SCORE.INTER.SOLV>
14.3198

>  <SCORE.INTER.VDW>
-18.9582

>  <SCORE.INTER.norm>
-1.08774

>  <SCORE.INTRA>
0.220682

>  <SCORE.INTRA.DIHEDRAL>
0.264673

>  <SCORE.INTRA.DIHEDRAL.0>
3.281

>  <SCORE.INTRA.POLAR>
0

>  <SCORE.INTRA.POLAR.0>
0

>  <SCORE.INTRA.REPUL>
0

>  <SCORE.INTRA.REPUL.0>
0

>  <SCORE.INTRA.SOLV>
-0.255055

>  <SCORE.INTRA.SOLV.lig_0>
-31.9458

>  <SCORE.INTRA.VDW>
0.215873

>  <SCORE.INTRA.VDW.0>
-0.672612

>  <SCORE.INTRA.norm>
0.0220682

>  <SCORE.RESTR>
0

>  <SCORE.RESTR.CAVITY>
0

>  <SCORE.RESTR.norm>
0

>  <SCORE.SYSTEM>
0

>  <SCORE.SYSTEM.CONST>
0

>  <SCORE.SYSTEM.DIHEDRAL>
0

>  <SCORE.SYSTEM.SOLV>
0

>  <SCORE.SYSTEM.norm>
0

>  <SCORE.heavy>
10

>  <SCORE.norm>
-1.06567

>  <RMSD>
4.167

$$$$
ligand
 OpenBabel11021811473D
libRbt.so/2013.1/901 2013/11/27
 10  9  0  0  0  0  0  0  0  0999 V2000
   27.3611   14.8704   20.4251 N   0  0  0  0  0  0  0  0  0  0  0  0
   28.5778   14.5195   19.6395 C   0  0  2  0  0  0  0  0  0  0  0  0
   29.8200   15.1853   20.2146 C   0  0  0  0  0  0  0  0  0  0  0  0
   30.8900   15.2167   19.6049 O   0  0  0  0  0  0  0  0  0  0  0  0
   28.3982   14.8827   18.1672 C   0  0  0  0  0  0  0  0  0  0  0  0
   27.2243   14.1794   17.5258 C   0  0  0  0  0  0  0  0  0  0  0  0
   27.4524   12.6952   17.4193 C   0  0  0  0  0  0  0  0  0  0  0  0
   26.2278   12.0009   16.8499 C   0  0  0  0  0  0  0  0  0  0  0  0
   26.3698   10.5216   16.8570 N   0  0  0  0  0  0  0  0  0  0  0  0
   29.7789   15.7491   21.3092 O   0  0  0  0  0  0  0  0  0  0  0  0
  2  1  1  1  0  0  0
  2  3  1  0  0  0  0
  2  5  1  0  0  0  0
  3  4  1  0  0  0  0
  3 10  1  0  0  0  0
  5  6  1  0  0  0  0
  6  7  1  0  0  0  0
  7  8  1  0  0  0  0
  8  9  1  0  0  0  0
M  END
>  <CHROM.1>
-167.72141916,-59.26602505,-67.38472477,176.57861996,-174.35129203,28.24417970
14.00339042,18.82140933,0.97460158,0.25485325,0.92737241

>  <Name>
ligand

>  <RI>
0

>  <Rbt.Current_Directory>
/home/itssahil/PROJECTS/Mol_Feturizer/New_Systems/rnas/3DIX

>  <Rbt.Executable>
rbdock ($Id: //depot/dev/client3/rdock/2013.1/src/exe/rbdock.cxx#4 $)

>  <Rbt.Library>
libRbt.so (2013.1, Build901 2013/11/27)

>  <Rbt.Parameter_File>
/export/apps/rDock/src/rDock_2013.1_src/data/scripts/dock_solv.prm

>  <Rbt.Receptor>
prm/pocket_docking_7.prm

>  <SCORE>
-8.2067

>  <SCORE.INTER>
-7.9809

>  <SCORE.INTER.CONST>
1

>  <SCORE.INTER.POLAR>
0

>  <SCORE.INTER.ROT>
5

>  <SCORE.INTER.SOLV>
15.1824

>  <SCORE.INTER.VDW>
-17.3147

>  <SCORE.INTER.norm>
-0.79809

>  <SCORE.INTRA>
-0.225802

>  <SCORE.INTRA.DIHEDRAL>
-1.35839

>  <SCORE.INTRA.DIHEDRAL.0>
3.281

>  <SCORE.INTRA.POLAR>
0

>  <SCORE.INTRA.POLAR.0>
0

>  <SCORE.INTRA.REPUL>
0

>  <SCORE.INTRA.REPUL.0>
0

>  <SCORE.INTRA.SOLV>
-0.0997274

>  <SCORE.INTRA.SOLV.lig_0>
-31.9458

>  <SCORE.INTRA.VDW>
0.503256

>  <SCORE.INTRA.VDW.0>
-0.672612

>  <SCORE.INTRA.norm>
-0.0225802

>  <SCORE.RESTR>
0

>  <SCORE.RESTR.CAVITY>
0

>  <SCORE.RESTR.norm>
0

>  <SCORE.SYSTEM>
0

>  <SCORE.SYSTEM.CONST>
0

>  <SCORE.SYSTEM.DIHEDRAL>
0

>  <SCORE.SYSTEM.SOLV>
0

>  <SCORE.SYSTEM.norm>
0

>  <SCORE.heavy>
10

>  <SCORE.norm>
-0.82067

>  <RMSD>
4.204

$$$$
ligand
 OpenBabel11021811473D
libRbt.so/2013.1/901 2013/11/27
 10  9  0  0  0  0  0  0  0  0999 V2000
   29.8082   16.1665   20.3872 N   0  0  0  0  0  0  0  0  0  0  0  0
   28.3204   16.1702   20.4716 C   0  0  2  0  0  0  0  0  0  0  0  0
   27.8253   15.2400   21.5701 C   0  0  0  0  0  0  0  0  0  0  0  0
   26.6562   15.2463   21.9584 O   0  0  0  0  0  0  0  0  0  0  0  0
   27.6982   15.8029   19.1263 C   0  0  0  0  0  0  0  0  0  0  0  0
   28.0017   14.3838   18.7047 C   0  0  0  0  0  0  0  0  0  0  0  0
   27.1223   13.9388   17.5668 C   0  0  0  0  0  0  0  0  0  0  0  0
   27.3055   12.4568   17.2913 C   0  0  0  0  0  0  0  0  0  0  0  0
   26.2553   11.9223   16.3857 N   0  0  0  0  0  0  0  0  0  0  0  0
   28.5854   14.4190   22.0858 O   0  0  0  0  0  0  0  0  0  0  0  0
  2  1  1  6  0  0  0
  2  3  1  0  0  0  0
  2  5  1  0  0  0  0
  3  4  1  0  0  0  0
  3 10  1  0  0  0  0
  5  6  1  0  0  0  0
  6  7  1  0  0  0  0
  7  8  1  0  0  0  0
  8  9  1  0  0  0  0
M  END
>  <CHROM.1>
168.16409299,65.44619134,166.18318764,-171.97132872,167.65024908,27.74897329
14.56112349,19.58877292,-1.18004619,-0.83529311,-1.84038520

>  <Name>
ligand

>  <RI>
0

>  <Rbt.Current_Directory>
/home/itssahil/PROJECTS/Mol_Feturizer/New_Systems/rnas/3DIX

>  <Rbt.Executable>
rbdock ($Id: //depot/dev/client3/rdock/2013.1/src/exe/rbdock.cxx#4 $)

>  <Rbt.Library>
libRbt.so (2013.1, Build901 2013/11/27)

>  <Rbt.Parameter_File>
/export/apps/rDock/src/rDock_2013.1_src/data/scripts/dock_solv.prm

>  <Rbt.Receptor>
prm/pocket_docking_4.prm

>  <SCORE>
-10.6955

>  <SCORE.INTER>
-10.3477

>  <SCORE.INTER.CONST>
1

>  <SCORE.INTER.POLAR>
0

>  <SCORE.INTER.ROT>
5

>  <SCORE.INTER.SOLV>
15.3077

>  <SCORE.INTER.VDW>
-18.9344

>  <SCORE.INTER.norm>
-1.03477

>  <SCORE.INTRA>
-0.347814

>  <SCORE.INTRA.DIHEDRAL>
-0.138515

>  <SCORE.INTRA.DIHEDRAL.0>
3.281

>  <SCORE.INTRA.POLAR>
0

>  <SCORE.INTRA.POLAR.0>
0

>  <SCORE.INTRA.REPUL>
0

>  <SCORE.INTRA.REPUL.0>
0

>  <SCORE.INTRA.SOLV>
-0.751407

>  <SCORE.INTRA.SOLV.lig_0>
-31.9458

>  <SCORE.INTRA.VDW>
0.097147

>  <SCORE.INTRA.VDW.0>
-0.672612

>  <SCORE.INTRA.norm>
-0.0347814

>  <SCORE.RESTR>
0

>  <SCORE.RESTR.CAVITY>
0

>  <SCORE.RESTR.norm>
0

>  <SCORE.SYSTEM>
0

>  <SCORE.SYSTEM.CONST>
0

>  <SCORE.SYSTEM.DIHEDRAL>
0

>  <SCORE.SYSTEM.SOLV>
0

>  <SCORE.SYSTEM.norm>
0

>  <SCORE.heavy>
10

>  <SCORE.norm>
-1.06955

>  <RMSD>
4.310

$$$$
ligand
 OpenBabel11021811473D
libRbt.so/2013.1/901 2013/11/27
 10  9  0  0  0  0  0  0  0  0999 V2000
   29.7368   16.1832   20.2620 N   0  0  0  0  0  0  0  0  0  0  0  0
   28.2542   16.1682   20.4113 C   0  0  2  0  0  0  0  0  0  0  0  0
   27.8219   15.2650   21.5578 C   0  0  0  0  0  0  0  0  0  0  0  0
   26.6563   15.2195   21.9542 O   0  0  0  0  0  0  0  0  0  0  0  0
   27.5802   15.7508   19.1062 C   0  0  0  0  0  0  0  0  0  0  0  0
   27.9354   14.3442   18.6832 C   0  0  0  0  0  0  0  0  0  0  0  0
   27.0417   13.8510   17.5767 C   0  0  0  0  0  0  0  0  0  0  0  0
   27.3103   12.3863   17.2790 C   0  0  0  0  0  0  0  0  0  0  0  0
   26.2595   11.7898   16.4137 N   0  0  0  0  0  0  0  0  0  0  0  0
   28.6330   14.5182   22.1074 O   0  0  0  0  0  0  0  0  0  0  0  0
  2  1  1  6  0  0  0
  2  3  1  0  0  0  0
  2  5  1  0  0  0  0
  3  4  1  0  0  0  0
  3 10  1  0  0  0  0
  5  6  1  0  0  0  0
  6  7  1  0  0  0  0
  7  8  1  0  0  0  0
  8  9  1  0  0  0  0
M  END
>  <CHROM.1>
171.73200557,62.94061803,167.57765299,-173.46912007,167.49000900,27.71546584
14.53494946,19.57010049,-1.17440312,-0.85703071,-1.85030327

>  <Name>
ligand

>  <RI>
0

>  <Rbt.Current_Directory>
/home/itssahil/PROJECTS/Mol_Feturizer/New_Systems/rnas/3DIX

>  <Rbt.Executable>
rbdock ($Id: //depot/dev/client3/rdock/2013.1/src/exe/rbdock.cxx#4 $)

>  <Rbt.Library>
libRbt.so (2013.1, Build901 2013/11/27)

>  <Rbt.Parameter_File>
/export/apps/rDock/src/rDock_2013.1_src/data/scripts/dock_solv.prm

>  <Rbt.Receptor>
prm/pocket_docking_7.prm

>  <SCORE>
-10.7348

>  <SCORE.INTER>
-10.2662

>  <SCORE.INTER.CONST>
1

>  <SCORE.INTER.POLAR>
0

>  <SCORE.INTER.ROT>
5

>  <SCORE.INTER.SOLV>
15.1293

>  <SCORE.INTER.VDW>
-18.8206

>  <SCORE.INTER.norm>
-1.02662

>  <SCORE.INTRA>
-0.46863

>  <SCORE.INTRA.DIHEDRAL>
-0.422392

>  <SCORE.INTRA.DIHEDRAL.0>
3.281

>  <SCORE.INTRA.POLAR>
0

>  <SCORE.INTRA.POLAR.0>
0

>  <SCORE.INTRA.REPUL>
0

>  <SCORE.INTRA.REPUL.0>
0

>  <SCORE.INTRA.SOLV>
-0.71143

>  <SCORE.INTRA.SOLV.lig_0>
-31.9458

>  <SCORE.INTRA.VDW>
0.098281

>  <SCORE.INTRA.VDW.0>
-0.672612

>  <SCORE.INTRA.norm>
-0.046863

>  <SCORE.RESTR>
0

>  <SCORE.RESTR.CAVITY>
0

>  <SCORE.RESTR.norm>
0

>  <SCORE.SYSTEM>
0

>  <SCORE.SYSTEM.CONST>
0

>  <SCORE.SYSTEM.DIHEDRAL>
0

>  <SCORE.SYSTEM.SOLV>
0

>  <SCORE.SYSTEM.norm>
0

>  <SCORE.heavy>
10

>  <SCORE.norm>
-1.07348

>  <RMSD>
4.335

$$$$
ligand
 OpenBabel11021811473D
libRbt.so/2013.1/901 2013/11/27
 10  9  0  0  0  0  0  0  0  0999 V2000
   26.7294   14.8438   20.6225 N   0  0  0  0  0  0  0  0  0  0  0  0
   28.0761   14.4644   20.1096 C   0  0  2  0  0  0  0  0  0  0  0  0
   29.1804   14.9592   21.0331 C   0  0  0  0  0  0  0  0  0  0  0  0
   30.3675   14.9434   20.7042 O   0  0  0  0  0  0  0  0  0  0  0  0
   28.2828   14.9827   18.6881 C   0  0  0  0  0  0  0  0  0  0  0  0
   27.3238   14.3713   17.6929 C   0  0  0  0  0  0  0  0  0  0  0  0
   27.5412   12.8890   17.5456 C   0  0  0  0  0  0  0  0  0  0  0  0
   26.3791   12.2440   16.8111 C   0  0  0  0  0  0  0  0  0  0  0  0
   26.4811   10.7614   16.7957 N   0  0  0  0  0  0  0  0  0  0  0  0
   28.9089   15.4274   22.1398 O   0  0  0  0  0  0  0  0  0  0  0  0
  2  1  1  1  0  0  0
  2  3  1  0  0  0  0
  2  5  1  0  0  0  0
  3  4  1  0  0  0  0
  3 10  1  0  0  0  0
  5  6  1  0  0  0  0
  6  7  1  0  0  0  0
  7  8  1  0  0  0  0
  8  9  1  0  0  0  0
M  END
>  <CHROM.1>
-168.39597041,-63.59234309,-64.49109251,166.52664041,-172.96253181,27.95627679
14.00519948,19.24374591,1.14057530,0.07260442,0.96876646

>  <Name>
ligand

>  <RI>
0

>  <Rbt.Current_Directory>
/home/itssahil/PROJECTS/Mol_Feturizer/New_Systems/rnas/3DIX

>  <Rbt.Executable>
rbdock ($Id: //depot/dev/client3/rdock/2013.1/src/exe/rbdock.cxx#4 $)

>  <Rbt.Library>
libRbt.so (2013.1, Build901 2013/11/27)

>  <Rbt.Parameter_File>
/export/apps/rDock/src/rDock_2013.1_src/data/scripts/dock_solv.prm

>  <Rbt.Receptor>
prm/pocket_docking_8.prm

>  <SCORE>
-8.40692

>  <SCORE.INTER>
-8.51585

>  <SCORE.INTER.CONST>
1

>  <SCORE.INTER.POLAR>
0

>  <SCORE.INTER.ROT>
5

>  <SCORE.INTER.SOLV>
18.1938

>  <SCORE.INTER.VDW>
-18.6752

>  <SCORE.INTER.norm>
-0.851585

>  <SCORE.INTRA>
0.108928

>  <SCORE.INTRA.DIHEDRAL>
-0.697603

>  <SCORE.INTRA.DIHEDRAL.0>
3.281

>  <SCORE.INTRA.POLAR>
0

>  <SCORE.INTRA.POLAR.0>
0

>  <SCORE.INTRA.REPUL>
0

>  <SCORE.INTRA.REPUL.0>
0

>  <SCORE.INTRA.SOLV>
-0.0945924

>  <SCORE.INTRA.SOLV.lig_0>
-31.9458

>  <SCORE.INTRA.VDW>
0.505026

>  <SCORE.INTRA.VDW.0>
-0.672612

>  <SCORE.INTRA.norm>
0.0108928

>  <SCORE.RESTR>
0

>  <SCORE.RESTR.CAVITY>
0

>  <SCORE.RESTR.norm>
0

>  <SCORE.SYSTEM>
0

>  <SCORE.SYSTEM.CONST>
0

>  <SCORE.SYSTEM.DIHEDRAL>
0

>  <SCORE.SYSTEM.SOLV>
0

>  <SCORE.SYSTEM.norm>
0

>  <SCORE.heavy>
10

>  <SCORE.norm>
-0.840692

>  <RMSD>
4.346

$$$$
ligand
 OpenBabel11021811473D
libRbt.so/2013.1/901 2013/11/27
 10  9  0  0  0  0  0  0  0  0999 V2000
   29.6822   16.2018   20.2064 N   0  0  0  0  0  0  0  0  0  0  0  0
   28.2023   16.1659   20.3771 C   0  0  2  0  0  0  0  0  0  0  0  0
   27.7994   15.2592   21.5315 C   0  0  0  0  0  0  0  0  0  0  0  0
   26.6387   15.1913   21.9389 O   0  0  0  0  0  0  0  0  0  0  0  0
   27.5157   15.7360   19.0827 C   0  0  0  0  0  0  0  0  0  0  0  0
   27.9082   14.3449   18.6414 C   0  0  0  0  0  0  0  0  0  0  0  0
   26.9886   13.8175   17.5725 C   0  0  0  0  0  0  0  0  0  0  0  0
   27.3088   12.3679   17.2528 C   0  0  0  0  0  0  0  0  0  0  0  0
   26.2317   11.7189   16.4609 N   0  0  0  0  0  0  0  0  0  0  0  0
   28.6310   14.5320   22.0770 O   0  0  0  0  0  0  0  0  0  0  0  0
  2  1  1  6  0  0  0
  2  3  1  0  0  0  0
  2  5  1  0  0  0  0
  3  4  1  0  0  0  0
  3 10  1  0  0  0  0
  5  6  1  0  0  0  0
  6  7  1  0  0  0  0
  7  8  1  0  0  0  0
  8  9  1  0  0  0  0
M  END
>  <CHROM.1>
172.22694052,61.68558626,166.21422395,-173.87673223,166.02051808,27.68382397
14.52086109,19.54919704,-1.16502501,-0.87612183,-1.84899715

>  <Name>
ligand

>  <RI>
0

>  <Rbt.Current_Directory>
/home/itssahil/PROJECTS/Mol_Feturizer/New_Systems/rnas/3DIX

>  <Rbt.Executable>
rbdock ($Id: //depot/dev/client3/rdock/2013.1/src/exe/rbdock.cxx#4 $)

>  <Rbt.Library>
libRbt.so (2013.1, Build901 2013/11/27)

>  <Rbt.Parameter_File>
/export/apps/rDock/src/rDock_2013.1_src/data/scripts/dock_solv.prm

>  <Rbt.Receptor>
prm/pocket_docking_5.prm

>  <SCORE>
-10.7517

>  <SCORE.INTER>
-10.3991

>  <SCORE.INTER.CONST>
1

>  <SCORE.INTER.POLAR>
0

>  <SCORE.INTER.ROT>
5

>  <SCORE.INTER.SOLV>
15.0384

>  <SCORE.INTER.VDW>
-18.8789

>  <SCORE.INTER.norm>
-1.03991

>  <SCORE.INTRA>
-0.35254

>  <SCORE.INTRA.DIHEDRAL>
-0.188363

>  <SCORE.INTRA.DIHEDRAL.0>
3.281

>  <SCORE.INTRA.POLAR>
0

>  <SCORE.INTRA.POLAR.0>
0

>  <SCORE.INTRA.REPUL>
0

>  <SCORE.INTRA.REPUL.0>
0

>  <SCORE.INTRA.SOLV>
-0.695386

>  <SCORE.INTRA.SOLV.lig_0>
-31.9458

>  <SCORE.INTRA.VDW>
0.0893341

>  <SCORE.INTRA.VDW.0>
-0.672612

>  <SCORE.INTRA.norm>
-0.035254

>  <SCORE.RESTR>
0

>  <SCORE.RESTR.CAVITY>
0

>  <SCORE.RESTR.norm>
0

>  <SCORE.SYSTEM>
0

>  <SCORE.SYSTEM.CONST>
0

>  <SCORE.SYSTEM.DIHEDRAL>
0

>  <SCORE.SYSTEM.SOLV>
0

>  <SCORE.SYSTEM.norm>
0

>  <SCORE.heavy>
10

>  <SCORE.norm>
-1.07517

>  <RMSD>
4.363

$$$$
ligand
 OpenBabel11021811473D
libRbt.so/2013.1/901 2013/11/27
 10  9  0  0  0  0  0  0  0  0999 V2000
   29.7015   16.1622   20.2585 N   0  0  0  0  0  0  0  0  0  0  0  0
   28.2160   16.1561   20.3763 C   0  0  2  0  0  0  0  0  0  0  0  0
   27.7536   15.2513   21.5097 C   0  0  0  0  0  0  0  0  0  0  0  0
   26.5768   15.2001   21.8707 O   0  0  0  0  0  0  0  0  0  0  0  0
   27.5671   15.7482   19.0555 C   0  0  0  0  0  0  0  0  0  0  0  0
   27.9366   14.3473   18.6255 C   0  0  0  0  0  0  0  0  0  0  0  0
   27.0182   13.8327   17.5494 C   0  0  0  0  0  0  0  0  0  0  0  0
   27.3090   12.3738   17.2445 C   0  0  0  0  0  0  0  0  0  0  0  0
   26.2298   11.7449   16.4393 N   0  0  0  0  0  0  0  0  0  0  0  0
   28.5515   14.5089   22.0841 O   0  0  0  0  0  0  0  0  0  0  0  0
  2  1  1  6  0  0  0
  2  3  1  0  0  0  0
  2  5  1  0  0  0  0
  3  4  1  0  0  0  0
  3 10  1  0  0  0  0
  5  6  1  0  0  0  0
  6  7  1  0  0  0  0
  7  8  1  0  0  0  0
  8  9  1  0  0  0  0
M  END
>  <CHROM.1>
172.60776225,62.20072699,164.52883883,-173.64396406,166.26662523,27.67778026
14.51984581,19.53595930,-1.18668148,-0.84854819,-1.86913167

>  <Name>
ligand

>  <RI>
0

>  <Rbt.Current_Directory>
/home/itssahil/PROJECTS/Mol_Feturizer/New_Systems/rnas/3DIX

>  <Rbt.Executable>
rbdock ($Id: //depot/dev/client3/rdock/2013.1/src/exe/rbdock.cxx#4 $)

>  <Rbt.Library>
libRbt.so (2013.1, Build901 2013/11/27)

>  <Rbt.Parameter_File>
/export/apps/rDock/src/rDock_2013.1_src/data/scripts/dock_solv.prm

>  <Rbt.Receptor>
prm/pocket_docking_7.prm

>  <SCORE>
-10.7751

>  <SCORE.INTER>
-10.5125

>  <SCORE.INTER.CONST>
1

>  <SCORE.INTER.POLAR>
0

>  <SCORE.INTER.ROT>
5

>  <SCORE.INTER.SOLV>
15.031

>  <SCORE.INTER.VDW>
-18.952

>  <SCORE.INTER.norm>
-1.05125

>  <SCORE.INTRA>
-0.262646

>  <SCORE.INTRA.DIHEDRAL>
-0.00479555

>  <SCORE.INTRA.DIHEDRAL.0>
3.281

>  <SCORE.INTRA.POLAR>
0

>  <SCORE.INTRA.POLAR.0>
0

>  <SCORE.INTRA.REPUL>
0

>  <SCORE.INTRA.REPUL.0>
0

>  <SCORE.INTRA.SOLV>
-0.706983

>  <SCORE.INTRA.SOLV.lig_0>
-31.9458

>  <SCORE.INTRA.VDW>
0.0932434

>  <SCORE.INTRA.VDW.0>
-0.672612

>  <SCORE.INTRA.norm>
-0.0262646

>  <SCORE.RESTR>
0

>  <SCORE.RESTR.CAVITY>
0

>  <SCORE.RESTR.norm>
0

>  <SCORE.SYSTEM>
0

>  <SCORE.SYSTEM.CONST>
0

>  <SCORE.SYSTEM.DIHEDRAL>
0

>  <SCORE.SYSTEM.SOLV>
0

>  <SCORE.SYSTEM.norm>
0

>  <SCORE.heavy>
10

>  <SCORE.norm>
-1.07751

>  <RMSD>
4.384

$$$$
ligand
 OpenBabel11021811473D
libRbt.so/2013.1/901 2013/11/27
 10  9  0  0  0  0  0  0  0  0999 V2000
   27.5979   15.2127   21.5883 N   0  0  0  0  0  0  0  0  0  0  0  0
   28.0302   15.2032   20.1622 C   0  0  2  0  0  0  0  0  0  0  0  0
   28.4189   16.5976   19.6916 C   0  0  0  0  0  0  0  0  0  0  0  0
   29.5922   16.9254   19.5081 O   0  0  0  0  0  0  0  0  0  0  0  0
   26.9431   14.6108   19.2682 C   0  0  0  0  0  0  0  0  0  0  0  0
   27.3745   14.4770   17.8260 C   0  0  0  0  0  0  0  0  0  0  0  0
   27.7416   13.0582   17.4819 C   0  0  0  0  0  0  0  0  0  0  0  0
   26.5012   12.2425   17.1624 C   0  0  0  0  0  0  0  0  0  0  0  0
   26.8192   10.8099   16.9280 N   0  0  0  0  0  0  0  0  0  0  0  0
   27.5540   17.4398   19.4457 O   0  0  0  0  0  0  0  0  0  0  0  0
  2  1  1  1  0  0  0
  2  3  1  0  0  0  0
  2  5  1  0  0  0  0
  3  4  1  0  0  0  0
  3 10  1  0  0  0  0
  5  6  1  0  0  0  0
  6  7  1  0  0  0  0
  7  8  1  0  0  0  0
  8  9  1  0  0  0  0
M  END
>  <CHROM.1>
106.44228572,-175.43630094,102.22897199,82.27782428,-175.28407433,27.66948100
14.69716336,18.90188488,0.91980780,1.13830320,1.14598969

>  <Name>
ligand

>  <RI>
0

>  <Rbt.Current_Directory>
/home/itssahil/PROJECTS/Mol_Feturizer/New_Systems/rnas/3DIX

>  <Rbt.Executable>
rbdock ($Id: //depot/dev/client3/rdock/2013.1/src/exe/rbdock.cxx#4 $)

>  <Rbt.Library>
libRbt.so (2013.1, Build901 2013/11/27)

>  <Rbt.Parameter_File>
/export/apps/rDock/src/rDock_2013.1_src/data/scripts/dock_solv.prm

>  <Rbt.Receptor>
prm/blind_docking_40.prm

>  <SCORE>
-5.20605

>  <SCORE.INTER>
-7.51833

>  <SCORE.INTER.CONST>
1

>  <SCORE.INTER.POLAR>
0

>  <SCORE.INTER.ROT>
5

>  <SCORE.INTER.SOLV>
18.0414

>  <SCORE.INTER.VDW>
-17.9594

>  <SCORE.INTER.norm>
-0.751833

>  <SCORE.INTRA>
2.31228

>  <SCORE.INTRA.DIHEDRAL>
5.15946

>  <SCORE.INTRA.DIHEDRAL.0>
3.281

>  <SCORE.INTRA.POLAR>
0

>  <SCORE.INTRA.POLAR.0>
0

>  <SCORE.INTRA.REPUL>
0

>  <SCORE.INTRA.REPUL.0>
0

>  <SCORE.INTRA.SOLV>
-1.33731

>  <SCORE.INTRA.SOLV.lig_0>
-31.9458

>  <SCORE.INTRA.VDW>
0.401206

>  <SCORE.INTRA.VDW.0>
-0.672612

>  <SCORE.INTRA.norm>
0.231228

>  <SCORE.RESTR>
0

>  <SCORE.RESTR.CAVITY>
0

>  <SCORE.RESTR.norm>
0

>  <SCORE.SYSTEM>
0

>  <SCORE.SYSTEM.CONST>
0

>  <SCORE.SYSTEM.DIHEDRAL>
0

>  <SCORE.SYSTEM.SOLV>
0

>  <SCORE.SYSTEM.norm>
0

>  <SCORE.heavy>
10

>  <SCORE.norm>
-0.520605

>  <RMSD>
4.488

$$$$
ligand
 OpenBabel11021811473D
libRbt.so/2013.1/901 2013/11/27
 10  9  0  0  0  0  0  0  0  0999 V2000
   28.1220   16.9536   18.7879 N   0  0  0  0  0  0  0  0  0  0  0  0
   27.5450   15.8644   19.6254 C   0  0  2  0  0  0  0  0  0  0  0  0
   27.9523   16.0124   21.0846 C   0  0  0  0  0  0  0  0  0  0  0  0
   27.3378   15.4583   21.9973 O   0  0  0  0  0  0  0  0  0  0  0  0
   27.9450   14.4931   19.0855 C   0  0  0  0  0  0  0  0  0  0  0  0
   27.1538   14.0874   17.8635 C   0  0  0  0  0  0  0  0  0  0  0  0
   27.4641   12.6766   17.4400 C   0  0  0  0  0  0  0  0  0  0  0  0
   26.2649   12.0422   16.7577 C   0  0  0  0  0  0  0  0  0  0  0  0
   26.3769   10.5617   16.6930 N   0  0  0  0  0  0  0  0  0  0  0  0
   28.9439   16.6747   21.3944 O   0  0  0  0  0  0  0  0  0  0  0  0
  2  1  1  6  0  0  0
  2  3  1  0  0  0  0
  2  5  1  0  0  0  0
  3  4  1  0  0  0  0
  3 10  1  0  0  0  0
  5  6  1  0  0  0  0
  6  7  1  0  0  0  0
  7  8  1  0  0  0  0
  8  9  1  0  0  0  0
M  END
>  <CHROM.1>
160.80190607,-76.94272002,-173.97429873,150.71187094,-162.89516431,27.52171690
14.49521248,19.11394617,-0.74437021,-1.23675769,-1.61606787

>  <Name>
ligand

>  <RI>
0

>  <Rbt.Current_Directory>
/home/itssahil/PROJECTS/Mol_Feturizer/New_Systems/rnas/3DIX

>  <Rbt.Executable>
rbdock ($Id: //depot/dev/client3/rdock/2013.1/src/exe/rbdock.cxx#4 $)

>  <Rbt.Library>
libRbt.so (2013.1, Build901 2013/11/27)

>  <Rbt.Parameter_File>
/export/apps/rDock/src/rDock_2013.1_src/data/scripts/dock_solv.prm

>  <Rbt.Receptor>
prm/pocket_docking_5.prm

>  <SCORE>
-8.38657

>  <SCORE.INTER>
-9.43842

>  <SCORE.INTER.CONST>
1

>  <SCORE.INTER.POLAR>
0

>  <SCORE.INTER.ROT>
5

>  <SCORE.INTER.SOLV>
17.4684

>  <SCORE.INTER.VDW>
-19.0484

>  <SCORE.INTER.norm>
-0.943842

>  <SCORE.INTRA>
1.05185

>  <SCORE.INTRA.DIHEDRAL>
3.37611

>  <SCORE.INTRA.DIHEDRAL.0>
3.281

>  <SCORE.INTRA.POLAR>
0

>  <SCORE.INTRA.POLAR.0>
0

>  <SCORE.INTRA.REPUL>
0

>  <SCORE.INTRA.REPUL.0>
0

>  <SCORE.INTRA.SOLV>
-0.868214

>  <SCORE.INTRA.SOLV.lig_0>
-31.9458

>  <SCORE.INTRA.VDW>
-0.202094

>  <SCORE.INTRA.VDW.0>
-0.672612

>  <SCORE.INTRA.norm>
0.105185

>  <SCORE.RESTR>
0

>  <SCORE.RESTR.CAVITY>
0

>  <SCORE.RESTR.norm>
0

>  <SCORE.SYSTEM>
0

>  <SCORE.SYSTEM.CONST>
0

>  <SCORE.SYSTEM.DIHEDRAL>
0

>  <SCORE.SYSTEM.SOLV>
0

>  <SCORE.SYSTEM.norm>
0

>  <SCORE.heavy>
10

>  <SCORE.norm>
-0.838657

>  <RMSD>
4.551

$$$$
ligand
 OpenBabel11021811473D
libRbt.so/2013.1/901 2013/11/27
 10  9  0  0  0  0  0  0  0  0999 V2000
   29.3301   16.1811   19.6356 N   0  0  0  0  0  0  0  0  0  0  0  0
   27.9131   15.9538   20.0372 C   0  0  2  0  0  0  0  0  0  0  0  0
   27.8239   15.1151   21.3043 C   0  0  0  0  0  0  0  0  0  0  0  0
   28.7319   14.3613   21.6581 O   0  0  0  0  0  0  0  0  0  0  0  0
   27.1225   15.3087   18.9011 C   0  0  0  0  0  0  0  0  0  0  0  0
   27.7493   14.0282   18.4001 C   0  0  0  0  0  0  0  0  0  0  0  0
   26.8264   13.2781   17.4771 C   0  0  0  0  0  0  0  0  0  0  0  0
   27.3854   11.9032   17.1559 C   0  0  0  0  0  0  0  0  0  0  0  0
   26.3428   10.9851   16.6281 N   0  0  0  0  0  0  0  0  0  0  0  0
   26.8387   15.1938   22.0399 O   0  0  0  0  0  0  0  0  0  0  0  0
  2  1  1  6  0  0  0
  2  3  1  0  0  0  0
  2  5  1  0  0  0  0
  3  4  1  0  0  0  0
  3 10  1  0  0  0  0
  5  6  1  0  0  0  0
  6  7  1  0  0  0  0
  7  8  1  0  0  0  0
  8  9  1  0  0  0  0
M  END
>  <CHROM.1>
-23.23274149,55.00965199,168.97654284,-171.36906499,161.64818363,27.60605064
14.22137067,19.36129418,-1.06901109,-1.09803118,-1.81318419

>  <Name>
ligand

>  <RI>
0

>  <Rbt.Current_Directory>
/home/itssahil/PROJECTS/Mol_Feturizer/New_Systems/rnas/3DIX

>  <Rbt.Executable>
rbdock ($Id: //depot/dev/client3/rdock/2013.1/src/exe/rbdock.cxx#4 $)

>  <Rbt.Library>
libRbt.so (2013.1, Build901 2013/11/27)

>  <Rbt.Parameter_File>
/export/apps/rDock/src/rDock_2013.1_src/data/scripts/dock_solv.prm

>  <Rbt.Receptor>
prm/pocket_docking_8.prm

>  <SCORE>
-10.8559

>  <SCORE.INTER>
-10.6998

>  <SCORE.INTER.CONST>
1

>  <SCORE.INTER.POLAR>
0

>  <SCORE.INTER.ROT>
5

>  <SCORE.INTER.SOLV>
13.8297

>  <SCORE.INTER.VDW>
-18.6764

>  <SCORE.INTER.norm>
-1.06998

>  <SCORE.INTRA>
-0.156081

>  <SCORE.INTRA.DIHEDRAL>
0.366054

>  <SCORE.INTRA.DIHEDRAL.0>
3.281

>  <SCORE.INTRA.POLAR>
0

>  <SCORE.INTRA.POLAR.0>
0

>  <SCORE.INTRA.REPUL>
0

>  <SCORE.INTRA.REPUL.0>
0

>  <SCORE.INTRA.SOLV>
-0.599925

>  <SCORE.INTRA.SOLV.lig_0>
-31.9458

>  <SCORE.INTRA.VDW>
-0.0391454

>  <SCORE.INTRA.VDW.0>
-0.672612

>  <SCORE.INTRA.norm>
-0.0156081

>  <SCORE.RESTR>
0

>  <SCORE.RESTR.CAVITY>
0

>  <SCORE.RESTR.norm>
0

>  <SCORE.SYSTEM>
0

>  <SCORE.SYSTEM.CONST>
0

>  <SCORE.SYSTEM.DIHEDRAL>
0

>  <SCORE.SYSTEM.SOLV>
0

>  <SCORE.SYSTEM.norm>
0

>  <SCORE.heavy>
10

>  <SCORE.norm>
-1.08559

>  <RMSD>
4.557

$$$$
ligand
 OpenBabel11021811473D
libRbt.so/2013.1/901 2013/11/27
 10  9  0  0  0  0  0  0  0  0999 V2000
   29.3142   16.1652   19.7028 N   0  0  0  0  0  0  0  0  0  0  0  0
   27.8862   15.9462   20.0682 C   0  0  2  0  0  0  0  0  0  0  0  0
   27.7598   15.0958   21.3244 C   0  0  0  0  0  0  0  0  0  0  0  0
   26.7617   15.1342   22.0456 O   0  0  0  0  0  0  0  0  0  0  0  0
   27.1176   15.3191   18.9073 C   0  0  0  0  0  0  0  0  0  0  0  0
   27.7341   14.0277   18.4217 C   0  0  0  0  0  0  0  0  0  0  0  0
   26.8227   13.2953   17.4734 C   0  0  0  0  0  0  0  0  0  0  0  0
   27.3677   11.9127   17.1613 C   0  0  0  0  0  0  0  0  0  0  0  0
   26.3285   11.0183   16.5880 N   0  0  0  0  0  0  0  0  0  0  0  0
   28.6531   14.3087   21.6408 O   0  0  0  0  0  0  0  0  0  0  0  0
  2  1  1  6  0  0  0
  2  3  1  0  0  0  0
  2  5  1  0  0  0  0
  3  4  1  0  0  0  0
  3 10  1  0  0  0  0
  5  6  1  0  0  0  0
  6  7  1  0  0  0  0
  7  8  1  0  0  0  0
  8  9  1  0  0  0  0
M  END
>  <CHROM.1>
156.23867656,55.85094754,168.76697734,-171.60083265,162.38699158,27.57332894
14.21168260,19.37016305,-1.10325612,-1.08026758,-1.83943113

>  <Name>
ligand

>  <RI>
0

>  <Rbt.Current_Directory>
/home/itssahil/PROJECTS/Mol_Feturizer/New_Systems/rnas/3DIX

>  <Rbt.Executable>
rbdock ($Id: //depot/dev/client3/rdock/2013.1/src/exe/rbdock.cxx#4 $)

>  <Rbt.Library>
libRbt.so (2013.1, Build901 2013/11/27)

>  <Rbt.Parameter_File>
/export/apps/rDock/src/rDock_2013.1_src/data/scripts/dock_solv.prm

>  <Rbt.Receptor>
prm/pocket_docking_7.prm

>  <SCORE>
-10.8731

>  <SCORE.INTER>
-10.6008

>  <SCORE.INTER.CONST>
1

>  <SCORE.INTER.POLAR>
0

>  <SCORE.INTER.ROT>
5

>  <SCORE.INTER.SOLV>
13.917

>  <SCORE.INTER.VDW>
-18.6395

>  <SCORE.INTER.norm>
-1.06008

>  <SCORE.INTRA>
-0.272304

>  <SCORE.INTRA.DIHEDRAL>
0.118269

>  <SCORE.INTRA.DIHEDRAL.0>
3.281

>  <SCORE.INTRA.POLAR>
0

>  <SCORE.INTRA.POLAR.0>
0

>  <SCORE.INTRA.REPUL>
0

>  <SCORE.INTRA.REPUL.0>
0

>  <SCORE.INTRA.SOLV>
-0.61011

>  <SCORE.INTRA.SOLV.lig_0>
-31.9458

>  <SCORE.INTRA.VDW>
-0.0263836

>  <SCORE.INTRA.VDW.0>
-0.672612

>  <SCORE.INTRA.norm>
-0.0272304

>  <SCORE.RESTR>
0

>  <SCORE.RESTR.CAVITY>
0

>  <SCORE.RESTR.norm>
0

>  <SCORE.SYSTEM>
0

>  <SCORE.SYSTEM.CONST>
0

>  <SCORE.SYSTEM.DIHEDRAL>
0

>  <SCORE.SYSTEM.SOLV>
0

>  <SCORE.SYSTEM.norm>
0

>  <SCORE.heavy>
10

>  <SCORE.norm>
-1.08731

>  <RMSD>
4.592

$$$$
ligand
 OpenBabel11021811473D
libRbt.so/2013.1/901 2013/11/27
 10  9  0  0  0  0  0  0  0  0999 V2000
   29.4618   16.0645   19.8854 N   0  0  0  0  0  0  0  0  0  0  0  0
   27.9888   15.9676   20.0892 C   0  0  2  0  0  0  0  0  0  0  0  0
   27.6527   15.1264   21.3125 C   0  0  0  0  0  0  0  0  0  0  0  0
   26.5123   15.0657   21.7746 O   0  0  0  0  0  0  0  0  0  0  0  0
   27.3024   15.4136   18.8428 C   0  0  0  0  0  0  0  0  0  0  0  0
   27.8392   14.0640   18.4253 C   0  0  0  0  0  0  0  0  0  0  0  0
   26.9049   13.3598   17.4780 C   0  0  0  0  0  0  0  0  0  0  0  0
   27.4009   11.9569   17.1747 C   0  0  0  0  0  0  0  0  0  0  0  0
   26.3365   11.1024   16.5871 N   0  0  0  0  0  0  0  0  0  0  0  0
   28.5200   14.4460   21.8627 O   0  0  0  0  0  0  0  0  0  0  0  0
  2  1  1  6  0  0  0
  2  3  1  0  0  0  0
  2  5  1  0  0  0  0
  3  4  1  0  0  0  0
  3 10  1  0  0  0  0
  5  6  1  0  0  0  0
  6  7  1  0  0  0  0
  7  8  1  0  0  0  0
  8  9  1  0  0  0  0
M  END
>  <CHROM.1>
169.74613352,56.91231942,162.98722070,-174.73219516,163.09931870,27.58606422
14.24618456,19.37929051,-1.20956858,-0.94147858,-1.95422934

>  <Name>
ligand

>  <RI>
0

>  <Rbt.Current_Directory>
/home/itssahil/PROJECTS/Mol_Feturizer/New_Systems/rnas/3DIX

>  <Rbt.Executable>
rbdock ($Id: //depot/dev/client3/rdock/2013.1/src/exe/rbdock.cxx#4 $)

>  <Rbt.Library>
libRbt.so (2013.1, Build901 2013/11/27)

>  <Rbt.Parameter_File>
/export/apps/rDock/src/rDock_2013.1_src/data/scripts/dock_solv.prm

>  <Rbt.Receptor>
prm/pocket_docking_7.prm

>  <SCORE>
-10.7753

>  <SCORE.INTER>
-10.7451

>  <SCORE.INTER.CONST>
1

>  <SCORE.INTER.POLAR>
0

>  <SCORE.INTER.ROT>
5

>  <SCORE.INTER.SOLV>
13.8637

>  <SCORE.INTER.VDW>
-18.718

>  <SCORE.INTER.norm>
-1.07451

>  <SCORE.INTRA>
-0.0301955

>  <SCORE.INTRA.DIHEDRAL>
0.477807

>  <SCORE.INTRA.DIHEDRAL.0>
3.281

>  <SCORE.INTRA.POLAR>
0

>  <SCORE.INTRA.POLAR.0>
0

>  <SCORE.INTRA.REPUL>
0

>  <SCORE.INTRA.REPUL.0>
0

>  <SCORE.INTRA.SOLV>
-0.63276

>  <SCORE.INTRA.SOLV.lig_0>
-31.9458

>  <SCORE.INTRA.VDW>
0.0472811

>  <SCORE.INTRA.VDW.0>
-0.672612

>  <SCORE.INTRA.norm>
-0.00301955

>  <SCORE.RESTR>
0

>  <SCORE.RESTR.CAVITY>
0

>  <SCORE.RESTR.norm>
0

>  <SCORE.SYSTEM>
0

>  <SCORE.SYSTEM.CONST>
0

>  <SCORE.SYSTEM.DIHEDRAL>
0

>  <SCORE.SYSTEM.SOLV>
0

>  <SCORE.SYSTEM.norm>
0

>  <SCORE.heavy>
10

>  <SCORE.norm>
-1.07753

>  <RMSD>
4.601

$$$$
ligand
 OpenBabel11021811473D
libRbt.so/2013.1/901 2013/11/27
 10  9  0  0  0  0  0  0  0  0999 V2000
   29.3204   16.1963   19.8797 N   0  0  0  0  0  0  0  0  0  0  0  0
   27.8648   16.0252   20.1493 C   0  0  2  0  0  0  0  0  0  0  0  0
   27.6272   15.1831   21.3949 C   0  0  0  0  0  0  0  0  0  0  0  0
   26.5190   15.0938   21.9255 O   0  0  0  0  0  0  0  0  0  0  0  0
   27.1550   15.4202   18.9402 C   0  0  0  0  0  0  0  0  0  0  0  0
   27.7416   14.0938   18.5154 C   0  0  0  0  0  0  0  0  0  0  0  0
   26.8692   13.3941   17.5077 C   0  0  0  0  0  0  0  0  0  0  0  0
   27.4197   12.0169   17.1818 C   0  0  0  0  0  0  0  0  0  0  0  0
   26.3970   11.1399   16.5545 N   0  0  0  0  0  0  0  0  0  0  0  0
   28.5450   14.5309   21.8949 O   0  0  0  0  0  0  0  0  0  0  0  0
  2  1  1  6  0  0  0
  2  3  1  0  0  0  0
  2  5  1  0  0  0  0
  3  4  1  0  0  0  0
  3 10  1  0  0  0  0
  5  6  1  0  0  0  0
  6  7  1  0  0  0  0
  7  8  1  0  0  0  0
  8  9  1  0  0  0  0
M  END
>  <CHROM.1>
168.01689059,57.04013113,168.82312070,-175.37991092,161.64468744,27.54197799
14.29892628,19.43109063,-1.21391745,-0.99549740,-1.93913066

>  <Name>
ligand

>  <RI>
0

>  <Rbt.Current_Directory>
/home/itssahil/PROJECTS/Mol_Feturizer/New_Systems/rnas/3DIX

>  <Rbt.Executable>
rbdock ($Id: //depot/dev/client3/rdock/2013.1/src/exe/rbdock.cxx#4 $)

>  <Rbt.Library>
libRbt.so (2013.1, Build901 2013/11/27)

>  <Rbt.Parameter_File>
/export/apps/rDock/src/rDock_2013.1_src/data/scripts/dock_solv.prm

>  <Rbt.Receptor>
prm/blind_docking_40.prm

>  <SCORE>
-10.7194

>  <SCORE.INTER>
-10.4462

>  <SCORE.INTER.CONST>
1

>  <SCORE.INTER.POLAR>
0

>  <SCORE.INTER.ROT>
5

>  <SCORE.INTER.SOLV>
14.0353

>  <SCORE.INTER.VDW>
-18.5759

>  <SCORE.INTER.norm>
-1.04462

>  <SCORE.INTRA>
-0.273236

>  <SCORE.INTRA.DIHEDRAL>
-0.0160021

>  <SCORE.INTRA.DIHEDRAL.0>
3.281

>  <SCORE.INTRA.POLAR>
0

>  <SCORE.INTRA.POLAR.0>
0

>  <SCORE.INTRA.REPUL>
0

>  <SCORE.INTRA.REPUL.0>
0

>  <SCORE.INTRA.SOLV>
-0.618364

>  <SCORE.INTRA.SOLV.lig_0>
-31.9458

>  <SCORE.INTRA.VDW>
0.0439471

>  <SCORE.INTRA.VDW.0>
-0.672612

>  <SCORE.INTRA.norm>
-0.0273236

>  <SCORE.RESTR>
0

>  <SCORE.RESTR.CAVITY>
0

>  <SCORE.RESTR.norm>
0

>  <SCORE.SYSTEM>
0

>  <SCORE.SYSTEM.CONST>
0

>  <SCORE.SYSTEM.DIHEDRAL>
0

>  <SCORE.SYSTEM.SOLV>
0

>  <SCORE.SYSTEM.norm>
0

>  <SCORE.heavy>
10

>  <SCORE.norm>
-1.07194

>  <RMSD>
4.602

$$$$
ligand
 OpenBabel11021811473D
libRbt.so/2013.1/901 2013/11/27
 10  9  0  0  0  0  0  0  0  0999 V2000
   29.3385   16.1362   19.7633 N   0  0  0  0  0  0  0  0  0  0  0  0
   27.8886   15.9590   20.0584 C   0  0  2  0  0  0  0  0  0  0  0  0
   27.6762   15.1130   21.3058 C   0  0  0  0  0  0  0  0  0  0  0  0
   26.6187   15.1286   21.9377 O   0  0  0  0  0  0  0  0  0  0  0  0
   27.1595   15.3544   18.8605 C   0  0  0  0  0  0  0  0  0  0  0  0
   27.7565   14.0417   18.4087 C   0  0  0  0  0  0  0  0  0  0  0  0
   26.8508   13.3168   17.4493 C   0  0  0  0  0  0  0  0  0  0  0  0
   27.3778   11.9226   17.1590 C   0  0  0  0  0  0  0  0  0  0  0  0
   26.3323   11.0387   16.5810 N   0  0  0  0  0  0  0  0  0  0  0  0
   28.5593   14.3521   21.7048 O   0  0  0  0  0  0  0  0  0  0  0  0
  2  1  1  6  0  0  0
  2  3  1  0  0  0  0
  2  5  1  0  0  0  0
  3  4  1  0  0  0  0
  3 10  1  0  0  0  0
  5  6  1  0  0  0  0
  6  7  1  0  0  0  0
  7  8  1  0  0  0  0
  8  9  1  0  0  0  0
M  END
>  <CHROM.1>
160.13436994,56.16077033,166.97692019,-172.19484228,162.04219566,27.55257726
14.22577570,19.35944928,-1.16743641,-1.02996403,-1.90738223

>  <Name>
ligand

>  <RI>
0

>  <Rbt.Current_Directory>
/home/itssahil/PROJECTS/Mol_Feturizer/New_Systems/rnas/3DIX

>  <Rbt.Executable>
rbdock ($Id: //depot/dev/client3/rdock/2013.1/src/exe/rbdock.cxx#4 $)

>  <Rbt.Library>
libRbt.so (2013.1, Build901 2013/11/27)

>  <Rbt.Parameter_File>
/export/apps/rDock/src/rDock_2013.1_src/data/scripts/dock_solv.prm

>  <Rbt.Receptor>
prm/pocket_docking_8.prm

>  <SCORE>
-10.7963

>  <SCORE.INTER>
-10.6192

>  <SCORE.INTER.CONST>
1

>  <SCORE.INTER.POLAR>
0

>  <SCORE.INTER.ROT>
5

>  <SCORE.INTER.SOLV>
13.907

>  <SCORE.INTER.VDW>
-18.6485

>  <SCORE.INTER.norm>
-1.06192

>  <SCORE.INTRA>
-0.177123

>  <SCORE.INTRA.DIHEDRAL>
0.283503

>  <SCORE.INTRA.DIHEDRAL.0>
3.281

>  <SCORE.INTRA.POLAR>
0

>  <SCORE.INTRA.POLAR.0>
0

>  <SCORE.INTRA.REPUL>
0

>  <SCORE.INTRA.REPUL.0>
0

>  <SCORE.INTRA.SOLV>
-0.615979

>  <SCORE.INTRA.SOLV.lig_0>
-31.9458

>  <SCORE.INTRA.VDW>
-0.0108851

>  <SCORE.INTRA.VDW.0>
-0.672612

>  <SCORE.INTRA.norm>
-0.0177123

>  <SCORE.RESTR>
0

>  <SCORE.RESTR.CAVITY>
0

>  <SCORE.RESTR.norm>
0

>  <SCORE.SYSTEM>
0

>  <SCORE.SYSTEM.CONST>
0

>  <SCORE.SYSTEM.DIHEDRAL>
0

>  <SCORE.SYSTEM.SOLV>
0

>  <SCORE.SYSTEM.norm>
0

>  <SCORE.heavy>
10

>  <SCORE.norm>
-1.07963

>  <RMSD>
4.622

$$$$
ligand
 OpenBabel11021811473D
libRbt.so/2013.1/901 2013/11/27
 10  9  0  0  0  0  0  0  0  0999 V2000
   28.1928   16.8656   18.7332 N   0  0  0  0  0  0  0  0  0  0  0  0
   27.5373   15.8074   19.5525 C   0  0  2  0  0  0  0  0  0  0  0  0
   27.8763   15.9599   21.0286 C   0  0  0  0  0  0  0  0  0  0  0  0
   28.8536   16.6027   21.4149 O   0  0  0  0  0  0  0  0  0  0  0  0
   27.9158   14.4165   19.0484 C   0  0  0  0  0  0  0  0  0  0  0  0
   27.1584   14.0146   17.8039 C   0  0  0  0  0  0  0  0  0  0  0  0
   27.4663   12.5989   17.3953 C   0  0  0  0  0  0  0  0  0  0  0  0
   26.2471   11.9393   16.7750 C   0  0  0  0  0  0  0  0  0  0  0  0
   26.3956   10.4635   16.6836 N   0  0  0  0  0  0  0  0  0  0  0  0
   27.1513   15.4639   21.8925 O   0  0  0  0  0  0  0  0  0  0  0  0
  2  1  1  6  0  0  0
  2  3  1  0  0  0  0
  2  5  1  0  0  0  0
  3  4  1  0  0  0  0
  3 10  1  0  0  0  0
  5  6  1  0  0  0  0
  6  7  1  0  0  0  0
  7  8  1  0  0  0  0
  8  9  1  0  0  0  0
M  END
>  <CHROM.1>
-19.86800325,-77.76685157,-175.28675680,146.32708170,-165.22407964,27.48804094
14.42668448,19.07422041,-0.89903165,-1.19508781,-1.78689306

>  <Name>
ligand

>  <RI>
0

>  <Rbt.Current_Directory>
/home/itssahil/PROJECTS/Mol_Feturizer/New_Systems/rnas/3DIX

>  <Rbt.Executable>
rbdock ($Id: //depot/dev/client3/rdock/2013.1/src/exe/rbdock.cxx#4 $)

>  <Rbt.Library>
libRbt.so (2013.1, Build901 2013/11/27)

>  <Rbt.Parameter_File>
/export/apps/rDock/src/rDock_2013.1_src/data/scripts/dock_solv.prm

>  <Rbt.Receptor>
prm/pocket_docking_6.prm

>  <SCORE>
-8.39677

>  <SCORE.INTER>
-9.71994

>  <SCORE.INTER.CONST>
1

>  <SCORE.INTER.POLAR>
0

>  <SCORE.INTER.ROT>
5

>  <SCORE.INTER.SOLV>
17.0558

>  <SCORE.INTER.VDW>
-19.0986

>  <SCORE.INTER.norm>
-0.971994

>  <SCORE.INTRA>
1.32318

>  <SCORE.INTRA.DIHEDRAL>
3.98885

>  <SCORE.INTRA.DIHEDRAL.0>
3.281

>  <SCORE.INTRA.POLAR>
0

>  <SCORE.INTRA.POLAR.0>
0

>  <SCORE.INTRA.REPUL>
0

>  <SCORE.INTRA.REPUL.0>
0

>  <SCORE.INTRA.SOLV>
-0.883468

>  <SCORE.INTRA.SOLV.lig_0>
-31.9458

>  <SCORE.INTRA.VDW>
-0.229512

>  <SCORE.INTRA.VDW.0>
-0.672612

>  <SCORE.INTRA.norm>
0.132318

>  <SCORE.RESTR>
0

>  <SCORE.RESTR.CAVITY>
0

>  <SCORE.RESTR.norm>
0

>  <SCORE.SYSTEM>
0

>  <SCORE.SYSTEM.CONST>
0

>  <SCORE.SYSTEM.DIHEDRAL>
0

>  <SCORE.SYSTEM.SOLV>
0

>  <SCORE.SYSTEM.norm>
0

>  <SCORE.heavy>
10

>  <SCORE.norm>
-0.839677

>  <RMSD>
4.623

$$$$
ligand
 OpenBabel11021811473D
libRbt.so/2013.1/901 2013/11/27
 10  9  0  0  0  0  0  0  0  0999 V2000
   29.3404   16.1266   19.7177 N   0  0  0  0  0  0  0  0  0  0  0  0
   27.8920   15.9509   20.0209 C   0  0  2  0  0  0  0  0  0  0  0  0
   27.6861   15.1144   21.2760 C   0  0  0  0  0  0  0  0  0  0  0  0
   28.5857   14.4274   21.7620 O   0  0  0  0  0  0  0  0  0  0  0  0
   27.1578   15.3365   18.8313 C   0  0  0  0  0  0  0  0  0  0  0  0
   27.7564   14.0230   18.3839 C   0  0  0  0  0  0  0  0  0  0  0  0
   26.8378   13.2790   17.4518 C   0  0  0  0  0  0  0  0  0  0  0  0
   27.3757   11.8892   17.1601 C   0  0  0  0  0  0  0  0  0  0  0  0
   26.3318   10.9917   16.6005 N   0  0  0  0  0  0  0  0  0  0  0  0
   26.6057   15.1283   21.8680 O   0  0  0  0  0  0  0  0  0  0  0  0
  2  1  1  6  0  0  0
  2  3  1  0  0  0  0
  2  5  1  0  0  0  0
  3  4  1  0  0  0  0
  3 10  1  0  0  0  0
  5  6  1  0  0  0  0
  6  7  1  0  0  0  0
  7  8  1  0  0  0  0
  8  9  1  0  0  0  0
M  END
>  <CHROM.1>
-15.94552096,55.96050016,166.06293263,-172.61584394,162.64244383,27.55370771
14.21730002,19.34442574,-1.16193227,-1.02600837,-1.91271192

>  <Name>
ligand

>  <RI>
0

>  <Rbt.Current_Directory>
/home/itssahil/PROJECTS/Mol_Feturizer/New_Systems/rnas/3DIX

>  <Rbt.Executable>
rbdock ($Id: //depot/dev/client3/rdock/2013.1/src/exe/rbdock.cxx#4 $)

>  <Rbt.Library>
libRbt.so (2013.1, Build901 2013/11/27)

>  <Rbt.Parameter_File>
/export/apps/rDock/src/rDock_2013.1_src/data/scripts/dock_solv.prm

>  <Rbt.Receptor>
prm/pocket_docking_8.prm

>  <SCORE>
-10.8665

>  <SCORE.INTER>
-10.7554

>  <SCORE.INTER.CONST>
1

>  <SCORE.INTER.POLAR>
0

>  <SCORE.INTER.ROT>
5

>  <SCORE.INTER.SOLV>
13.8248

>  <SCORE.INTER.VDW>
-18.7119

>  <SCORE.INTER.norm>
-1.07554

>  <SCORE.INTRA>
-0.111098

>  <SCORE.INTRA.DIHEDRAL>
0.405544

>  <SCORE.INTRA.DIHEDRAL.0>
3.281

>  <SCORE.INTRA.POLAR>
0

>  <SCORE.INTRA.POLAR.0>
0

>  <SCORE.INTRA.REPUL>
0

>  <SCORE.INTRA.REPUL.0>
0

>  <SCORE.INTRA.SOLV>
-0.620877

>  <SCORE.INTRA.SOLV.lig_0>
-31.9458

>  <SCORE.INTRA.VDW>
-0.00343231

>  <SCORE.INTRA.VDW.0>
-0.672612

>  <SCORE.INTRA.norm>
-0.0111098

>  <SCORE.RESTR>
0

>  <SCORE.RESTR.CAVITY>
0

>  <SCORE.RESTR.norm>
0

>  <SCORE.SYSTEM>
0

>  <SCORE.SYSTEM.CONST>
0

>  <SCORE.SYSTEM.DIHEDRAL>
0

>  <SCORE.SYSTEM.SOLV>
0

>  <SCORE.SYSTEM.norm>
0

>  <SCORE.heavy>
10

>  <SCORE.norm>
-1.08665

>  <RMSD>
4.626

$$$$
ligand
 OpenBabel11021811473D
libRbt.so/2013.1/901 2013/11/27
 10  9  0  0  0  0  0  0  0  0999 V2000
   29.3057   16.1201   19.7318 N   0  0  0  0  0  0  0  0  0  0  0  0
   27.8591   15.9457   20.0441 C   0  0  2  0  0  0  0  0  0  0  0  0
   27.6605   15.1203   21.3076 C   0  0  0  0  0  0  0  0  0  0  0  0
   26.6021   15.1293   21.9381 O   0  0  0  0  0  0  0  0  0  0  0  0
   27.1193   15.3200   18.8638 C   0  0  0  0  0  0  0  0  0  0  0  0
   27.7337   14.0169   18.4073 C   0  0  0  0  0  0  0  0  0  0  0  0
   26.8338   13.2792   17.4522 C   0  0  0  0  0  0  0  0  0  0  0  0
   27.3840   11.8960   17.1521 C   0  0  0  0  0  0  0  0  0  0  0  0
   26.3408   10.9836   16.6156 N   0  0  0  0  0  0  0  0  0  0  0  0
   28.5565   14.3834   21.7221 O   0  0  0  0  0  0  0  0  0  0  0  0
  2  1  1  6  0  0  0
  2  3  1  0  0  0  0
  2  5  1  0  0  0  0
  3  4  1  0  0  0  0
  3 10  1  0  0  0  0
  5  6  1  0  0  0  0
  6  7  1  0  0  0  0
  7  8  1  0  0  0  0
  8  9  1  0  0  0  0
M  END
>  <CHROM.1>
161.26915337,54.80596903,167.89231671,-172.47892553,160.38855312,27.53656896
14.20944738,19.36040406,-1.17600655,-1.03212101,-1.92087603

>  <Name>
ligand

>  <RI>
0

>  <Rbt.Current_Directory>
/home/itssahil/PROJECTS/Mol_Feturizer/New_Systems/rnas/3DIX

>  <Rbt.Executable>
rbdock ($Id: //depot/dev/client3/rdock/2013.1/src/exe/rbdock.cxx#4 $)

>  <Rbt.Library>
libRbt.so (2013.1, Build901 2013/11/27)

>  <Rbt.Parameter_File>
/export/apps/rDock/src/rDock_2013.1_src/data/scripts/dock_solv.prm

>  <Rbt.Receptor>
prm/pocket_docking_7.prm

>  <SCORE>
-10.8388

>  <SCORE.INTER>
-10.7566

>  <SCORE.INTER.CONST>
1

>  <SCORE.INTER.POLAR>
0

>  <SCORE.INTER.ROT>
5

>  <SCORE.INTER.SOLV>
13.7779

>  <SCORE.INTER.VDW>
-18.697

>  <SCORE.INTER.norm>
-1.07566

>  <SCORE.INTRA>
-0.0822363

>  <SCORE.INTRA.DIHEDRAL>
0.427519

>  <SCORE.INTRA.DIHEDRAL.0>
3.281

>  <SCORE.INTRA.POLAR>
0

>  <SCORE.INTRA.POLAR.0>
0

>  <SCORE.INTRA.REPUL>
0

>  <SCORE.INTRA.REPUL.0>
0

>  <SCORE.INTRA.SOLV>
-0.591429

>  <SCORE.INTRA.SOLV.lig_0>
-31.9458

>  <SCORE.INTRA.VDW>
-0.0002811

>  <SCORE.INTRA.VDW.0>
-0.672612

>  <SCORE.INTRA.norm>
-0.00822363

>  <SCORE.RESTR>
0

>  <SCORE.RESTR.CAVITY>
0

>  <SCORE.RESTR.norm>
0

>  <SCORE.SYSTEM>
0

>  <SCORE.SYSTEM.CONST>
0

>  <SCORE.SYSTEM.DIHEDRAL>
0

>  <SCORE.SYSTEM.SOLV>
0

>  <SCORE.SYSTEM.norm>
0

>  <SCORE.heavy>
10

>  <SCORE.norm>
-1.08388

>  <RMSD>
4.640

$$$$
ligand
 OpenBabel11021811473D
libRbt.so/2013.1/901 2013/11/27
 10  9  0  0  0  0  0  0  0  0999 V2000
   29.2839   16.1683   19.6854 N   0  0  0  0  0  0  0  0  0  0  0  0
   27.8445   15.9542   20.0061 C   0  0  2  0  0  0  0  0  0  0  0  0
   27.6762   15.1100   21.2616 C   0  0  0  0  0  0  0  0  0  0  0  0
   28.6155   14.4977   21.7719 O   0  0  0  0  0  0  0  0  0  0  0  0
   27.1118   15.3233   18.8242 C   0  0  0  0  0  0  0  0  0  0  0  0
   27.7270   14.0167   18.3790 C   0  0  0  0  0  0  0  0  0  0  0  0
   26.8185   13.2604   17.4469 C   0  0  0  0  0  0  0  0  0  0  0  0
   27.3762   11.8787   17.1536 C   0  0  0  0  0  0  0  0  0  0  0  0
   26.3420   10.9632   16.6051 N   0  0  0  0  0  0  0  0  0  0  0  0
   26.5849   15.0421   21.8294 O   0  0  0  0  0  0  0  0  0  0  0  0
  2  1  1  6  0  0  0
  2  3  1  0  0  0  0
  2  5  1  0  0  0  0
  3  4  1  0  0  0  0
  3 10  1  0  0  0  0
  5  6  1  0  0  0  0
  6  7  1  0  0  0  0
  7  8  1  0  0  0  0
  8  9  1  0  0  0  0
M  END
>  <CHROM.1>
-12.32327219,56.79207870,166.56302944,-172.81289383,162.13860542,27.53554074
14.21192436,19.33352608,-1.14659263,-1.04488272,-1.90046415

>  <Name>
ligand

>  <RI>
0

>  <Rbt.Current_Directory>
/home/itssahil/PROJECTS/Mol_Feturizer/New_Systems/rnas/3DIX

>  <Rbt.Executable>
rbdock ($Id: //depot/dev/client3/rdock/2013.1/src/exe/rbdock.cxx#4 $)

>  <Rbt.Library>
libRbt.so (2013.1, Build901 2013/11/27)

>  <Rbt.Parameter_File>
/export/apps/rDock/src/rDock_2013.1_src/data/scripts/dock_solv.prm

>  <Rbt.Receptor>
prm/blind_docking_60.prm

>  <SCORE>
-10.8604

>  <SCORE.INTER>
-10.7505

>  <SCORE.INTER.CONST>
1

>  <SCORE.INTER.POLAR>
0

>  <SCORE.INTER.ROT>
5

>  <SCORE.INTER.SOLV>
13.8019

>  <SCORE.INTER.VDW>
-18.7009

>  <SCORE.INTER.norm>
-1.07505

>  <SCORE.INTRA>
-0.109937

>  <SCORE.INTRA.DIHEDRAL>
0.364972

>  <SCORE.INTRA.DIHEDRAL.0>
3.281

>  <SCORE.INTRA.POLAR>
0

>  <SCORE.INTRA.POLAR.0>
0

>  <SCORE.INTRA.REPUL>
0

>  <SCORE.INTRA.REPUL.0>
0

>  <SCORE.INTRA.SOLV>
-0.629322

>  <SCORE.INTRA.SOLV.lig_0>
-31.9458

>  <SCORE.INTRA.VDW>
0.0222377

>  <SCORE.INTRA.VDW.0>
-0.672612

>  <SCORE.INTRA.norm>
-0.0109937

>  <SCORE.RESTR>
0

>  <SCORE.RESTR.CAVITY>
0

>  <SCORE.RESTR.norm>
0

>  <SCORE.SYSTEM>
0

>  <SCORE.SYSTEM.CONST>
0

>  <SCORE.SYSTEM.DIHEDRAL>
0

>  <SCORE.SYSTEM.SOLV>
0

>  <SCORE.SYSTEM.norm>
0

>  <SCORE.heavy>
10

>  <SCORE.norm>
-1.08604

>  <RMSD>
4.646

$$$$
ligand
 OpenBabel11021811473D
libRbt.so/2013.1/901 2013/11/27
 10  9  0  0  0  0  0  0  0  0999 V2000
   29.2858   16.1461   19.7274 N   0  0  0  0  0  0  0  0  0  0  0  0
   27.8464   15.9279   20.0458 C   0  0  2  0  0  0  0  0  0  0  0  0
   27.6784   15.0684   21.2908 C   0  0  0  0  0  0  0  0  0  0  0  0
   28.6011   14.3966   21.7543 O   0  0  0  0  0  0  0  0  0  0  0  0
   27.1135   15.3116   18.8563 C   0  0  0  0  0  0  0  0  0  0  0  0
   27.7293   14.0111   18.3943 C   0  0  0  0  0  0  0  0  0  0  0  0
   26.8271   13.2731   17.4416 C   0  0  0  0  0  0  0  0  0  0  0  0
   27.3608   11.8787   17.1643 C   0  0  0  0  0  0  0  0  0  0  0  0
   26.3212   10.9864   16.5885 N   0  0  0  0  0  0  0  0  0  0  0  0
   26.6063   15.0470   21.8975 O   0  0  0  0  0  0  0  0  0  0  0  0
  2  1  1  6  0  0  0
  2  3  1  0  0  0  0
  2  5  1  0  0  0  0
  3  4  1  0  0  0  0
  3 10  1  0  0  0  0
  5  6  1  0  0  0  0
  6  7  1  0  0  0  0
  7  8  1  0  0  0  0
  8  9  1  0  0  0  0
M  END
>  <CHROM.1>
-16.06563069,56.74899397,167.17191484,-171.01196608,162.30946201,27.53456145
14.19467286,19.35314603,-1.13980840,-1.05334415,-1.88137561

>  <Name>
ligand

>  <RI>
0

>  <Rbt.Current_Directory>
/home/itssahil/PROJECTS/Mol_Feturizer/New_Systems/rnas/3DIX

>  <Rbt.Executable>
rbdock ($Id: //depot/dev/client3/rdock/2013.1/src/exe/rbdock.cxx#4 $)

>  <Rbt.Library>
libRbt.so (2013.1, Build901 2013/11/27)

>  <Rbt.Parameter_File>
/export/apps/rDock/src/rDock_2013.1_src/data/scripts/dock_solv.prm

>  <Rbt.Receptor>
prm/pocket_docking_5.prm

>  <SCORE>
-10.8282

>  <SCORE.INTER>
-10.7161

>  <SCORE.INTER.CONST>
1

>  <SCORE.INTER.POLAR>
0

>  <SCORE.INTER.ROT>
5

>  <SCORE.INTER.SOLV>
13.8387

>  <SCORE.INTER.VDW>
-18.6903

>  <SCORE.INTER.norm>
-1.07161

>  <SCORE.INTRA>
-0.112106

>  <SCORE.INTRA.DIHEDRAL>
0.412019

>  <SCORE.INTRA.DIHEDRAL.0>
3.281

>  <SCORE.INTRA.POLAR>
0

>  <SCORE.INTRA.POLAR.0>
0

>  <SCORE.INTRA.REPUL>
0

>  <SCORE.INTRA.REPUL.0>
0

>  <SCORE.INTRA.SOLV>
-0.627915

>  <SCORE.INTRA.SOLV.lig_0>
-31.9458

>  <SCORE.INTRA.VDW>
-0.00415842

>  <SCORE.INTRA.VDW.0>
-0.672612

>  <SCORE.INTRA.norm>
-0.0112106

>  <SCORE.RESTR>
0

>  <SCORE.RESTR.CAVITY>
0

>  <SCORE.RESTR.norm>
0

>  <SCORE.SYSTEM>
0

>  <SCORE.SYSTEM.CONST>
0

>  <SCORE.SYSTEM.DIHEDRAL>
0

>  <SCORE.SYSTEM.SOLV>
0

>  <SCORE.SYSTEM.norm>
0

>  <SCORE.heavy>
10

>  <SCORE.norm>
-1.08282

>  <RMSD>
4.648

$$$$
ligand
 OpenBabel11021811473D
libRbt.so/2013.1/901 2013/11/27
 10  9  0  0  0  0  0  0  0  0999 V2000
   29.2937   16.1334   19.7404 N   0  0  0  0  0  0  0  0  0  0  0  0
   27.8496   15.9307   20.0474 C   0  0  2  0  0  0  0  0  0  0  0  0
   27.6626   15.0774   21.2941 C   0  0  0  0  0  0  0  0  0  0  0  0
   28.5854   14.4301   21.7912 O   0  0  0  0  0  0  0  0  0  0  0  0
   27.1206   15.3173   18.8541 C   0  0  0  0  0  0  0  0  0  0  0  0
   27.7324   14.0133   18.3967 C   0  0  0  0  0  0  0  0  0  0  0  0
   26.8278   13.2747   17.4466 C   0  0  0  0  0  0  0  0  0  0  0  0
   27.3682   11.8853   17.1579 C   0  0  0  0  0  0  0  0  0  0  0  0
   26.3294   10.9888   16.5872 N   0  0  0  0  0  0  0  0  0  0  0  0
   26.5732   15.0368   21.8680 O   0  0  0  0  0  0  0  0  0  0  0  0
  2  1  1  6  0  0  0
  2  3  1  0  0  0  0
  2  5  1  0  0  0  0
  3  4  1  0  0  0  0
  3 10  1  0  0  0  0
  5  6  1  0  0  0  0
  6  7  1  0  0  0  0
  7  8  1  0  0  0  0
  8  9  1  0  0  0  0
M  END
>  <CHROM.1>
-13.81112654,56.40226655,166.77352273,-171.86199733,162.20957690,27.53140264
14.19893522,19.35546980,-1.15746931,-1.03674363,-1.89947692

>  <Name>
ligand

>  <RI>
0

>  <Rbt.Current_Directory>
/home/itssahil/PROJECTS/Mol_Feturizer/New_Systems/rnas/3DIX

>  <Rbt.Executable>
rbdock ($Id: //depot/dev/client3/rdock/2013.1/src/exe/rbdock.cxx#4 $)

>  <Rbt.Library>
libRbt.so (2013.1, Build901 2013/11/27)

>  <Rbt.Parameter_File>
/export/apps/rDock/src/rDock_2013.1_src/data/scripts/dock_solv.prm

>  <Rbt.Receptor>
prm/pocket_docking_8.prm

>  <SCORE>
-10.8446

>  <SCORE.INTER>
-10.7491

>  <SCORE.INTER.CONST>
1

>  <SCORE.INTER.POLAR>
0

>  <SCORE.INTER.ROT>
5

>  <SCORE.INTER.SOLV>
13.8261

>  <SCORE.INTER.VDW>
-18.7081

>  <SCORE.INTER.norm>
-1.07491

>  <SCORE.INTRA>
-0.0955649

>  <SCORE.INTRA.DIHEDRAL>
0.409619

>  <SCORE.INTRA.DIHEDRAL.0>
3.281

>  <SCORE.INTRA.POLAR>
0

>  <SCORE.INTRA.POLAR.0>
0

>  <SCORE.INTRA.REPUL>
0

>  <SCORE.INTRA.REPUL.0>
0

>  <SCORE.INTRA.SOLV>
-0.623895

>  <SCORE.INTRA.SOLV.lig_0>
-31.9458

>  <SCORE.INTRA.VDW>
0.0115733

>  <SCORE.INTRA.VDW.0>
-0.672612

>  <SCORE.INTRA.norm>
-0.00955649

>  <SCORE.RESTR>
0

>  <SCORE.RESTR.CAVITY>
0

>  <SCORE.RESTR.norm>
0

>  <SCORE.SYSTEM>
0

>  <SCORE.SYSTEM.CONST>
0

>  <SCORE.SYSTEM.DIHEDRAL>
0

>  <SCORE.SYSTEM.SOLV>
0

>  <SCORE.SYSTEM.norm>
0

>  <SCORE.heavy>
10

>  <SCORE.norm>
-1.08446

>  <RMSD>
4.652

$$$$
ligand
 OpenBabel11021811473D
libRbt.so/2013.1/901 2013/11/27
 10  9  0  0  0  0  0  0  0  0999 V2000
   26.6181   14.7235   20.2063 N   0  0  0  0  0  0  0  0  0  0  0  0
   27.9065   15.2130   19.6398 C   0  0  2  0  0  0  0  0  0  0  0  0
   28.2528   16.5984   20.1669 C   0  0  0  0  0  0  0  0  0  0  0  0
   28.0775   17.6181   19.4981 O   0  0  0  0  0  0  0  0  0  0  0  0
   27.8673   15.2059   18.1133 C   0  0  0  0  0  0  0  0  0  0  0  0
   28.0959   13.8330   17.5245 C   0  0  0  0  0  0  0  0  0  0  0  0
   26.8375   13.0069   17.5282 C   0  0  0  0  0  0  0  0  0  0  0  0
   27.1005   11.6210   16.9658 C   0  0  0  0  0  0  0  0  0  0  0  0
   25.8916   10.7582   17.0167 N   0  0  0  0  0  0  0  0  0  0  0  0
   28.6942   16.7425   21.3080 O   0  0  0  0  0  0  0  0  0  0  0  0
  2  1  1  1  0  0  0
  2  3  1  0  0  0  0
  2  5  1  0  0  0  0
  3  4  1  0  0  0  0
  3 10  1  0  0  0  0
  5  6  1  0  0  0  0
  6  7  1  0  0  0  0
  7  8  1  0  0  0  0
  8  9  1  0  0  0  0
M  END
>  <CHROM.1>
-101.80275538,-79.39159430,81.72245265,-178.52405636,177.23802389,27.54544929
14.57222430,18.81613431,1.03229984,1.04545991,1.03961263

>  <Name>
ligand

>  <RI>
0

>  <Rbt.Current_Directory>
/home/itssahil/PROJECTS/Mol_Feturizer/New_Systems/rnas/3DIX

>  <Rbt.Executable>
rbdock ($Id: //depot/dev/client3/rdock/2013.1/src/exe/rbdock.cxx#4 $)

>  <Rbt.Library>
libRbt.so (2013.1, Build901 2013/11/27)

>  <Rbt.Parameter_File>
/export/apps/rDock/src/rDock_2013.1_src/data/scripts/dock_solv.prm

>  <Rbt.Receptor>
prm/pocket_docking_8.prm

>  <SCORE>
-7.66094

>  <SCORE.INTER>
-8.78184

>  <SCORE.INTER.CONST>
1

>  <SCORE.INTER.POLAR>
0

>  <SCORE.INTER.ROT>
5

>  <SCORE.INTER.SOLV>
17.1788

>  <SCORE.INTER.VDW>
-18.5142

>  <SCORE.INTER.norm>
-0.878184

>  <SCORE.INTRA>
1.12091

>  <SCORE.INTRA.DIHEDRAL>
1.36966

>  <SCORE.INTRA.DIHEDRAL.0>
3.281

>  <SCORE.INTRA.POLAR>
0

>  <SCORE.INTRA.POLAR.0>
0

>  <SCORE.INTRA.REPUL>
0

>  <SCORE.INTRA.REPUL.0>
0

>  <SCORE.INTRA.SOLV>
0.226354

>  <SCORE.INTRA.SOLV.lig_0>
-31.9458

>  <SCORE.INTRA.VDW>
0.322897

>  <SCORE.INTRA.VDW.0>
-0.672612

>  <SCORE.INTRA.norm>
0.112091

>  <SCORE.RESTR>
0

>  <SCORE.RESTR.CAVITY>
0

>  <SCORE.RESTR.norm>
0

>  <SCORE.SYSTEM>
0

>  <SCORE.SYSTEM.CONST>
0

>  <SCORE.SYSTEM.DIHEDRAL>
0

>  <SCORE.SYSTEM.SOLV>
0

>  <SCORE.SYSTEM.norm>
0

>  <SCORE.heavy>
10

>  <SCORE.norm>
-0.766094

>  <RMSD>
4.659

$$$$
ligand
 OpenBabel11021811473D
libRbt.so/2013.1/901 2013/11/27
 10  9  0  0  0  0  0  0  0  0999 V2000
   28.1223   16.9073   18.7835 N   0  0  0  0  0  0  0  0  0  0  0  0
   27.4749   15.8125   19.5600 C   0  0  2  0  0  0  0  0  0  0  0  0
   27.7713   15.9382   21.0478 C   0  0  0  0  0  0  0  0  0  0  0  0
   27.0696   15.3990   21.9049 O   0  0  0  0  0  0  0  0  0  0  0  0
   27.9040   14.4448   19.0336 C   0  0  0  0  0  0  0  0  0  0  0  0
   27.1606   14.0350   17.7833 C   0  0  0  0  0  0  0  0  0  0  0  0
   27.4673   12.6143   17.3912 C   0  0  0  0  0  0  0  0  0  0  0  0
   26.2474   11.9483   16.7795 C   0  0  0  0  0  0  0  0  0  0  0  0
   26.4005   10.4727   16.6926 N   0  0  0  0  0  0  0  0  0  0  0  0
   28.7565   16.5655   21.4397 O   0  0  0  0  0  0  0  0  0  0  0  0
  2  1  1  6  0  0  0
  2  3  1  0  0  0  0
  2  5  1  0  0  0  0
  3  4  1  0  0  0  0
  3 10  1  0  0  0  0
  5  6  1  0  0  0  0
  6  7  1  0  0  0  0
  7  8  1  0  0  0  0
  8  9  1  0  0  0  0
M  END
>  <CHROM.1>
159.35502391,-79.47937493,-172.40915765,145.52309924,-165.81206793,27.44573395
14.42604342,19.08317531,-0.92697169,-1.20417227,-1.80791457

>  <Name>
ligand

>  <RI>
0

>  <Rbt.Current_Directory>
/home/itssahil/PROJECTS/Mol_Feturizer/New_Systems/rnas/3DIX

>  <Rbt.Executable>
rbdock ($Id: //depot/dev/client3/rdock/2013.1/src/exe/rbdock.cxx#4 $)

>  <Rbt.Library>
libRbt.so (2013.1, Build901 2013/11/27)

>  <Rbt.Parameter_File>
/export/apps/rDock/src/rDock_2013.1_src/data/scripts/dock_solv.prm

>  <Rbt.Receptor>
prm/pocket_docking_8.prm

>  <SCORE>
-8.48032

>  <SCORE.INTER>
-9.9457

>  <SCORE.INTER.CONST>
1

>  <SCORE.INTER.POLAR>
0

>  <SCORE.INTER.ROT>
5

>  <SCORE.INTER.SOLV>
17.2736

>  <SCORE.INTER.VDW>
-19.3217

>  <SCORE.INTER.norm>
-0.99457

>  <SCORE.INTRA>
1.46538

>  <SCORE.INTRA.DIHEDRAL>
4.29416

>  <SCORE.INTRA.DIHEDRAL.0>
3.281

>  <SCORE.INTRA.POLAR>
0

>  <SCORE.INTRA.POLAR.0>
0

>  <SCORE.INTRA.REPUL>
0

>  <SCORE.INTRA.REPUL.0>
0

>  <SCORE.INTRA.SOLV>
-0.916454

>  <SCORE.INTRA.SOLV.lig_0>
-31.9458

>  <SCORE.INTRA.VDW>
-0.223475

>  <SCORE.INTRA.VDW.0>
-0.672612

>  <SCORE.INTRA.norm>
0.146538

>  <SCORE.RESTR>
0

>  <SCORE.RESTR.CAVITY>
0

>  <SCORE.RESTR.norm>
0

>  <SCORE.SYSTEM>
0

>  <SCORE.SYSTEM.CONST>
0

>  <SCORE.SYSTEM.DIHEDRAL>
0

>  <SCORE.SYSTEM.SOLV>
0

>  <SCORE.SYSTEM.norm>
0

>  <SCORE.heavy>
10

>  <SCORE.norm>
-0.848032

>  <RMSD>
4.668

$$$$
ligand
 OpenBabel11021811473D
libRbt.so/2013.1/901 2013/11/27
 10  9  0  0  0  0  0  0  0  0999 V2000
   26.0480   15.4103   20.2701 N   0  0  0  0  0  0  0  0  0  0  0  0
   27.3753   14.7419   20.1585 C   0  0  2  0  0  0  0  0  0  0  0  0
   28.2758   15.0987   21.3328 C   0  0  0  0  0  0  0  0  0  0  0  0
   28.9067   14.2459   21.9592 O   0  0  0  0  0  0  0  0  0  0  0  0
   28.0485   15.0873   18.8322 C   0  0  0  0  0  0  0  0  0  0  0  0
   27.3602   14.4610   17.6414 C   0  0  0  0  0  0  0  0  0  0  0  0
   27.5335   12.9658   17.6186 C   0  0  0  0  0  0  0  0  0  0  0  0
   26.4689   12.3126   16.7549 C   0  0  0  0  0  0  0  0  0  0  0  0
   26.5638   10.8297   16.7763 N   0  0  0  0  0  0  0  0  0  0  0  0
   28.4263   16.2732   21.6729 O   0  0  0  0  0  0  0  0  0  0  0  0
  2  1  1  1  0  0  0
  2  3  1  0  0  0  0
  2  5  1  0  0  0  0
  3  4  1  0  0  0  0
  3 10  1  0  0  0  0
  5  6  1  0  0  0  0
  6  7  1  0  0  0  0
  7  8  1  0  0  0  0
  8  9  1  0  0  0  0
M  END
>  <CHROM.1>
132.70320239,-69.61637264,-69.07481963,159.65392860,-176.62402553,27.52344369
14.15622628,19.33706118,1.06092041,-1.03482869,0.48722354

>  <Name>
ligand

>  <RI>
0

>  <Rbt.Current_Directory>
/home/itssahil/PROJECTS/Mol_Feturizer/New_Systems/rnas/3DIX

>  <Rbt.Executable>
rbdock ($Id: //depot/dev/client3/rdock/2013.1/src/exe/rbdock.cxx#4 $)

>  <Rbt.Library>
libRbt.so (2013.1, Build901 2013/11/27)

>  <Rbt.Parameter_File>
/export/apps/rDock/src/rDock_2013.1_src/data/scripts/dock_solv.prm

>  <Rbt.Receptor>
prm/pocket_docking_7.prm

>  <SCORE>
-9.34898

>  <SCORE.INTER>
-9.42033

>  <SCORE.INTER.CONST>
1

>  <SCORE.INTER.POLAR>
0

>  <SCORE.INTER.ROT>
5

>  <SCORE.INTER.SOLV>
19.5027

>  <SCORE.INTER.VDW>
-19.7145

>  <SCORE.INTER.norm>
-0.942033

>  <SCORE.INTRA>
0.0713487

>  <SCORE.INTRA.DIHEDRAL>
0.510245

>  <SCORE.INTRA.DIHEDRAL.0>
3.281

>  <SCORE.INTRA.POLAR>
0

>  <SCORE.INTRA.POLAR.0>
0

>  <SCORE.INTRA.REPUL>
0

>  <SCORE.INTRA.REPUL.0>
0

>  <SCORE.INTRA.SOLV>
-0.340985

>  <SCORE.INTRA.SOLV.lig_0>
-31.9458

>  <SCORE.INTRA.VDW>
-0.0132811

>  <SCORE.INTRA.VDW.0>
-0.672612

>  <SCORE.INTRA.norm>
0.00713487

>  <SCORE.RESTR>
0

>  <SCORE.RESTR.CAVITY>
0

>  <SCORE.RESTR.norm>
0

>  <SCORE.SYSTEM>
0

>  <SCORE.SYSTEM.CONST>
0

>  <SCORE.SYSTEM.DIHEDRAL>
0

>  <SCORE.SYSTEM.SOLV>
0

>  <SCORE.SYSTEM.norm>
0

>  <SCORE.heavy>
10

>  <SCORE.norm>
-0.934898

>  <RMSD>
4.684

$$$$
ligand
 OpenBabel11021811473D
libRbt.so/2013.1/901 2013/11/27
 10  9  0  0  0  0  0  0  0  0999 V2000
   29.2831   16.0436   19.5037 N   0  0  0  0  0  0  0  0  0  0  0  0
   27.8531   15.8288   19.8641 C   0  0  2  0  0  0  0  0  0  0  0  0
   27.7201   15.0057   21.1376 C   0  0  0  0  0  0  0  0  0  0  0  0
   28.6141   14.2545   21.5302 O   0  0  0  0  0  0  0  0  0  0  0  0
   27.0941   15.1747   18.7118 C   0  0  0  0  0  0  0  0  0  0  0  0
   27.7163   13.8738   18.2596 C   0  0  0  0  0  0  0  0  0  0  0  0
   26.7975   13.1010   17.3514 C   0  0  0  0  0  0  0  0  0  0  0  0
   27.3268   11.6971   17.1169 C   0  0  0  0  0  0  0  0  0  0  0  0
   26.2665   10.7726   16.6375 N   0  0  0  0  0  0  0  0  0  0  0  0
   26.7113   15.0951   21.8391 O   0  0  0  0  0  0  0  0  0  0  0  0
  2  1  1  6  0  0  0
  2  3  1  0  0  0  0
  2  5  1  0  0  0  0
  3  4  1  0  0  0  0
  3 10  1  0  0  0  0
  5  6  1  0  0  0  0
  6  7  1  0  0  0  0
  7  8  1  0  0  0  0
  8  9  1  0  0  0  0
M  END
>  <CHROM.1>
-22.99059591,55.90984122,167.19619353,-169.56713670,160.36516381,27.53686230
14.07576988,19.23258668,-1.08955208,-1.08555205,-1.86554297

>  <Name>
ligand

>  <RI>
0

>  <Rbt.Current_Directory>
/home/itssahil/PROJECTS/Mol_Feturizer/New_Systems/rnas/3DIX

>  <Rbt.Executable>
rbdock ($Id: //depot/dev/client3/rdock/2013.1/src/exe/rbdock.cxx#4 $)

>  <Rbt.Library>
libRbt.so (2013.1, Build901 2013/11/27)

>  <Rbt.Parameter_File>
/export/apps/rDock/src/rDock_2013.1_src/data/scripts/dock_solv.prm

>  <Rbt.Receptor>
prm/pocket_docking_6.prm

>  <SCORE>
-10.7886

>  <SCORE.INTER>
-10.8342

>  <SCORE.INTER.CONST>
1

>  <SCORE.INTER.POLAR>
0

>  <SCORE.INTER.ROT>
5

>  <SCORE.INTER.SOLV>
13.6809

>  <SCORE.INTER.VDW>
-18.7164

>  <SCORE.INTER.norm>
-1.08342

>  <SCORE.INTRA>
0.0455864

>  <SCORE.INTRA.DIHEDRAL>
0.792074

>  <SCORE.INTRA.DIHEDRAL.0>
3.281

>  <SCORE.INTRA.POLAR>
0

>  <SCORE.INTRA.POLAR.0>
0

>  <SCORE.INTRA.REPUL>
0

>  <SCORE.INTRA.REPUL.0>
0

>  <SCORE.INTRA.SOLV>
-0.613103

>  <SCORE.INTRA.SOLV.lig_0>
-31.9458

>  <SCORE.INTRA.VDW>
-0.0438993

>  <SCORE.INTRA.VDW.0>
-0.672612

>  <SCORE.INTRA.norm>
0.00455864

>  <SCORE.RESTR>
0

>  <SCORE.RESTR.CAVITY>
0

>  <SCORE.RESTR.norm>
0

>  <SCORE.SYSTEM>
0

>  <SCORE.SYSTEM.CONST>
0

>  <SCORE.SYSTEM.DIHEDRAL>
0

>  <SCORE.SYSTEM.SOLV>
0

>  <SCORE.SYSTEM.norm>
0

>  <SCORE.heavy>
10

>  <SCORE.norm>
-1.07886

>  <RMSD>
4.708

$$$$
ligand
 OpenBabel11021811473D
libRbt.so/2013.1/901 2013/11/27
 10  9  0  0  0  0  0  0  0  0999 V2000
   29.2631   16.1126   19.7801 N   0  0  0  0  0  0  0  0  0  0  0  0
   27.7990   15.9663   20.0158 C   0  0  2  0  0  0  0  0  0  0  0  0
   27.5183   15.1547   21.2726 C   0  0  0  0  0  0  0  0  0  0  0  0
   28.4216   14.6821   21.9643 O   0  0  0  0  0  0  0  0  0  0  0  0
   27.1120   15.3444   18.8020 C   0  0  0  0  0  0  0  0  0  0  0  0
   27.7042   14.0108   18.4089 C   0  0  0  0  0  0  0  0  0  0  0  0
   26.8123   13.2630   17.4542 C   0  0  0  0  0  0  0  0  0  0  0  0
   27.3745   11.8835   17.1591 C   0  0  0  0  0  0  0  0  0  0  0  0
   26.3460   10.9686   16.5991 N   0  0  0  0  0  0  0  0  0  0  0  0
   26.3618   14.9736   21.6564 O   0  0  0  0  0  0  0  0  0  0  0  0
  2  1  1  6  0  0  0
  2  3  1  0  0  0  0
  2  5  1  0  0  0  0
  3  4  1  0  0  0  0
  3 10  1  0  0  0  0
  5  6  1  0  0  0  0
  6  7  1  0  0  0  0
  7  8  1  0  0  0  0
  8  9  1  0  0  0  0
M  END
>  <CHROM.1>
-0.98729665,56.22021964,165.59558192,-175.57419007,161.47666593,27.46594753
14.22722322,19.34838066,-1.23311736,-0.96536143,-1.99043980

>  <Name>
ligand

>  <RI>
0

>  <Rbt.Current_Directory>
/home/itssahil/PROJECTS/Mol_Feturizer/New_Systems/rnas/3DIX

>  <Rbt.Executable>
rbdock ($Id: //depot/dev/client3/rdock/2013.1/src/exe/rbdock.cxx#4 $)

>  <Rbt.Library>
libRbt.so (2013.1, Build901 2013/11/27)

>  <Rbt.Parameter_File>
/export/apps/rDock/src/rDock_2013.1_src/data/scripts/dock_solv.prm

>  <Rbt.Receptor>
prm/pocket_docking_8.prm

>  <SCORE>
-10.8086

>  <SCORE.INTER>
-10.8192

>  <SCORE.INTER.CONST>
1

>  <SCORE.INTER.POLAR>
0

>  <SCORE.INTER.ROT>
5

>  <SCORE.INTER.SOLV>
13.6835

>  <SCORE.INTER.VDW>
-18.7073

>  <SCORE.INTER.norm>
-1.08192

>  <SCORE.INTRA>
0.0105939

>  <SCORE.INTRA.DIHEDRAL>
0.394425

>  <SCORE.INTRA.DIHEDRAL.0>
3.281

>  <SCORE.INTRA.POLAR>
0

>  <SCORE.INTRA.POLAR.0>
0

>  <SCORE.INTRA.REPUL>
0

>  <SCORE.INTRA.REPUL.0>
0

>  <SCORE.INTRA.SOLV>
-0.622825

>  <SCORE.INTRA.SOLV.lig_0>
-31.9458

>  <SCORE.INTRA.VDW>
0.124794

>  <SCORE.INTRA.VDW.0>
-0.672612

>  <SCORE.INTRA.norm>
0.00105939

>  <SCORE.RESTR>
0

>  <SCORE.RESTR.CAVITY>
0

>  <SCORE.RESTR.norm>
0

>  <SCORE.SYSTEM>
0

>  <SCORE.SYSTEM.CONST>
0

>  <SCORE.SYSTEM.DIHEDRAL>
0

>  <SCORE.SYSTEM.SOLV>
0

>  <SCORE.SYSTEM.norm>
0

>  <SCORE.heavy>
10

>  <SCORE.norm>
-1.08086

>  <RMSD>
4.715

$$$$
ligand
 OpenBabel11021811473D
libRbt.so/2013.1/901 2013/11/27
 10  9  0  0  0  0  0  0  0  0999 V2000
   29.2802   16.0809   19.5930 N   0  0  0  0  0  0  0  0  0  0  0  0
   27.8406   15.8562   19.9057 C   0  0  2  0  0  0  0  0  0  0  0  0
   27.6714   15.0024   21.1545 C   0  0  0  0  0  0  0  0  0  0  0  0
   26.6350   15.0111   21.8204 O   0  0  0  0  0  0  0  0  0  0  0  0
   27.1169   15.2295   18.7161 C   0  0  0  0  0  0  0  0  0  0  0  0
   27.7236   13.9148   18.2834 C   0  0  0  0  0  0  0  0  0  0  0  0
   26.7993   13.1434   17.3795 C   0  0  0  0  0  0  0  0  0  0  0  0
   27.3418   11.7498   17.1159 C   0  0  0  0  0  0  0  0  0  0  0  0
   26.2844   10.8182   16.6442 N   0  0  0  0  0  0  0  0  0  0  0  0
   28.5693   14.2422   21.5202 O   0  0  0  0  0  0  0  0  0  0  0  0
  2  1  1  6  0  0  0
  2  3  1  0  0  0  0
  2  5  1  0  0  0  0
  3  4  1  0  0  0  0
  3 10  1  0  0  0  0
  5  6  1  0  0  0  0
  6  7  1  0  0  0  0
  7  8  1  0  0  0  0
  8  9  1  0  0  0  0
M  END
>  <CHROM.1>
158.07714034,58.02041007,164.58899594,-172.05635045,160.22227086,27.52397047
14.09428898,19.24961821,-1.11424735,-1.07163881,-1.88701954

>  <Name>
ligand

>  <RI>
0

>  <Rbt.Current_Directory>
/home/itssahil/PROJECTS/Mol_Feturizer/New_Systems/rnas/3DIX

>  <Rbt.Executable>
rbdock ($Id: //depot/dev/client3/rdock/2013.1/src/exe/rbdock.cxx#4 $)

>  <Rbt.Library>
libRbt.so (2013.1, Build901 2013/11/27)

>  <Rbt.Parameter_File>
/export/apps/rDock/src/rDock_2013.1_src/data/scripts/dock_solv.prm

>  <Rbt.Receptor>
prm/pocket_docking_6.prm

>  <SCORE>
-10.8596

>  <SCORE.INTER>
-10.874

>  <SCORE.INTER.CONST>
1

>  <SCORE.INTER.POLAR>
0

>  <SCORE.INTER.ROT>
5

>  <SCORE.INTER.SOLV>
13.6805

>  <SCORE.INTER.VDW>
-18.7428

>  <SCORE.INTER.norm>
-1.0874

>  <SCORE.INTRA>
0.014426

>  <SCORE.INTRA.DIHEDRAL>
0.721655

>  <SCORE.INTRA.DIHEDRAL.0>
3.281

>  <SCORE.INTRA.POLAR>
0

>  <SCORE.INTRA.POLAR.0>
0

>  <SCORE.INTRA.REPUL>
0

>  <SCORE.INTRA.REPUL.0>
0

>  <SCORE.INTRA.SOLV>
-0.642869

>  <SCORE.INTRA.SOLV.lig_0>
-31.9458

>  <SCORE.INTRA.VDW>
-0.0249668

>  <SCORE.INTRA.VDW.0>
-0.672612

>  <SCORE.INTRA.norm>
0.0014426

>  <SCORE.RESTR>
0

>  <SCORE.RESTR.CAVITY>
0

>  <SCORE.RESTR.norm>
0

>  <SCORE.SYSTEM>
0

>  <SCORE.SYSTEM.CONST>
0

>  <SCORE.SYSTEM.DIHEDRAL>
0

>  <SCORE.SYSTEM.SOLV>
0

>  <SCORE.SYSTEM.norm>
0

>  <SCORE.heavy>
10

>  <SCORE.norm>
-1.08596

>  <RMSD>
4.717

$$$$
ligand
 OpenBabel11021811473D
libRbt.so/2013.1/901 2013/11/27
 10  9  0  0  0  0  0  0  0  0999 V2000
   29.3353   16.0106   20.0166 N   0  0  0  0  0  0  0  0  0  0  0  0
   27.8464   16.0739   20.0051 C   0  0  2  0  0  0  0  0  0  0  0  0
   27.2528   15.3795   21.2226 C   0  0  0  0  0  0  0  0  0  0  0  0
   27.8819   15.2445   22.2732 O   0  0  0  0  0  0  0  0  0  0  0  0
   27.2867   15.4809   18.7140 C   0  0  0  0  0  0  0  0  0  0  0  0
   27.7435   14.0610   18.4712 C   0  0  0  0  0  0  0  0  0  0  0  0
   26.9003   13.3729   17.4312 C   0  0  0  0  0  0  0  0  0  0  0  0
   27.3721   11.9462   17.2120 C   0  0  0  0  0  0  0  0  0  0  0  0
   26.3376   11.1109   16.5482 N   0  0  0  0  0  0  0  0  0  0  0  0
   26.0961   14.9560   21.2006 O   0  0  0  0  0  0  0  0  0  0  0  0
  2  1  1  6  0  0  0
  2  3  1  0  0  0  0
  2  5  1  0  0  0  0
  3  4  1  0  0  0  0
  3 10  1  0  0  0  0
  5  6  1  0  0  0  0
  6  7  1  0  0  0  0
  7  8  1  0  0  0  0
  8  9  1  0  0  0  0
M  END
>  <CHROM.1>
24.79332706,56.13081863,164.06397416,-179.61082887,161.59233609,27.39254305
14.35774463,19.34533157,-1.34913732,-0.77763758,-2.12064638

>  <Name>
ligand

>  <RI>
0

>  <Rbt.Current_Directory>
/home/itssahil/PROJECTS/Mol_Feturizer/New_Systems/rnas/3DIX

>  <Rbt.Executable>
rbdock ($Id: //depot/dev/client3/rdock/2013.1/src/exe/rbdock.cxx#4 $)

>  <Rbt.Library>
libRbt.so (2013.1, Build901 2013/11/27)

>  <Rbt.Parameter_File>
/export/apps/rDock/src/rDock_2013.1_src/data/scripts/dock_solv.prm

>  <Rbt.Receptor>
prm/pocket_docking_8.prm

>  <SCORE>
-10.4942

>  <SCORE.INTER>
-10.8787

>  <SCORE.INTER.CONST>
1

>  <SCORE.INTER.POLAR>
0

>  <SCORE.INTER.ROT>
5

>  <SCORE.INTER.SOLV>
13.6813

>  <SCORE.INTER.VDW>
-18.7462

>  <SCORE.INTER.norm>
-1.08787

>  <SCORE.INTRA>
0.384461

>  <SCORE.INTRA.DIHEDRAL>
0.404193

>  <SCORE.INTRA.DIHEDRAL.0>
3.281

>  <SCORE.INTRA.POLAR>
0

>  <SCORE.INTRA.POLAR.0>
0

>  <SCORE.INTRA.REPUL>
0

>  <SCORE.INTRA.REPUL.0>
0

>  <SCORE.INTRA.SOLV>
-0.633378

>  <SCORE.INTRA.SOLV.lig_0>
-31.9458

>  <SCORE.INTRA.VDW>
0.499054

>  <SCORE.INTRA.VDW.0>
-0.672612

>  <SCORE.INTRA.norm>
0.0384461

>  <SCORE.RESTR>
0

>  <SCORE.RESTR.CAVITY>
0

>  <SCORE.RESTR.norm>
0

>  <SCORE.SYSTEM>
0

>  <SCORE.SYSTEM.CONST>
0

>  <SCORE.SYSTEM.DIHEDRAL>
0

>  <SCORE.SYSTEM.SOLV>
0

>  <SCORE.SYSTEM.norm>
0

>  <SCORE.heavy>
10

>  <SCORE.norm>
-1.04942

>  <RMSD>
4.781

$$$$
ligand
 OpenBabel11021811473D
libRbt.so/2013.1/901 2013/11/27
 10  9  0  0  0  0  0  0  0  0999 V2000
   28.3484   16.4935   18.8269 N   0  0  0  0  0  0  0  0  0  0  0  0
   27.3114   15.6980   19.5428 C   0  0  2  0  0  0  0  0  0  0  0  0
   27.4594   15.8256   21.0524 C   0  0  0  0  0  0  0  0  0  0  0  0
   28.3748   16.4668   21.5706 O   0  0  0  0  0  0  0  0  0  0  0  0
   27.3572   14.2332   19.1137 C   0  0  0  0  0  0  0  0  0  0  0  0
   27.3487   14.0585   17.6126 C   0  0  0  0  0  0  0  0  0  0  0  0
   27.4836   12.6121   17.2176 C   0  0  0  0  0  0  0  0  0  0  0  0
   26.1181   11.9744   17.0314 C   0  0  0  0  0  0  0  0  0  0  0  0
   26.2099   10.5046   16.8317 N   0  0  0  0  0  0  0  0  0  0  0  0
   26.6348   15.3099   21.8087 O   0  0  0  0  0  0  0  0  0  0  0  0
  2  1  1  6  0  0  0
  2  3  1  0  0  0  0
  2  5  1  0  0  0  0
  3  4  1  0  0  0  0
  3 10  1  0  0  0  0
  5  6  1  0  0  0  0
  6  7  1  0  0  0  0
  7  8  1  0  0  0  0
  8  9  1  0  0  0  0
M  END
>  <CHROM.1>
-3.09570251,-50.23025344,176.33285999,92.88193097,-171.86328301,27.26819739
14.33040271,19.10278315,-1.20736345,-1.01199496,-2.08860865

>  <Name>
ligand

>  <RI>
0

>  <Rbt.Current_Directory>
/home/itssahil/PROJECTS/Mol_Feturizer/New_Systems/rnas/3DIX

>  <Rbt.Executable>
rbdock ($Id: //depot/dev/client3/rdock/2013.1/src/exe/rbdock.cxx#4 $)

>  <Rbt.Library>
libRbt.so (2013.1, Build901 2013/11/27)

>  <Rbt.Parameter_File>
/export/apps/rDock/src/rDock_2013.1_src/data/scripts/dock_solv.prm

>  <Rbt.Receptor>
prm/pocket_docking_6.prm

>  <SCORE>
-8.18963

>  <SCORE.INTER>
-9.5737

>  <SCORE.INTER.CONST>
1

>  <SCORE.INTER.POLAR>
0

>  <SCORE.INTER.ROT>
5

>  <SCORE.INTER.SOLV>
15.2175

>  <SCORE.INTER.VDW>
-18.3883

>  <SCORE.INTER.norm>
-0.95737

>  <SCORE.INTRA>
1.38407

>  <SCORE.INTRA.DIHEDRAL>
2.40002

>  <SCORE.INTRA.DIHEDRAL.0>
3.281

>  <SCORE.INTRA.POLAR>
0

>  <SCORE.INTRA.POLAR.0>
0

>  <SCORE.INTRA.REPUL>
0

>  <SCORE.INTRA.REPUL.0>
0

>  <SCORE.INTRA.SOLV>
-0.342325

>  <SCORE.INTRA.SOLV.lig_0>
-31.9458

>  <SCORE.INTRA.VDW>
0.355223

>  <SCORE.INTRA.VDW.0>
-0.672612

>  <SCORE.INTRA.norm>
0.138407

>  <SCORE.RESTR>
0

>  <SCORE.RESTR.CAVITY>
0

>  <SCORE.RESTR.norm>
0

>  <SCORE.SYSTEM>
0

>  <SCORE.SYSTEM.CONST>
0

>  <SCORE.SYSTEM.DIHEDRAL>
0

>  <SCORE.SYSTEM.SOLV>
0

>  <SCORE.SYSTEM.norm>
0

>  <SCORE.heavy>
10

>  <SCORE.norm>
-0.818963

>  <RMSD>
4.825

$$$$
ligand
 OpenBabel11021811473D
libRbt.so/2013.1/901 2013/11/27
 10  9  0  0  0  0  0  0  0  0999 V2000
   29.3550   15.1229   20.6073 N   0  0  0  0  0  0  0  0  0  0  0  0
   28.6622   15.2886   19.2984 C   0  0  2  0  0  0  0  0  0  0  0  0
   27.7004   16.4681   19.3259 C   0  0  0  0  0  0  0  0  0  0  0  0
   26.5155   16.3421   19.6389 O   0  0  0  0  0  0  0  0  0  0  0  0
   27.9373   14.0049   18.9002 C   0  0  0  0  0  0  0  0  0  0  0  0
   27.4253   14.0341   17.4786 C   0  0  0  0  0  0  0  0  0  0  0  0
   26.5704   12.8346   17.1679 C   0  0  0  0  0  0  0  0  0  0  0  0
   27.4181   11.5783   17.0733 C   0  0  0  0  0  0  0  0  0  0  0  0
   26.5888   10.3543   16.9222 N   0  0  0  0  0  0  0  0  0  0  0  0
   28.0956   17.6052   19.0636 O   0  0  0  0  0  0  0  0  0  0  0  0
  2  1  1  1  0  0  0
  2  3  1  0  0  0  0
  2  5  1  0  0  0  0
  3  4  1  0  0  0  0
  3 10  1  0  0  0  0
  5  6  1  0  0  0  0
  6  7  1  0  0  0  0
  7  8  1  0  0  0  0
  8  9  1  0  0  0  0
M  END
>  <CHROM.1>
-91.35553312,-169.85086628,-172.88857353,-71.30167391,173.46217476,27.60934423
14.40007858,18.55356613,-1.32555252,0.66227746,-2.83309242

>  <Name>
ligand

>  <RI>
0

>  <Rbt.Current_Directory>
/home/itssahil/PROJECTS/Mol_Feturizer/New_Systems/rnas/3DIX

>  <Rbt.Executable>
rbdock ($Id: //depot/dev/client3/rdock/2013.1/src/exe/rbdock.cxx#4 $)

>  <Rbt.Library>
libRbt.so (2013.1, Build901 2013/11/27)

>  <Rbt.Parameter_File>
/export/apps/rDock/src/rDock_2013.1_src/data/scripts/dock_solv.prm

>  <Rbt.Receptor>
prm/blind_docking_100.prm

>  <SCORE>
-8.94469

>  <SCORE.INTER>
-8.81344

>  <SCORE.INTER.CONST>
1

>  <SCORE.INTER.POLAR>
0

>  <SCORE.INTER.ROT>
5

>  <SCORE.INTER.SOLV>
13.6444

>  <SCORE.INTER.VDW>
-17.3571

>  <SCORE.INTER.norm>
-0.881344

>  <SCORE.INTRA>
-0.13387

>  <SCORE.INTRA.DIHEDRAL>
-0.58894

>  <SCORE.INTRA.DIHEDRAL.0>
3.281

>  <SCORE.INTRA.POLAR>
0

>  <SCORE.INTRA.POLAR.0>
0

>  <SCORE.INTRA.REPUL>
0

>  <SCORE.INTRA.REPUL.0>
0

>  <SCORE.INTRA.SOLV>
-1.29348

>  <SCORE.INTRA.SOLV.lig_0>
-31.9458

>  <SCORE.INTRA.VDW>
0.80734

>  <SCORE.INTRA.VDW.0>
-0.672612

>  <SCORE.INTRA.norm>
-0.013387

>  <SCORE.RESTR>
0.00261845

>  <SCORE.RESTR.CAVITY>
0.00261845

>  <SCORE.RESTR.norm>
0.000261845

>  <SCORE.SYSTEM>
0

>  <SCORE.SYSTEM.CONST>
0

>  <SCORE.SYSTEM.DIHEDRAL>
0

>  <SCORE.SYSTEM.SOLV>
0

>  <SCORE.SYSTEM.norm>
0

>  <SCORE.heavy>
10

>  <SCORE.norm>
-0.894469

>  <RMSD>
4.848

$$$$
ligand
 OpenBabel11021811473D
libRbt.so/2013.1/901 2013/11/27
 10  9  0  0  0  0  0  0  0  0999 V2000
   27.1104   13.9701   18.8316 N   0  0  0  0  0  0  0  0  0  0  0  0
   26.7538   15.2602   19.4867 C   0  0  2  0  0  0  0  0  0  0  0  0
   27.5888   16.4092   18.9390 C   0  0  0  0  0  0  0  0  0  0  0  0
   27.6692   17.4952   19.5150 O   0  0  0  0  0  0  0  0  0  0  0  0
   26.8974   15.1582   21.0035 C   0  0  0  0  0  0  0  0  0  0  0  0
   28.3035   14.8179   21.4406 C   0  0  0  0  0  0  0  0  0  0  0  0
   29.2028   16.0249   21.4191 C   0  0  0  0  0  0  0  0  0  0  0  0
   30.6358   15.6354   21.7367 C   0  0  0  0  0  0  0  0  0  0  0  0
   31.5574   16.7999   21.6799 N   0  0  0  0  0  0  0  0  0  0  0  0
   28.2441   16.2703   17.9051 O   0  0  0  0  0  0  0  0  0  0  0  0
  2  1  1  6  0  0  0
  2  3  1  0  0  0  0
  2  5  1  0  0  0  0
  3  4  1  0  0  0  0
  3 10  1  0  0  0  0
  5  6  1  0  0  0  0
  6  7  1  0  0  0  0
  7  8  1  0  0  0  0
  8  9  1  0  0  0  0
M  END
>  <CHROM.1>
-164.41453197,60.06834461,79.46817453,-174.75259787,178.14866764,28.40704333
15.80976745,20.17718361,2.75969052,-0.58065262,-0.87940388

>  <Name>
ligand

>  <RI>
0

>  <Rbt.Current_Directory>
/home/itssahil/PROJECTS/Mol_Feturizer/New_Systems/rnas/3DIX

>  <Rbt.Executable>
rbdock ($Id: //depot/dev/client3/rdock/2013.1/src/exe/rbdock.cxx#4 $)

>  <Rbt.Library>
libRbt.so (2013.1, Build901 2013/11/27)

>  <Rbt.Parameter_File>
/export/apps/rDock/src/rDock_2013.1_src/data/scripts/dock_solv.prm

>  <Rbt.Receptor>
prm/blind_docking_100.prm

>  <SCORE>
-8.64876

>  <SCORE.INTER>
-9.39766

>  <SCORE.INTER.CONST>
1

>  <SCORE.INTER.POLAR>
0

>  <SCORE.INTER.ROT>
5

>  <SCORE.INTER.SOLV>
14.9045

>  <SCORE.INTER.VDW>
-18.1666

>  <SCORE.INTER.norm>
-0.939766

>  <SCORE.INTRA>
0.748898

>  <SCORE.INTRA.DIHEDRAL>
-0.159886

>  <SCORE.INTRA.DIHEDRAL.0>
3.281

>  <SCORE.INTRA.POLAR>
0

>  <SCORE.INTRA.POLAR.0>
0

>  <SCORE.INTRA.REPUL>
0

>  <SCORE.INTRA.REPUL.0>
0

>  <SCORE.INTRA.SOLV>
-0.275848

>  <SCORE.INTRA.SOLV.lig_0>
-31.9458

>  <SCORE.INTRA.VDW>
0.966765

>  <SCORE.INTRA.VDW.0>
-0.672612

>  <SCORE.INTRA.norm>
0.0748898

>  <SCORE.RESTR>
0

>  <SCORE.RESTR.CAVITY>
0

>  <SCORE.RESTR.norm>
0

>  <SCORE.SYSTEM>
0

>  <SCORE.SYSTEM.CONST>
0

>  <SCORE.SYSTEM.DIHEDRAL>
0

>  <SCORE.SYSTEM.SOLV>
0

>  <SCORE.SYSTEM.norm>
0

>  <SCORE.heavy>
10

>  <SCORE.norm>
-0.864876

>  <RMSD>
4.851

$$$$
ligand
 OpenBabel11021811473D
libRbt.so/2013.1/901 2013/11/27
 10  9  0  0  0  0  0  0  0  0999 V2000
   29.2718   15.9836   20.0116 N   0  0  0  0  0  0  0  0  0  0  0  0
   27.7858   16.0094   19.9030 C   0  0  2  0  0  0  0  0  0  0  0  0
   27.1327   15.2626   21.0574 C   0  0  0  0  0  0  0  0  0  0  0  0
   25.9479   14.9258   21.0350 O   0  0  0  0  0  0  0  0  0  0  0  0
   27.3285   15.4430   18.5606 C   0  0  0  0  0  0  0  0  0  0  0  0
   27.7756   14.0164   18.3401 C   0  0  0  0  0  0  0  0  0  0  0  0
   26.8825   13.2953   17.3661 C   0  0  0  0  0  0  0  0  0  0  0  0
   27.3459   11.8627   17.1684 C   0  0  0  0  0  0  0  0  0  0  0  0
   26.2639   10.9933   16.6374 N   0  0  0  0  0  0  0  0  0  0  0  0
   27.7910   14.9404   22.0477 O   0  0  0  0  0  0  0  0  0  0  0  0
  2  1  1  1  0  0  0
  2  3  1  0  0  0  0
  2  5  1  0  0  0  0
  3  4  1  0  0  0  0
  3 10  1  0  0  0  0
  5  6  1  0  0  0  0
  6  7  1  0  0  0  0
  7  8  1  0  0  0  0
  8  9  1  0  0  0  0
M  END
>  <CHROM.1>
-165.10349543,59.27425302,155.71033798,-179.61459341,159.20688779,27.33899673
14.26538176,19.24680699,-1.34681793,-0.79090660,-2.14078672

>  <Name>
ligand

>  <RI>
0

>  <Rbt.Current_Directory>
/home/itssahil/PROJECTS/Mol_Feturizer/New_Systems/rnas/3DIX

>  <Rbt.Executable>
rbdock ($Id: //depot/dev/client3/rdock/2013.1/src/exe/rbdock.cxx#4 $)

>  <Rbt.Library>
libRbt.so (2013.1, Build901 2013/11/27)

>  <Rbt.Parameter_File>
/export/apps/rDock/src/rDock_2013.1_src/data/scripts/dock_solv.prm

>  <Rbt.Receptor>
prm/blind_docking_40.prm

>  <SCORE>
-10.4603

>  <SCORE.INTER>
-11.3506

>  <SCORE.INTER.CONST>
1

>  <SCORE.INTER.POLAR>
0

>  <SCORE.INTER.ROT>
5

>  <SCORE.INTER.SOLV>
13.3558

>  <SCORE.INTER.VDW>
-18.9523

>  <SCORE.INTER.norm>
-1.13506

>  <SCORE.INTRA>
0.890307

>  <SCORE.INTRA.DIHEDRAL>
1.89712

>  <SCORE.INTRA.DIHEDRAL.0>
3.281

>  <SCORE.INTRA.POLAR>
0

>  <SCORE.INTRA.POLAR.0>
0

>  <SCORE.INTRA.REPUL>
0

>  <SCORE.INTRA.REPUL.0>
0

>  <SCORE.INTRA.SOLV>
-0.66276

>  <SCORE.INTRA.SOLV.lig_0>
-31.9458

>  <SCORE.INTRA.VDW>
0.273129

>  <SCORE.INTRA.VDW.0>
-0.672612

>  <SCORE.INTRA.norm>
0.0890307

>  <SCORE.RESTR>
0

>  <SCORE.RESTR.CAVITY>
0

>  <SCORE.RESTR.norm>
0

>  <SCORE.SYSTEM>
0

>  <SCORE.SYSTEM.CONST>
0

>  <SCORE.SYSTEM.DIHEDRAL>
0

>  <SCORE.SYSTEM.SOLV>
0

>  <SCORE.SYSTEM.norm>
0

>  <SCORE.heavy>
10

>  <SCORE.norm>
-1.04603

>  <RMSD>
4.889

$$$$
ligand
 OpenBabel11021811473D
libRbt.so/2013.1/901 2013/11/27
 10  9  0  0  0  0  0  0  0  0999 V2000
   25.8262   15.3124   20.3035 N   0  0  0  0  0  0  0  0  0  0  0  0
   27.2024   15.7821   20.6293 C   0  0  2  0  0  0  0  0  0  0  0  0
   27.8344   16.5067   19.4492 C   0  0  0  0  0  0  0  0  0  0  0  0
   28.3625   17.6137   19.5648 O   0  0  0  0  0  0  0  0  0  0  0  0
   28.0800   14.6194   21.0870 C   0  0  0  0  0  0  0  0  0  0  0  0
   29.3154   15.0710   21.8312 C   0  0  0  0  0  0  0  0  0  0  0  0
   30.3280   15.6933   20.9072 C   0  0  0  0  0  0  0  0  0  0  0  0
   31.4751   16.3010   21.6951 C   0  0  0  0  0  0  0  0  0  0  0  0
   32.4853   16.9380   20.8106 N   0  0  0  0  0  0  0  0  0  0  0  0
   27.8647   15.9821   18.3349 O   0  0  0  0  0  0  0  0  0  0  0  0
  2  1  1  6  0  0  0
  2  3  1  0  0  0  0
  2  5  1  0  0  0  0
  3  4  1  0  0  0  0
  3 10  1  0  0  0  0
  5  6  1  0  0  0  0
  6  7  1  0  0  0  0
  7  8  1  0  0  0  0
  8  9  1  0  0  0  0
M  END
>  <CHROM.1>
129.91157418,-161.89634457,-72.52386899,172.58386422,-179.34135371,28.88282236
15.99868442,20.43224476,3.00180197,-0.28643285,-0.87942493

>  <Name>
ligand

>  <RI>
0

>  <Rbt.Current_Directory>
/home/itssahil/PROJECTS/Mol_Feturizer/New_Systems/rnas/3DIX

>  <Rbt.Executable>
rbdock ($Id: //depot/dev/client3/rdock/2013.1/src/exe/rbdock.cxx#4 $)

>  <Rbt.Library>
libRbt.so (2013.1, Build901 2013/11/27)

>  <Rbt.Parameter_File>
/export/apps/rDock/src/rDock_2013.1_src/data/scripts/dock_solv.prm

>  <Rbt.Receptor>
prm/blind_docking_60.prm

>  <SCORE>
-8.45367

>  <SCORE.INTER>
-7.90128

>  <SCORE.INTER.CONST>
1

>  <SCORE.INTER.POLAR>
0

>  <SCORE.INTER.ROT>
5

>  <SCORE.INTER.SOLV>
17.6518

>  <SCORE.INTER.VDW>
-18.0848

>  <SCORE.INTER.norm>
-0.790128

>  <SCORE.INTRA>
-0.552386

>  <SCORE.INTRA.DIHEDRAL>
0.216842

>  <SCORE.INTRA.DIHEDRAL.0>
3.281

>  <SCORE.INTRA.POLAR>
0

>  <SCORE.INTRA.POLAR.0>
0

>  <SCORE.INTRA.REPUL>
0

>  <SCORE.INTRA.REPUL.0>
0

>  <SCORE.INTRA.SOLV>
-1.42963

>  <SCORE.INTRA.SOLV.lig_0>
-31.9458

>  <SCORE.INTRA.VDW>
0.0540092

>  <SCORE.INTRA.VDW.0>
-0.672612

>  <SCORE.INTRA.norm>
-0.0552386

>  <SCORE.RESTR>
0

>  <SCORE.RESTR.CAVITY>
0

>  <SCORE.RESTR.norm>
0

>  <SCORE.SYSTEM>
0

>  <SCORE.SYSTEM.CONST>
0

>  <SCORE.SYSTEM.DIHEDRAL>
0

>  <SCORE.SYSTEM.SOLV>
0

>  <SCORE.SYSTEM.norm>
0

>  <SCORE.heavy>
10

>  <SCORE.norm>
-0.845367

>  <RMSD>
4.923

$$$$
ligand
 OpenBabel11021811473D
libRbt.so/2013.1/901 2013/11/27
 10  9  0  0  0  0  0  0  0  0999 V2000
   28.8277   14.5865   18.8217 N   0  0  0  0  0  0  0  0  0  0  0  0
   27.7968   14.5454   19.8969 C   0  0  2  0  0  0  0  0  0  0  0  0
   26.8715   15.7519   19.8239 C   0  0  0  0  0  0  0  0  0  0  0  0
   25.6828   15.6879   20.1411 O   0  0  0  0  0  0  0  0  0  0  0  0
   28.4500   14.4435   21.2734 C   0  0  0  0  0  0  0  0  0  0  0  0
   29.7689   15.1767   21.3554 C   0  0  0  0  0  0  0  0  0  0  0  0
   29.5827   16.6695   21.2979 C   0  0  0  0  0  0  0  0  0  0  0  0
   30.8924   17.3872   21.5727 C   0  0  0  0  0  0  0  0  0  0  0  0
   31.9274   17.0718   20.5539 N   0  0  0  0  0  0  0  0  0  0  0  0
   27.3017   16.8511   19.4711 O   0  0  0  0  0  0  0  0  0  0  0  0
  2  1  1  6  0  0  0
  2  3  1  0  0  0  0
  2  5  1  0  0  0  0
  3  4  1  0  0  0  0
  3 10  1  0  0  0  0
  5  6  1  0  0  0  0
  6  7  1  0  0  0  0
  7  8  1  0  0  0  0
  8  9  1  0  0  0  0
M  END
>  <CHROM.1>
146.97410719,33.57480503,69.59013627,172.20849286,62.19618986,28.68049943
15.83979633,20.41607934,-2.83184165,-0.26736075,0.06514546

>  <Name>
ligand

>  <RI>
0

>  <Rbt.Current_Directory>
/home/itssahil/PROJECTS/Mol_Feturizer/New_Systems/rnas/3DIX

>  <Rbt.Executable>
rbdock ($Id: //depot/dev/client3/rdock/2013.1/src/exe/rbdock.cxx#4 $)

>  <Rbt.Library>
libRbt.so (2013.1, Build901 2013/11/27)

>  <Rbt.Parameter_File>
/export/apps/rDock/src/rDock_2013.1_src/data/scripts/dock_solv.prm

>  <Rbt.Receptor>
prm/pocket_docking_3.prm

>  <SCORE>
-6.50962

>  <SCORE.INTER>
-8.63603

>  <SCORE.INTER.CONST>
1

>  <SCORE.INTER.POLAR>
0

>  <SCORE.INTER.ROT>
5

>  <SCORE.INTER.SOLV>
12.1355

>  <SCORE.INTER.VDW>
-16.7359

>  <SCORE.INTER.norm>
-0.863603

>  <SCORE.INTRA>
2.12642

>  <SCORE.INTRA.DIHEDRAL>
1.1809

>  <SCORE.INTRA.DIHEDRAL.0>
3.281

>  <SCORE.INTRA.POLAR>
0

>  <SCORE.INTRA.POLAR.0>
0

>  <SCORE.INTRA.REPUL>
0

>  <SCORE.INTRA.REPUL.0>
0

>  <SCORE.INTRA.SOLV>
1.52092

>  <SCORE.INTRA.SOLV.lig_0>
-31.9458

>  <SCORE.INTRA.VDW>
0.775506

>  <SCORE.INTRA.VDW.0>
-0.672612

>  <SCORE.INTRA.norm>
0.212642

>  <SCORE.RESTR>
0

>  <SCORE.RESTR.CAVITY>
0

>  <SCORE.RESTR.norm>
0

>  <SCORE.SYSTEM>
0

>  <SCORE.SYSTEM.CONST>
0

>  <SCORE.SYSTEM.DIHEDRAL>
0

>  <SCORE.SYSTEM.SOLV>
0

>  <SCORE.SYSTEM.norm>
0

>  <SCORE.heavy>
10

>  <SCORE.norm>
-0.650962

>  <RMSD>
4.952

$$$$
ligand
 OpenBabel11021811473D
libRbt.so/2013.1/901 2013/11/27
 10  9  0  0  0  0  0  0  0  0999 V2000
   25.8031   15.3056   20.3361 N   0  0  0  0  0  0  0  0  0  0  0  0
   27.1966   15.7652   20.5964 C   0  0  2  0  0  0  0  0  0  0  0  0
   27.7985   16.4328   19.3680 C   0  0  0  0  0  0  0  0  0  0  0  0
   27.8219   15.8817   18.2664 O   0  0  0  0  0  0  0  0  0  0  0  0
   28.0719   14.6070   21.0700 C   0  0  0  0  0  0  0  0  0  0  0  0
   29.3091   15.0664   21.8064 C   0  0  0  0  0  0  0  0  0  0  0  0
   30.3169   15.6843   20.8743 C   0  0  0  0  0  0  0  0  0  0  0  0
   31.4783   16.2774   21.6523 C   0  0  0  0  0  0  0  0  0  0  0  0
   32.4609   16.9507   20.7636 N   0  0  0  0  0  0  0  0  0  0  0  0
   28.2565   17.5744   19.4363 O   0  0  0  0  0  0  0  0  0  0  0  0
  2  1  1  6  0  0  0
  2  3  1  0  0  0  0
  2  5  1  0  0  0  0
  3  4  1  0  0  0  0
  3 10  1  0  0  0  0
  5  6  1  0  0  0  0
  6  7  1  0  0  0  0
  7  8  1  0  0  0  0
  8  9  1  0  0  0  0
M  END
>  <CHROM.1>
-53.34017870,-159.40939593,-71.99821209,173.62374285,-177.38004718,28.85542591
15.97065714,20.38685219,2.99106028,-0.28451570,-0.90546938

>  <Name>
ligand

>  <RI>
0

>  <Rbt.Current_Directory>
/home/itssahil/PROJECTS/Mol_Feturizer/New_Systems/rnas/3DIX

>  <Rbt.Executable>
rbdock ($Id: //depot/dev/client3/rdock/2013.1/src/exe/rbdock.cxx#4 $)

>  <Rbt.Library>
libRbt.so (2013.1, Build901 2013/11/27)

>  <Rbt.Parameter_File>
/export/apps/rDock/src/rDock_2013.1_src/data/scripts/dock_solv.prm

>  <Rbt.Receptor>
prm/pocket_docking_7.prm

>  <SCORE>
-8.50954

>  <SCORE.INTER>
-7.99071

>  <SCORE.INTER.CONST>
1

>  <SCORE.INTER.POLAR>
0

>  <SCORE.INTER.ROT>
5

>  <SCORE.INTER.SOLV>
17.723

>  <SCORE.INTER.VDW>
-18.1682

>  <SCORE.INTER.norm>
-0.799071

>  <SCORE.INTRA>
-0.518825

>  <SCORE.INTRA.DIHEDRAL>
0.494884

>  <SCORE.INTRA.DIHEDRAL.0>
3.281

>  <SCORE.INTRA.POLAR>
0

>  <SCORE.INTRA.POLAR.0>
0

>  <SCORE.INTRA.REPUL>
0

>  <SCORE.INTRA.REPUL.0>
0

>  <SCORE.INTRA.SOLV>
-1.42102

>  <SCORE.INTRA.SOLV.lig_0>
-31.9458

>  <SCORE.INTRA.VDW>
-0.0557569

>  <SCORE.INTRA.VDW.0>
-0.672612

>  <SCORE.INTRA.norm>
-0.0518825

>  <SCORE.RESTR>
0

>  <SCORE.RESTR.CAVITY>
0

>  <SCORE.RESTR.norm>
0

>  <SCORE.SYSTEM>
0

>  <SCORE.SYSTEM.CONST>
0

>  <SCORE.SYSTEM.DIHEDRAL>
0

>  <SCORE.SYSTEM.SOLV>
0

>  <SCORE.SYSTEM.norm>
0

>  <SCORE.heavy>
10

>  <SCORE.norm>
-0.850954

>  <RMSD>
4.958

$$$$
ligand
 OpenBabel11021811473D
libRbt.so/2013.1/901 2013/11/27
 10  9  0  0  0  0  0  0  0  0999 V2000
   25.8082   15.2756   20.3325 N   0  0  0  0  0  0  0  0  0  0  0  0
   27.1941   15.7562   20.5951 C   0  0  2  0  0  0  0  0  0  0  0  0
   27.8007   16.4019   19.3573 C   0  0  0  0  0  0  0  0  0  0  0  0
   27.8723   15.8129   18.2777 O   0  0  0  0  0  0  0  0  0  0  0  0
   28.0771   14.6187   21.1034 C   0  0  0  0  0  0  0  0  0  0  0  0
   29.3112   15.1083   21.8254 C   0  0  0  0  0  0  0  0  0  0  0  0
   30.3214   15.6907   20.8733 C   0  0  0  0  0  0  0  0  0  0  0  0
   31.4915   16.2933   21.6307 C   0  0  0  0  0  0  0  0  0  0  0  0
   32.4787   16.9299   20.7203 N   0  0  0  0  0  0  0  0  0  0  0  0
   28.2131   17.5623   19.3941 O   0  0  0  0  0  0  0  0  0  0  0  0
  2  1  1  6  0  0  0
  2  3  1  0  0  0  0
  2  5  1  0  0  0  0
  3  4  1  0  0  0  0
  3 10  1  0  0  0  0
  5  6  1  0  0  0  0
  6  7  1  0  0  0  0
  7  8  1  0  0  0  0
  8  9  1  0  0  0  0
M  END
>  <CHROM.1>
-55.30085312,-160.12933811,-72.62977324,174.64692385,-177.49960558,28.86095265
15.96052751,20.38064272,2.99375197,-0.28075415,-0.92633216

>  <Name>
ligand

>  <RI>
0

>  <Rbt.Current_Directory>
/home/itssahil/PROJECTS/Mol_Feturizer/New_Systems/rnas/3DIX

>  <Rbt.Executable>
rbdock ($Id: //depot/dev/client3/rdock/2013.1/src/exe/rbdock.cxx#4 $)

>  <Rbt.Library>
libRbt.so (2013.1, Build901 2013/11/27)

>  <Rbt.Parameter_File>
/export/apps/rDock/src/rDock_2013.1_src/data/scripts/dock_solv.prm

>  <Rbt.Receptor>
prm/blind_docking_60.prm

>  <SCORE>
-8.5218

>  <SCORE.INTER>
-7.94633

>  <SCORE.INTER.CONST>
1

>  <SCORE.INTER.POLAR>
0

>  <SCORE.INTER.ROT>
5

>  <SCORE.INTER.SOLV>
17.7378

>  <SCORE.INTER.VDW>
-18.1435

>  <SCORE.INTER.norm>
-0.794633

>  <SCORE.INTRA>
-0.575467

>  <SCORE.INTRA.DIHEDRAL>
0.402761

>  <SCORE.INTRA.DIHEDRAL.0>
3.281

>  <SCORE.INTRA.POLAR>
0

>  <SCORE.INTRA.POLAR.0>
0

>  <SCORE.INTRA.REPUL>
0

>  <SCORE.INTRA.REPUL.0>
0

>  <SCORE.INTRA.SOLV>
-1.42668

>  <SCORE.INTRA.SOLV.lig_0>
-31.9458

>  <SCORE.INTRA.VDW>
-0.0635055

>  <SCORE.INTRA.VDW.0>
-0.672612

>  <SCORE.INTRA.norm>
-0.0575467

>  <SCORE.RESTR>
0

>  <SCORE.RESTR.CAVITY>
0

>  <SCORE.RESTR.norm>
0

>  <SCORE.SYSTEM>
0

>  <SCORE.SYSTEM.CONST>
0

>  <SCORE.SYSTEM.DIHEDRAL>
0

>  <SCORE.SYSTEM.SOLV>
0

>  <SCORE.SYSTEM.norm>
0

>  <SCORE.heavy>
10

>  <SCORE.norm>
-0.85218

>  <RMSD>
4.960

$$$$
ligand
 OpenBabel11021811473D
libRbt.so/2013.1/901 2013/11/27
 10  9  0  0  0  0  0  0  0  0999 V2000
   25.7675   15.2162   20.3969 N   0  0  0  0  0  0  0  0  0  0  0  0
   27.1395   15.7349   20.6597 C   0  0  2  0  0  0  0  0  0  0  0  0
   27.7096   16.4388   19.4363 C   0  0  0  0  0  0  0  0  0  0  0  0
   28.2172   17.5595   19.5007 O   0  0  0  0  0  0  0  0  0  0  0  0
   28.0660   14.6128   21.1226 C   0  0  0  0  0  0  0  0  0  0  0  0
   29.3059   15.1225   21.8202 C   0  0  0  0  0  0  0  0  0  0  0  0
   30.3013   15.6921   20.8450 C   0  0  0  0  0  0  0  0  0  0  0  0
   31.4841   16.3023   21.5763 C   0  0  0  0  0  0  0  0  0  0  0  0
   32.4819   16.8821   20.6399 N   0  0  0  0  0  0  0  0  0  0  0  0
   27.7087   15.8834   18.3366 O   0  0  0  0  0  0  0  0  0  0  0  0
  2  1  1  6  0  0  0
  2  3  1  0  0  0  0
  2  5  1  0  0  0  0
  3  4  1  0  0  0  0
  3 10  1  0  0  0  0
  5  6  1  0  0  0  0
  6  7  1  0  0  0  0
  7  8  1  0  0  0  0
  8  9  1  0  0  0  0
M  END
>  <CHROM.1>
130.43682791,-161.36529673,-75.23473173,175.23380169,-179.62575113,28.82199809
15.96058408,20.40366395,3.02404796,-0.26588722,-0.90408300

>  <Name>
ligand

>  <RI>
0

>  <Rbt.Current_Directory>
/home/itssahil/PROJECTS/Mol_Feturizer/New_Systems/rnas/3DIX

>  <Rbt.Executable>
rbdock ($Id: //depot/dev/client3/rdock/2013.1/src/exe/rbdock.cxx#4 $)

>  <Rbt.Library>
libRbt.so (2013.1, Build901 2013/11/27)

>  <Rbt.Parameter_File>
/export/apps/rDock/src/rDock_2013.1_src/data/scripts/dock_solv.prm

>  <Rbt.Receptor>
prm/pocket_docking_8.prm

>  <SCORE>
-8.38445

>  <SCORE.INTER>
-7.78664

>  <SCORE.INTER.CONST>
1

>  <SCORE.INTER.POLAR>
0

>  <SCORE.INTER.ROT>
5

>  <SCORE.INTER.SOLV>
17.9702

>  <SCORE.INTER.VDW>
-18.1145

>  <SCORE.INTER.norm>
-0.778664

>  <SCORE.INTRA>
-0.597802

>  <SCORE.INTRA.DIHEDRAL>
0.43462

>  <SCORE.INTRA.DIHEDRAL.0>
3.281

>  <SCORE.INTRA.POLAR>
0

>  <SCORE.INTRA.POLAR.0>
0

>  <SCORE.INTRA.REPUL>
0

>  <SCORE.INTRA.REPUL.0>
0

>  <SCORE.INTRA.SOLV>
-1.44757

>  <SCORE.INTRA.SOLV.lig_0>
-31.9458

>  <SCORE.INTRA.VDW>
-0.0913253

>  <SCORE.INTRA.VDW.0>
-0.672612

>  <SCORE.INTRA.norm>
-0.0597802

>  <SCORE.RESTR>
0

>  <SCORE.RESTR.CAVITY>
0

>  <SCORE.RESTR.norm>
0

>  <SCORE.SYSTEM>
0

>  <SCORE.SYSTEM.CONST>
0

>  <SCORE.SYSTEM.DIHEDRAL>
0

>  <SCORE.SYSTEM.SOLV>
0

>  <SCORE.SYSTEM.norm>
0

>  <SCORE.heavy>
10

>  <SCORE.norm>
-0.838445

>  <RMSD>
4.980

$$$$
ligand
 OpenBabel11021811473D
libRbt.so/2013.1/901 2013/11/27
 10  9  0  0  0  0  0  0  0  0999 V2000
   29.0302   15.5333   21.3066 N   0  0  0  0  0  0  0  0  0  0  0  0
   28.2336   15.5704   20.0478 C   0  0  2  0  0  0  0  0  0  0  0  0
   26.7553   15.3307   20.3203 C   0  0  0  0  0  0  0  0  0  0  0  0
   25.8712   15.7885   19.5947 O   0  0  0  0  0  0  0  0  0  0  0  0
   28.7704   14.5622   19.0344 C   0  0  0  0  0  0  0  0  0  0  0  0
   28.1364   14.7038   17.6699 C   0  0  0  0  0  0  0  0  0  0  0  0
   26.9421   13.8011   17.5123 C   0  0  0  0  0  0  0  0  0  0  0  0
   27.3782   12.3733   17.2344 C   0  0  0  0  0  0  0  0  0  0  0  0
   26.2203   11.4661   17.0228 N   0  0  0  0  0  0  0  0  0  0  0  0
   26.3984   14.6330   21.2709 O   0  0  0  0  0  0  0  0  0  0  0  0
  2  1  1  1  0  0  0
  2  3  1  0  0  0  0
  2  5  1  0  0  0  0
  3  4  1  0  0  0  0
  3 10  1  0  0  0  0
  5  6  1  0  0  0  0
  6  7  1  0  0  0  0
  7  8  1  0  0  0  0
  8  9  1  0  0  0  0
M  END
>  <CHROM.1>
152.09084870,-171.24310223,-92.80515971,-78.35534755,-177.84767355,27.34158558
14.37764569,19.11445294,-1.41412435,-0.22856291,-2.23158971

>  <Name>
ligand

>  <RI>
0

>  <Rbt.Current_Directory>
/home/itssahil/PROJECTS/Mol_Feturizer/New_Systems/rnas/3DIX

>  <Rbt.Executable>
rbdock ($Id: //depot/dev/client3/rdock/2013.1/src/exe/rbdock.cxx#4 $)

>  <Rbt.Library>
libRbt.so (2013.1, Build901 2013/11/27)

>  <Rbt.Parameter_File>
/export/apps/rDock/src/rDock_2013.1_src/data/scripts/dock_solv.prm

>  <Rbt.Receptor>
prm/pocket_docking_5.prm

>  <SCORE>
-8.91747

>  <SCORE.INTER>
-10.0974

>  <SCORE.INTER.CONST>
1

>  <SCORE.INTER.POLAR>
0

>  <SCORE.INTER.ROT>
5

>  <SCORE.INTER.SOLV>
14.9379

>  <SCORE.INTER.VDW>
-18.6442

>  <SCORE.INTER.norm>
-1.00974

>  <SCORE.INTRA>
1.17991

>  <SCORE.INTRA.DIHEDRAL>
3.25574

>  <SCORE.INTRA.DIHEDRAL.0>
3.281

>  <SCORE.INTRA.POLAR>
0

>  <SCORE.INTRA.POLAR.0>
0

>  <SCORE.INTRA.REPUL>
0

>  <SCORE.INTRA.REPUL.0>
0

>  <SCORE.INTRA.SOLV>
-1.34311

>  <SCORE.INTRA.SOLV.lig_0>
-31.9458

>  <SCORE.INTRA.VDW>
0.223592

>  <SCORE.INTRA.VDW.0>
-0.672612

>  <SCORE.INTRA.norm>
0.117991

>  <SCORE.RESTR>
0

>  <SCORE.RESTR.CAVITY>
0

>  <SCORE.RESTR.norm>
0

>  <SCORE.SYSTEM>
0

>  <SCORE.SYSTEM.CONST>
0

>  <SCORE.SYSTEM.DIHEDRAL>
0

>  <SCORE.SYSTEM.SOLV>
0

>  <SCORE.SYSTEM.norm>
0

>  <SCORE.heavy>
10

>  <SCORE.norm>
-0.891747

>  <RMSD>
4.998

$$$$
ligand
 OpenBabel11021811473D
libRbt.so/2013.1/901 2013/11/27
 10  9  0  0  0  0  0  0  0  0999 V2000
   25.7360   15.2198   20.4219 N   0  0  0  0  0  0  0  0  0  0  0  0
   27.1182   15.7277   20.6505 C   0  0  2  0  0  0  0  0  0  0  0  0
   27.6949   16.3524   19.3878 C   0  0  0  0  0  0  0  0  0  0  0  0
   27.7663   15.7357   18.3237 O   0  0  0  0  0  0  0  0  0  0  0  0
   28.0269   14.6165   21.1715 C   0  0  0  0  0  0  0  0  0  0  0  0
   29.2696   15.1422   21.8520 C   0  0  0  0  0  0  0  0  0  0  0  0
   30.2721   15.6651   20.8582 C   0  0  0  0  0  0  0  0  0  0  0  0
   31.4545   16.3004   21.5683 C   0  0  0  0  0  0  0  0  0  0  0  0
   32.4581   16.8372   20.6127 N   0  0  0  0  0  0  0  0  0  0  0  0
   28.0817   17.5221   19.3877 O   0  0  0  0  0  0  0  0  0  0  0  0
  2  1  1  6  0  0  0
  2  3  1  0  0  0  0
  2  5  1  0  0  0  0
  3  4  1  0  0  0  0
  3 10  1  0  0  0  0
  5  6  1  0  0  0  0
  6  7  1  0  0  0  0
  7  8  1  0  0  0  0
  8  9  1  0  0  0  0
M  END
>  <CHROM.1>
-55.76488415,-160.57160820,-74.64714032,174.89505780,-179.52052282,28.79111765
15.92693246,20.39275773,3.01022969,-0.25931053,-0.94795608

>  <Name>
ligand

>  <RI>
0

>  <Rbt.Current_Directory>
/home/itssahil/PROJECTS/Mol_Feturizer/New_Systems/rnas/3DIX

>  <Rbt.Executable>
rbdock ($Id: //depot/dev/client3/rdock/2013.1/src/exe/rbdock.cxx#4 $)

>  <Rbt.Library>
libRbt.so (2013.1, Build901 2013/11/27)

>  <Rbt.Parameter_File>
/export/apps/rDock/src/rDock_2013.1_src/data/scripts/dock_solv.prm

>  <Rbt.Receptor>
prm/pocket_docking_3.prm

>  <SCORE>
-8.36507

>  <SCORE.INTER>
-7.766

>  <SCORE.INTER.CONST>
1

>  <SCORE.INTER.POLAR>
0

>  <SCORE.INTER.ROT>
5

>  <SCORE.INTER.SOLV>
18.0594

>  <SCORE.INTER.VDW>
-18.1305

>  <SCORE.INTER.norm>
-0.7766

>  <SCORE.INTRA>
-0.600744

>  <SCORE.INTRA.DIHEDRAL>
0.522374

>  <SCORE.INTRA.DIHEDRAL.0>
3.281

>  <SCORE.INTRA.POLAR>
0

>  <SCORE.INTRA.POLAR.0>
0

>  <SCORE.INTRA.REPUL>
0

>  <SCORE.INTRA.REPUL.0>
0

>  <SCORE.INTRA.SOLV>
-1.44022

>  <SCORE.INTRA.SOLV.lig_0>
-31.9458

>  <SCORE.INTRA.VDW>
-0.141823

>  <SCORE.INTRA.VDW.0>
-0.672612

>  <SCORE.INTRA.norm>
-0.0600744

>  <SCORE.RESTR>
0.00167279

>  <SCORE.RESTR.CAVITY>
0.00167279

>  <SCORE.RESTR.norm>
0.000167279

>  <SCORE.SYSTEM>
0

>  <SCORE.SYSTEM.CONST>
0

>  <SCORE.SYSTEM.DIHEDRAL>
0

>  <SCORE.SYSTEM.SOLV>
0

>  <SCORE.SYSTEM.norm>
0

>  <SCORE.heavy>
10

>  <SCORE.norm>
-0.836507

>  <RMSD>
4.999

$$$$
ligand
 OpenBabel11021811473D
libRbt.so/2013.1/901 2013/11/27
 10  9  0  0  0  0  0  0  0  0999 V2000
   29.1050   15.4334   20.5750 N   0  0  0  0  0  0  0  0  0  0  0  0
   27.9317   16.0542   19.8978 C   0  0  2  0  0  0  0  0  0  0  0  0
   26.6250   15.4378   20.3772 C   0  0  0  0  0  0  0  0  0  0  0  0
   25.5406   15.7144   19.8621 O   0  0  0  0  0  0  0  0  0  0  0  0
   28.0595   15.9459   18.3800 C   0  0  0  0  0  0  0  0  0  0  0  0
   28.2986   14.5301   17.9084 C   0  0  0  0  0  0  0  0  0  0  0  0
   27.0113   13.7613   17.7733 C   0  0  0  0  0  0  0  0  0  0  0  0
   27.2675   12.3761   17.2064 C   0  0  0  0  0  0  0  0  0  0  0  0
   26.0093   11.6089   17.0146 N   0  0  0  0  0  0  0  0  0  0  0  0
   26.6207   14.6069   21.2868 O   0  0  0  0  0  0  0  0  0  0  0  0
  2  1  1  1  0  0  0
  2  3  1  0  0  0  0
  2  5  1  0  0  0  0
  3  4  1  0  0  0  0
  3 10  1  0  0  0  0
  5  6  1  0  0  0  0
  6  7  1  0  0  0  0
  7  8  1  0  0  0  0
  8  9  1  0  0  0  0
M  END
>  <CHROM.1>
-173.21383812,53.49485984,83.90303311,176.02634298,-177.92845959,27.21821672
14.54085900,19.04597055,-1.40906407,-0.47522651,-2.28200482

>  <Name>
ligand

>  <RI>
0

>  <Rbt.Current_Directory>
/home/itssahil/PROJECTS/Mol_Feturizer/New_Systems/rnas/3DIX

>  <Rbt.Executable>
rbdock ($Id: //depot/dev/client3/rdock/2013.1/src/exe/rbdock.cxx#4 $)

>  <Rbt.Library>
libRbt.so (2013.1, Build901 2013/11/27)

>  <Rbt.Parameter_File>
/export/apps/rDock/src/rDock_2013.1_src/data/scripts/dock_solv.prm

>  <Rbt.Receptor>
prm/pocket_docking_6.prm

>  <SCORE>
-11.0599

>  <SCORE.INTER>
-11.4635

>  <SCORE.INTER.CONST>
1

>  <SCORE.INTER.POLAR>
0

>  <SCORE.INTER.ROT>
5

>  <SCORE.INTER.SOLV>
14.4747

>  <SCORE.INTER.VDW>
-19.4005

>  <SCORE.INTER.norm>
-1.14635

>  <SCORE.INTRA>
0.403547

>  <SCORE.INTRA.DIHEDRAL>
0.589361

>  <SCORE.INTRA.DIHEDRAL.0>
3.281

>  <SCORE.INTRA.POLAR>
0

>  <SCORE.INTRA.POLAR.0>
0

>  <SCORE.INTRA.REPUL>
0

>  <SCORE.INTRA.REPUL.0>
0

>  <SCORE.INTRA.SOLV>
-0.204553

>  <SCORE.INTRA.SOLV.lig_0>
-31.9458

>  <SCORE.INTRA.VDW>
0.211143

>  <SCORE.INTRA.VDW.0>
-0.672612

>  <SCORE.INTRA.norm>
0.0403547

>  <SCORE.RESTR>
0

>  <SCORE.RESTR.CAVITY>
0

>  <SCORE.RESTR.norm>
0

>  <SCORE.SYSTEM>
0

>  <SCORE.SYSTEM.CONST>
0

>  <SCORE.SYSTEM.DIHEDRAL>
0

>  <SCORE.SYSTEM.SOLV>
0

>  <SCORE.SYSTEM.norm>
0

>  <SCORE.heavy>
10

>  <SCORE.norm>
-1.10599

>  <RMSD>
5.001

$$$$
ligand
 OpenBabel11021811473D
libRbt.so/2013.1/901 2013/11/27
 10  9  0  0  0  0  0  0  0  0999 V2000
   25.8846   14.9774   20.7898 N   0  0  0  0  0  0  0  0  0  0  0  0
   27.2350   15.6066   20.8251 C   0  0  2  0  0  0  0  0  0  0  0  0
   27.6288   16.1505   19.4590 C   0  0  0  0  0  0  0  0  0  0  0  0
   27.5990   15.4558   18.4421 O   0  0  0  0  0  0  0  0  0  0  0  0
   28.2812   14.6207   21.3402 C   0  0  0  0  0  0  0  0  0  0  0  0
   29.5835   15.2877   21.7184 C   0  0  0  0  0  0  0  0  0  0  0  0
   30.3708   15.7045   20.5050 C   0  0  0  0  0  0  0  0  0  0  0  0
   31.6876   16.3435   20.9098 C   0  0  0  0  0  0  0  0  0  0  0  0
   31.4865   17.5809   21.7080 N   0  0  0  0  0  0  0  0  0  0  0  0
   27.9619   17.3292   19.3260 O   0  0  0  0  0  0  0  0  0  0  0  0
  2  1  1  6  0  0  0
  2  3  1  0  0  0  0
  2  5  1  0  0  0  0
  3  4  1  0  0  0  0
  3 10  1  0  0  0  0
  5  6  1  0  0  0  0
  6  7  1  0  0  0  0
  7  8  1  0  0  0  0
  8  9  1  0  0  0  0
M  END
>  <CHROM.1>
-53.05575715,-165.82477113,-73.90451196,-178.73652112,-61.99138521,28.77150281
15.91780678,20.46948769,3.04298812,-0.37101147,-0.94692542

>  <Name>
ligand

>  <RI>
0

>  <Rbt.Current_Directory>
/home/itssahil/PROJECTS/Mol_Feturizer/New_Systems/rnas/3DIX

>  <Rbt.Executable>
rbdock ($Id: //depot/dev/client3/rdock/2013.1/src/exe/rbdock.cxx#4 $)

>  <Rbt.Library>
libRbt.so (2013.1, Build901 2013/11/27)

>  <Rbt.Parameter_File>
/export/apps/rDock/src/rDock_2013.1_src/data/scripts/dock_solv.prm

>  <Rbt.Receptor>
prm/pocket_docking_3.prm

>  <SCORE>
-8.25574

>  <SCORE.INTER>
-8.13365

>  <SCORE.INTER.CONST>
1

>  <SCORE.INTER.POLAR>
0

>  <SCORE.INTER.ROT>
5

>  <SCORE.INTER.SOLV>
17.0404

>  <SCORE.INTER.VDW>
-18.0359

>  <SCORE.INTER.norm>
-0.813365

>  <SCORE.INTRA>
-0.122085

>  <SCORE.INTRA.DIHEDRAL>
-0.240398

>  <SCORE.INTRA.DIHEDRAL.0>
3.281

>  <SCORE.INTRA.POLAR>
0

>  <SCORE.INTRA.POLAR.0>
0

>  <SCORE.INTRA.REPUL>
0

>  <SCORE.INTRA.REPUL.0>
0

>  <SCORE.INTRA.SOLV>
-0.47365

>  <SCORE.INTRA.SOLV.lig_0>
-31.9458

>  <SCORE.INTRA.VDW>
0.234939

>  <SCORE.INTRA.VDW.0>
-0.672612

>  <SCORE.INTRA.norm>
-0.0122085

>  <SCORE.RESTR>
0

>  <SCORE.RESTR.CAVITY>
0

>  <SCORE.RESTR.norm>
0

>  <SCORE.SYSTEM>
0

>  <SCORE.SYSTEM.CONST>
0

>  <SCORE.SYSTEM.DIHEDRAL>
0

>  <SCORE.SYSTEM.SOLV>
0

>  <SCORE.SYSTEM.norm>
0

>  <SCORE.heavy>
10

>  <SCORE.norm>
-0.825574

>  <RMSD>
5.024

$$$$
ligand
 OpenBabel11021811473D
libRbt.so/2013.1/901 2013/11/27
 10  9  0  0  0  0  0  0  0  0999 V2000
   25.8768   14.9605   20.8138 N   0  0  0  0  0  0  0  0  0  0  0  0
   27.2313   15.5815   20.8304 C   0  0  2  0  0  0  0  0  0  0  0  0
   27.5884   16.1688   19.4722 C   0  0  0  0  0  0  0  0  0  0  0  0
   27.9875   17.3270   19.3421 O   0  0  0  0  0  0  0  0  0  0  0  0
   28.2862   14.5739   21.2818 C   0  0  0  0  0  0  0  0  0  0  0  0
   29.5950   15.2239   21.6672 C   0  0  0  0  0  0  0  0  0  0  0  0
   30.3694   15.6798   20.4595 C   0  0  0  0  0  0  0  0  0  0  0  0
   31.6876   16.3115   20.8711 C   0  0  0  0  0  0  0  0  0  0  0  0
   31.4896   17.5233   21.7084 N   0  0  0  0  0  0  0  0  0  0  0  0
   27.5183   15.4795   18.4535 O   0  0  0  0  0  0  0  0  0  0  0  0
  2  1  1  6  0  0  0
  2  3  1  0  0  0  0
  2  5  1  0  0  0  0
  3  4  1  0  0  0  0
  3 10  1  0  0  0  0
  5  6  1  0  0  0  0
  6  7  1  0  0  0  0
  7  8  1  0  0  0  0
  8  9  1  0  0  0  0
M  END
>  <CHROM.1>
128.54376982,-164.80062984,-74.65961666,-179.21761141,-61.95390017,28.76252240
15.89550109,20.45738086,3.05636143,-0.36164745,-0.91627234

>  <Name>
ligand

>  <RI>
0

>  <Rbt.Current_Directory>
/home/itssahil/PROJECTS/Mol_Feturizer/New_Systems/rnas/3DIX

>  <Rbt.Executable>
rbdock ($Id: //depot/dev/client3/rdock/2013.1/src/exe/rbdock.cxx#4 $)

>  <Rbt.Library>
libRbt.so (2013.1, Build901 2013/11/27)

>  <Rbt.Parameter_File>
/export/apps/rDock/src/rDock_2013.1_src/data/scripts/dock_solv.prm

>  <Rbt.Receptor>
prm/pocket_docking_6.prm

>  <SCORE>
-8.31744

>  <SCORE.INTER>
-8.21068

>  <SCORE.INTER.CONST>
1

>  <SCORE.INTER.POLAR>
0

>  <SCORE.INTER.ROT>
5

>  <SCORE.INTER.SOLV>
17.0807

>  <SCORE.INTER.VDW>
-18.1007

>  <SCORE.INTER.norm>
-0.821068

>  <SCORE.INTRA>
-0.106761

>  <SCORE.INTRA.DIHEDRAL>
-0.0998861

>  <SCORE.INTRA.DIHEDRAL.0>
3.281

>  <SCORE.INTRA.POLAR>
0

>  <SCORE.INTRA.POLAR.0>
0

>  <SCORE.INTRA.REPUL>
0

>  <SCORE.INTRA.REPUL.0>
0

>  <SCORE.INTRA.SOLV>
-0.482574

>  <SCORE.INTRA.SOLV.lig_0>
-31.9458

>  <SCORE.INTRA.VDW>
0.184469

>  <SCORE.INTRA.VDW.0>
-0.672612

>  <SCORE.INTRA.norm>
-0.0106761

>  <SCORE.RESTR>
0

>  <SCORE.RESTR.CAVITY>
0

>  <SCORE.RESTR.norm>
0

>  <SCORE.SYSTEM>
0

>  <SCORE.SYSTEM.CONST>
0

>  <SCORE.SYSTEM.DIHEDRAL>
0

>  <SCORE.SYSTEM.SOLV>
0

>  <SCORE.SYSTEM.norm>
0

>  <SCORE.heavy>
10

>  <SCORE.norm>
-0.831744

>  <RMSD>
5.031

$$$$
ligand
 OpenBabel11021811473D
libRbt.so/2013.1/901 2013/11/27
 10  9  0  0  0  0  0  0  0  0999 V2000
   25.9219   14.9633   20.8720 N   0  0  0  0  0  0  0  0  0  0  0  0
   27.2734   15.5904   20.8433 C   0  0  2  0  0  0  0  0  0  0  0  0
   27.5947   16.1521   19.4655 C   0  0  0  0  0  0  0  0  0  0  0  0
   27.4674   15.4842   18.4382 O   0  0  0  0  0  0  0  0  0  0  0  0
   28.3439   14.5966   21.2888 C   0  0  0  0  0  0  0  0  0  0  0  0
   29.6500   15.2625   21.6554 C   0  0  0  0  0  0  0  0  0  0  0  0
   30.3991   15.7320   20.4370 C   0  0  0  0  0  0  0  0  0  0  0  0
   31.7308   16.3487   20.8271 C   0  0  0  0  0  0  0  0  0  0  0  0
   31.5599   17.5672   21.6605 N   0  0  0  0  0  0  0  0  0  0  0  0
   27.9653   17.3198   19.3356 O   0  0  0  0  0  0  0  0  0  0  0  0
  2  1  1  6  0  0  0
  2  3  1  0  0  0  0
  2  5  1  0  0  0  0
  3  4  1  0  0  0  0
  3 10  1  0  0  0  0
  5  6  1  0  0  0  0
  6  7  1  0  0  0  0
  7  8  1  0  0  0  0
  8  9  1  0  0  0  0
M  END
>  <CHROM.1>
-50.62644405,-163.66709344,-74.05591326,-177.82001372,-63.30789603,28.78854740
15.91421377,20.44945592,3.06204999,-0.35929960,-0.92756668

>  <Name>
ligand

>  <RI>
0

>  <Rbt.Current_Directory>
/home/itssahil/PROJECTS/Mol_Feturizer/New_Systems/rnas/3DIX

>  <Rbt.Executable>
rbdock ($Id: //depot/dev/client3/rdock/2013.1/src/exe/rbdock.cxx#4 $)

>  <Rbt.Library>
libRbt.so (2013.1, Build901 2013/11/27)

>  <Rbt.Parameter_File>
/export/apps/rDock/src/rDock_2013.1_src/data/scripts/dock_solv.prm

>  <Rbt.Receptor>
prm/pocket_docking_4.prm

>  <SCORE>
-8.30679

>  <SCORE.INTER>
-8.21491

>  <SCORE.INTER.CONST>
1

>  <SCORE.INTER.POLAR>
0

>  <SCORE.INTER.ROT>
5

>  <SCORE.INTER.SOLV>
17.1086

>  <SCORE.INTER.VDW>
-18.1128

>  <SCORE.INTER.norm>
-0.821491

>  <SCORE.INTRA>
-0.0918784

>  <SCORE.INTRA.DIHEDRAL>
0.0541232

>  <SCORE.INTRA.DIHEDRAL.0>
3.281

>  <SCORE.INTRA.POLAR>
0

>  <SCORE.INTRA.POLAR.0>
0

>  <SCORE.INTRA.REPUL>
0

>  <SCORE.INTRA.REPUL.0>
0

>  <SCORE.INTRA.SOLV>
-0.499044

>  <SCORE.INTRA.SOLV.lig_0>
-31.9458

>  <SCORE.INTRA.VDW>
0.130582

>  <SCORE.INTRA.VDW.0>
-0.672612

>  <SCORE.INTRA.norm>
-0.00918784

>  <SCORE.RESTR>
0

>  <SCORE.RESTR.CAVITY>
0

>  <SCORE.RESTR.norm>
0

>  <SCORE.SYSTEM>
0

>  <SCORE.SYSTEM.CONST>
0

>  <SCORE.SYSTEM.DIHEDRAL>
0

>  <SCORE.SYSTEM.SOLV>
0

>  <SCORE.SYSTEM.norm>
0

>  <SCORE.heavy>
10

>  <SCORE.norm>
-0.830679

>  <RMSD>
5.043

$$$$
ligand
 OpenBabel11021811473D
libRbt.so/2013.1/901 2013/11/27
 10  9  0  0  0  0  0  0  0  0999 V2000
   27.8577   15.2528   18.6990 N   0  0  0  0  0  0  0  0  0  0  0  0
   27.9638   14.7272   20.0894 C   0  0  2  0  0  0  0  0  0  0  0  0
   26.7585   15.1298   20.9275 C   0  0  0  0  0  0  0  0  0  0  0  0
   25.6302   15.2387   20.4451 O   0  0  0  0  0  0  0  0  0  0  0  0
   29.2624   15.1879   20.7476 C   0  0  0  0  0  0  0  0  0  0  0  0
   29.3707   16.6919   20.8480 C   0  0  0  0  0  0  0  0  0  0  0  0
   30.6650   17.1174   21.4884 C   0  0  0  0  0  0  0  0  0  0  0  0
   31.8082   17.0481   20.4913 C   0  0  0  0  0  0  0  0  0  0  0  0
   32.0950   15.6535   20.0654 N   0  0  0  0  0  0  0  0  0  0  0  0
   26.8751   15.3288   22.1377 O   0  0  0  0  0  0  0  0  0  0  0  0
  2  1  1  6  0  0  0
  2  3  1  0  0  0  0
  2  5  1  0  0  0  0
  3  4  1  0  0  0  0
  3 10  1  0  0  0  0
  5  6  1  0  0  0  0
  6  7  1  0  0  0  0
  7  8  1  0  0  0  0
  8  9  1  0  0  0  0
M  END
>  <CHROM.1>
33.69242319,60.56815449,-179.46338226,78.91705484,-65.81759936,28.79206549
15.74089270,20.61261898,-3.05237140,0.25858725,1.15448770

>  <Name>
ligand

>  <RI>
0

>  <Rbt.Current_Directory>
/home/itssahil/PROJECTS/Mol_Feturizer/New_Systems/rnas/3DIX

>  <Rbt.Executable>
rbdock ($Id: //depot/dev/client3/rdock/2013.1/src/exe/rbdock.cxx#4 $)

>  <Rbt.Library>
libRbt.so (2013.1, Build901 2013/11/27)

>  <Rbt.Parameter_File>
/export/apps/rDock/src/rDock_2013.1_src/data/scripts/dock_solv.prm

>  <Rbt.Receptor>
prm/pocket_docking_3.prm

>  <SCORE>
-7.26567

>  <SCORE.INTER>
-9.27943

>  <SCORE.INTER.CONST>
1

>  <SCORE.INTER.POLAR>
0

>  <SCORE.INTER.ROT>
5

>  <SCORE.INTER.SOLV>
12.6106

>  <SCORE.INTER.VDW>
-17.3231

>  <SCORE.INTER.norm>
-0.927943

>  <SCORE.INTRA>
2.01377

>  <SCORE.INTRA.DIHEDRAL>
-0.34726

>  <SCORE.INTRA.DIHEDRAL.0>
3.281

>  <SCORE.INTRA.POLAR>
0

>  <SCORE.INTRA.POLAR.0>
0

>  <SCORE.INTRA.REPUL>
0

>  <SCORE.INTRA.REPUL.0>
0

>  <SCORE.INTRA.SOLV>
1.6579

>  <SCORE.INTRA.SOLV.lig_0>
-31.9458

>  <SCORE.INTRA.VDW>
1.35845

>  <SCORE.INTRA.VDW.0>
-0.672612

>  <SCORE.INTRA.norm>
0.201377

>  <SCORE.RESTR>
0

>  <SCORE.RESTR.CAVITY>
0

>  <SCORE.RESTR.norm>
0

>  <SCORE.SYSTEM>
0

>  <SCORE.SYSTEM.CONST>
0

>  <SCORE.SYSTEM.DIHEDRAL>
0

>  <SCORE.SYSTEM.SOLV>
0

>  <SCORE.SYSTEM.norm>
0

>  <SCORE.heavy>
10

>  <SCORE.norm>
-0.726567

>  <RMSD>
5.080

$$$$
ligand
 OpenBabel11021811473D
libRbt.so/2013.1/901 2013/11/27
 10  9  0  0  0  0  0  0  0  0999 V2000
   29.0338   16.5951   20.0052 N   0  0  0  0  0  0  0  0  0  0  0  0
   27.8412   15.8837   19.4645 C   0  0  2  0  0  0  0  0  0  0  0  0
   26.8978   15.4566   20.5802 C   0  0  0  0  0  0  0  0  0  0  0  0
   27.2971   15.2098   21.7192 O   0  0  0  0  0  0  0  0  0  0  0  0
   28.2608   14.6841   18.6179 C   0  0  0  0  0  0  0  0  0  0  0  0
   27.0945   14.0090   17.9338 C   0  0  0  0  0  0  0  0  0  0  0  0
   27.4771   12.6651   17.3736 C   0  0  0  0  0  0  0  0  0  0  0  0
   26.2488   11.9105   16.8962 C   0  0  0  0  0  0  0  0  0  0  0  0
   26.5257   10.4649   16.6903 N   0  0  0  0  0  0  0  0  0  0  0  0
   25.6850   15.3769   20.3791 O   0  0  0  0  0  0  0  0  0  0  0  0
  2  1  1  1  0  0  0
  2  3  1  0  0  0  0
  2  5  1  0  0  0  0
  3  4  1  0  0  0  0
  3 10  1  0  0  0  0
  5  6  1  0  0  0  0
  6  7  1  0  0  0  0
  7  8  1  0  0  0  0
  8  9  1  0  0  0  0
M  END
>  <CHROM.1>
-28.39767600,-174.29636352,-166.86954045,170.71761355,-164.24828408,27.21570979
14.22619488,18.99779043,-1.38704087,-0.57695593,-2.32896596

>  <Name>
ligand

>  <RI>
0

>  <Rbt.Current_Directory>
/home/itssahil/PROJECTS/Mol_Feturizer/New_Systems/rnas/3DIX

>  <Rbt.Executable>
rbdock ($Id: //depot/dev/client3/rdock/2013.1/src/exe/rbdock.cxx#4 $)

>  <Rbt.Library>
libRbt.so (2013.1, Build901 2013/11/27)

>  <Rbt.Parameter_File>
/export/apps/rDock/src/rDock_2013.1_src/data/scripts/dock_solv.prm

>  <Rbt.Receptor>
prm/blind_docking_80.prm

>  <SCORE>
-12.5087

>  <SCORE.INTER>
-11.7793

>  <SCORE.INTER.CONST>
1

>  <SCORE.INTER.POLAR>
0

>  <SCORE.INTER.ROT>
5

>  <SCORE.INTER.SOLV>
14.2842

>  <SCORE.INTER.VDW>
-19.5476

>  <SCORE.INTER.norm>
-1.17793

>  <SCORE.INTRA>
-0.729363

>  <SCORE.INTRA.DIHEDRAL>
0.33076

>  <SCORE.INTRA.DIHEDRAL.0>
3.281

>  <SCORE.INTRA.POLAR>
0

>  <SCORE.INTRA.POLAR.0>
0

>  <SCORE.INTRA.REPUL>
0

>  <SCORE.INTRA.REPUL.0>
0

>  <SCORE.INTRA.SOLV>
-1.55298

>  <SCORE.INTRA.SOLV.lig_0>
-31.9458

>  <SCORE.INTRA.VDW>
-0.118253

>  <SCORE.INTRA.VDW.0>
-0.672612

>  <SCORE.INTRA.norm>
-0.0729363

>  <SCORE.RESTR>
0

>  <SCORE.RESTR.CAVITY>
0

>  <SCORE.RESTR.norm>
0

>  <SCORE.SYSTEM>
0

>  <SCORE.SYSTEM.CONST>
0

>  <SCORE.SYSTEM.DIHEDRAL>
0

>  <SCORE.SYSTEM.SOLV>
0

>  <SCORE.SYSTEM.norm>
0

>  <SCORE.heavy>
10

>  <SCORE.norm>
-1.25087

>  <RMSD>
5.082

$$$$
ligand
 OpenBabel11021811473D
libRbt.so/2013.1/901 2013/11/27
 10  9  0  0  0  0  0  0  0  0999 V2000
   29.0457   16.5802   19.9777 N   0  0  0  0  0  0  0  0  0  0  0  0
   27.8478   15.8697   19.4477 C   0  0  2  0  0  0  0  0  0  0  0  0
   26.9181   15.4360   20.5723 C   0  0  0  0  0  0  0  0  0  0  0  0
   27.3327   15.1715   21.7018 O   0  0  0  0  0  0  0  0  0  0  0  0
   28.2591   14.6747   18.5906 C   0  0  0  0  0  0  0  0  0  0  0  0
   27.0859   14.0013   17.9168 C   0  0  0  0  0  0  0  0  0  0  0  0
   27.4577   12.6503   17.3665 C   0  0  0  0  0  0  0  0  0  0  0  0
   26.2265   11.9129   16.8700 C   0  0  0  0  0  0  0  0  0  0  0  0
   26.4862   10.4636   16.6687 N   0  0  0  0  0  0  0  0  0  0  0  0
   25.7017   15.3687   20.3889 O   0  0  0  0  0  0  0  0  0  0  0  0
  2  1  1  1  0  0  0
  2  3  1  0  0  0  0
  2  5  1  0  0  0  0
  3  4  1  0  0  0  0
  3 10  1  0  0  0  0
  5  6  1  0  0  0  0
  6  7  1  0  0  0  0
  7  8  1  0  0  0  0
  8  9  1  0  0  0  0
M  END
>  <CHROM.1>
-29.14317019,-174.28685106,-165.88959367,172.06668712,-164.41055322,27.21606680
14.21335260,18.98214420,-1.37535975,-0.58514044,-2.31869761

>  <Name>
ligand

>  <RI>
0

>  <Rbt.Current_Directory>
/home/itssahil/PROJECTS/Mol_Feturizer/New_Systems/rnas/3DIX

>  <Rbt.Executable>
rbdock ($Id: //depot/dev/client3/rdock/2013.1/src/exe/rbdock.cxx#4 $)

>  <Rbt.Library>
libRbt.so (2013.1, Build901 2013/11/27)

>  <Rbt.Parameter_File>
/export/apps/rDock/src/rDock_2013.1_src/data/scripts/dock_solv.prm

>  <Rbt.Receptor>
prm/pocket_docking_7.prm

>  <SCORE>
-12.4952

>  <SCORE.INTER>
-11.7526

>  <SCORE.INTER.CONST>
1

>  <SCORE.INTER.POLAR>
0

>  <SCORE.INTER.ROT>
5

>  <SCORE.INTER.SOLV>
14.2125

>  <SCORE.INTER.VDW>
-19.5059

>  <SCORE.INTER.norm>
-1.17526

>  <SCORE.INTRA>
-0.742676

>  <SCORE.INTRA.DIHEDRAL>
0.322535

>  <SCORE.INTRA.DIHEDRAL.0>
3.281

>  <SCORE.INTRA.POLAR>
0

>  <SCORE.INTRA.POLAR.0>
0

>  <SCORE.INTRA.REPUL>
0

>  <SCORE.INTRA.REPUL.0>
0

>  <SCORE.INTRA.SOLV>
-1.55348

>  <SCORE.INTRA.SOLV.lig_0>
-31.9458

>  <SCORE.INTRA.VDW>
-0.127205

>  <SCORE.INTRA.VDW.0>
-0.672612

>  <SCORE.INTRA.norm>
-0.0742676

>  <SCORE.RESTR>
0

>  <SCORE.RESTR.CAVITY>
0

>  <SCORE.RESTR.norm>
0

>  <SCORE.SYSTEM>
0

>  <SCORE.SYSTEM.CONST>
0

>  <SCORE.SYSTEM.DIHEDRAL>
0

>  <SCORE.SYSTEM.SOLV>
0

>  <SCORE.SYSTEM.norm>
0

>  <SCORE.heavy>
10

>  <SCORE.norm>
-1.24952

>  <RMSD>
5.082

$$$$
ligand
 OpenBabel11021811473D
libRbt.so/2013.1/901 2013/11/27
 10  9  0  0  0  0  0  0  0  0999 V2000
   25.8121   14.9792   20.6362 N   0  0  0  0  0  0  0  0  0  0  0  0
   27.0974   15.7313   20.6902 C   0  0  2  0  0  0  0  0  0  0  0  0
   27.5705   16.1210   19.2969 C   0  0  0  0  0  0  0  0  0  0  0  0
   27.5024   15.3478   18.3402 O   0  0  0  0  0  0  0  0  0  0  0  0
   28.1684   14.9264   21.4230 C   0  0  0  0  0  0  0  0  0  0  0  0
   29.4223   15.7248   21.6951 C   0  0  0  0  0  0  0  0  0  0  0  0
   30.3090   15.8037   20.4811 C   0  0  0  0  0  0  0  0  0  0  0  0
   31.3987   16.8433   20.6758 C   0  0  0  0  0  0  0  0  0  0  0  0
   32.2608   16.5371   21.8470 N   0  0  0  0  0  0  0  0  0  0  0  0
   28.0109   17.2505   19.0777 O   0  0  0  0  0  0  0  0  0  0  0  0
  2  1  1  6  0  0  0
  2  3  1  0  0  0  0
  2  5  1  0  0  0  0
  3  4  1  0  0  0  0
  3 10  1  0  0  0  0
  5  6  1  0  0  0  0
  6  7  1  0  0  0  0
  7  8  1  0  0  0  0
  8  9  1  0  0  0  0
M  END
>  <CHROM.1>
-41.88802180,-171.03774053,-80.15814512,167.77123351,59.60529067,28.75603524
15.93559918,20.38239859,2.92585166,-0.30622648,-1.13895873

>  <Name>
ligand

>  <RI>
0

>  <Rbt.Current_Directory>
/home/itssahil/PROJECTS/Mol_Feturizer/New_Systems/rnas/3DIX

>  <Rbt.Executable>
rbdock ($Id: //depot/dev/client3/rdock/2013.1/src/exe/rbdock.cxx#4 $)

>  <Rbt.Library>
libRbt.so (2013.1, Build901 2013/11/27)

>  <Rbt.Parameter_File>
/export/apps/rDock/src/rDock_2013.1_src/data/scripts/dock_solv.prm

>  <Rbt.Receptor>
prm/pocket_docking_6.prm

>  <SCORE>
-6.81677

>  <SCORE.INTER>
-7.16453

>  <SCORE.INTER.CONST>
1

>  <SCORE.INTER.POLAR>
0

>  <SCORE.INTER.ROT>
5

>  <SCORE.INTER.SOLV>
18.9267

>  <SCORE.INTER.VDW>
-18.0186

>  <SCORE.INTER.norm>
-0.716453

>  <SCORE.INTRA>
0.347754

>  <SCORE.INTRA.DIHEDRAL>
0.715177

>  <SCORE.INTRA.DIHEDRAL.0>
3.281

>  <SCORE.INTRA.POLAR>
0

>  <SCORE.INTRA.POLAR.0>
0

>  <SCORE.INTRA.REPUL>
0

>  <SCORE.INTRA.REPUL.0>
0

>  <SCORE.INTRA.SOLV>
-0.497252

>  <SCORE.INTRA.SOLV.lig_0>
-31.9458

>  <SCORE.INTRA.VDW>
0.238791

>  <SCORE.INTRA.VDW.0>
-0.672612

>  <SCORE.INTRA.norm>
0.0347754

>  <SCORE.RESTR>
0

>  <SCORE.RESTR.CAVITY>
0

>  <SCORE.RESTR.norm>
0

>  <SCORE.SYSTEM>
0

>  <SCORE.SYSTEM.CONST>
0

>  <SCORE.SYSTEM.DIHEDRAL>
0

>  <SCORE.SYSTEM.SOLV>
0

>  <SCORE.SYSTEM.norm>
0

>  <SCORE.heavy>
10

>  <SCORE.norm>
-0.681677

>  <RMSD>
5.083

$$$$
ligand
 OpenBabel11021811473D
libRbt.so/2013.1/901 2013/11/27
 10  9  0  0  0  0  0  0  0  0999 V2000
   29.0296   16.5695   20.0381 N   0  0  0  0  0  0  0  0  0  0  0  0
   27.8371   15.8780   19.4722 C   0  0  2  0  0  0  0  0  0  0  0  0
   26.8823   15.4314   20.5704 C   0  0  0  0  0  0  0  0  0  0  0  0
   25.6664   15.3497   20.3902 O   0  0  0  0  0  0  0  0  0  0  0  0
   28.2562   14.6953   18.6018 C   0  0  0  0  0  0  0  0  0  0  0  0
   27.0882   14.0269   17.9140 C   0  0  0  0  0  0  0  0  0  0  0  0
   27.4611   12.6748   17.3671 C   0  0  0  0  0  0  0  0  0  0  0  0
   26.2311   11.9365   16.8694 C   0  0  0  0  0  0  0  0  0  0  0  0
   26.4940   10.4887   16.6614 N   0  0  0  0  0  0  0  0  0  0  0  0
   27.3108   15.1025   21.6777 O   0  0  0  0  0  0  0  0  0  0  0  0
  2  1  1  1  0  0  0
  2  3  1  0  0  0  0
  2  5  1  0  0  0  0
  3  4  1  0  0  0  0
  3 10  1  0  0  0  0
  5  6  1  0  0  0  0
  6  7  1  0  0  0  0
  7  8  1  0  0  0  0
  8  9  1  0  0  0  0
M  END
>  <CHROM.1>
149.95329487,-175.37999238,-164.99390827,171.46483537,-164.85357312,27.20545904
14.21454228,18.98775773,-1.37944350,-0.57789630,-2.31661668

>  <Name>
ligand

>  <RI>
0

>  <Rbt.Current_Directory>
/home/itssahil/PROJECTS/Mol_Feturizer/New_Systems/rnas/3DIX

>  <Rbt.Executable>
rbdock ($Id: //depot/dev/client3/rdock/2013.1/src/exe/rbdock.cxx#4 $)

>  <Rbt.Library>
libRbt.so (2013.1, Build901 2013/11/27)

>  <Rbt.Parameter_File>
/export/apps/rDock/src/rDock_2013.1_src/data/scripts/dock_solv.prm

>  <Rbt.Receptor>
prm/pocket_docking_5.prm

>  <SCORE>
-12.5617

>  <SCORE.INTER>
-11.8069

>  <SCORE.INTER.CONST>
1

>  <SCORE.INTER.POLAR>
0

>  <SCORE.INTER.ROT>
5

>  <SCORE.INTER.SOLV>
14.2847

>  <SCORE.INTER.VDW>
-19.5662

>  <SCORE.INTER.norm>
-1.18069

>  <SCORE.INTRA>
-0.754802

>  <SCORE.INTRA.DIHEDRAL>
0.237467

>  <SCORE.INTRA.DIHEDRAL.0>
3.281

>  <SCORE.INTRA.POLAR>
0

>  <SCORE.INTRA.POLAR.0>
0

>  <SCORE.INTRA.REPUL>
0

>  <SCORE.INTRA.REPUL.0>
0

>  <SCORE.INTRA.SOLV>
-1.55431

>  <SCORE.INTRA.SOLV.lig_0>
-31.9458

>  <SCORE.INTRA.VDW>
-0.0963823

>  <SCORE.INTRA.VDW.0>
-0.672612

>  <SCORE.INTRA.norm>
-0.0754802

>  <SCORE.RESTR>
0

>  <SCORE.RESTR.CAVITY>
0

>  <SCORE.RESTR.norm>
0

>  <SCORE.SYSTEM>
0

>  <SCORE.SYSTEM.CONST>
0

>  <SCORE.SYSTEM.DIHEDRAL>
0

>  <SCORE.SYSTEM.SOLV>
0

>  <SCORE.SYSTEM.norm>
0

>  <SCORE.heavy>
10

>  <SCORE.norm>
-1.25617

>  <RMSD>
5.093

$$$$
ligand
 OpenBabel11021811473D
libRbt.so/2013.1/901 2013/11/27
 10  9  0  0  0  0  0  0  0  0999 V2000
   25.7746   14.9714   20.6005 N   0  0  0  0  0  0  0  0  0  0  0  0
   27.0561   15.7300   20.6543 C   0  0  2  0  0  0  0  0  0  0  0  0
   27.5357   16.1073   19.2598 C   0  0  0  0  0  0  0  0  0  0  0  0
   27.4857   15.3206   18.3131 O   0  0  0  0  0  0  0  0  0  0  0  0
   28.1263   14.9376   21.4017 C   0  0  0  0  0  0  0  0  0  0  0  0
   29.3824   15.7386   21.6559 C   0  0  0  0  0  0  0  0  0  0  0  0
   30.2806   15.7674   20.4481 C   0  0  0  0  0  0  0  0  0  0  0  0
   31.3646   16.8189   20.6073 C   0  0  0  0  0  0  0  0  0  0  0  0
   32.2294   16.5563   21.7870 N   0  0  0  0  0  0  0  0  0  0  0  0
   27.9631   17.2395   19.0291 O   0  0  0  0  0  0  0  0  0  0  0  0
  2  1  1  6  0  0  0
  2  3  1  0  0  0  0
  2  5  1  0  0  0  0
  3  4  1  0  0  0  0
  3 10  1  0  0  0  0
  5  6  1  0  0  0  0
  6  7  1  0  0  0  0
  7  8  1  0  0  0  0
  8  9  1  0  0  0  0
M  END
>  <CHROM.1>
-42.42688753,-171.84472779,-81.31187901,167.09395332,60.48523212,28.72074370
15.92753969,20.34173831,2.92889408,-0.30266226,-1.14943704

>  <Name>
ligand

>  <RI>
0

>  <Rbt.Current_Directory>
/home/itssahil/PROJECTS/Mol_Feturizer/New_Systems/rnas/3DIX

>  <Rbt.Executable>
rbdock ($Id: //depot/dev/client3/rdock/2013.1/src/exe/rbdock.cxx#4 $)

>  <Rbt.Library>
libRbt.so (2013.1, Build901 2013/11/27)

>  <Rbt.Parameter_File>
/export/apps/rDock/src/rDock_2013.1_src/data/scripts/dock_solv.prm

>  <Rbt.Receptor>
prm/pocket_docking_8.prm

>  <SCORE>
-6.80806

>  <SCORE.INTER>
-7.17085

>  <SCORE.INTER.CONST>
1

>  <SCORE.INTER.POLAR>
0

>  <SCORE.INTER.ROT>
5

>  <SCORE.INTER.SOLV>
18.702

>  <SCORE.INTER.VDW>
-17.9479

>  <SCORE.INTER.norm>
-0.717085

>  <SCORE.INTRA>
0.362788

>  <SCORE.INTRA.DIHEDRAL>
0.892681

>  <SCORE.INTRA.DIHEDRAL.0>
3.281

>  <SCORE.INTRA.POLAR>
0

>  <SCORE.INTRA.POLAR.0>
0

>  <SCORE.INTRA.REPUL>
0

>  <SCORE.INTRA.REPUL.0>
0

>  <SCORE.INTRA.SOLV>
-0.51608

>  <SCORE.INTRA.SOLV.lig_0>
-31.9458

>  <SCORE.INTRA.VDW>
0.174488

>  <SCORE.INTRA.VDW.0>
-0.672612

>  <SCORE.INTRA.norm>
0.0362788

>  <SCORE.RESTR>
0

>  <SCORE.RESTR.CAVITY>
0

>  <SCORE.RESTR.norm>
0

>  <SCORE.SYSTEM>
0

>  <SCORE.SYSTEM.CONST>
0

>  <SCORE.SYSTEM.DIHEDRAL>
0

>  <SCORE.SYSTEM.SOLV>
0

>  <SCORE.SYSTEM.norm>
0

>  <SCORE.heavy>
10

>  <SCORE.norm>
-0.680806

>  <RMSD>
5.098

$$$$
ligand
 OpenBabel11021811473D
libRbt.so/2013.1/901 2013/11/27
 10  9  0  0  0  0  0  0  0  0999 V2000
   25.6747   15.6739   20.0877 N   0  0  0  0  0  0  0  0  0  0  0  0
   26.8075   14.7414   19.8270 C   0  0  2  0  0  0  0  0  0  0  0  0
   27.8639   14.8337   20.9191 C   0  0  0  0  0  0  0  0  0  0  0  0
   28.7341   13.9740   21.0653 O   0  0  0  0  0  0  0  0  0  0  0  0
   27.4212   15.0017   18.4532 C   0  0  0  0  0  0  0  0  0  0  0  0
   27.9004   13.7399   17.7734 C   0  0  0  0  0  0  0  0  0  0  0  0
   26.7557   12.8339   17.4060 C   0  0  0  0  0  0  0  0  0  0  0  0
   27.2639   11.4657   16.9869 C   0  0  0  0  0  0  0  0  0  0  0  0
   26.1589   10.4864   16.8180 N   0  0  0  0  0  0  0  0  0  0  0  0
   27.8976   15.8037   21.6780 O   0  0  0  0  0  0  0  0  0  0  0  0
  2  1  1  1  0  0  0
  2  3  1  0  0  0  0
  2  5  1  0  0  0  0
  3  4  1  0  0  0  0
  3 10  1  0  0  0  0
  5  6  1  0  0  0  0
  6  7  1  0  0  0  0
  7  8  1  0  0  0  0
  8  9  1  0  0  0  0
M  END
>  <CHROM.1>
164.34503948,-144.81932668,67.05464935,-168.54382270,171.27785848,27.27235220
13.86424823,19.13397647,1.37730401,-0.68773981,0.69361696

>  <Name>
ligand

>  <RI>
0

>  <Rbt.Current_Directory>
/home/itssahil/PROJECTS/Mol_Feturizer/New_Systems/rnas/3DIX

>  <Rbt.Executable>
rbdock ($Id: //depot/dev/client3/rdock/2013.1/src/exe/rbdock.cxx#4 $)

>  <Rbt.Library>
libRbt.so (2013.1, Build901 2013/11/27)

>  <Rbt.Parameter_File>
/export/apps/rDock/src/rDock_2013.1_src/data/scripts/dock_solv.prm

>  <Rbt.Receptor>
prm/blind_docking_80.prm

>  <SCORE>
-8.54711

>  <SCORE.INTER>
-9.44246

>  <SCORE.INTER.CONST>
1

>  <SCORE.INTER.POLAR>
0

>  <SCORE.INTER.ROT>
5

>  <SCORE.INTER.SOLV>
19.971

>  <SCORE.INTER.VDW>
-19.8853

>  <SCORE.INTER.norm>
-0.944246

>  <SCORE.INTRA>
0.895345

>  <SCORE.INTRA.DIHEDRAL>
2.80496

>  <SCORE.INTRA.DIHEDRAL.0>
3.281

>  <SCORE.INTRA.POLAR>
0

>  <SCORE.INTRA.POLAR.0>
0

>  <SCORE.INTRA.REPUL>
0

>  <SCORE.INTRA.REPUL.0>
0

>  <SCORE.INTRA.SOLV>
-0.958828

>  <SCORE.INTRA.SOLV.lig_0>
-31.9458

>  <SCORE.INTRA.VDW>
-0.0277209

>  <SCORE.INTRA.VDW.0>
-0.672612

>  <SCORE.INTRA.norm>
0.0895345

>  <SCORE.RESTR>
0

>  <SCORE.RESTR.CAVITY>
0

>  <SCORE.RESTR.norm>
0

>  <SCORE.SYSTEM>
0

>  <SCORE.SYSTEM.CONST>
0

>  <SCORE.SYSTEM.DIHEDRAL>
0

>  <SCORE.SYSTEM.SOLV>
0

>  <SCORE.SYSTEM.norm>
0

>  <SCORE.heavy>
10

>  <SCORE.norm>
-0.854711

>  <RMSD>
5.100

$$$$
ligand
 OpenBabel11021811473D
libRbt.so/2013.1/901 2013/11/27
 10  9  0  0  0  0  0  0  0  0999 V2000
   28.2369   14.4732   18.7645 N   0  0  0  0  0  0  0  0  0  0  0  0
   28.3706   14.8560   20.1985 C   0  0  2  0  0  0  0  0  0  0  0  0
   27.0366   15.3034   20.7793 C   0  0  0  0  0  0  0  0  0  0  0  0
   26.8300   15.3456   21.9931 O   0  0  0  0  0  0  0  0  0  0  0  0
   29.4318   15.9396   20.3756 C   0  0  0  0  0  0  0  0  0  0  0  0
   30.8296   15.4502   20.0749 C   0  0  0  0  0  0  0  0  0  0  0  0
   31.8450   16.5559   20.1868 C   0  0  0  0  0  0  0  0  0  0  0  0
   32.1189   16.8912   21.6424 C   0  0  0  0  0  0  0  0  0  0  0  0
   30.9409   17.5089   22.3051 N   0  0  0  0  0  0  0  0  0  0  0  0
   26.1234   15.6731   20.0395 O   0  0  0  0  0  0  0  0  0  0  0  0
  2  1  1  6  0  0  0
  2  3  1  0  0  0  0
  2  5  1  0  0  0  0
  3  4  1  0  0  0  0
  3 10  1  0  0  0  0
  5  6  1  0  0  0  0
  6  7  1  0  0  0  0
  7  8  1  0  0  0  0
  8  9  1  0  0  0  0
M  END
>  <CHROM.1>
161.60516196,-67.40252077,176.98663296,74.82617120,-67.62042678,29.13708494
15.80537049,20.64770161,-2.86151760,0.20277137,1.05923795

>  <Name>
ligand

>  <RI>
0

>  <Rbt.Current_Directory>
/home/itssahil/PROJECTS/Mol_Feturizer/New_Systems/rnas/3DIX

>  <Rbt.Executable>
rbdock ($Id: //depot/dev/client3/rdock/2013.1/src/exe/rbdock.cxx#4 $)

>  <Rbt.Library>
libRbt.so (2013.1, Build901 2013/11/27)

>  <Rbt.Parameter_File>
/export/apps/rDock/src/rDock_2013.1_src/data/scripts/dock_solv.prm

>  <Rbt.Receptor>
prm/pocket_docking_5.prm

>  <SCORE>
-7.58687

>  <SCORE.INTER>
-8.81723

>  <SCORE.INTER.CONST>
1

>  <SCORE.INTER.POLAR>
0

>  <SCORE.INTER.ROT>
5

>  <SCORE.INTER.SOLV>
11.4646

>  <SCORE.INTER.VDW>
-16.633

>  <SCORE.INTER.norm>
-0.881723

>  <SCORE.INTRA>
1.23037

>  <SCORE.INTRA.DIHEDRAL>
-0.488464

>  <SCORE.INTRA.DIHEDRAL.0>
3.281

>  <SCORE.INTRA.POLAR>
0

>  <SCORE.INTRA.POLAR.0>
0

>  <SCORE.INTRA.REPUL>
0

>  <SCORE.INTRA.REPUL.0>
0

>  <SCORE.INTRA.SOLV>
1.60851

>  <SCORE.INTRA.SOLV.lig_0>
-31.9458

>  <SCORE.INTRA.VDW>
0.670347

>  <SCORE.INTRA.VDW.0>
-0.672612

>  <SCORE.INTRA.norm>
0.123037

>  <SCORE.RESTR>
0

>  <SCORE.RESTR.CAVITY>
0

>  <SCORE.RESTR.norm>
0

>  <SCORE.SYSTEM>
0

>  <SCORE.SYSTEM.CONST>
0

>  <SCORE.SYSTEM.DIHEDRAL>
0

>  <SCORE.SYSTEM.SOLV>
0

>  <SCORE.SYSTEM.norm>
0

>  <SCORE.heavy>
10

>  <SCORE.norm>
-0.758687

>  <RMSD>
5.106

$$$$
ligand
 OpenBabel11021811473D
libRbt.so/2013.1/901 2013/11/27
 10  9  0  0  0  0  0  0  0  0999 V2000
   28.0379   16.9853   18.9264 N   0  0  0  0  0  0  0  0  0  0  0  0
   28.0002   15.4957   18.9032 C   0  0  2  0  0  0  0  0  0  0  0  0
   27.7191   14.9702   17.5025 C   0  0  0  0  0  0  0  0  0  0  0  0
   28.1047   15.5583   16.4909 O   0  0  0  0  0  0  0  0  0  0  0  0
   26.9744   14.9619   19.9004 C   0  0  0  0  0  0  0  0  0  0  0  0
   27.3325   15.2703   21.3359 C   0  0  0  0  0  0  0  0  0  0  0  0
   28.6213   14.6085   21.7448 C   0  0  0  0  0  0  0  0  0  0  0  0
   29.7024   15.6442   21.9987 C   0  0  0  0  0  0  0  0  0  0  0  0
   30.1464   16.3077   20.7452 N   0  0  0  0  0  0  0  0  0  0  0  0
   27.1170   13.9076   17.3410 O   0  0  0  0  0  0  0  0  0  0  0  0
  2  1  1  6  0  0  0
  2  3  1  0  0  0  0
  2  5  1  0  0  0  0
  3  4  1  0  0  0  0
  3 10  1  0  0  0  0
  5  6  1  0  0  0  0
  6  7  1  0  0  0  0
  7  8  1  0  0  0  0
  8  9  1  0  0  0  0
M  END
>  <CHROM.1>
32.27966218,-65.00009030,-62.96281423,112.68911022,-69.50842614,28.16730901
15.35759789,19.44942851,-1.99375051,0.72171954,1.74320793

>  <Name>
ligand

>  <RI>
0

>  <Rbt.Current_Directory>
/home/itssahil/PROJECTS/Mol_Feturizer/New_Systems/rnas/3DIX

>  <Rbt.Executable>
rbdock ($Id: //depot/dev/client3/rdock/2013.1/src/exe/rbdock.cxx#4 $)

>  <Rbt.Library>
libRbt.so (2013.1, Build901 2013/11/27)

>  <Rbt.Parameter_File>
/export/apps/rDock/src/rDock_2013.1_src/data/scripts/dock_solv.prm

>  <Rbt.Receptor>
prm/pocket_docking_4.prm

>  <SCORE>
-7.03356

>  <SCORE.INTER>
-12.6154

>  <SCORE.INTER.CONST>
1

>  <SCORE.INTER.POLAR>
0

>  <SCORE.INTER.ROT>
5

>  <SCORE.INTER.SOLV>
11.5161

>  <SCORE.INTER.VDW>
-19.1823

>  <SCORE.INTER.norm>
-1.26154

>  <SCORE.INTRA>
5.58189

>  <SCORE.INTRA.DIHEDRAL>
4.52069

>  <SCORE.INTRA.DIHEDRAL.0>
3.281

>  <SCORE.INTRA.POLAR>
0

>  <SCORE.INTRA.POLAR.0>
0

>  <SCORE.INTRA.REPUL>
0

>  <SCORE.INTRA.REPUL.0>
0

>  <SCORE.INTRA.SOLV>
5.16159

>  <SCORE.INTRA.SOLV.lig_0>
-31.9458

>  <SCORE.INTRA.VDW>
0.740752

>  <SCORE.INTRA.VDW.0>
-0.672612

>  <SCORE.INTRA.norm>
0.558189

>  <SCORE.RESTR>
0

>  <SCORE.RESTR.CAVITY>
0

>  <SCORE.RESTR.norm>
0

>  <SCORE.SYSTEM>
0

>  <SCORE.SYSTEM.CONST>
0

>  <SCORE.SYSTEM.DIHEDRAL>
0

>  <SCORE.SYSTEM.SOLV>
0

>  <SCORE.SYSTEM.norm>
0

>  <SCORE.heavy>
10

>  <SCORE.norm>
-0.703356

>  <RMSD>
5.111

$$$$
ligand
 OpenBabel11021811473D
libRbt.so/2013.1/901 2013/11/27
 10  9  0  0  0  0  0  0  0  0999 V2000
   25.7353   15.3308   20.4271 N   0  0  0  0  0  0  0  0  0  0  0  0
   27.1872   15.6494   20.3212 C   0  0  2  0  0  0  0  0  0  0  0  0
   27.6292   15.7439   18.8677 C   0  0  0  0  0  0  0  0  0  0  0  0
   28.2735   16.7021   18.4383 O   0  0  0  0  0  0  0  0  0  0  0  0
   28.0261   14.6231   21.0793 C   0  0  0  0  0  0  0  0  0  0  0  0
   29.5007   14.9537   21.0819 C   0  0  0  0  0  0  0  0  0  0  0  0
   29.7881   16.2198   21.8440 C   0  0  0  0  0  0  0  0  0  0  0  0
   31.2839   16.4616   21.9434 C   0  0  0  0  0  0  0  0  0  0  0  0
   31.9052   16.6779   20.6108 N   0  0  0  0  0  0  0  0  0  0  0  0
   27.3789   14.8337   18.0762 O   0  0  0  0  0  0  0  0  0  0  0  0
  2  1  1  6  0  0  0
  2  3  1  0  0  0  0
  2  5  1  0  0  0  0
  3  4  1  0  0  0  0
  3 10  1  0  0  0  0
  5  6  1  0  0  0  0
  6  7  1  0  0  0  0
  7  8  1  0  0  0  0
  8  9  1  0  0  0  0
M  END
>  <CHROM.1>
130.00224734,-176.08796243,65.56190225,174.70592519,63.58249086,28.67262466
15.72102641,20.23234101,2.73268399,-0.32829278,-1.34559594

>  <Name>
ligand

>  <RI>
0

>  <Rbt.Current_Directory>
/home/itssahil/PROJECTS/Mol_Feturizer/New_Systems/rnas/3DIX

>  <Rbt.Executable>
rbdock ($Id: //depot/dev/client3/rdock/2013.1/src/exe/rbdock.cxx#4 $)

>  <Rbt.Library>
libRbt.so (2013.1, Build901 2013/11/27)

>  <Rbt.Parameter_File>
/export/apps/rDock/src/rDock_2013.1_src/data/scripts/dock_solv.prm

>  <Rbt.Receptor>
prm/pocket_docking_8.prm

>  <SCORE>
-8.48217

>  <SCORE.INTER>
-7.76091

>  <SCORE.INTER.CONST>
1

>  <SCORE.INTER.POLAR>
0

>  <SCORE.INTER.ROT>
5

>  <SCORE.INTER.SOLV>
16.8085

>  <SCORE.INTER.VDW>
-17.7101

>  <SCORE.INTER.norm>
-0.776091

>  <SCORE.INTRA>
-0.721263

>  <SCORE.INTRA.DIHEDRAL>
-1.47272

>  <SCORE.INTRA.DIHEDRAL.0>
3.281

>  <SCORE.INTRA.POLAR>
0

>  <SCORE.INTRA.POLAR.0>
0

>  <SCORE.INTRA.REPUL>
0

>  <SCORE.INTRA.REPUL.0>
0

>  <SCORE.INTRA.SOLV>
-0.396704

>  <SCORE.INTRA.SOLV.lig_0>
-31.9458

>  <SCORE.INTRA.VDW>
0.213448

>  <SCORE.INTRA.VDW.0>
-0.672612

>  <SCORE.INTRA.norm>
-0.0721263

>  <SCORE.RESTR>
0

>  <SCORE.RESTR.CAVITY>
0

>  <SCORE.RESTR.norm>
0

>  <SCORE.SYSTEM>
0

>  <SCORE.SYSTEM.CONST>
0

>  <SCORE.SYSTEM.DIHEDRAL>
0

>  <SCORE.SYSTEM.SOLV>
0

>  <SCORE.SYSTEM.norm>
0

>  <SCORE.heavy>
10

>  <SCORE.norm>
-0.848217

>  <RMSD>
5.112

$$$$
ligand
 OpenBabel11021811473D
libRbt.so/2013.1/901 2013/11/27
 10  9  0  0  0  0  0  0  0  0999 V2000
   29.0210   16.5672   19.9341 N   0  0  0  0  0  0  0  0  0  0  0  0
   27.8288   15.8442   19.4082 C   0  0  2  0  0  0  0  0  0  0  0  0
   26.8993   15.4152   20.5348 C   0  0  0  0  0  0  0  0  0  0  0  0
   27.3181   15.1215   21.6555 O   0  0  0  0  0  0  0  0  0  0  0  0
   28.2494   14.6439   18.5631 C   0  0  0  0  0  0  0  0  0  0  0  0
   27.0803   13.9476   17.9056 C   0  0  0  0  0  0  0  0  0  0  0  0
   27.4720   12.6064   17.3453 C   0  0  0  0  0  0  0  0  0  0  0  0
   26.2474   11.8366   16.8831 C   0  0  0  0  0  0  0  0  0  0  0  0
   26.5490   10.4026   16.6354 N   0  0  0  0  0  0  0  0  0  0  0  0
   25.6799   15.3815   20.3626 O   0  0  0  0  0  0  0  0  0  0  0  0
  2  1  1  1  0  0  0
  2  3  1  0  0  0  0
  2  5  1  0  0  0  0
  3  4  1  0  0  0  0
  3 10  1  0  0  0  0
  5  6  1  0  0  0  0
  6  7  1  0  0  0  0
  7  8  1  0  0  0  0
  8  9  1  0  0  0  0
M  END
>  <CHROM.1>
-31.57954003,-174.92848435,-167.02385813,171.29366274,-166.13795515,27.21434197
14.17732120,18.95479318,-1.39056138,-0.58271516,-2.33664378

>  <Name>
ligand

>  <RI>
0

>  <Rbt.Current_Directory>
/home/itssahil/PROJECTS/Mol_Feturizer/New_Systems/rnas/3DIX

>  <Rbt.Executable>
rbdock ($Id: //depot/dev/client3/rdock/2013.1/src/exe/rbdock.cxx#4 $)

>  <Rbt.Library>
libRbt.so (2013.1, Build901 2013/11/27)

>  <Rbt.Parameter_File>
/export/apps/rDock/src/rDock_2013.1_src/data/scripts/dock_solv.prm

>  <Rbt.Receptor>
prm/pocket_docking_6.prm

>  <SCORE>
-12.523

>  <SCORE.INTER>
-11.6411

>  <SCORE.INTER.CONST>
1

>  <SCORE.INTER.POLAR>
0

>  <SCORE.INTER.ROT>
5

>  <SCORE.INTER.SOLV>
14.3361

>  <SCORE.INTER.VDW>
-19.4728

>  <SCORE.INTER.norm>
-1.16411

>  <SCORE.INTRA>
-0.88193

>  <SCORE.INTRA.DIHEDRAL>
0.0559159

>  <SCORE.INTRA.DIHEDRAL.0>
3.281

>  <SCORE.INTRA.POLAR>
0

>  <SCORE.INTRA.POLAR.0>
0

>  <SCORE.INTRA.REPUL>
0

>  <SCORE.INTRA.REPUL.0>
0

>  <SCORE.INTRA.SOLV>
-1.55791

>  <SCORE.INTRA.SOLV.lig_0>
-31.9458

>  <SCORE.INTRA.VDW>
-0.130936

>  <SCORE.INTRA.VDW.0>
-0.672612

>  <SCORE.INTRA.norm>
-0.088193

>  <SCORE.RESTR>
0

>  <SCORE.RESTR.CAVITY>
0

>  <SCORE.RESTR.norm>
0

>  <SCORE.SYSTEM>
0

>  <SCORE.SYSTEM.CONST>
0

>  <SCORE.SYSTEM.DIHEDRAL>
0

>  <SCORE.SYSTEM.SOLV>
0

>  <SCORE.SYSTEM.norm>
0

>  <SCORE.heavy>
10

>  <SCORE.norm>
-1.2523

>  <RMSD>
5.115

$$$$
ligand
 OpenBabel11021811473D
libRbt.so/2013.1/901 2013/11/27
 10  9  0  0  0  0  0  0  0  0999 V2000
   26.8760   16.7144   19.3443 N   0  0  0  0  0  0  0  0  0  0  0  0
   27.8965   15.6510   19.5643 C   0  0  2  0  0  0  0  0  0  0  0  0
   27.8410   14.5946   18.4699 C   0  0  0  0  0  0  0  0  0  0  0  0
   28.6795   14.5377   17.5691 O   0  0  0  0  0  0  0  0  0  0  0  0
   27.7312   15.0153   20.9429 C   0  0  0  0  0  0  0  0  0  0  0  0
   28.9931   14.3483   21.4392 C   0  0  0  0  0  0  0  0  0  0  0  0
   29.9935   15.3524   21.9464 C   0  0  0  0  0  0  0  0  0  0  0  0
   30.6473   16.0922   20.7926 C   0  0  0  0  0  0  0  0  0  0  0  0
   31.5906   17.1398   21.2630 N   0  0  0  0  0  0  0  0  0  0  0  0
   26.9601   13.7334   18.4743 O   0  0  0  0  0  0  0  0  0  0  0  0
  2  1  1  6  0  0  0
  2  3  1  0  0  0  0
  2  5  1  0  0  0  0
  3  4  1  0  0  0  0
  3 10  1  0  0  0  0
  5  6  1  0  0  0  0
  6  7  1  0  0  0  0
  7  8  1  0  0  0  0
  8  9  1  0  0  0  0
M  END
>  <CHROM.1>
104.48268599,-157.76101812,77.14722667,-74.16687770,177.09836963,28.71400174
15.29234965,19.95028946,-2.49647137,0.51464733,1.66115137

>  <Name>
ligand

>  <RI>
0

>  <Rbt.Current_Directory>
/home/itssahil/PROJECTS/Mol_Feturizer/New_Systems/rnas/3DIX

>  <Rbt.Executable>
rbdock ($Id: //depot/dev/client3/rdock/2013.1/src/exe/rbdock.cxx#4 $)

>  <Rbt.Library>
libRbt.so (2013.1, Build901 2013/11/27)

>  <Rbt.Parameter_File>
/export/apps/rDock/src/rDock_2013.1_src/data/scripts/dock_solv.prm

>  <Rbt.Receptor>
prm/pocket_docking_7.prm

>  <SCORE>
-5.45753

>  <SCORE.INTER>
-7.09338

>  <SCORE.INTER.CONST>
1

>  <SCORE.INTER.POLAR>
0

>  <SCORE.INTER.ROT>
5

>  <SCORE.INTER.SOLV>
14.9234

>  <SCORE.INTER.VDW>
-16.6367

>  <SCORE.INTER.norm>
-0.709338

>  <SCORE.INTRA>
1.63585

>  <SCORE.INTRA.DIHEDRAL>
1.96256

>  <SCORE.INTRA.DIHEDRAL.0>
3.281

>  <SCORE.INTRA.POLAR>
0

>  <SCORE.INTRA.POLAR.0>
0

>  <SCORE.INTRA.REPUL>
0

>  <SCORE.INTRA.REPUL.0>
0

>  <SCORE.INTRA.SOLV>
-0.273543

>  <SCORE.INTRA.SOLV.lig_0>
-31.9458

>  <SCORE.INTRA.VDW>
0.791342

>  <SCORE.INTRA.VDW.0>
-0.672612

>  <SCORE.INTRA.norm>
0.163585

>  <SCORE.RESTR>
0

>  <SCORE.RESTR.CAVITY>
0

>  <SCORE.RESTR.norm>
0

>  <SCORE.SYSTEM>
0

>  <SCORE.SYSTEM.CONST>
0

>  <SCORE.SYSTEM.DIHEDRAL>
0

>  <SCORE.SYSTEM.SOLV>
0

>  <SCORE.SYSTEM.norm>
0

>  <SCORE.heavy>
10

>  <SCORE.norm>
-0.545753

>  <RMSD>
5.123

$$$$
ligand
 OpenBabel11021811473D
libRbt.so/2013.1/901 2013/11/27
 10  9  0  0  0  0  0  0  0  0999 V2000
   28.1158   14.4140   18.8270 N   0  0  0  0  0  0  0  0  0  0  0  0
   28.3091   14.7951   20.2547 C   0  0  2  0  0  0  0  0  0  0  0  0
   26.9984   15.2314   20.8941 C   0  0  0  0  0  0  0  0  0  0  0  0
   26.8683   15.3433   22.1141 O   0  0  0  0  0  0  0  0  0  0  0  0
   29.3690   15.8862   20.3878 C   0  0  0  0  0  0  0  0  0  0  0  0
   30.7609   15.3988   20.0579 C   0  0  0  0  0  0  0  0  0  0  0  0
   31.7761   16.5071   20.1441 C   0  0  0  0  0  0  0  0  0  0  0  0
   32.0846   16.8442   21.5923 C   0  0  0  0  0  0  0  0  0  0  0  0
   30.9341   17.4940   22.2725 N   0  0  0  0  0  0  0  0  0  0  0  0
   26.0261   15.5213   20.1953 O   0  0  0  0  0  0  0  0  0  0  0  0
  2  1  1  6  0  0  0
  2  3  1  0  0  0  0
  2  5  1  0  0  0  0
  3  4  1  0  0  0  0
  3 10  1  0  0  0  0
  5  6  1  0  0  0  0
  6  7  1  0  0  0  0
  7  8  1  0  0  0  0
  8  9  1  0  0  0  0
M  END
>  <CHROM.1>
165.84885957,-68.80870848,177.72645074,75.01406477,-69.20168501,29.08547251
15.74886194,20.68730087,-2.88225104,0.22331913,1.05749343

>  <Name>
ligand

>  <RI>
0

>  <Rbt.Current_Directory>
/home/itssahil/PROJECTS/Mol_Feturizer/New_Systems/rnas/3DIX

>  <Rbt.Executable>
rbdock ($Id: //depot/dev/client3/rdock/2013.1/src/exe/rbdock.cxx#4 $)

>  <Rbt.Library>
libRbt.so (2013.1, Build901 2013/11/27)

>  <Rbt.Parameter_File>
/export/apps/rDock/src/rDock_2013.1_src/data/scripts/dock_solv.prm

>  <Rbt.Receptor>
prm/pocket_docking_5.prm

>  <SCORE>
-7.5675

>  <SCORE.INTER>
-8.80569

>  <SCORE.INTER.CONST>
1

>  <SCORE.INTER.POLAR>
0

>  <SCORE.INTER.ROT>
5

>  <SCORE.INTER.SOLV>
11.6616

>  <SCORE.INTER.VDW>
-16.691

>  <SCORE.INTER.norm>
-0.880569

>  <SCORE.INTRA>
1.23819

>  <SCORE.INTRA.DIHEDRAL>
-0.28702

>  <SCORE.INTRA.DIHEDRAL.0>
3.281

>  <SCORE.INTRA.POLAR>
0

>  <SCORE.INTRA.POLAR.0>
0

>  <SCORE.INTRA.REPUL>
0

>  <SCORE.INTRA.REPUL.0>
0

>  <SCORE.INTRA.SOLV>
1.5441

>  <SCORE.INTRA.SOLV.lig_0>
-31.9458

>  <SCORE.INTRA.VDW>
0.609652

>  <SCORE.INTRA.VDW.0>
-0.672612

>  <SCORE.INTRA.norm>
0.123819

>  <SCORE.RESTR>
0

>  <SCORE.RESTR.CAVITY>
0

>  <SCORE.RESTR.norm>
0

>  <SCORE.SYSTEM>
0

>  <SCORE.SYSTEM.CONST>
0

>  <SCORE.SYSTEM.DIHEDRAL>
0

>  <SCORE.SYSTEM.SOLV>
0

>  <SCORE.SYSTEM.norm>
0

>  <SCORE.heavy>
10

>  <SCORE.norm>
-0.75675

>  <RMSD>
5.124

$$$$
ligand
 OpenBabel11021811473D
libRbt.so/2013.1/901 2013/11/27
 10  9  0  0  0  0  0  0  0  0999 V2000
   29.0160   16.6780   19.4121 N   0  0  0  0  0  0  0  0  0  0  0  0
   27.8164   15.8725   19.0476 C   0  0  2  0  0  0  0  0  0  0  0  0
   26.9802   15.5374   20.2747 C   0  0  0  0  0  0  0  0  0  0  0  0
   25.7561   15.4098   20.2201 O   0  0  0  0  0  0  0  0  0  0  0  0
   28.2199   14.6029   18.3012 C   0  0  0  0  0  0  0  0  0  0  0  0
   27.0341   13.8192   17.7878 C   0  0  0  0  0  0  0  0  0  0  0  0
   27.4372   12.4556   17.2937 C   0  0  0  0  0  0  0  0  0  0  0  0
   26.2154   11.6329   16.9243 C   0  0  0  0  0  0  0  0  0  0  0  0
   26.5536   10.2057   16.6851 N   0  0  0  0  0  0  0  0  0  0  0  0
   27.5178   15.3490   21.3670 O   0  0  0  0  0  0  0  0  0  0  0  0
  2  1  1  1  0  0  0
  2  3  1  0  0  0  0
  2  5  1  0  0  0  0
  3  4  1  0  0  0  0
  3 10  1  0  0  0  0
  5  6  1  0  0  0  0
  6  7  1  0  0  0  0
  7  8  1  0  0  0  0
  8  9  1  0  0  0  0
M  END
>  <CHROM.1>
148.59402497,-174.25648742,-169.08452163,173.86608758,-168.96164675,27.23714851
14.15871580,18.76489479,-1.36526676,-0.63654747,-2.39584642

>  <Name>
ligand

>  <RI>
0

>  <Rbt.Current_Directory>
/home/itssahil/PROJECTS/Mol_Feturizer/New_Systems/rnas/3DIX

>  <Rbt.Executable>
rbdock ($Id: //depot/dev/client3/rdock/2013.1/src/exe/rbdock.cxx#4 $)

>  <Rbt.Library>
libRbt.so (2013.1, Build901 2013/11/27)

>  <Rbt.Parameter_File>
/export/apps/rDock/src/rDock_2013.1_src/data/scripts/dock_solv.prm

>  <Rbt.Receptor>
prm/pocket_docking_7.prm

>  <SCORE>
-12.6815

>  <SCORE.INTER>
-11.4521

>  <SCORE.INTER.CONST>
1

>  <SCORE.INTER.POLAR>
0

>  <SCORE.INTER.ROT>
5

>  <SCORE.INTER.SOLV>
14.5223

>  <SCORE.INTER.VDW>
-19.4088

>  <SCORE.INTER.norm>
-1.14521

>  <SCORE.INTRA>
-1.22938

>  <SCORE.INTRA.DIHEDRAL>
-0.648429

>  <SCORE.INTRA.DIHEDRAL.0>
3.281

>  <SCORE.INTRA.POLAR>
0

>  <SCORE.INTRA.POLAR.0>
0

>  <SCORE.INTRA.REPUL>
0

>  <SCORE.INTRA.REPUL.0>
0

>  <SCORE.INTRA.SOLV>
-1.56139

>  <SCORE.INTRA.SOLV.lig_0>
-31.9458

>  <SCORE.INTRA.VDW>
-0.124468

>  <SCORE.INTRA.VDW.0>
-0.672612

>  <SCORE.INTRA.norm>
-0.122938

>  <SCORE.RESTR>
0

>  <SCORE.RESTR.CAVITY>
0

>  <SCORE.RESTR.norm>
0

>  <SCORE.SYSTEM>
0

>  <SCORE.SYSTEM.CONST>
0

>  <SCORE.SYSTEM.DIHEDRAL>
0

>  <SCORE.SYSTEM.SOLV>
0

>  <SCORE.SYSTEM.norm>
0

>  <SCORE.heavy>
10

>  <SCORE.norm>
-1.26815

>  <RMSD>
5.140

$$$$
ligand
 OpenBabel11021811473D
libRbt.so/2013.1/901 2013/11/27
 10  9  0  0  0  0  0  0  0  0999 V2000
   29.1518   15.4403   19.9636 N   0  0  0  0  0  0  0  0  0  0  0  0
   27.7259   15.7681   19.6807 C   0  0  2  0  0  0  0  0  0  0  0  0
   26.8143   15.2895   20.8019 C   0  0  0  0  0  0  0  0  0  0  0  0
   27.2315   15.0754   21.9411 O   0  0  0  0  0  0  0  0  0  0  0  0
   27.2896   15.1851   18.3386 C   0  0  0  0  0  0  0  0  0  0  0  0
   27.4474   13.6837   18.2691 C   0  0  0  0  0  0  0  0  0  0  0  0
   26.7652   13.1056   17.0582 C   0  0  0  0  0  0  0  0  0  0  0  0
   27.1378   11.6448   16.8752 C   0  0  0  0  0  0  0  0  0  0  0  0
   26.2821   10.7433   17.6898 N   0  0  0  0  0  0  0  0  0  0  0  0
   25.6083   15.1325   20.6052 O   0  0  0  0  0  0  0  0  0  0  0  0
  2  1  1  1  0  0  0
  2  3  1  0  0  0  0
  2  5  1  0  0  0  0
  3  4  1  0  0  0  0
  3 10  1  0  0  0  0
  5  6  1  0  0  0  0
  6  7  1  0  0  0  0
  7  8  1  0  0  0  0
  8  9  1  0  0  0  0
M  END
>  <CHROM.1>
21.78448369,58.57251495,168.69236613,170.05111461,84.66225646,27.12553166
14.10623438,19.15458301,-1.43621958,-0.72926786,-2.27108421

>  <Name>
ligand

>  <RI>
0

>  <Rbt.Current_Directory>
/home/itssahil/PROJECTS/Mol_Feturizer/New_Systems/rnas/3DIX

>  <Rbt.Executable>
rbdock ($Id: //depot/dev/client3/rdock/2013.1/src/exe/rbdock.cxx#4 $)

>  <Rbt.Library>
libRbt.so (2013.1, Build901 2013/11/27)

>  <Rbt.Parameter_File>
/export/apps/rDock/src/rDock_2013.1_src/data/scripts/dock_solv.prm

>  <Rbt.Receptor>
prm/pocket_docking_8.prm

>  <SCORE>
-9.74126

>  <SCORE.INTER>
-10.7034

>  <SCORE.INTER.CONST>
1

>  <SCORE.INTER.POLAR>
0

>  <SCORE.INTER.ROT>
5

>  <SCORE.INTER.SOLV>
13.1253

>  <SCORE.INTER.VDW>
-18.444

>  <SCORE.INTER.norm>
-1.07034

>  <SCORE.INTRA>
0.962127

>  <SCORE.INTRA.DIHEDRAL>
1.08683

>  <SCORE.INTRA.DIHEDRAL.0>
3.281

>  <SCORE.INTRA.POLAR>
0

>  <SCORE.INTRA.POLAR.0>
0

>  <SCORE.INTRA.REPUL>
0

>  <SCORE.INTRA.REPUL.0>
0

>  <SCORE.INTRA.SOLV>
-0.0866831

>  <SCORE.INTRA.SOLV.lig_0>
-31.9458

>  <SCORE.INTRA.VDW>
0.462054

>  <SCORE.INTRA.VDW.0>
-0.672612

>  <SCORE.INTRA.norm>
0.0962127

>  <SCORE.RESTR>
0

>  <SCORE.RESTR.CAVITY>
0

>  <SCORE.RESTR.norm>
0

>  <SCORE.SYSTEM>
0

>  <SCORE.SYSTEM.CONST>
0

>  <SCORE.SYSTEM.DIHEDRAL>
0

>  <SCORE.SYSTEM.SOLV>
0

>  <SCORE.SYSTEM.norm>
0

>  <SCORE.heavy>
10

>  <SCORE.norm>
-0.974126

>  <RMSD>
5.145

$$$$
ligand
 OpenBabel11021811473D
libRbt.so/2013.1/901 2013/11/27
 10  9  0  0  0  0  0  0  0  0999 V2000
   27.8059   14.9890   18.5295 N   0  0  0  0  0  0  0  0  0  0  0  0
   28.0537   14.9597   19.9986 C   0  0  2  0  0  0  0  0  0  0  0  0
   26.7706   15.1986   20.7820 C   0  0  0  0  0  0  0  0  0  0  0  0
   25.6942   15.4229   20.2263 O   0  0  0  0  0  0  0  0  0  0  0  0
   29.1264   15.9737   20.3897 C   0  0  0  0  0  0  0  0  0  0  0  0
   29.6465   15.7693   21.7938 C   0  0  0  0  0  0  0  0  0  0  0  0
   30.6210   16.8457   22.1909 C   0  0  0  0  0  0  0  0  0  0  0  0
   31.9607   16.6396   21.5063 C   0  0  0  0  0  0  0  0  0  0  0  0
   31.8947   16.9285   20.0500 N   0  0  0  0  0  0  0  0  0  0  0  0
   26.7675   15.1402   22.0126 O   0  0  0  0  0  0  0  0  0  0  0  0
  2  1  1  6  0  0  0
  2  3  1  0  0  0  0
  2  5  1  0  0  0  0
  3  4  1  0  0  0  0
  3 10  1  0  0  0  0
  5  6  1  0  0  0  0
  6  7  1  0  0  0  0
  7  8  1  0  0  0  0
  8  9  1  0  0  0  0
M  END
>  <CHROM.1>
-1.97799871,-166.59266841,-175.48746972,-74.72208334,71.00751046,28.79610738
15.78684519,20.76362883,-2.95065683,0.28314142,1.44480979

>  <Name>
ligand

>  <RI>
0

>  <Rbt.Current_Directory>
/home/itssahil/PROJECTS/Mol_Feturizer/New_Systems/rnas/3DIX

>  <Rbt.Executable>
rbdock ($Id: //depot/dev/client3/rdock/2013.1/src/exe/rbdock.cxx#4 $)

>  <Rbt.Library>
libRbt.so (2013.1, Build901 2013/11/27)

>  <Rbt.Parameter_File>
/export/apps/rDock/src/rDock_2013.1_src/data/scripts/dock_solv.prm

>  <Rbt.Receptor>
prm/pocket_docking_3.prm

>  <SCORE>
-7.57859

>  <SCORE.INTER>
-8.97306

>  <SCORE.INTER.CONST>
1

>  <SCORE.INTER.POLAR>
0

>  <SCORE.INTER.ROT>
5

>  <SCORE.INTER.SOLV>
11.8126

>  <SCORE.INTER.VDW>
-16.8529

>  <SCORE.INTER.norm>
-0.897306

>  <SCORE.INTRA>
1.39447

>  <SCORE.INTRA.DIHEDRAL>
0.276176

>  <SCORE.INTRA.DIHEDRAL.0>
3.281

>  <SCORE.INTRA.POLAR>
0

>  <SCORE.INTRA.POLAR.0>
0

>  <SCORE.INTRA.REPUL>
0

>  <SCORE.INTRA.REPUL.0>
0

>  <SCORE.INTRA.SOLV>
0.658517

>  <SCORE.INTRA.SOLV.lig_0>
-31.9458

>  <SCORE.INTRA.VDW>
0.927122

>  <SCORE.INTRA.VDW.0>
-0.672612

>  <SCORE.INTRA.norm>
0.139447

>  <SCORE.RESTR>
0

>  <SCORE.RESTR.CAVITY>
0

>  <SCORE.RESTR.norm>
0

>  <SCORE.SYSTEM>
0

>  <SCORE.SYSTEM.CONST>
0

>  <SCORE.SYSTEM.DIHEDRAL>
0

>  <SCORE.SYSTEM.SOLV>
0

>  <SCORE.SYSTEM.norm>
0

>  <SCORE.heavy>
10

>  <SCORE.norm>
-0.757859

>  <RMSD>
5.146

$$$$
ligand
 OpenBabel11021811473D
libRbt.so/2013.1/901 2013/11/27
 10  9  0  0  0  0  0  0  0  0999 V2000
   26.9202   13.9035   18.3113 N   0  0  0  0  0  0  0  0  0  0  0  0
   27.7277   14.4299   19.4477 C   0  0  2  0  0  0  0  0  0  0  0  0
   26.9721   15.5079   20.2120 C   0  0  0  0  0  0  0  0  0  0  0  0
   26.5617   16.5337   19.6670 O   0  0  0  0  0  0  0  0  0  0  0  0
   29.0769   14.9531   18.9601 C   0  0  0  0  0  0  0  0  0  0  0  0
   30.0462   15.2238   20.0875 C   0  0  0  0  0  0  0  0  0  0  0  0
   29.8577   16.5998   20.6681 C   0  0  0  0  0  0  0  0  0  0  0  0
   30.9245   16.8974   21.7071 C   0  0  0  0  0  0  0  0  0  0  0  0
   30.8157   18.2805   22.2399 N   0  0  0  0  0  0  0  0  0  0  0  0
   26.7176   15.3659   21.4090 O   0  0  0  0  0  0  0  0  0  0  0  0
  2  1  1  6  0  0  0
  2  3  1  0  0  0  0
  2  5  1  0  0  0  0
  3  4  1  0  0  0  0
  3 10  1  0  0  0  0
  5  6  1  0  0  0  0
  6  7  1  0  0  0  0
  7  8  1  0  0  0  0
  8  9  1  0  0  0  0
M  END
>  <CHROM.1>
-57.97975056,-167.74823324,-85.62243748,-174.65965172,176.51577090,28.53685588
15.78780739,20.28513969,-2.39400738,0.04188550,0.79042326

>  <Name>
ligand

>  <RI>
0

>  <Rbt.Current_Directory>
/home/itssahil/PROJECTS/Mol_Feturizer/New_Systems/rnas/3DIX

>  <Rbt.Executable>
rbdock ($Id: //depot/dev/client3/rdock/2013.1/src/exe/rbdock.cxx#4 $)

>  <Rbt.Library>
libRbt.so (2013.1, Build901 2013/11/27)

>  <Rbt.Parameter_File>
/export/apps/rDock/src/rDock_2013.1_src/data/scripts/dock_solv.prm

>  <Rbt.Receptor>
prm/pocket_docking_3.prm

>  <SCORE>
-5.30138

>  <SCORE.INTER>
-4.91077

>  <SCORE.INTER.CONST>
1

>  <SCORE.INTER.POLAR>
0

>  <SCORE.INTER.ROT>
5

>  <SCORE.INTER.SOLV>
17.8027

>  <SCORE.INTER.VDW>
-16.1414

>  <SCORE.INTER.norm>
-0.491077

>  <SCORE.INTRA>
-0.390608

>  <SCORE.INTRA.DIHEDRAL>
1.2917

>  <SCORE.INTRA.DIHEDRAL.0>
3.281

>  <SCORE.INTRA.POLAR>
0

>  <SCORE.INTRA.POLAR.0>
0

>  <SCORE.INTRA.REPUL>
0

>  <SCORE.INTRA.REPUL.0>
0

>  <SCORE.INTRA.SOLV>
-1.50316

>  <SCORE.INTRA.SOLV.lig_0>
-31.9458

>  <SCORE.INTRA.VDW>
-0.284876

>  <SCORE.INTRA.VDW.0>
-0.672612

>  <SCORE.INTRA.norm>
-0.0390608

>  <SCORE.RESTR>
0

>  <SCORE.RESTR.CAVITY>
0

>  <SCORE.RESTR.norm>
0

>  <SCORE.SYSTEM>
0

>  <SCORE.SYSTEM.CONST>
0

>  <SCORE.SYSTEM.DIHEDRAL>
0

>  <SCORE.SYSTEM.SOLV>
0

>  <SCORE.SYSTEM.norm>
0

>  <SCORE.heavy>
10

>  <SCORE.norm>
-0.530138

>  <RMSD>
5.156

$$$$
ligand
 OpenBabel11021811473D
libRbt.so/2013.1/901 2013/11/27
 10  9  0  0  0  0  0  0  0  0999 V2000
   28.9635   16.7133   19.3691 N   0  0  0  0  0  0  0  0  0  0  0  0
   27.7797   15.8783   19.0195 C   0  0  2  0  0  0  0  0  0  0  0  0
   26.9685   15.5212   20.2570 C   0  0  0  0  0  0  0  0  0  0  0  0
   25.7422   15.4074   20.2280 O   0  0  0  0  0  0  0  0  0  0  0  0
   28.2049   14.6201   18.2660 C   0  0  0  0  0  0  0  0  0  0  0  0
   27.0328   13.8222   17.7431 C   0  0  0  0  0  0  0  0  0  0  0  0
   27.4533   12.4564   17.2698 C   0  0  0  0  0  0  0  0  0  0  0  0
   26.2419   11.6106   16.9190 C   0  0  0  0  0  0  0  0  0  0  0  0
   26.5984   10.1832   16.7090 N   0  0  0  0  0  0  0  0  0  0  0  0
   27.5292   15.3000   21.3315 O   0  0  0  0  0  0  0  0  0  0  0  0
  2  1  1  1  0  0  0
  2  3  1  0  0  0  0
  2  5  1  0  0  0  0
  3  4  1  0  0  0  0
  3 10  1  0  0  0  0
  5  6  1  0  0  0  0
  6  7  1  0  0  0  0
  7  8  1  0  0  0  0
  8  9  1  0  0  0  0
M  END
>  <CHROM.1>
146.08677169,-173.09166153,-167.80625540,172.64941971,-168.65828586,27.23432869
14.15316939,18.74493411,-1.37251614,-0.66708194,-2.40154079

>  <Name>
ligand

>  <RI>
0

>  <Rbt.Current_Directory>
/home/itssahil/PROJECTS/Mol_Feturizer/New_Systems/rnas/3DIX

>  <Rbt.Executable>
rbdock ($Id: //depot/dev/client3/rdock/2013.1/src/exe/rbdock.cxx#4 $)

>  <Rbt.Library>
libRbt.so (2013.1, Build901 2013/11/27)

>  <Rbt.Parameter_File>
/export/apps/rDock/src/rDock_2013.1_src/data/scripts/dock_solv.prm

>  <Rbt.Receptor>
prm/pocket_docking_8.prm

>  <SCORE>
-12.6438

>  <SCORE.INTER>
-11.4997

>  <SCORE.INTER.CONST>
1

>  <SCORE.INTER.POLAR>
0

>  <SCORE.INTER.ROT>
5

>  <SCORE.INTER.SOLV>
14.7194

>  <SCORE.INTER.VDW>
-19.5063

>  <SCORE.INTER.norm>
-1.14997

>  <SCORE.INTRA>
-1.14413

>  <SCORE.INTRA.DIHEDRAL>
-0.383347

>  <SCORE.INTRA.DIHEDRAL.0>
3.281

>  <SCORE.INTRA.POLAR>
0

>  <SCORE.INTRA.POLAR.0>
0

>  <SCORE.INTRA.REPUL>
0

>  <SCORE.INTRA.REPUL.0>
0

>  <SCORE.INTRA.SOLV>
-1.56152

>  <SCORE.INTRA.SOLV.lig_0>
-31.9458

>  <SCORE.INTRA.VDW>
-0.171691

>  <SCORE.INTRA.VDW.0>
-0.672612

>  <SCORE.INTRA.norm>
-0.114413

>  <SCORE.RESTR>
0

>  <SCORE.RESTR.CAVITY>
0

>  <SCORE.RESTR.norm>
0

>  <SCORE.SYSTEM>
0

>  <SCORE.SYSTEM.CONST>
0

>  <SCORE.SYSTEM.DIHEDRAL>
0

>  <SCORE.SYSTEM.SOLV>
0

>  <SCORE.SYSTEM.norm>
0

>  <SCORE.heavy>
10

>  <SCORE.norm>
-1.26438

>  <RMSD>
5.158

$$$$
ligand
 OpenBabel11021811473D
libRbt.so/2013.1/901 2013/11/27
 10  9  0  0  0  0  0  0  0  0999 V2000
   28.5741   14.6665   18.8793 N   0  0  0  0  0  0  0  0  0  0  0  0
   28.0361   14.6153   20.2681 C   0  0  2  0  0  0  0  0  0  0  0  0
   26.6956   15.3293   20.3698 C   0  0  0  0  0  0  0  0  0  0  0  0
   26.4294   16.3254   19.6956 O   0  0  0  0  0  0  0  0  0  0  0  0
   29.0390   15.1971   21.2618 C   0  0  0  0  0  0  0  0  0  0  0  0
   29.4197   16.6253   20.9468 C   0  0  0  0  0  0  0  0  0  0  0  0
   30.4052   17.1738   21.9439 C   0  0  0  0  0  0  0  0  0  0  0  0
   31.7715   16.5377   21.7575 C   0  0  0  0  0  0  0  0  0  0  0  0
   32.3787   16.8907   20.4478 N   0  0  0  0  0  0  0  0  0  0  0  0
   25.8138   14.9033   21.1173 O   0  0  0  0  0  0  0  0  0  0  0  0
  2  1  1  6  0  0  0
  2  3  1  0  0  0  0
  2  5  1  0  0  0  0
  3  4  1  0  0  0  0
  3 10  1  0  0  0  0
  5  6  1  0  0  0  0
  6  7  1  0  0  0  0
  7  8  1  0  0  0  0
  8  9  1  0  0  0  0
M  END
>  <CHROM.1>
-33.93726213,57.95206889,179.83003427,71.50161759,65.19909551,28.81612270
15.83627519,20.66886901,-2.83166764,0.16295860,1.03101756

>  <Name>
ligand

>  <RI>
0

>  <Rbt.Current_Directory>
/home/itssahil/PROJECTS/Mol_Feturizer/New_Systems/rnas/3DIX

>  <Rbt.Executable>
rbdock ($Id: //depot/dev/client3/rdock/2013.1/src/exe/rbdock.cxx#4 $)

>  <Rbt.Library>
libRbt.so (2013.1, Build901 2013/11/27)

>  <Rbt.Parameter_File>
/export/apps/rDock/src/rDock_2013.1_src/data/scripts/dock_solv.prm

>  <Rbt.Receptor>
prm/pocket_docking_4.prm

>  <SCORE>
-8.44446

>  <SCORE.INTER>
-8.93282

>  <SCORE.INTER.CONST>
1

>  <SCORE.INTER.POLAR>
0

>  <SCORE.INTER.ROT>
5

>  <SCORE.INTER.SOLV>
12.0198

>  <SCORE.INTER.VDW>
-16.8951

>  <SCORE.INTER.norm>
-0.893282

>  <SCORE.INTRA>
0.488362

>  <SCORE.INTRA.DIHEDRAL>
-1.06365

>  <SCORE.INTRA.DIHEDRAL.0>
3.281

>  <SCORE.INTRA.POLAR>
0

>  <SCORE.INTRA.POLAR.0>
0

>  <SCORE.INTRA.REPUL>
0

>  <SCORE.INTRA.REPUL.0>
0

>  <SCORE.INTRA.SOLV>
0.753172

>  <SCORE.INTRA.SOLV.lig_0>
-31.9458

>  <SCORE.INTRA.VDW>
0.643603

>  <SCORE.INTRA.VDW.0>
-0.672612

>  <SCORE.INTRA.norm>
0.0488362

>  <SCORE.RESTR>
0

>  <SCORE.RESTR.CAVITY>
0

>  <SCORE.RESTR.norm>
0

>  <SCORE.SYSTEM>
0

>  <SCORE.SYSTEM.CONST>
0

>  <SCORE.SYSTEM.DIHEDRAL>
0

>  <SCORE.SYSTEM.SOLV>
0

>  <SCORE.SYSTEM.norm>
0

>  <SCORE.heavy>
10

>  <SCORE.norm>
-0.844446

>  <RMSD>
5.172

$$$$
ligand
 OpenBabel11021811473D
libRbt.so/2013.1/901 2013/11/27
 10  9  0  0  0  0  0  0  0  0999 V2000
   28.9733   16.6067   19.5732 N   0  0  0  0  0  0  0  0  0  0  0  0
   27.7854   15.8094   19.1562 C   0  0  2  0  0  0  0  0  0  0  0  0
   26.9308   15.4203   20.3543 C   0  0  0  0  0  0  0  0  0  0  0  0
   27.4221   15.1495   21.4511 O   0  0  0  0  0  0  0  0  0  0  0  0
   28.2098   14.5733   18.3664 C   0  0  0  0  0  0  0  0  0  0  0  0
   27.0397   13.8209   17.7760 C   0  0  0  0  0  0  0  0  0  0  0  0
   27.4425   12.4548   17.2884 C   0  0  0  0  0  0  0  0  0  0  0  0
   26.2232   11.6459   16.8823 C   0  0  0  0  0  0  0  0  0  0  0  0
   26.5487   10.2113   16.6716 N   0  0  0  0  0  0  0  0  0  0  0  0
   25.7021   15.3975   20.2667 O   0  0  0  0  0  0  0  0  0  0  0  0
  2  1  1  1  0  0  0
  2  3  1  0  0  0  0
  2  5  1  0  0  0  0
  3  4  1  0  0  0  0
  3 10  1  0  0  0  0
  5  6  1  0  0  0  0
  6  7  1  0  0  0  0
  7  8  1  0  0  0  0
  8  9  1  0  0  0  0
M  END
>  <CHROM.1>
-35.25911661,-172.98509731,-166.58540723,171.98997114,-167.92226188,27.20924552
14.11083432,18.81175998,-1.38030176,-0.63466350,-2.37710024

>  <Name>
ligand

>  <RI>
0

>  <Rbt.Current_Directory>
/home/itssahil/PROJECTS/Mol_Feturizer/New_Systems/rnas/3DIX

>  <Rbt.Executable>
rbdock ($Id: //depot/dev/client3/rdock/2013.1/src/exe/rbdock.cxx#4 $)

>  <Rbt.Library>
libRbt.so (2013.1, Build901 2013/11/27)

>  <Rbt.Parameter_File>
/export/apps/rDock/src/rDock_2013.1_src/data/scripts/dock_solv.prm

>  <Rbt.Receptor>
prm/blind_docking_80.prm

>  <SCORE>
-12.6091

>  <SCORE.INTER>
-11.6169

>  <SCORE.INTER.CONST>
1

>  <SCORE.INTER.POLAR>
0

>  <SCORE.INTER.ROT>
5

>  <SCORE.INTER.SOLV>
14.373

>  <SCORE.INTER.VDW>
-19.4689

>  <SCORE.INTER.norm>
-1.16169

>  <SCORE.INTRA>
-0.992217

>  <SCORE.INTRA.DIHEDRAL>
-0.0242729

>  <SCORE.INTRA.DIHEDRAL.0>
3.281

>  <SCORE.INTRA.POLAR>
0

>  <SCORE.INTRA.POLAR.0>
0

>  <SCORE.INTRA.REPUL>
0

>  <SCORE.INTRA.REPUL.0>
0

>  <SCORE.INTRA.SOLV>
-1.56026

>  <SCORE.INTRA.SOLV.lig_0>
-31.9458

>  <SCORE.INTRA.VDW>
-0.199953

>  <SCORE.INTRA.VDW.0>
-0.672612

>  <SCORE.INTRA.norm>
-0.0992217

>  <SCORE.RESTR>
0

>  <SCORE.RESTR.CAVITY>
0

>  <SCORE.RESTR.norm>
0

>  <SCORE.SYSTEM>
0

>  <SCORE.SYSTEM.CONST>
0

>  <SCORE.SYSTEM.DIHEDRAL>
0

>  <SCORE.SYSTEM.SOLV>
0

>  <SCORE.SYSTEM.norm>
0

>  <SCORE.heavy>
10

>  <SCORE.norm>
-1.26091

>  <RMSD>
5.176

$$$$
ligand
 OpenBabel11021811473D
libRbt.so/2013.1/901 2013/11/27
 10  9  0  0  0  0  0  0  0  0999 V2000
   28.4384   14.3131   18.8365 N   0  0  0  0  0  0  0  0  0  0  0  0
   27.7437   14.4770   20.1446 C   0  0  2  0  0  0  0  0  0  0  0  0
   26.7308   15.6122   20.0958 C   0  0  0  0  0  0  0  0  0  0  0  0
   27.0275   16.7404   19.6997 O   0  0  0  0  0  0  0  0  0  0  0  0
   28.7506   14.6946   21.2718 C   0  0  0  0  0  0  0  0  0  0  0  0
   29.6768   15.8613   21.0174 C   0  0  0  0  0  0  0  0  0  0  0  0
   30.7302   15.9818   22.0861 C   0  0  0  0  0  0  0  0  0  0  0  0
   31.6455   17.1617   21.8106 C   0  0  0  0  0  0  0  0  0  0  0  0
   32.4358   16.9775   20.5656 N   0  0  0  0  0  0  0  0  0  0  0  0
   25.5591   15.4212   20.4253 O   0  0  0  0  0  0  0  0  0  0  0  0
  2  1  1  6  0  0  0
  2  3  1  0  0  0  0
  2  5  1  0  0  0  0
  3  4  1  0  0  0  0
  3 10  1  0  0  0  0
  5  6  1  0  0  0  0
  6  7  1  0  0  0  0
  7  8  1  0  0  0  0
  8  9  1  0  0  0  0
M  END
>  <CHROM.1>
-51.75456861,55.48789280,-175.23378849,-179.86672915,-64.99174424,28.83992980
15.74457129,20.59104706,-2.79641848,-0.12318071,0.47501504

>  <Name>
ligand

>  <RI>
0

>  <Rbt.Current_Directory>
/home/itssahil/PROJECTS/Mol_Feturizer/New_Systems/rnas/3DIX

>  <Rbt.Executable>
rbdock ($Id: //depot/dev/client3/rdock/2013.1/src/exe/rbdock.cxx#4 $)

>  <Rbt.Library>
libRbt.so (2013.1, Build901 2013/11/27)

>  <Rbt.Parameter_File>
/export/apps/rDock/src/rDock_2013.1_src/data/scripts/dock_solv.prm

>  <Rbt.Receptor>
prm/pocket_docking_5.prm

>  <SCORE>
-9.00041

>  <SCORE.INTER>
-8.58965

>  <SCORE.INTER.CONST>
1

>  <SCORE.INTER.POLAR>
0

>  <SCORE.INTER.ROT>
5

>  <SCORE.INTER.SOLV>
13.2379

>  <SCORE.INTER.VDW>
-17.0724

>  <SCORE.INTER.norm>
-0.858965

>  <SCORE.INTRA>
-0.410762

>  <SCORE.INTRA.DIHEDRAL>
-1.48858

>  <SCORE.INTRA.DIHEDRAL.0>
3.281

>  <SCORE.INTRA.POLAR>
0

>  <SCORE.INTRA.POLAR.0>
0

>  <SCORE.INTRA.REPUL>
0

>  <SCORE.INTRA.REPUL.0>
0

>  <SCORE.INTRA.SOLV>
0.352206

>  <SCORE.INTRA.SOLV.lig_0>
-31.9458

>  <SCORE.INTRA.VDW>
0.157426

>  <SCORE.INTRA.VDW.0>
-0.672612

>  <SCORE.INTRA.norm>
-0.0410762

>  <SCORE.RESTR>
0

>  <SCORE.RESTR.CAVITY>
0

>  <SCORE.RESTR.norm>
0

>  <SCORE.SYSTEM>
0

>  <SCORE.SYSTEM.CONST>
0

>  <SCORE.SYSTEM.DIHEDRAL>
0

>  <SCORE.SYSTEM.SOLV>
0

>  <SCORE.SYSTEM.norm>
0

>  <SCORE.heavy>
10

>  <SCORE.norm>
-0.900041

>  <RMSD>
5.178

$$$$
ligand
 OpenBabel11021811473D
libRbt.so/2013.1/901 2013/11/27
 10  9  0  0  0  0  0  0  0  0999 V2000
   28.6816   14.9674   19.0048 N   0  0  0  0  0  0  0  0  0  0  0  0
   27.8321   14.5325   20.1493 C   0  0  2  0  0  0  0  0  0  0  0  0
   26.5451   15.3420   20.2232 C   0  0  0  0  0  0  0  0  0  0  0  0
   26.3967   16.3971   19.6048 O   0  0  0  0  0  0  0  0  0  0  0  0
   28.6047   14.6180   21.4636 C   0  0  0  0  0  0  0  0  0  0  0  0
   28.8735   16.0404   21.8976 C   0  0  0  0  0  0  0  0  0  0  0  0
   29.9353   16.6914   21.0520 C   0  0  0  0  0  0  0  0  0  0  0  0
   31.3105   16.1509   21.4027 C   0  0  0  0  0  0  0  0  0  0  0  0
   32.3870   16.8098   20.6182 N   0  0  0  0  0  0  0  0  0  0  0  0
   25.5893   14.9400   20.8884 O   0  0  0  0  0  0  0  0  0  0  0  0
  2  1  1  6  0  0  0
  2  3  1  0  0  0  0
  2  5  1  0  0  0  0
  3  4  1  0  0  0  0
  3 10  1  0  0  0  0
  5  6  1  0  0  0  0
  6  7  1  0  0  0  0
  7  8  1  0  0  0  0
  8  9  1  0  0  0  0
M  END
>  <CHROM.1>
-15.11148620,69.99028064,-73.20659255,-73.99014910,-177.94927279,28.57690001
15.66179517,20.62922244,-3.02541762,0.24384318,1.68942730

>  <Name>
ligand

>  <RI>
0

>  <Rbt.Current_Directory>
/home/itssahil/PROJECTS/Mol_Feturizer/New_Systems/rnas/3DIX

>  <Rbt.Executable>
rbdock ($Id: //depot/dev/client3/rdock/2013.1/src/exe/rbdock.cxx#4 $)

>  <Rbt.Library>
libRbt.so (2013.1, Build901 2013/11/27)

>  <Rbt.Parameter_File>
/export/apps/rDock/src/rDock_2013.1_src/data/scripts/dock_solv.prm

>  <Rbt.Receptor>
prm/pocket_docking_3.prm

>  <SCORE>
-7.84767

>  <SCORE.INTER>
-9.42169

>  <SCORE.INTER.CONST>
1

>  <SCORE.INTER.POLAR>
0

>  <SCORE.INTER.ROT>
5

>  <SCORE.INTER.SOLV>
11.4843

>  <SCORE.INTER.VDW>
-17.0425

>  <SCORE.INTER.norm>
-0.942169

>  <SCORE.INTRA>
1.57401

>  <SCORE.INTRA.DIHEDRAL>
0.132718

>  <SCORE.INTRA.DIHEDRAL.0>
3.281

>  <SCORE.INTRA.POLAR>
0

>  <SCORE.INTRA.POLAR.0>
0

>  <SCORE.INTRA.REPUL>
0

>  <SCORE.INTRA.REPUL.0>
0

>  <SCORE.INTRA.SOLV>
1.21218

>  <SCORE.INTRA.SOLV.lig_0>
-31.9458

>  <SCORE.INTRA.VDW>
0.901563

>  <SCORE.INTRA.VDW.0>
-0.672612

>  <SCORE.INTRA.norm>
0.157401

>  <SCORE.RESTR>
0

>  <SCORE.RESTR.CAVITY>
0

>  <SCORE.RESTR.norm>
0

>  <SCORE.SYSTEM>
0

>  <SCORE.SYSTEM.CONST>
0

>  <SCORE.SYSTEM.DIHEDRAL>
0

>  <SCORE.SYSTEM.SOLV>
0

>  <SCORE.SYSTEM.norm>
0

>  <SCORE.heavy>
10

>  <SCORE.norm>
-0.784767

>  <RMSD>
5.182

$$$$
ligand
 OpenBabel11021811473D
libRbt.so/2013.1/901 2013/11/27
 10  9  0  0  0  0  0  0  0  0999 V2000
   28.9363   16.6121   19.6071 N   0  0  0  0  0  0  0  0  0  0  0  0
   27.7512   15.8158   19.1805 C   0  0  2  0  0  0  0  0  0  0  0  0
   26.8960   15.4123   20.3734 C   0  0  0  0  0  0  0  0  0  0  0  0
   25.6671   15.3522   20.3100 O   0  0  0  0  0  0  0  0  0  0  0  0
   28.1801   14.5888   18.3790 C   0  0  0  0  0  0  0  0  0  0  0  0
   27.0116   13.8268   17.7978 C   0  0  0  0  0  0  0  0  0  0  0  0
   27.4262   12.4730   17.2863 C   0  0  0  0  0  0  0  0  0  0  0  0
   26.2116   11.6459   16.9035 C   0  0  0  0  0  0  0  0  0  0  0  0
   26.5568   10.2189   16.6734 N   0  0  0  0  0  0  0  0  0  0  0  0
   27.4207   15.0978   21.4428 O   0  0  0  0  0  0  0  0  0  0  0  0
  2  1  1  1  0  0  0
  2  3  1  0  0  0  0
  2  5  1  0  0  0  0
  3  4  1  0  0  0  0
  3 10  1  0  0  0  0
  5  6  1  0  0  0  0
  6  7  1  0  0  0  0
  7  8  1  0  0  0  0
  8  9  1  0  0  0  0
M  END
>  <CHROM.1>
144.31003197,-173.90008405,-167.11738060,171.38046610,-167.77579345,27.18762710
14.10498286,18.82847198,-1.38231776,-0.64231162,-2.37407354

>  <Name>
ligand

>  <RI>
0

>  <Rbt.Current_Directory>
/home/itssahil/PROJECTS/Mol_Feturizer/New_Systems/rnas/3DIX

>  <Rbt.Executable>
rbdock ($Id: //depot/dev/client3/rdock/2013.1/src/exe/rbdock.cxx#4 $)

>  <Rbt.Library>
libRbt.so (2013.1, Build901 2013/11/27)

>  <Rbt.Parameter_File>
/export/apps/rDock/src/rDock_2013.1_src/data/scripts/dock_solv.prm

>  <Rbt.Receptor>
prm/pocket_docking_6.prm

>  <SCORE>
-12.6686

>  <SCORE.INTER>
-11.6225

>  <SCORE.INTER.CONST>
1

>  <SCORE.INTER.POLAR>
0

>  <SCORE.INTER.ROT>
5

>  <SCORE.INTER.SOLV>
14.4582

>  <SCORE.INTER.VDW>
-19.5011

>  <SCORE.INTER.norm>
-1.16225

>  <SCORE.INTRA>
-1.04607

>  <SCORE.INTRA.DIHEDRAL>
-0.196859

>  <SCORE.INTRA.DIHEDRAL.0>
3.281

>  <SCORE.INTRA.POLAR>
0

>  <SCORE.INTRA.POLAR.0>
0

>  <SCORE.INTRA.REPUL>
0

>  <SCORE.INTRA.REPUL.0>
0

>  <SCORE.INTRA.SOLV>
-1.56208

>  <SCORE.INTRA.SOLV.lig_0>
-31.9458

>  <SCORE.INTRA.VDW>
-0.166604

>  <SCORE.INTRA.VDW.0>
-0.672612

>  <SCORE.INTRA.norm>
-0.104607

>  <SCORE.RESTR>
0

>  <SCORE.RESTR.CAVITY>
0

>  <SCORE.RESTR.norm>
0

>  <SCORE.SYSTEM>
0

>  <SCORE.SYSTEM.CONST>
0

>  <SCORE.SYSTEM.DIHEDRAL>
0

>  <SCORE.SYSTEM.SOLV>
0

>  <SCORE.SYSTEM.norm>
0

>  <SCORE.heavy>
10

>  <SCORE.norm>
-1.26686

>  <RMSD>
5.189

$$$$
ligand
 OpenBabel11021811473D
libRbt.so/2013.1/901 2013/11/27
 10  9  0  0  0  0  0  0  0  0999 V2000
   27.5031   14.8056   18.3862 N   0  0  0  0  0  0  0  0  0  0  0  0
   27.9271   15.1552   19.7714 C   0  0  2  0  0  0  0  0  0  0  0  0
   26.7353   15.2208   20.7160 C   0  0  0  0  0  0  0  0  0  0  0  0
   25.5820   15.3683   20.3086 O   0  0  0  0  0  0  0  0  0  0  0  0
   28.7063   16.4684   19.7867 C   0  0  0  0  0  0  0  0  0  0  0  0
   29.3466   16.7579   21.1247 C   0  0  0  0  0  0  0  0  0  0  0  0
   30.4340   15.7688   21.4495 C   0  0  0  0  0  0  0  0  0  0  0  0
   31.6598   16.0124   20.5869 C   0  0  0  0  0  0  0  0  0  0  0  0
   32.2994   17.3212   20.8812 N   0  0  0  0  0  0  0  0  0  0  0  0
   26.8911   15.0929   21.9313 O   0  0  0  0  0  0  0  0  0  0  0  0
  2  1  1  6  0  0  0
  2  3  1  0  0  0  0
  2  5  1  0  0  0  0
  3  4  1  0  0  0  0
  3 10  1  0  0  0  0
  5  6  1  0  0  0  0
  6  7  1  0  0  0  0
  7  8  1  0  0  0  0
  8  9  1  0  0  0  0
M  END
>  <CHROM.1>
-20.17403138,-170.86479657,66.64477658,72.43606870,65.54305805,28.67277794
15.79405560,20.51397956,-2.99239813,0.26546176,1.43433909

>  <Name>
ligand

>  <RI>
0

>  <Rbt.Current_Directory>
/home/itssahil/PROJECTS/Mol_Feturizer/New_Systems/rnas/3DIX

>  <Rbt.Executable>
rbdock ($Id: //depot/dev/client3/rdock/2013.1/src/exe/rbdock.cxx#4 $)

>  <Rbt.Library>
libRbt.so (2013.1, Build901 2013/11/27)

>  <Rbt.Parameter_File>
/export/apps/rDock/src/rDock_2013.1_src/data/scripts/dock_solv.prm

>  <Rbt.Receptor>
prm/pocket_docking_4.prm

>  <SCORE>
-8.37742

>  <SCORE.INTER>
-8.98601

>  <SCORE.INTER.CONST>
1

>  <SCORE.INTER.POLAR>
0

>  <SCORE.INTER.ROT>
5

>  <SCORE.INTER.SOLV>
12.3172

>  <SCORE.INTER.VDW>
-17.0297

>  <SCORE.INTER.norm>
-0.898601

>  <SCORE.INTRA>
0.608588

>  <SCORE.INTRA.DIHEDRAL>
-0.496996

>  <SCORE.INTRA.DIHEDRAL.0>
3.281

>  <SCORE.INTRA.POLAR>
0

>  <SCORE.INTRA.POLAR.0>
0

>  <SCORE.INTRA.REPUL>
0

>  <SCORE.INTRA.REPUL.0>
0

>  <SCORE.INTRA.SOLV>
0.0846409

>  <SCORE.INTRA.SOLV.lig_0>
-31.9458

>  <SCORE.INTRA.VDW>
0.814765

>  <SCORE.INTRA.VDW.0>
-0.672612

>  <SCORE.INTRA.norm>
0.0608588

>  <SCORE.RESTR>
0

>  <SCORE.RESTR.CAVITY>
0

>  <SCORE.RESTR.norm>
0

>  <SCORE.SYSTEM>
0

>  <SCORE.SYSTEM.CONST>
0

>  <SCORE.SYSTEM.DIHEDRAL>
0

>  <SCORE.SYSTEM.SOLV>
0

>  <SCORE.SYSTEM.norm>
0

>  <SCORE.heavy>
10

>  <SCORE.norm>
-0.837742

>  <RMSD>
5.190

$$$$
ligand
 OpenBabel11021811473D
libRbt.so/2013.1/901 2013/11/27
 10  9  0  0  0  0  0  0  0  0999 V2000
   25.9493   14.7825   21.1661 N   0  0  0  0  0  0  0  0  0  0  0  0
   27.2116   15.5248   20.8901 C   0  0  2  0  0  0  0  0  0  0  0  0
   27.2724   15.9962   19.4440 C   0  0  0  0  0  0  0  0  0  0  0  0
   27.7410   17.0913   19.1295 O   0  0  0  0  0  0  0  0  0  0  0  0
   28.4307   14.6727   21.2361 C   0  0  0  0  0  0  0  0  0  0  0  0
   29.7392   15.3736   20.9524 C   0  0  0  0  0  0  0  0  0  0  0  0
   29.9664   16.5322   21.8864 C   0  0  0  0  0  0  0  0  0  0  0  0
   31.1069   17.4057   21.3944 C   0  0  0  0  0  0  0  0  0  0  0  0
   32.3805   16.6489   21.2774 N   0  0  0  0  0  0  0  0  0  0  0  0
   26.8784   15.2691   18.5308 O   0  0  0  0  0  0  0  0  0  0  0  0
  2  1  1  6  0  0  0
  2  3  1  0  0  0  0
  2  5  1  0  0  0  0
  3  4  1  0  0  0  0
  3 10  1  0  0  0  0
  5  6  1  0  0  0  0
  6  7  1  0  0  0  0
  7  8  1  0  0  0  0
  8  9  1  0  0  0  0
M  END
>  <CHROM.1>
141.67401309,179.06538361,68.52175728,-167.09383193,-59.07948906,28.65986848
15.93870198,20.55556685,3.01204944,-0.40604222,-1.00209057

>  <Name>
ligand

>  <RI>
0

>  <Rbt.Current_Directory>
/home/itssahil/PROJECTS/Mol_Feturizer/New_Systems/rnas/3DIX

>  <Rbt.Executable>
rbdock ($Id: //depot/dev/client3/rdock/2013.1/src/exe/rbdock.cxx#4 $)

>  <Rbt.Library>
libRbt.so (2013.1, Build901 2013/11/27)

>  <Rbt.Parameter_File>
/export/apps/rDock/src/rDock_2013.1_src/data/scripts/dock_solv.prm

>  <Rbt.Receptor>
prm/pocket_docking_4.prm

>  <SCORE>
-7.42267

>  <SCORE.INTER>
-7.15254

>  <SCORE.INTER.CONST>
1

>  <SCORE.INTER.POLAR>
0

>  <SCORE.INTER.ROT>
5

>  <SCORE.INTER.SOLV>
18.5844

>  <SCORE.INTER.VDW>
-17.8965

>  <SCORE.INTER.norm>
-0.715254

>  <SCORE.INTRA>
-0.270132

>  <SCORE.INTRA.DIHEDRAL>
-0.86865

>  <SCORE.INTRA.DIHEDRAL.0>
3.281

>  <SCORE.INTRA.POLAR>
0

>  <SCORE.INTRA.POLAR.0>
0

>  <SCORE.INTRA.REPUL>
0

>  <SCORE.INTRA.REPUL.0>
0

>  <SCORE.INTRA.SOLV>
-0.389287

>  <SCORE.INTRA.SOLV.lig_0>
-31.9458

>  <SCORE.INTRA.VDW>
0.358836

>  <SCORE.INTRA.VDW.0>
-0.672612

>  <SCORE.INTRA.norm>
-0.0270132

>  <SCORE.RESTR>
0

>  <SCORE.RESTR.CAVITY>
0

>  <SCORE.RESTR.norm>
0

>  <SCORE.SYSTEM>
0

>  <SCORE.SYSTEM.CONST>
0

>  <SCORE.SYSTEM.DIHEDRAL>
0

>  <SCORE.SYSTEM.SOLV>
0

>  <SCORE.SYSTEM.norm>
0

>  <SCORE.heavy>
10

>  <SCORE.norm>
-0.742267

>  <RMSD>
5.191

$$$$
ligand
 OpenBabel11021811473D
libRbt.so/2013.1/901 2013/11/27
 10  9  0  0  0  0  0  0  0  0999 V2000
   26.5601   15.0889   21.7242 N   0  0  0  0  0  0  0  0  0  0  0  0
   27.7918   15.7157   21.1667 C   0  0  2  0  0  0  0  0  0  0  0  0
   27.5607   16.2293   19.7525 C   0  0  0  0  0  0  0  0  0  0  0  0
   28.0298   17.2977   19.3572 O   0  0  0  0  0  0  0  0  0  0  0  0
   28.9648   14.7387   21.2056 C   0  0  0  0  0  0  0  0  0  0  0  0
   30.2655   15.3615   20.7537 C   0  0  0  0  0  0  0  0  0  0  0  0
   30.7351   16.4279   21.7067 C   0  0  0  0  0  0  0  0  0  0  0  0
   32.0613   17.0114   21.2520 C   0  0  0  0  0  0  0  0  0  0  0  0
   32.5235   18.1090   22.1410 N   0  0  0  0  0  0  0  0  0  0  0  0
   26.9152   15.5634   18.9415 O   0  0  0  0  0  0  0  0  0  0  0  0
  2  1  1  6  0  0  0
  2  3  1  0  0  0  0
  2  5  1  0  0  0  0
  3  4  1  0  0  0  0
  3 10  1  0  0  0  0
  5  6  1  0  0  0  0
  6  7  1  0  0  0  0
  7  8  1  0  0  0  0
  8  9  1  0  0  0  0
M  END
>  <CHROM.1>
140.20049461,-175.38927569,66.41721168,178.44558534,177.52983693,29.12623941
16.16400346,20.76599787,3.11326207,-0.43045890,-0.83807479

>  <Name>
ligand

>  <RI>
0

>  <Rbt.Current_Directory>
/home/itssahil/PROJECTS/Mol_Feturizer/New_Systems/rnas/3DIX

>  <Rbt.Executable>
rbdock ($Id: //depot/dev/client3/rdock/2013.1/src/exe/rbdock.cxx#4 $)

>  <Rbt.Library>
libRbt.so (2013.1, Build901 2013/11/27)

>  <Rbt.Parameter_File>
/export/apps/rDock/src/rDock_2013.1_src/data/scripts/dock_solv.prm

>  <Rbt.Receptor>
prm/blind_docking_100.prm

>  <SCORE>
-8.33772

>  <SCORE.INTER>
-7.00249

>  <SCORE.INTER.CONST>
1

>  <SCORE.INTER.POLAR>
0

>  <SCORE.INTER.ROT>
5

>  <SCORE.INTER.SOLV>
18.5012

>  <SCORE.INTER.VDW>
-17.7687

>  <SCORE.INTER.norm>
-0.700249

>  <SCORE.INTRA>
-1.33523

>  <SCORE.INTRA.DIHEDRAL>
-1.56789

>  <SCORE.INTRA.DIHEDRAL.0>
3.281

>  <SCORE.INTRA.POLAR>
0

>  <SCORE.INTRA.POLAR.0>
0

>  <SCORE.INTRA.REPUL>
0

>  <SCORE.INTRA.REPUL.0>
0

>  <SCORE.INTRA.SOLV>
-1.308

>  <SCORE.INTRA.SOLV.lig_0>
-31.9458

>  <SCORE.INTRA.VDW>
0.10272

>  <SCORE.INTRA.VDW.0>
-0.672612

>  <SCORE.INTRA.norm>
-0.133523

>  <SCORE.RESTR>
0

>  <SCORE.RESTR.CAVITY>
0

>  <SCORE.RESTR.norm>
0

>  <SCORE.SYSTEM>
0

>  <SCORE.SYSTEM.CONST>
0

>  <SCORE.SYSTEM.DIHEDRAL>
0

>  <SCORE.SYSTEM.SOLV>
0

>  <SCORE.SYSTEM.norm>
0

>  <SCORE.heavy>
10

>  <SCORE.norm>
-0.833772

>  <RMSD>
5.193

$$$$
ligand
 OpenBabel11021811473D
libRbt.so/2013.1/901 2013/11/27
 10  9  0  0  0  0  0  0  0  0999 V2000
   28.5132   14.7045   18.8350 N   0  0  0  0  0  0  0  0  0  0  0  0
   28.0186   14.5423   20.2314 C   0  0  2  0  0  0  0  0  0  0  0  0
   26.6513   15.1861   20.4133 C   0  0  0  0  0  0  0  0  0  0  0  0
   26.2343   16.0661   19.6588 O   0  0  0  0  0  0  0  0  0  0  0  0
   29.0233   15.1068   21.2333 C   0  0  0  0  0  0  0  0  0  0  0  0
   29.3317   16.5676   20.9990 C   0  0  0  0  0  0  0  0  0  0  0  0
   30.3326   17.0937   21.9928 C   0  0  0  0  0  0  0  0  0  0  0  0
   31.7101   16.5109   21.7308 C   0  0  0  0  0  0  0  0  0  0  0  0
   32.2573   16.9380   20.4167 N   0  0  0  0  0  0  0  0  0  0  0  0
   25.8989   14.8147   21.3154 O   0  0  0  0  0  0  0  0  0  0  0  0
  2  1  1  6  0  0  0
  2  3  1  0  0  0  0
  2  5  1  0  0  0  0
  3  4  1  0  0  0  0
  3 10  1  0  0  0  0
  5  6  1  0  0  0  0
  6  7  1  0  0  0  0
  7  8  1  0  0  0  0
  8  9  1  0  0  0  0
M  END
>  <CHROM.1>
-21.47879325,57.91315724,-179.51199966,70.42383729,64.55349234,28.75654472
15.76104967,20.68454393,-2.85457142,0.22626696,1.17025825

>  <Name>
ligand

>  <RI>
0

>  <Rbt.Current_Directory>
/home/itssahil/PROJECTS/Mol_Feturizer/New_Systems/rnas/3DIX

>  <Rbt.Executable>
rbdock ($Id: //depot/dev/client3/rdock/2013.1/src/exe/rbdock.cxx#4 $)

>  <Rbt.Library>
libRbt.so (2013.1, Build901 2013/11/27)

>  <Rbt.Parameter_File>
/export/apps/rDock/src/rDock_2013.1_src/data/scripts/dock_solv.prm

>  <Rbt.Receptor>
prm/pocket_docking_5.prm

>  <SCORE>
-8.48261

>  <SCORE.INTER>
-8.97973

>  <SCORE.INTER.CONST>
1

>  <SCORE.INTER.POLAR>
0

>  <SCORE.INTER.ROT>
5

>  <SCORE.INTER.SOLV>
11.8512

>  <SCORE.INTER.VDW>
-16.8702

>  <SCORE.INTER.norm>
-0.897973

>  <SCORE.INTRA>
0.497123

>  <SCORE.INTRA.DIHEDRAL>
-1.181

>  <SCORE.INTRA.DIHEDRAL.0>
3.281

>  <SCORE.INTRA.POLAR>
0

>  <SCORE.INTRA.POLAR.0>
0

>  <SCORE.INTRA.REPUL>
0

>  <SCORE.INTRA.REPUL.0>
0

>  <SCORE.INTRA.SOLV>
0.796899

>  <SCORE.INTRA.SOLV.lig_0>
-31.9458

>  <SCORE.INTRA.VDW>
0.689175

>  <SCORE.INTRA.VDW.0>
-0.672612

>  <SCORE.INTRA.norm>
0.0497123

>  <SCORE.RESTR>
0

>  <SCORE.RESTR.CAVITY>
0

>  <SCORE.RESTR.norm>
0

>  <SCORE.SYSTEM>
0

>  <SCORE.SYSTEM.CONST>
0

>  <SCORE.SYSTEM.DIHEDRAL>
0

>  <SCORE.SYSTEM.SOLV>
0

>  <SCORE.SYSTEM.norm>
0

>  <SCORE.heavy>
10

>  <SCORE.norm>
-0.848261

>  <RMSD>
5.193

$$$$
ligand
 OpenBabel11021811473D
libRbt.so/2013.1/901 2013/11/27
 10  9  0  0  0  0  0  0  0  0999 V2000
   27.1649   14.2730   17.7977 N   0  0  0  0  0  0  0  0  0  0  0  0
   27.3342   14.3818   19.2743 C   0  0  2  0  0  0  0  0  0  0  0  0
   26.4460   15.4731   19.8550 C   0  0  0  0  0  0  0  0  0  0  0  0
   26.5789   16.6593   19.5502 O   0  0  0  0  0  0  0  0  0  0  0  0
   28.7979   14.6209   19.6379 C   0  0  0  0  0  0  0  0  0  0  0  0
   29.0405   14.6303   21.1295 C   0  0  0  0  0  0  0  0  0  0  0  0
   28.7548   15.9793   21.7335 C   0  0  0  0  0  0  0  0  0  0  0  0
   29.7436   17.0160   21.2299 C   0  0  0  0  0  0  0  0  0  0  0  0
   31.1360   16.7114   21.6508 N   0  0  0  0  0  0  0  0  0  0  0  0
   25.5336   15.1905   20.6331 O   0  0  0  0  0  0  0  0  0  0  0  0
  2  1  1  6  0  0  0
  2  3  1  0  0  0  0
  2  5  1  0  0  0  0
  3  4  1  0  0  0  0
  3 10  1  0  0  0  0
  5  6  1  0  0  0  0
  6  7  1  0  0  0  0
  7  8  1  0  0  0  0
  8  9  1  0  0  0  0
M  END
>  <CHROM.1>
-63.09330495,-175.47658081,-83.90838508,-66.19912018,-63.86985466,28.02497492
15.51385599,20.25753672,-2.53933299,-0.13337093,0.82157600

>  <Name>
ligand

>  <RI>
0

>  <Rbt.Current_Directory>
/home/itssahil/PROJECTS/Mol_Feturizer/New_Systems/rnas/3DIX

>  <Rbt.Executable>
rbdock ($Id: //depot/dev/client3/rdock/2013.1/src/exe/rbdock.cxx#4 $)

>  <Rbt.Library>
libRbt.so (2013.1, Build901 2013/11/27)

>  <Rbt.Parameter_File>
/export/apps/rDock/src/rDock_2013.1_src/data/scripts/dock_solv.prm

>  <Rbt.Receptor>
prm/blind_docking_60.prm

>  <SCORE>
-6.55959

>  <SCORE.INTER>
-7.79787

>  <SCORE.INTER.CONST>
1

>  <SCORE.INTER.POLAR>
0

>  <SCORE.INTER.ROT>
5

>  <SCORE.INTER.SOLV>
14.7712

>  <SCORE.INTER.VDW>
-17.0557

>  <SCORE.INTER.norm>
-0.779787

>  <SCORE.INTRA>
1.23829

>  <SCORE.INTRA.DIHEDRAL>
0.581538

>  <SCORE.INTRA.DIHEDRAL.0>
3.281

>  <SCORE.INTRA.POLAR>
0

>  <SCORE.INTRA.POLAR.0>
0

>  <SCORE.INTRA.REPUL>
0

>  <SCORE.INTRA.REPUL.0>
0

>  <SCORE.INTRA.SOLV>
0.000803978

>  <SCORE.INTRA.SOLV.lig_0>
-31.9458

>  <SCORE.INTRA.VDW>
0.947114

>  <SCORE.INTRA.VDW.0>
-0.672612

>  <SCORE.INTRA.norm>
0.123829

>  <SCORE.RESTR>
0

>  <SCORE.RESTR.CAVITY>
0

>  <SCORE.RESTR.norm>
0

>  <SCORE.SYSTEM>
0

>  <SCORE.SYSTEM.CONST>
0

>  <SCORE.SYSTEM.DIHEDRAL>
0

>  <SCORE.SYSTEM.SOLV>
0

>  <SCORE.SYSTEM.norm>
0

>  <SCORE.heavy>
10

>  <SCORE.norm>
-0.655959

>  <RMSD>
5.194

$$$$
ligand
 OpenBabel11021811473D
libRbt.so/2013.1/901 2013/11/27
 10  9  0  0  0  0  0  0  0  0999 V2000
   28.5195   14.7503   18.8286 N   0  0  0  0  0  0  0  0  0  0  0  0
   28.0282   14.5506   20.2213 C   0  0  2  0  0  0  0  0  0  0  0  0
   26.6474   15.1613   20.4148 C   0  0  0  0  0  0  0  0  0  0  0  0
   25.9049   14.8264   21.3390 O   0  0  0  0  0  0  0  0  0  0  0  0
   29.0203   15.1168   21.2346 C   0  0  0  0  0  0  0  0  0  0  0  0
   29.3273   16.5786   21.0050 C   0  0  0  0  0  0  0  0  0  0  0  0
   30.2862   17.1164   22.0334 C   0  0  0  0  0  0  0  0  0  0  0  0
   31.6730   16.5301   21.8363 C   0  0  0  0  0  0  0  0  0  0  0  0
   32.2746   16.9404   20.5408 N   0  0  0  0  0  0  0  0  0  0  0  0
   26.2418   16.0457   19.6590 O   0  0  0  0  0  0  0  0  0  0  0  0
  2  1  1  6  0  0  0
  2  3  1  0  0  0  0
  2  5  1  0  0  0  0
  3  4  1  0  0  0  0
  3 10  1  0  0  0  0
  5  6  1  0  0  0  0
  6  7  1  0  0  0  0
  7  8  1  0  0  0  0
  8  9  1  0  0  0  0
M  END
>  <CHROM.1>
160.35829663,56.29143817,178.89081056,69.78018691,64.51596700,28.75194831
15.76975637,20.71335731,-2.83903362,0.22567163,1.17866261

>  <Name>
ligand

>  <RI>
0

>  <Rbt.Current_Directory>
/home/itssahil/PROJECTS/Mol_Feturizer/New_Systems/rnas/3DIX

>  <Rbt.Executable>
rbdock ($Id: //depot/dev/client3/rdock/2013.1/src/exe/rbdock.cxx#4 $)

>  <Rbt.Library>
libRbt.so (2013.1, Build901 2013/11/27)

>  <Rbt.Parameter_File>
/export/apps/rDock/src/rDock_2013.1_src/data/scripts/dock_solv.prm

>  <Rbt.Receptor>
prm/pocket_docking_5.prm

>  <SCORE>
-8.42859

>  <SCORE.INTER>
-8.93247

>  <SCORE.INTER.CONST>
1

>  <SCORE.INTER.POLAR>
0

>  <SCORE.INTER.ROT>
5

>  <SCORE.INTER.SOLV>
11.562

>  <SCORE.INTER.VDW>
-16.7423

>  <SCORE.INTER.norm>
-0.893247

>  <SCORE.INTRA>
0.503887

>  <SCORE.INTRA.DIHEDRAL>
-1.31485

>  <SCORE.INTRA.DIHEDRAL.0>
3.281

>  <SCORE.INTRA.POLAR>
0

>  <SCORE.INTRA.POLAR.0>
0

>  <SCORE.INTRA.REPUL>
0

>  <SCORE.INTRA.REPUL.0>
0

>  <SCORE.INTRA.SOLV>
0.806584

>  <SCORE.INTRA.SOLV.lig_0>
-31.9458

>  <SCORE.INTRA.VDW>
0.758019

>  <SCORE.INTRA.VDW.0>
-0.672612

>  <SCORE.INTRA.norm>
0.0503887

>  <SCORE.RESTR>
0

>  <SCORE.RESTR.CAVITY>
0

>  <SCORE.RESTR.norm>
0

>  <SCORE.SYSTEM>
0

>  <SCORE.SYSTEM.CONST>
0

>  <SCORE.SYSTEM.DIHEDRAL>
0

>  <SCORE.SYSTEM.SOLV>
0

>  <SCORE.SYSTEM.norm>
0

>  <SCORE.heavy>
10

>  <SCORE.norm>
-0.842859

>  <RMSD>
5.195

$$$$
ligand
 OpenBabel11021811473D
libRbt.so/2013.1/901 2013/11/27
 10  9  0  0  0  0  0  0  0  0999 V2000
   25.8470   15.4881   20.1778 N   0  0  0  0  0  0  0  0  0  0  0  0
   27.3351   15.4250   20.1324 C   0  0  2  0  0  0  0  0  0  0  0  0
   27.8210   14.6863   18.8933 C   0  0  0  0  0  0  0  0  0  0  0  0
   28.9800   14.7787   18.4861 O   0  0  0  0  0  0  0  0  0  0  0  0
   27.8914   14.7831   21.4014 C   0  0  0  0  0  0  0  0  0  0  0  0
   29.3884   14.9414   21.5343 C   0  0  0  0  0  0  0  0  0  0  0  0
   29.7782   16.3724   21.7923 C   0  0  0  0  0  0  0  0  0  0  0  0
   31.2857   16.5069   21.9160 C   0  0  0  0  0  0  0  0  0  0  0  0
   31.9751   16.2854   20.6182 N   0  0  0  0  0  0  0  0  0  0  0  0
   27.0643   13.9375   18.2732 O   0  0  0  0  0  0  0  0  0  0  0  0
  2  1  1  1  0  0  0
  2  3  1  0  0  0  0
  2  5  1  0  0  0  0
  3  4  1  0  0  0  0
  3 10  1  0  0  0  0
  5  6  1  0  0  0  0
  6  7  1  0  0  0  0
  7  8  1  0  0  0  0
  8  9  1  0  0  0  0
M  END
>  <CHROM.1>
162.68848409,-168.52133633,68.91971651,-179.75656038,69.39293148,28.73967118
15.30172624,20.28993829,2.56254337,-0.16722800,-1.91929493

>  <Name>
ligand

>  <RI>
0

>  <Rbt.Current_Directory>
/home/itssahil/PROJECTS/Mol_Feturizer/New_Systems/rnas/3DIX

>  <Rbt.Executable>
rbdock ($Id: //depot/dev/client3/rdock/2013.1/src/exe/rbdock.cxx#4 $)

>  <Rbt.Library>
libRbt.so (2013.1, Build901 2013/11/27)

>  <Rbt.Parameter_File>
/export/apps/rDock/src/rDock_2013.1_src/data/scripts/dock_solv.prm

>  <Rbt.Receptor>
prm/pocket_docking_6.prm

>  <SCORE>
-8.17341

>  <SCORE.INTER>
-7.74407

>  <SCORE.INTER.CONST>
1

>  <SCORE.INTER.POLAR>
0

>  <SCORE.INTER.ROT>
5

>  <SCORE.INTER.SOLV>
16.7896

>  <SCORE.INTER.VDW>
-17.6926

>  <SCORE.INTER.norm>
-0.774407

>  <SCORE.INTRA>
-0.429342

>  <SCORE.INTRA.DIHEDRAL>
-0.708038

>  <SCORE.INTRA.DIHEDRAL.0>
3.281

>  <SCORE.INTRA.POLAR>
0

>  <SCORE.INTRA.POLAR.0>
0

>  <SCORE.INTRA.REPUL>
0

>  <SCORE.INTRA.REPUL.0>
0

>  <SCORE.INTRA.SOLV>
-0.375698

>  <SCORE.INTRA.SOLV.lig_0>
-31.9458

>  <SCORE.INTRA.VDW>
0.112526

>  <SCORE.INTRA.VDW.0>
-0.672612

>  <SCORE.INTRA.norm>
-0.0429342

>  <SCORE.RESTR>
0

>  <SCORE.RESTR.CAVITY>
0

>  <SCORE.RESTR.norm>
0

>  <SCORE.SYSTEM>
0

>  <SCORE.SYSTEM.CONST>
0

>  <SCORE.SYSTEM.DIHEDRAL>
0

>  <SCORE.SYSTEM.SOLV>
0

>  <SCORE.SYSTEM.norm>
0

>  <SCORE.heavy>
10

>  <SCORE.norm>
-0.817341

>  <RMSD>
5.195

$$$$
ligand
 OpenBabel11021811473D
libRbt.so/2013.1/901 2013/11/27
 10  9  0  0  0  0  0  0  0  0999 V2000
   28.8028   14.8195   19.0484 N   0  0  0  0  0  0  0  0  0  0  0  0
   27.8200   14.4967   20.1211 C   0  0  2  0  0  0  0  0  0  0  0  0
   26.6486   15.4688   20.1102 C   0  0  0  0  0  0  0  0  0  0  0  0
   25.5550   15.1845   20.6010 O   0  0  0  0  0  0  0  0  0  0  0  0
   28.4964   14.4753   21.4900 C   0  0  0  0  0  0  0  0  0  0  0  0
   29.1259   15.7992   21.8569 C   0  0  0  0  0  0  0  0  0  0  0  0
   30.4654   15.9835   21.1951 C   0  0  0  0  0  0  0  0  0  0  0  0
   31.1091   17.2869   21.6341 C   0  0  0  0  0  0  0  0  0  0  0  0
   32.4553   17.4758   21.0335 N   0  0  0  0  0  0  0  0  0  0  0  0
   26.7750   16.5970   19.6319 O   0  0  0  0  0  0  0  0  0  0  0  0
  2  1  1  6  0  0  0
  2  3  1  0  0  0  0
  2  5  1  0  0  0  0
  3  4  1  0  0  0  0
  3 10  1  0  0  0  0
  5  6  1  0  0  0  0
  6  7  1  0  0  0  0
  7  8  1  0  0  0  0
  8  9  1  0  0  0  0
M  END
>  <CHROM.1>
157.51082730,60.12643741,-80.14059739,-177.10373702,178.03056781,28.68935090
15.77545298,20.66883241,-2.93836244,-0.33331257,-0.40669783

>  <Name>
ligand

>  <RI>
0

>  <Rbt.Current_Directory>
/home/itssahil/PROJECTS/Mol_Feturizer/New_Systems/rnas/3DIX

>  <Rbt.Executable>
rbdock ($Id: //depot/dev/client3/rdock/2013.1/src/exe/rbdock.cxx#4 $)

>  <Rbt.Library>
libRbt.so (2013.1, Build901 2013/11/27)

>  <Rbt.Parameter_File>
/export/apps/rDock/src/rDock_2013.1_src/data/scripts/dock_solv.prm

>  <Rbt.Receptor>
prm/pocket_docking_5.prm

>  <SCORE>
-8.94619

>  <SCORE.INTER>
-9.37679

>  <SCORE.INTER.CONST>
1

>  <SCORE.INTER.POLAR>
0

>  <SCORE.INTER.ROT>
5

>  <SCORE.INTER.SOLV>
12.1106

>  <SCORE.INTER.VDW>
-17.2214

>  <SCORE.INTER.norm>
-0.937679

>  <SCORE.INTRA>
0.430599

>  <SCORE.INTRA.DIHEDRAL>
-0.255926

>  <SCORE.INTRA.DIHEDRAL.0>
3.281

>  <SCORE.INTRA.POLAR>
0

>  <SCORE.INTRA.POLAR.0>
0

>  <SCORE.INTRA.REPUL>
0

>  <SCORE.INTRA.REPUL.0>
0

>  <SCORE.INTRA.SOLV>
0.731815

>  <SCORE.INTRA.SOLV.lig_0>
-31.9458

>  <SCORE.INTRA.VDW>
0.192655

>  <SCORE.INTRA.VDW.0>
-0.672612

>  <SCORE.INTRA.norm>
0.0430599

>  <SCORE.RESTR>
0

>  <SCORE.RESTR.CAVITY>
0

>  <SCORE.RESTR.norm>
0

>  <SCORE.SYSTEM>
0

>  <SCORE.SYSTEM.CONST>
0

>  <SCORE.SYSTEM.DIHEDRAL>
0

>  <SCORE.SYSTEM.SOLV>
0

>  <SCORE.SYSTEM.norm>
0

>  <SCORE.heavy>
10

>  <SCORE.norm>
-0.894619

>  <RMSD>
5.199

$$$$
ligand
 OpenBabel11021811473D
libRbt.so/2013.1/901 2013/11/27
 10  9  0  0  0  0  0  0  0  0999 V2000
   26.5590   15.1219   21.7614 N   0  0  0  0  0  0  0  0  0  0  0  0
   27.7852   15.7257   21.1676 C   0  0  2  0  0  0  0  0  0  0  0  0
   27.5263   16.2298   19.7548 C   0  0  0  0  0  0  0  0  0  0  0  0
   26.8527   15.5928   18.9435 O   0  0  0  0  0  0  0  0  0  0  0  0
   28.9447   14.7323   21.1867 C   0  0  0  0  0  0  0  0  0  0  0  0
   30.2440   15.3339   20.7032 C   0  0  0  0  0  0  0  0  0  0  0  0
   30.7717   16.3680   21.6615 C   0  0  0  0  0  0  0  0  0  0  0  0
   32.0566   16.9839   21.1365 C   0  0  0  0  0  0  0  0  0  0  0  0
   32.5819   18.0386   22.0422 N   0  0  0  0  0  0  0  0  0  0  0  0
   27.9631   17.3222   19.3894 O   0  0  0  0  0  0  0  0  0  0  0  0
  2  1  1  6  0  0  0
  2  3  1  0  0  0  0
  2  5  1  0  0  0  0
  3  4  1  0  0  0  0
  3 10  1  0  0  0  0
  5  6  1  0  0  0  0
  6  7  1  0  0  0  0
  7  8  1  0  0  0  0
  8  9  1  0  0  0  0
M  END
>  <CHROM.1>
-41.41377734,-175.10973800,68.20751791,-178.48703693,178.31330097,29.11277976
16.15530705,20.74116677,3.12070169,-0.40335742,-0.82751120

>  <Name>
ligand

>  <RI>
0

>  <Rbt.Current_Directory>
/home/itssahil/PROJECTS/Mol_Feturizer/New_Systems/rnas/3DIX

>  <Rbt.Executable>
rbdock ($Id: //depot/dev/client3/rdock/2013.1/src/exe/rbdock.cxx#4 $)

>  <Rbt.Library>
libRbt.so (2013.1, Build901 2013/11/27)

>  <Rbt.Parameter_File>
/export/apps/rDock/src/rDock_2013.1_src/data/scripts/dock_solv.prm

>  <Rbt.Receptor>
prm/pocket_docking_8.prm

>  <SCORE>
-8.26828

>  <SCORE.INTER>
-6.96821

>  <SCORE.INTER.CONST>
1

>  <SCORE.INTER.POLAR>
0

>  <SCORE.INTER.ROT>
5

>  <SCORE.INTER.SOLV>
18.4812

>  <SCORE.INTER.VDW>
-17.7392

>  <SCORE.INTER.norm>
-0.696821

>  <SCORE.INTRA>
-1.30007

>  <SCORE.INTRA.DIHEDRAL>
-1.35413

>  <SCORE.INTRA.DIHEDRAL.0>
3.281

>  <SCORE.INTRA.POLAR>
0

>  <SCORE.INTRA.POLAR.0>
0

>  <SCORE.INTRA.REPUL>
0

>  <SCORE.INTRA.REPUL.0>
0

>  <SCORE.INTRA.SOLV>
-1.31306

>  <SCORE.INTRA.SOLV.lig_0>
-31.9458

>  <SCORE.INTRA.VDW>
0.0335228

>  <SCORE.INTRA.VDW.0>
-0.672612

>  <SCORE.INTRA.norm>
-0.130007

>  <SCORE.RESTR>
0

>  <SCORE.RESTR.CAVITY>
0

>  <SCORE.RESTR.norm>
0

>  <SCORE.SYSTEM>
0

>  <SCORE.SYSTEM.CONST>
0

>  <SCORE.SYSTEM.DIHEDRAL>
0

>  <SCORE.SYSTEM.SOLV>
0

>  <SCORE.SYSTEM.norm>
0

>  <SCORE.heavy>
10

>  <SCORE.norm>
-0.826828

>  <RMSD>
5.201

$$$$
ligand
 OpenBabel11021811473D
libRbt.so/2013.1/901 2013/11/27
 10  9  0  0  0  0  0  0  0  0999 V2000
   25.8889   15.4528   20.1659 N   0  0  0  0  0  0  0  0  0  0  0  0
   27.3756   15.3879   20.0884 C   0  0  2  0  0  0  0  0  0  0  0  0
   27.8335   14.6310   18.8496 C   0  0  0  0  0  0  0  0  0  0  0  0
   27.0719   13.9128   18.2001 O   0  0  0  0  0  0  0  0  0  0  0  0
   27.9597   14.7639   21.3539 C   0  0  0  0  0  0  0  0  0  0  0  0
   29.4542   14.9560   21.4698 C   0  0  0  0  0  0  0  0  0  0  0  0
   29.8144   16.3951   21.7253 C   0  0  0  0  0  0  0  0  0  0  0  0
   31.3193   16.5620   21.8409 C   0  0  0  0  0  0  0  0  0  0  0  0
   32.0119   16.2963   20.5531 N   0  0  0  0  0  0  0  0  0  0  0  0
   28.9889   14.7445   18.4373 O   0  0  0  0  0  0  0  0  0  0  0  0
  2  1  1  1  0  0  0
  2  3  1  0  0  0  0
  2  5  1  0  0  0  0
  3  4  1  0  0  0  0
  3 10  1  0  0  0  0
  5  6  1  0  0  0  0
  6  7  1  0  0  0  0
  7  8  1  0  0  0  0
  8  9  1  0  0  0  0
M  END
>  <CHROM.1>
-15.86967285,-166.95220793,69.23680953,179.87156610,66.88290510,28.77441518
15.29176456,20.23545324,2.55867147,-0.17638565,-1.93047649

>  <Name>
ligand

>  <RI>
0

>  <Rbt.Current_Directory>
/home/itssahil/PROJECTS/Mol_Feturizer/New_Systems/rnas/3DIX

>  <Rbt.Executable>
rbdock ($Id: //depot/dev/client3/rdock/2013.1/src/exe/rbdock.cxx#4 $)

>  <Rbt.Library>
libRbt.so (2013.1, Build901 2013/11/27)

>  <Rbt.Parameter_File>
/export/apps/rDock/src/rDock_2013.1_src/data/scripts/dock_solv.prm

>  <Rbt.Receptor>
prm/pocket_docking_8.prm

>  <SCORE>
-8.10204

>  <SCORE.INTER>
-7.74424

>  <SCORE.INTER.CONST>
1

>  <SCORE.INTER.POLAR>
0

>  <SCORE.INTER.ROT>
5

>  <SCORE.INTER.SOLV>
16.7363

>  <SCORE.INTER.VDW>
-17.6749

>  <SCORE.INTER.norm>
-0.774424

>  <SCORE.INTRA>
-0.3578

>  <SCORE.INTRA.DIHEDRAL>
-0.584103

>  <SCORE.INTRA.DIHEDRAL.0>
3.281

>  <SCORE.INTRA.POLAR>
0

>  <SCORE.INTRA.POLAR.0>
0

>  <SCORE.INTRA.REPUL>
0

>  <SCORE.INTRA.REPUL.0>
0

>  <SCORE.INTRA.SOLV>
-0.351742

>  <SCORE.INTRA.SOLV.lig_0>
-31.9458

>  <SCORE.INTRA.VDW>
0.110123

>  <SCORE.INTRA.VDW.0>
-0.672612

>  <SCORE.INTRA.norm>
-0.03578

>  <SCORE.RESTR>
0

>  <SCORE.RESTR.CAVITY>
0

>  <SCORE.RESTR.norm>
0

>  <SCORE.SYSTEM>
0

>  <SCORE.SYSTEM.CONST>
0

>  <SCORE.SYSTEM.DIHEDRAL>
0

>  <SCORE.SYSTEM.SOLV>
0

>  <SCORE.SYSTEM.norm>
0

>  <SCORE.heavy>
10

>  <SCORE.norm>
-0.810204

>  <RMSD>
5.202

$$$$
ligand
 OpenBabel11021811473D
libRbt.so/2013.1/901 2013/11/27
 10  9  0  0  0  0  0  0  0  0999 V2000
   28.6219   14.4965   19.0600 N   0  0  0  0  0  0  0  0  0  0  0  0
   27.7334   14.4545   20.2556 C   0  0  2  0  0  0  0  0  0  0  0  0
   26.6124   15.4788   20.1493 C   0  0  0  0  0  0  0  0  0  0  0  0
   26.7719   16.5726   19.6054 O   0  0  0  0  0  0  0  0  0  0  0  0
   28.5369   14.6586   21.5380 C   0  0  0  0  0  0  0  0  0  0  0  0
   29.3241   15.9486   21.5410 C   0  0  0  0  0  0  0  0  0  0  0  0
   30.5781   15.8399   20.7152 C   0  0  0  0  0  0  0  0  0  0  0  0
   31.3182   17.1654   20.6815 C   0  0  0  0  0  0  0  0  0  0  0  0
   31.7918   17.5758   22.0290 N   0  0  0  0  0  0  0  0  0  0  0  0
   25.4875   15.2240   20.5822 O   0  0  0  0  0  0  0  0  0  0  0  0
  2  1  1  6  0  0  0
  2  3  1  0  0  0  0
  2  5  1  0  0  0  0
  3  4  1  0  0  0  0
  3 10  1  0  0  0  0
  5  6  1  0  0  0  0
  6  7  1  0  0  0  0
  7  8  1  0  0  0  0
  8  9  1  0  0  0  0
M  END
>  <CHROM.1>
-34.37006019,56.73717348,-78.07613094,177.40403333,63.57297667,28.64218226
15.75870741,20.61038997,-2.76040088,-0.13635710,0.30247645

>  <Name>
ligand

>  <RI>
0

>  <Rbt.Current_Directory>
/home/itssahil/PROJECTS/Mol_Feturizer/New_Systems/rnas/3DIX

>  <Rbt.Executable>
rbdock ($Id: //depot/dev/client3/rdock/2013.1/src/exe/rbdock.cxx#4 $)

>  <Rbt.Library>
libRbt.so (2013.1, Build901 2013/11/27)

>  <Rbt.Parameter_File>
/export/apps/rDock/src/rDock_2013.1_src/data/scripts/dock_solv.prm

>  <Rbt.Receptor>
prm/blind_docking_60.prm

>  <SCORE>
-8.3798

>  <SCORE.INTER>
-9.52522

>  <SCORE.INTER.CONST>
1

>  <SCORE.INTER.POLAR>
0

>  <SCORE.INTER.ROT>
5

>  <SCORE.INTER.SOLV>
11.5743

>  <SCORE.INTER.VDW>
-17.1416

>  <SCORE.INTER.norm>
-0.952522

>  <SCORE.INTRA>
1.14542

>  <SCORE.INTRA.DIHEDRAL>
-0.3286

>  <SCORE.INTRA.DIHEDRAL.0>
3.281

>  <SCORE.INTRA.POLAR>
0

>  <SCORE.INTRA.POLAR.0>
0

>  <SCORE.INTRA.REPUL>
0

>  <SCORE.INTRA.REPUL.0>
0

>  <SCORE.INTRA.SOLV>
1.81681

>  <SCORE.INTRA.SOLV.lig_0>
-31.9458

>  <SCORE.INTRA.VDW>
0.401311

>  <SCORE.INTRA.VDW.0>
-0.672612

>  <SCORE.INTRA.norm>
0.114542

>  <SCORE.RESTR>
0

>  <SCORE.RESTR.CAVITY>
0

>  <SCORE.RESTR.norm>
0

>  <SCORE.SYSTEM>
0

>  <SCORE.SYSTEM.CONST>
0

>  <SCORE.SYSTEM.DIHEDRAL>
0

>  <SCORE.SYSTEM.SOLV>
0

>  <SCORE.SYSTEM.norm>
0

>  <SCORE.heavy>
10

>  <SCORE.norm>
-0.83798

>  <RMSD>
5.208

$$$$
ligand
 OpenBabel11021811473D
libRbt.so/2013.1/901 2013/11/27
 10  9  0  0  0  0  0  0  0  0999 V2000
   27.4164   14.7775   18.3528 N   0  0  0  0  0  0  0  0  0  0  0  0
   27.8781   15.1279   19.7257 C   0  0  2  0  0  0  0  0  0  0  0  0
   26.7119   15.1984   20.7014 C   0  0  0  0  0  0  0  0  0  0  0  0
   25.5470   15.3325   20.3237 O   0  0  0  0  0  0  0  0  0  0  0  0
   28.6611   16.4389   19.7183 C   0  0  0  0  0  0  0  0  0  0  0  0
   29.3270   16.7349   21.0422 C   0  0  0  0  0  0  0  0  0  0  0  0
   30.4093   15.7375   21.3587 C   0  0  0  0  0  0  0  0  0  0  0  0
   31.6413   15.9905   20.5078 C   0  0  0  0  0  0  0  0  0  0  0  0
   32.3225   17.2596   20.8736 N   0  0  0  0  0  0  0  0  0  0  0  0
   26.9016   15.0880   21.9137 O   0  0  0  0  0  0  0  0  0  0  0  0
  2  1  1  6  0  0  0
  2  3  1  0  0  0  0
  2  5  1  0  0  0  0
  3  4  1  0  0  0  0
  3 10  1  0  0  0  0
  5  6  1  0  0  0  0
  6  7  1  0  0  0  0
  7  8  1  0  0  0  0
  8  9  1  0  0  0  0
M  END
>  <CHROM.1>
-19.28553216,-171.39343247,66.14230349,74.45807668,68.45435235,28.64645414
15.76560118,20.47229253,-2.99811487,0.26212762,1.43386904

>  <Name>
ligand

>  <RI>
0

>  <Rbt.Current_Directory>
/home/itssahil/PROJECTS/Mol_Feturizer/New_Systems/rnas/3DIX

>  <Rbt.Executable>
rbdock ($Id: //depot/dev/client3/rdock/2013.1/src/exe/rbdock.cxx#4 $)

>  <Rbt.Library>
libRbt.so (2013.1, Build901 2013/11/27)

>  <Rbt.Parameter_File>
/export/apps/rDock/src/rDock_2013.1_src/data/scripts/dock_solv.prm

>  <Rbt.Receptor>
prm/pocket_docking_6.prm

>  <SCORE>
-8.3574

>  <SCORE.INTER>
-9.03402

>  <SCORE.INTER.CONST>
1

>  <SCORE.INTER.POLAR>
0

>  <SCORE.INTER.ROT>
5

>  <SCORE.INTER.SOLV>
12.7351

>  <SCORE.INTER.VDW>
-17.2011

>  <SCORE.INTER.norm>
-0.903402

>  <SCORE.INTRA>
0.676621

>  <SCORE.INTRA.DIHEDRAL>
-0.199467

>  <SCORE.INTRA.DIHEDRAL.0>
3.281

>  <SCORE.INTRA.POLAR>
0

>  <SCORE.INTRA.POLAR.0>
0

>  <SCORE.INTRA.REPUL>
0

>  <SCORE.INTRA.REPUL.0>
0

>  <SCORE.INTRA.SOLV>
-0.000454623

>  <SCORE.INTRA.SOLV.lig_0>
-31.9458

>  <SCORE.INTRA.VDW>
0.776582

>  <SCORE.INTRA.VDW.0>
-0.672612

>  <SCORE.INTRA.norm>
0.0676621

>  <SCORE.RESTR>
0

>  <SCORE.RESTR.CAVITY>
0

>  <SCORE.RESTR.norm>
0

>  <SCORE.SYSTEM>
0

>  <SCORE.SYSTEM.CONST>
0

>  <SCORE.SYSTEM.DIHEDRAL>
0

>  <SCORE.SYSTEM.SOLV>
0

>  <SCORE.SYSTEM.norm>
0

>  <SCORE.heavy>
10

>  <SCORE.norm>
-0.83574

>  <RMSD>
5.209

$$$$
ligand
 OpenBabel11021811473D
libRbt.so/2013.1/901 2013/11/27
 10  9  0  0  0  0  0  0  0  0999 V2000
   28.7547   16.5631   19.4313 N   0  0  0  0  0  0  0  0  0  0  0  0
   27.6143   15.6601   19.1079 C   0  0  2  0  0  0  0  0  0  0  0  0
   26.9290   15.1586   20.3712 C   0  0  0  0  0  0  0  0  0  0  0  0
   27.5629   14.7194   21.3319 O   0  0  0  0  0  0  0  0  0  0  0  0
   28.0748   14.4920   18.2387 C   0  0  0  0  0  0  0  0  0  0  0  0
   26.9651   13.5135   17.9307 C   0  0  0  0  0  0  0  0  0  0  0  0
   27.4605   12.3424   17.1249 C   0  0  0  0  0  0  0  0  0  0  0  0
   26.4326   11.2248   17.1097 C   0  0  0  0  0  0  0  0  0  0  0  0
   25.0921   11.7038   16.6829 N   0  0  0  0  0  0  0  0  0  0  0  0
   25.7030   15.2102   20.4817 O   0  0  0  0  0  0  0  0  0  0  0  0
  2  1  1  1  0  0  0
  2  3  1  0  0  0  0
  2  5  1  0  0  0  0
  3  4  1  0  0  0  0
  3 10  1  0  0  0  0
  5  6  1  0  0  0  0
  6  7  1  0  0  0  0
  7  8  1  0  0  0  0
  8  9  1  0  0  0  0
M  END
>  <CHROM.1>
-46.64370398,177.56922898,-177.46898205,166.43990865,52.48103938,27.04492130
14.05695828,18.81566597,-1.26601799,-0.58854737,-2.25707064

>  <Name>
ligand

>  <RI>
0

>  <Rbt.Current_Directory>
/home/itssahil/PROJECTS/Mol_Feturizer/New_Systems/rnas/3DIX

>  <Rbt.Executable>
rbdock ($Id: //depot/dev/client3/rdock/2013.1/src/exe/rbdock.cxx#4 $)

>  <Rbt.Library>
libRbt.so (2013.1, Build901 2013/11/27)

>  <Rbt.Parameter_File>
/export/apps/rDock/src/rDock_2013.1_src/data/scripts/dock_solv.prm

>  <Rbt.Receptor>
prm/blind_docking_60.prm

>  <SCORE>
-9.56047

>  <SCORE.INTER>
-9.28413

>  <SCORE.INTER.CONST>
1

>  <SCORE.INTER.POLAR>
0

>  <SCORE.INTER.ROT>
5

>  <SCORE.INTER.SOLV>
17.4589

>  <SCORE.INTER.VDW>
-18.9424

>  <SCORE.INTER.norm>
-0.928413

>  <SCORE.INTRA>
-0.276335

>  <SCORE.INTRA.DIHEDRAL>
-0.744757

>  <SCORE.INTRA.DIHEDRAL.0>
3.281

>  <SCORE.INTRA.POLAR>
0

>  <SCORE.INTRA.POLAR.0>
0

>  <SCORE.INTRA.REPUL>
0

>  <SCORE.INTRA.REPUL.0>
0

>  <SCORE.INTRA.SOLV>
-0.529175

>  <SCORE.INTRA.SOLV.lig_0>
-31.9458

>  <SCORE.INTRA.VDW>
0.360631

>  <SCORE.INTRA.VDW.0>
-0.672612

>  <SCORE.INTRA.norm>
-0.0276335

>  <SCORE.RESTR>
0

>  <SCORE.RESTR.CAVITY>
0

>  <SCORE.RESTR.norm>
0

>  <SCORE.SYSTEM>
0

>  <SCORE.SYSTEM.CONST>
0

>  <SCORE.SYSTEM.DIHEDRAL>
0

>  <SCORE.SYSTEM.SOLV>
0

>  <SCORE.SYSTEM.norm>
0

>  <SCORE.heavy>
10

>  <SCORE.norm>
-0.956047

>  <RMSD>
5.212

$$$$
ligand
 OpenBabel11021811473D
libRbt.so/2013.1/901 2013/11/27
 10  9  0  0  0  0  0  0  0  0999 V2000
   25.8350   15.4713   20.1943 N   0  0  0  0  0  0  0  0  0  0  0  0
   27.3225   15.4130   20.1246 C   0  0  2  0  0  0  0  0  0  0  0  0
   27.7900   14.6406   18.8991 C   0  0  0  0  0  0  0  0  0  0  0  0
   28.9266   14.7631   18.4399 O   0  0  0  0  0  0  0  0  0  0  0  0
   27.9037   14.8105   21.4017 C   0  0  0  0  0  0  0  0  0  0  0  0
   29.4032   14.9713   21.4996 C   0  0  0  0  0  0  0  0  0  0  0  0
   29.7978   16.4071   21.7212 C   0  0  0  0  0  0  0  0  0  0  0  0
   31.3063   16.5403   21.8346 C   0  0  0  0  0  0  0  0  0  0  0  0
   31.9919   16.2437   20.5499 N   0  0  0  0  0  0  0  0  0  0  0  0
   27.0425   13.8339   18.3440 O   0  0  0  0  0  0  0  0  0  0  0  0
  2  1  1  1  0  0  0
  2  3  1  0  0  0  0
  2  5  1  0  0  0  0
  3  4  1  0  0  0  0
  3 10  1  0  0  0  0
  5  6  1  0  0  0  0
  6  7  1  0  0  0  0
  7  8  1  0  0  0  0
  8  9  1  0  0  0  0
M  END
>  <CHROM.1>
159.96704823,-168.87580260,69.60146415,179.24426122,67.58156909,28.73452069
15.28988056,20.26878323,2.57614398,-0.16947900,-1.94614610

>  <Name>
ligand

>  <RI>
0

>  <Rbt.Current_Directory>
/home/itssahil/PROJECTS/Mol_Feturizer/New_Systems/rnas/3DIX

>  <Rbt.Executable>
rbdock ($Id: //depot/dev/client3/rdock/2013.1/src/exe/rbdock.cxx#4 $)

>  <Rbt.Library>
libRbt.so (2013.1, Build901 2013/11/27)

>  <Rbt.Parameter_File>
/export/apps/rDock/src/rDock_2013.1_src/data/scripts/dock_solv.prm

>  <Rbt.Receptor>
prm/pocket_docking_3.prm

>  <SCORE>
-8.15169

>  <SCORE.INTER>
-7.65262

>  <SCORE.INTER.CONST>
1

>  <SCORE.INTER.POLAR>
0

>  <SCORE.INTER.ROT>
5

>  <SCORE.INTER.SOLV>
16.9668

>  <SCORE.INTER.VDW>
-17.6907

>  <SCORE.INTER.norm>
-0.765262

>  <SCORE.INTRA>
-0.499066

>  <SCORE.INTRA.DIHEDRAL>
-0.801526

>  <SCORE.INTRA.DIHEDRAL.0>
3.281

>  <SCORE.INTRA.POLAR>
0

>  <SCORE.INTRA.POLAR.0>
0

>  <SCORE.INTRA.REPUL>
0

>  <SCORE.INTRA.REPUL.0>
0

>  <SCORE.INTRA.SOLV>
-0.37989

>  <SCORE.INTRA.SOLV.lig_0>
-31.9458

>  <SCORE.INTRA.VDW>
0.0916415

>  <SCORE.INTRA.VDW.0>
-0.672612

>  <SCORE.INTRA.norm>
-0.0499066

>  <SCORE.RESTR>
0

>  <SCORE.RESTR.CAVITY>
0

>  <SCORE.RESTR.norm>
0

>  <SCORE.SYSTEM>
0

>  <SCORE.SYSTEM.CONST>
0

>  <SCORE.SYSTEM.DIHEDRAL>
0

>  <SCORE.SYSTEM.SOLV>
0

>  <SCORE.SYSTEM.norm>
0

>  <SCORE.heavy>
10

>  <SCORE.norm>
-0.815169

>  <RMSD>
5.213

$$$$
ligand
 OpenBabel11021811473D
libRbt.so/2013.1/901 2013/11/27
 10  9  0  0  0  0  0  0  0  0999 V2000
   28.7994   14.4451   21.2275 N   0  0  0  0  0  0  0  0  0  0  0  0
   28.0402   15.7040   20.9839 C   0  0  2  0  0  0  0  0  0  0  0  0
   26.8376   15.4605   20.0831 C   0  0  0  0  0  0  0  0  0  0  0  0
   25.6954   15.3436   20.5299 O   0  0  0  0  0  0  0  0  0  0  0  0
   28.9488   16.7827   20.3985 C   0  0  0  0  0  0  0  0  0  0  0  0
   30.0539   17.1978   21.3420 C   0  0  0  0  0  0  0  0  0  0  0  0
   31.1000   16.1246   21.4839 C   0  0  0  0  0  0  0  0  0  0  0  0
   31.9765   16.0587   20.2456 C   0  0  0  0  0  0  0  0  0  0  0  0
   32.8681   17.2418   20.1280 N   0  0  0  0  0  0  0  0  0  0  0  0
   26.9719   15.4059   18.8597 O   0  0  0  0  0  0  0  0  0  0  0  0
  2  1  1  6  0  0  0
  2  3  1  0  0  0  0
  2  5  1  0  0  0  0
  3  4  1  0  0  0  0
  3 10  1  0  0  0  0
  5  6  1  0  0  0  0
  6  7  1  0  0  0  0
  7  8  1  0  0  0  0
  8  9  1  0  0  0  0
M  END
>  <CHROM.1>
100.14888593,-63.68952516,71.52545258,74.58668443,70.31525013,29.09103429
15.96901943,20.50795408,-3.13715166,-0.26388115,-1.18310870

>  <Name>
ligand

>  <RI>
0

>  <Rbt.Current_Directory>
/home/itssahil/PROJECTS/Mol_Feturizer/New_Systems/rnas/3DIX

>  <Rbt.Executable>
rbdock ($Id: //depot/dev/client3/rdock/2013.1/src/exe/rbdock.cxx#4 $)

>  <Rbt.Library>
libRbt.so (2013.1, Build901 2013/11/27)

>  <Rbt.Parameter_File>
/export/apps/rDock/src/rDock_2013.1_src/data/scripts/dock_solv.prm

>  <Rbt.Receptor>
prm/pocket_docking_6.prm

>  <SCORE>
-5.76932

>  <SCORE.INTER>
-8.22939

>  <SCORE.INTER.CONST>
1

>  <SCORE.INTER.POLAR>
0

>  <SCORE.INTER.ROT>
5

>  <SCORE.INTER.SOLV>
14.2663

>  <SCORE.INTER.VDW>
-17.175

>  <SCORE.INTER.norm>
-0.822939

>  <SCORE.INTRA>
2.46007

>  <SCORE.INTRA.DIHEDRAL>
0.116138

>  <SCORE.INTRA.DIHEDRAL.0>
3.281

>  <SCORE.INTRA.POLAR>
0

>  <SCORE.INTRA.POLAR.0>
0

>  <SCORE.INTRA.REPUL>
0

>  <SCORE.INTRA.REPUL.0>
0

>  <SCORE.INTRA.SOLV>
2.368

>  <SCORE.INTRA.SOLV.lig_0>
-31.9458

>  <SCORE.INTRA.VDW>
1.218

>  <SCORE.INTRA.VDW.0>
-0.672612

>  <SCORE.INTRA.norm>
0.246007

>  <SCORE.RESTR>
0

>  <SCORE.RESTR.CAVITY>
0

>  <SCORE.RESTR.norm>
0

>  <SCORE.SYSTEM>
0

>  <SCORE.SYSTEM.CONST>
0

>  <SCORE.SYSTEM.DIHEDRAL>
0

>  <SCORE.SYSTEM.SOLV>
0

>  <SCORE.SYSTEM.norm>
0

>  <SCORE.heavy>
10

>  <SCORE.norm>
-0.576932

>  <RMSD>
5.214

$$$$
ligand
 OpenBabel11021811473D
libRbt.so/2013.1/901 2013/11/27
 10  9  0  0  0  0  0  0  0  0999 V2000
   27.2906   14.1334   17.9385 N   0  0  0  0  0  0  0  0  0  0  0  0
   27.5916   14.4598   19.3610 C   0  0  2  0  0  0  0  0  0  0  0  0
   26.6433   15.5222   19.8985 C   0  0  0  0  0  0  0  0  0  0  0  0
   26.7227   16.7045   19.5613 O   0  0  0  0  0  0  0  0  0  0  0  0
   29.0459   14.8966   19.5230 C   0  0  0  0  0  0  0  0  0  0  0  0
   29.4436   15.0965   20.9671 C   0  0  0  0  0  0  0  0  0  0  0  0
   30.9031   15.4397   21.1023 C   0  0  0  0  0  0  0  0  0  0  0  0
   31.1788   16.8388   20.5802 C   0  0  0  0  0  0  0  0  0  0  0  0
   30.5466   17.8854   21.4250 N   0  0  0  0  0  0  0  0  0  0  0  0
   25.7347   15.2174   20.6727 O   0  0  0  0  0  0  0  0  0  0  0  0
  2  1  1  6  0  0  0
  2  3  1  0  0  0  0
  2  5  1  0  0  0  0
  3  4  1  0  0  0  0
  3 10  1  0  0  0  0
  5  6  1  0  0  0  0
  6  7  1  0  0  0  0
  7  8  1  0  0  0  0
  8  9  1  0  0  0  0
M  END
>  <CHROM.1>
-72.86788007,-173.83361610,176.31710246,70.43655724,67.28642020,28.47941301
15.63853401,20.11168884,-2.67290181,-0.10563787,0.58989667

>  <Name>
ligand

>  <RI>
0

>  <Rbt.Current_Directory>
/home/itssahil/PROJECTS/Mol_Feturizer/New_Systems/rnas/3DIX

>  <Rbt.Executable>
rbdock ($Id: //depot/dev/client3/rdock/2013.1/src/exe/rbdock.cxx#4 $)

>  <Rbt.Library>
libRbt.so (2013.1, Build901 2013/11/27)

>  <Rbt.Parameter_File>
/export/apps/rDock/src/rDock_2013.1_src/data/scripts/dock_solv.prm

>  <Rbt.Receptor>
prm/pocket_docking_3.prm

>  <SCORE>
-7.40329

>  <SCORE.INTER>
-7.41183

>  <SCORE.INTER.CONST>
1

>  <SCORE.INTER.POLAR>
0

>  <SCORE.INTER.ROT>
5

>  <SCORE.INTER.SOLV>
15.8795

>  <SCORE.INTER.VDW>
-17.1677

>  <SCORE.INTER.norm>
-0.741183

>  <SCORE.INTRA>
0.00853438

>  <SCORE.INTRA.DIHEDRAL>
-0.99935

>  <SCORE.INTRA.DIHEDRAL.0>
3.281

>  <SCORE.INTRA.POLAR>
0

>  <SCORE.INTRA.POLAR.0>
0

>  <SCORE.INTRA.REPUL>
0

>  <SCORE.INTRA.REPUL.0>
0

>  <SCORE.INTRA.SOLV>
-0.243075

>  <SCORE.INTRA.SOLV.lig_0>
-31.9458

>  <SCORE.INTRA.VDW>
0.629747

>  <SCORE.INTRA.VDW.0>
-0.672612

>  <SCORE.INTRA.norm>
0.000853438

>  <SCORE.RESTR>
0

>  <SCORE.RESTR.CAVITY>
0

>  <SCORE.RESTR.norm>
0

>  <SCORE.SYSTEM>
0

>  <SCORE.SYSTEM.CONST>
0

>  <SCORE.SYSTEM.DIHEDRAL>
0

>  <SCORE.SYSTEM.SOLV>
0

>  <SCORE.SYSTEM.norm>
0

>  <SCORE.heavy>
10

>  <SCORE.norm>
-0.740329

>  <RMSD>
5.216

$$$$
ligand
 OpenBabel11021811473D
libRbt.so/2013.1/901 2013/11/27
 10  9  0  0  0  0  0  0  0  0999 V2000
   28.5944   14.4859   19.0268 N   0  0  0  0  0  0  0  0  0  0  0  0
   27.6955   14.4541   20.2150 C   0  0  2  0  0  0  0  0  0  0  0  0
   26.5959   15.5011   20.1062 C   0  0  0  0  0  0  0  0  0  0  0  0
   26.7797   16.5926   19.5654 O   0  0  0  0  0  0  0  0  0  0  0  0
   28.4925   14.6345   21.5050 C   0  0  0  0  0  0  0  0  0  0  0  0
   29.3414   15.8848   21.5032 C   0  0  0  0  0  0  0  0  0  0  0  0
   30.6115   15.6966   20.7172 C   0  0  0  0  0  0  0  0  0  0  0  0
   31.4138   16.9851   20.6724 C   0  0  0  0  0  0  0  0  0  0  0  0
   31.8359   17.4284   22.0267 N   0  0  0  0  0  0  0  0  0  0  0  0
   25.4642   15.2680   20.5338 O   0  0  0  0  0  0  0  0  0  0  0  0
  2  1  1  6  0  0  0
  2  3  1  0  0  0  0
  2  5  1  0  0  0  0
  3  4  1  0  0  0  0
  3 10  1  0  0  0  0
  5  6  1  0  0  0  0
  6  7  1  0  0  0  0
  7  8  1  0  0  0  0
  8  9  1  0  0  0  0
M  END
>  <CHROM.1>
-34.05069582,54.77521577,-79.20308247,177.20310318,61.96819233,28.64731094
15.71125434,20.58170439,-2.79404173,-0.14280782,0.32856356

>  <Name>
ligand

>  <RI>
0

>  <Rbt.Current_Directory>
/home/itssahil/PROJECTS/Mol_Feturizer/New_Systems/rnas/3DIX

>  <Rbt.Executable>
rbdock ($Id: //depot/dev/client3/rdock/2013.1/src/exe/rbdock.cxx#4 $)

>  <Rbt.Library>
libRbt.so (2013.1, Build901 2013/11/27)

>  <Rbt.Parameter_File>
/export/apps/rDock/src/rDock_2013.1_src/data/scripts/dock_solv.prm

>  <Rbt.Receptor>
prm/blind_docking_100.prm

>  <SCORE>
-8.4163

>  <SCORE.INTER>
-9.70392

>  <SCORE.INTER.CONST>
1

>  <SCORE.INTER.POLAR>
0

>  <SCORE.INTER.ROT>
5

>  <SCORE.INTER.SOLV>
11.7083

>  <SCORE.INTER.VDW>
-17.3054

>  <SCORE.INTER.norm>
-0.970392

>  <SCORE.INTRA>
1.28763

>  <SCORE.INTRA.DIHEDRAL>
-0.138392

>  <SCORE.INTRA.DIHEDRAL.0>
3.281

>  <SCORE.INTRA.POLAR>
0

>  <SCORE.INTRA.POLAR.0>
0

>  <SCORE.INTRA.REPUL>
0

>  <SCORE.INTRA.REPUL.0>
0

>  <SCORE.INTRA.SOLV>
1.85958

>  <SCORE.INTRA.SOLV.lig_0>
-31.9458

>  <SCORE.INTRA.VDW>
0.427035

>  <SCORE.INTRA.VDW.0>
-0.672612

>  <SCORE.INTRA.norm>
0.128763

>  <SCORE.RESTR>
0

>  <SCORE.RESTR.CAVITY>
0

>  <SCORE.RESTR.norm>
0

>  <SCORE.SYSTEM>
0

>  <SCORE.SYSTEM.CONST>
0

>  <SCORE.SYSTEM.DIHEDRAL>
0

>  <SCORE.SYSTEM.SOLV>
0

>  <SCORE.SYSTEM.norm>
0

>  <SCORE.heavy>
10

>  <SCORE.norm>
-0.84163

>  <RMSD>
5.217

$$$$
ligand
 OpenBabel11021811473D
libRbt.so/2013.1/901 2013/11/27
 10  9  0  0  0  0  0  0  0  0999 V2000
   28.9924   16.4157   19.7770 N   0  0  0  0  0  0  0  0  0  0  0  0
   27.7911   15.6918   19.2734 C   0  0  2  0  0  0  0  0  0  0  0  0
   26.8944   15.2424   20.4184 C   0  0  0  0  0  0  0  0  0  0  0  0
   27.3498   14.8032   21.4755 O   0  0  0  0  0  0  0  0  0  0  0  0
   28.1966   14.5051   18.4020 C   0  0  0  0  0  0  0  0  0  0  0  0
   27.0141   13.8031   17.7753 C   0  0  0  0  0  0  0  0  0  0  0  0
   27.3829   12.4363   17.2634 C   0  0  0  0  0  0  0  0  0  0  0  0
   26.1404   11.6469   16.8902 C   0  0  0  0  0  0  0  0  0  0  0  0
   26.4367   10.2066   16.6751 N   0  0  0  0  0  0  0  0  0  0  0  0
   25.6694   15.3383   20.3298 O   0  0  0  0  0  0  0  0  0  0  0  0
  2  1  1  1  0  0  0
  2  3  1  0  0  0  0
  2  5  1  0  0  0  0
  3  4  1  0  0  0  0
  3 10  1  0  0  0  0
  5  6  1  0  0  0  0
  6  7  1  0  0  0  0
  7  8  1  0  0  0  0
  8  9  1  0  0  0  0
M  END
>  <CHROM.1>
-39.41518423,-175.37889103,-163.51624350,168.88052414,-167.13973265,27.16754984
14.00919190,18.86027932,-1.36370235,-0.62300920,-2.33896494

>  <Name>
ligand

>  <RI>
0

>  <Rbt.Current_Directory>
/home/itssahil/PROJECTS/Mol_Feturizer/New_Systems/rnas/3DIX

>  <Rbt.Executable>
rbdock ($Id: //depot/dev/client3/rdock/2013.1/src/exe/rbdock.cxx#4 $)

>  <Rbt.Library>
libRbt.so (2013.1, Build901 2013/11/27)

>  <Rbt.Parameter_File>
/export/apps/rDock/src/rDock_2013.1_src/data/scripts/dock_solv.prm

>  <Rbt.Receptor>
prm/pocket_docking_6.prm

>  <SCORE>
-12.5514

>  <SCORE.INTER>
-11.8538

>  <SCORE.INTER.CONST>
1

>  <SCORE.INTER.POLAR>
0

>  <SCORE.INTER.ROT>
5

>  <SCORE.INTER.SOLV>
13.4975

>  <SCORE.INTER.VDW>
-19.335

>  <SCORE.INTER.norm>
-1.18538

>  <SCORE.INTRA>
-0.69755

>  <SCORE.INTRA.DIHEDRAL>
0.519267

>  <SCORE.INTRA.DIHEDRAL.0>
3.281

>  <SCORE.INTRA.POLAR>
0

>  <SCORE.INTRA.POLAR.0>
0

>  <SCORE.INTRA.REPUL>
0

>  <SCORE.INTRA.REPUL.0>
0

>  <SCORE.INTRA.SOLV>
-1.56217

>  <SCORE.INTRA.SOLV.lig_0>
-31.9458

>  <SCORE.INTRA.VDW>
-0.176096

>  <SCORE.INTRA.VDW.0>
-0.672612

>  <SCORE.INTRA.norm>
-0.069755

>  <SCORE.RESTR>
0

>  <SCORE.RESTR.CAVITY>
0

>  <SCORE.RESTR.norm>
0

>  <SCORE.SYSTEM>
0

>  <SCORE.SYSTEM.CONST>
0

>  <SCORE.SYSTEM.DIHEDRAL>
0

>  <SCORE.SYSTEM.SOLV>
0

>  <SCORE.SYSTEM.norm>
0

>  <SCORE.heavy>
10

>  <SCORE.norm>
-1.25514

>  <RMSD>
5.219

$$$$
ligand
 OpenBabel11021811473D
libRbt.so/2013.1/901 2013/11/27
 10  9  0  0  0  0  0  0  0  0999 V2000
   27.9010   15.3135   18.7047 N   0  0  0  0  0  0  0  0  0  0  0  0
   28.0787   15.4790   20.1750 C   0  0  2  0  0  0  0  0  0  0  0  0
   26.7553   15.3332   20.9130 C   0  0  0  0  0  0  0  0  0  0  0  0
   25.6743   15.3038   20.3230 O   0  0  0  0  0  0  0  0  0  0  0  0
   28.7356   16.8196   20.4961 C   0  0  0  0  0  0  0  0  0  0  0  0
   30.1452   16.9279   19.9620 C   0  0  0  0  0  0  0  0  0  0  0  0
   31.0779   15.9655   20.6476 C   0  0  0  0  0  0  0  0  0  0  0  0
   31.3867   16.4278   22.0607 C   0  0  0  0  0  0  0  0  0  0  0  0
   32.1125   17.7246   22.0786 N   0  0  0  0  0  0  0  0  0  0  0  0
   26.7318   15.2050   22.1381 O   0  0  0  0  0  0  0  0  0  0  0  0
  2  1  1  6  0  0  0
  2  3  1  0  0  0  0
  2  5  1  0  0  0  0
  3  4  1  0  0  0  0
  3 10  1  0  0  0  0
  5  6  1  0  0  0  0
  6  7  1  0  0  0  0
  7  8  1  0  0  0  0
  8  9  1  0  0  0  0
M  END
>  <CHROM.1>
-10.91351933,-64.64447591,-66.30940051,-73.31500585,-63.73187685,28.82094984
16.04192924,20.76520682,-2.95273077,0.31471480,1.52624033

>  <Name>
ligand

>  <RI>
0

>  <Rbt.Current_Directory>
/home/itssahil/PROJECTS/Mol_Feturizer/New_Systems/rnas/3DIX

>  <Rbt.Executable>
rbdock ($Id: //depot/dev/client3/rdock/2013.1/src/exe/rbdock.cxx#4 $)

>  <Rbt.Library>
libRbt.so (2013.1, Build901 2013/11/27)

>  <Rbt.Parameter_File>
/export/apps/rDock/src/rDock_2013.1_src/data/scripts/dock_solv.prm

>  <Rbt.Receptor>
prm/pocket_docking_5.prm

>  <SCORE>
-7.56423

>  <SCORE.INTER>
-8.59748

>  <SCORE.INTER.CONST>
1

>  <SCORE.INTER.POLAR>
0

>  <SCORE.INTER.ROT>
5

>  <SCORE.INTER.SOLV>
10.135

>  <SCORE.INTER.VDW>
-16.0433

>  <SCORE.INTER.norm>
-0.859748

>  <SCORE.INTRA>
1.03325

>  <SCORE.INTRA.DIHEDRAL>
-0.721941

>  <SCORE.INTRA.DIHEDRAL.0>
3.281

>  <SCORE.INTRA.POLAR>
0

>  <SCORE.INTRA.POLAR.0>
0

>  <SCORE.INTRA.REPUL>
0

>  <SCORE.INTRA.REPUL.0>
0

>  <SCORE.INTRA.SOLV>
1.17287

>  <SCORE.INTRA.SOLV.lig_0>
-31.9458

>  <SCORE.INTRA.VDW>
0.807787

>  <SCORE.INTRA.VDW.0>
-0.672612

>  <SCORE.INTRA.norm>
0.103325

>  <SCORE.RESTR>
0

>  <SCORE.RESTR.CAVITY>
0

>  <SCORE.RESTR.norm>
0

>  <SCORE.SYSTEM>
0

>  <SCORE.SYSTEM.CONST>
0

>  <SCORE.SYSTEM.DIHEDRAL>
0

>  <SCORE.SYSTEM.SOLV>
0

>  <SCORE.SYSTEM.norm>
0

>  <SCORE.heavy>
10

>  <SCORE.norm>
-0.756423

>  <RMSD>
5.220

$$$$
ligand
 OpenBabel11021811473D
libRbt.so/2013.1/901 2013/11/27
 10  9  0  0  0  0  0  0  0  0999 V2000
   28.9219   16.5421   19.7223 N   0  0  0  0  0  0  0  0  0  0  0  0
   27.7423   15.7696   19.2401 C   0  0  2  0  0  0  0  0  0  0  0  0
   26.8462   15.3476   20.3960 C   0  0  0  0  0  0  0  0  0  0  0  0
   25.6172   15.3544   20.3103 O   0  0  0  0  0  0  0  0  0  0  0  0
   28.1830   14.5573   18.4229 C   0  0  0  0  0  0  0  0  0  0  0  0
   27.0234   13.8078   17.8085 C   0  0  0  0  0  0  0  0  0  0  0  0
   27.4418   12.4570   17.2922 C   0  0  0  0  0  0  0  0  0  0  0  0
   26.2302   11.6338   16.8919 C   0  0  0  0  0  0  0  0  0  0  0  0
   26.5721   10.2035   16.6776 N   0  0  0  0  0  0  0  0  0  0  0  0
   27.3346   14.9498   21.4547 O   0  0  0  0  0  0  0  0  0  0  0  0
  2  1  1  1  0  0  0
  2  3  1  0  0  0  0
  2  5  1  0  0  0  0
  3  4  1  0  0  0  0
  3 10  1  0  0  0  0
  5  6  1  0  0  0  0
  6  7  1  0  0  0  0
  7  8  1  0  0  0  0
  8  9  1  0  0  0  0
M  END
>  <CHROM.1>
141.32878738,-174.95225995,-166.48587740,170.62359548,-166.83336864,27.17211160
14.06238339,18.85396135,-1.39896170,-0.62054173,-2.37659311

>  <Name>
ligand

>  <RI>
0

>  <Rbt.Current_Directory>
/home/itssahil/PROJECTS/Mol_Feturizer/New_Systems/rnas/3DIX

>  <Rbt.Executable>
rbdock ($Id: //depot/dev/client3/rdock/2013.1/src/exe/rbdock.cxx#4 $)

>  <Rbt.Library>
libRbt.so (2013.1, Build901 2013/11/27)

>  <Rbt.Parameter_File>
/export/apps/rDock/src/rDock_2013.1_src/data/scripts/dock_solv.prm

>  <Rbt.Receptor>
prm/pocket_docking_7.prm

>  <SCORE>
-12.5916

>  <SCORE.INTER>
-11.6351

>  <SCORE.INTER.CONST>
1

>  <SCORE.INTER.POLAR>
0

>  <SCORE.INTER.ROT>
5

>  <SCORE.INTER.SOLV>
14.255

>  <SCORE.INTER.VDW>
-19.4417

>  <SCORE.INTER.norm>
-1.16351

>  <SCORE.INTRA>
-0.956512

>  <SCORE.INTRA.DIHEDRAL>
-0.0323244

>  <SCORE.INTRA.DIHEDRAL.0>
3.281

>  <SCORE.INTRA.POLAR>
0

>  <SCORE.INTRA.POLAR.0>
0

>  <SCORE.INTRA.REPUL>
0

>  <SCORE.INTRA.REPUL.0>
0

>  <SCORE.INTRA.SOLV>
-1.56341

>  <SCORE.INTRA.SOLV.lig_0>
-31.9458

>  <SCORE.INTRA.VDW>
-0.158646

>  <SCORE.INTRA.VDW.0>
-0.672612

>  <SCORE.INTRA.norm>
-0.0956512

>  <SCORE.RESTR>
0

>  <SCORE.RESTR.CAVITY>
0

>  <SCORE.RESTR.norm>
0

>  <SCORE.SYSTEM>
0

>  <SCORE.SYSTEM.CONST>
0

>  <SCORE.SYSTEM.DIHEDRAL>
0

>  <SCORE.SYSTEM.SOLV>
0

>  <SCORE.SYSTEM.norm>
0

>  <SCORE.heavy>
10

>  <SCORE.norm>
-1.25916

>  <RMSD>
5.221

$$$$
ligand
 OpenBabel11021811473D
libRbt.so/2013.1/901 2013/11/27
 10  9  0  0  0  0  0  0  0  0999 V2000
   28.2646   14.3623   18.5476 N   0  0  0  0  0  0  0  0  0  0  0  0
   27.5752   14.3959   19.8683 C   0  0  2  0  0  0  0  0  0  0  0  0
   26.5710   15.5376   19.9403 C   0  0  0  0  0  0  0  0  0  0  0  0
   25.4394   15.3884   20.4039 O   0  0  0  0  0  0  0  0  0  0  0  0
   28.5872   14.4889   21.0081 C   0  0  0  0  0  0  0  0  0  0  0  0
   29.4603   15.7193   20.9218 C   0  0  0  0  0  0  0  0  0  0  0  0
   30.4620   15.7735   22.0442 C   0  0  0  0  0  0  0  0  0  0  0  0
   31.4181   16.9385   21.8581 C   0  0  0  0  0  0  0  0  0  0  0  0
   32.2633   16.7801   20.6461 N   0  0  0  0  0  0  0  0  0  0  0  0
   26.8795   16.6684   19.5611 O   0  0  0  0  0  0  0  0  0  0  0  0
  2  1  1  6  0  0  0
  2  3  1  0  0  0  0
  2  5  1  0  0  0  0
  3  4  1  0  0  0  0
  3 10  1  0  0  0  0
  5  6  1  0  0  0  0
  6  7  1  0  0  0  0
  7  8  1  0  0  0  0
  8  9  1  0  0  0  0
M  END
>  <CHROM.1>
135.45833932,59.36431455,-179.07989583,174.20508313,-64.92550699,28.65908668
15.62674266,20.47836473,-2.77094102,-0.07625816,0.73332881

>  <Name>
ligand

>  <RI>
0

>  <Rbt.Current_Directory>
/home/itssahil/PROJECTS/Mol_Feturizer/New_Systems/rnas/3DIX

>  <Rbt.Executable>
rbdock ($Id: //depot/dev/client3/rdock/2013.1/src/exe/rbdock.cxx#4 $)

>  <Rbt.Library>
libRbt.so (2013.1, Build901 2013/11/27)

>  <Rbt.Parameter_File>
/export/apps/rDock/src/rDock_2013.1_src/data/scripts/dock_solv.prm

>  <Rbt.Receptor>
prm/pocket_docking_5.prm

>  <SCORE>
-9.17375

>  <SCORE.INTER>
-8.69748

>  <SCORE.INTER.CONST>
1

>  <SCORE.INTER.POLAR>
0

>  <SCORE.INTER.ROT>
5

>  <SCORE.INTER.SOLV>
12.8188

>  <SCORE.INTER.VDW>
-17.0046

>  <SCORE.INTER.norm>
-0.869748

>  <SCORE.INTRA>
-0.476272

>  <SCORE.INTRA.DIHEDRAL>
-1.59787

>  <SCORE.INTRA.DIHEDRAL.0>
3.281

>  <SCORE.INTRA.POLAR>
0

>  <SCORE.INTRA.POLAR.0>
0

>  <SCORE.INTRA.REPUL>
0

>  <SCORE.INTRA.REPUL.0>
0

>  <SCORE.INTRA.SOLV>
0.316691

>  <SCORE.INTRA.SOLV.lig_0>
-31.9458

>  <SCORE.INTRA.VDW>
0.164317

>  <SCORE.INTRA.VDW.0>
-0.672612

>  <SCORE.INTRA.norm>
-0.0476272

>  <SCORE.RESTR>
0

>  <SCORE.RESTR.CAVITY>
0

>  <SCORE.RESTR.norm>
0

>  <SCORE.SYSTEM>
0

>  <SCORE.SYSTEM.CONST>
0

>  <SCORE.SYSTEM.DIHEDRAL>
0

>  <SCORE.SYSTEM.SOLV>
0

>  <SCORE.SYSTEM.norm>
0

>  <SCORE.heavy>
10

>  <SCORE.norm>
-0.917375

>  <RMSD>
5.222

$$$$
ligand
 OpenBabel11021811473D
libRbt.so/2013.1/901 2013/11/27
 10  9  0  0  0  0  0  0  0  0999 V2000
   25.8033   15.4749   20.1987 N   0  0  0  0  0  0  0  0  0  0  0  0
   27.2895   15.3887   20.1328 C   0  0  2  0  0  0  0  0  0  0  0  0
   27.7465   14.6383   18.8897 C   0  0  0  0  0  0  0  0  0  0  0  0
   28.8769   14.7741   18.4192 O   0  0  0  0  0  0  0  0  0  0  0  0
   27.8536   14.7427   21.3962 C   0  0  0  0  0  0  0  0  0  0  0  0
   29.3514   14.9007   21.5204 C   0  0  0  0  0  0  0  0  0  0  0  0
   29.7405   16.3250   21.8141 C   0  0  0  0  0  0  0  0  0  0  0  0
   31.2499   16.4636   21.9060 C   0  0  0  0  0  0  0  0  0  0  0  0
   31.9127   16.2420   20.5945 N   0  0  0  0  0  0  0  0  0  0  0  0
   26.9966   13.8365   18.3307 O   0  0  0  0  0  0  0  0  0  0  0  0
  2  1  1  1  0  0  0
  2  3  1  0  0  0  0
  2  5  1  0  0  0  0
  3  4  1  0  0  0  0
  3 10  1  0  0  0  0
  5  6  1  0  0  0  0
  6  7  1  0  0  0  0
  7  8  1  0  0  0  0
  8  9  1  0  0  0  0
M  END
>  <CHROM.1>
158.18857960,-167.45347550,70.31183874,-178.84013589,67.48966754,28.68452657
15.25963169,20.28760579,2.56337685,-0.17093052,-1.91881425

>  <Name>
ligand

>  <RI>
0

>  <Rbt.Current_Directory>
/home/itssahil/PROJECTS/Mol_Feturizer/New_Systems/rnas/3DIX

>  <Rbt.Executable>
rbdock ($Id: //depot/dev/client3/rdock/2013.1/src/exe/rbdock.cxx#4 $)

>  <Rbt.Library>
libRbt.so (2013.1, Build901 2013/11/27)

>  <Rbt.Parameter_File>
/export/apps/rDock/src/rDock_2013.1_src/data/scripts/dock_solv.prm

>  <Rbt.Receptor>
prm/blind_docking_60.prm

>  <SCORE>
-8.12484

>  <SCORE.INTER>
-7.66182

>  <SCORE.INTER.CONST>
1

>  <SCORE.INTER.POLAR>
0

>  <SCORE.INTER.ROT>
5

>  <SCORE.INTER.SOLV>
17.0118

>  <SCORE.INTER.VDW>
-17.7118

>  <SCORE.INTER.norm>
-0.766182

>  <SCORE.INTRA>
-0.463016

>  <SCORE.INTRA.DIHEDRAL>
-0.626595

>  <SCORE.INTRA.DIHEDRAL.0>
3.281

>  <SCORE.INTRA.POLAR>
0

>  <SCORE.INTRA.POLAR.0>
0

>  <SCORE.INTRA.REPUL>
0

>  <SCORE.INTRA.REPUL.0>
0

>  <SCORE.INTRA.SOLV>
-0.359951

>  <SCORE.INTRA.SOLV.lig_0>
-31.9458

>  <SCORE.INTRA.VDW>
0.0302573

>  <SCORE.INTRA.VDW.0>
-0.672612

>  <SCORE.INTRA.norm>
-0.0463016

>  <SCORE.RESTR>
0

>  <SCORE.RESTR.CAVITY>
0

>  <SCORE.RESTR.norm>
0

>  <SCORE.SYSTEM>
0

>  <SCORE.SYSTEM.CONST>
0

>  <SCORE.SYSTEM.DIHEDRAL>
0

>  <SCORE.SYSTEM.SOLV>
0

>  <SCORE.SYSTEM.norm>
0

>  <SCORE.heavy>
10

>  <SCORE.norm>
-0.812484

>  <RMSD>
5.229

$$$$
ligand
 OpenBabel11021811473D
libRbt.so/2013.1/901 2013/11/27
 10  9  0  0  0  0  0  0  0  0999 V2000
   25.7348   15.3845   20.4095 N   0  0  0  0  0  0  0  0  0  0  0  0
   27.1858   15.7057   20.2989 C   0  0  2  0  0  0  0  0  0  0  0  0
   27.6409   15.7210   18.8465 C   0  0  0  0  0  0  0  0  0  0  0  0
   28.2647   16.6674   18.3638 O   0  0  0  0  0  0  0  0  0  0  0  0
   28.0234   14.7288   21.1211 C   0  0  0  0  0  0  0  0  0  0  0  0
   29.5088   14.9782   20.9984 C   0  0  0  0  0  0  0  0  0  0  0  0
   29.9044   16.3020   21.5963 C   0  0  0  0  0  0  0  0  0  0  0  0
   31.4043   16.5146   21.4911 C   0  0  0  0  0  0  0  0  0  0  0  0
   31.8238   17.8256   22.0514 N   0  0  0  0  0  0  0  0  0  0  0  0
   27.4229   14.7569   18.1112 O   0  0  0  0  0  0  0  0  0  0  0  0
  2  1  1  6  0  0  0
  2  3  1  0  0  0  0
  2  5  1  0  0  0  0
  3  4  1  0  0  0  0
  3 10  1  0  0  0  0
  5  6  1  0  0  0  0
  6  7  1  0  0  0  0
  7  8  1  0  0  0  0
  8  9  1  0  0  0  0
M  END
>  <CHROM.1>
128.78318163,177.71114269,65.89339484,178.63273509,178.96681349,28.69341242
15.85721980,20.29149769,2.72204866,-0.46430156,-1.33206433

>  <Name>
ligand

>  <RI>
0

>  <Rbt.Current_Directory>
/home/itssahil/PROJECTS/Mol_Feturizer/New_Systems/rnas/3DIX

>  <Rbt.Executable>
rbdock ($Id: //depot/dev/client3/rdock/2013.1/src/exe/rbdock.cxx#4 $)

>  <Rbt.Library>
libRbt.so (2013.1, Build901 2013/11/27)

>  <Rbt.Parameter_File>
/export/apps/rDock/src/rDock_2013.1_src/data/scripts/dock_solv.prm

>  <Rbt.Receptor>
prm/pocket_docking_8.prm

>  <SCORE>
-8.57006

>  <SCORE.INTER>
-7.35316

>  <SCORE.INTER.CONST>
1

>  <SCORE.INTER.POLAR>
0

>  <SCORE.INTER.ROT>
5

>  <SCORE.INTER.SOLV>
17.1587

>  <SCORE.INTER.VDW>
-17.555

>  <SCORE.INTER.norm>
-0.735316

>  <SCORE.INTRA>
-1.2169

>  <SCORE.INTRA.DIHEDRAL>
-1.63332

>  <SCORE.INTRA.DIHEDRAL.0>
3.281

>  <SCORE.INTRA.POLAR>
0

>  <SCORE.INTRA.POLAR.0>
0

>  <SCORE.INTRA.REPUL>
0

>  <SCORE.INTRA.REPUL.0>
0

>  <SCORE.INTRA.SOLV>
-1.35289

>  <SCORE.INTRA.SOLV.lig_0>
-31.9458

>  <SCORE.INTRA.VDW>
0.276201

>  <SCORE.INTRA.VDW.0>
-0.672612

>  <SCORE.INTRA.norm>
-0.12169

>  <SCORE.RESTR>
0

>  <SCORE.RESTR.CAVITY>
0

>  <SCORE.RESTR.norm>
0

>  <SCORE.SYSTEM>
0

>  <SCORE.SYSTEM.CONST>
0

>  <SCORE.SYSTEM.DIHEDRAL>
0

>  <SCORE.SYSTEM.SOLV>
0

>  <SCORE.SYSTEM.norm>
0

>  <SCORE.heavy>
10

>  <SCORE.norm>
-0.857006

>  <RMSD>
5.229

$$$$
ligand
 OpenBabel11021811473D
libRbt.so/2013.1/901 2013/11/27
 10  9  0  0  0  0  0  0  0  0999 V2000
   25.7765   15.6987   19.8081 N   0  0  0  0  0  0  0  0  0  0  0  0
   27.2490   15.4808   19.8786 C   0  0  2  0  0  0  0  0  0  0  0  0
   27.7417   14.6414   18.7083 C   0  0  0  0  0  0  0  0  0  0  0  0
   26.9901   13.9089   18.0633 O   0  0  0  0  0  0  0  0  0  0  0  0
   27.6414   14.8424   21.2091 C   0  0  0  0  0  0  0  0  0  0  0  0
   29.1247   14.9235   21.4868 C   0  0  0  0  0  0  0  0  0  0  0  0
   29.5679   16.3384   21.7474 C   0  0  0  0  0  0  0  0  0  0  0  0
   31.0731   16.4059   21.9368 C   0  0  0  0  0  0  0  0  0  0  0  0
   31.8082   16.1335   20.6742 N   0  0  0  0  0  0  0  0  0  0  0  0
   28.9184   14.6984   18.3477 O   0  0  0  0  0  0  0  0  0  0  0  0
  2  1  1  1  0  0  0
  2  3  1  0  0  0  0
  2  5  1  0  0  0  0
  3  4  1  0  0  0  0
  3 10  1  0  0  0  0
  5  6  1  0  0  0  0
  6  7  1  0  0  0  0
  7  8  1  0  0  0  0
  8  9  1  0  0  0  0
M  END
>  <CHROM.1>
-21.19149153,-165.17721000,68.66354133,-176.43136979,69.21371805,28.59297534
15.28722534,20.15394388,2.49597526,-0.08987779,-1.95785874

>  <Name>
ligand

>  <RI>
0

>  <Rbt.Current_Directory>
/home/itssahil/PROJECTS/Mol_Feturizer/New_Systems/rnas/3DIX

>  <Rbt.Executable>
rbdock ($Id: //depot/dev/client3/rdock/2013.1/src/exe/rbdock.cxx#4 $)

>  <Rbt.Library>
libRbt.so (2013.1, Build901 2013/11/27)

>  <Rbt.Parameter_File>
/export/apps/rDock/src/rDock_2013.1_src/data/scripts/dock_solv.prm

>  <Rbt.Receptor>
prm/pocket_docking_3.prm

>  <SCORE>
-8.04006

>  <SCORE.INTER>
-7.74104

>  <SCORE.INTER.CONST>
1

>  <SCORE.INTER.POLAR>
0

>  <SCORE.INTER.ROT>
5

>  <SCORE.INTER.SOLV>
17.1049

>  <SCORE.INTER.VDW>
-17.7957

>  <SCORE.INTER.norm>
-0.774104

>  <SCORE.INTRA>
-0.299024

>  <SCORE.INTRA.DIHEDRAL>
-0.249118

>  <SCORE.INTRA.DIHEDRAL.0>
3.281

>  <SCORE.INTRA.POLAR>
0

>  <SCORE.INTRA.POLAR.0>
0

>  <SCORE.INTRA.REPUL>
0

>  <SCORE.INTRA.REPUL.0>
0

>  <SCORE.INTRA.SOLV>
-0.330408

>  <SCORE.INTRA.SOLV.lig_0>
-31.9458

>  <SCORE.INTRA.VDW>
-0.00926127

>  <SCORE.INTRA.VDW.0>
-0.672612

>  <SCORE.INTRA.norm>
-0.0299024

>  <SCORE.RESTR>
0

>  <SCORE.RESTR.CAVITY>
0

>  <SCORE.RESTR.norm>
0

>  <SCORE.SYSTEM>
0

>  <SCORE.SYSTEM.CONST>
0

>  <SCORE.SYSTEM.DIHEDRAL>
0

>  <SCORE.SYSTEM.SOLV>
0

>  <SCORE.SYSTEM.norm>
0

>  <SCORE.heavy>
10

>  <SCORE.norm>
-0.804006

>  <RMSD>
5.231

$$$$
ligand
 OpenBabel11021811473D
libRbt.so/2013.1/901 2013/11/27
 10  9  0  0  0  0  0  0  0  0999 V2000
   29.0159   16.3786   19.7243 N   0  0  0  0  0  0  0  0  0  0  0  0
   27.8134   15.6516   19.2283 C   0  0  2  0  0  0  0  0  0  0  0  0
   26.9170   15.2139   20.3780 C   0  0  0  0  0  0  0  0  0  0  0  0
   27.3689   14.7132   21.4090 O   0  0  0  0  0  0  0  0  0  0  0  0
   28.2168   14.4564   18.3676 C   0  0  0  0  0  0  0  0  0  0  0  0
   27.0325   13.7444   17.7559 C   0  0  0  0  0  0  0  0  0  0  0  0
   27.4061   12.3804   17.2400 C   0  0  0  0  0  0  0  0  0  0  0  0
   26.1653   11.5772   16.8916 C   0  0  0  0  0  0  0  0  0  0  0  0
   26.4737   10.1408   16.6675 N   0  0  0  0  0  0  0  0  0  0  0  0
   25.6978   15.3818   20.3211 O   0  0  0  0  0  0  0  0  0  0  0  0
  2  1  1  1  0  0  0
  2  3  1  0  0  0  0
  2  5  1  0  0  0  0
  3  4  1  0  0  0  0
  3 10  1  0  0  0  0
  5  6  1  0  0  0  0
  6  7  1  0  0  0  0
  7  8  1  0  0  0  0
  8  9  1  0  0  0  0
M  END
>  <CHROM.1>
-43.64078514,-175.77102187,-164.29182903,168.49137777,-167.41701968,27.19154432
13.96441896,18.83064337,-1.36917817,-0.62225628,-2.35287204

>  <Name>
ligand

>  <RI>
0

>  <Rbt.Current_Directory>
/home/itssahil/PROJECTS/Mol_Feturizer/New_Systems/rnas/3DIX

>  <Rbt.Executable>
rbdock ($Id: //depot/dev/client3/rdock/2013.1/src/exe/rbdock.cxx#4 $)

>  <Rbt.Library>
libRbt.so (2013.1, Build901 2013/11/27)

>  <Rbt.Parameter_File>
/export/apps/rDock/src/rDock_2013.1_src/data/scripts/dock_solv.prm

>  <Rbt.Receptor>
prm/pocket_docking_6.prm

>  <SCORE>
-12.6021

>  <SCORE.INTER>
-11.8691

>  <SCORE.INTER.CONST>
1

>  <SCORE.INTER.POLAR>
0

>  <SCORE.INTER.ROT>
5

>  <SCORE.INTER.SOLV>
13.3906

>  <SCORE.INTER.VDW>
-19.3096

>  <SCORE.INTER.norm>
-1.18691

>  <SCORE.INTRA>
-0.733086

>  <SCORE.INTRA.DIHEDRAL>
0.414169

>  <SCORE.INTRA.DIHEDRAL.0>
3.281

>  <SCORE.INTRA.POLAR>
0

>  <SCORE.INTRA.POLAR.0>
0

>  <SCORE.INTRA.REPUL>
0

>  <SCORE.INTRA.REPUL.0>
0

>  <SCORE.INTRA.SOLV>
-1.56426

>  <SCORE.INTRA.SOLV.lig_0>
-31.9458

>  <SCORE.INTRA.VDW>
-0.158039

>  <SCORE.INTRA.VDW.0>
-0.672612

>  <SCORE.INTRA.norm>
-0.0733086

>  <SCORE.RESTR>
0

>  <SCORE.RESTR.CAVITY>
0

>  <SCORE.RESTR.norm>
0

>  <SCORE.SYSTEM>
0

>  <SCORE.SYSTEM.CONST>
0

>  <SCORE.SYSTEM.DIHEDRAL>
0

>  <SCORE.SYSTEM.SOLV>
0

>  <SCORE.SYSTEM.norm>
0

>  <SCORE.heavy>
10

>  <SCORE.norm>
-1.26021

>  <RMSD>
5.232

$$$$
ligand
 OpenBabel11021811473D
libRbt.so/2013.1/901 2013/11/27
 10  9  0  0  0  0  0  0  0  0999 V2000
   28.4299   14.4263   18.7527 N   0  0  0  0  0  0  0  0  0  0  0  0
   27.7332   14.4354   20.0700 C   0  0  2  0  0  0  0  0  0  0  0  0
   26.6047   15.4567   20.0930 C   0  0  0  0  0  0  0  0  0  0  0  0
   26.6984   16.5514   19.5357 O   0  0  0  0  0  0  0  0  0  0  0  0
   28.7211   14.6907   21.2061 C   0  0  0  0  0  0  0  0  0  0  0  0
   29.5506   15.9365   20.9967 C   0  0  0  0  0  0  0  0  0  0  0  0
   30.5923   16.1012   22.0710 C   0  0  0  0  0  0  0  0  0  0  0  0
   31.4699   17.3083   21.7906 C   0  0  0  0  0  0  0  0  0  0  0  0
   32.3050   17.1224   20.5754 N   0  0  0  0  0  0  0  0  0  0  0  0
   25.5371   15.1984   20.6508 O   0  0  0  0  0  0  0  0  0  0  0  0
  2  1  1  6  0  0  0
  2  3  1  0  0  0  0
  2  5  1  0  0  0  0
  3  4  1  0  0  0  0
  3 10  1  0  0  0  0
  5  6  1  0  0  0  0
  6  7  1  0  0  0  0
  7  8  1  0  0  0  0
  8  9  1  0  0  0  0
M  END
>  <CHROM.1>
-37.64593917,53.41358980,-175.24760056,176.33978019,-66.74226050,28.72800562
15.73997732,20.57148243,-2.75049436,0.05988093,0.85533987

>  <Name>
ligand

>  <RI>
0

>  <Rbt.Current_Directory>
/home/itssahil/PROJECTS/Mol_Feturizer/New_Systems/rnas/3DIX

>  <Rbt.Executable>
rbdock ($Id: //depot/dev/client3/rdock/2013.1/src/exe/rbdock.cxx#4 $)

>  <Rbt.Library>
libRbt.so (2013.1, Build901 2013/11/27)

>  <Rbt.Parameter_File>
/export/apps/rDock/src/rDock_2013.1_src/data/scripts/dock_solv.prm

>  <Rbt.Receptor>
prm/pocket_docking_6.prm

>  <SCORE>
-9.14246

>  <SCORE.INTER>
-8.78675

>  <SCORE.INTER.CONST>
1

>  <SCORE.INTER.POLAR>
0

>  <SCORE.INTER.ROT>
5

>  <SCORE.INTER.SOLV>
12.7971

>  <SCORE.INTER.VDW>
-17.0569

>  <SCORE.INTER.norm>
-0.878675

>  <SCORE.INTRA>
-0.355713

>  <SCORE.INTRA.DIHEDRAL>
-1.22563

>  <SCORE.INTRA.DIHEDRAL.0>
3.281

>  <SCORE.INTRA.POLAR>
0

>  <SCORE.INTRA.POLAR.0>
0

>  <SCORE.INTRA.REPUL>
0

>  <SCORE.INTRA.REPUL.0>
0

>  <SCORE.INTRA.SOLV>
0.377739

>  <SCORE.INTRA.SOLV.lig_0>
-31.9458

>  <SCORE.INTRA.VDW>
0.0682309

>  <SCORE.INTRA.VDW.0>
-0.672612

>  <SCORE.INTRA.norm>
-0.0355713

>  <SCORE.RESTR>
0

>  <SCORE.RESTR.CAVITY>
0

>  <SCORE.RESTR.norm>
0

>  <SCORE.SYSTEM>
0

>  <SCORE.SYSTEM.CONST>
0

>  <SCORE.SYSTEM.DIHEDRAL>
0

>  <SCORE.SYSTEM.SOLV>
0

>  <SCORE.SYSTEM.norm>
0

>  <SCORE.heavy>
10

>  <SCORE.norm>
-0.914246

>  <RMSD>
5.235

$$$$
ligand
 OpenBabel11021811473D
libRbt.so/2013.1/901 2013/11/27
 10  9  0  0  0  0  0  0  0  0999 V2000
   27.1311   14.2341   17.8633 N   0  0  0  0  0  0  0  0  0  0  0  0
   27.5438   14.4037   19.2851 C   0  0  2  0  0  0  0  0  0  0  0  0
   26.6102   15.3522   20.0238 C   0  0  0  0  0  0  0  0  0  0  0  0
   25.9792   15.0061   21.0237 O   0  0  0  0  0  0  0  0  0  0  0  0
   28.9908   14.8826   19.3781 C   0  0  0  0  0  0  0  0  0  0  0  0
   29.4866   14.9869   20.8019 C   0  0  0  0  0  0  0  0  0  0  0  0
   30.9367   15.3868   20.8607 C   0  0  0  0  0  0  0  0  0  0  0  0
   31.1106   16.8438   20.4696 C   0  0  0  0  0  0  0  0  0  0  0  0
   30.5101   17.7662   21.4681 N   0  0  0  0  0  0  0  0  0  0  0  0
   26.4839   16.5209   19.6549 O   0  0  0  0  0  0  0  0  0  0  0  0
  2  1  1  6  0  0  0
  2  3  1  0  0  0  0
  2  5  1  0  0  0  0
  3  4  1  0  0  0  0
  3 10  1  0  0  0  0
  5  6  1  0  0  0  0
  6  7  1  0  0  0  0
  7  8  1  0  0  0  0
  8  9  1  0  0  0  0
M  END
>  <CHROM.1>
121.05280113,-176.37124483,176.82980190,71.82948957,67.48269851,28.44875678
15.55525124,20.09674360,-2.67848564,-0.00318124,0.72835536

>  <Name>
ligand

>  <RI>
0

>  <Rbt.Current_Directory>
/home/itssahil/PROJECTS/Mol_Feturizer/New_Systems/rnas/3DIX

>  <Rbt.Executable>
rbdock ($Id: //depot/dev/client3/rdock/2013.1/src/exe/rbdock.cxx#4 $)

>  <Rbt.Library>
libRbt.so (2013.1, Build901 2013/11/27)

>  <Rbt.Parameter_File>
/export/apps/rDock/src/rDock_2013.1_src/data/scripts/dock_solv.prm

>  <Rbt.Receptor>
prm/pocket_docking_6.prm

>  <SCORE>
-7.40336

>  <SCORE.INTER>
-7.34599

>  <SCORE.INTER.CONST>
1

>  <SCORE.INTER.POLAR>
0

>  <SCORE.INTER.ROT>
5

>  <SCORE.INTER.SOLV>
16.1304

>  <SCORE.INTER.VDW>
-17.2075

>  <SCORE.INTER.norm>
-0.734599

>  <SCORE.INTRA>
-0.0573719

>  <SCORE.INTRA.DIHEDRAL>
-0.923933

>  <SCORE.INTRA.DIHEDRAL.0>
3.281

>  <SCORE.INTRA.POLAR>
0

>  <SCORE.INTRA.POLAR.0>
0

>  <SCORE.INTRA.REPUL>
0

>  <SCORE.INTRA.REPUL.0>
0

>  <SCORE.INTRA.SOLV>
-0.272323

>  <SCORE.INTRA.SOLV.lig_0>
-31.9458

>  <SCORE.INTRA.VDW>
0.540756

>  <SCORE.INTRA.VDW.0>
-0.672612

>  <SCORE.INTRA.norm>
-0.00573719

>  <SCORE.RESTR>
0

>  <SCORE.RESTR.CAVITY>
0

>  <SCORE.RESTR.norm>
0

>  <SCORE.SYSTEM>
0

>  <SCORE.SYSTEM.CONST>
0

>  <SCORE.SYSTEM.DIHEDRAL>
0

>  <SCORE.SYSTEM.SOLV>
0

>  <SCORE.SYSTEM.norm>
0

>  <SCORE.heavy>
10

>  <SCORE.norm>
-0.740336

>  <RMSD>
5.242

$$$$
ligand
 OpenBabel11021811473D
libRbt.so/2013.1/901 2013/11/27
 10  9  0  0  0  0  0  0  0  0999 V2000
   28.2466   15.1403   18.6461 N   0  0  0  0  0  0  0  0  0  0  0  0
   27.8114   14.5407   19.9391 C   0  0  2  0  0  0  0  0  0  0  0  0
   26.4579   15.0843   20.3744 C   0  0  0  0  0  0  0  0  0  0  0  0
   25.9364   14.7676   21.4446 O   0  0  0  0  0  0  0  0  0  0  0  0
   28.8623   14.7654   21.0240 C   0  0  0  0  0  0  0  0  0  0  0  0
   29.0101   16.2194   21.4089 C   0  0  0  0  0  0  0  0  0  0  0  0
   29.7131   17.0118   20.3394 C   0  0  0  0  0  0  0  0  0  0  0  0
   31.2005   16.7061   20.3316 C   0  0  0  0  0  0  0  0  0  0  0  0
   31.8659   17.1338   21.5897 N   0  0  0  0  0  0  0  0  0  0  0  0
   25.8526   15.8949   19.6713 O   0  0  0  0  0  0  0  0  0  0  0  0
  2  1  1  6  0  0  0
  2  3  1  0  0  0  0
  2  5  1  0  0  0  0
  3  4  1  0  0  0  0
  3 10  1  0  0  0  0
  5  6  1  0  0  0  0
  6  7  1  0  0  0  0
  7  8  1  0  0  0  0
  8  9  1  0  0  0  0
M  END
>  <CHROM.1>
-176.74857750,67.19013044,-72.95706519,-74.56608923,-64.38158685,28.45651783
15.73290334,20.48458555,-3.00965984,0.34868810,1.55331371

>  <Name>
ligand

>  <RI>
0

>  <Rbt.Current_Directory>
/home/itssahil/PROJECTS/Mol_Feturizer/New_Systems/rnas/3DIX

>  <Rbt.Executable>
rbdock ($Id: //depot/dev/client3/rdock/2013.1/src/exe/rbdock.cxx#4 $)

>  <Rbt.Library>
libRbt.so (2013.1, Build901 2013/11/27)

>  <Rbt.Parameter_File>
/export/apps/rDock/src/rDock_2013.1_src/data/scripts/dock_solv.prm

>  <Rbt.Receptor>
prm/pocket_docking_8.prm

>  <SCORE>
-7.3157

>  <SCORE.INTER>
-9.74796

>  <SCORE.INTER.CONST>
1

>  <SCORE.INTER.POLAR>
0

>  <SCORE.INTER.ROT>
5

>  <SCORE.INTER.SOLV>
9.9604

>  <SCORE.INTER.VDW>
-16.7521

>  <SCORE.INTER.norm>
-0.974796

>  <SCORE.INTRA>
2.43226

>  <SCORE.INTRA.DIHEDRAL>
0.00136289

>  <SCORE.INTRA.DIHEDRAL.0>
3.281

>  <SCORE.INTRA.POLAR>
0

>  <SCORE.INTRA.POLAR.0>
0

>  <SCORE.INTRA.REPUL>
0

>  <SCORE.INTRA.REPUL.0>
0

>  <SCORE.INTRA.SOLV>
2.41008

>  <SCORE.INTRA.SOLV.lig_0>
-31.9458

>  <SCORE.INTRA.VDW>
1.22653

>  <SCORE.INTRA.VDW.0>
-0.672612

>  <SCORE.INTRA.norm>
0.243226

>  <SCORE.RESTR>
0

>  <SCORE.RESTR.CAVITY>
0

>  <SCORE.RESTR.norm>
0

>  <SCORE.SYSTEM>
0

>  <SCORE.SYSTEM.CONST>
0

>  <SCORE.SYSTEM.DIHEDRAL>
0

>  <SCORE.SYSTEM.SOLV>
0

>  <SCORE.SYSTEM.norm>
0

>  <SCORE.heavy>
10

>  <SCORE.norm>
-0.73157

>  <RMSD>
5.244

$$$$
ligand
 OpenBabel11021811473D
libRbt.so/2013.1/901 2013/11/27
 10  9  0  0  0  0  0  0  0  0999 V2000
   27.0121   14.0564   18.5845 N   0  0  0  0  0  0  0  0  0  0  0  0
   27.6430   14.9165   19.6252 C   0  0  2  0  0  0  0  0  0  0  0  0
   26.7440   15.0599   20.8451 C   0  0  0  0  0  0  0  0  0  0  0  0
   27.1966   15.2402   21.9767 O   0  0  0  0  0  0  0  0  0  0  0  0
   28.0060   16.2850   19.0531 C   0  0  0  0  0  0  0  0  0  0  0  0
   28.8990   17.0887   19.9699 C   0  0  0  0  0  0  0  0  0  0  0  0
   30.2637   16.4681   20.1057 C   0  0  0  0  0  0  0  0  0  0  0  0
   31.1367   17.2847   21.0422 C   0  0  0  0  0  0  0  0  0  0  0  0
   30.6122   17.2907   22.4327 N   0  0  0  0  0  0  0  0  0  0  0  0
   25.5180   15.0323   20.7269 O   0  0  0  0  0  0  0  0  0  0  0  0
  2  1  1  6  0  0  0
  2  3  1  0  0  0  0
  2  5  1  0  0  0  0
  3  4  1  0  0  0  0
  3 10  1  0  0  0  0
  5  6  1  0  0  0  0
  6  7  1  0  0  0  0
  7  8  1  0  0  0  0
  8  9  1  0  0  0  0
M  END
>  <CHROM.1>
150.71437509,-168.06344885,67.12412674,-179.39723450,64.65064153,28.27556780
15.87015726,20.46171135,-2.82529864,0.47836357,1.39551192

>  <Name>
ligand

>  <RI>
0

>  <Rbt.Current_Directory>
/home/itssahil/PROJECTS/Mol_Feturizer/New_Systems/rnas/3DIX

>  <Rbt.Executable>
rbdock ($Id: //depot/dev/client3/rdock/2013.1/src/exe/rbdock.cxx#4 $)

>  <Rbt.Library>
libRbt.so (2013.1, Build901 2013/11/27)

>  <Rbt.Parameter_File>
/export/apps/rDock/src/rDock_2013.1_src/data/scripts/dock_solv.prm

>  <Rbt.Receptor>
prm/pocket_docking_6.prm

>  <SCORE>
-9.16583

>  <SCORE.INTER>
-8.54769

>  <SCORE.INTER.CONST>
1

>  <SCORE.INTER.POLAR>
0

>  <SCORE.INTER.ROT>
5

>  <SCORE.INTER.SOLV>
15.0437

>  <SCORE.INTER.VDW>
-17.6464

>  <SCORE.INTER.norm>
-0.854769

>  <SCORE.INTRA>
-0.618139

>  <SCORE.INTRA.DIHEDRAL>
-1.04181

>  <SCORE.INTRA.DIHEDRAL.0>
3.281

>  <SCORE.INTRA.POLAR>
0

>  <SCORE.INTRA.POLAR.0>
0

>  <SCORE.INTRA.REPUL>
0

>  <SCORE.INTRA.REPUL.0>
0

>  <SCORE.INTRA.SOLV>
-0.315331

>  <SCORE.INTRA.SOLV.lig_0>
-31.9458

>  <SCORE.INTRA.VDW>
0.0604329

>  <SCORE.INTRA.VDW.0>
-0.672612

>  <SCORE.INTRA.norm>
-0.0618139

>  <SCORE.RESTR>
0

>  <SCORE.RESTR.CAVITY>
0

>  <SCORE.RESTR.norm>
0

>  <SCORE.SYSTEM>
0

>  <SCORE.SYSTEM.CONST>
0

>  <SCORE.SYSTEM.DIHEDRAL>
0

>  <SCORE.SYSTEM.SOLV>
0

>  <SCORE.SYSTEM.norm>
0

>  <SCORE.heavy>
10

>  <SCORE.norm>
-0.916583

>  <RMSD>
5.245

$$$$
ligand
 OpenBabel11021811473D
libRbt.so/2013.1/901 2013/11/27
 10  9  0  0  0  0  0  0  0  0999 V2000
   26.9965   14.0901   18.5925 N   0  0  0  0  0  0  0  0  0  0  0  0
   27.6417   14.9275   19.6428 C   0  0  2  0  0  0  0  0  0  0  0  0
   26.7532   15.0568   20.8719 C   0  0  0  0  0  0  0  0  0  0  0  0
   25.5265   14.9627   20.8081 O   0  0  0  0  0  0  0  0  0  0  0  0
   28.0109   16.3028   19.0914 C   0  0  0  0  0  0  0  0  0  0  0  0
   28.9232   17.0809   20.0112 C   0  0  0  0  0  0  0  0  0  0  0  0
   30.2837   16.4454   20.1174 C   0  0  0  0  0  0  0  0  0  0  0  0
   31.1947   17.2676   21.0118 C   0  0  0  0  0  0  0  0  0  0  0  0
   30.6979   17.3285   22.4111 N   0  0  0  0  0  0  0  0  0  0  0  0
   27.2474   15.2288   21.9872 O   0  0  0  0  0  0  0  0  0  0  0  0
  2  1  1  6  0  0  0
  2  3  1  0  0  0  0
  2  5  1  0  0  0  0
  3  4  1  0  0  0  0
  3 10  1  0  0  0  0
  5  6  1  0  0  0  0
  6  7  1  0  0  0  0
  7  8  1  0  0  0  0
  8  9  1  0  0  0  0
M  END
>  <CHROM.1>
-26.60856705,-167.73638436,67.16053198,178.24618038,63.48996702,28.30055005
15.86585037,20.48072233,-2.84441564,0.48071573,1.40654598

>  <Name>
ligand

>  <RI>
0

>  <Rbt.Current_Directory>
/home/itssahil/PROJECTS/Mol_Feturizer/New_Systems/rnas/3DIX

>  <Rbt.Executable>
rbdock ($Id: //depot/dev/client3/rdock/2013.1/src/exe/rbdock.cxx#4 $)

>  <Rbt.Library>
libRbt.so (2013.1, Build901 2013/11/27)

>  <Rbt.Parameter_File>
/export/apps/rDock/src/rDock_2013.1_src/data/scripts/dock_solv.prm

>  <Rbt.Receptor>
prm/pocket_docking_4.prm

>  <SCORE>
-9.05281

>  <SCORE.INTER>
-8.53078

>  <SCORE.INTER.CONST>
1

>  <SCORE.INTER.POLAR>
0

>  <SCORE.INTER.ROT>
5

>  <SCORE.INTER.SOLV>
14.9198

>  <SCORE.INTER.VDW>
-17.5938

>  <SCORE.INTER.norm>
-0.853078

>  <SCORE.INTRA>
-0.522029

>  <SCORE.INTRA.DIHEDRAL>
-0.898804

>  <SCORE.INTRA.DIHEDRAL.0>
3.281

>  <SCORE.INTRA.POLAR>
0

>  <SCORE.INTRA.POLAR.0>
0

>  <SCORE.INTRA.REPUL>
0

>  <SCORE.INTRA.REPUL.0>
0

>  <SCORE.INTRA.SOLV>
-0.309679

>  <SCORE.INTRA.SOLV.lig_0>
-31.9458

>  <SCORE.INTRA.VDW>
0.0822125

>  <SCORE.INTRA.VDW.0>
-0.672612

>  <SCORE.INTRA.norm>
-0.0522029

>  <SCORE.RESTR>
0

>  <SCORE.RESTR.CAVITY>
0

>  <SCORE.RESTR.norm>
0

>  <SCORE.SYSTEM>
0

>  <SCORE.SYSTEM.CONST>
0

>  <SCORE.SYSTEM.DIHEDRAL>
0

>  <SCORE.SYSTEM.SOLV>
0

>  <SCORE.SYSTEM.norm>
0

>  <SCORE.heavy>
10

>  <SCORE.norm>
-0.905281

>  <RMSD>
5.246

$$$$
ligand
 OpenBabel11021811473D
libRbt.so/2013.1/901 2013/11/27
 10  9  0  0  0  0  0  0  0  0999 V2000
   26.9971   14.0632   18.5800 N   0  0  0  0  0  0  0  0  0  0  0  0
   27.6352   14.9163   19.6220 C   0  0  2  0  0  0  0  0  0  0  0  0
   26.7316   15.0769   20.8365 C   0  0  0  0  0  0  0  0  0  0  0  0
   25.5046   15.0014   20.7565 O   0  0  0  0  0  0  0  0  0  0  0  0
   28.0225   16.2775   19.0485 C   0  0  0  0  0  0  0  0  0  0  0  0
   28.9313   17.0654   19.9635 C   0  0  0  0  0  0  0  0  0  0  0  0
   30.2711   16.3994   20.1292 C   0  0  0  0  0  0  0  0  0  0  0  0
   31.1793   17.2290   21.0196 C   0  0  0  0  0  0  0  0  0  0  0  0
   30.6751   17.3063   22.4155 N   0  0  0  0  0  0  0  0  0  0  0  0
   27.2128   15.2567   21.9562 O   0  0  0  0  0  0  0  0  0  0  0  0
  2  1  1  6  0  0  0
  2  3  1  0  0  0  0
  2  5  1  0  0  0  0
  3  4  1  0  0  0  0
  3 10  1  0  0  0  0
  5  6  1  0  0  0  0
  6  7  1  0  0  0  0
  7  8  1  0  0  0  0
  8  9  1  0  0  0  0
M  END
>  <CHROM.1>
-27.18704092,-167.61278255,65.49342086,178.36989968,65.79238487,28.28867746
15.85676216,20.45858009,-2.82782661,0.46661001,1.38950202

>  <Name>
ligand

>  <RI>
0

>  <Rbt.Current_Directory>
/home/itssahil/PROJECTS/Mol_Feturizer/New_Systems/rnas/3DIX

>  <Rbt.Executable>
rbdock ($Id: //depot/dev/client3/rdock/2013.1/src/exe/rbdock.cxx#4 $)

>  <Rbt.Library>
libRbt.so (2013.1, Build901 2013/11/27)

>  <Rbt.Parameter_File>
/export/apps/rDock/src/rDock_2013.1_src/data/scripts/dock_solv.prm

>  <Rbt.Receptor>
prm/pocket_docking_6.prm

>  <SCORE>
-9.07239

>  <SCORE.INTER>
-8.54143

>  <SCORE.INTER.CONST>
1

>  <SCORE.INTER.POLAR>
0

>  <SCORE.INTER.ROT>
5

>  <SCORE.INTER.SOLV>
14.9328

>  <SCORE.INTER.VDW>
-17.6052

>  <SCORE.INTER.norm>
-0.854143

>  <SCORE.INTRA>
-0.53096

>  <SCORE.INTRA.DIHEDRAL>
-0.896186

>  <SCORE.INTRA.DIHEDRAL.0>
3.281

>  <SCORE.INTRA.POLAR>
0

>  <SCORE.INTRA.POLAR.0>
0

>  <SCORE.INTRA.REPUL>
0

>  <SCORE.INTRA.REPUL.0>
0

>  <SCORE.INTRA.SOLV>
-0.332218

>  <SCORE.INTRA.SOLV.lig_0>
-31.9458

>  <SCORE.INTRA.VDW>
0.0832419

>  <SCORE.INTRA.VDW.0>
-0.672612

>  <SCORE.INTRA.norm>
-0.053096

>  <SCORE.RESTR>
0

>  <SCORE.RESTR.CAVITY>
0

>  <SCORE.RESTR.norm>
0

>  <SCORE.SYSTEM>
0

>  <SCORE.SYSTEM.CONST>
0

>  <SCORE.SYSTEM.DIHEDRAL>
0

>  <SCORE.SYSTEM.SOLV>
0

>  <SCORE.SYSTEM.norm>
0

>  <SCORE.heavy>
10

>  <SCORE.norm>
-0.907239

>  <RMSD>
5.250

$$$$
ligand
 OpenBabel11021811473D
libRbt.so/2013.1/901 2013/11/27
 10  9  0  0  0  0  0  0  0  0999 V2000
   27.9277   14.4182   18.1664 N   0  0  0  0  0  0  0  0  0  0  0  0
   27.9641   14.5399   19.6511 C   0  0  2  0  0  0  0  0  0  0  0  0
   26.7625   15.3150   20.1732 C   0  0  0  0  0  0  0  0  0  0  0  0
   26.0981   14.9265   21.1352 O   0  0  0  0  0  0  0  0  0  0  0  0
   29.2693   15.1844   20.1123 C   0  0  0  0  0  0  0  0  0  0  0  0
   29.3896   15.2603   21.6169 C   0  0  0  0  0  0  0  0  0  0  0  0
   30.7146   15.8336   22.0433 C   0  0  0  0  0  0  0  0  0  0  0  0
   30.8057   17.3062   21.6841 C   0  0  0  0  0  0  0  0  0  0  0  0
   32.1246   17.8890   22.0438 N   0  0  0  0  0  0  0  0  0  0  0  0
   26.4369   16.3866   19.6600 O   0  0  0  0  0  0  0  0  0  0  0  0
  2  1  1  6  0  0  0
  2  3  1  0  0  0  0
  2  5  1  0  0  0  0
  3  4  1  0  0  0  0
  3 10  1  0  0  0  0
  5  6  1  0  0  0  0
  6  7  1  0  0  0  0
  7  8  1  0  0  0  0
  8  9  1  0  0  0  0
M  END
>  <CHROM.1>
133.75498753,-176.77667771,177.03571086,68.80558239,-177.72717490,28.71354252
15.71838868,20.63580220,-2.56917270,0.09645532,0.99000456

>  <Name>
ligand

>  <RI>
0

>  <Rbt.Current_Directory>
/home/itssahil/PROJECTS/Mol_Feturizer/New_Systems/rnas/3DIX

>  <Rbt.Executable>
rbdock ($Id: //depot/dev/client3/rdock/2013.1/src/exe/rbdock.cxx#4 $)

>  <Rbt.Library>
libRbt.so (2013.1, Build901 2013/11/27)

>  <Rbt.Parameter_File>
/export/apps/rDock/src/rDock_2013.1_src/data/scripts/dock_solv.prm

>  <Rbt.Receptor>
prm/pocket_docking_7.prm

>  <SCORE>
-9.48205

>  <SCORE.INTER>
-8.72344

>  <SCORE.INTER.CONST>
1

>  <SCORE.INTER.POLAR>
0

>  <SCORE.INTER.ROT>
5

>  <SCORE.INTER.SOLV>
13.3755

>  <SCORE.INTER.VDW>
-17.2075

>  <SCORE.INTER.norm>
-0.872344

>  <SCORE.INTRA>
-0.758609

>  <SCORE.INTRA.DIHEDRAL>
-1.42041

>  <SCORE.INTRA.DIHEDRAL.0>
3.281

>  <SCORE.INTRA.POLAR>
0

>  <SCORE.INTRA.POLAR.0>
0

>  <SCORE.INTRA.REPUL>
0

>  <SCORE.INTRA.REPUL.0>
0

>  <SCORE.INTRA.SOLV>
-1.31116

>  <SCORE.INTRA.SOLV.lig_0>
-31.9458

>  <SCORE.INTRA.VDW>
0.607176

>  <SCORE.INTRA.VDW.0>
-0.672612

>  <SCORE.INTRA.norm>
-0.0758609

>  <SCORE.RESTR>
0

>  <SCORE.RESTR.CAVITY>
0

>  <SCORE.RESTR.norm>
0

>  <SCORE.SYSTEM>
0

>  <SCORE.SYSTEM.CONST>
0

>  <SCORE.SYSTEM.DIHEDRAL>
0

>  <SCORE.SYSTEM.SOLV>
0

>  <SCORE.SYSTEM.norm>
0

>  <SCORE.heavy>
10

>  <SCORE.norm>
-0.948205

>  <RMSD>
5.253

$$$$
ligand
 OpenBabel11021811473D
libRbt.so/2013.1/901 2013/11/27
 10  9  0  0  0  0  0  0  0  0999 V2000
   28.4056   16.9776   20.0430 N   0  0  0  0  0  0  0  0  0  0  0  0
   28.4598   15.5151   20.3238 C   0  0  2  0  0  0  0  0  0  0  0  0
   27.0862   14.8733   20.1877 C   0  0  0  0  0  0  0  0  0  0  0  0
   26.7902   14.1519   19.2340 O   0  0  0  0  0  0  0  0  0  0  0  0
   29.0502   15.2482   21.7066 C   0  0  0  0  0  0  0  0  0  0  0  0
   30.5191   15.5918   21.7964 C   0  0  0  0  0  0  0  0  0  0  0  0
   30.7474   17.0796   21.7724 C   0  0  0  0  0  0  0  0  0  0  0  0
   32.2323   17.3976   21.7795 C   0  0  0  0  0  0  0  0  0  0  0  0
   32.9103   16.9292   20.5428 N   0  0  0  0  0  0  0  0  0  0  0  0
   26.2303   15.0341   21.0591 O   0  0  0  0  0  0  0  0  0  0  0  0
  2  1  1  1  0  0  0
  2  3  1  0  0  0  0
  2  5  1  0  0  0  0
  3  4  1  0  0  0  0
  3 10  1  0  0  0  0
  5  6  1  0  0  0  0
  6  7  1  0  0  0  0
  7  8  1  0  0  0  0
  8  9  1  0  0  0  0
M  END
>  <CHROM.1>
106.66792278,-68.49314801,71.36999735,-176.60060502,65.24580703,29.20274519
15.86054911,20.83826957,-2.93999008,0.40239082,1.59593912

>  <Name>
ligand

>  <RI>
0

>  <Rbt.Current_Directory>
/home/itssahil/PROJECTS/Mol_Feturizer/New_Systems/rnas/3DIX

>  <Rbt.Executable>
rbdock ($Id: //depot/dev/client3/rdock/2013.1/src/exe/rbdock.cxx#4 $)

>  <Rbt.Library>
libRbt.so (2013.1, Build901 2013/11/27)

>  <Rbt.Parameter_File>
/export/apps/rDock/src/rDock_2013.1_src/data/scripts/dock_solv.prm

>  <Rbt.Receptor>
prm/blind_docking_100.prm

>  <SCORE>
-7.09259

>  <SCORE.INTER>
-8.05792

>  <SCORE.INTER.CONST>
1

>  <SCORE.INTER.POLAR>
0

>  <SCORE.INTER.ROT>
5

>  <SCORE.INTER.SOLV>
14.4108

>  <SCORE.INTER.VDW>
-17.1089

>  <SCORE.INTER.norm>
-0.805792

>  <SCORE.INTRA>
0.965334

>  <SCORE.INTRA.DIHEDRAL>
-0.765751

>  <SCORE.INTRA.DIHEDRAL.0>
3.281

>  <SCORE.INTRA.POLAR>
0

>  <SCORE.INTRA.POLAR.0>
0

>  <SCORE.INTRA.REPUL>
0

>  <SCORE.INTRA.REPUL.0>
0

>  <SCORE.INTRA.SOLV>
1.64816

>  <SCORE.INTRA.SOLV.lig_0>
-31.9458

>  <SCORE.INTRA.VDW>
0.52413

>  <SCORE.INTRA.VDW.0>
-0.672612

>  <SCORE.INTRA.norm>
0.0965334

>  <SCORE.RESTR>
0

>  <SCORE.RESTR.CAVITY>
0

>  <SCORE.RESTR.norm>
0

>  <SCORE.SYSTEM>
0

>  <SCORE.SYSTEM.CONST>
0

>  <SCORE.SYSTEM.DIHEDRAL>
0

>  <SCORE.SYSTEM.SOLV>
0

>  <SCORE.SYSTEM.norm>
0

>  <SCORE.heavy>
10

>  <SCORE.norm>
-0.709259

>  <RMSD>
5.254

$$$$
ligand
 OpenBabel11021811473D
libRbt.so/2013.1/901 2013/11/27
 10  9  0  0  0  0  0  0  0  0999 V2000
   27.1994   15.6397   19.0020 N   0  0  0  0  0  0  0  0  0  0  0  0
   28.3192   15.3923   19.9536 C   0  0  2  0  0  0  0  0  0  0  0  0
   27.8144   14.7976   21.2608 C   0  0  0  0  0  0  0  0  0  0  0  0
   28.5521   14.1770   22.0279 O   0  0  0  0  0  0  0  0  0  0  0  0
   29.1098   16.6736   20.2084 C   0  0  0  0  0  0  0  0  0  0  0  0
   30.3947   16.4322   20.9664 C   0  0  0  0  0  0  0  0  0  0  0  0
   31.1078   17.7200   21.2817 C   0  0  0  0  0  0  0  0  0  0  0  0
   32.4754   17.4461   21.8822 C   0  0  0  0  0  0  0  0  0  0  0  0
   33.2071   18.6996   22.2016 N   0  0  0  0  0  0  0  0  0  0  0  0
   26.6426   14.9522   21.6083 O   0  0  0  0  0  0  0  0  0  0  0  0
  2  1  1  6  0  0  0
  2  3  1  0  0  0  0
  2  5  1  0  0  0  0
  3  4  1  0  0  0  0
  3 10  1  0  0  0  0
  5  6  1  0  0  0  0
  6  7  1  0  0  0  0
  7  8  1  0  0  0  0
  8  9  1  0  0  0  0
M  END
>  <CHROM.1>
159.29161864,-169.79043645,-176.27615563,-172.73379176,179.85117462,29.46147578
16.17288787,21.06576740,3.01960258,0.55790314,2.14298769

>  <Name>
ligand

>  <RI>
0

>  <Rbt.Current_Directory>
/home/itssahil/PROJECTS/Mol_Feturizer/New_Systems/rnas/3DIX

>  <Rbt.Executable>
rbdock ($Id: //depot/dev/client3/rdock/2013.1/src/exe/rbdock.cxx#4 $)

>  <Rbt.Library>
libRbt.so (2013.1, Build901 2013/11/27)

>  <Rbt.Parameter_File>
/export/apps/rDock/src/rDock_2013.1_src/data/scripts/dock_solv.prm

>  <Rbt.Receptor>
prm/pocket_docking_5.prm

>  <SCORE>
-7.80104

>  <SCORE.INTER>
-6.34443

>  <SCORE.INTER.CONST>
1

>  <SCORE.INTER.POLAR>
0

>  <SCORE.INTER.ROT>
5

>  <SCORE.INTER.SOLV>
14.7465

>  <SCORE.INTER.VDW>
-16.0785

>  <SCORE.INTER.norm>
-0.634443

>  <SCORE.INTRA>
-1.45661

>  <SCORE.INTRA.DIHEDRAL>
-1.19299

>  <SCORE.INTRA.DIHEDRAL.0>
3.281

>  <SCORE.INTRA.POLAR>
0

>  <SCORE.INTRA.POLAR.0>
0

>  <SCORE.INTRA.REPUL>
0

>  <SCORE.INTRA.REPUL.0>
0

>  <SCORE.INTRA.SOLV>
-1.55828

>  <SCORE.INTRA.SOLV.lig_0>
-31.9458

>  <SCORE.INTRA.VDW>
-0.0809732

>  <SCORE.INTRA.VDW.0>
-0.672612

>  <SCORE.INTRA.norm>
-0.145661

>  <SCORE.RESTR>
0

>  <SCORE.RESTR.CAVITY>
0

>  <SCORE.RESTR.norm>
0

>  <SCORE.SYSTEM>
0

>  <SCORE.SYSTEM.CONST>
0

>  <SCORE.SYSTEM.DIHEDRAL>
0

>  <SCORE.SYSTEM.SOLV>
0

>  <SCORE.SYSTEM.norm>
0

>  <SCORE.heavy>
10

>  <SCORE.norm>
-0.780104

>  <RMSD>
5.254

$$$$
ligand
 OpenBabel11021811473D
libRbt.so/2013.1/901 2013/11/27
 10  9  0  0  0  0  0  0  0  0999 V2000
   27.9286   14.4959   18.1236 N   0  0  0  0  0  0  0  0  0  0  0  0
   27.9581   14.5533   19.6124 C   0  0  2  0  0  0  0  0  0  0  0  0
   26.7587   15.3127   20.1617 C   0  0  0  0  0  0  0  0  0  0  0  0
   26.3201   16.3282   19.6194 O   0  0  0  0  0  0  0  0  0  0  0  0
   29.2649   15.1691   20.1073 C   0  0  0  0  0  0  0  0  0  0  0  0
   29.3502   15.2378   21.6146 C   0  0  0  0  0  0  0  0  0  0  0  0
   30.6668   15.8046   22.0745 C   0  0  0  0  0  0  0  0  0  0  0  0
   30.7728   17.2776   21.7208 C   0  0  0  0  0  0  0  0  0  0  0  0
   32.1123   17.8349   22.0426 N   0  0  0  0  0  0  0  0  0  0  0  0
   26.1639   14.9065   21.1612 O   0  0  0  0  0  0  0  0  0  0  0  0
  2  1  1  6  0  0  0
  2  3  1  0  0  0  0
  2  5  1  0  0  0  0
  3  4  1  0  0  0  0
  3 10  1  0  0  0  0
  5  6  1  0  0  0  0
  6  7  1  0  0  0  0
  7  8  1  0  0  0  0
  8  9  1  0  0  0  0
M  END
>  <CHROM.1>
-39.38580213,-179.44468701,178.03249343,68.64763615,-174.45138378,28.69339146
15.70340486,20.63125535,-2.57397717,0.12847303,1.06783695

>  <Name>
ligand

>  <RI>
0

>  <Rbt.Current_Directory>
/home/itssahil/PROJECTS/Mol_Feturizer/New_Systems/rnas/3DIX

>  <Rbt.Executable>
rbdock ($Id: //depot/dev/client3/rdock/2013.1/src/exe/rbdock.cxx#4 $)

>  <Rbt.Library>
libRbt.so (2013.1, Build901 2013/11/27)

>  <Rbt.Parameter_File>
/export/apps/rDock/src/rDock_2013.1_src/data/scripts/dock_solv.prm

>  <Rbt.Receptor>
prm/pocket_docking_6.prm

>  <SCORE>
-9.31427

>  <SCORE.INTER>
-8.70726

>  <SCORE.INTER.CONST>
1

>  <SCORE.INTER.POLAR>
0

>  <SCORE.INTER.ROT>
5

>  <SCORE.INTER.SOLV>
13.1956

>  <SCORE.INTER.VDW>
-17.1367

>  <SCORE.INTER.norm>
-0.870726

>  <SCORE.INTRA>
-0.607016

>  <SCORE.INTRA.DIHEDRAL>
-1.29235

>  <SCORE.INTRA.DIHEDRAL.0>
3.281

>  <SCORE.INTRA.POLAR>
0

>  <SCORE.INTRA.POLAR.0>
0

>  <SCORE.INTRA.REPUL>
0

>  <SCORE.INTRA.REPUL.0>
0

>  <SCORE.INTRA.SOLV>
-1.2814

>  <SCORE.INTRA.SOLV.lig_0>
-31.9458

>  <SCORE.INTRA.VDW>
0.679863

>  <SCORE.INTRA.VDW.0>
-0.672612

>  <SCORE.INTRA.norm>
-0.0607016

>  <SCORE.RESTR>
0

>  <SCORE.RESTR.CAVITY>
0

>  <SCORE.RESTR.norm>
0

>  <SCORE.SYSTEM>
0

>  <SCORE.SYSTEM.CONST>
0

>  <SCORE.SYSTEM.DIHEDRAL>
0

>  <SCORE.SYSTEM.SOLV>
0

>  <SCORE.SYSTEM.norm>
0

>  <SCORE.heavy>
10

>  <SCORE.norm>
-0.931427

>  <RMSD>
5.254

$$$$
ligand
 OpenBabel11021811473D
libRbt.so/2013.1/901 2013/11/27
 10  9  0  0  0  0  0  0  0  0999 V2000
   28.6651   14.9303   18.9076 N   0  0  0  0  0  0  0  0  0  0  0  0
   27.8194   14.4983   20.0561 C   0  0  2  0  0  0  0  0  0  0  0  0
   26.6084   15.4050   20.2246 C   0  0  0  0  0  0  0  0  0  0  0  0
   26.5241   16.4988   19.6641 O   0  0  0  0  0  0  0  0  0  0  0  0
   28.6387   14.4401   21.3434 C   0  0  0  0  0  0  0  0  0  0  0  0
   29.1560   15.7932   21.7741 C   0  0  0  0  0  0  0  0  0  0  0  0
   30.4988   16.0976   21.1655 C   0  0  0  0  0  0  0  0  0  0  0  0
   31.0958   17.3530   21.7768 C   0  0  0  0  0  0  0  0  0  0  0  0
   32.4937   17.5831   21.3280 N   0  0  0  0  0  0  0  0  0  0  0  0
   25.6495   15.0487   20.9111 O   0  0  0  0  0  0  0  0  0  0  0  0
  2  1  1  6  0  0  0
  2  3  1  0  0  0  0
  2  5  1  0  0  0  0
  3  4  1  0  0  0  0
  3 10  1  0  0  0  0
  5  6  1  0  0  0  0
  6  7  1  0  0  0  0
  7  8  1  0  0  0  0
  8  9  1  0  0  0  0
M  END
>  <CHROM.1>
-14.42310493,64.30932696,-89.01967787,-171.12098536,172.56349187,28.67744641
15.77911422,20.71506182,-2.73559892,-0.09554146,0.38568885

>  <Name>
ligand

>  <RI>
0

>  <Rbt.Current_Directory>
/home/itssahil/PROJECTS/Mol_Feturizer/New_Systems/rnas/3DIX

>  <Rbt.Executable>
rbdock ($Id: //depot/dev/client3/rdock/2013.1/src/exe/rbdock.cxx#4 $)

>  <Rbt.Library>
libRbt.so (2013.1, Build901 2013/11/27)

>  <Rbt.Parameter_File>
/export/apps/rDock/src/rDock_2013.1_src/data/scripts/dock_solv.prm

>  <Rbt.Receptor>
prm/pocket_docking_6.prm

>  <SCORE>
-8.1151

>  <SCORE.INTER>
-9.23755

>  <SCORE.INTER.CONST>
1

>  <SCORE.INTER.POLAR>
0

>  <SCORE.INTER.ROT>
5

>  <SCORE.INTER.SOLV>
11.9779

>  <SCORE.INTER.VDW>
-17.0843

>  <SCORE.INTER.norm>
-0.923755

>  <SCORE.INTRA>
1.12245

>  <SCORE.INTRA.DIHEDRAL>
1.75954

>  <SCORE.INTRA.DIHEDRAL.0>
3.281

>  <SCORE.INTRA.POLAR>
0

>  <SCORE.INTRA.POLAR.0>
0

>  <SCORE.INTRA.REPUL>
0

>  <SCORE.INTRA.REPUL.0>
0

>  <SCORE.INTRA.SOLV>
0.411909

>  <SCORE.INTRA.SOLV.lig_0>
-31.9458

>  <SCORE.INTRA.VDW>
0.0367257

>  <SCORE.INTRA.VDW.0>
-0.672612

>  <SCORE.INTRA.norm>
0.112245

>  <SCORE.RESTR>
0

>  <SCORE.RESTR.CAVITY>
0

>  <SCORE.RESTR.norm>
0

>  <SCORE.SYSTEM>
0

>  <SCORE.SYSTEM.CONST>
0

>  <SCORE.SYSTEM.DIHEDRAL>
0

>  <SCORE.SYSTEM.SOLV>
0

>  <SCORE.SYSTEM.norm>
0

>  <SCORE.heavy>
10

>  <SCORE.norm>
-0.81151

>  <RMSD>
5.255

$$$$
ligand
 OpenBabel11021811473D
libRbt.so/2013.1/901 2013/11/27
 10  9  0  0  0  0  0  0  0  0999 V2000
   28.9223   16.4465   19.7883 N   0  0  0  0  0  0  0  0  0  0  0  0
   27.7362   15.7042   19.2756 C   0  0  2  0  0  0  0  0  0  0  0  0
   26.8245   15.2635   20.4121 C   0  0  0  0  0  0  0  0  0  0  0  0
   27.2656   14.8181   21.4726 O   0  0  0  0  0  0  0  0  0  0  0  0
   28.1669   14.5086   18.4289 C   0  0  0  0  0  0  0  0  0  0  0  0
   27.0007   13.7803   17.8017 C   0  0  0  0  0  0  0  0  0  0  0  0
   27.4057   12.4321   17.2681 C   0  0  0  0  0  0  0  0  0  0  0  0
   26.1842   11.6115   16.8931 C   0  0  0  0  0  0  0  0  0  0  0  0
   26.5179   10.1798   16.6753 N   0  0  0  0  0  0  0  0  0  0  0  0
   25.6014   15.3733   20.3128 O   0  0  0  0  0  0  0  0  0  0  0  0
  2  1  1  1  0  0  0
  2  3  1  0  0  0  0
  2  5  1  0  0  0  0
  3  4  1  0  0  0  0
  3 10  1  0  0  0  0
  5  6  1  0  0  0  0
  6  7  1  0  0  0  0
  7  8  1  0  0  0  0
  8  9  1  0  0  0  0
M  END
>  <CHROM.1>
-40.96337227,-175.81886158,-165.77634732,168.90248466,-166.29991039,27.14273673
14.01232651,18.86487806,-1.39654249,-0.61249148,-2.36610472

>  <Name>
ligand

>  <RI>
0

>  <Rbt.Current_Directory>
/home/itssahil/PROJECTS/Mol_Feturizer/New_Systems/rnas/3DIX

>  <Rbt.Executable>
rbdock ($Id: //depot/dev/client3/rdock/2013.1/src/exe/rbdock.cxx#4 $)

>  <Rbt.Library>
libRbt.so (2013.1, Build901 2013/11/27)

>  <Rbt.Parameter_File>
/export/apps/rDock/src/rDock_2013.1_src/data/scripts/dock_solv.prm

>  <Rbt.Receptor>
prm/pocket_docking_7.prm

>  <SCORE>
-12.6196

>  <SCORE.INTER>
-11.8313

>  <SCORE.INTER.CONST>
1

>  <SCORE.INTER.POLAR>
0

>  <SCORE.INTER.ROT>
5

>  <SCORE.INTER.SOLV>
13.8311

>  <SCORE.INTER.VDW>
-19.4312

>  <SCORE.INTER.norm>
-1.18313

>  <SCORE.INTRA>
-0.788332

>  <SCORE.INTRA.DIHEDRAL>
0.316963

>  <SCORE.INTRA.DIHEDRAL.0>
3.281

>  <SCORE.INTRA.POLAR>
0

>  <SCORE.INTRA.POLAR.0>
0

>  <SCORE.INTRA.REPUL>
0

>  <SCORE.INTRA.REPUL.0>
0

>  <SCORE.INTRA.SOLV>
-1.56157

>  <SCORE.INTRA.SOLV.lig_0>
-31.9458

>  <SCORE.INTRA.VDW>
-0.166027

>  <SCORE.INTRA.VDW.0>
-0.672612

>  <SCORE.INTRA.norm>
-0.0788332

>  <SCORE.RESTR>
0

>  <SCORE.RESTR.CAVITY>
0

>  <SCORE.RESTR.norm>
0

>  <SCORE.SYSTEM>
0

>  <SCORE.SYSTEM.CONST>
0

>  <SCORE.SYSTEM.DIHEDRAL>
0

>  <SCORE.SYSTEM.SOLV>
0

>  <SCORE.SYSTEM.norm>
0

>  <SCORE.heavy>
10

>  <SCORE.norm>
-1.26196

>  <RMSD>
5.255

$$$$
ligand
 OpenBabel11021811473D
libRbt.so/2013.1/901 2013/11/27
 10  9  0  0  0  0  0  0  0  0999 V2000
   28.5881   14.9854   18.9486 N   0  0  0  0  0  0  0  0  0  0  0  0
   28.2391   15.5293   20.2914 C   0  0  2  0  0  0  0  0  0  0  0  0
   26.7536   15.3725   20.5839 C   0  0  0  0  0  0  0  0  0  0  0  0
   25.8876   15.6561   19.7548 O   0  0  0  0  0  0  0  0  0  0  0  0
   28.6666   16.9901   20.4145 C   0  0  0  0  0  0  0  0  0  0  0  0
   30.1672   17.1680   20.4011 C   0  0  0  0  0  0  0  0  0  0  0  0
   30.8082   16.6013   21.6397 C   0  0  0  0  0  0  0  0  0  0  0  0
   32.2838   16.9559   21.6937 C   0  0  0  0  0  0  0  0  0  0  0  0
   33.0186   16.4753   20.4947 N   0  0  0  0  0  0  0  0  0  0  0  0
   26.3719   14.9188   21.6638 O   0  0  0  0  0  0  0  0  0  0  0  0
  2  1  1  6  0  0  0
  2  3  1  0  0  0  0
  2  5  1  0  0  0  0
  3  4  1  0  0  0  0
  3 10  1  0  0  0  0
  5  6  1  0  0  0  0
  6  7  1  0  0  0  0
  7  8  1  0  0  0  0
  8  9  1  0  0  0  0
M  END
>  <CHROM.1>
-45.55217072,-66.98089168,-68.07651587,-172.33098727,-57.51213020,29.03474410
16.05733109,20.59443736,-2.98768370,0.23298125,1.40151035

>  <Name>
ligand

>  <RI>
0

>  <Rbt.Current_Directory>
/home/itssahil/PROJECTS/Mol_Feturizer/New_Systems/rnas/3DIX

>  <Rbt.Executable>
rbdock ($Id: //depot/dev/client3/rdock/2013.1/src/exe/rbdock.cxx#4 $)

>  <Rbt.Library>
libRbt.so (2013.1, Build901 2013/11/27)

>  <Rbt.Parameter_File>
/export/apps/rDock/src/rDock_2013.1_src/data/scripts/dock_solv.prm

>  <Rbt.Receptor>
prm/pocket_docking_5.prm

>  <SCORE>
-7.99251

>  <SCORE.INTER>
-8.08098

>  <SCORE.INTER.CONST>
1

>  <SCORE.INTER.POLAR>
0

>  <SCORE.INTER.ROT>
5

>  <SCORE.INTER.SOLV>
12.1794

>  <SCORE.INTER.VDW>
-16.3805

>  <SCORE.INTER.norm>
-0.808098

>  <SCORE.INTRA>
0.088476

>  <SCORE.INTRA.DIHEDRAL>
-1.00612

>  <SCORE.INTRA.DIHEDRAL.0>
3.281

>  <SCORE.INTRA.POLAR>
0

>  <SCORE.INTRA.POLAR.0>
0

>  <SCORE.INTRA.REPUL>
0

>  <SCORE.INTRA.REPUL.0>
0

>  <SCORE.INTRA.SOLV>
0.713107

>  <SCORE.INTRA.SOLV.lig_0>
-31.9458

>  <SCORE.INTRA.VDW>
0.234981

>  <SCORE.INTRA.VDW.0>
-0.672612

>  <SCORE.INTRA.norm>
0.0088476

>  <SCORE.RESTR>
0

>  <SCORE.RESTR.CAVITY>
0

>  <SCORE.RESTR.norm>
0

>  <SCORE.SYSTEM>
0

>  <SCORE.SYSTEM.CONST>
0

>  <SCORE.SYSTEM.DIHEDRAL>
0

>  <SCORE.SYSTEM.SOLV>
0

>  <SCORE.SYSTEM.norm>
0

>  <SCORE.heavy>
10

>  <SCORE.norm>
-0.799251

>  <RMSD>
5.257

$$$$
ligand
 OpenBabel11021811473D
libRbt.so/2013.1/901 2013/11/27
 10  9  0  0  0  0  0  0  0  0999 V2000
   27.2326   14.6421   18.2689 N   0  0  0  0  0  0  0  0  0  0  0  0
   27.8135   15.1327   19.5506 C   0  0  2  0  0  0  0  0  0  0  0  0
   26.7610   15.1940   20.6485 C   0  0  0  0  0  0  0  0  0  0  0  0
   27.0537   15.1247   21.8432 O   0  0  0  0  0  0  0  0  0  0  0  0
   28.4806   16.4931   19.3600 C   0  0  0  0  0  0  0  0  0  0  0  0
   29.3301   16.9032   20.5407 C   0  0  0  0  0  0  0  0  0  0  0  0
   30.4852   15.9612   20.7519 C   0  0  0  0  0  0  0  0  0  0  0  0
   31.2688   16.3394   21.9965 C   0  0  0  0  0  0  0  0  0  0  0  0
   31.8966   17.6810   21.8758 N   0  0  0  0  0  0  0  0  0  0  0  0
   25.5715   15.3503   20.3684 O   0  0  0  0  0  0  0  0  0  0  0  0
  2  1  1  6  0  0  0
  2  3  1  0  0  0  0
  2  5  1  0  0  0  0
  3  4  1  0  0  0  0
  3 10  1  0  0  0  0
  5  6  1  0  0  0  0
  6  7  1  0  0  0  0
  7  8  1  0  0  0  0
  8  9  1  0  0  0  0
M  END
>  <CHROM.1>
154.97491045,-167.94718292,63.28215259,-176.20850613,-63.55439532,28.55710625
15.87926066,20.54204649,-2.79950695,0.34175591,1.48374300

>  <Name>
ligand

>  <RI>
0

>  <Rbt.Current_Directory>
/home/itssahil/PROJECTS/Mol_Feturizer/New_Systems/rnas/3DIX

>  <Rbt.Executable>
rbdock ($Id: //depot/dev/client3/rdock/2013.1/src/exe/rbdock.cxx#4 $)

>  <Rbt.Library>
libRbt.so (2013.1, Build901 2013/11/27)

>  <Rbt.Parameter_File>
/export/apps/rDock/src/rDock_2013.1_src/data/scripts/dock_solv.prm

>  <Rbt.Receptor>
prm/pocket_docking_6.prm

>  <SCORE>
-9.65168

>  <SCORE.INTER>
-9.18862

>  <SCORE.INTER.CONST>
1

>  <SCORE.INTER.POLAR>
0

>  <SCORE.INTER.ROT>
5

>  <SCORE.INTER.SOLV>
13.2014

>  <SCORE.INTER.VDW>
-17.4595

>  <SCORE.INTER.norm>
-0.918862

>  <SCORE.INTRA>
-0.463066

>  <SCORE.INTRA.DIHEDRAL>
-1.17121

>  <SCORE.INTRA.DIHEDRAL.0>
3.281

>  <SCORE.INTRA.POLAR>
0

>  <SCORE.INTRA.POLAR.0>
0

>  <SCORE.INTRA.REPUL>
0

>  <SCORE.INTRA.REPUL.0>
0

>  <SCORE.INTRA.SOLV>
-0.297371

>  <SCORE.INTRA.SOLV.lig_0>
-31.9458

>  <SCORE.INTRA.VDW>
0.271225

>  <SCORE.INTRA.VDW.0>
-0.672612

>  <SCORE.INTRA.norm>
-0.0463066

>  <SCORE.RESTR>
0

>  <SCORE.RESTR.CAVITY>
0

>  <SCORE.RESTR.norm>
0

>  <SCORE.SYSTEM>
0

>  <SCORE.SYSTEM.CONST>
0

>  <SCORE.SYSTEM.DIHEDRAL>
0

>  <SCORE.SYSTEM.SOLV>
0

>  <SCORE.SYSTEM.norm>
0

>  <SCORE.heavy>
10

>  <SCORE.norm>
-0.965168

>  <RMSD>
5.257

$$$$
ligand
 OpenBabel11021811473D
libRbt.so/2013.1/901 2013/11/27
 10  9  0  0  0  0  0  0  0  0999 V2000
   26.9986   14.0670   18.5654 N   0  0  0  0  0  0  0  0  0  0  0  0
   27.6243   14.9236   19.6120 C   0  0  2  0  0  0  0  0  0  0  0  0
   26.7187   15.0642   20.8274 C   0  0  0  0  0  0  0  0  0  0  0  0
   27.1633   15.2774   21.9564 O   0  0  0  0  0  0  0  0  0  0  0  0
   27.9915   16.2934   19.0459 C   0  0  0  0  0  0  0  0  0  0  0  0
   28.8760   17.0959   19.9720 C   0  0  0  0  0  0  0  0  0  0  0  0
   30.2383   16.4731   20.1223 C   0  0  0  0  0  0  0  0  0  0  0  0
   31.1082   17.2977   21.0546 C   0  0  0  0  0  0  0  0  0  0  0  0
   30.5856   17.3057   22.4458 N   0  0  0  0  0  0  0  0  0  0  0  0
   25.4942   15.0004   20.7073 O   0  0  0  0  0  0  0  0  0  0  0  0
  2  1  1  6  0  0  0
  2  3  1  0  0  0  0
  2  5  1  0  0  0  0
  3  4  1  0  0  0  0
  3 10  1  0  0  0  0
  5  6  1  0  0  0  0
  6  7  1  0  0  0  0
  7  8  1  0  0  0  0
  8  9  1  0  0  0  0
M  END
>  <CHROM.1>
152.75159232,-168.26437806,66.92348226,179.91293077,65.39488941,28.25216264
15.87765357,20.45625284,-2.81487624,0.47865088,1.39004961

>  <Name>
ligand

>  <RI>
0

>  <Rbt.Current_Directory>
/home/itssahil/PROJECTS/Mol_Feturizer/New_Systems/rnas/3DIX

>  <Rbt.Executable>
rbdock ($Id: //depot/dev/client3/rdock/2013.1/src/exe/rbdock.cxx#4 $)

>  <Rbt.Library>
libRbt.so (2013.1, Build901 2013/11/27)

>  <Rbt.Parameter_File>
/export/apps/rDock/src/rDock_2013.1_src/data/scripts/dock_solv.prm

>  <Rbt.Receptor>
prm/pocket_docking_8.prm

>  <SCORE>
-9.19861

>  <SCORE.INTER>
-8.58834

>  <SCORE.INTER.CONST>
1

>  <SCORE.INTER.POLAR>
0

>  <SCORE.INTER.ROT>
5

>  <SCORE.INTER.SOLV>
15.1698

>  <SCORE.INTER.VDW>
-17.7155

>  <SCORE.INTER.norm>
-0.858834

>  <SCORE.INTRA>
-0.610262

>  <SCORE.INTRA.DIHEDRAL>
-1.04416

>  <SCORE.INTRA.DIHEDRAL.0>
3.281

>  <SCORE.INTRA.POLAR>
0

>  <SCORE.INTRA.POLAR.0>
0

>  <SCORE.INTRA.REPUL>
0

>  <SCORE.INTRA.REPUL.0>
0

>  <SCORE.INTRA.SOLV>
-0.329251

>  <SCORE.INTRA.SOLV.lig_0>
-31.9458

>  <SCORE.INTRA.VDW>
0.076444

>  <SCORE.INTRA.VDW.0>
-0.672612

>  <SCORE.INTRA.norm>
-0.0610262

>  <SCORE.RESTR>
0

>  <SCORE.RESTR.CAVITY>
0

>  <SCORE.RESTR.norm>
0

>  <SCORE.SYSTEM>
0

>  <SCORE.SYSTEM.CONST>
0

>  <SCORE.SYSTEM.DIHEDRAL>
0

>  <SCORE.SYSTEM.SOLV>
0

>  <SCORE.SYSTEM.norm>
0

>  <SCORE.heavy>
10

>  <SCORE.norm>
-0.919861

>  <RMSD>
5.257

$$$$
ligand
 OpenBabel11021811473D
libRbt.so/2013.1/901 2013/11/27
 10  9  0  0  0  0  0  0  0  0999 V2000
   27.0961   14.6967   18.3905 N   0  0  0  0  0  0  0  0  0  0  0  0
   27.7605   15.1453   19.6467 C   0  0  2  0  0  0  0  0  0  0  0  0
   26.7826   15.1683   20.8130 C   0  0  0  0  0  0  0  0  0  0  0  0
   27.1586   15.2439   21.9838 O   0  0  0  0  0  0  0  0  0  0  0  0
   28.4145   16.5122   19.4581 C   0  0  0  0  0  0  0  0  0  0  0  0
   29.2937   16.9102   20.6211 C   0  0  0  0  0  0  0  0  0  0  0  0
   30.4778   15.9920   20.7662 C   0  0  0  0  0  0  0  0  0  0  0  0
   31.2981   16.3591   21.9903 C   0  0  0  0  0  0  0  0  0  0  0  0
   31.9116   17.7072   21.8685 N   0  0  0  0  0  0  0  0  0  0  0  0
   25.5673   15.1451   20.6124 O   0  0  0  0  0  0  0  0  0  0  0  0
  2  1  1  6  0  0  0
  2  3  1  0  0  0  0
  2  5  1  0  0  0  0
  3  4  1  0  0  0  0
  3 10  1  0  0  0  0
  5  6  1  0  0  0  0
  6  7  1  0  0  0  0
  7  8  1  0  0  0  0
  8  9  1  0  0  0  0
M  END
>  <CHROM.1>
165.11032090,-170.42366311,64.68002158,-176.50471005,-64.70367774,28.54538091
15.88409913,20.63837966,-2.83514389,0.36156796,1.50771112

>  <Name>
ligand

>  <RI>
0

>  <Rbt.Current_Directory>
/home/itssahil/PROJECTS/Mol_Feturizer/New_Systems/rnas/3DIX

>  <Rbt.Executable>
rbdock ($Id: //depot/dev/client3/rdock/2013.1/src/exe/rbdock.cxx#4 $)

>  <Rbt.Library>
libRbt.so (2013.1, Build901 2013/11/27)

>  <Rbt.Parameter_File>
/export/apps/rDock/src/rDock_2013.1_src/data/scripts/dock_solv.prm

>  <Rbt.Receptor>
prm/blind_docking_60.prm

>  <SCORE>
-9.68461

>  <SCORE.INTER>
-9.2816

>  <SCORE.INTER.CONST>
1

>  <SCORE.INTER.POLAR>
0

>  <SCORE.INTER.ROT>
5

>  <SCORE.INTER.SOLV>
13.411

>  <SCORE.INTER.VDW>
-17.5914

>  <SCORE.INTER.norm>
-0.92816

>  <SCORE.INTRA>
-0.403007

>  <SCORE.INTRA.DIHEDRAL>
-1.27941

>  <SCORE.INTRA.DIHEDRAL.0>
3.281

>  <SCORE.INTRA.POLAR>
0

>  <SCORE.INTRA.POLAR.0>
0

>  <SCORE.INTRA.REPUL>
0

>  <SCORE.INTRA.REPUL.0>
0

>  <SCORE.INTRA.SOLV>
-0.335393

>  <SCORE.INTRA.SOLV.lig_0>
-31.9458

>  <SCORE.INTRA.VDW>
0.404396

>  <SCORE.INTRA.VDW.0>
-0.672612

>  <SCORE.INTRA.norm>
-0.0403007

>  <SCORE.RESTR>
0

>  <SCORE.RESTR.CAVITY>
0

>  <SCORE.RESTR.norm>
0

>  <SCORE.SYSTEM>
0

>  <SCORE.SYSTEM.CONST>
0

>  <SCORE.SYSTEM.DIHEDRAL>
0

>  <SCORE.SYSTEM.SOLV>
0

>  <SCORE.SYSTEM.norm>
0

>  <SCORE.heavy>
10

>  <SCORE.norm>
-0.968461

>  <RMSD>
5.258

$$$$
ligand
 OpenBabel11021811473D
libRbt.so/2013.1/901 2013/11/27
 10  9  0  0  0  0  0  0  0  0999 V2000
   28.7252   14.3220   19.8697 N   0  0  0  0  0  0  0  0  0  0  0  0
   28.2028   15.1082   18.7165 C   0  0  2  0  0  0  0  0  0  0  0  0
   27.6682   16.4610   19.1649 C   0  0  0  0  0  0  0  0  0  0  0  0
   28.2833   17.5094   18.9643 O   0  0  0  0  0  0  0  0  0  0  0  0
   27.1318   14.3226   17.9631 C   0  0  0  0  0  0  0  0  0  0  0  0
   27.6123   12.9669   17.4995 C   0  0  0  0  0  0  0  0  0  0  0  0
   26.4712   12.0923   17.0532 C   0  0  0  0  0  0  0  0  0  0  0  0
   26.9093   10.6414   16.9573 C   0  0  0  0  0  0  0  0  0  0  0  0
   25.7574    9.7204   16.7750 N   0  0  0  0  0  0  0  0  0  0  0  0
   26.5720   16.5489   19.7203 O   0  0  0  0  0  0  0  0  0  0  0  0
  2  1  1  1  0  0  0
  2  3  1  0  0  0  0
  2  5  1  0  0  0  0
  3  4  1  0  0  0  0
  3 10  1  0  0  0  0
  5  6  1  0  0  0  0
  6  7  1  0  0  0  0
  7  8  1  0  0  0  0
  8  9  1  0  0  0  0
M  END
>  <CHROM.1>
105.14324521,-55.58701866,166.67986632,-164.48156722,169.05794377,27.32502063
14.01167877,18.28239063,-1.34316478,0.36372020,-2.84108639

>  <Name>
ligand

>  <RI>
0

>  <Rbt.Current_Directory>
/home/itssahil/PROJECTS/Mol_Feturizer/New_Systems/rnas/3DIX

>  <Rbt.Executable>
rbdock ($Id: //depot/dev/client3/rdock/2013.1/src/exe/rbdock.cxx#4 $)

>  <Rbt.Library>
libRbt.so (2013.1, Build901 2013/11/27)

>  <Rbt.Parameter_File>
/export/apps/rDock/src/rDock_2013.1_src/data/scripts/dock_solv.prm

>  <Rbt.Receptor>
prm/blind_docking_80.prm

>  <SCORE>
-10.0488

>  <SCORE.INTER>
-10.1426

>  <SCORE.INTER.CONST>
1

>  <SCORE.INTER.POLAR>
0

>  <SCORE.INTER.ROT>
5

>  <SCORE.INTER.SOLV>
14.7135

>  <SCORE.INTER.VDW>
-18.5996

>  <SCORE.INTER.norm>
-1.01426

>  <SCORE.INTRA>
0.0937821

>  <SCORE.INTRA.DIHEDRAL>
0.440576

>  <SCORE.INTRA.DIHEDRAL.0>
3.281

>  <SCORE.INTRA.POLAR>
0

>  <SCORE.INTRA.POLAR.0>
0

>  <SCORE.INTRA.REPUL>
0

>  <SCORE.INTRA.REPUL.0>
0

>  <SCORE.INTRA.SOLV>
-0.524741

>  <SCORE.INTRA.SOLV.lig_0>
-31.9458

>  <SCORE.INTRA.VDW>
0.135865

>  <SCORE.INTRA.VDW.0>
-0.672612

>  <SCORE.INTRA.norm>
0.00937821

>  <SCORE.RESTR>
0

>  <SCORE.RESTR.CAVITY>
0

>  <SCORE.RESTR.norm>
0

>  <SCORE.SYSTEM>
0

>  <SCORE.SYSTEM.CONST>
0

>  <SCORE.SYSTEM.DIHEDRAL>
0

>  <SCORE.SYSTEM.SOLV>
0

>  <SCORE.SYSTEM.norm>
0

>  <SCORE.heavy>
10

>  <SCORE.norm>
-1.00488

>  <RMSD>
5.259

$$$$
ligand
 OpenBabel11021811473D
libRbt.so/2013.1/901 2013/11/27
 10  9  0  0  0  0  0  0  0  0999 V2000
   27.9246   14.9951   18.7330 N   0  0  0  0  0  0  0  0  0  0  0  0
   28.0431   14.6436   20.1763 C   0  0  2  0  0  0  0  0  0  0  0  0
   26.8387   15.1347   20.9670 C   0  0  0  0  0  0  0  0  0  0  0  0
   26.8921   15.3494   22.1790 O   0  0  0  0  0  0  0  0  0  0  0  0
   29.3409   15.1924   20.7651 C   0  0  0  0  0  0  0  0  0  0  0  0
   29.4532   16.6947   20.6453 C   0  0  0  0  0  0  0  0  0  0  0  0
   30.7553   17.2038   21.2033 C   0  0  0  0  0  0  0  0  0  0  0  0
   31.9166   16.8097   20.3077 C   0  0  0  0  0  0  0  0  0  0  0  0
   33.2124   17.3394   20.8068 N   0  0  0  0  0  0  0  0  0  0  0  0
   25.7693   15.3662   20.4008 O   0  0  0  0  0  0  0  0  0  0  0  0
  2  1  1  6  0  0  0
  2  3  1  0  0  0  0
  2  5  1  0  0  0  0
  3  4  1  0  0  0  0
  3 10  1  0  0  0  0
  5  6  1  0  0  0  0
  6  7  1  0  0  0  0
  7  8  1  0  0  0  0
  8  9  1  0  0  0  0
M  END
>  <CHROM.1>
-156.20570040,58.92019208,-178.62901473,70.74847099,177.97659759,28.97715750
15.87773568,20.63562482,-3.01495970,0.32197279,1.21258824

>  <Name>
ligand

>  <RI>
0

>  <Rbt.Current_Directory>
/home/itssahil/PROJECTS/Mol_Feturizer/New_Systems/rnas/3DIX

>  <Rbt.Executable>
rbdock ($Id: //depot/dev/client3/rdock/2013.1/src/exe/rbdock.cxx#4 $)

>  <Rbt.Library>
libRbt.so (2013.1, Build901 2013/11/27)

>  <Rbt.Parameter_File>
/export/apps/rDock/src/rDock_2013.1_src/data/scripts/dock_solv.prm

>  <Rbt.Receptor>
prm/pocket_docking_3.prm

>  <SCORE>
-8.90298

>  <SCORE.INTER>
-9.21357

>  <SCORE.INTER.CONST>
1

>  <SCORE.INTER.POLAR>
0

>  <SCORE.INTER.ROT>
5

>  <SCORE.INTER.SOLV>
12.484

>  <SCORE.INTER.VDW>
-17.237

>  <SCORE.INTER.norm>
-0.921357

>  <SCORE.INTRA>
0.310595

>  <SCORE.INTRA.DIHEDRAL>
-1.22517

>  <SCORE.INTRA.DIHEDRAL.0>
3.281

>  <SCORE.INTRA.POLAR>
0

>  <SCORE.INTRA.POLAR.0>
0

>  <SCORE.INTRA.REPUL>
0

>  <SCORE.INTRA.REPUL.0>
0

>  <SCORE.INTRA.SOLV>
-0.349857

>  <SCORE.INTRA.SOLV.lig_0>
-31.9458

>  <SCORE.INTRA.VDW>
1.09811

>  <SCORE.INTRA.VDW.0>
-0.672612

>  <SCORE.INTRA.norm>
0.0310595

>  <SCORE.RESTR>
0

>  <SCORE.RESTR.CAVITY>
0

>  <SCORE.RESTR.norm>
0

>  <SCORE.SYSTEM>
0

>  <SCORE.SYSTEM.CONST>
0

>  <SCORE.SYSTEM.DIHEDRAL>
0

>  <SCORE.SYSTEM.SOLV>
0

>  <SCORE.SYSTEM.norm>
0

>  <SCORE.heavy>
10

>  <SCORE.norm>
-0.890298

>  <RMSD>
5.260

$$$$
ligand
 OpenBabel11021811473D
libRbt.so/2013.1/901 2013/11/27
 10  9  0  0  0  0  0  0  0  0999 V2000
   26.7914   16.5183   19.5467 N   0  0  0  0  0  0  0  0  0  0  0  0
   27.8970   15.5860   19.1872 C   0  0  2  0  0  0  0  0  0  0  0  0
   27.7005   15.0042   17.7944 C   0  0  0  0  0  0  0  0  0  0  0  0
   26.9966   14.0141   17.5897 O   0  0  0  0  0  0  0  0  0  0  0  0
   28.0317   14.4754   20.2265 C   0  0  0  0  0  0  0  0  0  0  0  0
   28.3791   14.9952   21.6024 C   0  0  0  0  0  0  0  0  0  0  0  0
   29.8361   15.3575   21.7114 C   0  0  0  0  0  0  0  0  0  0  0  0
   30.0967   16.7294   21.1147 C   0  0  0  0  0  0  0  0  0  0  0  0
   31.5145   17.1467   21.2704 N   0  0  0  0  0  0  0  0  0  0  0  0
   28.2222   15.5367   16.8135 O   0  0  0  0  0  0  0  0  0  0  0  0
  2  1  1  1  0  0  0
  2  3  1  0  0  0  0
  2  5  1  0  0  0  0
  3  4  1  0  0  0  0
  3 10  1  0  0  0  0
  5  6  1  0  0  0  0
  6  7  1  0  0  0  0
  7  8  1  0  0  0  0
  8  9  1  0  0  0  0
M  END
>  <CHROM.1>
-84.53533373,-62.06063273,-77.49964872,80.75701717,177.02919631,28.53692476
15.52196971,19.64661021,2.35907794,-0.61023727,-1.39978545

>  <Name>
ligand

>  <RI>
0

>  <Rbt.Current_Directory>
/home/itssahil/PROJECTS/Mol_Feturizer/New_Systems/rnas/3DIX

>  <Rbt.Executable>
rbdock ($Id: //depot/dev/client3/rdock/2013.1/src/exe/rbdock.cxx#4 $)

>  <Rbt.Library>
libRbt.so (2013.1, Build901 2013/11/27)

>  <Rbt.Parameter_File>
/export/apps/rDock/src/rDock_2013.1_src/data/scripts/dock_solv.prm

>  <Rbt.Receptor>
prm/pocket_docking_6.prm

>  <SCORE>
-7.78588

>  <SCORE.INTER>
-9.35174

>  <SCORE.INTER.CONST>
1

>  <SCORE.INTER.POLAR>
0

>  <SCORE.INTER.ROT>
5

>  <SCORE.INTER.SOLV>
13.9432

>  <SCORE.INTER.VDW>
-17.8156

>  <SCORE.INTER.norm>
-0.935174

>  <SCORE.INTRA>
1.56586

>  <SCORE.INTRA.DIHEDRAL>
1.03081

>  <SCORE.INTRA.DIHEDRAL.0>
3.281

>  <SCORE.INTRA.POLAR>
0

>  <SCORE.INTRA.POLAR.0>
0

>  <SCORE.INTRA.REPUL>
0

>  <SCORE.INTRA.REPUL.0>
0

>  <SCORE.INTRA.SOLV>
0.744737

>  <SCORE.INTRA.SOLV.lig_0>
-31.9458

>  <SCORE.INTRA.VDW>
0.67809

>  <SCORE.INTRA.VDW.0>
-0.672612

>  <SCORE.INTRA.norm>
0.156586

>  <SCORE.RESTR>
0

>  <SCORE.RESTR.CAVITY>
0

>  <SCORE.RESTR.norm>
0

>  <SCORE.SYSTEM>
0

>  <SCORE.SYSTEM.CONST>
0

>  <SCORE.SYSTEM.DIHEDRAL>
0

>  <SCORE.SYSTEM.SOLV>
0

>  <SCORE.SYSTEM.norm>
0

>  <SCORE.heavy>
10

>  <SCORE.norm>
-0.778588

>  <RMSD>
5.260

$$$$
ligand
 OpenBabel11021811473D
libRbt.so/2013.1/901 2013/11/27
 10  9  0  0  0  0  0  0  0  0999 V2000
   25.5780   14.9561   20.7124 N   0  0  0  0  0  0  0  0  0  0  0  0
   26.9039   15.6016   20.4983 C   0  0  2  0  0  0  0  0  0  0  0  0
   27.4132   15.3655   19.0833 C   0  0  0  0  0  0  0  0  0  0  0  0
   27.3439   14.2641   18.5357 O   0  0  0  0  0  0  0  0  0  0  0  0
   27.9190   15.1147   21.5299 C   0  0  0  0  0  0  0  0  0  0  0  0
   29.1989   15.9181   21.5219 C   0  0  0  0  0  0  0  0  0  0  0  0
   30.1179   15.4939   20.4075 C   0  0  0  0  0  0  0  0  0  0  0  0
   31.2917   16.4493   20.2833 C   0  0  0  0  0  0  0  0  0  0  0  0
   32.1128   16.4904   21.5213 N   0  0  0  0  0  0  0  0  0  0  0  0
   27.8859   16.2931   18.4246 O   0  0  0  0  0  0  0  0  0  0  0  0
  2  1  1  6  0  0  0
  2  3  1  0  0  0  0
  2  5  1  0  0  0  0
  3  4  1  0  0  0  0
  3 10  1  0  0  0  0
  5  6  1  0  0  0  0
  6  7  1  0  0  0  0
  7  8  1  0  0  0  0
  8  9  1  0  0  0  0
M  END
>  <CHROM.1>
-43.94026271,-169.39906972,-79.95605132,171.17758966,60.93721348,28.57812751
15.58903284,20.21697246,2.86884567,-0.25696196,-1.56372001

>  <Name>
ligand

>  <RI>
0

>  <Rbt.Current_Directory>
/home/itssahil/PROJECTS/Mol_Feturizer/New_Systems/rnas/3DIX

>  <Rbt.Executable>
rbdock ($Id: //depot/dev/client3/rdock/2013.1/src/exe/rbdock.cxx#4 $)

>  <Rbt.Library>
libRbt.so (2013.1, Build901 2013/11/27)

>  <Rbt.Parameter_File>
/export/apps/rDock/src/rDock_2013.1_src/data/scripts/dock_solv.prm

>  <Rbt.Receptor>
prm/pocket_docking_6.prm

>  <SCORE>
-7.05204

>  <SCORE.INTER>
-7.20471

>  <SCORE.INTER.CONST>
1

>  <SCORE.INTER.POLAR>
0

>  <SCORE.INTER.ROT>
5

>  <SCORE.INTER.SOLV>
18.4113

>  <SCORE.INTER.VDW>
-17.8736

>  <SCORE.INTER.norm>
-0.720471

>  <SCORE.INTRA>
0.152669

>  <SCORE.INTRA.DIHEDRAL>
0.517855

>  <SCORE.INTRA.DIHEDRAL.0>
3.281

>  <SCORE.INTRA.POLAR>
0

>  <SCORE.INTRA.POLAR.0>
0

>  <SCORE.INTRA.REPUL>
0

>  <SCORE.INTRA.REPUL.0>
0

>  <SCORE.INTRA.SOLV>
-0.511628

>  <SCORE.INTRA.SOLV.lig_0>
-31.9458

>  <SCORE.INTRA.VDW>
0.149556

>  <SCORE.INTRA.VDW.0>
-0.672612

>  <SCORE.INTRA.norm>
0.0152669

>  <SCORE.RESTR>
0

>  <SCORE.RESTR.CAVITY>
0

>  <SCORE.RESTR.norm>
0

>  <SCORE.SYSTEM>
0

>  <SCORE.SYSTEM.CONST>
0

>  <SCORE.SYSTEM.DIHEDRAL>
0

>  <SCORE.SYSTEM.SOLV>
0

>  <SCORE.SYSTEM.norm>
0

>  <SCORE.heavy>
10

>  <SCORE.norm>
-0.705204

>  <RMSD>
5.261

$$$$
ligand
 OpenBabel11021811473D
libRbt.so/2013.1/901 2013/11/27
 10  9  0  0  0  0  0  0  0  0999 V2000
   28.4393   16.9770   19.9010 N   0  0  0  0  0  0  0  0  0  0  0  0
   28.4294   15.5094   20.1591 C   0  0  2  0  0  0  0  0  0  0  0  0
   27.0362   14.9239   19.9765 C   0  0  0  0  0  0  0  0  0  0  0  0
   26.7711   14.1296   19.0729 O   0  0  0  0  0  0  0  0  0  0  0  0
   28.9718   15.1984   21.5523 C   0  0  0  0  0  0  0  0  0  0  0  0
   30.4492   15.4866   21.6873 C   0  0  0  0  0  0  0  0  0  0  0  0
   30.7278   16.9651   21.7364 C   0  0  0  0  0  0  0  0  0  0  0  0
   32.2221   17.2309   21.7868 C   0  0  0  0  0  0  0  0  0  0  0  0
   32.8895   16.9176   20.4965 N   0  0  0  0  0  0  0  0  0  0  0  0
   26.1294   15.2078   20.7607 O   0  0  0  0  0  0  0  0  0  0  0  0
  2  1  1  1  0  0  0
  2  3  1  0  0  0  0
  2  5  1  0  0  0  0
  3  4  1  0  0  0  0
  3 10  1  0  0  0  0
  5  6  1  0  0  0  0
  6  7  1  0  0  0  0
  7  8  1  0  0  0  0
  8  9  1  0  0  0  0
M  END
>  <CHROM.1>
113.58214768,-68.33464950,73.05954932,-176.55420089,70.72703078,29.16566480
15.83693991,20.70532747,-2.91495285,0.38051304,1.61594367

>  <Name>
ligand

>  <RI>
0

>  <Rbt.Current_Directory>
/home/itssahil/PROJECTS/Mol_Feturizer/New_Systems/rnas/3DIX

>  <Rbt.Executable>
rbdock ($Id: //depot/dev/client3/rdock/2013.1/src/exe/rbdock.cxx#4 $)

>  <Rbt.Library>
libRbt.so (2013.1, Build901 2013/11/27)

>  <Rbt.Parameter_File>
/export/apps/rDock/src/rDock_2013.1_src/data/scripts/dock_solv.prm

>  <Rbt.Receptor>
prm/blind_docking_60.prm

>  <SCORE>
-7.06685

>  <SCORE.INTER>
-8.00184

>  <SCORE.INTER.CONST>
1

>  <SCORE.INTER.POLAR>
0

>  <SCORE.INTER.ROT>
5

>  <SCORE.INTER.SOLV>
14.1734

>  <SCORE.INTER.VDW>
-16.9924

>  <SCORE.INTER.norm>
-0.800184

>  <SCORE.INTRA>
0.934995

>  <SCORE.INTRA.DIHEDRAL>
-0.313168

>  <SCORE.INTRA.DIHEDRAL.0>
3.281

>  <SCORE.INTRA.POLAR>
0

>  <SCORE.INTRA.POLAR.0>
0

>  <SCORE.INTRA.REPUL>
0

>  <SCORE.INTRA.REPUL.0>
0

>  <SCORE.INTRA.SOLV>
1.5498

>  <SCORE.INTRA.SOLV.lig_0>
-31.9458

>  <SCORE.INTRA.VDW>
0.316677

>  <SCORE.INTRA.VDW.0>
-0.672612

>  <SCORE.INTRA.norm>
0.0934995

>  <SCORE.RESTR>
0

>  <SCORE.RESTR.CAVITY>
0

>  <SCORE.RESTR.norm>
0

>  <SCORE.SYSTEM>
0

>  <SCORE.SYSTEM.CONST>
0

>  <SCORE.SYSTEM.DIHEDRAL>
0

>  <SCORE.SYSTEM.SOLV>
0

>  <SCORE.SYSTEM.norm>
0

>  <SCORE.heavy>
10

>  <SCORE.norm>
-0.706685

>  <RMSD>
5.262

$$$$
ligand
 OpenBabel11021811473D
libRbt.so/2013.1/901 2013/11/27
 10  9  0  0  0  0  0  0  0  0999 V2000
   27.1304   14.6211   18.3726 N   0  0  0  0  0  0  0  0  0  0  0  0
   27.7661   15.1009   19.6321 C   0  0  2  0  0  0  0  0  0  0  0  0
   26.7623   15.1511   20.7753 C   0  0  0  0  0  0  0  0  0  0  0  0
   27.1120   15.1547   21.9566 O   0  0  0  0  0  0  0  0  0  0  0  0
   28.4232   16.4636   19.4250 C   0  0  0  0  0  0  0  0  0  0  0  0
   29.2909   16.8824   20.5893 C   0  0  0  0  0  0  0  0  0  0  0  0
   30.4798   15.9740   20.7552 C   0  0  0  0  0  0  0  0  0  0  0  0
   31.2901   16.3644   21.9788 C   0  0  0  0  0  0  0  0  0  0  0  0
   31.8771   17.7236   21.8503 N   0  0  0  0  0  0  0  0  0  0  0  0
   25.5541   15.2243   20.5456 O   0  0  0  0  0  0  0  0  0  0  0  0
  2  1  1  6  0  0  0
  2  3  1  0  0  0  0
  2  5  1  0  0  0  0
  3  4  1  0  0  0  0
  3 10  1  0  0  0  0
  5  6  1  0  0  0  0
  6  7  1  0  0  0  0
  7  8  1  0  0  0  0
  8  9  1  0  0  0  0
M  END
>  <CHROM.1>
159.55326374,-169.63872063,65.22896481,-176.63697160,-63.75036793,28.53736241
15.86267745,20.61090105,-2.82540365,0.35841068,1.48645289

>  <Name>
ligand

>  <RI>
0

>  <Rbt.Current_Directory>
/home/itssahil/PROJECTS/Mol_Feturizer/New_Systems/rnas/3DIX

>  <Rbt.Executable>
rbdock ($Id: //depot/dev/client3/rdock/2013.1/src/exe/rbdock.cxx#4 $)

>  <Rbt.Library>
libRbt.so (2013.1, Build901 2013/11/27)

>  <Rbt.Parameter_File>
/export/apps/rDock/src/rDock_2013.1_src/data/scripts/dock_solv.prm

>  <Rbt.Receptor>
prm/blind_docking_60.prm

>  <SCORE>
-9.6107

>  <SCORE.INTER>
-9.13145

>  <SCORE.INTER.CONST>
1

>  <SCORE.INTER.POLAR>
0

>  <SCORE.INTER.ROT>
5

>  <SCORE.INTER.SOLV>
13.3987

>  <SCORE.INTER.VDW>
-17.4872

>  <SCORE.INTER.norm>
-0.913145

>  <SCORE.INTRA>
-0.479245

>  <SCORE.INTRA.DIHEDRAL>
-1.24365

>  <SCORE.INTRA.DIHEDRAL.0>
3.281

>  <SCORE.INTRA.POLAR>
0

>  <SCORE.INTRA.POLAR.0>
0

>  <SCORE.INTRA.REPUL>
0

>  <SCORE.INTRA.REPUL.0>
0

>  <SCORE.INTRA.SOLV>
-0.320259

>  <SCORE.INTRA.SOLV.lig_0>
-31.9458

>  <SCORE.INTRA.VDW>
0.30271

>  <SCORE.INTRA.VDW.0>
-0.672612

>  <SCORE.INTRA.norm>
-0.0479245

>  <SCORE.RESTR>
0

>  <SCORE.RESTR.CAVITY>
0

>  <SCORE.RESTR.norm>
0

>  <SCORE.SYSTEM>
0

>  <SCORE.SYSTEM.CONST>
0

>  <SCORE.SYSTEM.DIHEDRAL>
0

>  <SCORE.SYSTEM.SOLV>
0

>  <SCORE.SYSTEM.norm>
0

>  <SCORE.heavy>
10

>  <SCORE.norm>
-0.96107

>  <RMSD>
5.265

$$$$
ligand
 OpenBabel11021811473D
libRbt.so/2013.1/901 2013/11/27
 10  9  0  0  0  0  0  0  0  0999 V2000
   27.0823   14.7719   18.3548 N   0  0  0  0  0  0  0  0  0  0  0  0
   27.7372   15.2050   19.6214 C   0  0  2  0  0  0  0  0  0  0  0  0
   26.7555   15.1947   20.7846 C   0  0  0  0  0  0  0  0  0  0  0  0
   27.1279   15.2274   21.9584 O   0  0  0  0  0  0  0  0  0  0  0  0
   28.3753   16.5829   19.4603 C   0  0  0  0  0  0  0  0  0  0  0  0
   29.2717   16.9561   20.6183 C   0  0  0  0  0  0  0  0  0  0  0  0
   30.4533   16.0302   20.7312 C   0  0  0  0  0  0  0  0  0  0  0  0
   31.2795   16.3580   21.9625 C   0  0  0  0  0  0  0  0  0  0  0  0
   31.9050   17.7032   21.8742 N   0  0  0  0  0  0  0  0  0  0  0  0
   25.5407   15.1869   20.5793 O   0  0  0  0  0  0  0  0  0  0  0  0
  2  1  1  6  0  0  0
  2  3  1  0  0  0  0
  2  5  1  0  0  0  0
  3  4  1  0  0  0  0
  3 10  1  0  0  0  0
  5  6  1  0  0  0  0
  6  7  1  0  0  0  0
  7  8  1  0  0  0  0
  8  9  1  0  0  0  0
M  END
>  <CHROM.1>
163.69482856,-169.07475968,63.64389756,-175.62649784,-65.11795960,28.52206443
15.91706244,20.61772973,-2.84325278,0.36219046,1.53425040

>  <Name>
ligand

>  <RI>
0

>  <Rbt.Current_Directory>
/home/itssahil/PROJECTS/Mol_Feturizer/New_Systems/rnas/3DIX

>  <Rbt.Executable>
rbdock ($Id: //depot/dev/client3/rdock/2013.1/src/exe/rbdock.cxx#4 $)

>  <Rbt.Library>
libRbt.so (2013.1, Build901 2013/11/27)

>  <Rbt.Parameter_File>
/export/apps/rDock/src/rDock_2013.1_src/data/scripts/dock_solv.prm

>  <Rbt.Receptor>
prm/pocket_docking_7.prm

>  <SCORE>
-9.59402

>  <SCORE.INTER>
-9.21274

>  <SCORE.INTER.CONST>
1

>  <SCORE.INTER.POLAR>
0

>  <SCORE.INTER.ROT>
5

>  <SCORE.INTER.SOLV>
13.5258

>  <SCORE.INTER.VDW>
-17.5838

>  <SCORE.INTER.norm>
-0.921274

>  <SCORE.INTRA>
-0.381276

>  <SCORE.INTRA.DIHEDRAL>
-1.17252

>  <SCORE.INTRA.DIHEDRAL.0>
3.281

>  <SCORE.INTRA.POLAR>
0

>  <SCORE.INTRA.POLAR.0>
0

>  <SCORE.INTRA.REPUL>
0

>  <SCORE.INTRA.REPUL.0>
0

>  <SCORE.INTRA.SOLV>
-0.329346

>  <SCORE.INTRA.SOLV.lig_0>
-31.9458

>  <SCORE.INTRA.VDW>
0.369658

>  <SCORE.INTRA.VDW.0>
-0.672612

>  <SCORE.INTRA.norm>
-0.0381276

>  <SCORE.RESTR>
0

>  <SCORE.RESTR.CAVITY>
0

>  <SCORE.RESTR.norm>
0

>  <SCORE.SYSTEM>
0

>  <SCORE.SYSTEM.CONST>
0

>  <SCORE.SYSTEM.DIHEDRAL>
0

>  <SCORE.SYSTEM.SOLV>
0

>  <SCORE.SYSTEM.norm>
0

>  <SCORE.heavy>
10

>  <SCORE.norm>
-0.959402

>  <RMSD>
5.266

$$$$
ligand
 OpenBabel11021811473D
libRbt.so/2013.1/901 2013/11/27
 10  9  0  0  0  0  0  0  0  0999 V2000
   27.8562   15.2691   18.6755 N   0  0  0  0  0  0  0  0  0  0  0  0
   27.9880   14.7482   20.0654 C   0  0  2  0  0  0  0  0  0  0  0  0
   26.8020   15.1599   20.9263 C   0  0  0  0  0  0  0  0  0  0  0  0
   26.8970   15.3126   22.1451 O   0  0  0  0  0  0  0  0  0  0  0  0
   29.3019   15.2049   20.6953 C   0  0  0  0  0  0  0  0  0  0  0  0
   29.4298   16.7091   20.7663 C   0  0  0  0  0  0  0  0  0  0  0  0
   30.7658   17.1309   21.3170 C   0  0  0  0  0  0  0  0  0  0  0  0
   31.8717   16.8666   20.3104 C   0  0  0  0  0  0  0  0  0  0  0  0
   33.1923   17.3504   20.7907 N   0  0  0  0  0  0  0  0  0  0  0  0
   25.7049   15.3874   20.4141 O   0  0  0  0  0  0  0  0  0  0  0  0
  2  1  1  6  0  0  0
  2  3  1  0  0  0  0
  2  5  1  0  0  0  0
  3  4  1  0  0  0  0
  3 10  1  0  0  0  0
  5  6  1  0  0  0  0
  6  7  1  0  0  0  0
  7  8  1  0  0  0  0
  8  9  1  0  0  0  0
M  END
>  <CHROM.1>
-151.43945996,59.59151885,-176.68536981,71.56300201,176.43494344,28.94381903
15.91712364,20.62895253,-3.04046586,0.32186611,1.31479821

>  <Name>
ligand

>  <RI>
0

>  <Rbt.Current_Directory>
/home/itssahil/PROJECTS/Mol_Feturizer/New_Systems/rnas/3DIX

>  <Rbt.Executable>
rbdock ($Id: //depot/dev/client3/rdock/2013.1/src/exe/rbdock.cxx#4 $)

>  <Rbt.Library>
libRbt.so (2013.1, Build901 2013/11/27)

>  <Rbt.Parameter_File>
/export/apps/rDock/src/rDock_2013.1_src/data/scripts/dock_solv.prm

>  <Rbt.Receptor>
prm/pocket_docking_3.prm

>  <SCORE>
-8.8775

>  <SCORE.INTER>
-9.31155

>  <SCORE.INTER.CONST>
1

>  <SCORE.INTER.POLAR>
0

>  <SCORE.INTER.ROT>
5

>  <SCORE.INTER.SOLV>
12.2892

>  <SCORE.INTER.VDW>
-17.2374

>  <SCORE.INTER.norm>
-0.931155

>  <SCORE.INTRA>
0.434052

>  <SCORE.INTRA.DIHEDRAL>
-1.08324

>  <SCORE.INTRA.DIHEDRAL.0>
3.281

>  <SCORE.INTRA.POLAR>
0

>  <SCORE.INTRA.POLAR.0>
0

>  <SCORE.INTRA.REPUL>
0

>  <SCORE.INTRA.REPUL.0>
0

>  <SCORE.INTRA.SOLV>
-0.334322

>  <SCORE.INTRA.SOLV.lig_0>
-31.9458

>  <SCORE.INTRA.VDW>
1.14283

>  <SCORE.INTRA.VDW.0>
-0.672612

>  <SCORE.INTRA.norm>
0.0434052

>  <SCORE.RESTR>
0

>  <SCORE.RESTR.CAVITY>
0

>  <SCORE.RESTR.norm>
0

>  <SCORE.SYSTEM>
0

>  <SCORE.SYSTEM.CONST>
0

>  <SCORE.SYSTEM.DIHEDRAL>
0

>  <SCORE.SYSTEM.SOLV>
0

>  <SCORE.SYSTEM.norm>
0

>  <SCORE.heavy>
10

>  <SCORE.norm>
-0.88775

>  <RMSD>
5.267

$$$$
ligand
 OpenBabel11021811473D
libRbt.so/2013.1/901 2013/11/27
 10  9  0  0  0  0  0  0  0  0999 V2000
   27.0150   15.9028   19.2736 N   0  0  0  0  0  0  0  0  0  0  0  0
   28.2118   15.5811   20.1011 C   0  0  2  0  0  0  0  0  0  0  0  0
   27.8197   14.8775   21.3927 C   0  0  0  0  0  0  0  0  0  0  0  0
   28.6043   14.1578   22.0127 O   0  0  0  0  0  0  0  0  0  0  0  0
   29.0258   16.8398   20.3929 C   0  0  0  0  0  0  0  0  0  0  0  0
   30.3628   16.5420   21.0312 C   0  0  0  0  0  0  0  0  0  0  0  0
   31.0913   17.8020   21.4160 C   0  0  0  0  0  0  0  0  0  0  0  0
   32.4972   17.4870   21.8956 C   0  0  0  0  0  0  0  0  0  0  0  0
   33.2247   18.7064   22.3343 N   0  0  0  0  0  0  0  0  0  0  0  0
   26.6990   15.0380   21.8785 O   0  0  0  0  0  0  0  0  0  0  0  0
  2  1  1  1  0  0  0
  2  3  1  0  0  0  0
  2  5  1  0  0  0  0
  3  4  1  0  0  0  0
  3 10  1  0  0  0  0
  5  6  1  0  0  0  0
  6  7  1  0  0  0  0
  7  8  1  0  0  0  0
  8  9  1  0  0  0  0
M  END
>  <CHROM.1>
156.54448625,-170.54688544,-175.06672667,-173.02763019,-177.73691281,29.43679098
16.27107517,21.19908054,2.95175232,0.52004108,2.26764250

>  <Name>
ligand

>  <RI>
0

>  <Rbt.Current_Directory>
/home/itssahil/PROJECTS/Mol_Feturizer/New_Systems/rnas/3DIX

>  <Rbt.Executable>
rbdock ($Id: //depot/dev/client3/rdock/2013.1/src/exe/rbdock.cxx#4 $)

>  <Rbt.Library>
libRbt.so (2013.1, Build901 2013/11/27)

>  <Rbt.Parameter_File>
/export/apps/rDock/src/rDock_2013.1_src/data/scripts/dock_solv.prm

>  <Rbt.Receptor>
prm/blind_docking_100.prm

>  <SCORE>
-7.94442

>  <SCORE.INTER>
-6.46344

>  <SCORE.INTER.CONST>
1

>  <SCORE.INTER.POLAR>
0

>  <SCORE.INTER.ROT>
5

>  <SCORE.INTER.SOLV>
15.6735

>  <SCORE.INTER.VDW>
-16.4668

>  <SCORE.INTER.norm>
-0.646344

>  <SCORE.INTRA>
-1.48098

>  <SCORE.INTRA.DIHEDRAL>
-1.2055

>  <SCORE.INTRA.DIHEDRAL.0>
3.281

>  <SCORE.INTRA.POLAR>
0

>  <SCORE.INTRA.POLAR.0>
0

>  <SCORE.INTRA.REPUL>
0

>  <SCORE.INTRA.REPUL.0>
0

>  <SCORE.INTRA.SOLV>
-1.56044

>  <SCORE.INTRA.SOLV.lig_0>
-31.9458

>  <SCORE.INTRA.VDW>
-0.0980105

>  <SCORE.INTRA.VDW.0>
-0.672612

>  <SCORE.INTRA.norm>
-0.148098

>  <SCORE.RESTR>
0

>  <SCORE.RESTR.CAVITY>
0

>  <SCORE.RESTR.norm>
0

>  <SCORE.SYSTEM>
0

>  <SCORE.SYSTEM.CONST>
0

>  <SCORE.SYSTEM.DIHEDRAL>
0

>  <SCORE.SYSTEM.SOLV>
0

>  <SCORE.SYSTEM.norm>
0

>  <SCORE.heavy>
10

>  <SCORE.norm>
-0.794442

>  <RMSD>
5.268

$$$$
ligand
 OpenBabel11021811473D
libRbt.so/2013.1/901 2013/11/27
 10  9  0  0  0  0  0  0  0  0999 V2000
   27.0668   14.7099   18.3794 N   0  0  0  0  0  0  0  0  0  0  0  0
   27.7206   15.1618   19.6399 C   0  0  2  0  0  0  0  0  0  0  0  0
   26.7299   15.2005   20.7950 C   0  0  0  0  0  0  0  0  0  0  0  0
   25.5120   15.1484   20.6175 O   0  0  0  0  0  0  0  0  0  0  0  0
   28.3874   16.5223   19.4495 C   0  0  0  0  0  0  0  0  0  0  0  0
   29.2682   16.9148   20.6131 C   0  0  0  0  0  0  0  0  0  0  0  0
   30.4456   15.9883   20.7599 C   0  0  0  0  0  0  0  0  0  0  0  0
   31.2557   16.3374   21.9960 C   0  0  0  0  0  0  0  0  0  0  0  0
   31.8419   17.7005   21.9138 N   0  0  0  0  0  0  0  0  0  0  0  0
   27.1274   15.2523   21.9600 O   0  0  0  0  0  0  0  0  0  0  0  0
  2  1  1  6  0  0  0
  2  3  1  0  0  0  0
  2  5  1  0  0  0  0
  3  4  1  0  0  0  0
  3 10  1  0  0  0  0
  5  6  1  0  0  0  0
  6  7  1  0  0  0  0
  7  8  1  0  0  0  0
  8  9  1  0  0  0  0
M  END
>  <CHROM.1>
-14.62697117,-169.81348771,64.83381102,-175.65893393,-62.86995658,28.50494360
15.88926903,20.63577210,-2.82883073,0.35652945,1.50514045

>  <Name>
ligand

>  <RI>
0

>  <Rbt.Current_Directory>
/home/itssahil/PROJECTS/Mol_Feturizer/New_Systems/rnas/3DIX

>  <Rbt.Executable>
rbdock ($Id: //depot/dev/client3/rdock/2013.1/src/exe/rbdock.cxx#4 $)

>  <Rbt.Library>
libRbt.so (2013.1, Build901 2013/11/27)

>  <Rbt.Parameter_File>
/export/apps/rDock/src/rDock_2013.1_src/data/scripts/dock_solv.prm

>  <Rbt.Receptor>
prm/blind_docking_60.prm

>  <SCORE>
-9.59282

>  <SCORE.INTER>
-9.25993

>  <SCORE.INTER.CONST>
1

>  <SCORE.INTER.POLAR>
0

>  <SCORE.INTER.ROT>
5

>  <SCORE.INTER.SOLV>
13.4765

>  <SCORE.INTER.VDW>
-17.5988

>  <SCORE.INTER.norm>
-0.925993

>  <SCORE.INTRA>
-0.332893

>  <SCORE.INTRA.DIHEDRAL>
-1.15022

>  <SCORE.INTRA.DIHEDRAL.0>
3.281

>  <SCORE.INTRA.POLAR>
0

>  <SCORE.INTRA.POLAR.0>
0

>  <SCORE.INTRA.REPUL>
0

>  <SCORE.INTRA.REPUL.0>
0

>  <SCORE.INTRA.SOLV>
-0.315147

>  <SCORE.INTRA.SOLV.lig_0>
-31.9458

>  <SCORE.INTRA.VDW>
0.399792

>  <SCORE.INTRA.VDW.0>
-0.672612

>  <SCORE.INTRA.norm>
-0.0332893

>  <SCORE.RESTR>
0

>  <SCORE.RESTR.CAVITY>
0

>  <SCORE.RESTR.norm>
0

>  <SCORE.SYSTEM>
0

>  <SCORE.SYSTEM.CONST>
0

>  <SCORE.SYSTEM.DIHEDRAL>
0

>  <SCORE.SYSTEM.SOLV>
0

>  <SCORE.SYSTEM.norm>
0

>  <SCORE.heavy>
10

>  <SCORE.norm>
-0.959282

>  <RMSD>
5.269

$$$$
ligand
 OpenBabel11021811473D
libRbt.so/2013.1/901 2013/11/27
 10  9  0  0  0  0  0  0  0  0999 V2000
   27.1919   13.9068   18.5236 N   0  0  0  0  0  0  0  0  0  0  0  0
   27.8853   14.3645   19.7607 C   0  0  2  0  0  0  0  0  0  0  0  0
   26.9421   15.1393   20.6702 C   0  0  0  0  0  0  0  0  0  0  0  0
   25.8956   15.6409   20.2567 O   0  0  0  0  0  0  0  0  0  0  0  0
   29.1171   15.1989   19.4170 C   0  0  0  0  0  0  0  0  0  0  0  0
   29.9629   15.5264   20.6258 C   0  0  0  0  0  0  0  0  0  0  0  0
   31.2530   16.1991   20.2394 C   0  0  0  0  0  0  0  0  0  0  0  0
   32.0158   16.6511   21.4722 C   0  0  0  0  0  0  0  0  0  0  0  0
   31.3042   17.7300   22.2057 N   0  0  0  0  0  0  0  0  0  0  0  0
   27.1877   15.2593   21.8715 O   0  0  0  0  0  0  0  0  0  0  0  0
  2  1  1  6  0  0  0
  2  3  1  0  0  0  0
  2  5  1  0  0  0  0
  3  4  1  0  0  0  0
  3 10  1  0  0  0  0
  5  6  1  0  0  0  0
  6  7  1  0  0  0  0
  7  8  1  0  0  0  0
  8  9  1  0  0  0  0
M  END
>  <CHROM.1>
-19.48761964,-172.01763365,172.92029416,173.94775317,-66.43162048,28.84489776
15.57301019,20.52290852,-2.69805764,0.18986669,0.98978351

>  <Name>
ligand

>  <RI>
0

>  <Rbt.Current_Directory>
/home/itssahil/PROJECTS/Mol_Feturizer/New_Systems/rnas/3DIX

>  <Rbt.Executable>
rbdock ($Id: //depot/dev/client3/rdock/2013.1/src/exe/rbdock.cxx#4 $)

>  <Rbt.Library>
libRbt.so (2013.1, Build901 2013/11/27)

>  <Rbt.Parameter_File>
/export/apps/rDock/src/rDock_2013.1_src/data/scripts/dock_solv.prm

>  <Rbt.Receptor>
prm/pocket_docking_3.prm

>  <SCORE>
-8.109

>  <SCORE.INTER>
-7.39402

>  <SCORE.INTER.CONST>
1

>  <SCORE.INTER.POLAR>
0

>  <SCORE.INTER.ROT>
5

>  <SCORE.INTER.SOLV>
14.8149

>  <SCORE.INTER.VDW>
-16.801

>  <SCORE.INTER.norm>
-0.739402

>  <SCORE.INTRA>
-0.714978

>  <SCORE.INTRA.DIHEDRAL>
-0.981121

>  <SCORE.INTRA.DIHEDRAL.0>
3.281

>  <SCORE.INTRA.POLAR>
0

>  <SCORE.INTRA.POLAR.0>
0

>  <SCORE.INTRA.REPUL>
0

>  <SCORE.INTRA.REPUL.0>
0

>  <SCORE.INTRA.SOLV>
-0.626465

>  <SCORE.INTRA.SOLV.lig_0>
-31.9458

>  <SCORE.INTRA.VDW>
0.0888146

>  <SCORE.INTRA.VDW.0>
-0.672612

>  <SCORE.INTRA.norm>
-0.0714978

>  <SCORE.RESTR>
0

>  <SCORE.RESTR.CAVITY>
0

>  <SCORE.RESTR.norm>
0

>  <SCORE.SYSTEM>
0

>  <SCORE.SYSTEM.CONST>
0

>  <SCORE.SYSTEM.DIHEDRAL>
0

>  <SCORE.SYSTEM.SOLV>
0

>  <SCORE.SYSTEM.norm>
0

>  <SCORE.heavy>
10

>  <SCORE.norm>
-0.8109

>  <RMSD>
5.270

$$$$
ligand
 OpenBabel11021811473D
libRbt.so/2013.1/901 2013/11/27
 10  9  0  0  0  0  0  0  0  0999 V2000
   26.7798   16.5466   19.4918 N   0  0  0  0  0  0  0  0  0  0  0  0
   27.8572   15.5708   19.1636 C   0  0  2  0  0  0  0  0  0  0  0  0
   27.6751   14.9933   17.7670 C   0  0  0  0  0  0  0  0  0  0  0  0
   27.0096   13.9779   17.5579 O   0  0  0  0  0  0  0  0  0  0  0  0
   27.9205   14.4586   20.2080 C   0  0  0  0  0  0  0  0  0  0  0  0
   28.3029   14.9609   21.5811 C   0  0  0  0  0  0  0  0  0  0  0  0
   29.7806   15.2281   21.6867 C   0  0  0  0  0  0  0  0  0  0  0  0
   30.1369   16.5532   21.0363 C   0  0  0  0  0  0  0  0  0  0  0  0
   31.5826   16.8705   21.1692 N   0  0  0  0  0  0  0  0  0  0  0  0
   28.1694   15.5541   16.7876 O   0  0  0  0  0  0  0  0  0  0  0  0
  2  1  1  1  0  0  0
  2  3  1  0  0  0  0
  2  5  1  0  0  0  0
  3  4  1  0  0  0  0
  3 10  1  0  0  0  0
  5  6  1  0  0  0  0
  6  7  1  0  0  0  0
  7  8  1  0  0  0  0
  8  9  1  0  0  0  0
M  END
>  <CHROM.1>
-89.45596107,-64.25511808,-77.48898585,78.60263170,177.84353143,28.51203601
15.45743963,19.60587771,2.33804252,-0.54373807,-1.41421461

>  <Name>
ligand

>  <RI>
0

>  <Rbt.Current_Directory>
/home/itssahil/PROJECTS/Mol_Feturizer/New_Systems/rnas/3DIX

>  <Rbt.Executable>
rbdock ($Id: //depot/dev/client3/rdock/2013.1/src/exe/rbdock.cxx#4 $)

>  <Rbt.Library>
libRbt.so (2013.1, Build901 2013/11/27)

>  <Rbt.Parameter_File>
/export/apps/rDock/src/rDock_2013.1_src/data/scripts/dock_solv.prm

>  <Rbt.Receptor>
prm/pocket_docking_5.prm

>  <SCORE>
-7.73243

>  <SCORE.INTER>
-9.30291

>  <SCORE.INTER.CONST>
1

>  <SCORE.INTER.POLAR>
0

>  <SCORE.INTER.ROT>
5

>  <SCORE.INTER.SOLV>
14.0305

>  <SCORE.INTER.VDW>
-17.8121

>  <SCORE.INTER.norm>
-0.930291

>  <SCORE.INTRA>
1.57048

>  <SCORE.INTRA.DIHEDRAL>
0.775635

>  <SCORE.INTRA.DIHEDRAL.0>
3.281

>  <SCORE.INTRA.POLAR>
0

>  <SCORE.INTRA.POLAR.0>
0

>  <SCORE.INTRA.REPUL>
0

>  <SCORE.INTRA.REPUL.0>
0

>  <SCORE.INTRA.SOLV>
0.725671

>  <SCORE.INTRA.SOLV.lig_0>
-31.9458

>  <SCORE.INTRA.VDW>
0.81983

>  <SCORE.INTRA.VDW.0>
-0.672612

>  <SCORE.INTRA.norm>
0.157048

>  <SCORE.RESTR>
0

>  <SCORE.RESTR.CAVITY>
0

>  <SCORE.RESTR.norm>
0

>  <SCORE.SYSTEM>
0

>  <SCORE.SYSTEM.CONST>
0

>  <SCORE.SYSTEM.DIHEDRAL>
0

>  <SCORE.SYSTEM.SOLV>
0

>  <SCORE.SYSTEM.norm>
0

>  <SCORE.heavy>
10

>  <SCORE.norm>
-0.773243

>  <RMSD>
5.271

$$$$
ligand
 OpenBabel11021811473D
libRbt.so/2013.1/901 2013/11/27
 10  9  0  0  0  0  0  0  0  0999 V2000
   27.5886   14.7089   18.5902 N   0  0  0  0  0  0  0  0  0  0  0  0
   27.8897   14.5251   20.0380 C   0  0  2  0  0  0  0  0  0  0  0  0
   26.7855   15.1037   20.9115 C   0  0  0  0  0  0  0  0  0  0  0  0
   26.9513   15.3393   22.1093 O   0  0  0  0  0  0  0  0  0  0  0  0
   29.2424   15.1376   20.3943 C   0  0  0  0  0  0  0  0  0  0  0  0
   29.3316   16.6074   20.0542 C   0  0  0  0  0  0  0  0  0  0  0  0
   30.7093   17.1575   20.3102 C   0  0  0  0  0  0  0  0  0  0  0  0
   30.9785   17.2653   21.8008 C   0  0  0  0  0  0  0  0  0  0  0  0
   32.3150   17.8489   22.0868 N   0  0  0  0  0  0  0  0  0  0  0  0
   25.6883   15.3876   20.4285 O   0  0  0  0  0  0  0  0  0  0  0  0
  2  1  1  6  0  0  0
  2  3  1  0  0  0  0
  2  5  1  0  0  0  0
  3  4  1  0  0  0  0
  3 10  1  0  0  0  0
  5  6  1  0  0  0  0
  6  7  1  0  0  0  0
  7  8  1  0  0  0  0
  8  9  1  0  0  0  0
M  END
>  <CHROM.1>
-163.14357764,57.24102645,-175.30631631,-71.65194917,-178.06772878,28.71393135
15.91415690,20.69025032,-2.79521351,0.38318789,1.23148221

>  <Name>
ligand

>  <RI>
0

>  <Rbt.Current_Directory>
/home/itssahil/PROJECTS/Mol_Feturizer/New_Systems/rnas/3DIX

>  <Rbt.Executable>
rbdock ($Id: //depot/dev/client3/rdock/2013.1/src/exe/rbdock.cxx#4 $)

>  <Rbt.Library>
libRbt.so (2013.1, Build901 2013/11/27)

>  <Rbt.Parameter_File>
/export/apps/rDock/src/rDock_2013.1_src/data/scripts/dock_solv.prm

>  <Rbt.Receptor>
prm/pocket_docking_5.prm

>  <SCORE>
-8.20613

>  <SCORE.INTER>
-8.45008

>  <SCORE.INTER.CONST>
1

>  <SCORE.INTER.POLAR>
0

>  <SCORE.INTER.ROT>
5

>  <SCORE.INTER.SOLV>
12.5933

>  <SCORE.INTER.VDW>
-16.7645

>  <SCORE.INTER.norm>
-0.845008

>  <SCORE.INTRA>
0.243947

>  <SCORE.INTRA.DIHEDRAL>
-1.04716

>  <SCORE.INTRA.DIHEDRAL.0>
3.281

>  <SCORE.INTRA.POLAR>
0

>  <SCORE.INTRA.POLAR.0>
0

>  <SCORE.INTRA.REPUL>
0

>  <SCORE.INTRA.REPUL.0>
0

>  <SCORE.INTRA.SOLV>
-0.345837

>  <SCORE.INTRA.SOLV.lig_0>
-31.9458

>  <SCORE.INTRA.VDW>
0.940446

>  <SCORE.INTRA.VDW.0>
-0.672612

>  <SCORE.INTRA.norm>
0.0243947

>  <SCORE.RESTR>
0

>  <SCORE.RESTR.CAVITY>
0

>  <SCORE.RESTR.norm>
0

>  <SCORE.SYSTEM>
0

>  <SCORE.SYSTEM.CONST>
0

>  <SCORE.SYSTEM.DIHEDRAL>
0

>  <SCORE.SYSTEM.SOLV>
0

>  <SCORE.SYSTEM.norm>
0

>  <SCORE.heavy>
10

>  <SCORE.norm>
-0.820613

>  <RMSD>
5.273

$$$$
ligand
 OpenBabel11021811473D
libRbt.so/2013.1/901 2013/11/27
 10  9  0  0  0  0  0  0  0  0999 V2000
   27.0788   14.7607   18.3225 N   0  0  0  0  0  0  0  0  0  0  0  0
   27.7232   15.2025   19.5915 C   0  0  2  0  0  0  0  0  0  0  0  0
   26.7261   15.2228   20.7416 C   0  0  0  0  0  0  0  0  0  0  0  0
   27.0833   15.2806   21.9192 O   0  0  0  0  0  0  0  0  0  0  0  0
   28.3831   16.5688   19.4196 C   0  0  0  0  0  0  0  0  0  0  0  0
   29.2614   16.9502   20.5887 C   0  0  0  0  0  0  0  0  0  0  0  0
   30.4454   16.0299   20.7216 C   0  0  0  0  0  0  0  0  0  0  0  0
   31.2532   16.3663   21.9627 C   0  0  0  0  0  0  0  0  0  0  0  0
   31.8698   17.7159   21.8798 N   0  0  0  0  0  0  0  0  0  0  0  0
   25.5142   15.2154   20.5204 O   0  0  0  0  0  0  0  0  0  0  0  0
  2  1  1  6  0  0  0
  2  3  1  0  0  0  0
  2  5  1  0  0  0  0
  3  4  1  0  0  0  0
  3 10  1  0  0  0  0
  5  6  1  0  0  0  0
  6  7  1  0  0  0  0
  7  8  1  0  0  0  0
  8  9  1  0  0  0  0
M  END
>  <CHROM.1>
164.44676679,-169.49665938,64.97566825,-175.65690657,-64.90129623,28.50269264
15.92744482,20.58962174,-2.82538909,0.35178835,1.50728326

>  <Name>
ligand

>  <RI>
0

>  <Rbt.Current_Directory>
/home/itssahil/PROJECTS/Mol_Feturizer/New_Systems/rnas/3DIX

>  <Rbt.Executable>
rbdock ($Id: //depot/dev/client3/rdock/2013.1/src/exe/rbdock.cxx#4 $)

>  <Rbt.Library>
libRbt.so (2013.1, Build901 2013/11/27)

>  <Rbt.Parameter_File>
/export/apps/rDock/src/rDock_2013.1_src/data/scripts/dock_solv.prm

>  <Rbt.Receptor>
prm/pocket_docking_7.prm

>  <SCORE>
-9.61779

>  <SCORE.INTER>
-9.22828

>  <SCORE.INTER.CONST>
1

>  <SCORE.INTER.POLAR>
0

>  <SCORE.INTER.ROT>
5

>  <SCORE.INTER.SOLV>
13.5457

>  <SCORE.INTER.VDW>
-17.6007

>  <SCORE.INTER.norm>
-0.922828

>  <SCORE.INTRA>
-0.389509

>  <SCORE.INTRA.DIHEDRAL>
-1.16559

>  <SCORE.INTRA.DIHEDRAL.0>
3.281

>  <SCORE.INTRA.POLAR>
0

>  <SCORE.INTRA.POLAR.0>
0

>  <SCORE.INTRA.REPUL>
0

>  <SCORE.INTRA.REPUL.0>
0

>  <SCORE.INTRA.SOLV>
-0.33612

>  <SCORE.INTRA.SOLV.lig_0>
-31.9458

>  <SCORE.INTRA.VDW>
0.361345

>  <SCORE.INTRA.VDW.0>
-0.672612

>  <SCORE.INTRA.norm>
-0.0389509

>  <SCORE.RESTR>
0

>  <SCORE.RESTR.CAVITY>
0

>  <SCORE.RESTR.norm>
0

>  <SCORE.SYSTEM>
0

>  <SCORE.SYSTEM.CONST>
0

>  <SCORE.SYSTEM.DIHEDRAL>
0

>  <SCORE.SYSTEM.SOLV>
0

>  <SCORE.SYSTEM.norm>
0

>  <SCORE.heavy>
10

>  <SCORE.norm>
-0.961779

>  <RMSD>
5.274

$$$$
ligand
 OpenBabel11021811473D
libRbt.so/2013.1/901 2013/11/27
 10  9  0  0  0  0  0  0  0  0999 V2000
   27.0799   14.6754   18.2275 N   0  0  0  0  0  0  0  0  0  0  0  0
   27.7287   15.0989   19.5005 C   0  0  2  0  0  0  0  0  0  0  0  0
   26.7496   15.0488   20.6649 C   0  0  0  0  0  0  0  0  0  0  0  0
   25.5378   15.2084   20.5112 O   0  0  0  0  0  0  0  0  0  0  0  0
   28.3393   16.4918   19.3628 C   0  0  0  0  0  0  0  0  0  0  0  0
   29.1822   16.8859   20.5536 C   0  0  0  0  0  0  0  0  0  0  0  0
   30.3849   15.9936   20.7066 C   0  0  0  0  0  0  0  0  0  0  0  0
   31.1817   16.3699   21.9433 C   0  0  0  0  0  0  0  0  0  0  0  0
   31.7923   17.7197   21.8258 N   0  0  0  0  0  0  0  0  0  0  0  0
   27.1457   14.8103   21.8069 O   0  0  0  0  0  0  0  0  0  0  0  0
  2  1  1  6  0  0  0
  2  3  1  0  0  0  0
  2  5  1  0  0  0  0
  3  4  1  0  0  0  0
  3 10  1  0  0  0  0
  5  6  1  0  0  0  0
  6  7  1  0  0  0  0
  7  8  1  0  0  0  0
  8  9  1  0  0  0  0
M  END
>  <CHROM.1>
-28.56992149,-171.56838438,63.98437462,-177.49044832,-66.03940815,28.48203301
15.82359729,20.53357996,-2.84909410,0.40871740,1.59553465

>  <Name>
ligand

>  <RI>
0

>  <Rbt.Current_Directory>
/home/itssahil/PROJECTS/Mol_Feturizer/New_Systems/rnas/3DIX

>  <Rbt.Executable>
rbdock ($Id: //depot/dev/client3/rdock/2013.1/src/exe/rbdock.cxx#4 $)

>  <Rbt.Library>
libRbt.so (2013.1, Build901 2013/11/27)

>  <Rbt.Parameter_File>
/export/apps/rDock/src/rDock_2013.1_src/data/scripts/dock_solv.prm

>  <Rbt.Receptor>
prm/pocket_docking_5.prm

>  <SCORE>
-9.50328

>  <SCORE.INTER>
-8.94098

>  <SCORE.INTER.CONST>
1

>  <SCORE.INTER.POLAR>
0

>  <SCORE.INTER.ROT>
5

>  <SCORE.INTER.SOLV>
13.9223

>  <SCORE.INTER.VDW>
-17.5347

>  <SCORE.INTER.norm>
-0.894098

>  <SCORE.INTRA>
-0.562301

>  <SCORE.INTRA.DIHEDRAL>
-1.23198

>  <SCORE.INTRA.DIHEDRAL.0>
3.281

>  <SCORE.INTRA.POLAR>
0

>  <SCORE.INTRA.POLAR.0>
0

>  <SCORE.INTRA.REPUL>
0

>  <SCORE.INTRA.REPUL.0>
0

>  <SCORE.INTRA.SOLV>
-0.36453

>  <SCORE.INTRA.SOLV.lig_0>
-31.9458

>  <SCORE.INTRA.VDW>
0.235956

>  <SCORE.INTRA.VDW.0>
-0.672612

>  <SCORE.INTRA.norm>
-0.0562301

>  <SCORE.RESTR>
0

>  <SCORE.RESTR.CAVITY>
0

>  <SCORE.RESTR.norm>
0

>  <SCORE.SYSTEM>
0

>  <SCORE.SYSTEM.CONST>
0

>  <SCORE.SYSTEM.DIHEDRAL>
0

>  <SCORE.SYSTEM.SOLV>
0

>  <SCORE.SYSTEM.norm>
0

>  <SCORE.heavy>
10

>  <SCORE.norm>
-0.950328

>  <RMSD>
5.277

$$$$
ligand
 OpenBabel11021811473D
libRbt.so/2013.1/901 2013/11/27
 10  9  0  0  0  0  0  0  0  0999 V2000
   27.0692   14.6688   18.4127 N   0  0  0  0  0  0  0  0  0  0  0  0
   27.7171   15.1328   19.6718 C   0  0  2  0  0  0  0  0  0  0  0  0
   26.7247   15.1674   20.8256 C   0  0  0  0  0  0  0  0  0  0  0  0
   25.5072   15.1106   20.6463 O   0  0  0  0  0  0  0  0  0  0  0  0
   28.3712   16.4986   19.4758 C   0  0  0  0  0  0  0  0  0  0  0  0
   29.2550   16.9003   20.6340 C   0  0  0  0  0  0  0  0  0  0  0  0
   30.4467   15.9905   20.7692 C   0  0  0  0  0  0  0  0  0  0  0  0
   31.2838   16.3741   21.9768 C   0  0  0  0  0  0  0  0  0  0  0  0
   31.8765   17.7299   21.8383 N   0  0  0  0  0  0  0  0  0  0  0  0
   27.1204   15.2207   21.9911 O   0  0  0  0  0  0  0  0  0  0  0  0
  2  1  1  6  0  0  0
  2  3  1  0  0  0  0
  2  5  1  0  0  0  0
  3  4  1  0  0  0  0
  3 10  1  0  0  0  0
  5  6  1  0  0  0  0
  6  7  1  0  0  0  0
  7  8  1  0  0  0  0
  8  9  1  0  0  0  0
M  END
>  <CHROM.1>
-15.04646567,-169.38717555,65.27186279,-177.36669088,-64.15582372,28.50650466
15.87483062,20.64762830,-2.84395004,0.36517361,1.50081450

>  <Name>
ligand

>  <RI>
0

>  <Rbt.Current_Directory>
/home/itssahil/PROJECTS/Mol_Feturizer/New_Systems/rnas/3DIX

>  <Rbt.Executable>
rbdock ($Id: //depot/dev/client3/rdock/2013.1/src/exe/rbdock.cxx#4 $)

>  <Rbt.Library>
libRbt.so (2013.1, Build901 2013/11/27)

>  <Rbt.Parameter_File>
/export/apps/rDock/src/rDock_2013.1_src/data/scripts/dock_solv.prm

>  <Rbt.Receptor>
prm/pocket_docking_3.prm

>  <SCORE>
-9.59264

>  <SCORE.INTER>
-9.23267

>  <SCORE.INTER.CONST>
1

>  <SCORE.INTER.POLAR>
0

>  <SCORE.INTER.ROT>
5

>  <SCORE.INTER.SOLV>
13.5113

>  <SCORE.INTER.VDW>
-17.5922

>  <SCORE.INTER.norm>
-0.923267

>  <SCORE.INTRA>
-0.359966

>  <SCORE.INTRA.DIHEDRAL>
-1.11392

>  <SCORE.INTRA.DIHEDRAL.0>
3.281

>  <SCORE.INTRA.POLAR>
0

>  <SCORE.INTRA.POLAR.0>
0

>  <SCORE.INTRA.REPUL>
0

>  <SCORE.INTRA.REPUL.0>
0

>  <SCORE.INTRA.SOLV>
-0.325074

>  <SCORE.INTRA.SOLV.lig_0>
-31.9458

>  <SCORE.INTRA.VDW>
0.359533

>  <SCORE.INTRA.VDW.0>
-0.672612

>  <SCORE.INTRA.norm>
-0.0359966

>  <SCORE.RESTR>
0

>  <SCORE.RESTR.CAVITY>
0

>  <SCORE.RESTR.norm>
0

>  <SCORE.SYSTEM>
0

>  <SCORE.SYSTEM.CONST>
0

>  <SCORE.SYSTEM.DIHEDRAL>
0

>  <SCORE.SYSTEM.SOLV>
0

>  <SCORE.SYSTEM.norm>
0

>  <SCORE.heavy>
10

>  <SCORE.norm>
-0.959264

>  <RMSD>
5.279

$$$$
ligand
 OpenBabel11021811473D
libRbt.so/2013.1/901 2013/11/27
 10  9  0  0  0  0  0  0  0  0999 V2000
   27.0442   14.6610   18.3983 N   0  0  0  0  0  0  0  0  0  0  0  0
   27.6974   15.1407   19.6488 C   0  0  2  0  0  0  0  0  0  0  0  0
   26.7082   15.1966   20.8044 C   0  0  0  0  0  0  0  0  0  0  0  0
   25.4900   15.1421   20.6292 O   0  0  0  0  0  0  0  0  0  0  0  0
   28.3567   16.5007   19.4309 C   0  0  0  0  0  0  0  0  0  0  0  0
   29.2490   16.9135   20.5787 C   0  0  0  0  0  0  0  0  0  0  0  0
   30.4222   15.9836   20.7367 C   0  0  0  0  0  0  0  0  0  0  0  0
   31.2610   16.3736   21.9410 C   0  0  0  0  0  0  0  0  0  0  0  0
   31.8986   17.7052   21.7708 N   0  0  0  0  0  0  0  0  0  0  0  0
   27.1071   15.2657   21.9680 O   0  0  0  0  0  0  0  0  0  0  0  0
  2  1  1  6  0  0  0
  2  3  1  0  0  0  0
  2  5  1  0  0  0  0
  3  4  1  0  0  0  0
  3 10  1  0  0  0  0
  5  6  1  0  0  0  0
  6  7  1  0  0  0  0
  7  8  1  0  0  0  0
  8  9  1  0  0  0  0
M  END
>  <CHROM.1>
-15.03473821,-169.18575500,64.11418836,-176.89457913,-65.09171189,28.49278883
15.88428097,20.61428233,-2.84762955,0.35688800,1.49371388

>  <Name>
ligand

>  <RI>
0

>  <Rbt.Current_Directory>
/home/itssahil/PROJECTS/Mol_Feturizer/New_Systems/rnas/3DIX

>  <Rbt.Executable>
rbdock ($Id: //depot/dev/client3/rdock/2013.1/src/exe/rbdock.cxx#4 $)

>  <Rbt.Library>
libRbt.so (2013.1, Build901 2013/11/27)

>  <Rbt.Parameter_File>
/export/apps/rDock/src/rDock_2013.1_src/data/scripts/dock_solv.prm

>  <Rbt.Receptor>
prm/pocket_docking_4.prm

>  <SCORE>
-9.59745

>  <SCORE.INTER>
-9.25175

>  <SCORE.INTER.CONST>
1

>  <SCORE.INTER.POLAR>
0

>  <SCORE.INTER.ROT>
5

>  <SCORE.INTER.SOLV>
13.539

>  <SCORE.INTER.VDW>
-17.6142

>  <SCORE.INTER.norm>
-0.925175

>  <SCORE.INTRA>
-0.345707

>  <SCORE.INTRA.DIHEDRAL>
-1.09947

>  <SCORE.INTRA.DIHEDRAL.0>
3.281

>  <SCORE.INTRA.POLAR>
0

>  <SCORE.INTRA.POLAR.0>
0

>  <SCORE.INTRA.REPUL>
0

>  <SCORE.INTRA.REPUL.0>
0

>  <SCORE.INTRA.SOLV>
-0.332916

>  <SCORE.INTRA.SOLV.lig_0>
-31.9458

>  <SCORE.INTRA.VDW>
0.370484

>  <SCORE.INTRA.VDW.0>
-0.672612

>  <SCORE.INTRA.norm>
-0.0345707

>  <SCORE.RESTR>
0

>  <SCORE.RESTR.CAVITY>
0

>  <SCORE.RESTR.norm>
0

>  <SCORE.SYSTEM>
0

>  <SCORE.SYSTEM.CONST>
0

>  <SCORE.SYSTEM.DIHEDRAL>
0

>  <SCORE.SYSTEM.SOLV>
0

>  <SCORE.SYSTEM.norm>
0

>  <SCORE.heavy>
10

>  <SCORE.norm>
-0.959745

>  <RMSD>
5.280

$$$$
ligand
 OpenBabel11021811473D
libRbt.so/2013.1/901 2013/11/27
 10  9  0  0  0  0  0  0  0  0999 V2000
   28.0432   15.8625   18.6938 N   0  0  0  0  0  0  0  0  0  0  0  0
   28.2138   15.5725   20.1455 C   0  0  2  0  0  0  0  0  0  0  0  0
   26.8731   15.3240   20.8222 C   0  0  0  0  0  0  0  0  0  0  0  0
   26.7812   15.0716   22.0245 O   0  0  0  0  0  0  0  0  0  0  0  0
   28.9728   16.7009   20.8401 C   0  0  0  0  0  0  0  0  0  0  0  0
   30.3188   16.9795   20.2120 C   0  0  0  0  0  0  0  0  0  0  0  0
   31.2636   15.8193   20.3778 C   0  0  0  0  0  0  0  0  0  0  0  0
   32.6158   16.1328   19.7619 C   0  0  0  0  0  0  0  0  0  0  0  0
   33.3156   17.2308   20.4785 N   0  0  0  0  0  0  0  0  0  0  0  0
   25.8237   15.4028   20.1817 O   0  0  0  0  0  0  0  0  0  0  0  0
  2  1  1  6  0  0  0
  2  3  1  0  0  0  0
  2  5  1  0  0  0  0
  3  4  1  0  0  0  0
  3 10  1  0  0  0  0
  5  6  1  0  0  0  0
  6  7  1  0  0  0  0
  7  8  1  0  0  0  0
  8  9  1  0  0  0  0
M  END
>  <CHROM.1>
-179.66571233,-56.27105396,-65.68851236,-178.94566008,65.85253001,29.18088058
16.00083248,20.36976563,3.04251197,0.20909716,1.65248997

>  <Name>
ligand

>  <RI>
0

>  <Rbt.Current_Directory>
/home/itssahil/PROJECTS/Mol_Feturizer/New_Systems/rnas/3DIX

>  <Rbt.Executable>
rbdock ($Id: //depot/dev/client3/rdock/2013.1/src/exe/rbdock.cxx#4 $)

>  <Rbt.Library>
libRbt.so (2013.1, Build901 2013/11/27)

>  <Rbt.Parameter_File>
/export/apps/rDock/src/rDock_2013.1_src/data/scripts/dock_solv.prm

>  <Rbt.Receptor>
prm/pocket_docking_3.prm

>  <SCORE>
-9.02322

>  <SCORE.INTER>
-9.29872

>  <SCORE.INTER.CONST>
1

>  <SCORE.INTER.POLAR>
0

>  <SCORE.INTER.ROT>
5

>  <SCORE.INTER.SOLV>
12.6986

>  <SCORE.INTER.VDW>
-17.3654

>  <SCORE.INTER.norm>
-0.929872

>  <SCORE.INTRA>
0.275497

>  <SCORE.INTRA.DIHEDRAL>
-1.47926

>  <SCORE.INTRA.DIHEDRAL.0>
3.281

>  <SCORE.INTRA.POLAR>
0

>  <SCORE.INTRA.POLAR.0>
0

>  <SCORE.INTRA.REPUL>
0

>  <SCORE.INTRA.REPUL.0>
0

>  <SCORE.INTRA.SOLV>
0.894631

>  <SCORE.INTRA.SOLV.lig_0>
-31.9458

>  <SCORE.INTRA.VDW>
0.567812

>  <SCORE.INTRA.VDW.0>
-0.672612

>  <SCORE.INTRA.norm>
0.0275497

>  <SCORE.RESTR>
0

>  <SCORE.RESTR.CAVITY>
0

>  <SCORE.RESTR.norm>
0

>  <SCORE.SYSTEM>
0

>  <SCORE.SYSTEM.CONST>
0

>  <SCORE.SYSTEM.DIHEDRAL>
0

>  <SCORE.SYSTEM.SOLV>
0

>  <SCORE.SYSTEM.norm>
0

>  <SCORE.heavy>
10

>  <SCORE.norm>
-0.902322

>  <RMSD>
5.281

$$$$
ligand
 OpenBabel11021811473D
libRbt.so/2013.1/901 2013/11/27
 10  9  0  0  0  0  0  0  0  0999 V2000
   27.1055   14.6596   18.2899 N   0  0  0  0  0  0  0  0  0  0  0  0
   27.7271   15.1220   19.5628 C   0  0  2  0  0  0  0  0  0  0  0  0
   26.7114   15.1535   20.6961 C   0  0  0  0  0  0  0  0  0  0  0  0
   27.0464   15.0905   21.8800 O   0  0  0  0  0  0  0  0  0  0  0  0
   28.3835   16.4890   19.3826 C   0  0  0  0  0  0  0  0  0  0  0  0
   29.2377   16.8925   20.5621 C   0  0  0  0  0  0  0  0  0  0  0  0
   30.4200   15.9768   20.7350 C   0  0  0  0  0  0  0  0  0  0  0  0
   31.2361   16.3737   21.9525 C   0  0  0  0  0  0  0  0  0  0  0  0
   31.8790   17.7032   21.7855 N   0  0  0  0  0  0  0  0  0  0  0  0
   25.5093   15.2782   20.4570 O   0  0  0  0  0  0  0  0  0  0  0  0
  2  1  1  6  0  0  0
  2  3  1  0  0  0  0
  2  5  1  0  0  0  0
  3  4  1  0  0  0  0
  3 10  1  0  0  0  0
  5  6  1  0  0  0  0
  6  7  1  0  0  0  0
  7  8  1  0  0  0  0
  8  9  1  0  0  0  0
M  END
>  <CHROM.1>
156.81254896,-169.66179572,64.71895531,-178.09182264,-66.09745075,28.49409129
15.87020136,20.55287571,-2.82884147,0.35990980,1.51073061

>  <Name>
ligand

>  <RI>
0

>  <Rbt.Current_Directory>
/home/itssahil/PROJECTS/Mol_Feturizer/New_Systems/rnas/3DIX

>  <Rbt.Executable>
rbdock ($Id: //depot/dev/client3/rdock/2013.1/src/exe/rbdock.cxx#4 $)

>  <Rbt.Library>
libRbt.so (2013.1, Build901 2013/11/27)

>  <Rbt.Parameter_File>
/export/apps/rDock/src/rDock_2013.1_src/data/scripts/dock_solv.prm

>  <Rbt.Receptor>
prm/blind_docking_60.prm

>  <SCORE>
-9.59925

>  <SCORE.INTER>
-9.07535

>  <SCORE.INTER.CONST>
1

>  <SCORE.INTER.POLAR>
0

>  <SCORE.INTER.ROT>
5

>  <SCORE.INTER.SOLV>
13.5927

>  <SCORE.INTER.VDW>
-17.5145

>  <SCORE.INTER.norm>
-0.907535

>  <SCORE.INTRA>
-0.523902

>  <SCORE.INTRA.DIHEDRAL>
-1.2154

>  <SCORE.INTRA.DIHEDRAL.0>
3.281

>  <SCORE.INTRA.POLAR>
0

>  <SCORE.INTRA.POLAR.0>
0

>  <SCORE.INTRA.REPUL>
0

>  <SCORE.INTRA.REPUL.0>
0

>  <SCORE.INTRA.SOLV>
-0.346277

>  <SCORE.INTRA.SOLV.lig_0>
-31.9458

>  <SCORE.INTRA.VDW>
0.256936

>  <SCORE.INTRA.VDW.0>
-0.672612

>  <SCORE.INTRA.norm>
-0.0523902

>  <SCORE.RESTR>
0

>  <SCORE.RESTR.CAVITY>
0

>  <SCORE.RESTR.norm>
0

>  <SCORE.SYSTEM>
0

>  <SCORE.SYSTEM.CONST>
0

>  <SCORE.SYSTEM.DIHEDRAL>
0

>  <SCORE.SYSTEM.SOLV>
0

>  <SCORE.SYSTEM.norm>
0

>  <SCORE.heavy>
10

>  <SCORE.norm>
-0.959925

>  <RMSD>
5.284

$$$$
ligand
 OpenBabel11021811473D
libRbt.so/2013.1/901 2013/11/27
 10  9  0  0  0  0  0  0  0  0999 V2000
   27.0117   14.8227   21.6927 N   0  0  0  0  0  0  0  0  0  0  0  0
   27.9047   15.8489   21.0843 C   0  0  2  0  0  0  0  0  0  0  0  0
   27.3893   16.2953   19.7233 C   0  0  0  0  0  0  0  0  0  0  0  0
   27.7650   17.3400   19.1894 O   0  0  0  0  0  0  0  0  0  0  0  0
   29.3373   15.3305   20.9801 C   0  0  0  0  0  0  0  0  0  0  0  0
   30.3278   16.4079   20.6035 C   0  0  0  0  0  0  0  0  0  0  0  0
   31.7159   15.8532   20.4256 C   0  0  0  0  0  0  0  0  0  0  0  0
   32.7125   16.9682   20.1618 C   0  0  0  0  0  0  0  0  0  0  0  0
   32.8526   17.8801   21.3269 N   0  0  0  0  0  0  0  0  0  0  0  0
   26.5944   15.5955   19.0939 O   0  0  0  0  0  0  0  0  0  0  0  0
  2  1  1  6  0  0  0
  2  3  1  0  0  0  0
  2  5  1  0  0  0  0
  3  4  1  0  0  0  0
  3 10  1  0  0  0  0
  5  6  1  0  0  0  0
  6  7  1  0  0  0  0
  7  8  1  0  0  0  0
  8  9  1  0  0  0  0
M  END
>  <CHROM.1>
162.03019406,-169.70107796,-176.50536158,-175.28906891,65.05074316,29.33853213
16.24259592,20.39725912,-3.08234700,-0.24839057,-0.85868520

>  <Name>
ligand

>  <RI>
0

>  <Rbt.Current_Directory>
/home/itssahil/PROJECTS/Mol_Feturizer/New_Systems/rnas/3DIX

>  <Rbt.Executable>
rbdock ($Id: //depot/dev/client3/rdock/2013.1/src/exe/rbdock.cxx#4 $)

>  <Rbt.Library>
libRbt.so (2013.1, Build901 2013/11/27)

>  <Rbt.Parameter_File>
/export/apps/rDock/src/rDock_2013.1_src/data/scripts/dock_solv.prm

>  <Rbt.Receptor>
prm/pocket_docking_3.prm

>  <SCORE>
-7.68534

>  <SCORE.INTER>
-6.84297

>  <SCORE.INTER.CONST>
1

>  <SCORE.INTER.POLAR>
0

>  <SCORE.INTER.ROT>
5

>  <SCORE.INTER.SOLV>
17.6851

>  <SCORE.INTER.VDW>
-17.3904

>  <SCORE.INTER.norm>
-0.684297

>  <SCORE.INTRA>
-0.842369

>  <SCORE.INTRA.DIHEDRAL>
-1.21897

>  <SCORE.INTRA.DIHEDRAL.0>
3.281

>  <SCORE.INTRA.POLAR>
0

>  <SCORE.INTRA.POLAR.0>
0

>  <SCORE.INTRA.REPUL>
0

>  <SCORE.INTRA.REPUL.0>
0

>  <SCORE.INTRA.SOLV>
-0.606689

>  <SCORE.INTRA.SOLV.lig_0>
-31.9458

>  <SCORE.INTRA.VDW>
0.0704622

>  <SCORE.INTRA.VDW.0>
-0.672612

>  <SCORE.INTRA.norm>
-0.0842369

>  <SCORE.RESTR>
0

>  <SCORE.RESTR.CAVITY>
0

>  <SCORE.RESTR.norm>
0

>  <SCORE.SYSTEM>
0

>  <SCORE.SYSTEM.CONST>
0

>  <SCORE.SYSTEM.DIHEDRAL>
0

>  <SCORE.SYSTEM.SOLV>
0

>  <SCORE.SYSTEM.norm>
0

>  <SCORE.heavy>
10

>  <SCORE.norm>
-0.768534

>  <RMSD>
5.284

$$$$
ligand
 OpenBabel11021811473D
libRbt.so/2013.1/901 2013/11/27
 10  9  0  0  0  0  0  0  0  0999 V2000
   28.2438   14.0242   20.4666 N   0  0  0  0  0  0  0  0  0  0  0  0
   27.8264   15.3330   21.0441 C   0  0  2  0  0  0  0  0  0  0  0  0
   27.0908   16.1824   20.0173 C   0  0  0  0  0  0  0  0  0  0  0  0
   27.6197   17.1474   19.4633 O   0  0  0  0  0  0  0  0  0  0  0  0
   29.0280   16.0851   21.6118 C   0  0  0  0  0  0  0  0  0  0  0  0
   30.1789   16.1785   20.6369 C   0  0  0  0  0  0  0  0  0  0  0  0
   31.3752   16.8577   21.2482 C   0  0  0  0  0  0  0  0  0  0  0  0
   32.5211   16.9290   20.2543 C   0  0  0  0  0  0  0  0  0  0  0  0
   33.7279   17.5712   20.8374 N   0  0  0  0  0  0  0  0  0  0  0  0
   25.9385   15.9030   19.6826 O   0  0  0  0  0  0  0  0  0  0  0  0
  2  1  1  6  0  0  0
  2  3  1  0  0  0  0
  2  5  1  0  0  0  0
  3  4  1  0  0  0  0
  3 10  1  0  0  0  0
  5  6  1  0  0  0  0
  6  7  1  0  0  0  0
  7  8  1  0  0  0  0
  8  9  1  0  0  0  0
M  END
>  <CHROM.1>
-104.65681851,50.45037325,-176.87889682,179.51932624,-178.87317289,29.32581051
16.23666373,20.50311973,-2.99468909,-0.21716938,-0.48195864

>  <Name>
ligand

>  <RI>
0

>  <Rbt.Current_Directory>
/home/itssahil/PROJECTS/Mol_Feturizer/New_Systems/rnas/3DIX

>  <Rbt.Executable>
rbdock ($Id: //depot/dev/client3/rdock/2013.1/src/exe/rbdock.cxx#4 $)

>  <Rbt.Library>
libRbt.so (2013.1, Build901 2013/11/27)

>  <Rbt.Parameter_File>
/export/apps/rDock/src/rDock_2013.1_src/data/scripts/dock_solv.prm

>  <Rbt.Receptor>
prm/pocket_docking_8.prm

>  <SCORE>
-6.98368

>  <SCORE.INTER>
-6.74942

>  <SCORE.INTER.CONST>
1

>  <SCORE.INTER.POLAR>
0

>  <SCORE.INTER.ROT>
5

>  <SCORE.INTER.SOLV>
16.4695

>  <SCORE.INTER.VDW>
-16.9228

>  <SCORE.INTER.norm>
-0.674942

>  <SCORE.INTRA>
-0.234259

>  <SCORE.INTRA.DIHEDRAL>
-1.41595

>  <SCORE.INTRA.DIHEDRAL.0>
3.281

>  <SCORE.INTRA.POLAR>
0

>  <SCORE.INTRA.POLAR.0>
0

>  <SCORE.INTRA.REPUL>
0

>  <SCORE.INTRA.REPUL.0>
0

>  <SCORE.INTRA.SOLV>
-0.522407

>  <SCORE.INTRA.SOLV.lig_0>
-31.9458

>  <SCORE.INTRA.VDW>
0.734921

>  <SCORE.INTRA.VDW.0>
-0.672612

>  <SCORE.INTRA.norm>
-0.0234259

>  <SCORE.RESTR>
0

>  <SCORE.RESTR.CAVITY>
0

>  <SCORE.RESTR.norm>
0

>  <SCORE.SYSTEM>
0

>  <SCORE.SYSTEM.CONST>
0

>  <SCORE.SYSTEM.DIHEDRAL>
0

>  <SCORE.SYSTEM.SOLV>
0

>  <SCORE.SYSTEM.norm>
0

>  <SCORE.heavy>
10

>  <SCORE.norm>
-0.698368

>  <RMSD>
5.287

$$$$
ligand
 OpenBabel11021811473D
libRbt.so/2013.1/901 2013/11/27
 10  9  0  0  0  0  0  0  0  0999 V2000
   28.6454   14.8439   18.9556 N   0  0  0  0  0  0  0  0  0  0  0  0
   27.7422   14.4761   20.0824 C   0  0  2  0  0  0  0  0  0  0  0  0
   26.5092   15.3680   20.1181 C   0  0  0  0  0  0  0  0  0  0  0  0
   25.4914   15.0567   20.7384 O   0  0  0  0  0  0  0  0  0  0  0  0
   28.4871   14.5242   21.4146 C   0  0  0  0  0  0  0  0  0  0  0  0
   29.0160   15.9009   21.7445 C   0  0  0  0  0  0  0  0  0  0  0  0
   30.3902   16.1235   21.1715 C   0  0  0  0  0  0  0  0  0  0  0  0
   31.0324   17.3600   21.7754 C   0  0  0  0  0  0  0  0  0  0  0  0
   32.4063   17.5868   21.2562 N   0  0  0  0  0  0  0  0  0  0  0  0
   26.5079   16.4588   19.5453 O   0  0  0  0  0  0  0  0  0  0  0  0
  2  1  1  6  0  0  0
  2  3  1  0  0  0  0
  2  5  1  0  0  0  0
  3  4  1  0  0  0  0
  3 10  1  0  0  0  0
  5  6  1  0  0  0  0
  6  7  1  0  0  0  0
  7  8  1  0  0  0  0
  8  9  1  0  0  0  0
M  END
>  <CHROM.1>
162.07296618,61.48466498,-88.20567637,-166.70503937,178.47203791,28.58540480
15.78441114,20.67760950,-2.71615336,-0.02150494,0.56603859

>  <Name>
ligand

>  <RI>
0

>  <Rbt.Current_Directory>
/home/itssahil/PROJECTS/Mol_Feturizer/New_Systems/rnas/3DIX

>  <Rbt.Executable>
rbdock ($Id: //depot/dev/client3/rdock/2013.1/src/exe/rbdock.cxx#4 $)

>  <Rbt.Library>
libRbt.so (2013.1, Build901 2013/11/27)

>  <Rbt.Parameter_File>
/export/apps/rDock/src/rDock_2013.1_src/data/scripts/dock_solv.prm

>  <Rbt.Receptor>
prm/pocket_docking_4.prm

>  <SCORE>
-8.39156

>  <SCORE.INTER>
-9.48655

>  <SCORE.INTER.CONST>
1

>  <SCORE.INTER.POLAR>
0

>  <SCORE.INTER.ROT>
5

>  <SCORE.INTER.SOLV>
11.9562

>  <SCORE.INTER.VDW>
-17.2431

>  <SCORE.INTER.norm>
-0.948655

>  <SCORE.INTRA>
1.09498

>  <SCORE.INTRA.DIHEDRAL>
1.65111

>  <SCORE.INTRA.DIHEDRAL.0>
3.281

>  <SCORE.INTRA.POLAR>
0

>  <SCORE.INTRA.POLAR.0>
0

>  <SCORE.INTRA.REPUL>
0

>  <SCORE.INTRA.REPUL.0>
0

>  <SCORE.INTRA.SOLV>
0.464675

>  <SCORE.INTRA.SOLV.lig_0>
-31.9458

>  <SCORE.INTRA.VDW>
0.0370905

>  <SCORE.INTRA.VDW.0>
-0.672612

>  <SCORE.INTRA.norm>
0.109498

>  <SCORE.RESTR>
0

>  <SCORE.RESTR.CAVITY>
0

>  <SCORE.RESTR.norm>
0

>  <SCORE.SYSTEM>
0

>  <SCORE.SYSTEM.CONST>
0

>  <SCORE.SYSTEM.DIHEDRAL>
0

>  <SCORE.SYSTEM.SOLV>
0

>  <SCORE.SYSTEM.norm>
0

>  <SCORE.heavy>
10

>  <SCORE.norm>
-0.839156

>  <RMSD>
5.293

$$$$
ligand
 OpenBabel11021811473D
libRbt.so/2013.1/901 2013/11/27
 10  9  0  0  0  0  0  0  0  0999 V2000
   26.9244   13.8713   18.2218 N   0  0  0  0  0  0  0  0  0  0  0  0
   27.6131   14.4314   19.4187 C   0  0  2  0  0  0  0  0  0  0  0  0
   26.6120   14.9324   20.4502 C   0  0  0  0  0  0  0  0  0  0  0  0
   26.7703   14.7550   21.6590 O   0  0  0  0  0  0  0  0  0  0  0  0
   28.5833   15.5407   19.0188 C   0  0  0  0  0  0  0  0  0  0  0  0
   29.7428   15.6833   19.9775 C   0  0  0  0  0  0  0  0  0  0  0  0
   29.3185   16.3124   21.2777 C   0  0  0  0  0  0  0  0  0  0  0  0
   30.4958   16.4289   22.2298 C   0  0  0  0  0  0  0  0  0  0  0  0
   31.5267   17.3759   21.7310 N   0  0  0  0  0  0  0  0  0  0  0  0
   25.6166   15.5683   20.1000 O   0  0  0  0  0  0  0  0  0  0  0  0
  2  1  1  6  0  0  0
  2  3  1  0  0  0  0
  2  5  1  0  0  0  0
  3  4  1  0  0  0  0
  3 10  1  0  0  0  0
  5  6  1  0  0  0  0
  6  7  1  0  0  0  0
  7  8  1  0  0  0  0
  8  9  1  0  0  0  0
M  END
>  <CHROM.1>
139.51446703,-152.13736331,-73.25751628,179.28577795,65.97587048,28.29008199
15.49626679,20.42821656,-2.60892709,0.29328476,1.22327936

>  <Name>
ligand

>  <RI>
0

>  <Rbt.Current_Directory>
/home/itssahil/PROJECTS/Mol_Feturizer/New_Systems/rnas/3DIX

>  <Rbt.Executable>
rbdock ($Id: //depot/dev/client3/rdock/2013.1/src/exe/rbdock.cxx#4 $)

>  <Rbt.Library>
libRbt.so (2013.1, Build901 2013/11/27)

>  <Rbt.Parameter_File>
/export/apps/rDock/src/rDock_2013.1_src/data/scripts/dock_solv.prm

>  <Rbt.Receptor>
prm/pocket_docking_3.prm

>  <SCORE>
-7.07301

>  <SCORE.INTER>
-7.55861

>  <SCORE.INTER.CONST>
1

>  <SCORE.INTER.POLAR>
0

>  <SCORE.INTER.ROT>
5

>  <SCORE.INTER.SOLV>
14.6643

>  <SCORE.INTER.VDW>
-16.8605

>  <SCORE.INTER.norm>
-0.755861

>  <SCORE.INTRA>
0.485594

>  <SCORE.INTRA.DIHEDRAL>
1.52633

>  <SCORE.INTRA.DIHEDRAL.0>
3.281

>  <SCORE.INTRA.POLAR>
0

>  <SCORE.INTRA.POLAR.0>
0

>  <SCORE.INTRA.REPUL>
0

>  <SCORE.INTRA.REPUL.0>
0

>  <SCORE.INTRA.SOLV>
-0.511157

>  <SCORE.INTRA.SOLV.lig_0>
-31.9458

>  <SCORE.INTRA.VDW>
-0.0219938

>  <SCORE.INTRA.VDW.0>
-0.672612

>  <SCORE.INTRA.norm>
0.0485594

>  <SCORE.RESTR>
0

>  <SCORE.RESTR.CAVITY>
0

>  <SCORE.RESTR.norm>
0

>  <SCORE.SYSTEM>
0

>  <SCORE.SYSTEM.CONST>
0

>  <SCORE.SYSTEM.DIHEDRAL>
0

>  <SCORE.SYSTEM.SOLV>
0

>  <SCORE.SYSTEM.norm>
0

>  <SCORE.heavy>
10

>  <SCORE.norm>
-0.707301

>  <RMSD>
5.296

$$$$
ligand
 OpenBabel11021811473D
libRbt.so/2013.1/901 2013/11/27
 10  9  0  0  0  0  0  0  0  0999 V2000
   27.4161   14.7780   18.5568 N   0  0  0  0  0  0  0  0  0  0  0  0
   27.7799   14.5184   19.9784 C   0  0  2  0  0  0  0  0  0  0  0  0
   26.7137   15.0455   20.9285 C   0  0  0  0  0  0  0  0  0  0  0  0
   26.9597   15.3208   22.1038 O   0  0  0  0  0  0  0  0  0  0  0  0
   29.1459   15.1159   20.3083 C   0  0  0  0  0  0  0  0  0  0  0  0
   29.2271   16.5965   20.0171 C   0  0  0  0  0  0  0  0  0  0  0  0
   30.5987   17.1476   20.3022 C   0  0  0  0  0  0  0  0  0  0  0  0
   30.8519   17.2167   21.7979 C   0  0  0  0  0  0  0  0  0  0  0  0
   32.1786   17.8073   22.1137 N   0  0  0  0  0  0  0  0  0  0  0  0
   25.5646   15.2458   20.5319 O   0  0  0  0  0  0  0  0  0  0  0  0
  2  1  1  6  0  0  0
  2  3  1  0  0  0  0
  2  5  1  0  0  0  0
  3  4  1  0  0  0  0
  3 10  1  0  0  0  0
  5  6  1  0  0  0  0
  6  7  1  0  0  0  0
  7  8  1  0  0  0  0
  8  9  1  0  0  0  0
M  END
>  <CHROM.1>
-157.09007514,56.06648279,-177.84203973,-72.01500700,-177.74552007,28.61045995
15.88409539,20.68334212,-2.80767766,0.40105296,1.27288388

>  <Name>
ligand

>  <RI>
0

>  <Rbt.Current_Directory>
/home/itssahil/PROJECTS/Mol_Feturizer/New_Systems/rnas/3DIX

>  <Rbt.Executable>
rbdock ($Id: //depot/dev/client3/rdock/2013.1/src/exe/rbdock.cxx#4 $)

>  <Rbt.Library>
libRbt.so (2013.1, Build901 2013/11/27)

>  <Rbt.Parameter_File>
/export/apps/rDock/src/rDock_2013.1_src/data/scripts/dock_solv.prm

>  <Rbt.Receptor>
prm/pocket_docking_5.prm

>  <SCORE>
-8.13142

>  <SCORE.INTER>
-8.4336

>  <SCORE.INTER.CONST>
1

>  <SCORE.INTER.POLAR>
0

>  <SCORE.INTER.ROT>
5

>  <SCORE.INTER.SOLV>
12.7116

>  <SCORE.INTER.VDW>
-16.7929

>  <SCORE.INTER.norm>
-0.84336

>  <SCORE.INTRA>
0.302171

>  <SCORE.INTRA.DIHEDRAL>
-1.03497

>  <SCORE.INTRA.DIHEDRAL.0>
3.281

>  <SCORE.INTRA.POLAR>
0

>  <SCORE.INTRA.POLAR.0>
0

>  <SCORE.INTRA.REPUL>
0

>  <SCORE.INTRA.REPUL.0>
0

>  <SCORE.INTRA.SOLV>
-0.348966

>  <SCORE.INTRA.SOLV.lig_0>
-31.9458

>  <SCORE.INTRA.VDW>
0.99414

>  <SCORE.INTRA.VDW.0>
-0.672612

>  <SCORE.INTRA.norm>
0.0302171

>  <SCORE.RESTR>
0

>  <SCORE.RESTR.CAVITY>
0

>  <SCORE.RESTR.norm>
0

>  <SCORE.SYSTEM>
0

>  <SCORE.SYSTEM.CONST>
0

>  <SCORE.SYSTEM.DIHEDRAL>
0

>  <SCORE.SYSTEM.SOLV>
0

>  <SCORE.SYSTEM.norm>
0

>  <SCORE.heavy>
10

>  <SCORE.norm>
-0.813142

>  <RMSD>
5.298

$$$$
ligand
 OpenBabel11021811473D
libRbt.so/2013.1/901 2013/11/27
 10  9  0  0  0  0  0  0  0  0999 V2000
   27.0271   14.9488   18.4247 N   0  0  0  0  0  0  0  0  0  0  0  0
   27.6357   15.3386   19.7280 C   0  0  2  0  0  0  0  0  0  0  0  0
   26.6305   15.2238   20.8653 C   0  0  0  0  0  0  0  0  0  0  0  0
   26.9667   15.2948   22.0484 O   0  0  0  0  0  0  0  0  0  0  0  0
   28.2176   16.7486   19.6566 C   0  0  0  0  0  0  0  0  0  0  0  0
   29.6469   16.8214   20.1421 C   0  0  0  0  0  0  0  0  0  0  0  0
   29.7656   16.4284   21.5905 C   0  0  0  0  0  0  0  0  0  0  0  0
   31.2221   16.3742   22.0168 C   0  0  0  0  0  0  0  0  0  0  0  0
   31.8689   17.7112   21.9688 N   0  0  0  0  0  0  0  0  0  0  0  0
   25.4291   15.0878   20.6286 O   0  0  0  0  0  0  0  0  0  0  0  0
  2  1  1  6  0  0  0
  2  3  1  0  0  0  0
  2  5  1  0  0  0  0
  3  4  1  0  0  0  0
  3 10  1  0  0  0  0
  5  6  1  0  0  0  0
  6  7  1  0  0  0  0
  7  8  1  0  0  0  0
  8  9  1  0  0  0  0
M  END
>  <CHROM.1>
168.52195570,-128.94639493,-62.06210147,174.30867083,65.05789749,28.40963391
15.99088510,20.72951437,-2.87207657,0.39407033,1.62621431

>  <Name>
ligand

>  <RI>
0

>  <Rbt.Current_Directory>
/home/itssahil/PROJECTS/Mol_Feturizer/New_Systems/rnas/3DIX

>  <Rbt.Executable>
rbdock ($Id: //depot/dev/client3/rdock/2013.1/src/exe/rbdock.cxx#4 $)

>  <Rbt.Library>
libRbt.so (2013.1, Build901 2013/11/27)

>  <Rbt.Parameter_File>
/export/apps/rDock/src/rDock_2013.1_src/data/scripts/dock_solv.prm

>  <Rbt.Receptor>
prm/pocket_docking_5.prm

>  <SCORE>
-7.20986

>  <SCORE.INTER>
-9.22155

>  <SCORE.INTER.CONST>
1

>  <SCORE.INTER.POLAR>
0

>  <SCORE.INTER.ROT>
5

>  <SCORE.INTER.SOLV>
13.6381

>  <SCORE.INTER.VDW>
-17.6271

>  <SCORE.INTER.norm>
-0.922155

>  <SCORE.INTRA>
2.01168

>  <SCORE.INTRA.DIHEDRAL>
3.86477

>  <SCORE.INTRA.DIHEDRAL.0>
3.281

>  <SCORE.INTRA.POLAR>
0

>  <SCORE.INTRA.POLAR.0>
0

>  <SCORE.INTRA.REPUL>
0

>  <SCORE.INTRA.REPUL.0>
0

>  <SCORE.INTRA.SOLV>
-0.281345

>  <SCORE.INTRA.SOLV.lig_0>
-31.9458

>  <SCORE.INTRA.VDW>
0.219974

>  <SCORE.INTRA.VDW.0>
-0.672612

>  <SCORE.INTRA.norm>
0.201168

>  <SCORE.RESTR>
0

>  <SCORE.RESTR.CAVITY>
0

>  <SCORE.RESTR.norm>
0

>  <SCORE.SYSTEM>
0

>  <SCORE.SYSTEM.CONST>
0

>  <SCORE.SYSTEM.DIHEDRAL>
0

>  <SCORE.SYSTEM.SOLV>
0

>  <SCORE.SYSTEM.norm>
0

>  <SCORE.heavy>
10

>  <SCORE.norm>
-0.720986

>  <RMSD>
5.300

$$$$
ligand
 OpenBabel11021811473D
libRbt.so/2013.1/901 2013/11/27
 10  9  0  0  0  0  0  0  0  0999 V2000
   28.4754   16.5245   19.5665 N   0  0  0  0  0  0  0  0  0  0  0  0
   28.0367   15.3992   20.4393 C   0  0  2  0  0  0  0  0  0  0  0  0
   26.5189   15.2933   20.4859 C   0  0  0  0  0  0  0  0  0  0  0  0
   25.9291   14.7085   21.3958 O   0  0  0  0  0  0  0  0  0  0  0  0
   28.6152   15.5436   21.8451 C   0  0  0  0  0  0  0  0  0  0  0  0
   30.1253   15.6020   21.8576 C   0  0  0  0  0  0  0  0  0  0  0  0
   30.6339   16.9784   21.5212 C   0  0  0  0  0  0  0  0  0  0  0  0
   32.1504   16.9884   21.4419 C   0  0  0  0  0  0  0  0  0  0  0  0
   32.6542   16.2227   20.2721 N   0  0  0  0  0  0  0  0  0  0  0  0
   25.8265   15.8270   19.6178 O   0  0  0  0  0  0  0  0  0  0  0  0
  2  1  1  6  0  0  0
  2  3  1  0  0  0  0
  2  5  1  0  0  0  0
  3  4  1  0  0  0  0
  3 10  1  0  0  0  0
  5  6  1  0  0  0  0
  6  7  1  0  0  0  0
  7  8  1  0  0  0  0
  8  9  1  0  0  0  0
M  END
>  <CHROM.1>
-159.46335572,-57.88191973,80.85069804,-175.92229322,68.73084696,28.85178857
15.90312902,20.84316592,-3.12024490,0.24292391,1.95046724

>  <Name>
ligand

>  <RI>
0

>  <Rbt.Current_Directory>
/home/itssahil/PROJECTS/Mol_Feturizer/New_Systems/rnas/3DIX

>  <Rbt.Executable>
rbdock ($Id: //depot/dev/client3/rdock/2013.1/src/exe/rbdock.cxx#4 $)

>  <Rbt.Library>
libRbt.so (2013.1, Build901 2013/11/27)

>  <Rbt.Parameter_File>
/export/apps/rDock/src/rDock_2013.1_src/data/scripts/dock_solv.prm

>  <Rbt.Receptor>
prm/pocket_docking_3.prm

>  <SCORE>
-7.89996

>  <SCORE.INTER>
-9.66422

>  <SCORE.INTER.CONST>
1

>  <SCORE.INTER.POLAR>
0

>  <SCORE.INTER.ROT>
5

>  <SCORE.INTER.SOLV>
12.7976

>  <SCORE.INTER.VDW>
-17.642

>  <SCORE.INTER.norm>
-0.966422

>  <SCORE.INTRA>
1.76426

>  <SCORE.INTRA.DIHEDRAL>
0.282973

>  <SCORE.INTRA.DIHEDRAL.0>
3.281

>  <SCORE.INTRA.POLAR>
0

>  <SCORE.INTRA.POLAR.0>
0

>  <SCORE.INTRA.REPUL>
0

>  <SCORE.INTRA.REPUL.0>
0

>  <SCORE.INTRA.SOLV>
1.92869

>  <SCORE.INTRA.SOLV.lig_0>
-31.9458

>  <SCORE.INTRA.VDW>
0.658428

>  <SCORE.INTRA.VDW.0>
-0.672612

>  <SCORE.INTRA.norm>
0.176426

>  <SCORE.RESTR>
0

>  <SCORE.RESTR.CAVITY>
0

>  <SCORE.RESTR.norm>
0

>  <SCORE.SYSTEM>
0

>  <SCORE.SYSTEM.CONST>
0

>  <SCORE.SYSTEM.DIHEDRAL>
0

>  <SCORE.SYSTEM.SOLV>
0

>  <SCORE.SYSTEM.norm>
0

>  <SCORE.heavy>
10

>  <SCORE.norm>
-0.789996

>  <RMSD>
5.312

$$$$
ligand
 OpenBabel11021811473D
libRbt.so/2013.1/901 2013/11/27
 10  9  0  0  0  0  0  0  0  0999 V2000
   28.8453   16.4654   19.4333 N   0  0  0  0  0  0  0  0  0  0  0  0
   27.6763   15.6156   19.0701 C   0  0  2  0  0  0  0  0  0  0  0  0
   26.9309   15.1397   20.3091 C   0  0  0  0  0  0  0  0  0  0  0  0
   25.7060   15.2229   20.4108 O   0  0  0  0  0  0  0  0  0  0  0  0
   28.1108   14.4319   18.2087 C   0  0  0  0  0  0  0  0  0  0  0  0
   26.9525   13.5670   17.7684 C   0  0  0  0  0  0  0  0  0  0  0  0
   27.4203   12.2558   17.1957 C   0  0  0  0  0  0  0  0  0  0  0  0
   26.2470   11.3210   16.9598 C   0  0  0  0  0  0  0  0  0  0  0  0
   26.6891    9.9485   16.6002 N   0  0  0  0  0  0  0  0  0  0  0  0
   27.5396   14.6195   21.2454 O   0  0  0  0  0  0  0  0  0  0  0  0
  2  1  1  1  0  0  0
  2  3  1  0  0  0  0
  2  5  1  0  0  0  0
  3  4  1  0  0  0  0
  3 10  1  0  0  0  0
  5  6  1  0  0  0  0
  6  7  1  0  0  0  0
  7  8  1  0  0  0  0
  8  9  1  0  0  0  0
M  END
>  <CHROM.1>
131.99924117,-177.78229455,-167.09388661,171.27238479,-170.94234252,27.19583959
13.85777502,18.75409288,-1.39019048,-0.73471588,-2.38574612

>  <Name>
ligand

>  <RI>
0

>  <Rbt.Current_Directory>
/home/itssahil/PROJECTS/Mol_Feturizer/New_Systems/rnas/3DIX

>  <Rbt.Executable>
rbdock ($Id: //depot/dev/client3/rdock/2013.1/src/exe/rbdock.cxx#4 $)

>  <Rbt.Library>
libRbt.so (2013.1, Build901 2013/11/27)

>  <Rbt.Parameter_File>
/export/apps/rDock/src/rDock_2013.1_src/data/scripts/dock_solv.prm

>  <Rbt.Receptor>
prm/blind_docking_100.prm

>  <SCORE>
-12.5707

>  <SCORE.INTER>
-11.437

>  <SCORE.INTER.CONST>
1

>  <SCORE.INTER.POLAR>
0

>  <SCORE.INTER.ROT>
5

>  <SCORE.INTER.SOLV>
14.4196

>  <SCORE.INTER.VDW>
-19.3646

>  <SCORE.INTER.norm>
-1.1437

>  <SCORE.INTRA>
-1.1337

>  <SCORE.INTRA.DIHEDRAL>
-0.519469

>  <SCORE.INTRA.DIHEDRAL.0>
3.281

>  <SCORE.INTRA.POLAR>
0

>  <SCORE.INTRA.POLAR.0>
0

>  <SCORE.INTRA.REPUL>
0

>  <SCORE.INTRA.REPUL.0>
0

>  <SCORE.INTRA.SOLV>
-1.57741

>  <SCORE.INTRA.SOLV.lig_0>
-31.9458

>  <SCORE.INTRA.VDW>
-0.0852549

>  <SCORE.INTRA.VDW.0>
-0.672612

>  <SCORE.INTRA.norm>
-0.11337

>  <SCORE.RESTR>
0

>  <SCORE.RESTR.CAVITY>
0

>  <SCORE.RESTR.norm>
0

>  <SCORE.SYSTEM>
0

>  <SCORE.SYSTEM.CONST>
0

>  <SCORE.SYSTEM.DIHEDRAL>
0

>  <SCORE.SYSTEM.SOLV>
0

>  <SCORE.SYSTEM.norm>
0

>  <SCORE.heavy>
10

>  <SCORE.norm>
-1.25707

>  <RMSD>
5.313

$$$$
ligand
 OpenBabel11021811473D
libRbt.so/2013.1/901 2013/11/27
 10  9  0  0  0  0  0  0  0  0999 V2000
   27.0474   13.8524   18.4690 N   0  0  0  0  0  0  0  0  0  0  0  0
   27.6517   14.7795   19.4669 C   0  0  2  0  0  0  0  0  0  0  0  0
   26.7485   14.9534   20.6798 C   0  0  0  0  0  0  0  0  0  0  0  0
   27.1879   14.9560   21.8307 O   0  0  0  0  0  0  0  0  0  0  0  0
   27.9733   16.1296   18.8302 C   0  0  0  0  0  0  0  0  0  0  0  0
   28.6163   17.0981   19.7958 C   0  0  0  0  0  0  0  0  0  0  0  0
   29.9805   16.6320   20.2294 C   0  0  0  0  0  0  0  0  0  0  0  0
   30.5750   17.5828   21.2534 C   0  0  0  0  0  0  0  0  0  0  0  0
   31.9490   17.1839   21.6553 N   0  0  0  0  0  0  0  0  0  0  0  0
   25.5377   15.1324   20.5390 O   0  0  0  0  0  0  0  0  0  0  0  0
  2  1  1  6  0  0  0
  2  3  1  0  0  0  0
  2  5  1  0  0  0  0
  3  4  1  0  0  0  0
  3 10  1  0  0  0  0
  5  6  1  0  0  0  0
  6  7  1  0  0  0  0
  7  8  1  0  0  0  0
  8  9  1  0  0  0  0
M  END
>  <CHROM.1>
137.12908745,-178.79008477,66.00979992,-177.03060002,-177.36517573,28.29884848
15.82813543,20.30045577,-2.85072681,0.49359402,1.44361250

>  <Name>
ligand

>  <RI>
0

>  <Rbt.Current_Directory>
/home/itssahil/PROJECTS/Mol_Feturizer/New_Systems/rnas/3DIX

>  <Rbt.Executable>
rbdock ($Id: //depot/dev/client3/rdock/2013.1/src/exe/rbdock.cxx#4 $)

>  <Rbt.Library>
libRbt.so (2013.1, Build901 2013/11/27)

>  <Rbt.Parameter_File>
/export/apps/rDock/src/rDock_2013.1_src/data/scripts/dock_solv.prm

>  <Rbt.Receptor>
prm/pocket_docking_5.prm

>  <SCORE>
-10.2864

>  <SCORE.INTER>
-8.97823

>  <SCORE.INTER.CONST>
1

>  <SCORE.INTER.POLAR>
0

>  <SCORE.INTER.ROT>
5

>  <SCORE.INTER.SOLV>
14.8959

>  <SCORE.INTER.VDW>
-17.8841

>  <SCORE.INTER.norm>
-0.897823

>  <SCORE.INTRA>
-1.3082

>  <SCORE.INTRA.DIHEDRAL>
-1.62299

>  <SCORE.INTRA.DIHEDRAL.0>
3.281

>  <SCORE.INTRA.POLAR>
0

>  <SCORE.INTRA.POLAR.0>
0

>  <SCORE.INTRA.REPUL>
0

>  <SCORE.INTRA.REPUL.0>
0

>  <SCORE.INTRA.SOLV>
-1.32797

>  <SCORE.INTRA.SOLV.lig_0>
-31.9458

>  <SCORE.INTRA.VDW>
0.167284

>  <SCORE.INTRA.VDW.0>
-0.672612

>  <SCORE.INTRA.norm>
-0.13082

>  <SCORE.RESTR>
0

>  <SCORE.RESTR.CAVITY>
0

>  <SCORE.RESTR.norm>
0

>  <SCORE.SYSTEM>
0

>  <SCORE.SYSTEM.CONST>
0

>  <SCORE.SYSTEM.DIHEDRAL>
0

>  <SCORE.SYSTEM.SOLV>
0

>  <SCORE.SYSTEM.norm>
0

>  <SCORE.heavy>
10

>  <SCORE.norm>
-1.02864

>  <RMSD>
5.313

$$$$
ligand
 OpenBabel11021811473D
libRbt.so/2013.1/901 2013/11/27
 10  9  0  0  0  0  0  0  0  0999 V2000
   28.4325   14.6331   18.7744 N   0  0  0  0  0  0  0  0  0  0  0  0
   28.0510   14.5486   20.2125 C   0  0  2  0  0  0  0  0  0  0  0  0
   26.6725   15.1464   20.4562 C   0  0  0  0  0  0  0  0  0  0  0  0
   25.9914   14.8474   21.4382 O   0  0  0  0  0  0  0  0  0  0  0  0
   29.0999   15.2228   21.0940 C   0  0  0  0  0  0  0  0  0  0  0  0
   29.2506   16.6987   20.8065 C   0  0  0  0  0  0  0  0  0  0  0  0
   30.4286   17.2919   21.5323 C   0  0  0  0  0  0  0  0  0  0  0  0
   31.7332   16.8611   20.8853 C   0  0  0  0  0  0  0  0  0  0  0  0
   32.9120   17.5046   21.5215 N   0  0  0  0  0  0  0  0  0  0  0  0
   26.2071   15.9844   19.6823 O   0  0  0  0  0  0  0  0  0  0  0  0
  2  1  1  6  0  0  0
  2  3  1  0  0  0  0
  2  5  1  0  0  0  0
  3  4  1  0  0  0  0
  3 10  1  0  0  0  0
  5  6  1  0  0  0  0
  6  7  1  0  0  0  0
  7  8  1  0  0  0  0
  8  9  1  0  0  0  0
M  END
>  <CHROM.1>
157.96442653,62.04315799,-171.21467584,73.80511387,176.08982036,28.83709919
15.88089881,20.64391483,-2.78537793,0.21850794,0.96351180

>  <Name>
ligand

>  <RI>
0

>  <Rbt.Current_Directory>
/home/itssahil/PROJECTS/Mol_Feturizer/New_Systems/rnas/3DIX

>  <Rbt.Executable>
rbdock ($Id: //depot/dev/client3/rdock/2013.1/src/exe/rbdock.cxx#4 $)

>  <Rbt.Library>
libRbt.so (2013.1, Build901 2013/11/27)

>  <Rbt.Parameter_File>
/export/apps/rDock/src/rDock_2013.1_src/data/scripts/dock_solv.prm

>  <Rbt.Receptor>
prm/pocket_docking_7.prm

>  <SCORE>
-8.7679

>  <SCORE.INTER>
-8.80638

>  <SCORE.INTER.CONST>
1

>  <SCORE.INTER.POLAR>
0

>  <SCORE.INTER.ROT>
5

>  <SCORE.INTER.SOLV>
12.9592

>  <SCORE.INTER.VDW>
-17.124

>  <SCORE.INTER.norm>
-0.880638

>  <SCORE.INTRA>
0.0384765

>  <SCORE.INTRA.DIHEDRAL>
-0.701314

>  <SCORE.INTRA.DIHEDRAL.0>
3.281

>  <SCORE.INTRA.POLAR>
0

>  <SCORE.INTRA.POLAR.0>
0

>  <SCORE.INTRA.REPUL>
0

>  <SCORE.INTRA.REPUL.0>
0

>  <SCORE.INTRA.SOLV>
-0.272657

>  <SCORE.INTRA.SOLV.lig_0>
-31.9458

>  <SCORE.INTRA.VDW>
0.525462

>  <SCORE.INTRA.VDW.0>
-0.672612

>  <SCORE.INTRA.norm>
0.00384765

>  <SCORE.RESTR>
0

>  <SCORE.RESTR.CAVITY>
0

>  <SCORE.RESTR.norm>
0

>  <SCORE.SYSTEM>
0

>  <SCORE.SYSTEM.CONST>
0

>  <SCORE.SYSTEM.DIHEDRAL>
0

>  <SCORE.SYSTEM.SOLV>
0

>  <SCORE.SYSTEM.norm>
0

>  <SCORE.heavy>
10

>  <SCORE.norm>
-0.87679

>  <RMSD>
5.320

$$$$
ligand
 OpenBabel11021811473D
libRbt.so/2013.1/901 2013/11/27
 10  9  0  0  0  0  0  0  0  0999 V2000
   28.4199   14.8112   18.9878 N   0  0  0  0  0  0  0  0  0  0  0  0
   27.8665   14.7789   20.3711 C   0  0  2  0  0  0  0  0  0  0  0  0
   26.4022   15.1941   20.3921 C   0  0  0  0  0  0  0  0  0  0  0  0
   25.9200   15.9438   19.5417 O   0  0  0  0  0  0  0  0  0  0  0  0
   28.6939   15.6554   21.3086 C   0  0  0  0  0  0  0  0  0  0  0  0
   30.1234   15.1849   21.4466 C   0  0  0  0  0  0  0  0  0  0  0  0
   30.9364   16.1132   22.3089 C   0  0  0  0  0  0  0  0  0  0  0  0
   31.2229   17.4141   21.5797 C   0  0  0  0  0  0  0  0  0  0  0  0
   32.1109   17.2128   20.4052 N   0  0  0  0  0  0  0  0  0  0  0  0
   25.6394   14.7577   21.2555 O   0  0  0  0  0  0  0  0  0  0  0  0
  2  1  1  6  0  0  0
  2  3  1  0  0  0  0
  2  5  1  0  0  0  0
  3  4  1  0  0  0  0
  3 10  1  0  0  0  0
  5  6  1  0  0  0  0
  6  7  1  0  0  0  0
  7  8  1  0  0  0  0
  8  9  1  0  0  0  0
M  END
>  <CHROM.1>
-26.91955272,-62.40367165,176.54305338,-72.30097539,-66.38066661,28.69001873
15.71051060,20.75795813,-2.98514164,0.32079738,1.69888781

>  <Name>
ligand

>  <RI>
0

>  <Rbt.Current_Directory>
/home/itssahil/PROJECTS/Mol_Feturizer/New_Systems/rnas/3DIX

>  <Rbt.Executable>
rbdock ($Id: //depot/dev/client3/rdock/2013.1/src/exe/rbdock.cxx#4 $)

>  <Rbt.Library>
libRbt.so (2013.1, Build901 2013/11/27)

>  <Rbt.Parameter_File>
/export/apps/rDock/src/rDock_2013.1_src/data/scripts/dock_solv.prm

>  <Rbt.Receptor>
prm/blind_docking_80.prm

>  <SCORE>
-8.98586

>  <SCORE.INTER>
-9.38407

>  <SCORE.INTER.CONST>
1

>  <SCORE.INTER.POLAR>
0

>  <SCORE.INTER.ROT>
5

>  <SCORE.INTER.SOLV>
11.6429

>  <SCORE.INTER.VDW>
-17.0704

>  <SCORE.INTER.norm>
-0.938407

>  <SCORE.INTRA>
0.398211

>  <SCORE.INTRA.DIHEDRAL>
-0.87847

>  <SCORE.INTRA.DIHEDRAL.0>
3.281

>  <SCORE.INTRA.POLAR>
0

>  <SCORE.INTRA.POLAR.0>
0

>  <SCORE.INTRA.REPUL>
0

>  <SCORE.INTRA.REPUL.0>
0

>  <SCORE.INTRA.SOLV>
0.740797

>  <SCORE.INTRA.SOLV.lig_0>
-31.9458

>  <SCORE.INTRA.VDW>
0.467047

>  <SCORE.INTRA.VDW.0>
-0.672612

>  <SCORE.INTRA.norm>
0.0398211

>  <SCORE.RESTR>
0

>  <SCORE.RESTR.CAVITY>
0

>  <SCORE.RESTR.norm>
0

>  <SCORE.SYSTEM>
0

>  <SCORE.SYSTEM.CONST>
0

>  <SCORE.SYSTEM.DIHEDRAL>
0

>  <SCORE.SYSTEM.SOLV>
0

>  <SCORE.SYSTEM.norm>
0

>  <SCORE.heavy>
10

>  <SCORE.norm>
-0.898586

>  <RMSD>
5.325

$$$$
ligand
 OpenBabel11021811473D
libRbt.so/2013.1/901 2013/11/27
 10  9  0  0  0  0  0  0  0  0999 V2000
   28.4236   14.5594   18.7872 N   0  0  0  0  0  0  0  0  0  0  0  0
   28.0628   14.5561   20.2330 C   0  0  2  0  0  0  0  0  0  0  0  0
   26.6884   15.1688   20.4626 C   0  0  0  0  0  0  0  0  0  0  0  0
   25.9660   14.8282   21.4006 O   0  0  0  0  0  0  0  0  0  0  0  0
   29.1248   15.2767   21.0604 C   0  0  0  0  0  0  0  0  0  0  0  0
   29.2993   16.7243   20.6629 C   0  0  0  0  0  0  0  0  0  0  0  0
   30.4002   17.3896   21.4450 C   0  0  0  0  0  0  0  0  0  0  0  0
   31.7612   16.8950   20.9880 C   0  0  0  0  0  0  0  0  0  0  0  0
   32.8730   17.6045   21.6730 N   0  0  0  0  0  0  0  0  0  0  0  0
   26.2684   16.0604   19.7234 O   0  0  0  0  0  0  0  0  0  0  0  0
  2  1  1  6  0  0  0
  2  3  1  0  0  0  0
  2  5  1  0  0  0  0
  3  4  1  0  0  0  0
  3 10  1  0  0  0  0
  5  6  1  0  0  0  0
  6  7  1  0  0  0  0
  7  8  1  0  0  0  0
  8  9  1  0  0  0  0
M  END
>  <CHROM.1>
150.70978362,60.45877229,-177.04809623,72.49575761,175.88970531,28.84612910
15.91350915,20.64697235,-2.74791594,0.18843686,0.87084476

>  <Name>
ligand

>  <RI>
0

>  <Rbt.Current_Directory>
/home/itssahil/PROJECTS/Mol_Feturizer/New_Systems/rnas/3DIX

>  <Rbt.Executable>
rbdock ($Id: //depot/dev/client3/rdock/2013.1/src/exe/rbdock.cxx#4 $)

>  <Rbt.Library>
libRbt.so (2013.1, Build901 2013/11/27)

>  <Rbt.Parameter_File>
/export/apps/rDock/src/rDock_2013.1_src/data/scripts/dock_solv.prm

>  <Rbt.Receptor>
prm/pocket_docking_4.prm

>  <SCORE>
-8.87858

>  <SCORE.INTER>
-8.67787

>  <SCORE.INTER.CONST>
1

>  <SCORE.INTER.POLAR>
0

>  <SCORE.INTER.ROT>
5

>  <SCORE.INTER.SOLV>
13.1269

>  <SCORE.INTER.VDW>
-17.0942

>  <SCORE.INTER.norm>
-0.867787

>  <SCORE.INTRA>
-0.200713

>  <SCORE.INTRA.DIHEDRAL>
-1.12629

>  <SCORE.INTRA.DIHEDRAL.0>
3.281

>  <SCORE.INTRA.POLAR>
0

>  <SCORE.INTRA.POLAR.0>
0

>  <SCORE.INTRA.REPUL>
0

>  <SCORE.INTRA.REPUL.0>
0

>  <SCORE.INTRA.SOLV>
-0.372053

>  <SCORE.INTRA.SOLV.lig_0>
-31.9458

>  <SCORE.INTRA.VDW>
0.548458

>  <SCORE.INTRA.VDW.0>
-0.672612

>  <SCORE.INTRA.norm>
-0.0200713

>  <SCORE.RESTR>
0

>  <SCORE.RESTR.CAVITY>
0

>  <SCORE.RESTR.norm>
0

>  <SCORE.SYSTEM>
0

>  <SCORE.SYSTEM.CONST>
0

>  <SCORE.SYSTEM.DIHEDRAL>
0

>  <SCORE.SYSTEM.SOLV>
0

>  <SCORE.SYSTEM.norm>
0

>  <SCORE.heavy>
10

>  <SCORE.norm>
-0.887858

>  <RMSD>
5.326

$$$$
ligand
 OpenBabel11021811473D
libRbt.so/2013.1/901 2013/11/27
 10  9  0  0  0  0  0  0  0  0999 V2000
   28.4041   14.6144   18.7649 N   0  0  0  0  0  0  0  0  0  0  0  0
   28.0638   14.5624   20.2148 C   0  0  2  0  0  0  0  0  0  0  0  0
   26.6795   15.1372   20.4800 C   0  0  0  0  0  0  0  0  0  0  0  0
   26.0305   14.8486   21.4866 O   0  0  0  0  0  0  0  0  0  0  0  0
   29.1210   15.2836   21.0479 C   0  0  0  0  0  0  0  0  0  0  0  0
   29.2940   16.7324   20.6541 C   0  0  0  0  0  0  0  0  0  0  0  0
   30.4267   17.3833   21.4022 C   0  0  0  0  0  0  0  0  0  0  0  0
   31.7668   16.8758   20.8997 C   0  0  0  0  0  0  0  0  0  0  0  0
   32.9078   17.5601   21.5619 N   0  0  0  0  0  0  0  0  0  0  0  0
   26.1763   15.9457   19.6984 O   0  0  0  0  0  0  0  0  0  0  0  0
  2  1  1  6  0  0  0
  2  3  1  0  0  0  0
  2  5  1  0  0  0  0
  3  4  1  0  0  0  0
  3 10  1  0  0  0  0
  5  6  1  0  0  0  0
  6  7  1  0  0  0  0
  7  8  1  0  0  0  0
  8  9  1  0  0  0  0
M  END
>  <CHROM.1>
157.75398456,58.31527651,-174.75313109,72.22976114,176.54742004,28.84614410
15.90073045,20.62531230,-2.78284817,0.22830564,0.95768387

>  <Name>
ligand

>  <RI>
0

>  <Rbt.Current_Directory>
/home/itssahil/PROJECTS/Mol_Feturizer/New_Systems/rnas/3DIX

>  <Rbt.Executable>
rbdock ($Id: //depot/dev/client3/rdock/2013.1/src/exe/rbdock.cxx#4 $)

>  <Rbt.Library>
libRbt.so (2013.1, Build901 2013/11/27)

>  <Rbt.Parameter_File>
/export/apps/rDock/src/rDock_2013.1_src/data/scripts/dock_solv.prm

>  <Rbt.Receptor>
prm/pocket_docking_3.prm

>  <SCORE>
-8.82657

>  <SCORE.INTER>
-8.70759

>  <SCORE.INTER.CONST>
1

>  <SCORE.INTER.POLAR>
0

>  <SCORE.INTER.ROT>
5

>  <SCORE.INTER.SOLV>
12.949

>  <SCORE.INTER.VDW>
-17.0547

>  <SCORE.INTER.norm>
-0.870759

>  <SCORE.INTRA>
-0.118986

>  <SCORE.INTRA.DIHEDRAL>
-1.07413

>  <SCORE.INTRA.DIHEDRAL.0>
3.281

>  <SCORE.INTRA.POLAR>
0

>  <SCORE.INTRA.POLAR.0>
0

>  <SCORE.INTRA.REPUL>
0

>  <SCORE.INTRA.REPUL.0>
0

>  <SCORE.INTRA.SOLV>
-0.287803

>  <SCORE.INTRA.SOLV.lig_0>
-31.9458

>  <SCORE.INTRA.VDW>
0.561981

>  <SCORE.INTRA.VDW.0>
-0.672612

>  <SCORE.INTRA.norm>
-0.0118986

>  <SCORE.RESTR>
0

>  <SCORE.RESTR.CAVITY>
0

>  <SCORE.RESTR.norm>
0

>  <SCORE.SYSTEM>
0

>  <SCORE.SYSTEM.CONST>
0

>  <SCORE.SYSTEM.DIHEDRAL>
0

>  <SCORE.SYSTEM.SOLV>
0

>  <SCORE.SYSTEM.norm>
0

>  <SCORE.heavy>
10

>  <SCORE.norm>
-0.882657

>  <RMSD>
5.328

$$$$
ligand
 OpenBabel11021811473D
libRbt.so/2013.1/901 2013/11/27
 10  9  0  0  0  0  0  0  0  0999 V2000
   27.0520   13.8549   18.4264 N   0  0  0  0  0  0  0  0  0  0  0  0
   27.6272   14.7813   19.4420 C   0  0  2  0  0  0  0  0  0  0  0  0
   26.7113   14.9167   20.6503 C   0  0  0  0  0  0  0  0  0  0  0  0
   25.5031   15.1293   20.5378 O   0  0  0  0  0  0  0  0  0  0  0  0
   27.9218   16.1476   18.8270 C   0  0  0  0  0  0  0  0  0  0  0  0
   28.5685   17.1051   19.8011 C   0  0  0  0  0  0  0  0  0  0  0  0
   29.9246   16.6225   20.2420 C   0  0  0  0  0  0  0  0  0  0  0  0
   30.5368   17.5804   21.2488 C   0  0  0  0  0  0  0  0  0  0  0  0
   31.8893   17.1448   21.6842 N   0  0  0  0  0  0  0  0  0  0  0  0
   27.1555   14.7821   21.7915 O   0  0  0  0  0  0  0  0  0  0  0  0
  2  1  1  6  0  0  0
  2  3  1  0  0  0  0
  2  5  1  0  0  0  0
  3  4  1  0  0  0  0
  3 10  1  0  0  0  0
  5  6  1  0  0  0  0
  6  7  1  0  0  0  0
  7  8  1  0  0  0  0
  8  9  1  0  0  0  0
M  END
>  <CHROM.1>
-47.97956978,-177.26636886,63.93391900,-178.41363723,-178.88202261,28.26115145
15.80280280,20.29068973,-2.87066771,0.51095719,1.49428818

>  <Name>
ligand

>  <RI>
0

>  <Rbt.Current_Directory>
/home/itssahil/PROJECTS/Mol_Feturizer/New_Systems/rnas/3DIX

>  <Rbt.Executable>
rbdock ($Id: //depot/dev/client3/rdock/2013.1/src/exe/rbdock.cxx#4 $)

>  <Rbt.Library>
libRbt.so (2013.1, Build901 2013/11/27)

>  <Rbt.Parameter_File>
/export/apps/rDock/src/rDock_2013.1_src/data/scripts/dock_solv.prm

>  <Rbt.Receptor>
prm/blind_docking_60.prm

>  <SCORE>
-10.2331

>  <SCORE.INTER>
-8.9197

>  <SCORE.INTER.CONST>
1

>  <SCORE.INTER.POLAR>
0

>  <SCORE.INTER.ROT>
5

>  <SCORE.INTER.SOLV>
14.9033

>  <SCORE.INTER.VDW>
-17.8476

>  <SCORE.INTER.norm>
-0.89197

>  <SCORE.INTRA>
-1.31339

>  <SCORE.INTRA.DIHEDRAL>
-1.65063

>  <SCORE.INTRA.DIHEDRAL.0>
3.281

>  <SCORE.INTRA.POLAR>
0

>  <SCORE.INTRA.POLAR.0>
0

>  <SCORE.INTRA.REPUL>
0

>  <SCORE.INTRA.REPUL.0>
0

>  <SCORE.INTRA.SOLV>
-1.30614

>  <SCORE.INTRA.SOLV.lig_0>
-31.9458

>  <SCORE.INTRA.VDW>
0.164993

>  <SCORE.INTRA.VDW.0>
-0.672612

>  <SCORE.INTRA.norm>
-0.131339

>  <SCORE.RESTR>
0

>  <SCORE.RESTR.CAVITY>
0

>  <SCORE.RESTR.norm>
0

>  <SCORE.SYSTEM>
0

>  <SCORE.SYSTEM.CONST>
0

>  <SCORE.SYSTEM.DIHEDRAL>
0

>  <SCORE.SYSTEM.SOLV>
0

>  <SCORE.SYSTEM.norm>
0

>  <SCORE.heavy>
10

>  <SCORE.norm>
-1.02331

>  <RMSD>
5.329

$$$$
ligand
 OpenBabel11021811473D
libRbt.so/2013.1/901 2013/11/27
 10  9  0  0  0  0  0  0  0  0999 V2000
   27.0553   13.9093   18.6264 N   0  0  0  0  0  0  0  0  0  0  0  0
   27.6164   14.8733   19.6146 C   0  0  2  0  0  0  0  0  0  0  0  0
   26.6838   15.0536   20.8040 C   0  0  0  0  0  0  0  0  0  0  0  0
   27.1049   15.1943   21.9532 O   0  0  0  0  0  0  0  0  0  0  0  0
   27.9201   16.2157   18.9531 C   0  0  0  0  0  0  0  0  0  0  0  0
   28.5933   17.1941   19.8876 C   0  0  0  0  0  0  0  0  0  0  0  0
   29.9714   16.7332   20.2809 C   0  0  0  0  0  0  0  0  0  0  0  0
   30.5783   17.6674   21.3129 C   0  0  0  0  0  0  0  0  0  0  0  0
   31.9462   17.2459   21.7127 N   0  0  0  0  0  0  0  0  0  0  0  0
   25.4632   15.0976   20.6423 O   0  0  0  0  0  0  0  0  0  0  0  0
  2  1  1  6  0  0  0
  2  3  1  0  0  0  0
  2  5  1  0  0  0  0
  3  4  1  0  0  0  0
  3 10  1  0  0  0  0
  5  6  1  0  0  0  0
  6  7  1  0  0  0  0
  7  8  1  0  0  0  0
  8  9  1  0  0  0  0
M  END
>  <CHROM.1>
142.72929510,-175.44352808,66.20650403,-175.00790689,-179.45622944,28.26459504
15.91674388,20.40387989,-2.85393825,0.48146032,1.40431109

>  <Name>
ligand

>  <RI>
0

>  <Rbt.Current_Directory>
/home/itssahil/PROJECTS/Mol_Feturizer/New_Systems/rnas/3DIX

>  <Rbt.Executable>
rbdock ($Id: //depot/dev/client3/rdock/2013.1/src/exe/rbdock.cxx#4 $)

>  <Rbt.Library>
libRbt.so (2013.1, Build901 2013/11/27)

>  <Rbt.Parameter_File>
/export/apps/rDock/src/rDock_2013.1_src/data/scripts/dock_solv.prm

>  <Rbt.Receptor>
prm/pocket_docking_4.prm

>  <SCORE>
-10.3725

>  <SCORE.INTER>
-9.06729

>  <SCORE.INTER.CONST>
1

>  <SCORE.INTER.POLAR>
0

>  <SCORE.INTER.ROT>
5

>  <SCORE.INTER.SOLV>
14.7896

>  <SCORE.INTER.VDW>
-17.9081

>  <SCORE.INTER.norm>
-0.906729

>  <SCORE.INTRA>
-1.3052

>  <SCORE.INTRA.DIHEDRAL>
-1.51338

>  <SCORE.INTRA.DIHEDRAL.0>
3.281

>  <SCORE.INTRA.POLAR>
0

>  <SCORE.INTRA.POLAR.0>
0

>  <SCORE.INTRA.REPUL>
0

>  <SCORE.INTRA.REPUL.0>
0

>  <SCORE.INTRA.SOLV>
-1.30414

>  <SCORE.INTRA.SOLV.lig_0>
-31.9458

>  <SCORE.INTRA.VDW>
0.103557

>  <SCORE.INTRA.VDW.0>
-0.672612

>  <SCORE.INTRA.norm>
-0.13052

>  <SCORE.RESTR>
0

>  <SCORE.RESTR.CAVITY>
0

>  <SCORE.RESTR.norm>
0

>  <SCORE.SYSTEM>
0

>  <SCORE.SYSTEM.CONST>
0

>  <SCORE.SYSTEM.DIHEDRAL>
0

>  <SCORE.SYSTEM.SOLV>
0

>  <SCORE.SYSTEM.norm>
0

>  <SCORE.heavy>
10

>  <SCORE.norm>
-1.03725

>  <RMSD>
5.329

$$$$
ligand
 OpenBabel11021811473D
libRbt.so/2013.1/901 2013/11/27
 10  9  0  0  0  0  0  0  0  0999 V2000
   25.7689   15.7641   19.7077 N   0  0  0  0  0  0  0  0  0  0  0  0
   27.2239   15.5046   19.8979 C   0  0  2  0  0  0  0  0  0  0  0  0
   27.7641   14.5662   18.8280 C   0  0  0  0  0  0  0  0  0  0  0  0
   28.9376   14.6019   18.4550 O   0  0  0  0  0  0  0  0  0  0  0  0
   27.5000   14.9532   21.2949 C   0  0  0  0  0  0  0  0  0  0  0  0
   28.9747   14.8703   21.6147 C   0  0  0  0  0  0  0  0  0  0  0  0
   29.6176   16.2312   21.6435 C   0  0  0  0  0  0  0  0  0  0  0  0
   31.1079   16.1181   21.9122 C   0  0  0  0  0  0  0  0  0  0  0  0
   31.7806   17.4432   21.8989 N   0  0  0  0  0  0  0  0  0  0  0  0
   27.0381   13.7092   18.3216 O   0  0  0  0  0  0  0  0  0  0  0  0
  2  1  1  6  0  0  0
  2  3  1  0  0  0  0
  2  5  1  0  0  0  0
  3  4  1  0  0  0  0
  3 10  1  0  0  0  0
  5  6  1  0  0  0  0
  6  7  1  0  0  0  0
  7  8  1  0  0  0  0
  8  9  1  0  0  0  0
M  END
>  <CHROM.1>
151.47419809,-171.26519545,63.88189266,-177.75920574,177.97425778,28.57612621
15.35237713,20.32740882,2.42192853,-0.09152146,-2.06482771

>  <Name>
ligand

>  <RI>
0

>  <Rbt.Current_Directory>
/home/itssahil/PROJECTS/Mol_Feturizer/New_Systems/rnas/3DIX

>  <Rbt.Executable>
rbdock ($Id: //depot/dev/client3/rdock/2013.1/src/exe/rbdock.cxx#4 $)

>  <Rbt.Library>
libRbt.so (2013.1, Build901 2013/11/27)

>  <Rbt.Parameter_File>
/export/apps/rDock/src/rDock_2013.1_src/data/scripts/dock_solv.prm

>  <Rbt.Receptor>
prm/pocket_docking_4.prm

>  <SCORE>
-9.05043

>  <SCORE.INTER>
-7.82517

>  <SCORE.INTER.CONST>
1

>  <SCORE.INTER.POLAR>
0

>  <SCORE.INTER.ROT>
5

>  <SCORE.INTER.SOLV>
16.8563

>  <SCORE.INTER.VDW>
-17.7689

>  <SCORE.INTER.norm>
-0.782517

>  <SCORE.INTRA>
-1.22526

>  <SCORE.INTRA.DIHEDRAL>
-1.47927

>  <SCORE.INTRA.DIHEDRAL.0>
3.281

>  <SCORE.INTRA.POLAR>
0

>  <SCORE.INTRA.POLAR.0>
0

>  <SCORE.INTRA.REPUL>
0

>  <SCORE.INTRA.REPUL.0>
0

>  <SCORE.INTRA.SOLV>
-1.25647

>  <SCORE.INTRA.SOLV.lig_0>
-31.9458

>  <SCORE.INTRA.VDW>
0.142603

>  <SCORE.INTRA.VDW.0>
-0.672612

>  <SCORE.INTRA.norm>
-0.122526

>  <SCORE.RESTR>
0

>  <SCORE.RESTR.CAVITY>
0

>  <SCORE.RESTR.norm>
0

>  <SCORE.SYSTEM>
0

>  <SCORE.SYSTEM.CONST>
0

>  <SCORE.SYSTEM.DIHEDRAL>
0

>  <SCORE.SYSTEM.SOLV>
0

>  <SCORE.SYSTEM.norm>
0

>  <SCORE.heavy>
10

>  <SCORE.norm>
-0.905043

>  <RMSD>
5.331

$$$$
ligand
 OpenBabel11021811473D
libRbt.so/2013.1/901 2013/11/27
 10  9  0  0  0  0  0  0  0  0999 V2000
   27.0473   13.9102   18.6490 N   0  0  0  0  0  0  0  0  0  0  0  0
   27.6161   14.8670   19.6398 C   0  0  2  0  0  0  0  0  0  0  0  0
   26.6706   15.0761   20.8142 C   0  0  0  0  0  0  0  0  0  0  0  0
   25.4459   15.0331   20.6869 O   0  0  0  0  0  0  0  0  0  0  0  0
   27.9604   16.1979   18.9750 C   0  0  0  0  0  0  0  0  0  0  0  0
   28.6214   17.1748   19.9199 C   0  0  0  0  0  0  0  0  0  0  0  0
   29.9714   16.6869   20.3735 C   0  0  0  0  0  0  0  0  0  0  0  0
   30.5988   17.6665   21.3496 C   0  0  0  0  0  0  0  0  0  0  0  0
   31.9600   17.2430   21.7696 N   0  0  0  0  0  0  0  0  0  0  0  0
   27.1124   15.2642   21.9487 O   0  0  0  0  0  0  0  0  0  0  0  0
  2  1  1  6  0  0  0
  2  3  1  0  0  0  0
  2  5  1  0  0  0  0
  3  4  1  0  0  0  0
  3 10  1  0  0  0  0
  5  6  1  0  0  0  0
  6  7  1  0  0  0  0
  7  8  1  0  0  0  0
  8  9  1  0  0  0  0
M  END
>  <CHROM.1>
-32.51189286,-176.40609140,65.38786978,-178.48818086,-177.43609158,28.27176232
15.91011542,20.43776718,-2.83675153,0.47144083,1.38021891

>  <Name>
ligand

>  <RI>
0

>  <Rbt.Current_Directory>
/home/itssahil/PROJECTS/Mol_Feturizer/New_Systems/rnas/3DIX

>  <Rbt.Executable>
rbdock ($Id: //depot/dev/client3/rdock/2013.1/src/exe/rbdock.cxx#4 $)

>  <Rbt.Library>
libRbt.so (2013.1, Build901 2013/11/27)

>  <Rbt.Parameter_File>
/export/apps/rDock/src/rDock_2013.1_src/data/scripts/dock_solv.prm

>  <Rbt.Receptor>
prm/pocket_docking_7.prm

>  <SCORE>
-10.3123

>  <SCORE.INTER>
-9.05773

>  <SCORE.INTER.CONST>
1

>  <SCORE.INTER.POLAR>
0

>  <SCORE.INTER.ROT>
5

>  <SCORE.INTER.SOLV>
14.8848

>  <SCORE.INTER.VDW>
-17.9334

>  <SCORE.INTER.norm>
-0.905773

>  <SCORE.INTRA>
-1.25458

>  <SCORE.INTRA.DIHEDRAL>
-1.52427

>  <SCORE.INTRA.DIHEDRAL.0>
3.281

>  <SCORE.INTRA.POLAR>
0

>  <SCORE.INTRA.POLAR.0>
0

>  <SCORE.INTRA.REPUL>
0

>  <SCORE.INTRA.REPUL.0>
0

>  <SCORE.INTRA.SOLV>
-1.30371

>  <SCORE.INTRA.SOLV.lig_0>
-31.9458

>  <SCORE.INTRA.VDW>
0.159414

>  <SCORE.INTRA.VDW.0>
-0.672612

>  <SCORE.INTRA.norm>
-0.125458

>  <SCORE.RESTR>
0

>  <SCORE.RESTR.CAVITY>
0

>  <SCORE.RESTR.norm>
0

>  <SCORE.SYSTEM>
0

>  <SCORE.SYSTEM.CONST>
0

>  <SCORE.SYSTEM.DIHEDRAL>
0

>  <SCORE.SYSTEM.SOLV>
0

>  <SCORE.SYSTEM.norm>
0

>  <SCORE.heavy>
10

>  <SCORE.norm>
-1.03123

>  <RMSD>
5.331

$$$$
ligand
 OpenBabel11021811473D
libRbt.so/2013.1/901 2013/11/27
 10  9  0  0  0  0  0  0  0  0999 V2000
   27.0681   13.9076   18.6451 N   0  0  0  0  0  0  0  0  0  0  0  0
   27.6227   14.8687   19.6398 C   0  0  2  0  0  0  0  0  0  0  0  0
   26.6647   15.0753   20.8045 C   0  0  0  0  0  0  0  0  0  0  0  0
   25.4423   15.0975   20.6533 O   0  0  0  0  0  0  0  0  0  0  0  0
   27.9673   16.2001   18.9762 C   0  0  0  0  0  0  0  0  0  0  0  0
   28.6243   17.1777   19.9230 C   0  0  0  0  0  0  0  0  0  0  0  0
   29.9749   16.6930   20.3780 C   0  0  0  0  0  0  0  0  0  0  0  0
   30.5994   17.6747   21.3539 C   0  0  0  0  0  0  0  0  0  0  0  0
   31.9522   17.2431   21.7924 N   0  0  0  0  0  0  0  0  0  0  0  0
   27.0921   15.1948   21.9538 O   0  0  0  0  0  0  0  0  0  0  0  0
  2  1  1  6  0  0  0
  2  3  1  0  0  0  0
  2  5  1  0  0  0  0
  3  4  1  0  0  0  0
  3 10  1  0  0  0  0
  5  6  1  0  0  0  0
  6  7  1  0  0  0  0
  7  8  1  0  0  0  0
  8  9  1  0  0  0  0
M  END
>  <CHROM.1>
-36.47886474,-175.95729262,65.52150595,-178.60581097,-178.36413418,28.27180691
15.91135122,20.43688881,-2.83688046,0.47174938,1.38697666

>  <Name>
ligand

>  <RI>
0

>  <Rbt.Current_Directory>
/home/itssahil/PROJECTS/Mol_Feturizer/New_Systems/rnas/3DIX

>  <Rbt.Executable>
rbdock ($Id: //depot/dev/client3/rdock/2013.1/src/exe/rbdock.cxx#4 $)

>  <Rbt.Library>
libRbt.so (2013.1, Build901 2013/11/27)

>  <Rbt.Parameter_File>
/export/apps/rDock/src/rDock_2013.1_src/data/scripts/dock_solv.prm

>  <Rbt.Receptor>
prm/pocket_docking_5.prm

>  <SCORE>
-10.3026

>  <SCORE.INTER>
-9.00945

>  <SCORE.INTER.CONST>
1

>  <SCORE.INTER.POLAR>
0

>  <SCORE.INTER.ROT>
5

>  <SCORE.INTER.SOLV>
14.8727

>  <SCORE.INTER.VDW>
-17.8972

>  <SCORE.INTER.norm>
-0.900945

>  <SCORE.INTRA>
-1.29317

>  <SCORE.INTRA.DIHEDRAL>
-1.52625

>  <SCORE.INTRA.DIHEDRAL.0>
3.281

>  <SCORE.INTRA.POLAR>
0

>  <SCORE.INTRA.POLAR.0>
0

>  <SCORE.INTRA.REPUL>
0

>  <SCORE.INTRA.REPUL.0>
0

>  <SCORE.INTRA.SOLV>
-1.30298

>  <SCORE.INTRA.SOLV.lig_0>
-31.9458

>  <SCORE.INTRA.VDW>
0.121442

>  <SCORE.INTRA.VDW.0>
-0.672612

>  <SCORE.INTRA.norm>
-0.129317

>  <SCORE.RESTR>
0

>  <SCORE.RESTR.CAVITY>
0

>  <SCORE.RESTR.norm>
0

>  <SCORE.SYSTEM>
0

>  <SCORE.SYSTEM.CONST>
0

>  <SCORE.SYSTEM.DIHEDRAL>
0

>  <SCORE.SYSTEM.SOLV>
0

>  <SCORE.SYSTEM.norm>
0

>  <SCORE.heavy>
10

>  <SCORE.norm>
-1.03026

>  <RMSD>
5.332

$$$$
ligand
 OpenBabel11021811473D
libRbt.so/2013.1/901 2013/11/27
 10  9  0  0  0  0  0  0  0  0999 V2000
   28.4970   16.9681   19.9674 N   0  0  0  0  0  0  0  0  0  0  0  0
   28.2728   15.5301   20.2876 C   0  0  2  0  0  0  0  0  0  0  0  0
   26.9528   15.3240   21.0172 C   0  0  0  0  0  0  0  0  0  0  0  0
   25.9233   14.9885   20.4297 O   0  0  0  0  0  0  0  0  0  0  0  0
   29.4367   14.9656   21.0990 C   0  0  0  0  0  0  0  0  0  0  0  0
   30.7850   15.4225   20.5917 C   0  0  0  0  0  0  0  0  0  0  0  0
   31.2539   16.6679   21.2953 C   0  0  0  0  0  0  0  0  0  0  0  0
   32.6681   17.0257   20.8732 C   0  0  0  0  0  0  0  0  0  0  0  0
   33.2177   18.1584   21.6629 N   0  0  0  0  0  0  0  0  0  0  0  0
   26.8853   15.4574   22.2401 O   0  0  0  0  0  0  0  0  0  0  0  0
  2  1  1  1  0  0  0
  2  3  1  0  0  0  0
  2  5  1  0  0  0  0
  3  4  1  0  0  0  0
  3 10  1  0  0  0  0
  5  6  1  0  0  0  0
  6  7  1  0  0  0  0
  7  8  1  0  0  0  0
  8  9  1  0  0  0  0
M  END
>  <CHROM.1>
96.70877574,-42.24791031,92.36534278,174.15663765,-173.47609260,29.34816482
16.04134274,20.96100351,-3.02143174,0.30996908,1.32363586

>  <Name>
ligand

>  <RI>
0

>  <Rbt.Current_Directory>
/home/itssahil/PROJECTS/Mol_Feturizer/New_Systems/rnas/3DIX

>  <Rbt.Executable>
rbdock ($Id: //depot/dev/client3/rdock/2013.1/src/exe/rbdock.cxx#4 $)

>  <Rbt.Library>
libRbt.so (2013.1, Build901 2013/11/27)

>  <Rbt.Parameter_File>
/export/apps/rDock/src/rDock_2013.1_src/data/scripts/dock_solv.prm

>  <Rbt.Receptor>
prm/pocket_docking_6.prm

>  <SCORE>
-5.47274

>  <SCORE.INTER>
-7.97477

>  <SCORE.INTER.CONST>
1

>  <SCORE.INTER.POLAR>
0

>  <SCORE.INTER.ROT>
5

>  <SCORE.INTER.SOLV>
14.8893

>  <SCORE.INTER.VDW>
-17.2129

>  <SCORE.INTER.norm>
-0.797477

>  <SCORE.INTRA>
2.50203

>  <SCORE.INTRA.DIHEDRAL>
3.14454

>  <SCORE.INTRA.DIHEDRAL.0>
3.281

>  <SCORE.INTRA.POLAR>
0

>  <SCORE.INTRA.POLAR.0>
0

>  <SCORE.INTRA.REPUL>
0

>  <SCORE.INTRA.REPUL.0>
0

>  <SCORE.INTRA.SOLV>
0.72812

>  <SCORE.INTRA.SOLV.lig_0>
-31.9458

>  <SCORE.INTRA.VDW>
0.565698

>  <SCORE.INTRA.VDW.0>
-0.672612

>  <SCORE.INTRA.norm>
0.250203

>  <SCORE.RESTR>
0

>  <SCORE.RESTR.CAVITY>
0

>  <SCORE.RESTR.norm>
0

>  <SCORE.SYSTEM>
0

>  <SCORE.SYSTEM.CONST>
0

>  <SCORE.SYSTEM.DIHEDRAL>
0

>  <SCORE.SYSTEM.SOLV>
0

>  <SCORE.SYSTEM.norm>
0

>  <SCORE.heavy>
10

>  <SCORE.norm>
-0.547274

>  <RMSD>
5.334

$$$$
ligand
 OpenBabel11021811473D
libRbt.so/2013.1/901 2013/11/27
 10  9  0  0  0  0  0  0  0  0999 V2000
   27.0524   13.9222   18.6332 N   0  0  0  0  0  0  0  0  0  0  0  0
   27.6189   14.8717   19.6324 C   0  0  2  0  0  0  0  0  0  0  0  0
   26.6719   15.0697   20.8076 C   0  0  0  0  0  0  0  0  0  0  0  0
   27.0796   15.2631   21.9539 O   0  0  0  0  0  0  0  0  0  0  0  0
   27.9619   16.2085   18.9790 C   0  0  0  0  0  0  0  0  0  0  0  0
   28.6311   17.1743   19.9293 C   0  0  0  0  0  0  0  0  0  0  0  0
   29.9828   16.6788   20.3695 C   0  0  0  0  0  0  0  0  0  0  0  0
   30.6225   17.6516   21.3444 C   0  0  0  0  0  0  0  0  0  0  0  0
   31.9898   17.2264   21.7424 N   0  0  0  0  0  0  0  0  0  0  0  0
   25.4520   15.0751   20.6354 O   0  0  0  0  0  0  0  0  0  0  0  0
  2  1  1  6  0  0  0
  2  3  1  0  0  0  0
  2  5  1  0  0  0  0
  3  4  1  0  0  0  0
  3 10  1  0  0  0  0
  5  6  1  0  0  0  0
  6  7  1  0  0  0  0
  7  8  1  0  0  0  0
  8  9  1  0  0  0  0
M  END
>  <CHROM.1>
146.30542824,-175.92312724,65.37522094,-178.86238204,-176.95878441,28.27715915
15.91291454,20.42743221,-2.83560091,0.46186708,1.37455101

>  <Name>
ligand

>  <RI>
0

>  <Rbt.Current_Directory>
/home/itssahil/PROJECTS/Mol_Feturizer/New_Systems/rnas/3DIX

>  <Rbt.Executable>
rbdock ($Id: //depot/dev/client3/rdock/2013.1/src/exe/rbdock.cxx#4 $)

>  <Rbt.Library>
libRbt.so (2013.1, Build901 2013/11/27)

>  <Rbt.Parameter_File>
/export/apps/rDock/src/rDock_2013.1_src/data/scripts/dock_solv.prm

>  <Rbt.Receptor>
prm/pocket_docking_7.prm

>  <SCORE>
-10.3992

>  <SCORE.INTER>
-9.08878

>  <SCORE.INTER.CONST>
1

>  <SCORE.INTER.POLAR>
0

>  <SCORE.INTER.ROT>
5

>  <SCORE.INTER.SOLV>
14.8921

>  <SCORE.INTER.VDW>
-17.9566

>  <SCORE.INTER.norm>
-0.908878

>  <SCORE.INTRA>
-1.31041

>  <SCORE.INTRA.DIHEDRAL>
-1.63777

>  <SCORE.INTRA.DIHEDRAL.0>
3.281

>  <SCORE.INTRA.POLAR>
0

>  <SCORE.INTRA.POLAR.0>
0

>  <SCORE.INTRA.REPUL>
0

>  <SCORE.INTRA.REPUL.0>
0

>  <SCORE.INTRA.SOLV>
-1.30115

>  <SCORE.INTRA.SOLV.lig_0>
-31.9458

>  <SCORE.INTRA.VDW>
0.159055

>  <SCORE.INTRA.VDW.0>
-0.672612

>  <SCORE.INTRA.norm>
-0.131041

>  <SCORE.RESTR>
0

>  <SCORE.RESTR.CAVITY>
0

>  <SCORE.RESTR.norm>
0

>  <SCORE.SYSTEM>
0

>  <SCORE.SYSTEM.CONST>
0

>  <SCORE.SYSTEM.DIHEDRAL>
0

>  <SCORE.SYSTEM.SOLV>
0

>  <SCORE.SYSTEM.norm>
0

>  <SCORE.heavy>
10

>  <SCORE.norm>
-1.03992

>  <RMSD>
5.334

$$$$
ligand
 OpenBabel11021811473D
libRbt.so/2013.1/901 2013/11/27
 10  9  0  0  0  0  0  0  0  0999 V2000
   25.6303   15.3462   20.4676 N   0  0  0  0  0  0  0  0  0  0  0  0
   27.0883   15.5892   20.2781 C   0  0  2  0  0  0  0  0  0  0  0  0
   27.4939   15.4179   18.8210 C   0  0  0  0  0  0  0  0  0  0  0  0
   27.1554   14.4376   18.1561 O   0  0  0  0  0  0  0  0  0  0  0  0
   27.9138   14.6776   21.1833 C   0  0  0  0  0  0  0  0  0  0  0  0
   29.3992   14.9383   21.0850 C   0  0  0  0  0  0  0  0  0  0  0  0
   29.7671   16.2891   21.6381 C   0  0  0  0  0  0  0  0  0  0  0  0
   31.2647   16.5218   21.5414 C   0  0  0  0  0  0  0  0  0  0  0  0
   31.6586   17.8545   22.0679 N   0  0  0  0  0  0  0  0  0  0  0  0
   28.1548   16.2857   18.2483 O   0  0  0  0  0  0  0  0  0  0  0  0
  2  1  1  6  0  0  0
  2  3  1  0  0  0  0
  2  5  1  0  0  0  0
  3  4  1  0  0  0  0
  3 10  1  0  0  0  0
  5  6  1  0  0  0  0
  6  7  1  0  0  0  0
  7  8  1  0  0  0  0
  8  9  1  0  0  0  0
M  END
>  <CHROM.1>
-48.32944129,-176.81525879,67.26735148,179.41729287,179.43113244,28.55307569
15.73065298,20.31073234,2.65777608,-0.45438435,-1.46732172

>  <Name>
ligand

>  <RI>
0

>  <Rbt.Current_Directory>
/home/itssahil/PROJECTS/Mol_Feturizer/New_Systems/rnas/3DIX

>  <Rbt.Executable>
rbdock ($Id: //depot/dev/client3/rdock/2013.1/src/exe/rbdock.cxx#4 $)

>  <Rbt.Library>
libRbt.so (2013.1, Build901 2013/11/27)

>  <Rbt.Parameter_File>
/export/apps/rDock/src/rDock_2013.1_src/data/scripts/dock_solv.prm

>  <Rbt.Receptor>
prm/pocket_docking_3.prm

>  <SCORE>
-8.67767

>  <SCORE.INTER>
-7.35334

>  <SCORE.INTER.CONST>
1

>  <SCORE.INTER.POLAR>
0

>  <SCORE.INTER.ROT>
5

>  <SCORE.INTER.SOLV>
17.5486

>  <SCORE.INTER.VDW>
-17.6851

>  <SCORE.INTER.norm>
-0.735334

>  <SCORE.INTRA>
-1.32432

>  <SCORE.INTRA.DIHEDRAL>
-1.50054

>  <SCORE.INTRA.DIHEDRAL.0>
3.281

>  <SCORE.INTRA.POLAR>
0

>  <SCORE.INTRA.POLAR.0>
0

>  <SCORE.INTRA.REPUL>
0

>  <SCORE.INTRA.REPUL.0>
0

>  <SCORE.INTRA.SOLV>
-1.32199

>  <SCORE.INTRA.SOLV.lig_0>
-31.9458

>  <SCORE.INTRA.VDW>
0.0869435

>  <SCORE.INTRA.VDW.0>
-0.672612

>  <SCORE.INTRA.norm>
-0.132432

>  <SCORE.RESTR>
0

>  <SCORE.RESTR.CAVITY>
0

>  <SCORE.RESTR.norm>
0

>  <SCORE.SYSTEM>
0

>  <SCORE.SYSTEM.CONST>
0

>  <SCORE.SYSTEM.DIHEDRAL>
0

>  <SCORE.SYSTEM.SOLV>
0

>  <SCORE.SYSTEM.norm>
0

>  <SCORE.heavy>
10

>  <SCORE.norm>
-0.867767

>  <RMSD>
5.337

$$$$
ligand
 OpenBabel11021811473D
libRbt.so/2013.1/901 2013/11/27
 10  9  0  0  0  0  0  0  0  0999 V2000
   25.6531   15.1087   20.5565 N   0  0  0  0  0  0  0  0  0  0  0  0
   26.9263   15.8036   20.2146 C   0  0  2  0  0  0  0  0  0  0  0  0
   27.3718   15.4779   18.7960 C   0  0  0  0  0  0  0  0  0  0  0  0
   27.0522   14.4305   18.2316 O   0  0  0  0  0  0  0  0  0  0  0  0
   28.0215   15.4590   21.2214 C   0  0  0  0  0  0  0  0  0  0  0  0
   29.2782   16.2757   21.0275 C   0  0  0  0  0  0  0  0  0  0  0  0
   30.3541   15.8862   22.0057 C   0  0  0  0  0  0  0  0  0  0  0  0
   31.5951   16.7392   21.8102 C   0  0  0  0  0  0  0  0  0  0  0  0
   32.2334   16.5032   20.4890 N   0  0  0  0  0  0  0  0  0  0  0  0
   28.0478   16.2812   18.1515 O   0  0  0  0  0  0  0  0  0  0  0  0
  2  1  1  1  0  0  0
  2  3  1  0  0  0  0
  2  5  1  0  0  0  0
  3  4  1  0  0  0  0
  3 10  1  0  0  0  0
  5  6  1  0  0  0  0
  6  7  1  0  0  0  0
  7  8  1  0  0  0  0
  8  9  1  0  0  0  0
M  END
>  <CHROM.1>
-26.20918258,-172.45072760,-178.27100523,-178.82840327,-65.20411638,28.65305423
15.78871310,20.21380639,2.70979154,-0.25151572,-1.59267560

>  <Name>
ligand

>  <RI>
0

>  <Rbt.Current_Directory>
/home/itssahil/PROJECTS/Mol_Feturizer/New_Systems/rnas/3DIX

>  <Rbt.Executable>
rbdock ($Id: //depot/dev/client3/rdock/2013.1/src/exe/rbdock.cxx#4 $)

>  <Rbt.Library>
libRbt.so (2013.1, Build901 2013/11/27)

>  <Rbt.Parameter_File>
/export/apps/rDock/src/rDock_2013.1_src/data/scripts/dock_solv.prm

>  <Rbt.Receptor>
prm/pocket_docking_8.prm

>  <SCORE>
-8.47092

>  <SCORE.INTER>
-7.46911

>  <SCORE.INTER.CONST>
1

>  <SCORE.INTER.POLAR>
0

>  <SCORE.INTER.ROT>
5

>  <SCORE.INTER.SOLV>
17.5709

>  <SCORE.INTER.VDW>
-17.7697

>  <SCORE.INTER.norm>
-0.746911

>  <SCORE.INTRA>
-1.00181

>  <SCORE.INTRA.DIHEDRAL>
-1.39445

>  <SCORE.INTRA.DIHEDRAL.0>
3.281

>  <SCORE.INTRA.POLAR>
0

>  <SCORE.INTRA.POLAR.0>
0

>  <SCORE.INTRA.REPUL>
0

>  <SCORE.INTRA.REPUL.0>
0

>  <SCORE.INTRA.SOLV>
-0.651822

>  <SCORE.INTRA.SOLV.lig_0>
-31.9458

>  <SCORE.INTRA.VDW>
0.0213268

>  <SCORE.INTRA.VDW.0>
-0.672612

>  <SCORE.INTRA.norm>
-0.100181

>  <SCORE.RESTR>
0

>  <SCORE.RESTR.CAVITY>
0

>  <SCORE.RESTR.norm>
0

>  <SCORE.SYSTEM>
0

>  <SCORE.SYSTEM.CONST>
0

>  <SCORE.SYSTEM.DIHEDRAL>
0

>  <SCORE.SYSTEM.SOLV>
0

>  <SCORE.SYSTEM.norm>
0

>  <SCORE.heavy>
10

>  <SCORE.norm>
-0.847092

>  <RMSD>
5.337

$$$$
ligand
 OpenBabel11021811473D
libRbt.so/2013.1/901 2013/11/27
 10  9  0  0  0  0  0  0  0  0999 V2000
   27.0333   13.8702   18.5379 N   0  0  0  0  0  0  0  0  0  0  0  0
   27.6004   14.8183   19.5380 C   0  0  2  0  0  0  0  0  0  0  0  0
   26.6730   14.9826   20.7339 C   0  0  0  0  0  0  0  0  0  0  0  0
   25.4546   15.1135   20.6068 O   0  0  0  0  0  0  0  0  0  0  0  0
   27.9039   16.1698   18.8953 C   0  0  0  0  0  0  0  0  0  0  0  0
   28.5645   17.1399   19.8474 C   0  0  0  0  0  0  0  0  0  0  0  0
   29.9330   16.6702   20.2632 C   0  0  0  0  0  0  0  0  0  0  0  0
   30.5453   17.6220   21.2757 C   0  0  0  0  0  0  0  0  0  0  0  0
   31.9128   17.2040   21.6804 N   0  0  0  0  0  0  0  0  0  0  0  0
   27.1197   14.9555   21.8817 O   0  0  0  0  0  0  0  0  0  0  0  0
  2  1  1  6  0  0  0
  2  3  1  0  0  0  0
  2  5  1  0  0  0  0
  3  4  1  0  0  0  0
  3 10  1  0  0  0  0
  5  6  1  0  0  0  0
  6  7  1  0  0  0  0
  7  8  1  0  0  0  0
  8  9  1  0  0  0  0
M  END
>  <CHROM.1>
-43.45847096,-176.28365874,65.36455484,-176.96597356,-178.53216157,28.24583824
15.85161265,20.35155698,-2.86794272,0.49694243,1.44948624

>  <Name>
ligand

>  <RI>
0

>  <Rbt.Current_Directory>
/home/itssahil/PROJECTS/Mol_Feturizer/New_Systems/rnas/3DIX

>  <Rbt.Executable>
rbdock ($Id: //depot/dev/client3/rdock/2013.1/src/exe/rbdock.cxx#4 $)

>  <Rbt.Library>
libRbt.so (2013.1, Build901 2013/11/27)

>  <Rbt.Parameter_File>
/export/apps/rDock/src/rDock_2013.1_src/data/scripts/dock_solv.prm

>  <Rbt.Receptor>
prm/pocket_docking_4.prm

>  <SCORE>
-10.3081

>  <SCORE.INTER>
-8.99893

>  <SCORE.INTER.CONST>
1

>  <SCORE.INTER.POLAR>
0

>  <SCORE.INTER.ROT>
5

>  <SCORE.INTER.SOLV>
14.8791

>  <SCORE.INTER.VDW>
-17.8923

>  <SCORE.INTER.norm>
-0.899893

>  <SCORE.INTRA>
-1.30918

>  <SCORE.INTRA.DIHEDRAL>
-1.52832

>  <SCORE.INTRA.DIHEDRAL.0>
3.281

>  <SCORE.INTRA.POLAR>
0

>  <SCORE.INTRA.POLAR.0>
0

>  <SCORE.INTRA.REPUL>
0

>  <SCORE.INTRA.REPUL.0>
0

>  <SCORE.INTRA.SOLV>
-1.30579

>  <SCORE.INTRA.SOLV.lig_0>
-31.9458

>  <SCORE.INTRA.VDW>
0.107873

>  <SCORE.INTRA.VDW.0>
-0.672612

>  <SCORE.INTRA.norm>
-0.130918

>  <SCORE.RESTR>
0

>  <SCORE.RESTR.CAVITY>
0

>  <SCORE.RESTR.norm>
0

>  <SCORE.SYSTEM>
0

>  <SCORE.SYSTEM.CONST>
0

>  <SCORE.SYSTEM.DIHEDRAL>
0

>  <SCORE.SYSTEM.SOLV>
0

>  <SCORE.SYSTEM.norm>
0

>  <SCORE.heavy>
10

>  <SCORE.norm>
-1.03081

>  <RMSD>
5.339

$$$$
ligand
 OpenBabel11021811473D
libRbt.so/2013.1/901 2013/11/27
 10  9  0  0  0  0  0  0  0  0999 V2000
   26.9047   14.6462   20.0671 N   0  0  0  0  0  0  0  0  0  0  0  0
   27.1859   15.6542   19.0062 C   0  0  2  0  0  0  0  0  0  0  0  0
   27.8137   15.0074   17.7796 C   0  0  0  0  0  0  0  0  0  0  0  0
   28.1290   15.6588   16.7826 O   0  0  0  0  0  0  0  0  0  0  0  0
   28.0717   16.7762   19.5430 C   0  0  0  0  0  0  0  0  0  0  0  0
   29.3545   16.2697   20.1609 C   0  0  0  0  0  0  0  0  0  0  0  0
   30.1260   17.3747   20.8316 C   0  0  0  0  0  0  0  0  0  0  0  0
   31.3781   16.8312   21.4971 C   0  0  0  0  0  0  0  0  0  0  0  0
   32.3698   16.3394   20.5055 N   0  0  0  0  0  0  0  0  0  0  0  0
   28.0578   13.7999   17.7636 O   0  0  0  0  0  0  0  0  0  0  0  0
  2  1  1  1  0  0  0
  2  3  1  0  0  0  0
  2  5  1  0  0  0  0
  3  4  1  0  0  0  0
  3 10  1  0  0  0  0
  5  6  1  0  0  0  0
  6  7  1  0  0  0  0
  7  8  1  0  0  0  0
  8  9  1  0  0  0  0
M  END
>  <CHROM.1>
-179.91545883,54.75304478,-172.93340370,177.48812445,67.47605469,28.94387582
15.81806864,19.35998755,2.39072040,-0.15219608,-1.98717809

>  <Name>
ligand

>  <RI>
0

>  <Rbt.Current_Directory>
/home/itssahil/PROJECTS/Mol_Feturizer/New_Systems/rnas/3DIX

>  <Rbt.Executable>
rbdock ($Id: //depot/dev/client3/rdock/2013.1/src/exe/rbdock.cxx#4 $)

>  <Rbt.Library>
libRbt.so (2013.1, Build901 2013/11/27)

>  <Rbt.Parameter_File>
/export/apps/rDock/src/rDock_2013.1_src/data/scripts/dock_solv.prm

>  <Rbt.Receptor>
prm/pocket_docking_6.prm

>  <SCORE>
-8.50739

>  <SCORE.INTER>
-8.36846

>  <SCORE.INTER.CONST>
1

>  <SCORE.INTER.POLAR>
0

>  <SCORE.INTER.ROT>
5

>  <SCORE.INTER.SOLV>
14.0163

>  <SCORE.INTER.VDW>
-17.1844

>  <SCORE.INTER.norm>
-0.836846

>  <SCORE.INTRA>
-0.138935

>  <SCORE.INTRA.DIHEDRAL>
-1.23405

>  <SCORE.INTRA.DIHEDRAL.0>
3.281

>  <SCORE.INTRA.POLAR>
0

>  <SCORE.INTRA.POLAR.0>
0

>  <SCORE.INTRA.REPUL>
0

>  <SCORE.INTRA.REPUL.0>
0

>  <SCORE.INTRA.SOLV>
0.345859

>  <SCORE.INTRA.SOLV.lig_0>
-31.9458

>  <SCORE.INTRA.VDW>
0.305159

>  <SCORE.INTRA.VDW.0>
-0.672612

>  <SCORE.INTRA.norm>
-0.0138935

>  <SCORE.RESTR>
0

>  <SCORE.RESTR.CAVITY>
0

>  <SCORE.RESTR.norm>
0

>  <SCORE.SYSTEM>
0

>  <SCORE.SYSTEM.CONST>
0

>  <SCORE.SYSTEM.DIHEDRAL>
0

>  <SCORE.SYSTEM.SOLV>
0

>  <SCORE.SYSTEM.norm>
0

>  <SCORE.heavy>
10

>  <SCORE.norm>
-0.850739

>  <RMSD>
5.340

$$$$
ligand
 OpenBabel11021811473D
libRbt.so/2013.1/901 2013/11/27
 10  9  0  0  0  0  0  0  0  0999 V2000
   27.7551   14.8885   18.4347 N   0  0  0  0  0  0  0  0  0  0  0  0
   28.0376   14.9079   19.8977 C   0  0  2  0  0  0  0  0  0  0  0  0
   26.7790   15.2034   20.7014 C   0  0  0  0  0  0  0  0  0  0  0  0
   25.7121   15.5038   20.1637 O   0  0  0  0  0  0  0  0  0  0  0  0
   29.1405   15.9119   20.2256 C   0  0  0  0  0  0  0  0  0  0  0  0
   29.6839   15.7535   21.6268 C   0  0  0  0  0  0  0  0  0  0  0  0
   30.6837   16.8276   21.9631 C   0  0  0  0  0  0  0  0  0  0  0  0
   31.9539   16.6560   21.1488 C   0  0  0  0  0  0  0  0  0  0  0  0
   32.9630   17.7018   21.4597 N   0  0  0  0  0  0  0  0  0  0  0  0
   26.7853   15.1163   21.9302 O   0  0  0  0  0  0  0  0  0  0  0  0
  2  1  1  6  0  0  0
  2  3  1  0  0  0  0
  2  5  1  0  0  0  0
  3  4  1  0  0  0  0
  3 10  1  0  0  0  0
  5  6  1  0  0  0  0
  6  7  1  0  0  0  0
  7  8  1  0  0  0  0
  8  9  1  0  0  0  0
M  END
>  <CHROM.1>
-6.11619216,-166.94991285,-175.12607286,-68.62744219,-179.92345318,28.91102429
15.84784847,20.77044234,-2.86718707,0.29551948,1.37084272

>  <Name>
ligand

>  <RI>
0

>  <Rbt.Current_Directory>
/home/itssahil/PROJECTS/Mol_Feturizer/New_Systems/rnas/3DIX

>  <Rbt.Executable>
rbdock ($Id: //depot/dev/client3/rdock/2013.1/src/exe/rbdock.cxx#4 $)

>  <Rbt.Library>
libRbt.so (2013.1, Build901 2013/11/27)

>  <Rbt.Parameter_File>
/export/apps/rDock/src/rDock_2013.1_src/data/scripts/dock_solv.prm

>  <Rbt.Receptor>
prm/pocket_docking_7.prm

>  <SCORE>
-8.80416

>  <SCORE.INTER>
-8.62391

>  <SCORE.INTER.CONST>
1

>  <SCORE.INTER.POLAR>
0

>  <SCORE.INTER.ROT>
5

>  <SCORE.INTER.SOLV>
13.0877

>  <SCORE.INTER.VDW>
-17.0452

>  <SCORE.INTER.norm>
-0.862391

>  <SCORE.INTRA>
-0.180243

>  <SCORE.INTRA.DIHEDRAL>
-0.733439

>  <SCORE.INTRA.DIHEDRAL.0>
3.281

>  <SCORE.INTRA.POLAR>
0

>  <SCORE.INTRA.POLAR.0>
0

>  <SCORE.INTRA.REPUL>
0

>  <SCORE.INTRA.REPUL.0>
0

>  <SCORE.INTRA.SOLV>
-1.30101

>  <SCORE.INTRA.SOLV.lig_0>
-31.9458

>  <SCORE.INTRA.VDW>
0.836984

>  <SCORE.INTRA.VDW.0>
-0.672612

>  <SCORE.INTRA.norm>
-0.0180243

>  <SCORE.RESTR>
0

>  <SCORE.RESTR.CAVITY>
0

>  <SCORE.RESTR.norm>
0

>  <SCORE.SYSTEM>
0

>  <SCORE.SYSTEM.CONST>
0

>  <SCORE.SYSTEM.DIHEDRAL>
0

>  <SCORE.SYSTEM.SOLV>
0

>  <SCORE.SYSTEM.norm>
0

>  <SCORE.heavy>
10

>  <SCORE.norm>
-0.880416

>  <RMSD>
5.340

$$$$
ligand
 OpenBabel11021811473D
libRbt.so/2013.1/901 2013/11/27
 10  9  0  0  0  0  0  0  0  0999 V2000
   26.7847   14.6867   21.5820 N   0  0  0  0  0  0  0  0  0  0  0  0
   27.6599   15.8294   21.1961 C   0  0  2  0  0  0  0  0  0  0  0  0
   27.3831   16.2822   19.7694 C   0  0  0  0  0  0  0  0  0  0  0  0
   26.7140   15.6082   18.9847 O   0  0  0  0  0  0  0  0  0  0  0  0
   29.1333   15.4714   21.3770 C   0  0  0  0  0  0  0  0  0  0  0  0
   30.0504   16.6650   21.2421 C   0  0  0  0  0  0  0  0  0  0  0  0
   31.4992   16.2565   21.2192 C   0  0  0  0  0  0  0  0  0  0  0  0
   32.3984   17.4683   21.0489 C   0  0  0  0  0  0  0  0  0  0  0  0
   33.8216   17.0859   20.8568 N   0  0  0  0  0  0  0  0  0  0  0  0
   27.8001   17.3686   19.3647 O   0  0  0  0  0  0  0  0  0  0  0  0
  2  1  1  6  0  0  0
  2  3  1  0  0  0  0
  2  5  1  0  0  0  0
  3  4  1  0  0  0  0
  3 10  1  0  0  0  0
  5  6  1  0  0  0  0
  6  7  1  0  0  0  0
  7  8  1  0  0  0  0
  8  9  1  0  0  0  0
M  END
>  <CHROM.1>
-13.08913371,-169.57652785,-171.48860343,178.61064591,-173.05669921,29.30599398
16.28139811,20.63127527,-3.13561026,-0.27031216,-0.92038035

>  <Name>
ligand

>  <RI>
0

>  <Rbt.Current_Directory>
/home/itssahil/PROJECTS/Mol_Feturizer/New_Systems/rnas/3DIX

>  <Rbt.Executable>
rbdock ($Id: //depot/dev/client3/rdock/2013.1/src/exe/rbdock.cxx#4 $)

>  <Rbt.Library>
libRbt.so (2013.1, Build901 2013/11/27)

>  <Rbt.Parameter_File>
/export/apps/rDock/src/rDock_2013.1_src/data/scripts/dock_solv.prm

>  <Rbt.Receptor>
prm/blind_docking_60.prm

>  <SCORE>
-6.73828

>  <SCORE.INTER>
-5.53964

>  <SCORE.INTER.CONST>
1

>  <SCORE.INTER.POLAR>
0

>  <SCORE.INTER.ROT>
5

>  <SCORE.INTER.SOLV>
19.9689

>  <SCORE.INTER.VDW>
-17.2827

>  <SCORE.INTER.norm>
-0.553964

>  <SCORE.INTRA>
-1.19864

>  <SCORE.INTRA.DIHEDRAL>
-0.855959

>  <SCORE.INTRA.DIHEDRAL.0>
3.281

>  <SCORE.INTRA.POLAR>
0

>  <SCORE.INTRA.POLAR.0>
0

>  <SCORE.INTRA.REPUL>
0

>  <SCORE.INTRA.REPUL.0>
0

>  <SCORE.INTRA.SOLV>
-1.5586

>  <SCORE.INTRA.SOLV.lig_0>
-31.9458

>  <SCORE.INTRA.VDW>
0.0086419

>  <SCORE.INTRA.VDW.0>
-0.672612

>  <SCORE.INTRA.norm>
-0.119864

>  <SCORE.RESTR>
0

>  <SCORE.RESTR.CAVITY>
0

>  <SCORE.RESTR.norm>
0

>  <SCORE.SYSTEM>
0

>  <SCORE.SYSTEM.CONST>
0

>  <SCORE.SYSTEM.DIHEDRAL>
0

>  <SCORE.SYSTEM.SOLV>
0

>  <SCORE.SYSTEM.norm>
0

>  <SCORE.heavy>
10

>  <SCORE.norm>
-0.673828

>  <RMSD>
5.341

$$$$
ligand
 OpenBabel11021811473D
libRbt.so/2013.1/901 2013/11/27
 10  9  0  0  0  0  0  0  0  0999 V2000
   27.0229   13.8850   18.5192 N   0  0  0  0  0  0  0  0  0  0  0  0
   27.5969   14.8226   19.5253 C   0  0  2  0  0  0  0  0  0  0  0  0
   26.6724   14.9834   20.7238 C   0  0  0  0  0  0  0  0  0  0  0  0
   25.4518   15.0967   20.6010 O   0  0  0  0  0  0  0  0  0  0  0  0
   27.9070   16.1770   18.8919 C   0  0  0  0  0  0  0  0  0  0  0  0
   28.5710   17.1378   19.8511 C   0  0  0  0  0  0  0  0  0  0  0  0
   29.9391   16.6619   20.2609 C   0  0  0  0  0  0  0  0  0  0  0  0
   30.5607   17.6117   21.2697 C   0  0  0  0  0  0  0  0  0  0  0  0
   31.9373   17.2009   21.6500 N   0  0  0  0  0  0  0  0  0  0  0  0
   27.1242   14.9710   21.8699 O   0  0  0  0  0  0  0  0  0  0  0  0
  2  1  1  6  0  0  0
  2  3  1  0  0  0  0
  2  5  1  0  0  0  0
  3  4  1  0  0  0  0
  3 10  1  0  0  0  0
  5  6  1  0  0  0  0
  6  7  1  0  0  0  0
  7  8  1  0  0  0  0
  8  9  1  0  0  0  0
M  END
>  <CHROM.1>
-42.06083914,-176.44989778,65.58479576,-177.54697112,-177.51392424,28.25015452
15.85175328,20.34187497,-2.86882834,0.49287035,1.44760630

>  <Name>
ligand

>  <RI>
0

>  <Rbt.Current_Directory>
/home/itssahil/PROJECTS/Mol_Feturizer/New_Systems/rnas/3DIX

>  <Rbt.Executable>
rbdock ($Id: //depot/dev/client3/rdock/2013.1/src/exe/rbdock.cxx#4 $)

>  <Rbt.Library>
libRbt.so (2013.1, Build901 2013/11/27)

>  <Rbt.Parameter_File>
/export/apps/rDock/src/rDock_2013.1_src/data/scripts/dock_solv.prm

>  <Rbt.Receptor>
prm/pocket_docking_5.prm

>  <SCORE>
-10.3029

>  <SCORE.INTER>
-8.99953

>  <SCORE.INTER.CONST>
1

>  <SCORE.INTER.POLAR>
0

>  <SCORE.INTER.ROT>
5

>  <SCORE.INTER.SOLV>
14.895

>  <SCORE.INTER.VDW>
-17.898

>  <SCORE.INTER.norm>
-0.899953

>  <SCORE.INTRA>
-1.30335

>  <SCORE.INTRA.DIHEDRAL>
-1.51747

>  <SCORE.INTRA.DIHEDRAL.0>
3.281

>  <SCORE.INTRA.POLAR>
0

>  <SCORE.INTRA.POLAR.0>
0

>  <SCORE.INTRA.REPUL>
0

>  <SCORE.INTRA.REPUL.0>
0

>  <SCORE.INTRA.SOLV>
-1.30756

>  <SCORE.INTRA.SOLV.lig_0>
-31.9458

>  <SCORE.INTRA.VDW>
0.109166

>  <SCORE.INTRA.VDW.0>
-0.672612

>  <SCORE.INTRA.norm>
-0.130335

>  <SCORE.RESTR>
0

>  <SCORE.RESTR.CAVITY>
0

>  <SCORE.RESTR.norm>
0

>  <SCORE.SYSTEM>
0

>  <SCORE.SYSTEM.CONST>
0

>  <SCORE.SYSTEM.DIHEDRAL>
0

>  <SCORE.SYSTEM.SOLV>
0

>  <SCORE.SYSTEM.norm>
0

>  <SCORE.heavy>
10

>  <SCORE.norm>
-1.03029

>  <RMSD>
5.341

$$$$
ligand
 OpenBabel11021811473D
libRbt.so/2013.1/901 2013/11/27
 10  9  0  0  0  0  0  0  0  0999 V2000
   26.7712   14.6829   21.5845 N   0  0  0  0  0  0  0  0  0  0  0  0
   27.6522   15.8103   21.1679 C   0  0  2  0  0  0  0  0  0  0  0  0
   27.3825   16.2213   19.7273 C   0  0  0  0  0  0  0  0  0  0  0  0
   26.7704   15.4965   18.9413 O   0  0  0  0  0  0  0  0  0  0  0  0
   29.1236   15.4525   21.3651 C   0  0  0  0  0  0  0  0  0  0  0  0
   30.0483   16.6312   21.1663 C   0  0  0  0  0  0  0  0  0  0  0  0
   31.4952   16.2160   21.1875 C   0  0  0  0  0  0  0  0  0  0  0  0
   32.4036   17.4162   20.9872 C   0  0  0  0  0  0  0  0  0  0  0  0
   33.8303   17.0217   20.8547 N   0  0  0  0  0  0  0  0  0  0  0  0
   27.7464   17.3223   19.3111 O   0  0  0  0  0  0  0  0  0  0  0  0
  2  1  1  6  0  0  0
  2  3  1  0  0  0  0
  2  5  1  0  0  0  0
  3  4  1  0  0  0  0
  3 10  1  0  0  0  0
  5  6  1  0  0  0  0
  6  7  1  0  0  0  0
  7  8  1  0  0  0  0
  8  9  1  0  0  0  0
M  END
>  <CHROM.1>
-16.77024868,-170.92035859,-172.51527468,-179.95025027,-173.76702475,29.30403162
16.23534632,20.59613290,3.14100115,-0.26910195,-0.94115140

>  <Name>
ligand

>  <RI>
0

>  <Rbt.Current_Directory>
/home/itssahil/PROJECTS/Mol_Feturizer/New_Systems/rnas/3DIX

>  <Rbt.Executable>
rbdock ($Id: //depot/dev/client3/rdock/2013.1/src/exe/rbdock.cxx#4 $)

>  <Rbt.Library>
libRbt.so (2013.1, Build901 2013/11/27)

>  <Rbt.Parameter_File>
/export/apps/rDock/src/rDock_2013.1_src/data/scripts/dock_solv.prm

>  <Rbt.Receptor>
prm/blind_docking_60.prm

>  <SCORE>
-6.75102

>  <SCORE.INTER>
-5.4289

>  <SCORE.INTER.CONST>
1

>  <SCORE.INTER.POLAR>
0

>  <SCORE.INTER.ROT>
5

>  <SCORE.INTER.SOLV>
20.0527

>  <SCORE.INTER.VDW>
-17.2368

>  <SCORE.INTER.norm>
-0.54289

>  <SCORE.INTRA>
-1.32212

>  <SCORE.INTRA.DIHEDRAL>
-1.05401

>  <SCORE.INTRA.DIHEDRAL.0>
3.281

>  <SCORE.INTRA.POLAR>
0

>  <SCORE.INTRA.POLAR.0>
0

>  <SCORE.INTRA.REPUL>
0

>  <SCORE.INTRA.REPUL.0>
0

>  <SCORE.INTRA.SOLV>
-1.56123

>  <SCORE.INTRA.SOLV.lig_0>
-31.9458

>  <SCORE.INTRA.VDW>
-0.0145079

>  <SCORE.INTRA.VDW.0>
-0.672612

>  <SCORE.INTRA.norm>
-0.132212

>  <SCORE.RESTR>
0

>  <SCORE.RESTR.CAVITY>
0

>  <SCORE.RESTR.norm>
0

>  <SCORE.SYSTEM>
0

>  <SCORE.SYSTEM.CONST>
0

>  <SCORE.SYSTEM.DIHEDRAL>
0

>  <SCORE.SYSTEM.SOLV>
0

>  <SCORE.SYSTEM.norm>
0

>  <SCORE.heavy>
10

>  <SCORE.norm>
-0.675102

>  <RMSD>
5.344

$$$$
ligand
 OpenBabel11021811473D
libRbt.so/2013.1/901 2013/11/27
 10  9  0  0  0  0  0  0  0  0999 V2000
   25.6269   15.1013   20.5652 N   0  0  0  0  0  0  0  0  0  0  0  0
   26.9008   15.7946   20.2228 C   0  0  2  0  0  0  0  0  0  0  0  0
   27.3430   15.4720   18.8025 C   0  0  0  0  0  0  0  0  0  0  0  0
   27.0241   14.4247   18.2374 O   0  0  0  0  0  0  0  0  0  0  0  0
   27.9973   15.4448   21.2265 C   0  0  0  0  0  0  0  0  0  0  0  0
   29.2521   16.2656   21.0381 C   0  0  0  0  0  0  0  0  0  0  0  0
   30.3401   15.8497   21.9918 C   0  0  0  0  0  0  0  0  0  0  0  0
   31.5788   16.7079   21.8041 C   0  0  0  0  0  0  0  0  0  0  0  0
   32.1808   16.5337   20.4565 N   0  0  0  0  0  0  0  0  0  0  0  0
   28.0153   16.2778   18.1571 O   0  0  0  0  0  0  0  0  0  0  0  0
  2  1  1  1  0  0  0
  2  3  1  0  0  0  0
  2  5  1  0  0  0  0
  3  4  1  0  0  0  0
  3 10  1  0  0  0  0
  5  6  1  0  0  0  0
  6  7  1  0  0  0  0
  7  8  1  0  0  0  0
  8  9  1  0  0  0  0
M  END
>  <CHROM.1>
-26.47463234,-172.08276644,-176.96092711,-178.76351231,-63.76446134,28.62555600
15.77946521,20.21360572,2.71594281,-0.25527957,-1.58327872

>  <Name>
ligand

>  <RI>
0

>  <Rbt.Current_Directory>
/home/itssahil/PROJECTS/Mol_Feturizer/New_Systems/rnas/3DIX

>  <Rbt.Executable>
rbdock ($Id: //depot/dev/client3/rdock/2013.1/src/exe/rbdock.cxx#4 $)

>  <Rbt.Library>
libRbt.so (2013.1, Build901 2013/11/27)

>  <Rbt.Parameter_File>
/export/apps/rDock/src/rDock_2013.1_src/data/scripts/dock_solv.prm

>  <Rbt.Receptor>
prm/blind_docking_60.prm

>  <SCORE>
-8.46138

>  <SCORE.INTER>
-7.47365

>  <SCORE.INTER.CONST>
1

>  <SCORE.INTER.POLAR>
0

>  <SCORE.INTER.ROT>
5

>  <SCORE.INTER.SOLV>
17.6071

>  <SCORE.INTER.VDW>
-17.7848

>  <SCORE.INTER.norm>
-0.747365

>  <SCORE.INTRA>
-0.987732

>  <SCORE.INTRA.DIHEDRAL>
-1.39473

>  <SCORE.INTRA.DIHEDRAL.0>
3.281

>  <SCORE.INTRA.POLAR>
0

>  <SCORE.INTRA.POLAR.0>
0

>  <SCORE.INTRA.REPUL>
0

>  <SCORE.INTRA.REPUL.0>
0

>  <SCORE.INTRA.SOLV>
-0.631331

>  <SCORE.INTRA.SOLV.lig_0>
-31.9458

>  <SCORE.INTRA.VDW>
0.0252982

>  <SCORE.INTRA.VDW.0>
-0.672612

>  <SCORE.INTRA.norm>
-0.0987732

>  <SCORE.RESTR>
0

>  <SCORE.RESTR.CAVITY>
0

>  <SCORE.RESTR.norm>
0

>  <SCORE.SYSTEM>
0

>  <SCORE.SYSTEM.CONST>
0

>  <SCORE.SYSTEM.DIHEDRAL>
0

>  <SCORE.SYSTEM.SOLV>
0

>  <SCORE.SYSTEM.norm>
0

>  <SCORE.heavy>
10

>  <SCORE.norm>
-0.846138

>  <RMSD>
5.344

$$$$
ligand
 OpenBabel11021811473D
libRbt.so/2013.1/901 2013/11/27
 10  9  0  0  0  0  0  0  0  0999 V2000
   27.0447   13.8183   18.3643 N   0  0  0  0  0  0  0  0  0  0  0  0
   27.6245   14.7461   19.3761 C   0  0  2  0  0  0  0  0  0  0  0  0
   26.6760   14.9495   20.5492 C   0  0  0  0  0  0  0  0  0  0  0  0
   25.4982   15.2750   20.3924 O   0  0  0  0  0  0  0  0  0  0  0  0
   27.9958   16.0831   18.7387 C   0  0  0  0  0  0  0  0  0  0  0  0
   28.5983   17.0582   19.7236 C   0  0  0  0  0  0  0  0  0  0  0  0
   29.9366   16.5881   20.2277 C   0  0  0  0  0  0  0  0  0  0  0  0
   30.4992   17.5595   21.2504 C   0  0  0  0  0  0  0  0  0  0  0  0
   31.8459   17.1509   21.7279 N   0  0  0  0  0  0  0  0  0  0  0  0
   27.0584   14.7587   21.7047 O   0  0  0  0  0  0  0  0  0  0  0  0
  2  1  1  6  0  0  0
  2  3  1  0  0  0  0
  2  5  1  0  0  0  0
  3  4  1  0  0  0  0
  3 10  1  0  0  0  0
  5  6  1  0  0  0  0
  6  7  1  0  0  0  0
  7  8  1  0  0  0  0
  8  9  1  0  0  0  0
M  END
>  <CHROM.1>
-51.74826965,-179.60487303,66.44401855,-178.05519477,-177.72851377,28.24905701
15.79662083,20.23011345,-2.82327640,0.49061260,1.44382017

>  <Name>
ligand

>  <RI>
0

>  <Rbt.Current_Directory>
/home/itssahil/PROJECTS/Mol_Feturizer/New_Systems/rnas/3DIX

>  <Rbt.Executable>
rbdock ($Id: //depot/dev/client3/rdock/2013.1/src/exe/rbdock.cxx#4 $)

>  <Rbt.Library>
libRbt.so (2013.1, Build901 2013/11/27)

>  <Rbt.Parameter_File>
/export/apps/rDock/src/rDock_2013.1_src/data/scripts/dock_solv.prm

>  <Rbt.Receptor>
prm/pocket_docking_3.prm

>  <SCORE>
-10.3043

>  <SCORE.INTER>
-9.02384

>  <SCORE.INTER.CONST>
1

>  <SCORE.INTER.POLAR>
0

>  <SCORE.INTER.ROT>
5

>  <SCORE.INTER.SOLV>
14.8793

>  <SCORE.INTER.VDW>
-17.909

>  <SCORE.INTER.norm>
-0.902384

>  <SCORE.INTRA>
-1.28044

>  <SCORE.INTRA.DIHEDRAL>
-1.55896

>  <SCORE.INTRA.DIHEDRAL.0>
3.281

>  <SCORE.INTRA.POLAR>
0

>  <SCORE.INTRA.POLAR.0>
0

>  <SCORE.INTRA.REPUL>
0

>  <SCORE.INTRA.REPUL.0>
0

>  <SCORE.INTRA.SOLV>
-1.33419

>  <SCORE.INTRA.SOLV.lig_0>
-31.9458

>  <SCORE.INTRA.VDW>
0.166133

>  <SCORE.INTRA.VDW.0>
-0.672612

>  <SCORE.INTRA.norm>
-0.128044

>  <SCORE.RESTR>
0

>  <SCORE.RESTR.CAVITY>
0

>  <SCORE.RESTR.norm>
0

>  <SCORE.SYSTEM>
0

>  <SCORE.SYSTEM.CONST>
0

>  <SCORE.SYSTEM.DIHEDRAL>
0

>  <SCORE.SYSTEM.SOLV>
0

>  <SCORE.SYSTEM.norm>
0

>  <SCORE.heavy>
10

>  <SCORE.norm>
-1.03043

>  <RMSD>
5.344

$$$$
ligand
 OpenBabel11021811473D
libRbt.so/2013.1/901 2013/11/27
 10  9  0  0  0  0  0  0  0  0999 V2000
   27.6738   14.5198   18.1347 N   0  0  0  0  0  0  0  0  0  0  0  0
   27.8032   14.5088   19.6192 C   0  0  2  0  0  0  0  0  0  0  0  0
   26.5826   15.1268   20.2865 C   0  0  0  0  0  0  0  0  0  0  0  0
   25.8525   15.9305   19.7044 O   0  0  0  0  0  0  0  0  0  0  0  0
   29.0815   15.2188   20.0591 C   0  0  0  0  0  0  0  0  0  0  0  0
   29.3176   15.1372   21.5496 C   0  0  0  0  0  0  0  0  0  0  0  0
   30.6506   15.7199   21.9368 C   0  0  0  0  0  0  0  0  0  0  0  0
   30.6649   17.2231   21.7220 C   0  0  0  0  0  0  0  0  0  0  0  0
   31.9882   17.8207   22.0389 N   0  0  0  0  0  0  0  0  0  0  0  0
   26.2679   14.8093   21.4345 O   0  0  0  0  0  0  0  0  0  0  0  0
  2  1  1  6  0  0  0
  2  3  1  0  0  0  0
  2  5  1  0  0  0  0
  3  4  1  0  0  0  0
  3 10  1  0  0  0  0
  5  6  1  0  0  0  0
  6  7  1  0  0  0  0
  7  8  1  0  0  0  0
  8  9  1  0  0  0  0
M  END
>  <CHROM.1>
-23.81184525,-175.30407052,174.13769975,68.13782638,-177.48700592,28.55148647
15.60943551,20.65903801,-2.61703543,0.21168490,1.17864468

>  <Name>
ligand

>  <RI>
0

>  <Rbt.Current_Directory>
/home/itssahil/PROJECTS/Mol_Feturizer/New_Systems/rnas/3DIX

>  <Rbt.Executable>
rbdock ($Id: //depot/dev/client3/rdock/2013.1/src/exe/rbdock.cxx#4 $)

>  <Rbt.Library>
libRbt.so (2013.1, Build901 2013/11/27)

>  <Rbt.Parameter_File>
/export/apps/rDock/src/rDock_2013.1_src/data/scripts/dock_solv.prm

>  <Rbt.Receptor>
prm/pocket_docking_7.prm

>  <SCORE>
-9.30708

>  <SCORE.INTER>
-8.82021

>  <SCORE.INTER.CONST>
1

>  <SCORE.INTER.POLAR>
0

>  <SCORE.INTER.ROT>
5

>  <SCORE.INTER.SOLV>
13.7516

>  <SCORE.INTER.VDW>
-17.3973

>  <SCORE.INTER.norm>
-0.882021

>  <SCORE.INTRA>
-0.486871

>  <SCORE.INTRA.DIHEDRAL>
-1.2059

>  <SCORE.INTRA.DIHEDRAL.0>
3.281

>  <SCORE.INTRA.POLAR>
0

>  <SCORE.INTRA.POLAR.0>
0

>  <SCORE.INTRA.REPUL>
0

>  <SCORE.INTRA.REPUL.0>
0

>  <SCORE.INTRA.SOLV>
-1.29389

>  <SCORE.INTRA.SOLV.lig_0>
-31.9458

>  <SCORE.INTRA.VDW>
0.763026

>  <SCORE.INTRA.VDW.0>
-0.672612

>  <SCORE.INTRA.norm>
-0.0486871

>  <SCORE.RESTR>
0

>  <SCORE.RESTR.CAVITY>
0

>  <SCORE.RESTR.norm>
0

>  <SCORE.SYSTEM>
0

>  <SCORE.SYSTEM.CONST>
0

>  <SCORE.SYSTEM.DIHEDRAL>
0

>  <SCORE.SYSTEM.SOLV>
0

>  <SCORE.SYSTEM.norm>
0

>  <SCORE.heavy>
10

>  <SCORE.norm>
-0.930708

>  <RMSD>
5.344

$$$$
ligand
 OpenBabel11021811473D
libRbt.so/2013.1/901 2013/11/27
 10  9  0  0  0  0  0  0  0  0999 V2000
   25.6516   15.0937   20.5638 N   0  0  0  0  0  0  0  0  0  0  0  0
   26.9238   15.7915   20.2244 C   0  0  2  0  0  0  0  0  0  0  0  0
   27.3453   15.5085   18.7893 C   0  0  0  0  0  0  0  0  0  0  0  0
   28.0147   16.3070   18.1320 O   0  0  0  0  0  0  0  0  0  0  0  0
   28.0322   15.4082   21.2025 C   0  0  0  0  0  0  0  0  0  0  0  0
   29.2922   16.2208   21.0129 C   0  0  0  0  0  0  0  0  0  0  0  0
   30.3759   15.8028   21.9705 C   0  0  0  0  0  0  0  0  0  0  0  0
   31.5885   16.7077   21.8409 C   0  0  0  0  0  0  0  0  0  0  0  0
   32.2544   16.5643   20.5200 N   0  0  0  0  0  0  0  0  0  0  0  0
   27.0515   14.4411   18.2488 O   0  0  0  0  0  0  0  0  0  0  0  0
  2  1  1  1  0  0  0
  2  3  1  0  0  0  0
  2  5  1  0  0  0  0
  3  4  1  0  0  0  0
  3 10  1  0  0  0  0
  5  6  1  0  0  0  0
  6  7  1  0  0  0  0
  7  8  1  0  0  0  0
  8  9  1  0  0  0  0
M  END
>  <CHROM.1>
151.85040062,-172.58841248,-178.83124181,-175.26216179,-66.19191508,28.65265686
15.77697150,20.21389373,2.71966299,-0.26169389,-1.55572756

>  <Name>
ligand

>  <RI>
0

>  <Rbt.Current_Directory>
/home/itssahil/PROJECTS/Mol_Feturizer/New_Systems/rnas/3DIX

>  <Rbt.Executable>
rbdock ($Id: //depot/dev/client3/rdock/2013.1/src/exe/rbdock.cxx#4 $)

>  <Rbt.Library>
libRbt.so (2013.1, Build901 2013/11/27)

>  <Rbt.Parameter_File>
/export/apps/rDock/src/rDock_2013.1_src/data/scripts/dock_solv.prm

>  <Rbt.Receptor>
prm/pocket_docking_4.prm

>  <SCORE>
-8.51906

>  <SCORE.INTER>
-7.50021

>  <SCORE.INTER.CONST>
1

>  <SCORE.INTER.POLAR>
0

>  <SCORE.INTER.ROT>
5

>  <SCORE.INTER.SOLV>
17.5832

>  <SCORE.INTER.VDW>
-17.7945

>  <SCORE.INTER.norm>
-0.750021

>  <SCORE.INTRA>
-1.01885

>  <SCORE.INTRA.DIHEDRAL>
-1.41522

>  <SCORE.INTRA.DIHEDRAL.0>
3.281

>  <SCORE.INTRA.POLAR>
0

>  <SCORE.INTRA.POLAR.0>
0

>  <SCORE.INTRA.REPUL>
0

>  <SCORE.INTRA.REPUL.0>
0

>  <SCORE.INTRA.SOLV>
-0.68182

>  <SCORE.INTRA.SOLV.lig_0>
-31.9458

>  <SCORE.INTRA.VDW>
0.0296691

>  <SCORE.INTRA.VDW.0>
-0.672612

>  <SCORE.INTRA.norm>
-0.101885

>  <SCORE.RESTR>
0

>  <SCORE.RESTR.CAVITY>
0

>  <SCORE.RESTR.norm>
0

>  <SCORE.SYSTEM>
0

>  <SCORE.SYSTEM.CONST>
0

>  <SCORE.SYSTEM.DIHEDRAL>
0

>  <SCORE.SYSTEM.SOLV>
0

>  <SCORE.SYSTEM.norm>
0

>  <SCORE.heavy>
10

>  <SCORE.norm>
-0.851906

>  <RMSD>
5.345

$$$$
ligand
 OpenBabel11021811473D
libRbt.so/2013.1/901 2013/11/27
 10  9  0  0  0  0  0  0  0  0999 V2000
   27.0394   13.8991   18.1337 N   0  0  0  0  0  0  0  0  0  0  0  0
   27.6073   14.3742   19.4270 C   0  0  2  0  0  0  0  0  0  0  0  0
   26.6784   15.3695   20.1078 C   0  0  0  0  0  0  0  0  0  0  0  0
   26.4732   16.4949   19.6506 O   0  0  0  0  0  0  0  0  0  0  0  0
   28.9953   14.9774   19.2228 C   0  0  0  0  0  0  0  0  0  0  0  0
   29.6602   15.3778   20.5195 C   0  0  0  0  0  0  0  0  0  0  0  0
   31.0530   15.9028   20.2943 C   0  0  0  0  0  0  0  0  0  0  0  0
   31.6531   16.4139   21.5922 C   0  0  0  0  0  0  0  0  0  0  0  0
   30.9743   17.6444   22.0757 N   0  0  0  0  0  0  0  0  0  0  0  0
   26.0710   15.0592   21.1338 O   0  0  0  0  0  0  0  0  0  0  0  0
  2  1  1  6  0  0  0
  2  3  1  0  0  0  0
  2  5  1  0  0  0  0
  3  4  1  0  0  0  0
  3 10  1  0  0  0  0
  5  6  1  0  0  0  0
  6  7  1  0  0  0  0
  7  8  1  0  0  0  0
  8  9  1  0  0  0  0
M  END
>  <CHROM.1>
-68.53440621,-175.56431666,177.06429417,174.90777015,-68.59894952,28.58972703
15.56855442,20.22788195,-2.64090761,0.01949013,0.85241899

>  <Name>
ligand

>  <RI>
0

>  <Rbt.Current_Directory>
/home/itssahil/PROJECTS/Mol_Feturizer/New_Systems/rnas/3DIX

>  <Rbt.Executable>
rbdock ($Id: //depot/dev/client3/rdock/2013.1/src/exe/rbdock.cxx#4 $)

>  <Rbt.Library>
libRbt.so (2013.1, Build901 2013/11/27)

>  <Rbt.Parameter_File>
/export/apps/rDock/src/rDock_2013.1_src/data/scripts/dock_solv.prm

>  <Rbt.Receptor>
prm/pocket_docking_6.prm

>  <SCORE>
-8.19526

>  <SCORE.INTER>
-7.23555

>  <SCORE.INTER.CONST>
1

>  <SCORE.INTER.POLAR>
0

>  <SCORE.INTER.ROT>
5

>  <SCORE.INTER.SOLV>
15.6036

>  <SCORE.INTER.VDW>
-16.9582

>  <SCORE.INTER.norm>
-0.723555

>  <SCORE.INTRA>
-0.959711

>  <SCORE.INTRA.DIHEDRAL>
-1.33678

>  <SCORE.INTRA.DIHEDRAL.0>
3.281

>  <SCORE.INTRA.POLAR>
0

>  <SCORE.INTRA.POLAR.0>
0

>  <SCORE.INTRA.REPUL>
0

>  <SCORE.INTRA.REPUL.0>
0

>  <SCORE.INTRA.SOLV>
-0.679686

>  <SCORE.INTRA.SOLV.lig_0>
-31.9458

>  <SCORE.INTRA.VDW>
0.0485198

>  <SCORE.INTRA.VDW.0>
-0.672612

>  <SCORE.INTRA.norm>
-0.0959711

>  <SCORE.RESTR>
0

>  <SCORE.RESTR.CAVITY>
0

>  <SCORE.RESTR.norm>
0

>  <SCORE.SYSTEM>
0

>  <SCORE.SYSTEM.CONST>
0

>  <SCORE.SYSTEM.DIHEDRAL>
0

>  <SCORE.SYSTEM.SOLV>
0

>  <SCORE.SYSTEM.norm>
0

>  <SCORE.heavy>
10

>  <SCORE.norm>
-0.819526

>  <RMSD>
5.346

$$$$
ligand
 OpenBabel11021811473D
libRbt.so/2013.1/901 2013/11/27
 10  9  0  0  0  0  0  0  0  0999 V2000
   26.8895   16.6126   19.5140 N   0  0  0  0  0  0  0  0  0  0  0  0
   27.9279   15.6128   19.1359 C   0  0  2  0  0  0  0  0  0  0  0  0
   27.6266   14.9860   17.7819 C   0  0  0  0  0  0  0  0  0  0  0  0
   28.1643   15.3751   16.7440 O   0  0  0  0  0  0  0  0  0  0  0  0
   28.0676   14.5396   20.2132 C   0  0  0  0  0  0  0  0  0  0  0  0
   28.8547   15.0097   21.4146 C   0  0  0  0  0  0  0  0  0  0  0  0
   30.3111   15.2044   21.0871 C   0  0  0  0  0  0  0  0  0  0  0  0
   31.0121   15.9814   22.1875 C   0  0  0  0  0  0  0  0  0  0  0  0
   30.6030   17.4099   22.2111 N   0  0  0  0  0  0  0  0  0  0  0  0
   26.8489   14.0349   17.6908 O   0  0  0  0  0  0  0  0  0  0  0  0
  2  1  1  1  0  0  0
  2  3  1  0  0  0  0
  2  5  1  0  0  0  0
  3  4  1  0  0  0  0
  3 10  1  0  0  0  0
  5  6  1  0  0  0  0
  6  7  1  0  0  0  0
  7  8  1  0  0  0  0
  8  9  1  0  0  0  0
M  END
>  <CHROM.1>
98.16670151,-77.49143236,-69.42072585,166.44099799,-71.20666571,28.61846289
15.46066563,19.75906887,-3.12597526,0.97016925,2.83470170

>  <Name>
ligand

>  <RI>
0

>  <Rbt.Current_Directory>
/home/itssahil/PROJECTS/Mol_Feturizer/New_Systems/rnas/3DIX

>  <Rbt.Executable>
rbdock ($Id: //depot/dev/client3/rdock/2013.1/src/exe/rbdock.cxx#4 $)

>  <Rbt.Library>
libRbt.so (2013.1, Build901 2013/11/27)

>  <Rbt.Parameter_File>
/export/apps/rDock/src/rDock_2013.1_src/data/scripts/dock_solv.prm

>  <Rbt.Receptor>
prm/blind_docking_100.prm

>  <SCORE>
-7.45421

>  <SCORE.INTER>
-8.50482

>  <SCORE.INTER.CONST>
1

>  <SCORE.INTER.POLAR>
0

>  <SCORE.INTER.ROT>
5

>  <SCORE.INTER.SOLV>
15.7305

>  <SCORE.INTER.VDW>
-17.8467

>  <SCORE.INTER.norm>
-0.850482

>  <SCORE.INTRA>
1.05061

>  <SCORE.INTRA.DIHEDRAL>
1.00056

>  <SCORE.INTRA.DIHEDRAL.0>
3.281

>  <SCORE.INTRA.POLAR>
0

>  <SCORE.INTRA.POLAR.0>
0

>  <SCORE.INTRA.REPUL>
0

>  <SCORE.INTRA.REPUL.0>
0

>  <SCORE.INTRA.SOLV>
0.517126

>  <SCORE.INTRA.SOLV.lig_0>
-31.9458

>  <SCORE.INTRA.VDW>
0.291762

>  <SCORE.INTRA.VDW.0>
-0.672612

>  <SCORE.INTRA.norm>
0.105061

>  <SCORE.RESTR>
0

>  <SCORE.RESTR.CAVITY>
0

>  <SCORE.RESTR.norm>
0

>  <SCORE.SYSTEM>
0

>  <SCORE.SYSTEM.CONST>
0

>  <SCORE.SYSTEM.DIHEDRAL>
0

>  <SCORE.SYSTEM.SOLV>
0

>  <SCORE.SYSTEM.norm>
0

>  <SCORE.heavy>
10

>  <SCORE.norm>
-0.745421

>  <RMSD>
5.347

$$$$
ligand
 OpenBabel11021811473D
libRbt.so/2013.1/901 2013/11/27
 10  9  0  0  0  0  0  0  0  0999 V2000
   27.6984   14.5664   18.1424 N   0  0  0  0  0  0  0  0  0  0  0  0
   27.8165   14.5422   19.6277 C   0  0  2  0  0  0  0  0  0  0  0  0
   26.5744   15.1195   20.2919 C   0  0  0  0  0  0  0  0  0  0  0  0
   26.2561   14.8362   21.4478 O   0  0  0  0  0  0  0  0  0  0  0  0
   29.0717   15.2814   20.0858 C   0  0  0  0  0  0  0  0  0  0  0  0
   29.2986   15.1890   21.5771 C   0  0  0  0  0  0  0  0  0  0  0  0
   30.6399   15.7457   21.9737 C   0  0  0  0  0  0  0  0  0  0  0  0
   30.6958   17.2434   21.7290 C   0  0  0  0  0  0  0  0  0  0  0  0
   32.0264   17.8151   22.0626 N   0  0  0  0  0  0  0  0  0  0  0  0
   25.8603   15.9249   19.6926 O   0  0  0  0  0  0  0  0  0  0  0  0
  2  1  1  6  0  0  0
  2  3  1  0  0  0  0
  2  5  1  0  0  0  0
  3  4  1  0  0  0  0
  3 10  1  0  0  0  0
  5  6  1  0  0  0  0
  6  7  1  0  0  0  0
  7  8  1  0  0  0  0
  8  9  1  0  0  0  0
M  END
>  <CHROM.1>
156.81783106,-175.28133656,171.50847285,66.54463808,-177.82713680,28.55695197
15.63432445,20.67332335,-2.62714599,0.23350692,1.22295749

>  <Name>
ligand

>  <RI>
0

>  <Rbt.Current_Directory>
/home/itssahil/PROJECTS/Mol_Feturizer/New_Systems/rnas/3DIX

>  <Rbt.Executable>
rbdock ($Id: //depot/dev/client3/rdock/2013.1/src/exe/rbdock.cxx#4 $)

>  <Rbt.Library>
libRbt.so (2013.1, Build901 2013/11/27)

>  <Rbt.Parameter_File>
/export/apps/rDock/src/rDock_2013.1_src/data/scripts/dock_solv.prm

>  <Rbt.Receptor>
prm/pocket_docking_4.prm

>  <SCORE>
-9.40336

>  <SCORE.INTER>
-8.98543

>  <SCORE.INTER.CONST>
1

>  <SCORE.INTER.POLAR>
0

>  <SCORE.INTER.ROT>
5

>  <SCORE.INTER.SOLV>
13.5401

>  <SCORE.INTER.VDW>
-17.437

>  <SCORE.INTER.norm>
-0.898543

>  <SCORE.INTRA>
-0.417939

>  <SCORE.INTRA.DIHEDRAL>
-1.28442

>  <SCORE.INTRA.DIHEDRAL.0>
3.281

>  <SCORE.INTRA.POLAR>
0

>  <SCORE.INTRA.POLAR.0>
0

>  <SCORE.INTRA.REPUL>
0

>  <SCORE.INTRA.REPUL.0>
0

>  <SCORE.INTRA.SOLV>
-1.28288

>  <SCORE.INTRA.SOLV.lig_0>
-31.9458

>  <SCORE.INTRA.VDW>
0.865713

>  <SCORE.INTRA.VDW.0>
-0.672612

>  <SCORE.INTRA.norm>
-0.0417939

>  <SCORE.RESTR>
0

>  <SCORE.RESTR.CAVITY>
0

>  <SCORE.RESTR.norm>
0

>  <SCORE.SYSTEM>
0

>  <SCORE.SYSTEM.CONST>
0

>  <SCORE.SYSTEM.DIHEDRAL>
0

>  <SCORE.SYSTEM.SOLV>
0

>  <SCORE.SYSTEM.norm>
0

>  <SCORE.heavy>
10

>  <SCORE.norm>
-0.940336

>  <RMSD>
5.347

$$$$
ligand
 OpenBabel11021811473D
libRbt.so/2013.1/901 2013/11/27
 10  9  0  0  0  0  0  0  0  0999 V2000
   25.7556   14.9937   20.5015 N   0  0  0  0  0  0  0  0  0  0  0  0
   26.7935   15.7123   19.7095 C   0  0  2  0  0  0  0  0  0  0  0  0
   27.2004   14.9160   18.4776 C   0  0  0  0  0  0  0  0  0  0  0  0
   26.9655   13.7118   18.3671 O   0  0  0  0  0  0  0  0  0  0  0  0
   28.0098   16.0365   20.5739 C   0  0  0  0  0  0  0  0  0  0  0  0
   28.9680   16.9959   19.9066 C   0  0  0  0  0  0  0  0  0  0  0  0
   30.1950   17.2341   20.7456 C   0  0  0  0  0  0  0  0  0  0  0  0
   31.1706   16.0778   20.6146 C   0  0  0  0  0  0  0  0  0  0  0  0
   30.6376   14.8260   21.2126 N   0  0  0  0  0  0  0  0  0  0  0  0
   27.7554   15.4709   17.5280 O   0  0  0  0  0  0  0  0  0  0  0  0
  2  1  1  1  0  0  0
  2  3  1  0  0  0  0
  2  5  1  0  0  0  0
  3  4  1  0  0  0  0
  3 10  1  0  0  0  0
  5  6  1  0  0  0  0
  6  7  1  0  0  0  0
  7  8  1  0  0  0  0
  8  9  1  0  0  0  0
M  END
>  <CHROM.1>
-17.75894071,-168.59470601,-176.64142792,78.72018901,-67.25092716,28.34509196
15.57849025,19.73136074,2.58258321,-0.14932936,-1.99054146

>  <Name>
ligand

>  <RI>
0

>  <Rbt.Current_Directory>
/home/itssahil/PROJECTS/Mol_Feturizer/New_Systems/rnas/3DIX

>  <Rbt.Executable>
rbdock ($Id: //depot/dev/client3/rdock/2013.1/src/exe/rbdock.cxx#4 $)

>  <Rbt.Library>
libRbt.so (2013.1, Build901 2013/11/27)

>  <Rbt.Parameter_File>
/export/apps/rDock/src/rDock_2013.1_src/data/scripts/dock_solv.prm

>  <Rbt.Receptor>
prm/pocket_docking_4.prm

>  <SCORE>
-6.02942

>  <SCORE.INTER>
-7.05088

>  <SCORE.INTER.CONST>
1

>  <SCORE.INTER.POLAR>
0

>  <SCORE.INTER.ROT>
5

>  <SCORE.INTER.SOLV>
19.1017

>  <SCORE.INTER.VDW>
-18.0011

>  <SCORE.INTER.norm>
-0.705088

>  <SCORE.INTRA>
1.02146

>  <SCORE.INTRA.DIHEDRAL>
0.34549

>  <SCORE.INTRA.DIHEDRAL.0>
3.281

>  <SCORE.INTRA.POLAR>
0

>  <SCORE.INTRA.POLAR.0>
0

>  <SCORE.INTRA.REPUL>
0

>  <SCORE.INTRA.REPUL.0>
0

>  <SCORE.INTRA.SOLV>
0.742163

>  <SCORE.INTRA.SOLV.lig_0>
-31.9458

>  <SCORE.INTRA.VDW>
0.477637

>  <SCORE.INTRA.VDW.0>
-0.672612

>  <SCORE.INTRA.norm>
0.102146

>  <SCORE.RESTR>
0

>  <SCORE.RESTR.CAVITY>
0

>  <SCORE.RESTR.norm>
0

>  <SCORE.SYSTEM>
0

>  <SCORE.SYSTEM.CONST>
0

>  <SCORE.SYSTEM.DIHEDRAL>
0

>  <SCORE.SYSTEM.SOLV>
0

>  <SCORE.SYSTEM.norm>
0

>  <SCORE.heavy>
10

>  <SCORE.norm>
-0.602942

>  <RMSD>
5.349

$$$$
ligand
 OpenBabel11021811473D
libRbt.so/2013.1/901 2013/11/27
 10  9  0  0  0  0  0  0  0  0999 V2000
   27.7173   14.6396   18.1264 N   0  0  0  0  0  0  0  0  0  0  0  0
   27.8372   14.5853   19.6107 C   0  0  2  0  0  0  0  0  0  0  0  0
   26.5825   15.1185   20.2879 C   0  0  0  0  0  0  0  0  0  0  0  0
   25.7886   15.8610   19.7083 O   0  0  0  0  0  0  0  0  0  0  0  0
   29.0751   15.3435   20.0846 C   0  0  0  0  0  0  0  0  0  0  0  0
   29.2982   15.2341   21.5753 C   0  0  0  0  0  0  0  0  0  0  0  0
   30.6486   15.7635   21.9785 C   0  0  0  0  0  0  0  0  0  0  0  0
   30.7389   17.2583   21.7268 C   0  0  0  0  0  0  0  0  0  0  0  0
   32.0747   17.8051   22.0805 N   0  0  0  0  0  0  0  0  0  0  0  0
   26.3057   14.7896   21.4425 O   0  0  0  0  0  0  0  0  0  0  0  0
  2  1  1  6  0  0  0
  2  3  1  0  0  0  0
  2  5  1  0  0  0  0
  3  4  1  0  0  0  0
  3 10  1  0  0  0  0
  5  6  1  0  0  0  0
  6  7  1  0  0  0  0
  7  8  1  0  0  0  0
  8  9  1  0  0  0  0
M  END
>  <CHROM.1>
-20.82953994,-175.81728457,169.27903572,65.66441543,-178.43817610,28.56914808
15.64588405,20.67273403,-2.64433233,0.26229916,1.27962563

>  <Name>
ligand

>  <RI>
0

>  <Rbt.Current_Directory>
/home/itssahil/PROJECTS/Mol_Feturizer/New_Systems/rnas/3DIX

>  <Rbt.Executable>
rbdock ($Id: //depot/dev/client3/rdock/2013.1/src/exe/rbdock.cxx#4 $)

>  <Rbt.Library>
libRbt.so (2013.1, Build901 2013/11/27)

>  <Rbt.Parameter_File>
/export/apps/rDock/src/rDock_2013.1_src/data/scripts/dock_solv.prm

>  <Rbt.Receptor>
prm/pocket_docking_7.prm

>  <SCORE>
-9.27535

>  <SCORE.INTER>
-9.06069

>  <SCORE.INTER.CONST>
1

>  <SCORE.INTER.POLAR>
0

>  <SCORE.INTER.ROT>
5

>  <SCORE.INTER.SOLV>
13.3482

>  <SCORE.INTER.VDW>
-17.4232

>  <SCORE.INTER.norm>
-0.906069

>  <SCORE.INTRA>
-0.214653

>  <SCORE.INTRA.DIHEDRAL>
-1.05417

>  <SCORE.INTRA.DIHEDRAL.0>
3.281

>  <SCORE.INTRA.POLAR>
0

>  <SCORE.INTRA.POLAR.0>
0

>  <SCORE.INTRA.REPUL>
0

>  <SCORE.INTRA.REPUL.0>
0

>  <SCORE.INTRA.SOLV>
-1.28516

>  <SCORE.INTRA.SOLV.lig_0>
-31.9458

>  <SCORE.INTRA.VDW>
0.95501

>  <SCORE.INTRA.VDW.0>
-0.672612

>  <SCORE.INTRA.norm>
-0.0214653

>  <SCORE.RESTR>
0

>  <SCORE.RESTR.CAVITY>
0

>  <SCORE.RESTR.norm>
0

>  <SCORE.SYSTEM>
0

>  <SCORE.SYSTEM.CONST>
0

>  <SCORE.SYSTEM.DIHEDRAL>
0

>  <SCORE.SYSTEM.SOLV>
0

>  <SCORE.SYSTEM.norm>
0

>  <SCORE.heavy>
10

>  <SCORE.norm>
-0.927535

>  <RMSD>
5.353

$$$$
ligand
 OpenBabel11021811473D
libRbt.so/2013.1/901 2013/11/27
 10  9  0  0  0  0  0  0  0  0999 V2000
   26.3076   15.1284   19.9290 N   0  0  0  0  0  0  0  0  0  0  0  0
   27.5265   15.5574   19.1867 C   0  0  2  0  0  0  0  0  0  0  0  0
   27.5613   14.9611   17.7866 C   0  0  0  0  0  0  0  0  0  0  0  0
   28.0852   15.5453   16.8370 O   0  0  0  0  0  0  0  0  0  0  0  0
   28.7912   15.1970   19.9630 C   0  0  0  0  0  0  0  0  0  0  0  0
   28.8525   15.8493   21.3249 C   0  0  0  0  0  0  0  0  0  0  0  0
   30.1264   15.5082   22.0508 C   0  0  0  0  0  0  0  0  0  0  0  0
   31.2878   16.3275   21.5160 C   0  0  0  0  0  0  0  0  0  0  0  0
   31.6858   15.9063   20.1475 N   0  0  0  0  0  0  0  0  0  0  0  0
   27.0877   13.8447   17.5690 O   0  0  0  0  0  0  0  0  0  0  0  0
  2  1  1  1  0  0  0
  2  3  1  0  0  0  0
  2  5  1  0  0  0  0
  3  4  1  0  0  0  0
  3 10  1  0  0  0  0
  5  6  1  0  0  0  0
  6  7  1  0  0  0  0
  7  8  1  0  0  0  0
  8  9  1  0  0  0  0
M  END
>  <CHROM.1>
148.83030877,-59.99475584,-178.37792774,77.67718073,-70.65913449,28.72445493
15.36803119,19.59258759,2.35329632,-0.21573954,-1.67347855

>  <Name>
ligand

>  <RI>
0

>  <Rbt.Current_Directory>
/home/itssahil/PROJECTS/Mol_Feturizer/New_Systems/rnas/3DIX

>  <Rbt.Executable>
rbdock ($Id: //depot/dev/client3/rdock/2013.1/src/exe/rbdock.cxx#4 $)

>  <Rbt.Library>
libRbt.so (2013.1, Build901 2013/11/27)

>  <Rbt.Parameter_File>
/export/apps/rDock/src/rDock_2013.1_src/data/scripts/dock_solv.prm

>  <Rbt.Receptor>
prm/pocket_docking_8.prm

>  <SCORE>
-7.33932

>  <SCORE.INTER>
-8.48032

>  <SCORE.INTER.CONST>
1

>  <SCORE.INTER.POLAR>
0

>  <SCORE.INTER.ROT>
5

>  <SCORE.INTER.SOLV>
15.5736

>  <SCORE.INTER.VDW>
-17.7781

>  <SCORE.INTER.norm>
-0.848032

>  <SCORE.INTRA>
1.141

>  <SCORE.INTRA.DIHEDRAL>
-0.207994

>  <SCORE.INTRA.DIHEDRAL.0>
3.281

>  <SCORE.INTRA.POLAR>
0

>  <SCORE.INTRA.POLAR.0>
0

>  <SCORE.INTRA.REPUL>
0

>  <SCORE.INTRA.REPUL.0>
0

>  <SCORE.INTRA.SOLV>
1.56648

>  <SCORE.INTRA.SOLV.lig_0>
-31.9458

>  <SCORE.INTRA.VDW>
0.461753

>  <SCORE.INTRA.VDW.0>
-0.672612

>  <SCORE.INTRA.norm>
0.1141

>  <SCORE.RESTR>
0

>  <SCORE.RESTR.CAVITY>
0

>  <SCORE.RESTR.norm>
0

>  <SCORE.SYSTEM>
0

>  <SCORE.SYSTEM.CONST>
0

>  <SCORE.SYSTEM.DIHEDRAL>
0

>  <SCORE.SYSTEM.SOLV>
0

>  <SCORE.SYSTEM.norm>
0

>  <SCORE.heavy>
10

>  <SCORE.norm>
-0.733932

>  <RMSD>
5.353

$$$$
ligand
 OpenBabel11021811473D
libRbt.so/2013.1/901 2013/11/27
 10  9  0  0  0  0  0  0  0  0999 V2000
   25.7397   15.7899   19.6663 N   0  0  0  0  0  0  0  0  0  0  0  0
   27.1882   15.5061   19.8708 C   0  0  2  0  0  0  0  0  0  0  0  0
   27.7177   14.5409   18.8195 C   0  0  0  0  0  0  0  0  0  0  0  0
   26.9959   13.7065   18.2714 O   0  0  0  0  0  0  0  0  0  0  0  0
   27.4445   14.9717   21.2781 C   0  0  0  0  0  0  0  0  0  0  0  0
   28.9146   14.8903   21.6188 C   0  0  0  0  0  0  0  0  0  0  0  0
   29.5568   16.2515   21.6514 C   0  0  0  0  0  0  0  0  0  0  0  0
   31.0416   16.1402   21.9496 C   0  0  0  0  0  0  0  0  0  0  0  0
   31.7043   17.4697   21.9934 N   0  0  0  0  0  0  0  0  0  0  0  0
   28.8945   14.5913   18.4586 O   0  0  0  0  0  0  0  0  0  0  0  0
  2  1  1  6  0  0  0
  2  3  1  0  0  0  0
  2  5  1  0  0  0  0
  3  4  1  0  0  0  0
  3 10  1  0  0  0  0
  5  6  1  0  0  0  0
  6  7  1  0  0  0  0
  7  8  1  0  0  0  0
  8  9  1  0  0  0  0
M  END
>  <CHROM.1>
-28.02404964,-170.19989219,64.39220379,-178.10630610,-179.79472210,28.52460425
15.36209458,20.32738879,2.40027205,-0.07328025,-2.08080823

>  <Name>
ligand

>  <RI>
0

>  <Rbt.Current_Directory>
/home/itssahil/PROJECTS/Mol_Feturizer/New_Systems/rnas/3DIX

>  <Rbt.Executable>
rbdock ($Id: //depot/dev/client3/rdock/2013.1/src/exe/rbdock.cxx#4 $)

>  <Rbt.Library>
libRbt.so (2013.1, Build901 2013/11/27)

>  <Rbt.Parameter_File>
/export/apps/rDock/src/rDock_2013.1_src/data/scripts/dock_solv.prm

>  <Rbt.Receptor>
prm/pocket_docking_8.prm

>  <SCORE>
-8.98719

>  <SCORE.INTER>
-7.82449

>  <SCORE.INTER.CONST>
1

>  <SCORE.INTER.POLAR>
0

>  <SCORE.INTER.ROT>
5

>  <SCORE.INTER.SOLV>
16.989

>  <SCORE.INTER.VDW>
-17.8127

>  <SCORE.INTER.norm>
-0.782449

>  <SCORE.INTRA>
-1.1627

>  <SCORE.INTRA.DIHEDRAL>
-1.27325

>  <SCORE.INTRA.DIHEDRAL.0>
3.281

>  <SCORE.INTRA.POLAR>
0

>  <SCORE.INTRA.POLAR.0>
0

>  <SCORE.INTRA.REPUL>
0

>  <SCORE.INTRA.REPUL.0>
0

>  <SCORE.INTRA.SOLV>
-1.25249

>  <SCORE.INTRA.SOLV.lig_0>
-31.9458

>  <SCORE.INTRA.VDW>
0.100166

>  <SCORE.INTRA.VDW.0>
-0.672612

>  <SCORE.INTRA.norm>
-0.11627

>  <SCORE.RESTR>
0

>  <SCORE.RESTR.CAVITY>
0

>  <SCORE.RESTR.norm>
0

>  <SCORE.SYSTEM>
0

>  <SCORE.SYSTEM.CONST>
0

>  <SCORE.SYSTEM.DIHEDRAL>
0

>  <SCORE.SYSTEM.SOLV>
0

>  <SCORE.SYSTEM.norm>
0

>  <SCORE.heavy>
10

>  <SCORE.norm>
-0.898719

>  <RMSD>
5.354

$$$$
ligand
 OpenBabel11021811473D
libRbt.so/2013.1/901 2013/11/27
 10  9  0  0  0  0  0  0  0  0999 V2000
   26.2902   15.2273   19.8246 N   0  0  0  0  0  0  0  0  0  0  0  0
   27.5335   15.6217   19.1040 C   0  0  2  0  0  0  0  0  0  0  0  0
   27.5759   15.0248   17.7044 C   0  0  0  0  0  0  0  0  0  0  0  0
   28.1608   15.5782   16.7720 O   0  0  0  0  0  0  0  0  0  0  0  0
   28.7737   15.2257   19.9020 C   0  0  0  0  0  0  0  0  0  0  0  0
   28.7922   15.8154   21.2933 C   0  0  0  0  0  0  0  0  0  0  0  0
   30.0335   15.4239   22.0497 C   0  0  0  0  0  0  0  0  0  0  0  0
   31.1960   16.3299   21.6841 C   0  0  0  0  0  0  0  0  0  0  0  0
   31.6490   16.1210   20.2842 N   0  0  0  0  0  0  0  0  0  0  0  0
   27.0456   13.9376   17.4704 O   0  0  0  0  0  0  0  0  0  0  0  0
  2  1  1  1  0  0  0
  2  3  1  0  0  0  0
  2  5  1  0  0  0  0
  3  4  1  0  0  0  0
  3 10  1  0  0  0  0
  5  6  1  0  0  0  0
  6  7  1  0  0  0  0
  7  8  1  0  0  0  0
  8  9  1  0  0  0  0
M  END
>  <CHROM.1>
150.65628893,-56.84694457,-179.23613690,82.63827502,-68.38903163,28.69864016
15.41609783,19.57000813,2.32456992,-0.23413741,-1.64618488

>  <Name>
ligand

>  <RI>
0

>  <Rbt.Current_Directory>
/home/itssahil/PROJECTS/Mol_Feturizer/New_Systems/rnas/3DIX

>  <Rbt.Executable>
rbdock ($Id: //depot/dev/client3/rdock/2013.1/src/exe/rbdock.cxx#4 $)

>  <Rbt.Library>
libRbt.so (2013.1, Build901 2013/11/27)

>  <Rbt.Parameter_File>
/export/apps/rDock/src/rDock_2013.1_src/data/scripts/dock_solv.prm

>  <Rbt.Receptor>
prm/blind_docking_100.prm

>  <SCORE>
-7.24747

>  <SCORE.INTER>
-8.57912

>  <SCORE.INTER.CONST>
1

>  <SCORE.INTER.POLAR>
0

>  <SCORE.INTER.ROT>
5

>  <SCORE.INTER.SOLV>
15.0387

>  <SCORE.INTER.VDW>
-17.6656

>  <SCORE.INTER.norm>
-0.857912

>  <SCORE.INTRA>
1.33165

>  <SCORE.INTRA.DIHEDRAL>
0.348498

>  <SCORE.INTRA.DIHEDRAL.0>
3.281

>  <SCORE.INTRA.POLAR>
0

>  <SCORE.INTRA.POLAR.0>
0

>  <SCORE.INTRA.REPUL>
0

>  <SCORE.INTRA.REPUL.0>
0

>  <SCORE.INTRA.SOLV>
1.56903

>  <SCORE.INTRA.SOLV.lig_0>
-31.9458

>  <SCORE.INTRA.VDW>
0.372883

>  <SCORE.INTRA.VDW.0>
-0.672612

>  <SCORE.INTRA.norm>
0.133165

>  <SCORE.RESTR>
0

>  <SCORE.RESTR.CAVITY>
0

>  <SCORE.RESTR.norm>
0

>  <SCORE.SYSTEM>
0

>  <SCORE.SYSTEM.CONST>
0

>  <SCORE.SYSTEM.DIHEDRAL>
0

>  <SCORE.SYSTEM.SOLV>
0

>  <SCORE.SYSTEM.norm>
0

>  <SCORE.heavy>
10

>  <SCORE.norm>
-0.724747

>  <RMSD>
5.356

$$$$
ligand
 OpenBabel11021811473D
libRbt.so/2013.1/901 2013/11/27
 10  9  0  0  0  0  0  0  0  0999 V2000
   26.9911   16.5333   19.5456 N   0  0  0  0  0  0  0  0  0  0  0  0
   28.0589   15.6106   19.0670 C   0  0  2  0  0  0  0  0  0  0  0  0
   27.7018   15.0019   17.7183 C   0  0  0  0  0  0  0  0  0  0  0  0
   26.9826   14.0069   17.6167 O   0  0  0  0  0  0  0  0  0  0  0  0
   28.3386   14.5203   20.0989 C   0  0  0  0  0  0  0  0  0  0  0  0
   29.1404   15.0180   21.2792 C   0  0  0  0  0  0  0  0  0  0  0  0
   30.5318   15.4281   20.8765 C   0  0  0  0  0  0  0  0  0  0  0  0
   31.2519   16.0997   22.0324 C   0  0  0  0  0  0  0  0  0  0  0  0
   30.7093   17.4533   22.3185 N   0  0  0  0  0  0  0  0  0  0  0  0
   28.1021   15.5163   16.6728 O   0  0  0  0  0  0  0  0  0  0  0  0
  2  1  1  1  0  0  0
  2  3  1  0  0  0  0
  2  5  1  0  0  0  0
  3  4  1  0  0  0  0
  3 10  1  0  0  0  0
  5  6  1  0  0  0  0
  6  7  1  0  0  0  0
  7  8  1  0  0  0  0
  8  9  1  0  0  0  0
M  END
>  <CHROM.1>
-83.74942073,-75.63839214,-65.78483784,172.20468780,-71.52270143,28.76678840
15.50398873,19.68349859,2.86440042,0.92493012,-3.10646959

>  <Name>
ligand

>  <RI>
0

>  <Rbt.Current_Directory>
/home/itssahil/PROJECTS/Mol_Feturizer/New_Systems/rnas/3DIX

>  <Rbt.Executable>
rbdock ($Id: //depot/dev/client3/rdock/2013.1/src/exe/rbdock.cxx#4 $)

>  <Rbt.Library>
libRbt.so (2013.1, Build901 2013/11/27)

>  <Rbt.Parameter_File>
/export/apps/rDock/src/rDock_2013.1_src/data/scripts/dock_solv.prm

>  <Rbt.Receptor>
prm/blind_docking_60.prm

>  <SCORE>
-7.67966

>  <SCORE.INTER>
-8.21428

>  <SCORE.INTER.CONST>
1

>  <SCORE.INTER.POLAR>
0

>  <SCORE.INTER.ROT>
5

>  <SCORE.INTER.SOLV>
15.2977

>  <SCORE.INTER.VDW>
-17.5088

>  <SCORE.INTER.norm>
-0.821428

>  <SCORE.INTRA>
0.534627

>  <SCORE.INTRA.DIHEDRAL>
-0.0339712

>  <SCORE.INTRA.DIHEDRAL.0>
3.281

>  <SCORE.INTRA.POLAR>
0

>  <SCORE.INTRA.POLAR.0>
0

>  <SCORE.INTRA.REPUL>
0

>  <SCORE.INTRA.REPUL.0>
0

>  <SCORE.INTRA.SOLV>
0.464743

>  <SCORE.INTRA.SOLV.lig_0>
-31.9458

>  <SCORE.INTRA.VDW>
0.319241

>  <SCORE.INTRA.VDW.0>
-0.672612

>  <SCORE.INTRA.norm>
0.0534627

>  <SCORE.RESTR>
0

>  <SCORE.RESTR.CAVITY>
0

>  <SCORE.RESTR.norm>
0

>  <SCORE.SYSTEM>
0

>  <SCORE.SYSTEM.CONST>
0

>  <SCORE.SYSTEM.DIHEDRAL>
0

>  <SCORE.SYSTEM.SOLV>
0

>  <SCORE.SYSTEM.norm>
0

>  <SCORE.heavy>
10

>  <SCORE.norm>
-0.767966

>  <RMSD>
5.357

$$$$
ligand
 OpenBabel11021811473D
libRbt.so/2013.1/901 2013/11/27
 10  9  0  0  0  0  0  0  0  0999 V2000
   25.6048   15.2083   20.4507 N   0  0  0  0  0  0  0  0  0  0  0  0
   26.9249   15.7963   20.0870 C   0  0  2  0  0  0  0  0  0  0  0  0
   27.3835   15.3225   18.7151 C   0  0  0  0  0  0  0  0  0  0  0  0
   28.0168   16.0488   17.9475 O   0  0  0  0  0  0  0  0  0  0  0  0
   27.9734   15.4788   21.1508 C   0  0  0  0  0  0  0  0  0  0  0  0
   29.2712   16.2239   20.9397 C   0  0  0  0  0  0  0  0  0  0  0  0
   30.3023   15.8537   21.9721 C   0  0  0  0  0  0  0  0  0  0  0  0
   31.5633   16.6812   21.7957 C   0  0  0  0  0  0  0  0  0  0  0  0
   32.2184   16.4297   20.4857 N   0  0  0  0  0  0  0  0  0  0  0  0
   27.1588   14.1699   18.3427 O   0  0  0  0  0  0  0  0  0  0  0  0
  2  1  1  1  0  0  0
  2  3  1  0  0  0  0
  2  5  1  0  0  0  0
  3  4  1  0  0  0  0
  3 10  1  0  0  0  0
  5  6  1  0  0  0  0
  6  7  1  0  0  0  0
  7  8  1  0  0  0  0
  8  9  1  0  0  0  0
M  END
>  <CHROM.1>
145.05627358,-171.25261369,-177.89202946,-176.23494604,-62.89716032,28.64242203
15.70933414,20.15326291,2.67868361,-0.22214164,-1.67175126

>  <Name>
ligand

>  <RI>
0

>  <Rbt.Current_Directory>
/home/itssahil/PROJECTS/Mol_Feturizer/New_Systems/rnas/3DIX

>  <Rbt.Executable>
rbdock ($Id: //depot/dev/client3/rdock/2013.1/src/exe/rbdock.cxx#4 $)

>  <Rbt.Library>
libRbt.so (2013.1, Build901 2013/11/27)

>  <Rbt.Parameter_File>
/export/apps/rDock/src/rDock_2013.1_src/data/scripts/dock_solv.prm

>  <Rbt.Receptor>
prm/pocket_docking_5.prm

>  <SCORE>
-8.50516

>  <SCORE.INTER>
-7.42584

>  <SCORE.INTER.CONST>
1

>  <SCORE.INTER.POLAR>
0

>  <SCORE.INTER.ROT>
5

>  <SCORE.INTER.SOLV>
17.4677

>  <SCORE.INTER.VDW>
-17.7065

>  <SCORE.INTER.norm>
-0.742584

>  <SCORE.INTRA>
-1.07931

>  <SCORE.INTRA.DIHEDRAL>
-1.46446

>  <SCORE.INTRA.DIHEDRAL.0>
3.281

>  <SCORE.INTRA.POLAR>
0

>  <SCORE.INTRA.POLAR.0>
0

>  <SCORE.INTRA.REPUL>
0

>  <SCORE.INTRA.REPUL.0>
0

>  <SCORE.INTRA.SOLV>
-0.633134

>  <SCORE.INTRA.SOLV.lig_0>
-31.9458

>  <SCORE.INTRA.VDW>
-0.030517

>  <SCORE.INTRA.VDW.0>
-0.672612

>  <SCORE.INTRA.norm>
-0.107931

>  <SCORE.RESTR>
0

>  <SCORE.RESTR.CAVITY>
0

>  <SCORE.RESTR.norm>
0

>  <SCORE.SYSTEM>
0

>  <SCORE.SYSTEM.CONST>
0

>  <SCORE.SYSTEM.DIHEDRAL>
0

>  <SCORE.SYSTEM.SOLV>
0

>  <SCORE.SYSTEM.norm>
0

>  <SCORE.heavy>
10

>  <SCORE.norm>
-0.850516

>  <RMSD>
5.357

$$$$
ligand
 OpenBabel11021811473D
libRbt.so/2013.1/901 2013/11/27
 10  9  0  0  0  0  0  0  0  0999 V2000
   25.6459   15.1576   20.4652 N   0  0  0  0  0  0  0  0  0  0  0  0
   26.9612   15.7504   20.0922 C   0  0  2  0  0  0  0  0  0  0  0  0
   27.3987   15.3003   18.7054 C   0  0  0  0  0  0  0  0  0  0  0  0
   28.0071   16.0446   17.9351 O   0  0  0  0  0  0  0  0  0  0  0  0
   28.0251   15.4130   21.1344 C   0  0  0  0  0  0  0  0  0  0  0  0
   29.3151   16.1725   20.9267 C   0  0  0  0  0  0  0  0  0  0  0  0
   30.3546   15.7984   21.9493 C   0  0  0  0  0  0  0  0  0  0  0  0
   31.6021   16.6488   21.7861 C   0  0  0  0  0  0  0  0  0  0  0  0
   32.2672   16.4204   20.4769 N   0  0  0  0  0  0  0  0  0  0  0  0
   27.1816   14.1496   18.3225 O   0  0  0  0  0  0  0  0  0  0  0  0
  2  1  1  1  0  0  0
  2  3  1  0  0  0  0
  2  5  1  0  0  0  0
  3  4  1  0  0  0  0
  3 10  1  0  0  0  0
  5  6  1  0  0  0  0
  6  7  1  0  0  0  0
  7  8  1  0  0  0  0
  8  9  1  0  0  0  0
M  END
>  <CHROM.1>
144.14731014,-170.57350771,-178.75985647,-175.67855506,-63.62492800,28.67603602
15.67412516,20.14364491,2.68502073,-0.23026511,-1.65170105

>  <Name>
ligand

>  <RI>
0

>  <Rbt.Current_Directory>
/home/itssahil/PROJECTS/Mol_Feturizer/New_Systems/rnas/3DIX

>  <Rbt.Executable>
rbdock ($Id: //depot/dev/client3/rdock/2013.1/src/exe/rbdock.cxx#4 $)

>  <Rbt.Library>
libRbt.so (2013.1, Build901 2013/11/27)

>  <Rbt.Parameter_File>
/export/apps/rDock/src/rDock_2013.1_src/data/scripts/dock_solv.prm

>  <Rbt.Receptor>
prm/pocket_docking_3.prm

>  <SCORE>
-8.51848

>  <SCORE.INTER>
-7.44327

>  <SCORE.INTER.CONST>
1

>  <SCORE.INTER.POLAR>
0

>  <SCORE.INTER.ROT>
5

>  <SCORE.INTER.SOLV>
17.5723

>  <SCORE.INTER.VDW>
-17.753

>  <SCORE.INTER.norm>
-0.744327

>  <SCORE.INTRA>
-1.07522

>  <SCORE.INTRA.DIHEDRAL>
-1.39306

>  <SCORE.INTRA.DIHEDRAL.0>
3.281

>  <SCORE.INTRA.POLAR>
0

>  <SCORE.INTRA.POLAR.0>
0

>  <SCORE.INTRA.REPUL>
0

>  <SCORE.INTRA.REPUL.0>
0

>  <SCORE.INTRA.SOLV>
-0.645797

>  <SCORE.INTRA.SOLV.lig_0>
-31.9458

>  <SCORE.INTRA.VDW>
-0.0557871

>  <SCORE.INTRA.VDW.0>
-0.672612

>  <SCORE.INTRA.norm>
-0.107522

>  <SCORE.RESTR>
0

>  <SCORE.RESTR.CAVITY>
0

>  <SCORE.RESTR.norm>
0

>  <SCORE.SYSTEM>
0

>  <SCORE.SYSTEM.CONST>
0

>  <SCORE.SYSTEM.DIHEDRAL>
0

>  <SCORE.SYSTEM.SOLV>
0

>  <SCORE.SYSTEM.norm>
0

>  <SCORE.heavy>
10

>  <SCORE.norm>
-0.851848

>  <RMSD>
5.358

$$$$
ligand
 OpenBabel11021811473D
libRbt.so/2013.1/901 2013/11/27
 10  9  0  0  0  0  0  0  0  0999 V2000
   25.6056   15.2421   20.3947 N   0  0  0  0  0  0  0  0  0  0  0  0
   26.9311   15.8237   20.0405 C   0  0  2  0  0  0  0  0  0  0  0  0
   27.4079   15.3296   18.6820 C   0  0  0  0  0  0  0  0  0  0  0  0
   27.1914   14.1829   18.2874 O   0  0  0  0  0  0  0  0  0  0  0  0
   27.9648   15.5209   21.1229 C   0  0  0  0  0  0  0  0  0  0  0  0
   29.2626   16.2691   20.9240 C   0  0  0  0  0  0  0  0  0  0  0  0
   30.2741   15.9252   21.9847 C   0  0  0  0  0  0  0  0  0  0  0  0
   31.5373   16.7503   21.8130 C   0  0  0  0  0  0  0  0  0  0  0  0
   32.2632   16.4077   20.5622 N   0  0  0  0  0  0  0  0  0  0  0  0
   28.0044   16.0861   17.9141 O   0  0  0  0  0  0  0  0  0  0  0  0
  2  1  1  1  0  0  0
  2  3  1  0  0  0  0
  2  5  1  0  0  0  0
  3  4  1  0  0  0  0
  3 10  1  0  0  0  0
  5  6  1  0  0  0  0
  6  7  1  0  0  0  0
  7  8  1  0  0  0  0
  8  9  1  0  0  0  0
M  END
>  <CHROM.1>
-36.00143738,-170.85622820,-178.55605690,-176.57675693,-66.47358225,28.64479978
15.74199745,20.13677929,2.65733339,-0.21319229,-1.69094225

>  <Name>
ligand

>  <RI>
0

>  <Rbt.Current_Directory>
/home/itssahil/PROJECTS/Mol_Feturizer/New_Systems/rnas/3DIX

>  <Rbt.Executable>
rbdock ($Id: //depot/dev/client3/rdock/2013.1/src/exe/rbdock.cxx#4 $)

>  <Rbt.Library>
libRbt.so (2013.1, Build901 2013/11/27)

>  <Rbt.Parameter_File>
/export/apps/rDock/src/rDock_2013.1_src/data/scripts/dock_solv.prm

>  <Rbt.Receptor>
prm/blind_docking_100.prm

>  <SCORE>
-8.52362

>  <SCORE.INTER>
-7.47973

>  <SCORE.INTER.CONST>
1

>  <SCORE.INTER.POLAR>
0

>  <SCORE.INTER.ROT>
5

>  <SCORE.INTER.SOLV>
17.3517

>  <SCORE.INTER.VDW>
-17.7037

>  <SCORE.INTER.norm>
-0.747973

>  <SCORE.INTRA>
-1.04389

>  <SCORE.INTRA.DIHEDRAL>
-1.20555

>  <SCORE.INTRA.DIHEDRAL.0>
3.281

>  <SCORE.INTRA.POLAR>
0

>  <SCORE.INTRA.POLAR.0>
0

>  <SCORE.INTRA.REPUL>
0

>  <SCORE.INTRA.REPUL.0>
0

>  <SCORE.INTRA.SOLV>
-0.681865

>  <SCORE.INTRA.SOLV.lig_0>
-31.9458

>  <SCORE.INTRA.VDW>
-0.100185

>  <SCORE.INTRA.VDW.0>
-0.672612

>  <SCORE.INTRA.norm>
-0.104389

>  <SCORE.RESTR>
0

>  <SCORE.RESTR.CAVITY>
0

>  <SCORE.RESTR.norm>
0

>  <SCORE.SYSTEM>
0

>  <SCORE.SYSTEM.CONST>
0

>  <SCORE.SYSTEM.DIHEDRAL>
0

>  <SCORE.SYSTEM.SOLV>
0

>  <SCORE.SYSTEM.norm>
0

>  <SCORE.heavy>
10

>  <SCORE.norm>
-0.852362

>  <RMSD>
5.359

$$$$
ligand
 OpenBabel11021811473D
libRbt.so/2013.1/901 2013/11/27
 10  9  0  0  0  0  0  0  0  0999 V2000
   25.6055   15.2750   20.3871 N   0  0  0  0  0  0  0  0  0  0  0  0
   26.9342   15.8463   20.0278 C   0  0  2  0  0  0  0  0  0  0  0  0
   27.3876   15.3733   18.6538 C   0  0  0  0  0  0  0  0  0  0  0  0
   27.1183   14.2506   18.2240 O   0  0  0  0  0  0  0  0  0  0  0  0
   27.9771   15.5084   21.0908 C   0  0  0  0  0  0  0  0  0  0  0  0
   29.2724   16.2648   20.9067 C   0  0  0  0  0  0  0  0  0  0  0  0
   30.3159   15.8366   21.9037 C   0  0  0  0  0  0  0  0  0  0  0  0
   31.5649   16.6911   21.7776 C   0  0  0  0  0  0  0  0  0  0  0  0
   32.2054   16.5519   20.4438 N   0  0  0  0  0  0  0  0  0  0  0  0
   28.0183   16.1251   17.9089 O   0  0  0  0  0  0  0  0  0  0  0  0
  2  1  1  1  0  0  0
  2  3  1  0  0  0  0
  2  5  1  0  0  0  0
  3  4  1  0  0  0  0
  3 10  1  0  0  0  0
  5  6  1  0  0  0  0
  6  7  1  0  0  0  0
  7  8  1  0  0  0  0
  8  9  1  0  0  0  0
M  END
>  <CHROM.1>
-33.89260111,-169.68728754,-175.69157224,-175.12086169,-62.30353534,28.63999545
15.76109873,20.09645107,2.67529905,-0.22761914,-1.65201366

>  <Name>
ligand

>  <RI>
0

>  <Rbt.Current_Directory>
/home/itssahil/PROJECTS/Mol_Feturizer/New_Systems/rnas/3DIX

>  <Rbt.Executable>
rbdock ($Id: //depot/dev/client3/rdock/2013.1/src/exe/rbdock.cxx#4 $)

>  <Rbt.Library>
libRbt.so (2013.1, Build901 2013/11/27)

>  <Rbt.Parameter_File>
/export/apps/rDock/src/rDock_2013.1_src/data/scripts/dock_solv.prm

>  <Rbt.Receptor>
prm/blind_docking_60.prm

>  <SCORE>
-8.47121

>  <SCORE.INTER>
-7.52569

>  <SCORE.INTER.CONST>
1

>  <SCORE.INTER.POLAR>
0

>  <SCORE.INTER.ROT>
5

>  <SCORE.INTER.SOLV>
17.3378

>  <SCORE.INTER.VDW>
-17.7297

>  <SCORE.INTER.norm>
-0.752569

>  <SCORE.INTRA>
-0.945526

>  <SCORE.INTRA.DIHEDRAL>
-1.13683

>  <SCORE.INTRA.DIHEDRAL.0>
3.281

>  <SCORE.INTRA.POLAR>
0

>  <SCORE.INTRA.POLAR.0>
0

>  <SCORE.INTRA.REPUL>
0

>  <SCORE.INTRA.REPUL.0>
0

>  <SCORE.INTRA.SOLV>
-0.626522

>  <SCORE.INTRA.SOLV.lig_0>
-31.9458

>  <SCORE.INTRA.VDW>
-0.0638525

>  <SCORE.INTRA.VDW.0>
-0.672612

>  <SCORE.INTRA.norm>
-0.0945526

>  <SCORE.RESTR>
0

>  <SCORE.RESTR.CAVITY>
0

>  <SCORE.RESTR.norm>
0

>  <SCORE.SYSTEM>
0

>  <SCORE.SYSTEM.CONST>
0

>  <SCORE.SYSTEM.DIHEDRAL>
0

>  <SCORE.SYSTEM.SOLV>
0

>  <SCORE.SYSTEM.norm>
0

>  <SCORE.heavy>
10

>  <SCORE.norm>
-0.847121

>  <RMSD>
5.363

$$$$
ligand
 OpenBabel11021811473D
libRbt.so/2013.1/901 2013/11/27
 10  9  0  0  0  0  0  0  0  0999 V2000
   28.4835   14.6083   18.8079 N   0  0  0  0  0  0  0  0  0  0  0  0
   27.9740   14.4482   20.1991 C   0  0  2  0  0  0  0  0  0  0  0  0
   26.7087   15.2641   20.4233 C   0  0  0  0  0  0  0  0  0  0  0  0
   26.4825   16.3072   19.8082 O   0  0  0  0  0  0  0  0  0  0  0  0
   29.0488   14.8201   21.2182 C   0  0  0  0  0  0  0  0  0  0  0  0
   29.5251   16.2474   21.0777 C   0  0  0  0  0  0  0  0  0  0  0  0
   30.7536   16.5106   21.9071 C   0  0  0  0  0  0  0  0  0  0  0  0
   31.2422   17.9348   21.7101 C   0  0  0  0  0  0  0  0  0  0  0  0
   32.5455   18.1768   22.3820 N   0  0  0  0  0  0  0  0  0  0  0  0
   25.8469   14.8792   21.2152 O   0  0  0  0  0  0  0  0  0  0  0  0
  2  1  1  6  0  0  0
  2  3  1  0  0  0  0
  2  5  1  0  0  0  0
  3  4  1  0  0  0  0
  3 10  1  0  0  0  0
  5  6  1  0  0  0  0
  6  7  1  0  0  0  0
  7  8  1  0  0  0  0
  8  9  1  0  0  0  0
M  END
>  <CHROM.1>
-29.13116906,59.64058312,-169.16946931,177.92000654,-172.94699455,28.82232074
15.93027386,20.87608141,-2.57869168,0.04072801,0.67300333

>  <Name>
ligand

>  <RI>
0

>  <Rbt.Current_Directory>
/home/itssahil/PROJECTS/Mol_Feturizer/New_Systems/rnas/3DIX

>  <Rbt.Executable>
rbdock ($Id: //depot/dev/client3/rdock/2013.1/src/exe/rbdock.cxx#4 $)

>  <Rbt.Library>
libRbt.so (2013.1, Build901 2013/11/27)

>  <Rbt.Parameter_File>
/export/apps/rDock/src/rDock_2013.1_src/data/scripts/dock_solv.prm

>  <Rbt.Receptor>
prm/pocket_docking_3.prm

>  <SCORE>
-9.3952

>  <SCORE.INTER>
-8.59045

>  <SCORE.INTER.CONST>
1

>  <SCORE.INTER.POLAR>
0

>  <SCORE.INTER.ROT>
5

>  <SCORE.INTER.SOLV>
13.4898

>  <SCORE.INTER.VDW>
-17.1569

>  <SCORE.INTER.norm>
-0.859045

>  <SCORE.INTRA>
-0.804749

>  <SCORE.INTRA.DIHEDRAL>
-1.03732

>  <SCORE.INTRA.DIHEDRAL.0>
3.281

>  <SCORE.INTRA.POLAR>
0

>  <SCORE.INTRA.POLAR.0>
0

>  <SCORE.INTRA.REPUL>
0

>  <SCORE.INTRA.REPUL.0>
0

>  <SCORE.INTRA.SOLV>
-0.576653

>  <SCORE.INTRA.SOLV.lig_0>
-31.9458

>  <SCORE.INTRA.VDW>
0.00223868

>  <SCORE.INTRA.VDW.0>
-0.672612

>  <SCORE.INTRA.norm>
-0.0804749

>  <SCORE.RESTR>
0

>  <SCORE.RESTR.CAVITY>
0

>  <SCORE.RESTR.norm>
0

>  <SCORE.SYSTEM>
0

>  <SCORE.SYSTEM.CONST>
0

>  <SCORE.SYSTEM.DIHEDRAL>
0

>  <SCORE.SYSTEM.SOLV>
0

>  <SCORE.SYSTEM.norm>
0

>  <SCORE.heavy>
10

>  <SCORE.norm>
-0.93952

>  <RMSD>
5.363

$$$$
ligand
 OpenBabel11021811473D
libRbt.so/2013.1/901 2013/11/27
 10  9  0  0  0  0  0  0  0  0999 V2000
   28.4733   14.6226   18.8237 N   0  0  0  0  0  0  0  0  0  0  0  0
   27.9603   14.4504   20.2122 C   0  0  2  0  0  0  0  0  0  0  0  0
   26.6861   15.2526   20.4357 C   0  0  0  0  0  0  0  0  0  0  0  0
   25.8092   14.8871   21.2201 O   0  0  0  0  0  0  0  0  0  0  0  0
   29.0275   14.8279   21.2371 C   0  0  0  0  0  0  0  0  0  0  0  0
   29.5150   16.2501   21.0835 C   0  0  0  0  0  0  0  0  0  0  0  0
   30.7585   16.5050   21.8929 C   0  0  0  0  0  0  0  0  0  0  0  0
   31.2745   17.9140   21.6593 C   0  0  0  0  0  0  0  0  0  0  0  0
   32.5764   18.1519   22.3354 N   0  0  0  0  0  0  0  0  0  0  0  0
   26.5095   16.3236   19.8531 O   0  0  0  0  0  0  0  0  0  0  0  0
  2  1  1  6  0  0  0
  2  3  1  0  0  0  0
  2  5  1  0  0  0  0
  3  4  1  0  0  0  0
  3 10  1  0  0  0  0
  5  6  1  0  0  0  0
  6  7  1  0  0  0  0
  7  8  1  0  0  0  0
  8  9  1  0  0  0  0
M  END
>  <CHROM.1>
149.42372044,58.20248907,-167.63867230,176.69397202,-174.18477649,28.82053320
15.92962922,20.87692419,-2.59198514,0.05264588,0.67921812

>  <Name>
ligand

>  <RI>
0

>  <Rbt.Current_Directory>
/home/itssahil/PROJECTS/Mol_Feturizer/New_Systems/rnas/3DIX

>  <Rbt.Executable>
rbdock ($Id: //depot/dev/client3/rdock/2013.1/src/exe/rbdock.cxx#4 $)

>  <Rbt.Library>
libRbt.so (2013.1, Build901 2013/11/27)

>  <Rbt.Parameter_File>
/export/apps/rDock/src/rDock_2013.1_src/data/scripts/dock_solv.prm

>  <Rbt.Receptor>
prm/blind_docking_80.prm

>  <SCORE>
-9.41192

>  <SCORE.INTER>
-8.61037

>  <SCORE.INTER.CONST>
1

>  <SCORE.INTER.POLAR>
0

>  <SCORE.INTER.ROT>
5

>  <SCORE.INTER.SOLV>
13.3703

>  <SCORE.INTER.VDW>
-17.1303

>  <SCORE.INTER.norm>
-0.861037

>  <SCORE.INTRA>
-0.801558

>  <SCORE.INTRA.DIHEDRAL>
-1.04983

>  <SCORE.INTRA.DIHEDRAL.0>
3.281

>  <SCORE.INTRA.POLAR>
0

>  <SCORE.INTRA.POLAR.0>
0

>  <SCORE.INTRA.REPUL>
0

>  <SCORE.INTRA.REPUL.0>
0

>  <SCORE.INTRA.SOLV>
-0.549478

>  <SCORE.INTRA.SOLV.lig_0>
-31.9458

>  <SCORE.INTRA.VDW>
-0.00190311

>  <SCORE.INTRA.VDW.0>
-0.672612

>  <SCORE.INTRA.norm>
-0.0801558

>  <SCORE.RESTR>
0

>  <SCORE.RESTR.CAVITY>
0

>  <SCORE.RESTR.norm>
0

>  <SCORE.SYSTEM>
0

>  <SCORE.SYSTEM.CONST>
0

>  <SCORE.SYSTEM.DIHEDRAL>
0

>  <SCORE.SYSTEM.SOLV>
0

>  <SCORE.SYSTEM.norm>
0

>  <SCORE.heavy>
10

>  <SCORE.norm>
-0.941192

>  <RMSD>
5.365

$$$$
ligand
 OpenBabel11021811473D
libRbt.so/2013.1/901 2013/11/27
 10  9  0  0  0  0  0  0  0  0999 V2000
   28.4747   14.4894   18.8854 N   0  0  0  0  0  0  0  0  0  0  0  0
   27.9425   14.4052   20.2748 C   0  0  2  0  0  0  0  0  0  0  0  0
   26.6839   15.2456   20.4380 C   0  0  0  0  0  0  0  0  0  0  0  0
   25.7605   14.9078   21.1803 O   0  0  0  0  0  0  0  0  0  0  0  0
   29.0061   14.8156   21.2907 C   0  0  0  0  0  0  0  0  0  0  0  0
   29.5190   16.2202   21.0718 C   0  0  0  0  0  0  0  0  0  0  0  0
   30.7383   16.5063   21.9071 C   0  0  0  0  0  0  0  0  0  0  0  0
   31.2555   17.9095   21.6434 C   0  0  0  0  0  0  0  0  0  0  0  0
   32.5384   18.1736   22.3455 N   0  0  0  0  0  0  0  0  0  0  0  0
   26.5672   16.3206   19.8476 O   0  0  0  0  0  0  0  0  0  0  0  0
  2  1  1  6  0  0  0
  2  3  1  0  0  0  0
  2  5  1  0  0  0  0
  3  4  1  0  0  0  0
  3 10  1  0  0  0  0
  5  6  1  0  0  0  0
  6  7  1  0  0  0  0
  7  8  1  0  0  0  0
  8  9  1  0  0  0  0
M  END
>  <CHROM.1>
145.69154093,58.64535361,-169.10523371,178.53935409,-174.06530217,28.81049017
15.91128629,20.88888430,-2.58287930,0.01105194,0.60254915

>  <Name>
ligand

>  <RI>
0

>  <Rbt.Current_Directory>
/home/itssahil/PROJECTS/Mol_Feturizer/New_Systems/rnas/3DIX

>  <Rbt.Executable>
rbdock ($Id: //depot/dev/client3/rdock/2013.1/src/exe/rbdock.cxx#4 $)

>  <Rbt.Library>
libRbt.so (2013.1, Build901 2013/11/27)

>  <Rbt.Parameter_File>
/export/apps/rDock/src/rDock_2013.1_src/data/scripts/dock_solv.prm

>  <Rbt.Receptor>
prm/pocket_docking_6.prm

>  <SCORE>
-9.39667

>  <SCORE.INTER>
-8.52368

>  <SCORE.INTER.CONST>
1

>  <SCORE.INTER.POLAR>
0

>  <SCORE.INTER.ROT>
5

>  <SCORE.INTER.SOLV>
13.8214

>  <SCORE.INTER.VDW>
-17.2229

>  <SCORE.INTER.norm>
-0.852368

>  <SCORE.INTRA>
-0.872992

>  <SCORE.INTRA.DIHEDRAL>
-1.21939

>  <SCORE.INTRA.DIHEDRAL.0>
3.281

>  <SCORE.INTRA.POLAR>
0

>  <SCORE.INTRA.POLAR.0>
0

>  <SCORE.INTRA.REPUL>
0

>  <SCORE.INTRA.REPUL.0>
0

>  <SCORE.INTRA.SOLV>
-0.566819

>  <SCORE.INTRA.SOLV.lig_0>
-31.9458

>  <SCORE.INTRA.VDW>
0.0201119

>  <SCORE.INTRA.VDW.0>
-0.672612

>  <SCORE.INTRA.norm>
-0.0872992

>  <SCORE.RESTR>
0

>  <SCORE.RESTR.CAVITY>
0

>  <SCORE.RESTR.norm>
0

>  <SCORE.SYSTEM>
0

>  <SCORE.SYSTEM.CONST>
0

>  <SCORE.SYSTEM.DIHEDRAL>
0

>  <SCORE.SYSTEM.SOLV>
0

>  <SCORE.SYSTEM.norm>
0

>  <SCORE.heavy>
10

>  <SCORE.norm>
-0.939667

>  <RMSD>
5.365

$$$$
ligand
 OpenBabel11021811473D
libRbt.so/2013.1/901 2013/11/27
 10  9  0  0  0  0  0  0  0  0999 V2000
   29.0805   14.4911   20.2311 N   0  0  0  0  0  0  0  0  0  0  0  0
   28.0543   15.1459   19.3716 C   0  0  2  0  0  0  0  0  0  0  0  0
   27.8477   14.3789   18.0730 C   0  0  0  0  0  0  0  0  0  0  0  0
   26.8267   13.7263   17.8512 O   0  0  0  0  0  0  0  0  0  0  0  0
   28.4270   16.5999   19.0911 C   0  0  0  0  0  0  0  0  0  0  0  0
   28.9163   17.3303   20.3203 C   0  0  0  0  0  0  0  0  0  0  0  0
   30.3766   17.0720   20.5794 C   0  0  0  0  0  0  0  0  0  0  0  0
   30.8661   17.8855   21.7645 C   0  0  0  0  0  0  0  0  0  0  0  0
   32.3282   17.7322   21.9823 N   0  0  0  0  0  0  0  0  0  0  0  0
   28.6960   14.4180   17.1805 O   0  0  0  0  0  0  0  0  0  0  0  0
  2  1  1  6  0  0  0
  2  3  1  0  0  0  0
  2  5  1  0  0  0  0
  3  4  1  0  0  0  0
  3 10  1  0  0  0  0
  5  6  1  0  0  0  0
  6  7  1  0  0  0  0
  7  8  1  0  0  0  0
  8  9  1  0  0  0  0
M  END
>  <CHROM.1>
108.32612398,-44.03152763,83.08485583,176.34022372,-175.63574454,29.12915713
15.85409389,19.60896369,-2.25792300,-0.44034580,0.47127308

>  <Name>
ligand

>  <RI>
0

>  <Rbt.Current_Directory>
/home/itssahil/PROJECTS/Mol_Feturizer/New_Systems/rnas/3DIX

>  <Rbt.Executable>
rbdock ($Id: //depot/dev/client3/rdock/2013.1/src/exe/rbdock.cxx#4 $)

>  <Rbt.Library>
libRbt.so (2013.1, Build901 2013/11/27)

>  <Rbt.Parameter_File>
/export/apps/rDock/src/rDock_2013.1_src/data/scripts/dock_solv.prm

>  <Rbt.Receptor>
prm/blind_docking_60.prm

>  <SCORE>
-5.00046

>  <SCORE.INTER>
-6.73411

>  <SCORE.INTER.CONST>
1

>  <SCORE.INTER.POLAR>
0

>  <SCORE.INTER.ROT>
5

>  <SCORE.INTER.SOLV>
12.3285

>  <SCORE.INTER.VDW>
-15.5322

>  <SCORE.INTER.norm>
-0.673411

>  <SCORE.INTRA>
1.73365

>  <SCORE.INTRA.DIHEDRAL>
1.28063

>  <SCORE.INTRA.DIHEDRAL.0>
3.281

>  <SCORE.INTRA.POLAR>
0

>  <SCORE.INTRA.POLAR.0>
0

>  <SCORE.INTRA.REPUL>
0

>  <SCORE.INTRA.REPUL.0>
0

>  <SCORE.INTRA.SOLV>
0.940876

>  <SCORE.INTRA.SOLV.lig_0>
-31.9458

>  <SCORE.INTRA.VDW>
0.622897

>  <SCORE.INTRA.VDW.0>
-0.672612

>  <SCORE.INTRA.norm>
0.173365

>  <SCORE.RESTR>
0

>  <SCORE.RESTR.CAVITY>
0

>  <SCORE.RESTR.norm>
0

>  <SCORE.SYSTEM>
0

>  <SCORE.SYSTEM.CONST>
0

>  <SCORE.SYSTEM.DIHEDRAL>
0

>  <SCORE.SYSTEM.SOLV>
0

>  <SCORE.SYSTEM.norm>
0

>  <SCORE.heavy>
10

>  <SCORE.norm>
-0.500046

>  <RMSD>
5.368

$$$$
ligand
 OpenBabel11021811473D
libRbt.so/2013.1/901 2013/11/27
 10  9  0  0  0  0  0  0  0  0999 V2000
   28.5805   14.8199   19.0084 N   0  0  0  0  0  0  0  0  0  0  0  0
   28.2163   15.4420   20.3127 C   0  0  2  0  0  0  0  0  0  0  0  0
   26.7185   15.3537   20.5697 C   0  0  0  0  0  0  0  0  0  0  0  0
   25.8865   15.6821   19.7226 O   0  0  0  0  0  0  0  0  0  0  0  0
   28.6948   16.8907   20.3770 C   0  0  0  0  0  0  0  0  0  0  0  0
   30.2004   17.0123   20.4227 C   0  0  0  0  0  0  0  0  0  0  0  0
   30.7671   16.4577   21.7024 C   0  0  0  0  0  0  0  0  0  0  0  0
   32.2556   16.7418   21.8007 C   0  0  0  0  0  0  0  0  0  0  0  0
   32.5398   18.1938   21.9402 N   0  0  0  0  0  0  0  0  0  0  0  0
   26.2909   14.9129   21.6377 O   0  0  0  0  0  0  0  0  0  0  0  0
  2  1  1  6  0  0  0
  2  3  1  0  0  0  0
  2  5  1  0  0  0  0
  3  4  1  0  0  0  0
  3 10  1  0  0  0  0
  5  6  1  0  0  0  0
  6  7  1  0  0  0  0
  7  8  1  0  0  0  0
  8  9  1  0  0  0  0
M  END
>  <CHROM.1>
-48.75744008,-68.00398752,-66.53604990,-173.11941870,66.75725980,28.97130239
16.14317941,20.75322306,-2.85769127,0.32466327,1.40261795

>  <Name>
ligand

>  <RI>
0

>  <Rbt.Current_Directory>
/home/itssahil/PROJECTS/Mol_Feturizer/New_Systems/rnas/3DIX

>  <Rbt.Executable>
rbdock ($Id: //depot/dev/client3/rdock/2013.1/src/exe/rbdock.cxx#4 $)

>  <Rbt.Library>
libRbt.so (2013.1, Build901 2013/11/27)

>  <Rbt.Parameter_File>
/export/apps/rDock/src/rDock_2013.1_src/data/scripts/dock_solv.prm

>  <Rbt.Receptor>
prm/pocket_docking_6.prm

>  <SCORE>
-8.59758

>  <SCORE.INTER>
-8.60879

>  <SCORE.INTER.CONST>
1

>  <SCORE.INTER.POLAR>
0

>  <SCORE.INTER.ROT>
5

>  <SCORE.INTER.SOLV>
11.4977

>  <SCORE.INTER.VDW>
-16.5051

>  <SCORE.INTER.norm>
-0.860879

>  <SCORE.INTRA>
0.0112116

>  <SCORE.INTRA.DIHEDRAL>
-0.946018

>  <SCORE.INTRA.DIHEDRAL.0>
3.281

>  <SCORE.INTRA.POLAR>
0

>  <SCORE.INTRA.POLAR.0>
0

>  <SCORE.INTRA.REPUL>
0

>  <SCORE.INTRA.REPUL.0>
0

>  <SCORE.INTRA.SOLV>
0.654509

>  <SCORE.INTRA.SOLV.lig_0>
-31.9458

>  <SCORE.INTRA.VDW>
0.156966

>  <SCORE.INTRA.VDW.0>
-0.672612

>  <SCORE.INTRA.norm>
0.00112116

>  <SCORE.RESTR>
0

>  <SCORE.RESTR.CAVITY>
0

>  <SCORE.RESTR.norm>
0

>  <SCORE.SYSTEM>
0

>  <SCORE.SYSTEM.CONST>
0

>  <SCORE.SYSTEM.DIHEDRAL>
0

>  <SCORE.SYSTEM.SOLV>
0

>  <SCORE.SYSTEM.norm>
0

>  <SCORE.heavy>
10

>  <SCORE.norm>
-0.859758

>  <RMSD>
5.368

$$$$
ligand
 OpenBabel11021811473D
libRbt.so/2013.1/901 2013/11/27
 10  9  0  0  0  0  0  0  0  0999 V2000
   27.5705   14.4884   18.1378 N   0  0  0  0  0  0  0  0  0  0  0  0
   27.6792   14.4841   19.6240 C   0  0  2  0  0  0  0  0  0  0  0  0
   26.4805   15.1651   20.2693 C   0  0  0  0  0  0  0  0  0  0  0  0
   25.7869   15.9845   19.6650 O   0  0  0  0  0  0  0  0  0  0  0  0
   28.9838   15.1363   20.0760 C   0  0  0  0  0  0  0  0  0  0  0  0
   29.1979   15.0525   21.5696 C   0  0  0  0  0  0  0  0  0  0  0  0
   30.5226   15.6395   21.9780 C   0  0  0  0  0  0  0  0  0  0  0  0
   30.5444   17.1391   21.7396 C   0  0  0  0  0  0  0  0  0  0  0  0
   31.8704   17.7351   22.0479 N   0  0  0  0  0  0  0  0  0  0  0  0
   26.1464   14.8858   21.4218 O   0  0  0  0  0  0  0  0  0  0  0  0
  2  1  1  6  0  0  0
  2  3  1  0  0  0  0
  2  5  1  0  0  0  0
  3  4  1  0  0  0  0
  3 10  1  0  0  0  0
  5  6  1  0  0  0  0
  6  7  1  0  0  0  0
  7  8  1  0  0  0  0
  8  9  1  0  0  0  0
M  END
>  <CHROM.1>
-22.83799046,-175.11552167,177.06848484,66.96066082,-176.18908811,28.44192221
15.58064711,20.66282817,-2.60631980,0.16603208,1.14393013

>  <Name>
ligand

>  <RI>
0

>  <Rbt.Current_Directory>
/home/itssahil/PROJECTS/Mol_Feturizer/New_Systems/rnas/3DIX

>  <Rbt.Executable>
rbdock ($Id: //depot/dev/client3/rdock/2013.1/src/exe/rbdock.cxx#4 $)

>  <Rbt.Library>
libRbt.so (2013.1, Build901 2013/11/27)

>  <Rbt.Parameter_File>
/export/apps/rDock/src/rDock_2013.1_src/data/scripts/dock_solv.prm

>  <Rbt.Receptor>
prm/pocket_docking_3.prm

>  <SCORE>
-9.25657

>  <SCORE.INTER>
-8.76302

>  <SCORE.INTER.CONST>
1

>  <SCORE.INTER.POLAR>
0

>  <SCORE.INTER.ROT>
5

>  <SCORE.INTER.SOLV>
14.0089

>  <SCORE.INTER.VDW>
-17.445

>  <SCORE.INTER.norm>
-0.876302

>  <SCORE.INTRA>
-0.493543

>  <SCORE.INTRA.DIHEDRAL>
-1.34888

>  <SCORE.INTRA.DIHEDRAL.0>
3.281

>  <SCORE.INTRA.POLAR>
0

>  <SCORE.INTRA.POLAR.0>
0

>  <SCORE.INTRA.REPUL>
0

>  <SCORE.INTRA.REPUL.0>
0

>  <SCORE.INTRA.SOLV>
-1.27724

>  <SCORE.INTRA.SOLV.lig_0>
-31.9458

>  <SCORE.INTRA.VDW>
0.819518

>  <SCORE.INTRA.VDW.0>
-0.672612

>  <SCORE.INTRA.norm>
-0.0493543

>  <SCORE.RESTR>
0

>  <SCORE.RESTR.CAVITY>
0

>  <SCORE.RESTR.norm>
0

>  <SCORE.SYSTEM>
0

>  <SCORE.SYSTEM.CONST>
0

>  <SCORE.SYSTEM.DIHEDRAL>
0

>  <SCORE.SYSTEM.SOLV>
0

>  <SCORE.SYSTEM.norm>
0

>  <SCORE.heavy>
10

>  <SCORE.norm>
-0.925657

>  <RMSD>
5.370

$$$$
ligand
 OpenBabel11021811473D
libRbt.so/2013.1/901 2013/11/27
 10  9  0  0  0  0  0  0  0  0999 V2000
   28.4749   14.5884   18.8467 N   0  0  0  0  0  0  0  0  0  0  0  0
   27.9615   14.4442   20.2382 C   0  0  2  0  0  0  0  0  0  0  0  0
   26.6948   15.2616   20.4491 C   0  0  0  0  0  0  0  0  0  0  0  0
   26.4789   16.3080   19.8358 O   0  0  0  0  0  0  0  0  0  0  0  0
   29.0329   14.8289   21.2560 C   0  0  0  0  0  0  0  0  0  0  0  0
   29.5393   16.2410   21.0730 C   0  0  0  0  0  0  0  0  0  0  0  0
   30.7689   16.5052   21.9005 C   0  0  0  0  0  0  0  0  0  0  0  0
   31.2832   17.9148   21.6671 C   0  0  0  0  0  0  0  0  0  0  0  0
   32.5805   18.1569   22.3505 N   0  0  0  0  0  0  0  0  0  0  0  0
   25.8218   14.8749   21.2276 O   0  0  0  0  0  0  0  0  0  0  0  0
  2  1  1  6  0  0  0
  2  3  1  0  0  0  0
  2  5  1  0  0  0  0
  3  4  1  0  0  0  0
  3 10  1  0  0  0  0
  5  6  1  0  0  0  0
  6  7  1  0  0  0  0
  7  8  1  0  0  0  0
  8  9  1  0  0  0  0
M  END
>  <CHROM.1>
-30.24912607,57.85609552,-168.83960478,178.24159306,-173.57958011,28.82476981
15.92306950,20.88551721,-2.59038239,0.03894015,0.65710151

>  <Name>
ligand

>  <RI>
0

>  <Rbt.Current_Directory>
/home/itssahil/PROJECTS/Mol_Feturizer/New_Systems/rnas/3DIX

>  <Rbt.Executable>
rbdock ($Id: //depot/dev/client3/rdock/2013.1/src/exe/rbdock.cxx#4 $)

>  <Rbt.Library>
libRbt.so (2013.1, Build901 2013/11/27)

>  <Rbt.Parameter_File>
/export/apps/rDock/src/rDock_2013.1_src/data/scripts/dock_solv.prm

>  <Rbt.Receptor>
prm/pocket_docking_4.prm

>  <SCORE>
-9.36543

>  <SCORE.INTER>
-8.56824

>  <SCORE.INTER.CONST>
1

>  <SCORE.INTER.POLAR>
0

>  <SCORE.INTER.ROT>
5

>  <SCORE.INTER.SOLV>
13.5138

>  <SCORE.INTER.VDW>
-17.1501

>  <SCORE.INTER.norm>
-0.856824

>  <SCORE.INTRA>
-0.797187

>  <SCORE.INTRA.DIHEDRAL>
-1.02422

>  <SCORE.INTRA.DIHEDRAL.0>
3.281

>  <SCORE.INTRA.POLAR>
0

>  <SCORE.INTRA.POLAR.0>
0

>  <SCORE.INTRA.REPUL>
0

>  <SCORE.INTRA.REPUL.0>
0

>  <SCORE.INTRA.SOLV>
-0.553345

>  <SCORE.INTRA.SOLV.lig_0>
-31.9458

>  <SCORE.INTRA.VDW>
-0.00840565

>  <SCORE.INTRA.VDW.0>
-0.672612

>  <SCORE.INTRA.norm>
-0.0797187

>  <SCORE.RESTR>
0

>  <SCORE.RESTR.CAVITY>
0

>  <SCORE.RESTR.norm>
0

>  <SCORE.SYSTEM>
0

>  <SCORE.SYSTEM.CONST>
0

>  <SCORE.SYSTEM.DIHEDRAL>
0

>  <SCORE.SYSTEM.SOLV>
0

>  <SCORE.SYSTEM.norm>
0

>  <SCORE.heavy>
10

>  <SCORE.norm>
-0.936543

>  <RMSD>
5.371

$$$$
ligand
 OpenBabel11021811473D
libRbt.so/2013.1/901 2013/11/27
 10  9  0  0  0  0  0  0  0  0999 V2000
   28.7635   16.4264   19.3039 N   0  0  0  0  0  0  0  0  0  0  0  0
   27.6241   15.5124   19.0091 C   0  0  2  0  0  0  0  0  0  0  0  0
   26.9576   15.0271   20.2887 C   0  0  0  0  0  0  0  0  0  0  0  0
   27.5962   14.5087   21.2058 O   0  0  0  0  0  0  0  0  0  0  0  0
   28.0799   14.3335   18.1523 C   0  0  0  0  0  0  0  0  0  0  0  0
   26.9390   13.4386   17.7266 C   0  0  0  0  0  0  0  0  0  0  0  0
   27.4331   12.1317   17.1663 C   0  0  0  0  0  0  0  0  0  0  0  0
   26.2826   11.1607   16.9676 C   0  0  0  0  0  0  0  0  0  0  0  0
   26.7554    9.8029   16.5916 N   0  0  0  0  0  0  0  0  0  0  0  0
   25.7459   15.1722   20.4582 O   0  0  0  0  0  0  0  0  0  0  0  0
  2  1  1  1  0  0  0
  2  3  1  0  0  0  0
  2  5  1  0  0  0  0
  3  4  1  0  0  0  0
  3 10  1  0  0  0  0
  5  6  1  0  0  0  0
  6  7  1  0  0  0  0
  7  8  1  0  0  0  0
  8  9  1  0  0  0  0
M  END
>  <CHROM.1>
-52.51306110,-175.10948925,-166.77262509,170.32201395,-172.23728806,27.20311927
13.75124380,18.72202532,-1.39832930,-0.79687189,-2.39436801

>  <Name>
ligand

>  <RI>
0

>  <Rbt.Current_Directory>
/home/itssahil/PROJECTS/Mol_Feturizer/New_Systems/rnas/3DIX

>  <Rbt.Executable>
rbdock ($Id: //depot/dev/client3/rdock/2013.1/src/exe/rbdock.cxx#4 $)

>  <Rbt.Library>
libRbt.so (2013.1, Build901 2013/11/27)

>  <Rbt.Parameter_File>
/export/apps/rDock/src/rDock_2013.1_src/data/scripts/dock_solv.prm

>  <Rbt.Receptor>
prm/pocket_docking_6.prm

>  <SCORE>
-12.6829

>  <SCORE.INTER>
-11.5483

>  <SCORE.INTER.CONST>
1

>  <SCORE.INTER.POLAR>
0

>  <SCORE.INTER.ROT>
5

>  <SCORE.INTER.SOLV>
14.6245

>  <SCORE.INTER.VDW>
-19.507

>  <SCORE.INTER.norm>
-1.15483

>  <SCORE.INTRA>
-1.1346

>  <SCORE.INTRA.DIHEDRAL>
-0.370585

>  <SCORE.INTRA.DIHEDRAL.0>
3.281

>  <SCORE.INTRA.POLAR>
0

>  <SCORE.INTRA.POLAR.0>
0

>  <SCORE.INTRA.REPUL>
0

>  <SCORE.INTRA.REPUL.0>
0

>  <SCORE.INTRA.SOLV>
-1.57308

>  <SCORE.INTRA.SOLV.lig_0>
-31.9458

>  <SCORE.INTRA.VDW>
-0.16277

>  <SCORE.INTRA.VDW.0>
-0.672612

>  <SCORE.INTRA.norm>
-0.11346

>  <SCORE.RESTR>
0

>  <SCORE.RESTR.CAVITY>
0

>  <SCORE.RESTR.norm>
0

>  <SCORE.SYSTEM>
0

>  <SCORE.SYSTEM.CONST>
0

>  <SCORE.SYSTEM.DIHEDRAL>
0

>  <SCORE.SYSTEM.SOLV>
0

>  <SCORE.SYSTEM.norm>
0

>  <SCORE.heavy>
10

>  <SCORE.norm>
-1.26829

>  <RMSD>
5.372

$$$$
ligand
 OpenBabel11021811473D
libRbt.so/2013.1/901 2013/11/27
 10  9  0  0  0  0  0  0  0  0999 V2000
   25.5984   15.2755   20.4168 N   0  0  0  0  0  0  0  0  0  0  0  0
   26.9323   15.8214   20.0381 C   0  0  2  0  0  0  0  0  0  0  0  0
   27.3866   15.2871   18.6871 C   0  0  0  0  0  0  0  0  0  0  0  0
   27.1575   14.1313   18.3274 O   0  0  0  0  0  0  0  0  0  0  0  0
   27.9694   15.5217   21.1182 C   0  0  0  0  0  0  0  0  0  0  0  0
   29.2692   16.2637   20.9090 C   0  0  0  0  0  0  0  0  0  0  0  0
   30.2840   15.9223   21.9672 C   0  0  0  0  0  0  0  0  0  0  0  0
   31.5484   16.7437   21.7869 C   0  0  0  0  0  0  0  0  0  0  0  0
   32.2574   16.4089   20.5245 N   0  0  0  0  0  0  0  0  0  0  0  0
   27.9765   16.0183   17.8902 O   0  0  0  0  0  0  0  0  0  0  0  0
  2  1  1  1  0  0  0
  2  3  1  0  0  0  0
  2  5  1  0  0  0  0
  3  4  1  0  0  0  0
  3 10  1  0  0  0  0
  5  6  1  0  0  0  0
  6  7  1  0  0  0  0
  7  8  1  0  0  0  0
  8  9  1  0  0  0  0
M  END
>  <CHROM.1>
-36.92669074,-169.49657206,-178.52661880,-176.44408953,-65.57941045,28.63797554
15.72664436,20.13097767,2.66081045,-0.20872991,-1.70819148

>  <Name>
ligand

>  <RI>
0

>  <Rbt.Current_Directory>
/home/itssahil/PROJECTS/Mol_Feturizer/New_Systems/rnas/3DIX

>  <Rbt.Executable>
rbdock ($Id: //depot/dev/client3/rdock/2013.1/src/exe/rbdock.cxx#4 $)

>  <Rbt.Library>
libRbt.so (2013.1, Build901 2013/11/27)

>  <Rbt.Parameter_File>
/export/apps/rDock/src/rDock_2013.1_src/data/scripts/dock_solv.prm

>  <Rbt.Receptor>
prm/pocket_docking_5.prm

>  <SCORE>
-8.52039

>  <SCORE.INTER>
-7.49544

>  <SCORE.INTER.CONST>
1

>  <SCORE.INTER.POLAR>
0

>  <SCORE.INTER.ROT>
5

>  <SCORE.INTER.SOLV>
17.3915

>  <SCORE.INTER.VDW>
-17.7275

>  <SCORE.INTER.norm>
-0.749544

>  <SCORE.INTRA>
-1.02494

>  <SCORE.INTRA.DIHEDRAL>
-1.14406

>  <SCORE.INTRA.DIHEDRAL.0>
3.281

>  <SCORE.INTRA.POLAR>
0

>  <SCORE.INTRA.POLAR.0>
0

>  <SCORE.INTRA.REPUL>
0

>  <SCORE.INTRA.REPUL.0>
0

>  <SCORE.INTRA.SOLV>
-0.668108

>  <SCORE.INTRA.SOLV.lig_0>
-31.9458

>  <SCORE.INTRA.VDW>
-0.118861

>  <SCORE.INTRA.VDW.0>
-0.672612

>  <SCORE.INTRA.norm>
-0.102494

>  <SCORE.RESTR>
0

>  <SCORE.RESTR.CAVITY>
0

>  <SCORE.RESTR.norm>
0

>  <SCORE.SYSTEM>
0

>  <SCORE.SYSTEM.CONST>
0

>  <SCORE.SYSTEM.DIHEDRAL>
0

>  <SCORE.SYSTEM.SOLV>
0

>  <SCORE.SYSTEM.norm>
0

>  <SCORE.heavy>
10

>  <SCORE.norm>
-0.852039

>  <RMSD>
5.373

$$$$
ligand
 OpenBabel11021811473D
libRbt.so/2013.1/901 2013/11/27
 10  9  0  0  0  0  0  0  0  0999 V2000
   28.4829   14.5545   18.8693 N   0  0  0  0  0  0  0  0  0  0  0  0
   27.9555   14.4284   20.2574 C   0  0  2  0  0  0  0  0  0  0  0  0
   26.6849   15.2457   20.4438 C   0  0  0  0  0  0  0  0  0  0  0  0
   26.4706   16.2800   19.8098 O   0  0  0  0  0  0  0  0  0  0  0  0
   29.0155   14.8299   21.2806 C   0  0  0  0  0  0  0  0  0  0  0  0
   29.5365   16.2327   21.0698 C   0  0  0  0  0  0  0  0  0  0  0  0
   30.7417   16.5157   21.9263 C   0  0  0  0  0  0  0  0  0  0  0  0
   31.2587   17.9225   21.6818 C   0  0  0  0  0  0  0  0  0  0  0  0
   32.5461   18.1744   22.3801 N   0  0  0  0  0  0  0  0  0  0  0  0
   25.8072   14.8706   21.2227 O   0  0  0  0  0  0  0  0  0  0  0  0
  2  1  1  6  0  0  0
  2  3  1  0  0  0  0
  2  5  1  0  0  0  0
  3  4  1  0  0  0  0
  3 10  1  0  0  0  0
  5  6  1  0  0  0  0
  6  7  1  0  0  0  0
  7  8  1  0  0  0  0
  8  9  1  0  0  0  0
M  END
>  <CHROM.1>
-29.94816355,56.94104122,-169.85240972,179.16100894,-172.71929228,28.81102159
15.91605785,20.89466097,-2.58255870,0.03368325,0.64959368

>  <Name>
ligand

>  <RI>
0

>  <Rbt.Current_Directory>
/home/itssahil/PROJECTS/Mol_Feturizer/New_Systems/rnas/3DIX

>  <Rbt.Executable>
rbdock ($Id: //depot/dev/client3/rdock/2013.1/src/exe/rbdock.cxx#4 $)

>  <Rbt.Library>
libRbt.so (2013.1, Build901 2013/11/27)

>  <Rbt.Parameter_File>
/export/apps/rDock/src/rDock_2013.1_src/data/scripts/dock_solv.prm

>  <Rbt.Receptor>
prm/pocket_docking_3.prm

>  <SCORE>
-9.36155

>  <SCORE.INTER>
-8.54985

>  <SCORE.INTER.CONST>
1

>  <SCORE.INTER.POLAR>
0

>  <SCORE.INTER.ROT>
5

>  <SCORE.INTER.SOLV>
13.6745

>  <SCORE.INTER.VDW>
-17.1914

>  <SCORE.INTER.norm>
-0.854985

>  <SCORE.INTRA>
-0.811697

>  <SCORE.INTRA.DIHEDRAL>
-1.05572

>  <SCORE.INTRA.DIHEDRAL.0>
3.281

>  <SCORE.INTRA.POLAR>
0

>  <SCORE.INTRA.POLAR.0>
0

>  <SCORE.INTRA.REPUL>
0

>  <SCORE.INTRA.REPUL.0>
0

>  <SCORE.INTRA.SOLV>
-0.547856

>  <SCORE.INTRA.SOLV.lig_0>
-31.9458

>  <SCORE.INTRA.VDW>
-0.00991125

>  <SCORE.INTRA.VDW.0>
-0.672612

>  <SCORE.INTRA.norm>
-0.0811697

>  <SCORE.RESTR>
0

>  <SCORE.RESTR.CAVITY>
0

>  <SCORE.RESTR.norm>
0

>  <SCORE.SYSTEM>
0

>  <SCORE.SYSTEM.CONST>
0

>  <SCORE.SYSTEM.DIHEDRAL>
0

>  <SCORE.SYSTEM.SOLV>
0

>  <SCORE.SYSTEM.norm>
0

>  <SCORE.heavy>
10

>  <SCORE.norm>
-0.936155

>  <RMSD>
5.376

$$$$
ligand
 OpenBabel11021811473D
libRbt.so/2013.1/901 2013/11/27
 10  9  0  0  0  0  0  0  0  0999 V2000
   27.8843   15.2591   18.7641 N   0  0  0  0  0  0  0  0  0  0  0  0
   27.8789   14.6287   20.1143 C   0  0  2  0  0  0  0  0  0  0  0  0
   26.7077   15.1226   20.9518 C   0  0  0  0  0  0  0  0  0  0  0  0
   25.5895   15.3109   20.4704 O   0  0  0  0  0  0  0  0  0  0  0  0
   29.2034   14.8727   20.8340 C   0  0  0  0  0  0  0  0  0  0  0  0
   29.5295   16.3405   20.9862 C   0  0  0  0  0  0  0  0  0  0  0  0
   30.8644   16.5504   21.6496 C   0  0  0  0  0  0  0  0  0  0  0  0
   31.1892   18.0303   21.7515 C   0  0  0  0  0  0  0  0  0  0  0  0
   32.5504   18.2676   22.2986 N   0  0  0  0  0  0  0  0  0  0  0  0
   26.8405   15.3188   22.1608 O   0  0  0  0  0  0  0  0  0  0  0  0
  2  1  1  6  0  0  0
  2  3  1  0  0  0  0
  2  5  1  0  0  0  0
  3  4  1  0  0  0  0
  3 10  1  0  0  0  0
  5  6  1  0  0  0  0
  6  7  1  0  0  0  0
  7  8  1  0  0  0  0
  8  9  1  0  0  0  0
M  END
>  <CHROM.1>
39.33628864,57.73488627,-177.74847776,178.21354605,-175.22502089,28.78741990
15.97329985,21.01411034,-2.72404196,0.34527239,1.14181558

>  <Name>
ligand

>  <RI>
0

>  <Rbt.Current_Directory>
/home/itssahil/PROJECTS/Mol_Feturizer/New_Systems/rnas/3DIX

>  <Rbt.Executable>
rbdock ($Id: //depot/dev/client3/rdock/2013.1/src/exe/rbdock.cxx#4 $)

>  <Rbt.Library>
libRbt.so (2013.1, Build901 2013/11/27)

>  <Rbt.Parameter_File>
/export/apps/rDock/src/rDock_2013.1_src/data/scripts/dock_solv.prm

>  <Rbt.Receptor>
prm/pocket_docking_3.prm

>  <SCORE>
-9.40967

>  <SCORE.INTER>
-9.07503

>  <SCORE.INTER.CONST>
1

>  <SCORE.INTER.POLAR>
0

>  <SCORE.INTER.ROT>
5

>  <SCORE.INTER.SOLV>
12.4124

>  <SCORE.INTER.VDW>
-17.1208

>  <SCORE.INTER.norm>
-0.907503

>  <SCORE.INTRA>
-0.334645

>  <SCORE.INTRA.DIHEDRAL>
-1.70738

>  <SCORE.INTRA.DIHEDRAL.0>
3.281

>  <SCORE.INTRA.POLAR>
0

>  <SCORE.INTRA.POLAR.0>
0

>  <SCORE.INTRA.REPUL>
0

>  <SCORE.INTRA.REPUL.0>
0

>  <SCORE.INTRA.SOLV>
-0.617509

>  <SCORE.INTRA.SOLV.lig_0>
-31.9458

>  <SCORE.INTRA.VDW>
0.8278

>  <SCORE.INTRA.VDW.0>
-0.672612

>  <SCORE.INTRA.norm>
-0.0334645

>  <SCORE.RESTR>
0

>  <SCORE.RESTR.CAVITY>
0

>  <SCORE.RESTR.norm>
0

>  <SCORE.SYSTEM>
0

>  <SCORE.SYSTEM.CONST>
0

>  <SCORE.SYSTEM.DIHEDRAL>
0

>  <SCORE.SYSTEM.SOLV>
0

>  <SCORE.SYSTEM.norm>
0

>  <SCORE.heavy>
10

>  <SCORE.norm>
-0.940967

>  <RMSD>
5.378

$$$$
ligand
 OpenBabel11021811473D
libRbt.so/2013.1/901 2013/11/27
 10  9  0  0  0  0  0  0  0  0999 V2000
   28.0687   14.8405   18.4501 N   0  0  0  0  0  0  0  0  0  0  0  0
   27.8938   14.6147   19.9127 C   0  0  2  0  0  0  0  0  0  0  0  0
   26.5435   15.1259   20.3948 C   0  0  0  0  0  0  0  0  0  0  0  0
   25.8309   15.8530   19.7010 O   0  0  0  0  0  0  0  0  0  0  0  0
   29.0321   15.2572   20.7023 C   0  0  0  0  0  0  0  0  0  0  0  0
   29.1153   16.7531   20.5046 C   0  0  0  0  0  0  0  0  0  0  0  0
   30.2775   17.3515   21.2512 C   0  0  0  0  0  0  0  0  0  0  0  0
   31.5936   16.9646   20.6000 C   0  0  0  0  0  0  0  0  0  0  0  0
   32.7627   17.5286   21.3237 N   0  0  0  0  0  0  0  0  0  0  0  0
   26.1048   14.7937   21.4970 O   0  0  0  0  0  0  0  0  0  0  0  0
  2  1  1  6  0  0  0
  2  3  1  0  0  0  0
  2  5  1  0  0  0  0
  3  4  1  0  0  0  0
  3 10  1  0  0  0  0
  5  6  1  0  0  0  0
  6  7  1  0  0  0  0
  7  8  1  0  0  0  0
  8  9  1  0  0  0  0
M  END
>  <CHROM.1>
-12.87637317,60.50006668,-177.78319114,71.16748784,-179.37127191,28.68186768
15.91227879,20.44278333,-2.84580330,0.29754950,1.13871925

>  <Name>
ligand

>  <RI>
0

>  <Rbt.Current_Directory>
/home/itssahil/PROJECTS/Mol_Feturizer/New_Systems/rnas/3DIX

>  <Rbt.Executable>
rbdock ($Id: //depot/dev/client3/rdock/2013.1/src/exe/rbdock.cxx#4 $)

>  <Rbt.Library>
libRbt.so (2013.1, Build901 2013/11/27)

>  <Rbt.Parameter_File>
/export/apps/rDock/src/rDock_2013.1_src/data/scripts/dock_solv.prm

>  <Rbt.Receptor>
prm/pocket_docking_6.prm

>  <SCORE>
-8.65577

>  <SCORE.INTER>
-8.52528

>  <SCORE.INTER.CONST>
1

>  <SCORE.INTER.POLAR>
0

>  <SCORE.INTER.ROT>
5

>  <SCORE.INTER.SOLV>
12.4123

>  <SCORE.INTER.VDW>
-16.7543

>  <SCORE.INTER.norm>
-0.852528

>  <SCORE.INTRA>
-0.130484

>  <SCORE.INTRA.DIHEDRAL>
-1.21268

>  <SCORE.INTRA.DIHEDRAL.0>
3.281

>  <SCORE.INTRA.POLAR>
0

>  <SCORE.INTRA.POLAR.0>
0

>  <SCORE.INTRA.REPUL>
0

>  <SCORE.INTRA.REPUL.0>
0

>  <SCORE.INTRA.SOLV>
-0.351466

>  <SCORE.INTRA.SOLV.lig_0>
-31.9458

>  <SCORE.INTRA.VDW>
0.651589

>  <SCORE.INTRA.VDW.0>
-0.672612

>  <SCORE.INTRA.norm>
-0.0130484

>  <SCORE.RESTR>
0

>  <SCORE.RESTR.CAVITY>
0

>  <SCORE.RESTR.norm>
0

>  <SCORE.SYSTEM>
0

>  <SCORE.SYSTEM.CONST>
0

>  <SCORE.SYSTEM.DIHEDRAL>
0

>  <SCORE.SYSTEM.SOLV>
0

>  <SCORE.SYSTEM.norm>
0

>  <SCORE.heavy>
10

>  <SCORE.norm>
-0.865577

>  <RMSD>
5.378

$$$$
ligand
 OpenBabel11021811473D
libRbt.so/2013.1/901 2013/11/27
 10  9  0  0  0  0  0  0  0  0999 V2000
   27.9232   15.2768   18.7800 N   0  0  0  0  0  0  0  0  0  0  0  0
   27.9018   14.6436   20.1287 C   0  0  2  0  0  0  0  0  0  0  0  0
   26.7143   15.1271   20.9492 C   0  0  0  0  0  0  0  0  0  0  0  0
   25.6019   15.3067   20.4513 O   0  0  0  0  0  0  0  0  0  0  0  0
   29.2133   14.8959   20.8691 C   0  0  0  0  0  0  0  0  0  0  0  0
   29.5241   16.3657   21.0329 C   0  0  0  0  0  0  0  0  0  0  0  0
   30.8627   16.5844   21.6858 C   0  0  0  0  0  0  0  0  0  0  0  0
   31.1839   18.0660   21.7745 C   0  0  0  0  0  0  0  0  0  0  0  0
   32.5502   18.3112   22.3052 N   0  0  0  0  0  0  0  0  0  0  0  0
   26.8276   15.3233   22.1602 O   0  0  0  0  0  0  0  0  0  0  0  0
  2  1  1  6  0  0  0
  2  3  1  0  0  0  0
  2  5  1  0  0  0  0
  3  4  1  0  0  0  0
  3 10  1  0  0  0  0
  5  6  1  0  0  0  0
  6  7  1  0  0  0  0
  7  8  1  0  0  0  0
  8  9  1  0  0  0  0
M  END
>  <CHROM.1>
39.41988879,57.91372827,-176.31908913,177.08608625,-174.98122645,28.79363086
15.99290255,21.02922374,-2.71961441,0.35024641,1.14203061

>  <Name>
ligand

>  <RI>
0

>  <Rbt.Current_Directory>
/home/itssahil/PROJECTS/Mol_Feturizer/New_Systems/rnas/3DIX

>  <Rbt.Executable>
rbdock ($Id: //depot/dev/client3/rdock/2013.1/src/exe/rbdock.cxx#4 $)

>  <Rbt.Library>
libRbt.so (2013.1, Build901 2013/11/27)

>  <Rbt.Parameter_File>
/export/apps/rDock/src/rDock_2013.1_src/data/scripts/dock_solv.prm

>  <Rbt.Receptor>
prm/pocket_docking_7.prm

>  <SCORE>
-9.37543

>  <SCORE.INTER>
-9.08002

>  <SCORE.INTER.CONST>
1

>  <SCORE.INTER.POLAR>
0

>  <SCORE.INTER.ROT>
5

>  <SCORE.INTER.SOLV>
12.4196

>  <SCORE.INTER.VDW>
-17.1265

>  <SCORE.INTER.norm>
-0.908002

>  <SCORE.INTRA>
-0.295414

>  <SCORE.INTRA.DIHEDRAL>
-1.64418

>  <SCORE.INTRA.DIHEDRAL.0>
3.281

>  <SCORE.INTRA.POLAR>
0

>  <SCORE.INTRA.POLAR.0>
0

>  <SCORE.INTRA.REPUL>
0

>  <SCORE.INTRA.REPUL.0>
0

>  <SCORE.INTRA.SOLV>
-0.612154

>  <SCORE.INTRA.SOLV.lig_0>
-31.9458

>  <SCORE.INTRA.VDW>
0.832754

>  <SCORE.INTRA.VDW.0>
-0.672612

>  <SCORE.INTRA.norm>
-0.0295414

>  <SCORE.RESTR>
0

>  <SCORE.RESTR.CAVITY>
0

>  <SCORE.RESTR.norm>
0

>  <SCORE.SYSTEM>
0

>  <SCORE.SYSTEM.CONST>
0

>  <SCORE.SYSTEM.DIHEDRAL>
0

>  <SCORE.SYSTEM.SOLV>
0

>  <SCORE.SYSTEM.norm>
0

>  <SCORE.heavy>
10

>  <SCORE.norm>
-0.937543

>  <RMSD>
5.378

$$$$
ligand
 OpenBabel11021811473D
libRbt.so/2013.1/901 2013/11/27
 10  9  0  0  0  0  0  0  0  0999 V2000
   27.9184   15.3111   18.7798 N   0  0  0  0  0  0  0  0  0  0  0  0
   27.8997   14.6574   20.1189 C   0  0  2  0  0  0  0  0  0  0  0  0
   26.7149   15.1299   20.9497 C   0  0  0  0  0  0  0  0  0  0  0  0
   25.5961   15.2974   20.4619 O   0  0  0  0  0  0  0  0  0  0  0  0
   29.2134   14.8970   20.8596 C   0  0  0  0  0  0  0  0  0  0  0  0
   29.5289   16.3638   21.0403 C   0  0  0  0  0  0  0  0  0  0  0  0
   30.8550   16.5702   21.7223 C   0  0  0  0  0  0  0  0  0  0  0  0
   31.2083   18.0460   21.7789 C   0  0  0  0  0  0  0  0  0  0  0  0
   32.5697   18.2743   22.3294 N   0  0  0  0  0  0  0  0  0  0  0  0
   26.8373   15.3288   22.1593 O   0  0  0  0  0  0  0  0  0  0  0  0
  2  1  1  6  0  0  0
  2  3  1  0  0  0  0
  2  5  1  0  0  0  0
  3  4  1  0  0  0  0
  3 10  1  0  0  0  0
  5  6  1  0  0  0  0
  6  7  1  0  0  0  0
  7  8  1  0  0  0  0
  8  9  1  0  0  0  0
M  END
>  <CHROM.1>
40.62933626,57.70188142,-177.65440644,174.83413223,-174.55231564,28.79754466
15.99025534,21.03569596,-2.72602202,0.35110836,1.16211884

>  <Name>
ligand

>  <RI>
0

>  <Rbt.Current_Directory>
/home/itssahil/PROJECTS/Mol_Feturizer/New_Systems/rnas/3DIX

>  <Rbt.Executable>
rbdock ($Id: //depot/dev/client3/rdock/2013.1/src/exe/rbdock.cxx#4 $)

>  <Rbt.Library>
libRbt.so (2013.1, Build901 2013/11/27)

>  <Rbt.Parameter_File>
/export/apps/rDock/src/rDock_2013.1_src/data/scripts/dock_solv.prm

>  <Rbt.Receptor>
prm/pocket_docking_3.prm

>  <SCORE>
-9.3739

>  <SCORE.INTER>
-9.1283

>  <SCORE.INTER.CONST>
1

>  <SCORE.INTER.POLAR>
0

>  <SCORE.INTER.ROT>
5

>  <SCORE.INTER.SOLV>
12.3758

>  <SCORE.INTER.VDW>
-17.1441

>  <SCORE.INTER.norm>
-0.91283

>  <SCORE.INTRA>
-0.245596

>  <SCORE.INTRA.DIHEDRAL>
-1.57935

>  <SCORE.INTRA.DIHEDRAL.0>
3.281

>  <SCORE.INTRA.POLAR>
0

>  <SCORE.INTRA.POLAR.0>
0

>  <SCORE.INTRA.REPUL>
0

>  <SCORE.INTRA.REPUL.0>
0

>  <SCORE.INTRA.SOLV>
-0.616885

>  <SCORE.INTRA.SOLV.lig_0>
-31.9458

>  <SCORE.INTRA.VDW>
0.852523

>  <SCORE.INTRA.VDW.0>
-0.672612

>  <SCORE.INTRA.norm>
-0.0245596

>  <SCORE.RESTR>
0

>  <SCORE.RESTR.CAVITY>
0

>  <SCORE.RESTR.norm>
0

>  <SCORE.SYSTEM>
0

>  <SCORE.SYSTEM.CONST>
0

>  <SCORE.SYSTEM.DIHEDRAL>
0

>  <SCORE.SYSTEM.SOLV>
0

>  <SCORE.SYSTEM.norm>
0

>  <SCORE.heavy>
10

>  <SCORE.norm>
-0.93739

>  <RMSD>
5.379

$$$$
ligand
 OpenBabel11021811473D
libRbt.so/2013.1/901 2013/11/27
 10  9  0  0  0  0  0  0  0  0999 V2000
   25.6415   15.3490   20.4725 N   0  0  0  0  0  0  0  0  0  0  0  0
   27.1043   15.5235   20.2478 C   0  0  2  0  0  0  0  0  0  0  0  0
   27.4879   15.1918   18.8126 C   0  0  0  0  0  0  0  0  0  0  0  0
   28.1355   15.9691   18.1096 O   0  0  0  0  0  0  0  0  0  0  0  0
   27.9104   14.6820   21.2347 C   0  0  0  0  0  0  0  0  0  0  0  0
   29.4006   14.9055   21.1196 C   0  0  0  0  0  0  0  0  0  0  0  0
   29.8019   16.2667   21.6220 C   0  0  0  0  0  0  0  0  0  0  0  0
   31.3110   16.4316   21.5859 C   0  0  0  0  0  0  0  0  0  0  0  0
   31.7383   17.7744   22.0578 N   0  0  0  0  0  0  0  0  0  0  0  0
   27.1845   14.1050   18.3180 O   0  0  0  0  0  0  0  0  0  0  0  0
  2  1  1  6  0  0  0
  2  3  1  0  0  0  0
  2  5  1  0  0  0  0
  3  4  1  0  0  0  0
  3 10  1  0  0  0  0
  5  6  1  0  0  0  0
  6  7  1  0  0  0  0
  7  8  1  0  0  0  0
  8  9  1  0  0  0  0
M  END
>  <CHROM.1>
127.69227566,-175.53312697,70.42396586,176.08269888,179.15990611,28.57203054
15.61009563,20.32071313,2.60895828,-0.40990274,-1.59282877

>  <Name>
ligand

>  <RI>
0

>  <Rbt.Current_Directory>
/home/itssahil/PROJECTS/Mol_Feturizer/New_Systems/rnas/3DIX

>  <Rbt.Executable>
rbdock ($Id: //depot/dev/client3/rdock/2013.1/src/exe/rbdock.cxx#4 $)

>  <Rbt.Library>
libRbt.so (2013.1, Build901 2013/11/27)

>  <Rbt.Parameter_File>
/export/apps/rDock/src/rDock_2013.1_src/data/scripts/dock_solv.prm

>  <Rbt.Receptor>
prm/blind_docking_80.prm

>  <SCORE>
-8.74724

>  <SCORE.INTER>
-7.51134

>  <SCORE.INTER.CONST>
1

>  <SCORE.INTER.POLAR>
0

>  <SCORE.INTER.ROT>
5

>  <SCORE.INTER.SOLV>
17.3466

>  <SCORE.INTER.VDW>
-17.7231

>  <SCORE.INTER.norm>
-0.751134

>  <SCORE.INTRA>
-1.23589

>  <SCORE.INTRA.DIHEDRAL>
-1.23059

>  <SCORE.INTRA.DIHEDRAL.0>
3.281

>  <SCORE.INTRA.POLAR>
0

>  <SCORE.INTRA.POLAR.0>
0

>  <SCORE.INTRA.REPUL>
0

>  <SCORE.INTRA.REPUL.0>
0

>  <SCORE.INTRA.SOLV>
-1.33987

>  <SCORE.INTRA.SOLV.lig_0>
-31.9458

>  <SCORE.INTRA.VDW>
0.0493354

>  <SCORE.INTRA.VDW.0>
-0.672612

>  <SCORE.INTRA.norm>
-0.123589

>  <SCORE.RESTR>
0

>  <SCORE.RESTR.CAVITY>
0

>  <SCORE.RESTR.norm>
0

>  <SCORE.SYSTEM>
0

>  <SCORE.SYSTEM.CONST>
0

>  <SCORE.SYSTEM.DIHEDRAL>
0

>  <SCORE.SYSTEM.SOLV>
0

>  <SCORE.SYSTEM.norm>
0

>  <SCORE.heavy>
10

>  <SCORE.norm>
-0.874724

>  <RMSD>
5.380

$$$$
ligand
 OpenBabel11021811473D
libRbt.so/2013.1/901 2013/11/27
 10  9  0  0  0  0  0  0  0  0999 V2000
   27.9183   14.1923   18.5248 N   0  0  0  0  0  0  0  0  0  0  0  0
   28.0204   14.6113   19.9513 C   0  0  2  0  0  0  0  0  0  0  0  0
   26.6818   15.1063   20.4807 C   0  0  0  0  0  0  0  0  0  0  0  0
   26.3211   14.9082   21.6418 O   0  0  0  0  0  0  0  0  0  0  0  0
   29.1026   15.6736   20.1301 C   0  0  0  0  0  0  0  0  0  0  0  0
   29.3626   16.0116   21.5800 C   0  0  0  0  0  0  0  0  0  0  0  0
   30.3978   17.0950   21.7242 C   0  0  0  0  0  0  0  0  0  0  0  0
   31.7760   16.5768   21.3525 C   0  0  0  0  0  0  0  0  0  0  0  0
   32.8148   17.6357   21.4434 N   0  0  0  0  0  0  0  0  0  0  0  0
   25.9250   15.7581   19.7594 O   0  0  0  0  0  0  0  0  0  0  0  0
  2  1  1  6  0  0  0
  2  3  1  0  0  0  0
  2  5  1  0  0  0  0
  3  4  1  0  0  0  0
  3 10  1  0  0  0  0
  5  6  1  0  0  0  0
  6  7  1  0  0  0  0
  7  8  1  0  0  0  0
  8  9  1  0  0  0  0
M  END
>  <CHROM.1>
144.66814213,-173.03253444,-177.98450505,-70.70717861,178.19052626,28.79239054
15.76247479,20.66777974,-2.74965089,0.23252381,1.08381728

>  <Name>
ligand

>  <RI>
0

>  <Rbt.Current_Directory>
/home/itssahil/PROJECTS/Mol_Feturizer/New_Systems/rnas/3DIX

>  <Rbt.Executable>
rbdock ($Id: //depot/dev/client3/rdock/2013.1/src/exe/rbdock.cxx#4 $)

>  <Rbt.Library>
libRbt.so (2013.1, Build901 2013/11/27)

>  <Rbt.Parameter_File>
/export/apps/rDock/src/rDock_2013.1_src/data/scripts/dock_solv.prm

>  <Rbt.Receptor>
prm/pocket_docking_3.prm

>  <SCORE>
-8.93714

>  <SCORE.INTER>
-8.20096

>  <SCORE.INTER.CONST>
1

>  <SCORE.INTER.POLAR>
0

>  <SCORE.INTER.ROT>
5

>  <SCORE.INTER.SOLV>
13.9938

>  <SCORE.INTER.VDW>
-17.0652

>  <SCORE.INTER.norm>
-0.820096

>  <SCORE.INTRA>
-0.736179

>  <SCORE.INTRA.DIHEDRAL>
-1.18001

>  <SCORE.INTRA.DIHEDRAL.0>
3.281

>  <SCORE.INTRA.POLAR>
0

>  <SCORE.INTRA.POLAR.0>
0

>  <SCORE.INTRA.REPUL>
0

>  <SCORE.INTRA.REPUL.0>
0

>  <SCORE.INTRA.SOLV>
-1.31541

>  <SCORE.INTRA.SOLV.lig_0>
-31.9458

>  <SCORE.INTRA.VDW>
0.511534

>  <SCORE.INTRA.VDW.0>
-0.672612

>  <SCORE.INTRA.norm>
-0.0736179

>  <SCORE.RESTR>
0

>  <SCORE.RESTR.CAVITY>
0

>  <SCORE.RESTR.norm>
0

>  <SCORE.SYSTEM>
0

>  <SCORE.SYSTEM.CONST>
0

>  <SCORE.SYSTEM.DIHEDRAL>
0

>  <SCORE.SYSTEM.SOLV>
0

>  <SCORE.SYSTEM.norm>
0

>  <SCORE.heavy>
10

>  <SCORE.norm>
-0.893714

>  <RMSD>
5.380

$$$$
ligand
 OpenBabel11021811473D
libRbt.so/2013.1/901 2013/11/27
 10  9  0  0  0  0  0  0  0  0999 V2000
   28.4113   14.8781   18.6890 N   0  0  0  0  0  0  0  0  0  0  0  0
   27.9749   14.4985   20.0623 C   0  0  2  0  0  0  0  0  0  0  0  0
   26.6590   15.1691   20.4309 C   0  0  0  0  0  0  0  0  0  0  0  0
   26.0373   14.8774   21.4537 O   0  0  0  0  0  0  0  0  0  0  0  0
   29.0582   14.8263   21.0874 C   0  0  0  0  0  0  0  0  0  0  0  0
   29.4767   16.2781   21.0586 C   0  0  0  0  0  0  0  0  0  0  0  0
   30.7275   16.5151   21.8621 C   0  0  0  0  0  0  0  0  0  0  0  0
   31.1905   17.9550   21.7271 C   0  0  0  0  0  0  0  0  0  0  0  0
   32.5292   18.1713   22.3350 N   0  0  0  0  0  0  0  0  0  0  0  0
   26.1893   16.0599   19.7212 O   0  0  0  0  0  0  0  0  0  0  0  0
  2  1  1  6  0  0  0
  2  3  1  0  0  0  0
  2  5  1  0  0  0  0
  3  4  1  0  0  0  0
  3 10  1  0  0  0  0
  5  6  1  0  0  0  0
  6  7  1  0  0  0  0
  7  8  1  0  0  0  0
  8  9  1  0  0  0  0
M  END
>  <CHROM.1>
171.39473496,55.90892216,-168.13766655,175.43147396,-171.26959878,28.78610675
15.93093713,20.84714221,-2.62241621,0.22660664,0.98560214

>  <Name>
ligand

>  <RI>
0

>  <Rbt.Current_Directory>
/home/itssahil/PROJECTS/Mol_Feturizer/New_Systems/rnas/3DIX

>  <Rbt.Executable>
rbdock ($Id: //depot/dev/client3/rdock/2013.1/src/exe/rbdock.cxx#4 $)

>  <Rbt.Library>
libRbt.so (2013.1, Build901 2013/11/27)

>  <Rbt.Parameter_File>
/export/apps/rDock/src/rDock_2013.1_src/data/scripts/dock_solv.prm

>  <Rbt.Receptor>
prm/pocket_docking_4.prm

>  <SCORE>
-9.17782

>  <SCORE.INTER>
-8.60849

>  <SCORE.INTER.CONST>
1

>  <SCORE.INTER.POLAR>
0

>  <SCORE.INTER.ROT>
5

>  <SCORE.INTER.SOLV>
12.9713

>  <SCORE.INTER.VDW>
-16.9961

>  <SCORE.INTER.norm>
-0.860849

>  <SCORE.INTRA>
-0.569333

>  <SCORE.INTRA.DIHEDRAL>
-0.808323

>  <SCORE.INTRA.DIHEDRAL.0>
3.281

>  <SCORE.INTRA.POLAR>
0

>  <SCORE.INTRA.POLAR.0>
0

>  <SCORE.INTRA.REPUL>
0

>  <SCORE.INTRA.REPUL.0>
0

>  <SCORE.INTRA.SOLV>
-0.511798

>  <SCORE.INTRA.SOLV.lig_0>
-31.9458

>  <SCORE.INTRA.VDW>
0.0907272

>  <SCORE.INTRA.VDW.0>
-0.672612

>  <SCORE.INTRA.norm>
-0.0569333

>  <SCORE.RESTR>
0

>  <SCORE.RESTR.CAVITY>
0

>  <SCORE.RESTR.norm>
0

>  <SCORE.SYSTEM>
0

>  <SCORE.SYSTEM.CONST>
0

>  <SCORE.SYSTEM.DIHEDRAL>
0

>  <SCORE.SYSTEM.SOLV>
0

>  <SCORE.SYSTEM.norm>
0

>  <SCORE.heavy>
10

>  <SCORE.norm>
-0.917782

>  <RMSD>
5.380

$$$$
ligand
 OpenBabel11021811473D
libRbt.so/2013.1/901 2013/11/27
 10  9  0  0  0  0  0  0  0  0999 V2000
   28.0285   15.1095   18.8359 N   0  0  0  0  0  0  0  0  0  0  0  0
   27.9301   14.5607   20.2178 C   0  0  2  0  0  0  0  0  0  0  0  0
   26.7160   15.1155   20.9493 C   0  0  0  0  0  0  0  0  0  0  0  0
   25.6438   15.3226   20.3790 O   0  0  0  0  0  0  0  0  0  0  0  0
   29.2105   14.8335   21.0040 C   0  0  0  0  0  0  0  0  0  0  0  0
   29.5476   16.3042   21.0889 C   0  0  0  0  0  0  0  0  0  0  0  0
   30.8699   16.5359   21.7701 C   0  0  0  0  0  0  0  0  0  0  0  0
   31.2168   18.0142   21.7857 C   0  0  0  0  0  0  0  0  0  0  0  0
   32.5778   18.2635   22.3279 N   0  0  0  0  0  0  0  0  0  0  0  0
   26.7639   15.3450   22.1588 O   0  0  0  0  0  0  0  0  0  0  0  0
  2  1  1  6  0  0  0
  2  3  1  0  0  0  0
  2  5  1  0  0  0  0
  3  4  1  0  0  0  0
  3 10  1  0  0  0  0
  5  6  1  0  0  0  0
  6  7  1  0  0  0  0
  7  8  1  0  0  0  0
  8  9  1  0  0  0  0
M  END
>  <CHROM.1>
37.19239724,57.68462755,-175.32860209,177.36141021,-174.23084725,28.81315143
15.94493462,21.06535083,-2.69629368,0.31702066,1.07926520

>  <Name>
ligand

>  <RI>
0

>  <Rbt.Current_Directory>
/home/itssahil/PROJECTS/Mol_Feturizer/New_Systems/rnas/3DIX

>  <Rbt.Executable>
rbdock ($Id: //depot/dev/client3/rdock/2013.1/src/exe/rbdock.cxx#4 $)

>  <Rbt.Library>
libRbt.so (2013.1, Build901 2013/11/27)

>  <Rbt.Parameter_File>
/export/apps/rDock/src/rDock_2013.1_src/data/scripts/dock_solv.prm

>  <Rbt.Receptor>
prm/pocket_docking_7.prm

>  <SCORE>
-9.34016

>  <SCORE.INTER>
-9.03356

>  <SCORE.INTER.CONST>
1

>  <SCORE.INTER.POLAR>
0

>  <SCORE.INTER.ROT>
5

>  <SCORE.INTER.SOLV>
12.4631

>  <SCORE.INTER.VDW>
-17.1101

>  <SCORE.INTER.norm>
-0.903356

>  <SCORE.INTRA>
-0.306595

>  <SCORE.INTRA.DIHEDRAL>
-1.58422

>  <SCORE.INTRA.DIHEDRAL.0>
3.281

>  <SCORE.INTRA.POLAR>
0

>  <SCORE.INTRA.POLAR.0>
0

>  <SCORE.INTRA.REPUL>
0

>  <SCORE.INTRA.REPUL.0>
0

>  <SCORE.INTRA.SOLV>
-0.602108

>  <SCORE.INTRA.SOLV.lig_0>
-31.9458

>  <SCORE.INTRA.VDW>
0.786571

>  <SCORE.INTRA.VDW.0>
-0.672612

>  <SCORE.INTRA.norm>
-0.0306595

>  <SCORE.RESTR>
0

>  <SCORE.RESTR.CAVITY>
0

>  <SCORE.RESTR.norm>
0

>  <SCORE.SYSTEM>
0

>  <SCORE.SYSTEM.CONST>
0

>  <SCORE.SYSTEM.DIHEDRAL>
0

>  <SCORE.SYSTEM.SOLV>
0

>  <SCORE.SYSTEM.norm>
0

>  <SCORE.heavy>
10

>  <SCORE.norm>
-0.934016

>  <RMSD>
5.380

$$$$
ligand
 OpenBabel11021811473D
libRbt.so/2013.1/901 2013/11/27
 10  9  0  0  0  0  0  0  0  0999 V2000
   27.9702   15.2257   18.8597 N   0  0  0  0  0  0  0  0  0  0  0  0
   27.9228   14.5956   20.2093 C   0  0  2  0  0  0  0  0  0  0  0  0
   26.7318   15.0973   21.0135 C   0  0  0  0  0  0  0  0  0  0  0  0
   25.6149   15.2396   20.5135 O   0  0  0  0  0  0  0  0  0  0  0  0
   29.2282   14.8313   20.9659 C   0  0  0  0  0  0  0  0  0  0  0  0
   29.5706   16.2964   21.1078 C   0  0  0  0  0  0  0  0  0  0  0  0
   30.9258   16.4955   21.7323 C   0  0  0  0  0  0  0  0  0  0  0  0
   31.2761   17.9714   21.8016 C   0  0  0  0  0  0  0  0  0  0  0  0
   32.6606   18.1951   22.2931 N   0  0  0  0  0  0  0  0  0  0  0  0
   26.8470   15.3471   22.2144 O   0  0  0  0  0  0  0  0  0  0  0  0
  2  1  1  6  0  0  0
  2  3  1  0  0  0  0
  2  5  1  0  0  0  0
  3  4  1  0  0  0  0
  3 10  1  0  0  0  0
  5  6  1  0  0  0  0
  6  7  1  0  0  0  0
  7  8  1  0  0  0  0
  8  9  1  0  0  0  0
M  END
>  <CHROM.1>
42.43245649,56.81753707,-174.23990220,177.20669066,-174.53275133,28.83788962
15.93290199,21.08640559,-2.73441231,0.33596558,1.13478813

>  <Name>
ligand

>  <RI>
0

>  <Rbt.Current_Directory>
/home/itssahil/PROJECTS/Mol_Feturizer/New_Systems/rnas/3DIX

>  <Rbt.Executable>
rbdock ($Id: //depot/dev/client3/rdock/2013.1/src/exe/rbdock.cxx#4 $)

>  <Rbt.Library>
libRbt.so (2013.1, Build901 2013/11/27)

>  <Rbt.Parameter_File>
/export/apps/rDock/src/rDock_2013.1_src/data/scripts/dock_solv.prm

>  <Rbt.Receptor>
prm/pocket_docking_3.prm

>  <SCORE>
-9.28852

>  <SCORE.INTER>
-9.11311

>  <SCORE.INTER.CONST>
1

>  <SCORE.INTER.POLAR>
0

>  <SCORE.INTER.ROT>
5

>  <SCORE.INTER.SOLV>
12.3411

>  <SCORE.INTER.VDW>
-17.1225

>  <SCORE.INTER.norm>
-0.911311

>  <SCORE.INTRA>
-0.175411

>  <SCORE.INTRA.DIHEDRAL>
-1.51793

>  <SCORE.INTRA.DIHEDRAL.0>
3.281

>  <SCORE.INTRA.POLAR>
0

>  <SCORE.INTRA.POLAR.0>
0

>  <SCORE.INTRA.REPUL>
0

>  <SCORE.INTRA.REPUL.0>
0

>  <SCORE.INTRA.SOLV>
-0.588405

>  <SCORE.INTRA.SOLV.lig_0>
-31.9458

>  <SCORE.INTRA.VDW>
0.877758

>  <SCORE.INTRA.VDW.0>
-0.672612

>  <SCORE.INTRA.norm>
-0.0175411

>  <SCORE.RESTR>
0

>  <SCORE.RESTR.CAVITY>
0

>  <SCORE.RESTR.norm>
0

>  <SCORE.SYSTEM>
0

>  <SCORE.SYSTEM.CONST>
0

>  <SCORE.SYSTEM.DIHEDRAL>
0

>  <SCORE.SYSTEM.SOLV>
0

>  <SCORE.SYSTEM.norm>
0

>  <SCORE.heavy>
10

>  <SCORE.norm>
-0.928852

>  <RMSD>
5.381

$$$$
ligand
 OpenBabel11021811473D
libRbt.so/2013.1/901 2013/11/27
 10  9  0  0  0  0  0  0  0  0999 V2000
   26.8159   16.4007   19.5943 N   0  0  0  0  0  0  0  0  0  0  0  0
   27.9870   15.6309   19.0878 C   0  0  2  0  0  0  0  0  0  0  0  0
   27.6958   15.0086   17.7295 C   0  0  0  0  0  0  0  0  0  0  0  0
   26.9375   14.0468   17.5969 O   0  0  0  0  0  0  0  0  0  0  0  0
   28.4136   14.5647   20.0943 C   0  0  0  0  0  0  0  0  0  0  0  0
   29.2397   15.1233   21.2299 C   0  0  0  0  0  0  0  0  0  0  0  0
   30.6069   15.5519   20.7681 C   0  0  0  0  0  0  0  0  0  0  0  0
   31.3795   16.2029   21.9017 C   0  0  0  0  0  0  0  0  0  0  0  0
   30.8010   17.5152   22.2913 N   0  0  0  0  0  0  0  0  0  0  0  0
   28.1930   15.4790   16.7051 O   0  0  0  0  0  0  0  0  0  0  0  0
  2  1  1  1  0  0  0
  2  3  1  0  0  0  0
  2  5  1  0  0  0  0
  3  4  1  0  0  0  0
  3 10  1  0  0  0  0
  5  6  1  0  0  0  0
  6  7  1  0  0  0  0
  7  8  1  0  0  0  0
  8  9  1  0  0  0  0
M  END
>  <CHROM.1>
-72.43455363,-79.57638682,-70.03922453,175.80830882,-68.58941584,28.79398812
15.53714773,19.66081201,2.21860794,0.04587442,-1.94312587

>  <Name>
ligand

>  <RI>
0

>  <Rbt.Current_Directory>
/home/itssahil/PROJECTS/Mol_Feturizer/New_Systems/rnas/3DIX

>  <Rbt.Executable>
rbdock ($Id: //depot/dev/client3/rdock/2013.1/src/exe/rbdock.cxx#4 $)

>  <Rbt.Library>
libRbt.so (2013.1, Build901 2013/11/27)

>  <Rbt.Parameter_File>
/export/apps/rDock/src/rDock_2013.1_src/data/scripts/dock_solv.prm

>  <Rbt.Receptor>
prm/blind_docking_80.prm

>  <SCORE>
-7.74829

>  <SCORE.INTER>
-8.19182

>  <SCORE.INTER.CONST>
1

>  <SCORE.INTER.POLAR>
0

>  <SCORE.INTER.ROT>
5

>  <SCORE.INTER.SOLV>
15.1967

>  <SCORE.INTER.VDW>
-17.4601

>  <SCORE.INTER.norm>
-0.819182

>  <SCORE.INTRA>
0.443529

>  <SCORE.INTRA.DIHEDRAL>
0.348272

>  <SCORE.INTRA.DIHEDRAL.0>
3.281

>  <SCORE.INTRA.POLAR>
0

>  <SCORE.INTRA.POLAR.0>
0

>  <SCORE.INTRA.REPUL>
0

>  <SCORE.INTRA.REPUL.0>
0

>  <SCORE.INTRA.SOLV>
0.348395

>  <SCORE.INTRA.SOLV.lig_0>
-31.9458

>  <SCORE.INTRA.VDW>
0.0951955

>  <SCORE.INTRA.VDW.0>
-0.672612

>  <SCORE.INTRA.norm>
0.0443529

>  <SCORE.RESTR>
0

>  <SCORE.RESTR.CAVITY>
0

>  <SCORE.RESTR.norm>
0

>  <SCORE.SYSTEM>
0

>  <SCORE.SYSTEM.CONST>
0

>  <SCORE.SYSTEM.DIHEDRAL>
0

>  <SCORE.SYSTEM.SOLV>
0

>  <SCORE.SYSTEM.norm>
0

>  <SCORE.heavy>
10

>  <SCORE.norm>
-0.774829

>  <RMSD>
5.382

$$$$
ligand
 OpenBabel11021811473D
libRbt.so/2013.1/901 2013/11/27
 10  9  0  0  0  0  0  0  0  0999 V2000
   28.3651   14.9268   18.6879 N   0  0  0  0  0  0  0  0  0  0  0  0
   27.9564   14.5152   20.0606 C   0  0  2  0  0  0  0  0  0  0  0  0
   26.6483   15.1767   20.4711 C   0  0  0  0  0  0  0  0  0  0  0  0
   26.0936   14.9261   21.5421 O   0  0  0  0  0  0  0  0  0  0  0  0
   29.0602   14.8192   21.0711 C   0  0  0  0  0  0  0  0  0  0  0  0
   29.4591   16.2768   21.0871 C   0  0  0  0  0  0  0  0  0  0  0  0
   30.7277   16.5003   21.8661 C   0  0  0  0  0  0  0  0  0  0  0  0
   31.1846   17.9438   21.7499 C   0  0  0  0  0  0  0  0  0  0  0  0
   32.5241   18.1570   22.3573 N   0  0  0  0  0  0  0  0  0  0  0  0
   26.1176   16.0194   19.7458 O   0  0  0  0  0  0  0  0  0  0  0  0
  2  1  1  6  0  0  0
  2  3  1  0  0  0  0
  2  5  1  0  0  0  0
  3  4  1  0  0  0  0
  3 10  1  0  0  0  0
  5  6  1  0  0  0  0
  6  7  1  0  0  0  0
  7  8  1  0  0  0  0
  8  9  1  0  0  0  0
M  END
>  <CHROM.1>
176.37351572,57.06109242,-168.00633152,174.21132245,-172.51150302,28.77457388
15.93407176,20.86920129,-2.63443142,0.24280985,1.02654322

>  <Name>
ligand

>  <RI>
0

>  <Rbt.Current_Directory>
/home/itssahil/PROJECTS/Mol_Feturizer/New_Systems/rnas/3DIX

>  <Rbt.Executable>
rbdock ($Id: //depot/dev/client3/rdock/2013.1/src/exe/rbdock.cxx#4 $)

>  <Rbt.Library>
libRbt.so (2013.1, Build901 2013/11/27)

>  <Rbt.Parameter_File>
/export/apps/rDock/src/rDock_2013.1_src/data/scripts/dock_solv.prm

>  <Rbt.Receptor>
prm/pocket_docking_3.prm

>  <SCORE>
-9.15464

>  <SCORE.INTER>
-8.60838

>  <SCORE.INTER.CONST>
1

>  <SCORE.INTER.POLAR>
0

>  <SCORE.INTER.ROT>
5

>  <SCORE.INTER.SOLV>
12.8955

>  <SCORE.INTER.VDW>
-16.9708

>  <SCORE.INTER.norm>
-0.860838

>  <SCORE.INTRA>
-0.54626

>  <SCORE.INTRA.DIHEDRAL>
-0.835485

>  <SCORE.INTRA.DIHEDRAL.0>
3.281

>  <SCORE.INTRA.POLAR>
0

>  <SCORE.INTRA.POLAR.0>
0

>  <SCORE.INTRA.REPUL>
0

>  <SCORE.INTRA.REPUL.0>
0

>  <SCORE.INTRA.SOLV>
-0.524693

>  <SCORE.INTRA.SOLV.lig_0>
-31.9458

>  <SCORE.INTRA.VDW>
0.133829

>  <SCORE.INTRA.VDW.0>
-0.672612

>  <SCORE.INTRA.norm>
-0.054626

>  <SCORE.RESTR>
0

>  <SCORE.RESTR.CAVITY>
0

>  <SCORE.RESTR.norm>
0

>  <SCORE.SYSTEM>
0

>  <SCORE.SYSTEM.CONST>
0

>  <SCORE.SYSTEM.DIHEDRAL>
0

>  <SCORE.SYSTEM.SOLV>
0

>  <SCORE.SYSTEM.norm>
0

>  <SCORE.heavy>
10

>  <SCORE.norm>
-0.915464

>  <RMSD>
5.382

$$$$
ligand
 OpenBabel11021811473D
libRbt.so/2013.1/901 2013/11/27
 10  9  0  0  0  0  0  0  0  0999 V2000
   28.4980   14.8327   18.9104 N   0  0  0  0  0  0  0  0  0  0  0  0
   28.1452   15.4314   20.2286 C   0  0  2  0  0  0  0  0  0  0  0  0
   26.6514   15.3274   20.5025 C   0  0  0  0  0  0  0  0  0  0  0  0
   26.2068   14.8296   21.5380 O   0  0  0  0  0  0  0  0  0  0  0  0
   28.6132   16.8827   20.3097 C   0  0  0  0  0  0  0  0  0  0  0  0
   30.1183   17.0153   20.3438 C   0  0  0  0  0  0  0  0  0  0  0  0
   30.7014   16.4392   21.6065 C   0  0  0  0  0  0  0  0  0  0  0  0
   32.1956   16.7008   21.6786 C   0  0  0  0  0  0  0  0  0  0  0  0
   32.5024   18.1430   21.8644 N   0  0  0  0  0  0  0  0  0  0  0  0
   25.8339   15.7757   19.6972 O   0  0  0  0  0  0  0  0  0  0  0  0
  2  1  1  6  0  0  0
  2  3  1  0  0  0  0
  2  5  1  0  0  0  0
  3  4  1  0  0  0  0
  3 10  1  0  0  0  0
  5  6  1  0  0  0  0
  6  7  1  0  0  0  0
  7  8  1  0  0  0  0
  8  9  1  0  0  0  0
M  END
>  <CHROM.1>
126.84989496,-68.20145879,-66.20376040,-174.63191031,68.30841610,28.90288964
16.13094850,20.67212979,-2.87713090,0.32919392,1.44021755

>  <Name>
ligand

>  <RI>
0

>  <Rbt.Current_Directory>
/home/itssahil/PROJECTS/Mol_Feturizer/New_Systems/rnas/3DIX

>  <Rbt.Executable>
rbdock ($Id: //depot/dev/client3/rdock/2013.1/src/exe/rbdock.cxx#4 $)

>  <Rbt.Library>
libRbt.so (2013.1, Build901 2013/11/27)

>  <Rbt.Parameter_File>
/export/apps/rDock/src/rDock_2013.1_src/data/scripts/dock_solv.prm

>  <Rbt.Receptor>
prm/blind_docking_100.prm

>  <SCORE>
-8.70194

>  <SCORE.INTER>
-8.70562

>  <SCORE.INTER.CONST>
1

>  <SCORE.INTER.POLAR>
0

>  <SCORE.INTER.ROT>
5

>  <SCORE.INTER.SOLV>
11.3656

>  <SCORE.INTER.VDW>
-16.5256

>  <SCORE.INTER.norm>
-0.870562

>  <SCORE.INTRA>
0.00367462

>  <SCORE.INTRA.DIHEDRAL>
-0.992724

>  <SCORE.INTRA.DIHEDRAL.0>
3.281

>  <SCORE.INTRA.POLAR>
0

>  <SCORE.INTRA.POLAR.0>
0

>  <SCORE.INTRA.REPUL>
0

>  <SCORE.INTRA.REPUL.0>
0

>  <SCORE.INTRA.SOLV>
0.615176

>  <SCORE.INTRA.SOLV.lig_0>
-31.9458

>  <SCORE.INTRA.VDW>
0.192449

>  <SCORE.INTRA.VDW.0>
-0.672612

>  <SCORE.INTRA.norm>
0.000367462

>  <SCORE.RESTR>
0

>  <SCORE.RESTR.CAVITY>
0

>  <SCORE.RESTR.norm>
0

>  <SCORE.SYSTEM>
0

>  <SCORE.SYSTEM.CONST>
0

>  <SCORE.SYSTEM.DIHEDRAL>
0

>  <SCORE.SYSTEM.SOLV>
0

>  <SCORE.SYSTEM.norm>
0

>  <SCORE.heavy>
10

>  <SCORE.norm>
-0.870194

>  <RMSD>
5.386

$$$$
ligand
 OpenBabel11021811473D
libRbt.so/2013.1/901 2013/11/27
 10  9  0  0  0  0  0  0  0  0999 V2000
   28.5289   15.8454   19.0498 N   0  0  0  0  0  0  0  0  0  0  0  0
   28.1147   15.2152   20.3351 C   0  0  2  0  0  0  0  0  0  0  0  0
   26.6032   15.2561   20.5105 C   0  0  0  0  0  0  0  0  0  0  0  0
   26.0413   14.7507   21.4834 O   0  0  0  0  0  0  0  0  0  0  0  0
   28.8177   15.8783   21.5174 C   0  0  0  0  0  0  0  0  0  0  0  0
   30.3242   15.8056   21.4235 C   0  0  0  0  0  0  0  0  0  0  0  0
   30.8661   16.7567   20.3900 C   0  0  0  0  0  0  0  0  0  0  0  0
   32.3831   16.7009   20.3486 C   0  0  0  0  0  0  0  0  0  0  0  0
   32.9971   17.2649   21.5789 N   0  0  0  0  0  0  0  0  0  0  0  0
   25.8922   15.8342   19.6871 O   0  0  0  0  0  0  0  0  0  0  0  0
  2  1  1  6  0  0  0
  2  3  1  0  0  0  0
  2  5  1  0  0  0  0
  3  4  1  0  0  0  0
  3 10  1  0  0  0  0
  5  6  1  0  0  0  0
  6  7  1  0  0  0  0
  7  8  1  0  0  0  0
  8  9  1  0  0  0  0
M  END
>  <CHROM.1>
177.56788059,-58.52586499,73.96487087,177.99946401,-68.78403226,29.01175638
15.92752726,20.63506067,-3.11888283,0.27300583,1.80172336

>  <Name>
ligand

>  <RI>
0

>  <Rbt.Current_Directory>
/home/itssahil/PROJECTS/Mol_Feturizer/New_Systems/rnas/3DIX

>  <Rbt.Executable>
rbdock ($Id: //depot/dev/client3/rdock/2013.1/src/exe/rbdock.cxx#4 $)

>  <Rbt.Library>
libRbt.so (2013.1, Build901 2013/11/27)

>  <Rbt.Parameter_File>
/export/apps/rDock/src/rDock_2013.1_src/data/scripts/dock_solv.prm

>  <Rbt.Receptor>
prm/pocket_docking_5.prm

>  <SCORE>
-8.01429

>  <SCORE.INTER>
-9.31223

>  <SCORE.INTER.CONST>
1

>  <SCORE.INTER.POLAR>
0

>  <SCORE.INTER.ROT>
5

>  <SCORE.INTER.SOLV>
11.4783

>  <SCORE.INTER.VDW>
-16.9676

>  <SCORE.INTER.norm>
-0.931223

>  <SCORE.INTRA>
1.29793

>  <SCORE.INTRA.DIHEDRAL>
-0.71291

>  <SCORE.INTRA.DIHEDRAL.0>
3.281

>  <SCORE.INTRA.POLAR>
0

>  <SCORE.INTRA.POLAR.0>
0

>  <SCORE.INTRA.REPUL>
0

>  <SCORE.INTRA.REPUL.0>
0

>  <SCORE.INTRA.SOLV>
1.79247

>  <SCORE.INTRA.SOLV.lig_0>
-31.9458

>  <SCORE.INTRA.VDW>
0.758154

>  <SCORE.INTRA.VDW.0>
-0.672612

>  <SCORE.INTRA.norm>
0.129793

>  <SCORE.RESTR>
0

>  <SCORE.RESTR.CAVITY>
0

>  <SCORE.RESTR.norm>
0

>  <SCORE.SYSTEM>
0

>  <SCORE.SYSTEM.CONST>
0

>  <SCORE.SYSTEM.DIHEDRAL>
0

>  <SCORE.SYSTEM.SOLV>
0

>  <SCORE.SYSTEM.norm>
0

>  <SCORE.heavy>
10

>  <SCORE.norm>
-0.801429

>  <RMSD>
5.386

$$$$
ligand
 OpenBabel11021811473D
libRbt.so/2013.1/901 2013/11/27
 10  9  0  0  0  0  0  0  0  0999 V2000
   27.0610   14.2263   18.2360 N   0  0  0  0  0  0  0  0  0  0  0  0
   27.6594   14.6326   19.5389 C   0  0  2  0  0  0  0  0  0  0  0  0
   26.5845   15.0043   20.5506 C   0  0  0  0  0  0  0  0  0  0  0  0
   26.7471   14.8621   21.7634 O   0  0  0  0  0  0  0  0  0  0  0  0
   28.6479   15.7809   19.3489 C   0  0  0  0  0  0  0  0  0  0  0  0
   29.3862   16.1388   20.6181 C   0  0  0  0  0  0  0  0  0  0  0  0
   30.2952   17.3225   20.4209 C   0  0  0  0  0  0  0  0  0  0  0  0
   31.0402   17.6498   21.7029 C   0  0  0  0  0  0  0  0  0  0  0  0
   31.9605   16.5560   22.1096 N   0  0  0  0  0  0  0  0  0  0  0  0
   25.5179   15.4965   20.1794 O   0  0  0  0  0  0  0  0  0  0  0  0
  2  1  1  6  0  0  0
  2  3  1  0  0  0  0
  2  5  1  0  0  0  0
  3  4  1  0  0  0  0
  3 10  1  0  0  0  0
  5  6  1  0  0  0  0
  6  7  1  0  0  0  0
  7  8  1  0  0  0  0
  8  9  1  0  0  0  0
M  END
>  <CHROM.1>
150.84406373,-174.23080378,-176.77413666,-179.17037659,64.39971365,28.45694693
15.76966046,20.46661446,-2.74497340,0.36104604,1.32951089

>  <Name>
ligand

>  <RI>
0

>  <Rbt.Current_Directory>
/home/itssahil/PROJECTS/Mol_Feturizer/New_Systems/rnas/3DIX

>  <Rbt.Executable>
rbdock ($Id: //depot/dev/client3/rdock/2013.1/src/exe/rbdock.cxx#4 $)

>  <Rbt.Library>
libRbt.so (2013.1, Build901 2013/11/27)

>  <Rbt.Parameter_File>
/export/apps/rDock/src/rDock_2013.1_src/data/scripts/dock_solv.prm

>  <Rbt.Receptor>
prm/pocket_docking_3.prm

>  <SCORE>
-8.0877

>  <SCORE.INTER>
-7.00023

>  <SCORE.INTER.CONST>
1

>  <SCORE.INTER.POLAR>
0

>  <SCORE.INTER.ROT>
5

>  <SCORE.INTER.SOLV>
16.318

>  <SCORE.INTER.VDW>
-17.0395

>  <SCORE.INTER.norm>
-0.700023

>  <SCORE.INTRA>
-1.08747

>  <SCORE.INTRA.DIHEDRAL>
-1.61984

>  <SCORE.INTRA.DIHEDRAL.0>
3.281

>  <SCORE.INTRA.POLAR>
0

>  <SCORE.INTRA.POLAR.0>
0

>  <SCORE.INTRA.REPUL>
0

>  <SCORE.INTRA.REPUL.0>
0

>  <SCORE.INTRA.SOLV>
-0.630863

>  <SCORE.INTRA.SOLV.lig_0>
-31.9458

>  <SCORE.INTRA.VDW>
0.0378809

>  <SCORE.INTRA.VDW.0>
-0.672612

>  <SCORE.INTRA.norm>
-0.108747

>  <SCORE.RESTR>
0

>  <SCORE.RESTR.CAVITY>
0

>  <SCORE.RESTR.norm>
0

>  <SCORE.SYSTEM>
0

>  <SCORE.SYSTEM.CONST>
0

>  <SCORE.SYSTEM.DIHEDRAL>
0

>  <SCORE.SYSTEM.SOLV>
0

>  <SCORE.SYSTEM.norm>
0

>  <SCORE.heavy>
10

>  <SCORE.norm>
-0.80877

>  <RMSD>
5.387

$$$$
ligand
 OpenBabel11021811473D
libRbt.so/2013.1/901 2013/11/27
 10  9  0  0  0  0  0  0  0  0999 V2000
   27.8281   15.3443   18.8204 N   0  0  0  0  0  0  0  0  0  0  0  0
   27.8728   14.6388   20.1323 C   0  0  2  0  0  0  0  0  0  0  0  0
   26.7142   15.0574   21.0264 C   0  0  0  0  0  0  0  0  0  0  0  0
   26.8726   15.3498   22.2126 O   0  0  0  0  0  0  0  0  0  0  0  0
   29.2106   14.8727   20.8304 C   0  0  0  0  0  0  0  0  0  0  0  0
   29.5109   16.3369   21.0533 C   0  0  0  0  0  0  0  0  0  0  0  0
   30.8738   16.5420   21.6588 C   0  0  0  0  0  0  0  0  0  0  0  0
   31.1795   18.0217   21.8103 C   0  0  0  0  0  0  0  0  0  0  0  0
   32.5584   18.2593   22.3110 N   0  0  0  0  0  0  0  0  0  0  0  0
   25.5728   15.1485   20.5716 O   0  0  0  0  0  0  0  0  0  0  0  0
  2  1  1  6  0  0  0
  2  3  1  0  0  0  0
  2  5  1  0  0  0  0
  3  4  1  0  0  0  0
  3 10  1  0  0  0  0
  5  6  1  0  0  0  0
  6  7  1  0  0  0  0
  7  8  1  0  0  0  0
  8  9  1  0  0  0  0
M  END
>  <CHROM.1>
-133.76507021,57.54210164,-176.20112711,177.23544156,-175.72810243,28.78321924
15.95936364,21.05933233,-2.73947690,0.36524764,1.17202938

>  <Name>
ligand

>  <RI>
0

>  <Rbt.Current_Directory>
/home/itssahil/PROJECTS/Mol_Feturizer/New_Systems/rnas/3DIX

>  <Rbt.Executable>
rbdock ($Id: //depot/dev/client3/rdock/2013.1/src/exe/rbdock.cxx#4 $)

>  <Rbt.Library>
libRbt.so (2013.1, Build901 2013/11/27)

>  <Rbt.Parameter_File>
/export/apps/rDock/src/rDock_2013.1_src/data/scripts/dock_solv.prm

>  <Rbt.Receptor>
prm/blind_docking_100.prm

>  <SCORE>
-9.39675

>  <SCORE.INTER>
-9.12117

>  <SCORE.INTER.CONST>
1

>  <SCORE.INTER.POLAR>
0

>  <SCORE.INTER.ROT>
5

>  <SCORE.INTER.SOLV>
12.4323

>  <SCORE.INTER.VDW>
-17.1582

>  <SCORE.INTER.norm>
-0.912117

>  <SCORE.INTRA>
-0.275583

>  <SCORE.INTRA.DIHEDRAL>
-1.5508

>  <SCORE.INTRA.DIHEDRAL.0>
3.281

>  <SCORE.INTRA.POLAR>
0

>  <SCORE.INTRA.POLAR.0>
0

>  <SCORE.INTRA.REPUL>
0

>  <SCORE.INTRA.REPUL.0>
0

>  <SCORE.INTRA.SOLV>
-0.591088

>  <SCORE.INTRA.SOLV.lig_0>
-31.9458

>  <SCORE.INTRA.VDW>
0.795363

>  <SCORE.INTRA.VDW.0>
-0.672612

>  <SCORE.INTRA.norm>
-0.0275583

>  <SCORE.RESTR>
0

>  <SCORE.RESTR.CAVITY>
0

>  <SCORE.RESTR.norm>
0

>  <SCORE.SYSTEM>
0

>  <SCORE.SYSTEM.CONST>
0

>  <SCORE.SYSTEM.DIHEDRAL>
0

>  <SCORE.SYSTEM.SOLV>
0

>  <SCORE.SYSTEM.norm>
0

>  <SCORE.heavy>
10

>  <SCORE.norm>
-0.939675

>  <RMSD>
5.388

$$$$
ligand
 OpenBabel11021811473D
libRbt.so/2013.1/901 2013/11/27
 10  9  0  0  0  0  0  0  0  0999 V2000
   27.8581   15.3480   18.7989 N   0  0  0  0  0  0  0  0  0  0  0  0
   27.8604   14.6491   20.1151 C   0  0  2  0  0  0  0  0  0  0  0  0
   26.6933   15.0982   20.9831 C   0  0  0  0  0  0  0  0  0  0  0  0
   25.5488   15.2056   20.5401 O   0  0  0  0  0  0  0  0  0  0  0  0
   29.1886   14.8572   20.8393 C   0  0  0  0  0  0  0  0  0  0  0  0
   29.5171   16.3157   21.0600 C   0  0  0  0  0  0  0  0  0  0  0  0
   30.8852   16.4953   21.6618 C   0  0  0  0  0  0  0  0  0  0  0  0
   31.2171   17.9691   21.8160 C   0  0  0  0  0  0  0  0  0  0  0  0
   32.6172   18.1828   22.2662 N   0  0  0  0  0  0  0  0  0  0  0  0
   26.8587   15.3386   22.1800 O   0  0  0  0  0  0  0  0  0  0  0  0
  2  1  1  6  0  0  0
  2  3  1  0  0  0  0
  2  5  1  0  0  0  0
  3  4  1  0  0  0  0
  3 10  1  0  0  0  0
  5  6  1  0  0  0  0
  6  7  1  0  0  0  0
  7  8  1  0  0  0  0
  8  9  1  0  0  0  0
M  END
>  <CHROM.1>
45.34646973,57.51098782,-174.83270694,177.45476473,-173.66930761,28.78811472
15.94825124,21.04263929,-2.74856862,0.34982746,1.17939991

>  <Name>
ligand

>  <RI>
0

>  <Rbt.Current_Directory>
/home/itssahil/PROJECTS/Mol_Feturizer/New_Systems/rnas/3DIX

>  <Rbt.Executable>
rbdock ($Id: //depot/dev/client3/rdock/2013.1/src/exe/rbdock.cxx#4 $)

>  <Rbt.Library>
libRbt.so (2013.1, Build901 2013/11/27)

>  <Rbt.Parameter_File>
/export/apps/rDock/src/rDock_2013.1_src/data/scripts/dock_solv.prm

>  <Rbt.Receptor>
prm/pocket_docking_3.prm

>  <SCORE>
-9.33967

>  <SCORE.INTER>
-9.20008

>  <SCORE.INTER.CONST>
1

>  <SCORE.INTER.POLAR>
0

>  <SCORE.INTER.ROT>
5

>  <SCORE.INTER.SOLV>
12.3202

>  <SCORE.INTER.VDW>
-17.1735

>  <SCORE.INTER.norm>
-0.920008

>  <SCORE.INTRA>
-0.139587

>  <SCORE.INTRA.DIHEDRAL>
-1.52302

>  <SCORE.INTRA.DIHEDRAL.0>
3.281

>  <SCORE.INTRA.POLAR>
0

>  <SCORE.INTRA.POLAR.0>
0

>  <SCORE.INTRA.REPUL>
0

>  <SCORE.INTRA.REPUL.0>
0

>  <SCORE.INTRA.SOLV>
-0.601325

>  <SCORE.INTRA.SOLV.lig_0>
-31.9458

>  <SCORE.INTRA.VDW>
0.922586

>  <SCORE.INTRA.VDW.0>
-0.672612

>  <SCORE.INTRA.norm>
-0.0139587

>  <SCORE.RESTR>
0

>  <SCORE.RESTR.CAVITY>
0

>  <SCORE.RESTR.norm>
0

>  <SCORE.SYSTEM>
0

>  <SCORE.SYSTEM.CONST>
0

>  <SCORE.SYSTEM.DIHEDRAL>
0

>  <SCORE.SYSTEM.SOLV>
0

>  <SCORE.SYSTEM.norm>
0

>  <SCORE.heavy>
10

>  <SCORE.norm>
-0.933967

>  <RMSD>
5.388

$$$$
ligand
 OpenBabel11021811473D
libRbt.so/2013.1/901 2013/11/27
 10  9  0  0  0  0  0  0  0  0999 V2000
   27.0850   14.2440   18.2922 N   0  0  0  0  0  0  0  0  0  0  0  0
   27.6662   14.6564   19.6009 C   0  0  2  0  0  0  0  0  0  0  0  0
   26.5781   15.0357   20.5956 C   0  0  0  0  0  0  0  0  0  0  0  0
   26.7413   14.9454   21.8133 O   0  0  0  0  0  0  0  0  0  0  0  0
   28.6595   15.8017   19.4183 C   0  0  0  0  0  0  0  0  0  0  0  0
   29.3921   16.1549   20.6921 C   0  0  0  0  0  0  0  0  0  0  0  0
   30.2908   17.3484   20.5071 C   0  0  0  0  0  0  0  0  0  0  0  0
   31.0351   17.6672   21.7918 C   0  0  0  0  0  0  0  0  0  0  0  0
   31.9989   16.5975   22.1598 N   0  0  0  0  0  0  0  0  0  0  0  0
   25.4988   15.4821   20.2037 O   0  0  0  0  0  0  0  0  0  0  0  0
  2  1  1  6  0  0  0
  2  3  1  0  0  0  0
  2  5  1  0  0  0  0
  3  4  1  0  0  0  0
  3 10  1  0  0  0  0
  5  6  1  0  0  0  0
  6  7  1  0  0  0  0
  7  8  1  0  0  0  0
  8  9  1  0  0  0  0
M  END
>  <CHROM.1>
153.52637213,-173.58858214,-175.93975896,-178.91809716,66.34440803,28.46118429
15.79617035,20.52677155,-2.73223622,0.34799908,1.30427841

>  <Name>
ligand

>  <RI>
0

>  <Rbt.Current_Directory>
/home/itssahil/PROJECTS/Mol_Feturizer/New_Systems/rnas/3DIX

>  <Rbt.Executable>
rbdock ($Id: //depot/dev/client3/rdock/2013.1/src/exe/rbdock.cxx#4 $)

>  <Rbt.Library>
libRbt.so (2013.1, Build901 2013/11/27)

>  <Rbt.Parameter_File>
/export/apps/rDock/src/rDock_2013.1_src/data/scripts/dock_solv.prm

>  <Rbt.Receptor>
prm/pocket_docking_6.prm

>  <SCORE>
-8.00435

>  <SCORE.INTER>
-6.97964

>  <SCORE.INTER.CONST>
1

>  <SCORE.INTER.POLAR>
0

>  <SCORE.INTER.ROT>
5

>  <SCORE.INTER.SOLV>
16.322

>  <SCORE.INTER.VDW>
-17.0271

>  <SCORE.INTER.norm>
-0.697964

>  <SCORE.INTRA>
-1.02471

>  <SCORE.INTRA.DIHEDRAL>
-1.485

>  <SCORE.INTRA.DIHEDRAL.0>
3.281

>  <SCORE.INTRA.POLAR>
0

>  <SCORE.INTRA.POLAR.0>
0

>  <SCORE.INTRA.REPUL>
0

>  <SCORE.INTRA.REPUL.0>
0

>  <SCORE.INTRA.SOLV>
-0.654924

>  <SCORE.INTRA.SOLV.lig_0>
-31.9458

>  <SCORE.INTRA.VDW>
0.0452551

>  <SCORE.INTRA.VDW.0>
-0.672612

>  <SCORE.INTRA.norm>
-0.102471

>  <SCORE.RESTR>
0

>  <SCORE.RESTR.CAVITY>
0

>  <SCORE.RESTR.norm>
0

>  <SCORE.SYSTEM>
0

>  <SCORE.SYSTEM.CONST>
0

>  <SCORE.SYSTEM.DIHEDRAL>
0

>  <SCORE.SYSTEM.SOLV>
0

>  <SCORE.SYSTEM.norm>
0

>  <SCORE.heavy>
10

>  <SCORE.norm>
-0.800435

>  <RMSD>
5.388

$$$$
ligand
 OpenBabel11021811473D
libRbt.so/2013.1/901 2013/11/27
 10  9  0  0  0  0  0  0  0  0999 V2000
   28.0329   14.5127   18.5209 N   0  0  0  0  0  0  0  0  0  0  0  0
   28.0845   14.8125   19.9797 C   0  0  2  0  0  0  0  0  0  0  0  0
   26.7184   15.2251   20.5093 C   0  0  0  0  0  0  0  0  0  0  0  0
   26.3989   15.0747   21.6895 O   0  0  0  0  0  0  0  0  0  0  0  0
   29.1301   15.8846   20.2781 C   0  0  0  0  0  0  0  0  0  0  0  0
   30.5450   15.4105   20.0387 C   0  0  0  0  0  0  0  0  0  0  0  0
   31.5477   16.5119   20.2571 C   0  0  0  0  0  0  0  0  0  0  0  0
   31.6283   16.8842   21.7271 C   0  0  0  0  0  0  0  0  0  0  0  0
   32.5737   18.0051   21.9690 N   0  0  0  0  0  0  0  0  0  0  0  0
   25.8938   15.7600   19.7665 O   0  0  0  0  0  0  0  0  0  0  0  0
  2  1  1  6  0  0  0
  2  3  1  0  0  0  0
  2  5  1  0  0  0  0
  3  4  1  0  0  0  0
  3 10  1  0  0  0  0
  5  6  1  0  0  0  0
  6  7  1  0  0  0  0
  7  8  1  0  0  0  0
  8  9  1  0  0  0  0
M  END
>  <CHROM.1>
154.33185566,-67.83318903,176.41389855,68.90632589,-177.86126036,29.01396407
15.81250916,20.48378998,-2.80073186,0.21490773,1.06899275

>  <Name>
ligand

>  <RI>
0

>  <Rbt.Current_Directory>
/home/itssahil/PROJECTS/Mol_Feturizer/New_Systems/rnas/3DIX

>  <Rbt.Executable>
rbdock ($Id: //depot/dev/client3/rdock/2013.1/src/exe/rbdock.cxx#4 $)

>  <Rbt.Library>
libRbt.so (2013.1, Build901 2013/11/27)

>  <Rbt.Parameter_File>
/export/apps/rDock/src/rDock_2013.1_src/data/scripts/dock_solv.prm

>  <Rbt.Receptor>
prm/blind_docking_60.prm

>  <SCORE>
-8.62129

>  <SCORE.INTER>
-8.33023

>  <SCORE.INTER.CONST>
1

>  <SCORE.INTER.POLAR>
0

>  <SCORE.INTER.ROT>
5

>  <SCORE.INTER.SOLV>
12.893

>  <SCORE.INTER.VDW>
-16.7845

>  <SCORE.INTER.norm>
-0.833023

>  <SCORE.INTRA>
-0.291053

>  <SCORE.INTRA.DIHEDRAL>
-1.20448

>  <SCORE.INTRA.DIHEDRAL.0>
3.281

>  <SCORE.INTRA.POLAR>
0

>  <SCORE.INTRA.POLAR.0>
0

>  <SCORE.INTRA.REPUL>
0

>  <SCORE.INTRA.REPUL.0>
0

>  <SCORE.INTRA.SOLV>
-0.450288

>  <SCORE.INTRA.SOLV.lig_0>
-31.9458

>  <SCORE.INTRA.VDW>
0.536331

>  <SCORE.INTRA.VDW.0>
-0.672612

>  <SCORE.INTRA.norm>
-0.0291053

>  <SCORE.RESTR>
0

>  <SCORE.RESTR.CAVITY>
0

>  <SCORE.RESTR.norm>
0

>  <SCORE.SYSTEM>
0

>  <SCORE.SYSTEM.CONST>
0

>  <SCORE.SYSTEM.DIHEDRAL>
0

>  <SCORE.SYSTEM.SOLV>
0

>  <SCORE.SYSTEM.norm>
0

>  <SCORE.heavy>
10

>  <SCORE.norm>
-0.862129

>  <RMSD>
5.392

$$$$
ligand
 OpenBabel11021811473D
libRbt.so/2013.1/901 2013/11/27
 10  9  0  0  0  0  0  0  0  0999 V2000
   25.6724   15.3040   20.3343 N   0  0  0  0  0  0  0  0  0  0  0  0
   27.0234   15.7768   19.9195 C   0  0  2  0  0  0  0  0  0  0  0  0
   27.4179   15.2073   18.5641 C   0  0  0  0  0  0  0  0  0  0  0  0
   28.0058   15.8794   17.7154 O   0  0  0  0  0  0  0  0  0  0  0  0
   28.0687   15.4339   20.9786 C   0  0  0  0  0  0  0  0  0  0  0  0
   29.3725   16.1717   20.7801 C   0  0  0  0  0  0  0  0  0  0  0  0
   30.3707   15.8419   21.8576 C   0  0  0  0  0  0  0  0  0  0  0  0
   31.6042   16.7194   21.7369 C   0  0  0  0  0  0  0  0  0  0  0  0
   32.3537   16.4606   20.4800 N   0  0  0  0  0  0  0  0  0  0  0  0
   27.1853   14.0295   18.2875 O   0  0  0  0  0  0  0  0  0  0  0  0
  2  1  1  1  0  0  0
  2  3  1  0  0  0  0
  2  5  1  0  0  0  0
  3  4  1  0  0  0  0
  3 10  1  0  0  0  0
  5  6  1  0  0  0  0
  6  7  1  0  0  0  0
  7  8  1  0  0  0  0
  8  9  1  0  0  0  0
M  END
>  <CHROM.1>
139.97206839,-165.95433197,178.52108550,-172.98891041,-64.97537847,28.70674223
15.66816127,20.03009544,2.65166067,-0.21410188,-1.71164826

>  <Name>
ligand

>  <RI>
0

>  <Rbt.Current_Directory>
/home/itssahil/PROJECTS/Mol_Feturizer/New_Systems/rnas/3DIX

>  <Rbt.Executable>
rbdock ($Id: //depot/dev/client3/rdock/2013.1/src/exe/rbdock.cxx#4 $)

>  <Rbt.Library>
libRbt.so (2013.1, Build901 2013/11/27)

>  <Rbt.Parameter_File>
/export/apps/rDock/src/rDock_2013.1_src/data/scripts/dock_solv.prm

>  <Rbt.Receptor>
prm/pocket_docking_7.prm

>  <SCORE>
-8.63565

>  <SCORE.INTER>
-7.75309

>  <SCORE.INTER.CONST>
1

>  <SCORE.INTER.POLAR>
0

>  <SCORE.INTER.ROT>
5

>  <SCORE.INTER.SOLV>
17.3513

>  <SCORE.INTER.VDW>
-17.8858

>  <SCORE.INTER.norm>
-0.775309

>  <SCORE.INTRA>
-0.882561

>  <SCORE.INTRA.DIHEDRAL>
-0.819668

>  <SCORE.INTRA.DIHEDRAL.0>
3.281

>  <SCORE.INTRA.POLAR>
0

>  <SCORE.INTRA.POLAR.0>
0

>  <SCORE.INTRA.REPUL>
0

>  <SCORE.INTRA.REPUL.0>
0

>  <SCORE.INTRA.SOLV>
-0.672444

>  <SCORE.INTRA.SOLV.lig_0>
-31.9458

>  <SCORE.INTRA.VDW>
-0.136506

>  <SCORE.INTRA.VDW.0>
-0.672612

>  <SCORE.INTRA.norm>
-0.0882561

>  <SCORE.RESTR>
0

>  <SCORE.RESTR.CAVITY>
0

>  <SCORE.RESTR.norm>
0

>  <SCORE.SYSTEM>
0

>  <SCORE.SYSTEM.CONST>
0

>  <SCORE.SYSTEM.DIHEDRAL>
0

>  <SCORE.SYSTEM.SOLV>
0

>  <SCORE.SYSTEM.norm>
0

>  <SCORE.heavy>
10

>  <SCORE.norm>
-0.863565

>  <RMSD>
5.394

$$$$
ligand
 OpenBabel11021811473D
libRbt.so/2013.1/901 2013/11/27
 10  9  0  0  0  0  0  0  0  0999 V2000
   28.5077   14.4428   18.9381 N   0  0  0  0  0  0  0  0  0  0  0  0
   27.8601   14.4500   20.2801 C   0  0  2  0  0  0  0  0  0  0  0  0
   26.6128   15.3226   20.2889 C   0  0  0  0  0  0  0  0  0  0  0  0
   26.5503   16.3849   19.6680 O   0  0  0  0  0  0  0  0  0  0  0  0
   28.8453   14.8986   21.3572 C   0  0  0  0  0  0  0  0  0  0  0  0
   29.4330   16.2642   21.0862 C   0  0  0  0  0  0  0  0  0  0  0  0
   30.6270   16.5420   21.9600 C   0  0  0  0  0  0  0  0  0  0  0  0
   31.2365   17.8924   21.6268 C   0  0  0  0  0  0  0  0  0  0  0  0
   32.5240   18.1147   22.3349 N   0  0  0  0  0  0  0  0  0  0  0  0
   25.6040   14.9677   20.9005 O   0  0  0  0  0  0  0  0  0  0  0  0
  2  1  1  6  0  0  0
  2  3  1  0  0  0  0
  2  5  1  0  0  0  0
  3  4  1  0  0  0  0
  3 10  1  0  0  0  0
  5  6  1  0  0  0  0
  6  7  1  0  0  0  0
  7  8  1  0  0  0  0
  8  9  1  0  0  0  0
M  END
>  <CHROM.1>
-37.92295575,57.28909790,-166.24820584,177.48118646,-171.99833331,28.74153398
15.94005775,20.84042454,-2.59255417,-0.08560722,0.49619861

>  <Name>
ligand

>  <RI>
0

>  <Rbt.Current_Directory>
/home/itssahil/PROJECTS/Mol_Feturizer/New_Systems/rnas/3DIX

>  <Rbt.Executable>
rbdock ($Id: //depot/dev/client3/rdock/2013.1/src/exe/rbdock.cxx#4 $)

>  <Rbt.Library>
libRbt.so (2013.1, Build901 2013/11/27)

>  <Rbt.Parameter_File>
/export/apps/rDock/src/rDock_2013.1_src/data/scripts/dock_solv.prm

>  <Rbt.Receptor>
prm/blind_docking_80.prm

>  <SCORE>
-9.34051

>  <SCORE.INTER>
-8.71104

>  <SCORE.INTER.CONST>
1

>  <SCORE.INTER.POLAR>
0

>  <SCORE.INTER.ROT>
5

>  <SCORE.INTER.SOLV>
13.8115

>  <SCORE.INTER.VDW>
-17.3445

>  <SCORE.INTER.norm>
-0.871104

>  <SCORE.INTRA>
-0.629464

>  <SCORE.INTRA.DIHEDRAL>
-0.67052

>  <SCORE.INTRA.DIHEDRAL.0>
3.281

>  <SCORE.INTRA.POLAR>
0

>  <SCORE.INTRA.POLAR.0>
0

>  <SCORE.INTRA.REPUL>
0

>  <SCORE.INTRA.REPUL.0>
0

>  <SCORE.INTRA.SOLV>
-0.529759

>  <SCORE.INTRA.SOLV.lig_0>
-31.9458

>  <SCORE.INTRA.VDW>
-0.0293249

>  <SCORE.INTRA.VDW.0>
-0.672612

>  <SCORE.INTRA.norm>
-0.0629464

>  <SCORE.RESTR>
0

>  <SCORE.RESTR.CAVITY>
0

>  <SCORE.RESTR.norm>
0

>  <SCORE.SYSTEM>
0

>  <SCORE.SYSTEM.CONST>
0

>  <SCORE.SYSTEM.DIHEDRAL>
0

>  <SCORE.SYSTEM.SOLV>
0

>  <SCORE.SYSTEM.norm>
0

>  <SCORE.heavy>
10

>  <SCORE.norm>
-0.934051

>  <RMSD>
5.395

$$$$
ligand
 OpenBabel11021811473D
libRbt.so/2013.1/901 2013/11/27
 10  9  0  0  0  0  0  0  0  0999 V2000
   27.8602   15.3582   18.8262 N   0  0  0  0  0  0  0  0  0  0  0  0
   27.8599   14.6444   20.1343 C   0  0  2  0  0  0  0  0  0  0  0  0
   26.6877   15.0791   21.0026 C   0  0  0  0  0  0  0  0  0  0  0  0
   25.5354   15.1347   20.5703 O   0  0  0  0  0  0  0  0  0  0  0  0
   29.1844   14.8495   20.8662 C   0  0  0  0  0  0  0  0  0  0  0  0
   29.5222   16.3075   21.0757 C   0  0  0  0  0  0  0  0  0  0  0  0
   30.8766   16.4818   21.7092 C   0  0  0  0  0  0  0  0  0  0  0  0
   31.2473   17.9520   21.7935 C   0  0  0  0  0  0  0  0  0  0  0  0
   32.6402   18.1508   22.2721 N   0  0  0  0  0  0  0  0  0  0  0  0
   26.8576   15.3599   22.1901 O   0  0  0  0  0  0  0  0  0  0  0  0
  2  1  1  6  0  0  0
  2  3  1  0  0  0  0
  2  5  1  0  0  0  0
  3  4  1  0  0  0  0
  3 10  1  0  0  0  0
  5  6  1  0  0  0  0
  6  7  1  0  0  0  0
  7  8  1  0  0  0  0
  8  9  1  0  0  0  0
M  END
>  <CHROM.1>
48.36791179,56.14293210,-175.89191083,174.83693273,-173.54412125,28.79065367
15.93379256,21.06063661,-2.75812186,0.35451131,1.19262717

>  <Name>
ligand

>  <RI>
0

>  <Rbt.Current_Directory>
/home/itssahil/PROJECTS/Mol_Feturizer/New_Systems/rnas/3DIX

>  <Rbt.Executable>
rbdock ($Id: //depot/dev/client3/rdock/2013.1/src/exe/rbdock.cxx#4 $)

>  <Rbt.Library>
libRbt.so (2013.1, Build901 2013/11/27)

>  <Rbt.Parameter_File>
/export/apps/rDock/src/rDock_2013.1_src/data/scripts/dock_solv.prm

>  <Rbt.Receptor>
prm/pocket_docking_5.prm

>  <SCORE>
-9.26934

>  <SCORE.INTER>
-9.21036

>  <SCORE.INTER.CONST>
1

>  <SCORE.INTER.POLAR>
0

>  <SCORE.INTER.ROT>
5

>  <SCORE.INTER.SOLV>
12.2765

>  <SCORE.INTER.VDW>
-17.1657

>  <SCORE.INTER.norm>
-0.921036

>  <SCORE.INTRA>
-0.0589766

>  <SCORE.INTRA.DIHEDRAL>
-1.42913

>  <SCORE.INTRA.DIHEDRAL.0>
3.281

>  <SCORE.INTRA.POLAR>
0

>  <SCORE.INTRA.POLAR.0>
0

>  <SCORE.INTRA.REPUL>
0

>  <SCORE.INTRA.REPUL.0>
0

>  <SCORE.INTRA.SOLV>
-0.591663

>  <SCORE.INTRA.SOLV.lig_0>
-31.9458

>  <SCORE.INTRA.VDW>
0.951421

>  <SCORE.INTRA.VDW.0>
-0.672612

>  <SCORE.INTRA.norm>
-0.00589766

>  <SCORE.RESTR>
0

>  <SCORE.RESTR.CAVITY>
0

>  <SCORE.RESTR.norm>
0

>  <SCORE.SYSTEM>
0

>  <SCORE.SYSTEM.CONST>
0

>  <SCORE.SYSTEM.DIHEDRAL>
0

>  <SCORE.SYSTEM.SOLV>
0

>  <SCORE.SYSTEM.norm>
0

>  <SCORE.heavy>
10

>  <SCORE.norm>
-0.926934

>  <RMSD>
5.395

$$$$
ligand
 OpenBabel11021811473D
libRbt.so/2013.1/901 2013/11/27
 10  9  0  0  0  0  0  0  0  0999 V2000
   26.8239   16.3599   19.5543 N   0  0  0  0  0  0  0  0  0  0  0  0
   27.9953   15.6100   19.0193 C   0  0  2  0  0  0  0  0  0  0  0  0
   27.6890   15.0013   17.6582 C   0  0  0  0  0  0  0  0  0  0  0  0
   26.9325   14.0382   17.5249 O   0  0  0  0  0  0  0  0  0  0  0  0
   28.4504   14.5365   20.0053 C   0  0  0  0  0  0  0  0  0  0  0  0
   29.2615   15.0951   21.1516 C   0  0  0  0  0  0  0  0  0  0  0  0
   30.6228   15.5537   20.7015 C   0  0  0  0  0  0  0  0  0  0  0  0
   31.3826   16.1950   21.8492 C   0  0  0  0  0  0  0  0  0  0  0  0
   30.7374   17.4502   22.3148 N   0  0  0  0  0  0  0  0  0  0  0  0
   28.1715   15.4844   16.6327 O   0  0  0  0  0  0  0  0  0  0  0  0
  2  1  1  1  0  0  0
  2  3  1  0  0  0  0
  2  5  1  0  0  0  0
  3  4  1  0  0  0  0
  3 10  1  0  0  0  0
  5  6  1  0  0  0  0
  6  7  1  0  0  0  0
  7  8  1  0  0  0  0
  8  9  1  0  0  0  0
M  END
>  <CHROM.1>
-71.92578881,-78.24566475,-70.71625173,176.20275873,-65.24714779,28.79337953
15.51752587,19.60195234,2.21448565,0.08127093,-1.96148870

>  <Name>
ligand

>  <RI>
0

>  <Rbt.Current_Directory>
/home/itssahil/PROJECTS/Mol_Feturizer/New_Systems/rnas/3DIX

>  <Rbt.Executable>
rbdock ($Id: //depot/dev/client3/rdock/2013.1/src/exe/rbdock.cxx#4 $)

>  <Rbt.Library>
libRbt.so (2013.1, Build901 2013/11/27)

>  <Rbt.Parameter_File>
/export/apps/rDock/src/rDock_2013.1_src/data/scripts/dock_solv.prm

>  <Rbt.Receptor>
prm/blind_docking_80.prm

>  <SCORE>
-7.74414

>  <SCORE.INTER>
-8.09351

>  <SCORE.INTER.CONST>
1

>  <SCORE.INTER.POLAR>
0

>  <SCORE.INTER.ROT>
5

>  <SCORE.INTER.SOLV>
15.1295

>  <SCORE.INTER.VDW>
-17.3722

>  <SCORE.INTER.norm>
-0.809351

>  <SCORE.INTRA>
0.349369

>  <SCORE.INTRA.DIHEDRAL>
0.0518742

>  <SCORE.INTRA.DIHEDRAL.0>
3.281

>  <SCORE.INTRA.POLAR>
0

>  <SCORE.INTRA.POLAR.0>
0

>  <SCORE.INTRA.REPUL>
0

>  <SCORE.INTRA.REPUL.0>
0

>  <SCORE.INTRA.SOLV>
0.410854

>  <SCORE.INTRA.SOLV.lig_0>
-31.9458

>  <SCORE.INTRA.VDW>
0.118005

>  <SCORE.INTRA.VDW.0>
-0.672612

>  <SCORE.INTRA.norm>
0.0349369

>  <SCORE.RESTR>
0

>  <SCORE.RESTR.CAVITY>
0

>  <SCORE.RESTR.norm>
0

>  <SCORE.SYSTEM>
0

>  <SCORE.SYSTEM.CONST>
0

>  <SCORE.SYSTEM.DIHEDRAL>
0

>  <SCORE.SYSTEM.SOLV>
0

>  <SCORE.SYSTEM.norm>
0

>  <SCORE.heavy>
10

>  <SCORE.norm>
-0.774414

>  <RMSD>
5.397

$$$$
ligand
 OpenBabel11021811473D
libRbt.so/2013.1/901 2013/11/27
 10  9  0  0  0  0  0  0  0  0999 V2000
   25.6048   15.2193   20.4148 N   0  0  0  0  0  0  0  0  0  0  0  0
   26.9486   15.7345   20.0282 C   0  0  2  0  0  0  0  0  0  0  0  0
   27.3522   15.2461   18.6441 C   0  0  0  0  0  0  0  0  0  0  0  0
   27.9545   15.9639   17.8443 O   0  0  0  0  0  0  0  0  0  0  0  0
   27.9985   15.3501   21.0682 C   0  0  0  0  0  0  0  0  0  0  0  0
   29.3015   16.0954   20.8934 C   0  0  0  0  0  0  0  0  0  0  0  0
   30.3063   15.7193   21.9494 C   0  0  0  0  0  0  0  0  0  0  0  0
   31.5437   16.5941   21.8523 C   0  0  0  0  0  0  0  0  0  0  0  0
   32.2691   16.3964   20.5703 N   0  0  0  0  0  0  0  0  0  0  0  0
   27.1125   14.0898   18.2930 O   0  0  0  0  0  0  0  0  0  0  0  0
  2  1  1  1  0  0  0
  2  3  1  0  0  0  0
  2  5  1  0  0  0  0
  3  4  1  0  0  0  0
  3 10  1  0  0  0  0
  5  6  1  0  0  0  0
  6  7  1  0  0  0  0
  7  8  1  0  0  0  0
  8  9  1  0  0  0  0
M  END
>  <CHROM.1>
141.49822254,-167.21536298,178.73805256,-173.40504744,-63.99730036,28.63863981
15.62865920,20.11986227,2.65963924,-0.21858933,-1.65790244

>  <Name>
ligand

>  <RI>
0

>  <Rbt.Current_Directory>
/home/itssahil/PROJECTS/Mol_Feturizer/New_Systems/rnas/3DIX

>  <Rbt.Executable>
rbdock ($Id: //depot/dev/client3/rdock/2013.1/src/exe/rbdock.cxx#4 $)

>  <Rbt.Library>
libRbt.so (2013.1, Build901 2013/11/27)

>  <Rbt.Parameter_File>
/export/apps/rDock/src/rDock_2013.1_src/data/scripts/dock_solv.prm

>  <Rbt.Receptor>
prm/pocket_docking_3.prm

>  <SCORE>
-8.68331

>  <SCORE.INTER>
-7.74876

>  <SCORE.INTER.CONST>
1

>  <SCORE.INTER.POLAR>
0

>  <SCORE.INTER.ROT>
5

>  <SCORE.INTER.SOLV>
17.4941

>  <SCORE.INTER.VDW>
-17.9305

>  <SCORE.INTER.norm>
-0.774876

>  <SCORE.INTRA>
-0.93455

>  <SCORE.INTRA.DIHEDRAL>
-1.00247

>  <SCORE.INTRA.DIHEDRAL.0>
3.281

>  <SCORE.INTRA.POLAR>
0

>  <SCORE.INTRA.POLAR.0>
0

>  <SCORE.INTRA.REPUL>
0

>  <SCORE.INTRA.REPUL.0>
0

>  <SCORE.INTRA.SOLV>
-0.657761

>  <SCORE.INTRA.SOLV.lig_0>
-31.9458

>  <SCORE.INTRA.VDW>
-0.104434

>  <SCORE.INTRA.VDW.0>
-0.672612

>  <SCORE.INTRA.norm>
-0.093455

>  <SCORE.RESTR>
0

>  <SCORE.RESTR.CAVITY>
0

>  <SCORE.RESTR.norm>
0

>  <SCORE.SYSTEM>
0

>  <SCORE.SYSTEM.CONST>
0

>  <SCORE.SYSTEM.DIHEDRAL>
0

>  <SCORE.SYSTEM.SOLV>
0

>  <SCORE.SYSTEM.norm>
0

>  <SCORE.heavy>
10

>  <SCORE.norm>
-0.868331

>  <RMSD>
5.397

$$$$
ligand
 OpenBabel11021811473D
libRbt.so/2013.1/901 2013/11/27
 10  9  0  0  0  0  0  0  0  0999 V2000
   28.7005   16.4781   19.1597 N   0  0  0  0  0  0  0  0  0  0  0  0
   27.5736   15.5340   18.9158 C   0  0  2  0  0  0  0  0  0  0  0  0
   26.9373   15.0813   20.2223 C   0  0  0  0  0  0  0  0  0  0  0  0
   25.7278   15.1827   20.4333 O   0  0  0  0  0  0  0  0  0  0  0  0
   28.0374   14.3345   18.0924 C   0  0  0  0  0  0  0  0  0  0  0  0
   26.9050   13.4107   17.7076 C   0  0  0  0  0  0  0  0  0  0  0  0
   27.4120   12.1048   17.1563 C   0  0  0  0  0  0  0  0  0  0  0  0
   26.2734   11.1158   16.9794 C   0  0  0  0  0  0  0  0  0  0  0  0
   26.7609    9.7634   16.6028 N   0  0  0  0  0  0  0  0  0  0  0  0
   27.6213   14.5621   21.1057 O   0  0  0  0  0  0  0  0  0  0  0  0
  2  1  1  1  0  0  0
  2  3  1  0  0  0  0
  2  5  1  0  0  0  0
  3  4  1  0  0  0  0
  3 10  1  0  0  0  0
  5  6  1  0  0  0  0
  6  7  1  0  0  0  0
  7  8  1  0  0  0  0
  8  9  1  0  0  0  0
M  END
>  <CHROM.1>
126.44491241,-174.65114844,-168.00951331,171.21533118,-172.68248175,27.18119658
13.75650405,18.67272016,-1.40105135,-0.81392180,-2.41709685

>  <Name>
ligand

>  <RI>
0

>  <Rbt.Current_Directory>
/home/itssahil/PROJECTS/Mol_Feturizer/New_Systems/rnas/3DIX

>  <Rbt.Executable>
rbdock ($Id: //depot/dev/client3/rdock/2013.1/src/exe/rbdock.cxx#4 $)

>  <Rbt.Library>
libRbt.so (2013.1, Build901 2013/11/27)

>  <Rbt.Parameter_File>
/export/apps/rDock/src/rDock_2013.1_src/data/scripts/dock_solv.prm

>  <Rbt.Receptor>
prm/blind_docking_40.prm

>  <SCORE>
-12.7122

>  <SCORE.INTER>
-11.481

>  <SCORE.INTER.CONST>
1

>  <SCORE.INTER.POLAR>
0

>  <SCORE.INTER.ROT>
5

>  <SCORE.INTER.SOLV>
14.9245

>  <SCORE.INTER.VDW>
-19.5622

>  <SCORE.INTER.norm>
-1.1481

>  <SCORE.INTRA>
-1.23117

>  <SCORE.INTRA.DIHEDRAL>
-0.603893

>  <SCORE.INTRA.DIHEDRAL.0>
3.281

>  <SCORE.INTRA.POLAR>
0

>  <SCORE.INTRA.POLAR.0>
0

>  <SCORE.INTRA.REPUL>
0

>  <SCORE.INTRA.REPUL.0>
0

>  <SCORE.INTRA.SOLV>
-1.58121

>  <SCORE.INTRA.SOLV.lig_0>
-31.9458

>  <SCORE.INTRA.VDW>
-0.138625

>  <SCORE.INTRA.VDW.0>
-0.672612

>  <SCORE.INTRA.norm>
-0.123117

>  <SCORE.RESTR>
0

>  <SCORE.RESTR.CAVITY>
0

>  <SCORE.RESTR.norm>
0

>  <SCORE.SYSTEM>
0

>  <SCORE.SYSTEM.CONST>
0

>  <SCORE.SYSTEM.DIHEDRAL>
0

>  <SCORE.SYSTEM.SOLV>
0

>  <SCORE.SYSTEM.norm>
0

>  <SCORE.heavy>
10

>  <SCORE.norm>
-1.27122

>  <RMSD>
5.398

$$$$
ligand
 OpenBabel11021811473D
libRbt.so/2013.1/901 2013/11/27
 10  9  0  0  0  0  0  0  0  0999 V2000
   26.7599   16.3495   19.6390 N   0  0  0  0  0  0  0  0  0  0  0  0
   27.9377   15.5941   19.1262 C   0  0  2  0  0  0  0  0  0  0  0  0
   27.6415   14.9551   17.7767 C   0  0  0  0  0  0  0  0  0  0  0  0
   26.8940   13.9827   17.6606 O   0  0  0  0  0  0  0  0  0  0  0  0
   28.3926   14.5439   20.1372 C   0  0  0  0  0  0  0  0  0  0  0  0
   29.2333   15.1238   21.2511 C   0  0  0  0  0  0  0  0  0  0  0  0
   30.5866   15.5630   20.7592 C   0  0  0  0  0  0  0  0  0  0  0  0
   31.3798   16.2183   21.8760 C   0  0  0  0  0  0  0  0  0  0  0  0
   30.7776   17.5065   22.3080 N   0  0  0  0  0  0  0  0  0  0  0  0
   28.1233   15.4215   16.7432 O   0  0  0  0  0  0  0  0  0  0  0  0
  2  1  1  1  0  0  0
  2  3  1  0  0  0  0
  2  5  1  0  0  0  0
  3  4  1  0  0  0  0
  3 10  1  0  0  0  0
  5  6  1  0  0  0  0
  6  7  1  0  0  0  0
  7  8  1  0  0  0  0
  8  9  1  0  0  0  0
M  END
>  <CHROM.1>
-72.18835376,-80.13667784,-69.90368492,176.54721060,-66.89087282,28.75941451
15.51007132,19.68891948,2.22762015,0.03004183,-1.94897056

>  <Name>
ligand

>  <RI>
0

>  <Rbt.Current_Directory>
/home/itssahil/PROJECTS/Mol_Feturizer/New_Systems/rnas/3DIX

>  <Rbt.Executable>
rbdock ($Id: //depot/dev/client3/rdock/2013.1/src/exe/rbdock.cxx#4 $)

>  <Rbt.Library>
libRbt.so (2013.1, Build901 2013/11/27)

>  <Rbt.Parameter_File>
/export/apps/rDock/src/rDock_2013.1_src/data/scripts/dock_solv.prm

>  <Rbt.Receptor>
prm/pocket_docking_4.prm

>  <SCORE>
-7.79644

>  <SCORE.INTER>
-8.23201

>  <SCORE.INTER.CONST>
1

>  <SCORE.INTER.POLAR>
0

>  <SCORE.INTER.ROT>
5

>  <SCORE.INTER.SOLV>
15.2266

>  <SCORE.INTER.VDW>
-17.4969

>  <SCORE.INTER.norm>
-0.823201

>  <SCORE.INTRA>
0.435574

>  <SCORE.INTRA.DIHEDRAL>
0.291481

>  <SCORE.INTRA.DIHEDRAL.0>
3.281

>  <SCORE.INTRA.POLAR>
0

>  <SCORE.INTRA.POLAR.0>
0

>  <SCORE.INTRA.REPUL>
0

>  <SCORE.INTRA.REPUL.0>
0

>  <SCORE.INTRA.SOLV>
0.359192

>  <SCORE.INTRA.SOLV.lig_0>
-31.9458

>  <SCORE.INTRA.VDW>
0.110237

>  <SCORE.INTRA.VDW.0>
-0.672612

>  <SCORE.INTRA.norm>
0.0435574

>  <SCORE.RESTR>
0

>  <SCORE.RESTR.CAVITY>
0

>  <SCORE.RESTR.norm>
0

>  <SCORE.SYSTEM>
0

>  <SCORE.SYSTEM.CONST>
0

>  <SCORE.SYSTEM.DIHEDRAL>
0

>  <SCORE.SYSTEM.SOLV>
0

>  <SCORE.SYSTEM.norm>
0

>  <SCORE.heavy>
10

>  <SCORE.norm>
-0.779644

>  <RMSD>
5.403

$$$$
ligand
 OpenBabel11021811473D
libRbt.so/2013.1/901 2013/11/27
 10  9  0  0  0  0  0  0  0  0999 V2000
   28.7590   16.4469   19.1430 N   0  0  0  0  0  0  0  0  0  0  0  0
   27.6154   15.5299   18.8747 C   0  0  2  0  0  0  0  0  0  0  0  0
   26.9228   15.1154   20.1652 C   0  0  0  0  0  0  0  0  0  0  0  0
   25.7169   15.2887   20.3482 O   0  0  0  0  0  0  0  0  0  0  0  0
   28.0736   14.3054   18.0857 C   0  0  0  0  0  0  0  0  0  0  0  0
   26.9276   13.4194   17.6551 C   0  0  0  0  0  0  0  0  0  0  0  0
   27.4124   12.0936   17.1321 C   0  0  0  0  0  0  0  0  0  0  0  0
   26.2580   11.1185   16.9817 C   0  0  0  0  0  0  0  0  0  0  0  0
   26.7194    9.7626   16.5854 N   0  0  0  0  0  0  0  0  0  0  0  0
   27.5538   14.5560   21.0634 O   0  0  0  0  0  0  0  0  0  0  0  0
  2  1  1  1  0  0  0
  2  3  1  0  0  0  0
  2  5  1  0  0  0  0
  3  4  1  0  0  0  0
  3 10  1  0  0  0  0
  5  6  1  0  0  0  0
  6  7  1  0  0  0  0
  7  8  1  0  0  0  0
  8  9  1  0  0  0  0
M  END
>  <CHROM.1>
124.27514676,-173.63217069,-168.40002546,168.08798095,-174.79564153,27.18096677
13.76429172,18.63817211,-1.40501409,-0.77279022,-2.43173672

>  <Name>
ligand

>  <RI>
0

>  <Rbt.Current_Directory>
/home/itssahil/PROJECTS/Mol_Feturizer/New_Systems/rnas/3DIX

>  <Rbt.Executable>
rbdock ($Id: //depot/dev/client3/rdock/2013.1/src/exe/rbdock.cxx#4 $)

>  <Rbt.Library>
libRbt.so (2013.1, Build901 2013/11/27)

>  <Rbt.Parameter_File>
/export/apps/rDock/src/rDock_2013.1_src/data/scripts/dock_solv.prm

>  <Rbt.Receptor>
prm/blind_docking_100.prm

>  <SCORE>
-12.7146

>  <SCORE.INTER>
-11.5603

>  <SCORE.INTER.CONST>
1

>  <SCORE.INTER.POLAR>
0

>  <SCORE.INTER.ROT>
5

>  <SCORE.INTER.SOLV>
14.7748

>  <SCORE.INTER.VDW>
-19.5651

>  <SCORE.INTER.norm>
-1.15603

>  <SCORE.INTRA>
-1.15432

>  <SCORE.INTRA.DIHEDRAL>
-0.428146

>  <SCORE.INTRA.DIHEDRAL.0>
3.281

>  <SCORE.INTRA.POLAR>
0

>  <SCORE.INTRA.POLAR.0>
0

>  <SCORE.INTRA.REPUL>
0

>  <SCORE.INTRA.REPUL.0>
0

>  <SCORE.INTRA.SOLV>
-1.58349

>  <SCORE.INTRA.SOLV.lig_0>
-31.9458

>  <SCORE.INTRA.VDW>
-0.148495

>  <SCORE.INTRA.VDW.0>
-0.672612

>  <SCORE.INTRA.norm>
-0.115432

>  <SCORE.RESTR>
0

>  <SCORE.RESTR.CAVITY>
0

>  <SCORE.RESTR.norm>
0

>  <SCORE.SYSTEM>
0

>  <SCORE.SYSTEM.CONST>
0

>  <SCORE.SYSTEM.DIHEDRAL>
0

>  <SCORE.SYSTEM.SOLV>
0

>  <SCORE.SYSTEM.norm>
0

>  <SCORE.heavy>
10

>  <SCORE.norm>
-1.27146

>  <RMSD>
5.405

$$$$
ligand
 OpenBabel11021811473D
libRbt.so/2013.1/901 2013/11/27
 10  9  0  0  0  0  0  0  0  0999 V2000
   28.7317   16.4483   19.1217 N   0  0  0  0  0  0  0  0  0  0  0  0
   27.5982   15.5141   18.8705 C   0  0  2  0  0  0  0  0  0  0  0  0
   26.9361   15.0836   20.1718 C   0  0  0  0  0  0  0  0  0  0  0  0
   27.5474   14.4698   21.0478 O   0  0  0  0  0  0  0  0  0  0  0  0
   28.0613   14.3002   18.0682 C   0  0  0  0  0  0  0  0  0  0  0  0
   26.9240   13.3874   17.6715 C   0  0  0  0  0  0  0  0  0  0  0  0
   27.4235   12.0649   17.1540 C   0  0  0  0  0  0  0  0  0  0  0  0
   26.2746   11.0892   16.9700 C   0  0  0  0  0  0  0  0  0  0  0  0
   26.7502    9.7238   16.6262 N   0  0  0  0  0  0  0  0  0  0  0  0
   25.7605   15.3712   20.4019 O   0  0  0  0  0  0  0  0  0  0  0  0
  2  1  1  1  0  0  0
  2  3  1  0  0  0  0
  2  5  1  0  0  0  0
  3  4  1  0  0  0  0
  3 10  1  0  0  0  0
  5  6  1  0  0  0  0
  6  7  1  0  0  0  0
  7  8  1  0  0  0  0
  8  9  1  0  0  0  0
M  END
>  <CHROM.1>
-61.25848400,-174.43778504,-167.52710633,171.04131663,-172.73899648,27.18624309
13.74654389,18.64550732,-1.41107010,-0.80634329,-2.43838576

>  <Name>
ligand

>  <RI>
0

>  <Rbt.Current_Directory>
/home/itssahil/PROJECTS/Mol_Feturizer/New_Systems/rnas/3DIX

>  <Rbt.Executable>
rbdock ($Id: //depot/dev/client3/rdock/2013.1/src/exe/rbdock.cxx#4 $)

>  <Rbt.Library>
libRbt.so (2013.1, Build901 2013/11/27)

>  <Rbt.Parameter_File>
/export/apps/rDock/src/rDock_2013.1_src/data/scripts/dock_solv.prm

>  <Rbt.Receptor>
prm/blind_docking_40.prm

>  <SCORE>
-12.8204

>  <SCORE.INTER>
-11.6295

>  <SCORE.INTER.CONST>
1

>  <SCORE.INTER.POLAR>
0

>  <SCORE.INTER.ROT>
5

>  <SCORE.INTER.SOLV>
14.7418

>  <SCORE.INTER.VDW>
-19.6003

>  <SCORE.INTER.norm>
-1.16295

>  <SCORE.INTRA>
-1.19093

>  <SCORE.INTRA.DIHEDRAL>
-0.532507

>  <SCORE.INTRA.DIHEDRAL.0>
3.281

>  <SCORE.INTRA.POLAR>
0

>  <SCORE.INTRA.POLAR.0>
0

>  <SCORE.INTRA.REPUL>
0

>  <SCORE.INTRA.REPUL.0>
0

>  <SCORE.INTRA.SOLV>
-1.5756

>  <SCORE.INTRA.SOLV.lig_0>
-31.9458

>  <SCORE.INTRA.VDW>
-0.136875

>  <SCORE.INTRA.VDW.0>
-0.672612

>  <SCORE.INTRA.norm>
-0.119093

>  <SCORE.RESTR>
0

>  <SCORE.RESTR.CAVITY>
0

>  <SCORE.RESTR.norm>
0

>  <SCORE.SYSTEM>
0

>  <SCORE.SYSTEM.CONST>
0

>  <SCORE.SYSTEM.DIHEDRAL>
0

>  <SCORE.SYSTEM.SOLV>
0

>  <SCORE.SYSTEM.norm>
0

>  <SCORE.heavy>
10

>  <SCORE.norm>
-1.28204

>  <RMSD>
5.408

$$$$
ligand
 OpenBabel11021811473D
libRbt.so/2013.1/901 2013/11/27
 10  9  0  0  0  0  0  0  0  0999 V2000
   25.6024   15.4542   20.3082 N   0  0  0  0  0  0  0  0  0  0  0  0
   27.0876   15.4495   20.1864 C   0  0  2  0  0  0  0  0  0  0  0  0
   27.5339   14.8250   18.8719 C   0  0  0  0  0  0  0  0  0  0  0  0
   27.0442   13.7794   18.4420 O   0  0  0  0  0  0  0  0  0  0  0  0
   27.7286   14.7344   21.3736 C   0  0  0  0  0  0  0  0  0  0  0  0
   29.2364   14.8351   21.3780 C   0  0  0  0  0  0  0  0  0  0  0  0
   29.7018   16.2379   21.6641 C   0  0  0  0  0  0  0  0  0  0  0  0
   31.2184   16.3055   21.7034 C   0  0  0  0  0  0  0  0  0  0  0  0
   31.7100   17.6818   21.9728 N   0  0  0  0  0  0  0  0  0  0  0  0
   28.3877   15.3752   18.1746 O   0  0  0  0  0  0  0  0  0  0  0  0
  2  1  1  1  0  0  0
  2  3  1  0  0  0  0
  2  5  1  0  0  0  0
  3  4  1  0  0  0  0
  3 10  1  0  0  0  0
  5  6  1  0  0  0  0
  6  7  1  0  0  0  0
  7  8  1  0  0  0  0
  8  9  1  0  0  0  0
M  END
>  <CHROM.1>
-44.82089484,-173.59804923,69.20568825,178.34598900,179.51457031,28.52686399
15.45190052,20.37212924,2.52555229,-0.31671912,-1.80922219

>  <Name>
ligand

>  <RI>
0

>  <Rbt.Current_Directory>
/home/itssahil/PROJECTS/Mol_Feturizer/New_Systems/rnas/3DIX

>  <Rbt.Executable>
rbdock ($Id: //depot/dev/client3/rdock/2013.1/src/exe/rbdock.cxx#4 $)

>  <Rbt.Library>
libRbt.so (2013.1, Build901 2013/11/27)

>  <Rbt.Parameter_File>
/export/apps/rDock/src/rDock_2013.1_src/data/scripts/dock_solv.prm

>  <Rbt.Receptor>
prm/pocket_docking_5.prm

>  <SCORE>
-8.6819

>  <SCORE.INTER>
-7.4009

>  <SCORE.INTER.CONST>
1

>  <SCORE.INTER.POLAR>
0

>  <SCORE.INTER.ROT>
5

>  <SCORE.INTER.SOLV>
17.1356

>  <SCORE.INTER.VDW>
-17.5791

>  <SCORE.INTER.norm>
-0.74009

>  <SCORE.INTRA>
-1.281

>  <SCORE.INTRA.DIHEDRAL>
-1.23657

>  <SCORE.INTRA.DIHEDRAL.0>
3.281

>  <SCORE.INTRA.POLAR>
0

>  <SCORE.INTRA.POLAR.0>
0

>  <SCORE.INTRA.REPUL>
0

>  <SCORE.INTRA.REPUL.0>
0

>  <SCORE.INTRA.SOLV>
-1.3097

>  <SCORE.INTRA.SOLV.lig_0>
-31.9458

>  <SCORE.INTRA.VDW>
-0.00787111

>  <SCORE.INTRA.VDW.0>
-0.672612

>  <SCORE.INTRA.norm>
-0.1281

>  <SCORE.RESTR>
0

>  <SCORE.RESTR.CAVITY>
0

>  <SCORE.RESTR.norm>
0

>  <SCORE.SYSTEM>
0

>  <SCORE.SYSTEM.CONST>
0

>  <SCORE.SYSTEM.DIHEDRAL>
0

>  <SCORE.SYSTEM.SOLV>
0

>  <SCORE.SYSTEM.norm>
0

>  <SCORE.heavy>
10

>  <SCORE.norm>
-0.86819

>  <RMSD>
5.412

$$$$
ligand
 OpenBabel11021811473D
libRbt.so/2013.1/901 2013/11/27
 10  9  0  0  0  0  0  0  0  0999 V2000
   28.7569   16.3767   19.2540 N   0  0  0  0  0  0  0  0  0  0  0  0
   27.6116   15.4694   18.9614 C   0  0  2  0  0  0  0  0  0  0  0  0
   26.9196   15.0202   20.2407 C   0  0  0  0  0  0  0  0  0  0  0  0
   25.7062   15.1486   20.4107 O   0  0  0  0  0  0  0  0  0  0  0  0
   28.0671   14.2665   18.1382 C   0  0  0  0  0  0  0  0  0  0  0  0
   26.9219   13.3787   17.7091 C   0  0  0  0  0  0  0  0  0  0  0  0
   27.4093   12.0649   17.1590 C   0  0  0  0  0  0  0  0  0  0  0  0
   26.2577   11.0890   16.9935 C   0  0  0  0  0  0  0  0  0  0  0  0
   26.7259    9.7310   16.6126 N   0  0  0  0  0  0  0  0  0  0  0  0
   27.5601   14.4768   21.1420 O   0  0  0  0  0  0  0  0  0  0  0  0
  2  1  1  1  0  0  0
  2  3  1  0  0  0  0
  2  5  1  0  0  0  0
  3  4  1  0  0  0  0
  3 10  1  0  0  0  0
  5  6  1  0  0  0  0
  6  7  1  0  0  0  0
  7  8  1  0  0  0  0
  8  9  1  0  0  0  0
M  END
>  <CHROM.1>
126.82564319,-174.85458396,-167.95694826,168.75189022,-172.93282617,27.17874384
13.70195241,18.69674701,-1.40153970,-0.77672005,-2.41409124

>  <Name>
ligand

>  <RI>
0

>  <Rbt.Current_Directory>
/home/itssahil/PROJECTS/Mol_Feturizer/New_Systems/rnas/3DIX

>  <Rbt.Executable>
rbdock ($Id: //depot/dev/client3/rdock/2013.1/src/exe/rbdock.cxx#4 $)

>  <Rbt.Library>
libRbt.so (2013.1, Build901 2013/11/27)

>  <Rbt.Parameter_File>
/export/apps/rDock/src/rDock_2013.1_src/data/scripts/dock_solv.prm

>  <Rbt.Receptor>
prm/blind_docking_60.prm

>  <SCORE>
-12.7559

>  <SCORE.INTER>
-11.6162

>  <SCORE.INTER.CONST>
1

>  <SCORE.INTER.POLAR>
0

>  <SCORE.INTER.ROT>
5

>  <SCORE.INTER.SOLV>
14.3921

>  <SCORE.INTER.VDW>
-19.4748

>  <SCORE.INTER.norm>
-1.16162

>  <SCORE.INTRA>
-1.13972

>  <SCORE.INTRA.DIHEDRAL>
-0.423996

>  <SCORE.INTRA.DIHEDRAL.0>
3.281

>  <SCORE.INTRA.POLAR>
0

>  <SCORE.INTRA.POLAR.0>
0

>  <SCORE.INTRA.REPUL>
0

>  <SCORE.INTRA.REPUL.0>
0

>  <SCORE.INTRA.SOLV>
-1.58132

>  <SCORE.INTRA.SOLV.lig_0>
-31.9458

>  <SCORE.INTRA.VDW>
-0.137063

>  <SCORE.INTRA.VDW.0>
-0.672612

>  <SCORE.INTRA.norm>
-0.113972

>  <SCORE.RESTR>
0

>  <SCORE.RESTR.CAVITY>
0

>  <SCORE.RESTR.norm>
0

>  <SCORE.SYSTEM>
0

>  <SCORE.SYSTEM.CONST>
0

>  <SCORE.SYSTEM.DIHEDRAL>
0

>  <SCORE.SYSTEM.SOLV>
0

>  <SCORE.SYSTEM.norm>
0

>  <SCORE.heavy>
10

>  <SCORE.norm>
-1.27559

>  <RMSD>
5.417

$$$$
ligand
 OpenBabel11021811473D
libRbt.so/2013.1/901 2013/11/27
 10  9  0  0  0  0  0  0  0  0999 V2000
   28.7507   16.3733   19.2658 N   0  0  0  0  0  0  0  0  0  0  0  0
   27.6086   15.4644   18.9656 C   0  0  2  0  0  0  0  0  0  0  0  0
   26.9219   14.9975   20.2414 C   0  0  0  0  0  0  0  0  0  0  0  0
   27.5354   14.4333   21.1486 O   0  0  0  0  0  0  0  0  0  0  0  0
   28.0671   14.2732   18.1274 C   0  0  0  0  0  0  0  0  0  0  0  0
   26.9238   13.3901   17.6838 C   0  0  0  0  0  0  0  0  0  0  0  0
   27.4119   12.0676   17.1554 C   0  0  0  0  0  0  0  0  0  0  0  0
   26.2554   11.1011   16.9698 C   0  0  0  0  0  0  0  0  0  0  0  0
   26.7192    9.7387   16.5994 N   0  0  0  0  0  0  0  0  0  0  0  0
   25.7203   15.2043   20.4180 O   0  0  0  0  0  0  0  0  0  0  0  0
  2  1  1  1  0  0  0
  2  3  1  0  0  0  0
  2  5  1  0  0  0  0
  3  4  1  0  0  0  0
  3 10  1  0  0  0  0
  5  6  1  0  0  0  0
  6  7  1  0  0  0  0
  7  8  1  0  0  0  0
  8  9  1  0  0  0  0
M  END
>  <CHROM.1>
-55.64695333,-174.49380800,-166.24946538,169.01443296,-173.41139265,27.17639299
13.70465089,18.69232587,-1.40319794,-0.78714954,-2.40955397

>  <Name>
ligand

>  <RI>
0

>  <Rbt.Current_Directory>
/home/itssahil/PROJECTS/Mol_Feturizer/New_Systems/rnas/3DIX

>  <Rbt.Executable>
rbdock ($Id: //depot/dev/client3/rdock/2013.1/src/exe/rbdock.cxx#4 $)

>  <Rbt.Library>
libRbt.so (2013.1, Build901 2013/11/27)

>  <Rbt.Parameter_File>
/export/apps/rDock/src/rDock_2013.1_src/data/scripts/dock_solv.prm

>  <Rbt.Receptor>
prm/pocket_docking_7.prm

>  <SCORE>
-12.8048

>  <SCORE.INTER>
-11.7216

>  <SCORE.INTER.CONST>
1

>  <SCORE.INTER.POLAR>
0

>  <SCORE.INTER.ROT>
5

>  <SCORE.INTER.SOLV>
14.4154

>  <SCORE.INTER.VDW>
-19.5529

>  <SCORE.INTER.norm>
-1.17216

>  <SCORE.INTRA>
-1.0832

>  <SCORE.INTRA.DIHEDRAL>
-0.257666

>  <SCORE.INTRA.DIHEDRAL.0>
3.281

>  <SCORE.INTRA.POLAR>
0

>  <SCORE.INTRA.POLAR.0>
0

>  <SCORE.INTRA.REPUL>
0

>  <SCORE.INTRA.REPUL.0>
0

>  <SCORE.INTRA.SOLV>
-1.57464

>  <SCORE.INTRA.SOLV.lig_0>
-31.9458

>  <SCORE.INTRA.VDW>
-0.167045

>  <SCORE.INTRA.VDW.0>
-0.672612

>  <SCORE.INTRA.norm>
-0.10832

>  <SCORE.RESTR>
0

>  <SCORE.RESTR.CAVITY>
0

>  <SCORE.RESTR.norm>
0

>  <SCORE.SYSTEM>
0

>  <SCORE.SYSTEM.CONST>
0

>  <SCORE.SYSTEM.DIHEDRAL>
0

>  <SCORE.SYSTEM.SOLV>
0

>  <SCORE.SYSTEM.norm>
0

>  <SCORE.heavy>
10

>  <SCORE.norm>
-1.28048

>  <RMSD>
5.419

$$$$
ligand
 OpenBabel11021811473D
libRbt.so/2013.1/901 2013/11/27
 10  9  0  0  0  0  0  0  0  0999 V2000
   28.7451   16.4026   19.2322 N   0  0  0  0  0  0  0  0  0  0  0  0
   27.5995   15.4961   18.9379 C   0  0  2  0  0  0  0  0  0  0  0  0
   26.9037   15.0494   20.2159 C   0  0  0  0  0  0  0  0  0  0  0  0
   25.6969   15.2160   20.3992 O   0  0  0  0  0  0  0  0  0  0  0  0
   28.0557   14.2917   18.1174 C   0  0  0  0  0  0  0  0  0  0  0  0
   26.9118   13.3988   17.6956 C   0  0  0  0  0  0  0  0  0  0  0  0
   27.4016   12.0889   17.1384 C   0  0  0  0  0  0  0  0  0  0  0  0
   26.2531   11.1088   16.9759 C   0  0  0  0  0  0  0  0  0  0  0  0
   26.7254    9.7521   16.5955 N   0  0  0  0  0  0  0  0  0  0  0  0
   27.5331   14.4698   21.1023 O   0  0  0  0  0  0  0  0  0  0  0  0
  2  1  1  1  0  0  0
  2  3  1  0  0  0  0
  2  5  1  0  0  0  0
  3  4  1  0  0  0  0
  3 10  1  0  0  0  0
  5  6  1  0  0  0  0
  6  7  1  0  0  0  0
  7  8  1  0  0  0  0
  8  9  1  0  0  0  0
M  END
>  <CHROM.1>
124.58826711,-175.29958848,-168.41056724,168.93137000,-172.60271005,27.16756286
13.72728707,18.67560740,-1.40709136,-0.77596723,-2.42066170

>  <Name>
ligand

>  <RI>
0

>  <Rbt.Current_Directory>
/home/itssahil/PROJECTS/Mol_Feturizer/New_Systems/rnas/3DIX

>  <Rbt.Executable>
rbdock ($Id: //depot/dev/client3/rdock/2013.1/src/exe/rbdock.cxx#4 $)

>  <Rbt.Library>
libRbt.so (2013.1, Build901 2013/11/27)

>  <Rbt.Parameter_File>
/export/apps/rDock/src/rDock_2013.1_src/data/scripts/dock_solv.prm

>  <Rbt.Receptor>
prm/blind_docking_80.prm

>  <SCORE>
-12.7025

>  <SCORE.INTER>
-11.5579

>  <SCORE.INTER.CONST>
1

>  <SCORE.INTER.POLAR>
0

>  <SCORE.INTER.ROT>
5

>  <SCORE.INTER.SOLV>
14.5611

>  <SCORE.INTER.VDW>
-19.4923

>  <SCORE.INTER.norm>
-1.15579

>  <SCORE.INTRA>
-1.14457

>  <SCORE.INTRA.DIHEDRAL>
-0.472832

>  <SCORE.INTRA.DIHEDRAL.0>
3.281

>  <SCORE.INTRA.POLAR>
0

>  <SCORE.INTRA.POLAR.0>
0

>  <SCORE.INTRA.REPUL>
0

>  <SCORE.INTRA.REPUL.0>
0

>  <SCORE.INTRA.SOLV>
-1.58281

>  <SCORE.INTRA.SOLV.lig_0>
-31.9458

>  <SCORE.INTRA.VDW>
-0.116745

>  <SCORE.INTRA.VDW.0>
-0.672612

>  <SCORE.INTRA.norm>
-0.114457

>  <SCORE.RESTR>
0

>  <SCORE.RESTR.CAVITY>
0

>  <SCORE.RESTR.norm>
0

>  <SCORE.SYSTEM>
0

>  <SCORE.SYSTEM.CONST>
0

>  <SCORE.SYSTEM.DIHEDRAL>
0

>  <SCORE.SYSTEM.SOLV>
0

>  <SCORE.SYSTEM.norm>
0

>  <SCORE.heavy>
10

>  <SCORE.norm>
-1.27025

>  <RMSD>
5.420

$$$$
ligand
 OpenBabel11021811473D
libRbt.so/2013.1/901 2013/11/27
 10  9  0  0  0  0  0  0  0  0999 V2000
   28.5266   15.0928   18.9093 N   0  0  0  0  0  0  0  0  0  0  0  0
   28.1130   15.1203   20.3407 C   0  0  2  0  0  0  0  0  0  0  0  0
   26.6023   15.2457   20.4788 C   0  0  0  0  0  0  0  0  0  0  0  0
   25.9897   14.7776   21.4396 O   0  0  0  0  0  0  0  0  0  0  0  0
   28.8230   16.2452   21.0906 C   0  0  0  0  0  0  0  0  0  0  0  0
   30.3241   16.0740   21.1260 C   0  0  0  0  0  0  0  0  0  0  0  0
   30.9990   17.2088   21.8490 C   0  0  0  0  0  0  0  0  0  0  0  0
   32.5084   17.0444   21.8209 C   0  0  0  0  0  0  0  0  0  0  0  0
   33.0518   17.1059   20.4390 N   0  0  0  0  0  0  0  0  0  0  0  0
   25.9446   15.8578   19.6358 O   0  0  0  0  0  0  0  0  0  0  0  0
  2  1  1  6  0  0  0
  2  3  1  0  0  0  0
  2  5  1  0  0  0  0
  3  4  1  0  0  0  0
  3 10  1  0  0  0  0
  5  6  1  0  0  0  0
  6  7  1  0  0  0  0
  7  8  1  0  0  0  0
  8  9  1  0  0  0  0
M  END
>  <CHROM.1>
150.53423089,-62.73947873,178.96678876,-177.62444517,63.60046408,29.04298706
15.97534904,20.71435155,-2.93505970,0.26266397,1.37024958

>  <Name>
ligand

>  <RI>
0

>  <Rbt.Current_Directory>
/home/itssahil/PROJECTS/Mol_Feturizer/New_Systems/rnas/3DIX

>  <Rbt.Executable>
rbdock ($Id: //depot/dev/client3/rdock/2013.1/src/exe/rbdock.cxx#4 $)

>  <Rbt.Library>
libRbt.so (2013.1, Build901 2013/11/27)

>  <Rbt.Parameter_File>
/export/apps/rDock/src/rDock_2013.1_src/data/scripts/dock_solv.prm

>  <Rbt.Receptor>
prm/pocket_docking_4.prm

>  <SCORE>
-9.65749

>  <SCORE.INTER>
-8.92391

>  <SCORE.INTER.CONST>
1

>  <SCORE.INTER.POLAR>
0

>  <SCORE.INTER.ROT>
5

>  <SCORE.INTER.SOLV>
11.9803

>  <SCORE.INTER.VDW>
-16.876

>  <SCORE.INTER.norm>
-0.892391

>  <SCORE.INTRA>
-0.733583

>  <SCORE.INTRA.DIHEDRAL>
-1.7459

>  <SCORE.INTRA.DIHEDRAL.0>
3.281

>  <SCORE.INTRA.POLAR>
0

>  <SCORE.INTRA.POLAR.0>
0

>  <SCORE.INTRA.REPUL>
0

>  <SCORE.INTRA.REPUL.0>
0

>  <SCORE.INTRA.SOLV>
0.288941

>  <SCORE.INTRA.SOLV.lig_0>
-31.9458

>  <SCORE.INTRA.VDW>
-0.00510414

>  <SCORE.INTRA.VDW.0>
-0.672612

>  <SCORE.INTRA.norm>
-0.0733583

>  <SCORE.RESTR>
0

>  <SCORE.RESTR.CAVITY>
0

>  <SCORE.RESTR.norm>
0

>  <SCORE.SYSTEM>
0

>  <SCORE.SYSTEM.CONST>
0

>  <SCORE.SYSTEM.DIHEDRAL>
0

>  <SCORE.SYSTEM.SOLV>
0

>  <SCORE.SYSTEM.norm>
0

>  <SCORE.heavy>
10

>  <SCORE.norm>
-0.965749

>  <RMSD>
5.420

$$$$
ligand
 OpenBabel11021811473D
libRbt.so/2013.1/901 2013/11/27
 10  9  0  0  0  0  0  0  0  0999 V2000
   28.7487   16.3751   19.2491 N   0  0  0  0  0  0  0  0  0  0  0  0
   27.6073   15.4627   18.9565 C   0  0  2  0  0  0  0  0  0  0  0  0
   26.9297   14.9949   20.2368 C   0  0  0  0  0  0  0  0  0  0  0  0
   27.5520   14.4414   21.1446 O   0  0  0  0  0  0  0  0  0  0  0  0
   28.0640   14.2722   18.1164 C   0  0  0  0  0  0  0  0  0  0  0  0
   26.9225   13.3759   17.6951 C   0  0  0  0  0  0  0  0  0  0  0  0
   27.4155   12.0608   17.1532 C   0  0  0  0  0  0  0  0  0  0  0  0
   26.2632   11.0901   16.9627 C   0  0  0  0  0  0  0  0  0  0  0  0
   26.7330    9.7320   16.5842 N   0  0  0  0  0  0  0  0  0  0  0  0
   25.7266   15.1902   20.4165 O   0  0  0  0  0  0  0  0  0  0  0  0
  2  1  1  1  0  0  0
  2  3  1  0  0  0  0
  2  5  1  0  0  0  0
  3  4  1  0  0  0  0
  3 10  1  0  0  0  0
  5  6  1  0  0  0  0
  6  7  1  0  0  0  0
  7  8  1  0  0  0  0
  8  9  1  0  0  0  0
M  END
>  <CHROM.1>
-55.13585056,-175.22291544,-166.76770525,170.19372663,-173.16440402,27.18139783
13.69982664,18.68641596,-1.40353830,-0.79038144,-2.40980573

>  <Name>
ligand

>  <RI>
0

>  <Rbt.Current_Directory>
/home/itssahil/PROJECTS/Mol_Feturizer/New_Systems/rnas/3DIX

>  <Rbt.Executable>
rbdock ($Id: //depot/dev/client3/rdock/2013.1/src/exe/rbdock.cxx#4 $)

>  <Rbt.Library>
libRbt.so (2013.1, Build901 2013/11/27)

>  <Rbt.Parameter_File>
/export/apps/rDock/src/rDock_2013.1_src/data/scripts/dock_solv.prm

>  <Rbt.Receptor>
prm/blind_docking_40.prm

>  <SCORE>
-12.7957

>  <SCORE.INTER>
-11.6441

>  <SCORE.INTER.CONST>
1

>  <SCORE.INTER.POLAR>
0

>  <SCORE.INTER.ROT>
5

>  <SCORE.INTER.SOLV>
14.5146

>  <SCORE.INTER.VDW>
-19.5343

>  <SCORE.INTER.norm>
-1.16441

>  <SCORE.INTRA>
-1.15159

>  <SCORE.INTRA.DIHEDRAL>
-0.423181

>  <SCORE.INTRA.DIHEDRAL.0>
3.281

>  <SCORE.INTRA.POLAR>
0

>  <SCORE.INTRA.POLAR.0>
0

>  <SCORE.INTRA.REPUL>
0

>  <SCORE.INTRA.REPUL.0>
0

>  <SCORE.INTRA.SOLV>
-1.57484

>  <SCORE.INTRA.SOLV.lig_0>
-31.9458

>  <SCORE.INTRA.VDW>
-0.152579

>  <SCORE.INTRA.VDW.0>
-0.672612

>  <SCORE.INTRA.norm>
-0.115159

>  <SCORE.RESTR>
0

>  <SCORE.RESTR.CAVITY>
0

>  <SCORE.RESTR.norm>
0

>  <SCORE.SYSTEM>
0

>  <SCORE.SYSTEM.CONST>
0

>  <SCORE.SYSTEM.DIHEDRAL>
0

>  <SCORE.SYSTEM.SOLV>
0

>  <SCORE.SYSTEM.norm>
0

>  <SCORE.heavy>
10

>  <SCORE.norm>
-1.27957

>  <RMSD>
5.421

$$$$
ligand
 OpenBabel11021811473D
libRbt.so/2013.1/901 2013/11/27
 10  9  0  0  0  0  0  0  0  0999 V2000
   25.6247   15.1664   20.5343 N   0  0  0  0  0  0  0  0  0  0  0  0
   27.0288   15.4531   20.1257 C   0  0  2  0  0  0  0  0  0  0  0  0
   27.3244   14.9061   18.7362 C   0  0  0  0  0  0  0  0  0  0  0  0
   27.9166   15.5679   17.8824 O   0  0  0  0  0  0  0  0  0  0  0  0
   28.0172   14.8995   21.1497 C   0  0  0  0  0  0  0  0  0  0  0  0
   29.4510   15.2643   20.8416 C   0  0  0  0  0  0  0  0  0  0  0  0
   29.6611   16.7550   20.8442 C   0  0  0  0  0  0  0  0  0  0  0  0
   31.0925   17.0984   20.4712 C   0  0  0  0  0  0  0  0  0  0  0  0
   32.0596   16.6771   21.5180 N   0  0  0  0  0  0  0  0  0  0  0  0
   27.0031   13.7558   18.4342 O   0  0  0  0  0  0  0  0  0  0  0  0
  2  1  1  1  0  0  0
  2  3  1  0  0  0  0
  2  5  1  0  0  0  0
  3  4  1  0  0  0  0
  3 10  1  0  0  0  0
  5  6  1  0  0  0  0
  6  7  1  0  0  0  0
  7  8  1  0  0  0  0
  8  9  1  0  0  0  0
M  END
>  <CHROM.1>
134.49296537,-175.18159289,61.18405808,-177.44790132,-68.15386410,28.51591558
15.53926879,20.01878993,2.70992760,-0.36577916,-1.71463595

>  <Name>
ligand

>  <RI>
0

>  <Rbt.Current_Directory>
/home/itssahil/PROJECTS/Mol_Feturizer/New_Systems/rnas/3DIX

>  <Rbt.Executable>
rbdock ($Id: //depot/dev/client3/rdock/2013.1/src/exe/rbdock.cxx#4 $)

>  <Rbt.Library>
libRbt.so (2013.1, Build901 2013/11/27)

>  <Rbt.Parameter_File>
/export/apps/rDock/src/rDock_2013.1_src/data/scripts/dock_solv.prm

>  <Rbt.Receptor>
prm/pocket_docking_3.prm

>  <SCORE>
-7.86143

>  <SCORE.INTER>
-7.22146

>  <SCORE.INTER.CONST>
1

>  <SCORE.INTER.POLAR>
0

>  <SCORE.INTER.ROT>
5

>  <SCORE.INTER.SOLV>
17.222

>  <SCORE.INTER.VDW>
-17.4883

>  <SCORE.INTER.norm>
-0.722146

>  <SCORE.INTRA>
-0.639965

>  <SCORE.INTRA.DIHEDRAL>
-1.47024

>  <SCORE.INTRA.DIHEDRAL.0>
3.281

>  <SCORE.INTRA.POLAR>
0

>  <SCORE.INTRA.POLAR.0>
0

>  <SCORE.INTRA.REPUL>
0

>  <SCORE.INTRA.REPUL.0>
0

>  <SCORE.INTRA.SOLV>
-0.416151

>  <SCORE.INTRA.SOLV.lig_0>
-31.9458

>  <SCORE.INTRA.VDW>
0.30323

>  <SCORE.INTRA.VDW.0>
-0.672612

>  <SCORE.INTRA.norm>
-0.0639965

>  <SCORE.RESTR>
0

>  <SCORE.RESTR.CAVITY>
0

>  <SCORE.RESTR.norm>
0

>  <SCORE.SYSTEM>
0

>  <SCORE.SYSTEM.CONST>
0

>  <SCORE.SYSTEM.DIHEDRAL>
0

>  <SCORE.SYSTEM.SOLV>
0

>  <SCORE.SYSTEM.norm>
0

>  <SCORE.heavy>
10

>  <SCORE.norm>
-0.786143

>  <RMSD>
5.426

$$$$
ligand
 OpenBabel11021811473D
libRbt.so/2013.1/901 2013/11/27
 10  9  0  0  0  0  0  0  0  0999 V2000
   28.5089   15.1403   18.9219 N   0  0  0  0  0  0  0  0  0  0  0  0
   28.0981   15.1334   20.3544 C   0  0  2  0  0  0  0  0  0  0  0  0
   26.5893   15.2742   20.4988 C   0  0  0  0  0  0  0  0  0  0  0  0
   25.8981   15.8385   19.6494 O   0  0  0  0  0  0  0  0  0  0  0  0
   28.8235   16.2281   21.1337 C   0  0  0  0  0  0  0  0  0  0  0  0
   30.3258   16.0644   21.1195 C   0  0  0  0  0  0  0  0  0  0  0  0
   31.0184   17.2013   21.8222 C   0  0  0  0  0  0  0  0  0  0  0  0
   32.5263   17.0311   21.7668 C   0  0  0  0  0  0  0  0  0  0  0  0
   33.0538   17.1662   20.3840 N   0  0  0  0  0  0  0  0  0  0  0  0
   26.0048   14.7903   21.4694 O   0  0  0  0  0  0  0  0  0  0  0  0
  2  1  1  6  0  0  0
  2  3  1  0  0  0  0
  2  5  1  0  0  0  0
  3  4  1  0  0  0  0
  3 10  1  0  0  0  0
  5  6  1  0  0  0  0
  6  7  1  0  0  0  0
  7  8  1  0  0  0  0
  8  9  1  0  0  0  0
M  END
>  <CHROM.1>
-26.66060149,-60.67067169,176.50203224,-178.68711491,67.17462333,29.03933023
15.98421373,20.71364482,-2.95514965,0.27004272,1.40350520

>  <Name>
ligand

>  <RI>
0

>  <Rbt.Current_Directory>
/home/itssahil/PROJECTS/Mol_Feturizer/New_Systems/rnas/3DIX

>  <Rbt.Executable>
rbdock ($Id: //depot/dev/client3/rdock/2013.1/src/exe/rbdock.cxx#4 $)

>  <Rbt.Library>
libRbt.so (2013.1, Build901 2013/11/27)

>  <Rbt.Parameter_File>
/export/apps/rDock/src/rDock_2013.1_src/data/scripts/dock_solv.prm

>  <Rbt.Receptor>
prm/pocket_docking_6.prm

>  <SCORE>
-9.58087

>  <SCORE.INTER>
-8.95505

>  <SCORE.INTER.CONST>
1

>  <SCORE.INTER.POLAR>
0

>  <SCORE.INTER.ROT>
5

>  <SCORE.INTER.SOLV>
12.0127

>  <SCORE.INTER.VDW>
-16.9076

>  <SCORE.INTER.norm>
-0.895505

>  <SCORE.INTRA>
-0.625818

>  <SCORE.INTRA.DIHEDRAL>
-1.46796

>  <SCORE.INTRA.DIHEDRAL.0>
3.281

>  <SCORE.INTRA.POLAR>
0

>  <SCORE.INTRA.POLAR.0>
0

>  <SCORE.INTRA.REPUL>
0

>  <SCORE.INTRA.REPUL.0>
0

>  <SCORE.INTRA.SOLV>
0.271224

>  <SCORE.INTRA.SOLV.lig_0>
-31.9458

>  <SCORE.INTRA.VDW>
-0.0274508

>  <SCORE.INTRA.VDW.0>
-0.672612

>  <SCORE.INTRA.norm>
-0.0625818

>  <SCORE.RESTR>
0

>  <SCORE.RESTR.CAVITY>
0

>  <SCORE.RESTR.norm>
0

>  <SCORE.SYSTEM>
0

>  <SCORE.SYSTEM.CONST>
0

>  <SCORE.SYSTEM.DIHEDRAL>
0

>  <SCORE.SYSTEM.SOLV>
0

>  <SCORE.SYSTEM.norm>
0

>  <SCORE.heavy>
10

>  <SCORE.norm>
-0.958087

>  <RMSD>
5.427

$$$$
ligand
 OpenBabel11021811473D
libRbt.so/2013.1/901 2013/11/27
 10  9  0  0  0  0  0  0  0  0999 V2000
   28.1089   14.2013   18.5861 N   0  0  0  0  0  0  0  0  0  0  0  0
   28.0532   14.6845   19.9947 C   0  0  2  0  0  0  0  0  0  0  0  0
   26.6457   15.1215   20.3755 C   0  0  0  0  0  0  0  0  0  0  0  0
   26.1295   14.8098   21.4497 O   0  0  0  0  0  0  0  0  0  0  0  0
   29.0540   15.8154   20.2218 C   0  0  0  0  0  0  0  0  0  0  0  0
   30.4903   15.3702   20.0707 C   0  0  0  0  0  0  0  0  0  0  0  0
   31.4538   16.5033   20.3032 C   0  0  0  0  0  0  0  0  0  0  0  0
   31.4748   16.9011   21.7686 C   0  0  0  0  0  0  0  0  0  0  0  0
   32.4244   18.0134   22.0324 N   0  0  0  0  0  0  0  0  0  0  0  0
   25.9864   15.8384   19.6209 O   0  0  0  0  0  0  0  0  0  0  0  0
  2  1  1  6  0  0  0
  2  3  1  0  0  0  0
  2  5  1  0  0  0  0
  3  4  1  0  0  0  0
  3 10  1  0  0  0  0
  5  6  1  0  0  0  0
  6  7  1  0  0  0  0
  7  8  1  0  0  0  0
  8  9  1  0  0  0  0
M  END
>  <CHROM.1>
135.67555252,-64.94481586,-179.85261643,70.32456881,179.63662360,28.93998427
15.73062098,20.44914312,-2.74592725,0.19224683,0.96983809

>  <Name>
ligand

>  <RI>
0

>  <Rbt.Current_Directory>
/home/itssahil/PROJECTS/Mol_Feturizer/New_Systems/rnas/3DIX

>  <Rbt.Executable>
rbdock ($Id: //depot/dev/client3/rdock/2013.1/src/exe/rbdock.cxx#4 $)

>  <Rbt.Library>
libRbt.so (2013.1, Build901 2013/11/27)

>  <Rbt.Parameter_File>
/export/apps/rDock/src/rDock_2013.1_src/data/scripts/dock_solv.prm

>  <Rbt.Receptor>
prm/pocket_docking_8.prm

>  <SCORE>
-8.60069

>  <SCORE.INTER>
-8.18616

>  <SCORE.INTER.CONST>
1

>  <SCORE.INTER.POLAR>
0

>  <SCORE.INTER.ROT>
5

>  <SCORE.INTER.SOLV>
13.5126

>  <SCORE.INTER.VDW>
-16.895

>  <SCORE.INTER.norm>
-0.818616

>  <SCORE.INTRA>
-0.414535

>  <SCORE.INTRA.DIHEDRAL>
-1.29265

>  <SCORE.INTRA.DIHEDRAL.0>
3.281

>  <SCORE.INTRA.POLAR>
0

>  <SCORE.INTRA.POLAR.0>
0

>  <SCORE.INTRA.REPUL>
0

>  <SCORE.INTRA.REPUL.0>
0

>  <SCORE.INTRA.SOLV>
-0.466359

>  <SCORE.INTRA.SOLV.lig_0>
-31.9458

>  <SCORE.INTRA.VDW>
0.46497

>  <SCORE.INTRA.VDW.0>
-0.672612

>  <SCORE.INTRA.norm>
-0.0414535

>  <SCORE.RESTR>
0

>  <SCORE.RESTR.CAVITY>
0

>  <SCORE.RESTR.norm>
0

>  <SCORE.SYSTEM>
0

>  <SCORE.SYSTEM.CONST>
0

>  <SCORE.SYSTEM.DIHEDRAL>
0

>  <SCORE.SYSTEM.SOLV>
0

>  <SCORE.SYSTEM.norm>
0

>  <SCORE.heavy>
10

>  <SCORE.norm>
-0.860069

>  <RMSD>
5.428

$$$$
ligand
 OpenBabel11021811473D
libRbt.so/2013.1/901 2013/11/27
 10  9  0  0  0  0  0  0  0  0999 V2000
   28.6634   16.5063   19.1553 N   0  0  0  0  0  0  0  0  0  0  0  0
   27.5407   15.5666   18.8774 C   0  0  2  0  0  0  0  0  0  0  0  0
   26.8689   15.1096   20.1646 C   0  0  0  0  0  0  0  0  0  0  0  0
   27.4865   14.5244   21.0556 O   0  0  0  0  0  0  0  0  0  0  0  0
   28.0227   14.3697   18.0607 C   0  0  0  0  0  0  0  0  0  0  0  0
   26.9004   13.4417   17.6568 C   0  0  0  0  0  0  0  0  0  0  0  0
   27.4209   12.1260   17.1428 C   0  0  0  0  0  0  0  0  0  0  0  0
   26.2868   11.1341   16.9539 C   0  0  0  0  0  0  0  0  0  0  0  0
   26.7829    9.7766   16.6080 N   0  0  0  0  0  0  0  0  0  0  0  0
   25.6770   15.3461   20.3675 O   0  0  0  0  0  0  0  0  0  0  0  0
  2  1  1  1  0  0  0
  2  3  1  0  0  0  0
  2  5  1  0  0  0  0
  3  4  1  0  0  0  0
  3 10  1  0  0  0  0
  5  6  1  0  0  0  0
  6  7  1  0  0  0  0
  7  8  1  0  0  0  0
  8  9  1  0  0  0  0
M  END
>  <CHROM.1>
-58.90190140,-175.37698512,-166.67992183,170.93551847,-172.97823989,27.15011314
13.79077389,18.63912591,-1.42991685,-0.80524066,-2.44792676

>  <Name>
ligand

>  <RI>
0

>  <Rbt.Current_Directory>
/home/itssahil/PROJECTS/Mol_Feturizer/New_Systems/rnas/3DIX

>  <Rbt.Executable>
rbdock ($Id: //depot/dev/client3/rdock/2013.1/src/exe/rbdock.cxx#4 $)

>  <Rbt.Library>
libRbt.so (2013.1, Build901 2013/11/27)

>  <Rbt.Parameter_File>
/export/apps/rDock/src/rDock_2013.1_src/data/scripts/dock_solv.prm

>  <Rbt.Receptor>
prm/pocket_docking_6.prm

>  <SCORE>
-12.7932

>  <SCORE.INTER>
-11.6325

>  <SCORE.INTER.CONST>
1

>  <SCORE.INTER.POLAR>
0

>  <SCORE.INTER.ROT>
5

>  <SCORE.INTER.SOLV>
15.0956

>  <SCORE.INTER.VDW>
-19.7202

>  <SCORE.INTER.norm>
-1.16325

>  <SCORE.INTRA>
-1.16069

>  <SCORE.INTRA.DIHEDRAL>
-0.47976

>  <SCORE.INTRA.DIHEDRAL.0>
3.281

>  <SCORE.INTRA.POLAR>
0

>  <SCORE.INTRA.POLAR.0>
0

>  <SCORE.INTRA.REPUL>
0

>  <SCORE.INTRA.REPUL.0>
0

>  <SCORE.INTRA.SOLV>
-1.57588

>  <SCORE.INTRA.SOLV.lig_0>
-31.9458

>  <SCORE.INTRA.VDW>
-0.132876

>  <SCORE.INTRA.VDW.0>
-0.672612

>  <SCORE.INTRA.norm>
-0.116069

>  <SCORE.RESTR>
0

>  <SCORE.RESTR.CAVITY>
0

>  <SCORE.RESTR.norm>
0

>  <SCORE.SYSTEM>
0

>  <SCORE.SYSTEM.CONST>
0

>  <SCORE.SYSTEM.DIHEDRAL>
0

>  <SCORE.SYSTEM.SOLV>
0

>  <SCORE.SYSTEM.norm>
0

>  <SCORE.heavy>
10

>  <SCORE.norm>
-1.27932

>  <RMSD>
5.429

$$$$
ligand
 OpenBabel11021811473D
libRbt.so/2013.1/901 2013/11/27
 10  9  0  0  0  0  0  0  0  0999 V2000
   28.5001   15.1375   18.9190 N   0  0  0  0  0  0  0  0  0  0  0  0
   28.0865   15.1347   20.3506 C   0  0  2  0  0  0  0  0  0  0  0  0
   26.5771   15.2722   20.4917 C   0  0  0  0  0  0  0  0  0  0  0  0
   25.8896   15.8556   19.6522 O   0  0  0  0  0  0  0  0  0  0  0  0
   28.8078   16.2340   21.1273 C   0  0  0  0  0  0  0  0  0  0  0  0
   30.3099   16.0685   21.1250 C   0  0  0  0  0  0  0  0  0  0  0  0
   30.9978   17.1994   21.8420 C   0  0  0  0  0  0  0  0  0  0  0  0
   32.5064   17.0365   21.7839 C   0  0  0  0  0  0  0  0  0  0  0  0
   33.0299   17.1669   20.3991 N   0  0  0  0  0  0  0  0  0  0  0  0
   25.9886   14.7665   21.4486 O   0  0  0  0  0  0  0  0  0  0  0  0
  2  1  1  6  0  0  0
  2  3  1  0  0  0  0
  2  5  1  0  0  0  0
  3  4  1  0  0  0  0
  3 10  1  0  0  0  0
  5  6  1  0  0  0  0
  6  7  1  0  0  0  0
  7  8  1  0  0  0  0
  8  9  1  0  0  0  0
M  END
>  <CHROM.1>
-28.17523506,-61.08820276,177.32771825,-177.99683773,66.12488471,29.02400968
15.98451866,20.71544811,-2.95086774,0.27070387,1.40323469

>  <Name>
ligand

>  <RI>
0

>  <Rbt.Current_Directory>
/home/itssahil/PROJECTS/Mol_Feturizer/New_Systems/rnas/3DIX

>  <Rbt.Executable>
rbdock ($Id: //depot/dev/client3/rdock/2013.1/src/exe/rbdock.cxx#4 $)

>  <Rbt.Library>
libRbt.so (2013.1, Build901 2013/11/27)

>  <Rbt.Parameter_File>
/export/apps/rDock/src/rDock_2013.1_src/data/scripts/dock_solv.prm

>  <Rbt.Receptor>
prm/blind_docking_60.prm

>  <SCORE>
-9.58074

>  <SCORE.INTER>
-8.9289

>  <SCORE.INTER.CONST>
1

>  <SCORE.INTER.POLAR>
0

>  <SCORE.INTER.ROT>
5

>  <SCORE.INTER.SOLV>
11.9719

>  <SCORE.INTER.VDW>
-16.8766

>  <SCORE.INTER.norm>
-0.89289

>  <SCORE.INTRA>
-0.651846

>  <SCORE.INTRA.DIHEDRAL>
-1.52735

>  <SCORE.INTRA.DIHEDRAL.0>
3.281

>  <SCORE.INTRA.POLAR>
0

>  <SCORE.INTRA.POLAR.0>
0

>  <SCORE.INTRA.REPUL>
0

>  <SCORE.INTRA.REPUL.0>
0

>  <SCORE.INTRA.SOLV>
0.279984

>  <SCORE.INTRA.SOLV.lig_0>
-31.9458

>  <SCORE.INTRA.VDW>
-0.0281653

>  <SCORE.INTRA.VDW.0>
-0.672612

>  <SCORE.INTRA.norm>
-0.0651846

>  <SCORE.RESTR>
0

>  <SCORE.RESTR.CAVITY>
0

>  <SCORE.RESTR.norm>
0

>  <SCORE.SYSTEM>
0

>  <SCORE.SYSTEM.CONST>
0

>  <SCORE.SYSTEM.DIHEDRAL>
0

>  <SCORE.SYSTEM.SOLV>
0

>  <SCORE.SYSTEM.norm>
0

>  <SCORE.heavy>
10

>  <SCORE.norm>
-0.958074

>  <RMSD>
5.430

$$$$
ligand
 OpenBabel11021811473D
libRbt.so/2013.1/901 2013/11/27
 10  9  0  0  0  0  0  0  0  0999 V2000
   28.4678   14.6688   18.9796 N   0  0  0  0  0  0  0  0  0  0  0  0
   28.1051   15.3982   20.2274 C   0  0  2  0  0  0  0  0  0  0  0  0
   26.6195   15.2688   20.5331 C   0  0  0  0  0  0  0  0  0  0  0  0
   26.2051   14.7340   21.5627 O   0  0  0  0  0  0  0  0  0  0  0  0
   28.5163   16.8661   20.1386 C   0  0  0  0  0  0  0  0  0  0  0  0
   30.0075   17.0515   19.9774 C   0  0  0  0  0  0  0  0  0  0  0  0
   30.7428   16.8154   21.2696 C   0  0  0  0  0  0  0  0  0  0  0  0
   32.2294   17.0740   21.0992 C   0  0  0  0  0  0  0  0  0  0  0  0
   32.9673   16.9622   22.3843 N   0  0  0  0  0  0  0  0  0  0  0  0
   25.7783   15.7328   19.7618 O   0  0  0  0  0  0  0  0  0  0  0  0
  2  1  1  6  0  0  0
  2  3  1  0  0  0  0
  2  5  1  0  0  0  0
  3  4  1  0  0  0  0
  3 10  1  0  0  0  0
  5  6  1  0  0  0  0
  6  7  1  0  0  0  0
  7  8  1  0  0  0  0
  8  9  1  0  0  0  0
M  END
>  <CHROM.1>
118.42917050,-61.67220079,-75.51741678,-177.20743549,175.13140660,28.91993766
16.05017079,20.59873159,-2.98285195,0.32991590,1.69623789

>  <Name>
ligand

>  <RI>
0

>  <Rbt.Current_Directory>
/home/itssahil/PROJECTS/Mol_Feturizer/New_Systems/rnas/3DIX

>  <Rbt.Executable>
rbdock ($Id: //depot/dev/client3/rdock/2013.1/src/exe/rbdock.cxx#4 $)

>  <Rbt.Library>
libRbt.so (2013.1, Build901 2013/11/27)

>  <Rbt.Parameter_File>
/export/apps/rDock/src/rDock_2013.1_src/data/scripts/dock_solv.prm

>  <Rbt.Receptor>
prm/pocket_docking_8.prm

>  <SCORE>
-7.08359

>  <SCORE.INTER>
-6.65393

>  <SCORE.INTER.CONST>
1

>  <SCORE.INTER.POLAR>
0

>  <SCORE.INTER.ROT>
5

>  <SCORE.INTER.SOLV>
14.8032

>  <SCORE.INTER.VDW>
-16.3037

>  <SCORE.INTER.norm>
-0.665393

>  <SCORE.INTRA>
-0.429654

>  <SCORE.INTRA.DIHEDRAL>
-0.686772

>  <SCORE.INTRA.DIHEDRAL.0>
3.281

>  <SCORE.INTRA.POLAR>
0

>  <SCORE.INTRA.POLAR.0>
0

>  <SCORE.INTRA.REPUL>
0

>  <SCORE.INTRA.REPUL.0>
0

>  <SCORE.INTRA.SOLV>
-0.27814

>  <SCORE.INTRA.SOLV.lig_0>
-31.9458

>  <SCORE.INTRA.VDW>
0.0528018

>  <SCORE.INTRA.VDW.0>
-0.672612

>  <SCORE.INTRA.norm>
-0.0429654

>  <SCORE.RESTR>
0

>  <SCORE.RESTR.CAVITY>
0

>  <SCORE.RESTR.norm>
0

>  <SCORE.SYSTEM>
0

>  <SCORE.SYSTEM.CONST>
0

>  <SCORE.SYSTEM.DIHEDRAL>
0

>  <SCORE.SYSTEM.SOLV>
0

>  <SCORE.SYSTEM.norm>
0

>  <SCORE.heavy>
10

>  <SCORE.norm>
-0.708359

>  <RMSD>
5.433

$$$$
ligand
 OpenBabel11021811473D
libRbt.so/2013.1/901 2013/11/27
 10  9  0  0  0  0  0  0  0  0999 V2000
   28.5905   14.5201   22.0026 N   0  0  0  0  0  0  0  0  0  0  0  0
   28.3362   15.6520   21.0673 C   0  0  2  0  0  0  0  0  0  0  0  0
   26.9029   15.6362   20.5549 C   0  0  0  0  0  0  0  0  0  0  0  0
   26.0334   14.9234   21.0586 O   0  0  0  0  0  0  0  0  0  0  0  0
   29.3289   15.6327   19.9071 C   0  0  0  0  0  0  0  0  0  0  0  0
   30.7655   15.7591   20.3588 C   0  0  0  0  0  0  0  0  0  0  0  0
   31.0382   17.1004   20.9855 C   0  0  0  0  0  0  0  0  0  0  0  0
   32.4732   17.1851   21.4750 C   0  0  0  0  0  0  0  0  0  0  0  0
   32.7683   18.4920   22.1182 N   0  0  0  0  0  0  0  0  0  0  0  0
   26.5604   16.3726   19.6285 O   0  0  0  0  0  0  0  0  0  0  0  0
  2  1  1  1  0  0  0
  2  3  1  0  0  0  0
  2  5  1  0  0  0  0
  3  4  1  0  0  0  0
  3 10  1  0  0  0  0
  5  6  1  0  0  0  0
  6  7  1  0  0  0  0
  7  8  1  0  0  0  0
  8  9  1  0  0  0  0
M  END
>  <CHROM.1>
12.42731973,-60.38572768,-65.50407451,177.99844860,-179.14225089,29.23664942
16.12425797,20.90340536,-2.94716359,-0.34730679,-0.64276205

>  <Name>
ligand

>  <RI>
0

>  <Rbt.Current_Directory>
/home/itssahil/PROJECTS/Mol_Feturizer/New_Systems/rnas/3DIX

>  <Rbt.Executable>
rbdock ($Id: //depot/dev/client3/rdock/2013.1/src/exe/rbdock.cxx#4 $)

>  <Rbt.Library>
libRbt.so (2013.1, Build901 2013/11/27)

>  <Rbt.Parameter_File>
/export/apps/rDock/src/rDock_2013.1_src/data/scripts/dock_solv.prm

>  <Rbt.Receptor>
prm/pocket_docking_7.prm

>  <SCORE>
-7.32486

>  <SCORE.INTER>
-6.96877

>  <SCORE.INTER.CONST>
1

>  <SCORE.INTER.POLAR>
0

>  <SCORE.INTER.ROT>
5

>  <SCORE.INTER.SOLV>
16.5007

>  <SCORE.INTER.VDW>
-17.0794

>  <SCORE.INTER.norm>
-0.696877

>  <SCORE.INTRA>
-0.356087

>  <SCORE.INTRA.DIHEDRAL>
-1.6796

>  <SCORE.INTRA.DIHEDRAL.0>
3.281

>  <SCORE.INTRA.POLAR>
0

>  <SCORE.INTRA.POLAR.0>
0

>  <SCORE.INTRA.REPUL>
0

>  <SCORE.INTRA.REPUL.0>
0

>  <SCORE.INTRA.SOLV>
-0.115028

>  <SCORE.INTRA.SOLV.lig_0>
-31.9458

>  <SCORE.INTRA.VDW>
0.541226

>  <SCORE.INTRA.VDW.0>
-0.672612

>  <SCORE.INTRA.norm>
-0.0356087

>  <SCORE.RESTR>
0

>  <SCORE.RESTR.CAVITY>
0

>  <SCORE.RESTR.norm>
0

>  <SCORE.SYSTEM>
0

>  <SCORE.SYSTEM.CONST>
0

>  <SCORE.SYSTEM.DIHEDRAL>
0

>  <SCORE.SYSTEM.SOLV>
0

>  <SCORE.SYSTEM.norm>
0

>  <SCORE.heavy>
10

>  <SCORE.norm>
-0.732486

>  <RMSD>
5.434

$$$$
ligand
 OpenBabel11021811473D
libRbt.so/2013.1/901 2013/11/27
 10  9  0  0  0  0  0  0  0  0999 V2000
   28.4844   15.1148   18.8831 N   0  0  0  0  0  0  0  0  0  0  0  0
   28.0710   15.1253   20.3148 C   0  0  2  0  0  0  0  0  0  0  0  0
   26.5614   15.2616   20.4547 C   0  0  0  0  0  0  0  0  0  0  0  0
   25.8712   15.8241   19.6033 O   0  0  0  0  0  0  0  0  0  0  0  0
   28.7905   16.2332   21.0807 C   0  0  0  0  0  0  0  0  0  0  0  0
   30.2936   16.0767   21.0696 C   0  0  0  0  0  0  0  0  0  0  0  0
   30.9773   17.1963   21.8080 C   0  0  0  0  0  0  0  0  0  0  0  0
   32.4862   17.0332   21.7575 C   0  0  0  0  0  0  0  0  0  0  0  0
   33.0151   17.1486   20.3735 N   0  0  0  0  0  0  0  0  0  0  0  0
   25.9754   14.7758   21.4235 O   0  0  0  0  0  0  0  0  0  0  0  0
  2  1  1  6  0  0  0
  2  3  1  0  0  0  0
  2  5  1  0  0  0  0
  3  4  1  0  0  0  0
  3 10  1  0  0  0  0
  5  6  1  0  0  0  0
  6  7  1  0  0  0  0
  7  8  1  0  0  0  0
  8  9  1  0  0  0  0
M  END
>  <CHROM.1>
-27.44088965,-60.58863011,178.86954467,-178.78095400,64.63495986,29.00723871
15.97629825,20.67835155,-2.94595973,0.26883002,1.39091936

>  <Name>
ligand

>  <RI>
0

>  <Rbt.Current_Directory>
/home/itssahil/PROJECTS/Mol_Feturizer/New_Systems/rnas/3DIX

>  <Rbt.Executable>
rbdock ($Id: //depot/dev/client3/rdock/2013.1/src/exe/rbdock.cxx#4 $)

>  <Rbt.Library>
libRbt.so (2013.1, Build901 2013/11/27)

>  <Rbt.Parameter_File>
/export/apps/rDock/src/rDock_2013.1_src/data/scripts/dock_solv.prm

>  <Rbt.Receptor>
prm/pocket_docking_8.prm

>  <SCORE>
-9.5601

>  <SCORE.INTER>
-8.89291

>  <SCORE.INTER.CONST>
1

>  <SCORE.INTER.POLAR>
0

>  <SCORE.INTER.ROT>
5

>  <SCORE.INTER.SOLV>
12.0334

>  <SCORE.INTER.VDW>
-16.8731

>  <SCORE.INTER.norm>
-0.889291

>  <SCORE.INTRA>
-0.667194

>  <SCORE.INTRA.DIHEDRAL>
-1.62674

>  <SCORE.INTRA.DIHEDRAL.0>
3.281

>  <SCORE.INTRA.POLAR>
0

>  <SCORE.INTRA.POLAR.0>
0

>  <SCORE.INTRA.REPUL>
0

>  <SCORE.INTRA.REPUL.0>
0

>  <SCORE.INTRA.SOLV>
0.295411

>  <SCORE.INTRA.SOLV.lig_0>
-31.9458

>  <SCORE.INTRA.VDW>
-0.00152677

>  <SCORE.INTRA.VDW.0>
-0.672612

>  <SCORE.INTRA.norm>
-0.0667194

>  <SCORE.RESTR>
0

>  <SCORE.RESTR.CAVITY>
0

>  <SCORE.RESTR.norm>
0

>  <SCORE.SYSTEM>
0

>  <SCORE.SYSTEM.CONST>
0

>  <SCORE.SYSTEM.DIHEDRAL>
0

>  <SCORE.SYSTEM.SOLV>
0

>  <SCORE.SYSTEM.norm>
0

>  <SCORE.heavy>
10

>  <SCORE.norm>
-0.95601

>  <RMSD>
5.434

$$$$
ligand
 OpenBabel11021811473D
libRbt.so/2013.1/901 2013/11/27
 10  9  0  0  0  0  0  0  0  0999 V2000
   27.1312   15.3407   20.1829 N   0  0  0  0  0  0  0  0  0  0  0  0
   28.1583   15.6032   19.1357 C   0  0  2  0  0  0  0  0  0  0  0  0
   27.7295   15.0443   17.7863 C   0  0  0  0  0  0  0  0  0  0  0  0
   28.0818   15.5551   16.7220 O   0  0  0  0  0  0  0  0  0  0  0  0
   29.5154   15.0398   19.5513 C   0  0  0  0  0  0  0  0  0  0  0  0
   30.0739   15.7018   20.7897 C   0  0  0  0  0  0  0  0  0  0  0  0
   30.3308   17.1690   20.5713 C   0  0  0  0  0  0  0  0  0  0  0  0
   30.9484   17.7982   21.8077 C   0  0  0  0  0  0  0  0  0  0  0  0
   32.3457   17.3425   22.0283 N   0  0  0  0  0  0  0  0  0  0  0  0
   27.0340   14.0295   17.7207 O   0  0  0  0  0  0  0  0  0  0  0  0
  2  1  1  1  0  0  0
  2  3  1  0  0  0  0
  2  5  1  0  0  0  0
  3  4  1  0  0  0  0
  3 10  1  0  0  0  0
  5  6  1  0  0  0  0
  6  7  1  0  0  0  0
  7  8  1  0  0  0  0
  8  9  1  0  0  0  0
M  END
>  <CHROM.1>
150.11025209,-63.58259805,-62.70286363,-177.48077797,70.18720960,29.11768283
15.84588636,19.59170774,2.41668485,-0.53327514,-1.61296986

>  <Name>
ligand

>  <RI>
0

>  <Rbt.Current_Directory>
/home/itssahil/PROJECTS/Mol_Feturizer/New_Systems/rnas/3DIX

>  <Rbt.Executable>
rbdock ($Id: //depot/dev/client3/rdock/2013.1/src/exe/rbdock.cxx#4 $)

>  <Rbt.Library>
libRbt.so (2013.1, Build901 2013/11/27)

>  <Rbt.Parameter_File>
/export/apps/rDock/src/rDock_2013.1_src/data/scripts/dock_solv.prm

>  <Rbt.Receptor>
prm/pocket_docking_4.prm

>  <SCORE>
-7.3545

>  <SCORE.INTER>
-7.33431

>  <SCORE.INTER.CONST>
1

>  <SCORE.INTER.POLAR>
0

>  <SCORE.INTER.ROT>
5

>  <SCORE.INTER.SOLV>
12.3845

>  <SCORE.INTER.VDW>
-15.9511

>  <SCORE.INTER.norm>
-0.733431

>  <SCORE.INTRA>
-0.0201893

>  <SCORE.INTRA.DIHEDRAL>
-1.3595

>  <SCORE.INTRA.DIHEDRAL.0>
3.281

>  <SCORE.INTRA.POLAR>
0

>  <SCORE.INTRA.POLAR.0>
0

>  <SCORE.INTRA.REPUL>
0

>  <SCORE.INTRA.REPUL.0>
0

>  <SCORE.INTRA.SOLV>
0.720419

>  <SCORE.INTRA.SOLV.lig_0>
-31.9458

>  <SCORE.INTRA.VDW>
0.299352

>  <SCORE.INTRA.VDW.0>
-0.672612

>  <SCORE.INTRA.norm>
-0.00201893

>  <SCORE.RESTR>
0

>  <SCORE.RESTR.CAVITY>
0

>  <SCORE.RESTR.norm>
0

>  <SCORE.SYSTEM>
0

>  <SCORE.SYSTEM.CONST>
0

>  <SCORE.SYSTEM.DIHEDRAL>
0

>  <SCORE.SYSTEM.SOLV>
0

>  <SCORE.SYSTEM.norm>
0

>  <SCORE.heavy>
10

>  <SCORE.norm>
-0.73545

>  <RMSD>
5.436

$$$$
ligand
 OpenBabel11021811473D
libRbt.so/2013.1/901 2013/11/27
 10  9  0  0  0  0  0  0  0  0999 V2000
   28.4265   15.2295   18.8512 N   0  0  0  0  0  0  0  0  0  0  0  0
   28.0573   15.1484   20.2926 C   0  0  2  0  0  0  0  0  0  0  0  0
   26.5504   15.2451   20.4850 C   0  0  0  0  0  0  0  0  0  0  0  0
   25.9817   14.7653   21.4669 O   0  0  0  0  0  0  0  0  0  0  0  0
   28.7790   16.2246   21.1005 C   0  0  0  0  0  0  0  0  0  0  0  0
   30.2826   16.0759   21.0690 C   0  0  0  0  0  0  0  0  0  0  0  0
   30.9693   17.1812   21.8261 C   0  0  0  0  0  0  0  0  0  0  0  0
   32.4777   17.0142   21.7740 C   0  0  0  0  0  0  0  0  0  0  0  0
   33.0088   17.1579   20.3934 N   0  0  0  0  0  0  0  0  0  0  0  0
   25.8514   15.8447   19.6667 O   0  0  0  0  0  0  0  0  0  0  0  0
  2  1  1  6  0  0  0
  2  3  1  0  0  0  0
  2  5  1  0  0  0  0
  3  4  1  0  0  0  0
  3 10  1  0  0  0  0
  5  6  1  0  0  0  0
  6  7  1  0  0  0  0
  7  8  1  0  0  0  0
  8  9  1  0  0  0  0
M  END
>  <CHROM.1>
154.70115633,-62.28761844,177.67593737,-179.70113388,64.95063840,28.99325496
15.98612599,20.69514438,-2.96142024,0.27443612,1.43670672

>  <Name>
ligand

>  <RI>
0

>  <Rbt.Current_Directory>
/home/itssahil/PROJECTS/Mol_Feturizer/New_Systems/rnas/3DIX

>  <Rbt.Executable>
rbdock ($Id: //depot/dev/client3/rdock/2013.1/src/exe/rbdock.cxx#4 $)

>  <Rbt.Library>
libRbt.so (2013.1, Build901 2013/11/27)

>  <Rbt.Parameter_File>
/export/apps/rDock/src/rDock_2013.1_src/data/scripts/dock_solv.prm

>  <Rbt.Receptor>
prm/pocket_docking_4.prm

>  <SCORE>
-9.68943

>  <SCORE.INTER>
-8.97057

>  <SCORE.INTER.CONST>
1

>  <SCORE.INTER.POLAR>
0

>  <SCORE.INTER.ROT>
5

>  <SCORE.INTER.SOLV>
11.8817

>  <SCORE.INTER.VDW>
-16.8743

>  <SCORE.INTER.norm>
-0.897057

>  <SCORE.INTRA>
-0.718861

>  <SCORE.INTRA.DIHEDRAL>
-1.71679

>  <SCORE.INTRA.DIHEDRAL.0>
3.281

>  <SCORE.INTRA.POLAR>
0

>  <SCORE.INTRA.POLAR.0>
0

>  <SCORE.INTRA.REPUL>
0

>  <SCORE.INTRA.REPUL.0>
0

>  <SCORE.INTRA.SOLV>
0.273546

>  <SCORE.INTRA.SOLV.lig_0>
-31.9458

>  <SCORE.INTRA.VDW>
0.00276266

>  <SCORE.INTRA.VDW.0>
-0.672612

>  <SCORE.INTRA.norm>
-0.0718861

>  <SCORE.RESTR>
0

>  <SCORE.RESTR.CAVITY>
0

>  <SCORE.RESTR.norm>
0

>  <SCORE.SYSTEM>
0

>  <SCORE.SYSTEM.CONST>
0

>  <SCORE.SYSTEM.DIHEDRAL>
0

>  <SCORE.SYSTEM.SOLV>
0

>  <SCORE.SYSTEM.norm>
0

>  <SCORE.heavy>
10

>  <SCORE.norm>
-0.968943

>  <RMSD>
5.436

$$$$
ligand
 OpenBabel11021811473D
libRbt.so/2013.1/901 2013/11/27
 10  9  0  0  0  0  0  0  0  0999 V2000
   27.1490   14.1461   18.4039 N   0  0  0  0  0  0  0  0  0  0  0  0
   27.7961   14.4949   19.7002 C   0  0  2  0  0  0  0  0  0  0  0  0
   26.7822   15.0378   20.6973 C   0  0  0  0  0  0  0  0  0  0  0  0
   25.6533   15.3949   20.3573 O   0  0  0  0  0  0  0  0  0  0  0  0
   28.9367   15.4881   19.4889 C   0  0  0  0  0  0  0  0  0  0  0  0
   29.7868   15.6804   20.7235 C   0  0  0  0  0  0  0  0  0  0  0  0
   30.8382   16.7381   20.5187 C   0  0  0  0  0  0  0  0  0  0  0  0
   31.7177   16.8696   21.7496 C   0  0  0  0  0  0  0  0  0  0  0  0
   32.7526   17.9238   21.5874 N   0  0  0  0  0  0  0  0  0  0  0  0
   27.0566   15.1048   21.8965 O   0  0  0  0  0  0  0  0  0  0  0  0
  2  1  1  6  0  0  0
  2  3  1  0  0  0  0
  2  5  1  0  0  0  0
  3  4  1  0  0  0  0
  3 10  1  0  0  0  0
  5  6  1  0  0  0  0
  6  7  1  0  0  0  0
  7  8  1  0  0  0  0
  8  9  1  0  0  0  0
M  END
>  <CHROM.1>
-14.13343186,-169.40402308,-175.76364067,-177.48175754,-179.01243275,28.81394313
15.69329038,20.53282110,-2.77799814,0.31510333,1.18436242

>  <Name>
ligand

>  <RI>
0

>  <Rbt.Current_Directory>
/home/itssahil/PROJECTS/Mol_Feturizer/New_Systems/rnas/3DIX

>  <Rbt.Executable>
rbdock ($Id: //depot/dev/client3/rdock/2013.1/src/exe/rbdock.cxx#4 $)

>  <Rbt.Library>
libRbt.so (2013.1, Build901 2013/11/27)

>  <Rbt.Parameter_File>
/export/apps/rDock/src/rDock_2013.1_src/data/scripts/dock_solv.prm

>  <Rbt.Receptor>
prm/pocket_docking_5.prm

>  <SCORE>
-8.91062

>  <SCORE.INTER>
-7.51272

>  <SCORE.INTER.CONST>
1

>  <SCORE.INTER.POLAR>
0

>  <SCORE.INTER.ROT>
5

>  <SCORE.INTER.SOLV>
15.6439

>  <SCORE.INTER.VDW>
-17.1564

>  <SCORE.INTER.norm>
-0.751272

>  <SCORE.INTRA>
-1.3979

>  <SCORE.INTRA.DIHEDRAL>
-1.22214

>  <SCORE.INTRA.DIHEDRAL.0>
3.281

>  <SCORE.INTRA.POLAR>
0

>  <SCORE.INTRA.POLAR.0>
0

>  <SCORE.INTRA.REPUL>
0

>  <SCORE.INTRA.REPUL.0>
0

>  <SCORE.INTRA.SOLV>
-1.56154

>  <SCORE.INTRA.SOLV.lig_0>
-31.9458

>  <SCORE.INTRA.VDW>
-0.00605652

>  <SCORE.INTRA.VDW.0>
-0.672612

>  <SCORE.INTRA.norm>
-0.13979

>  <SCORE.RESTR>
0

>  <SCORE.RESTR.CAVITY>
0

>  <SCORE.RESTR.norm>
0

>  <SCORE.SYSTEM>
0

>  <SCORE.SYSTEM.CONST>
0

>  <SCORE.SYSTEM.DIHEDRAL>
0

>  <SCORE.SYSTEM.SOLV>
0

>  <SCORE.SYSTEM.norm>
0

>  <SCORE.heavy>
10

>  <SCORE.norm>
-0.891062

>  <RMSD>
5.436

$$$$
ligand
 OpenBabel11021811473D
libRbt.so/2013.1/901 2013/11/27
 10  9  0  0  0  0  0  0  0  0999 V2000
   28.6558   16.4850   19.1563 N   0  0  0  0  0  0  0  0  0  0  0  0
   27.5400   15.5335   18.8912 C   0  0  2  0  0  0  0  0  0  0  0  0
   26.8587   15.1046   20.1830 C   0  0  0  0  0  0  0  0  0  0  0  0
   27.4767   14.5706   21.1053 O   0  0  0  0  0  0  0  0  0  0  0  0
   28.0348   14.3195   18.1081 C   0  0  0  0  0  0  0  0  0  0  0  0
   26.9161   13.3961   17.6841 C   0  0  0  0  0  0  0  0  0  0  0  0
   27.4413   12.0863   17.1597 C   0  0  0  0  0  0  0  0  0  0  0  0
   26.3092   11.0955   16.9527 C   0  0  0  0  0  0  0  0  0  0  0  0
   26.8092    9.7401   16.6042 N   0  0  0  0  0  0  0  0  0  0  0  0
   25.6571   15.3136   20.3571 O   0  0  0  0  0  0  0  0  0  0  0  0
  2  1  1  1  0  0  0
  2  3  1  0  0  0  0
  2  5  1  0  0  0  0
  3  4  1  0  0  0  0
  3 10  1  0  0  0  0
  5  6  1  0  0  0  0
  6  7  1  0  0  0  0
  7  8  1  0  0  0  0
  8  9  1  0  0  0  0
M  END
>  <CHROM.1>
-57.27235720,-173.80087057,-168.74440327,170.81360699,-172.62335854,27.15468541
13.76581211,18.65514819,-1.44163122,-0.78936533,-2.45623913

>  <Name>
ligand

>  <RI>
0

>  <Rbt.Current_Directory>
/home/itssahil/PROJECTS/Mol_Feturizer/New_Systems/rnas/3DIX

>  <Rbt.Executable>
rbdock ($Id: //depot/dev/client3/rdock/2013.1/src/exe/rbdock.cxx#4 $)

>  <Rbt.Library>
libRbt.so (2013.1, Build901 2013/11/27)

>  <Rbt.Parameter_File>
/export/apps/rDock/src/rDock_2013.1_src/data/scripts/dock_solv.prm

>  <Rbt.Receptor>
prm/pocket_docking_8.prm

>  <SCORE>
-12.7912

>  <SCORE.INTER>
-11.5453

>  <SCORE.INTER.CONST>
1

>  <SCORE.INTER.POLAR>
0

>  <SCORE.INTER.ROT>
5

>  <SCORE.INTER.SOLV>
15.0517

>  <SCORE.INTER.VDW>
-19.6475

>  <SCORE.INTER.norm>
-1.15453

>  <SCORE.INTRA>
-1.24582

>  <SCORE.INTRA.DIHEDRAL>
-0.580906

>  <SCORE.INTRA.DIHEDRAL.0>
3.281

>  <SCORE.INTRA.POLAR>
0

>  <SCORE.INTRA.POLAR.0>
0

>  <SCORE.INTRA.REPUL>
0

>  <SCORE.INTRA.REPUL.0>
0

>  <SCORE.INTRA.SOLV>
-1.57392

>  <SCORE.INTRA.SOLV.lig_0>
-31.9458

>  <SCORE.INTRA.VDW>
-0.168413

>  <SCORE.INTRA.VDW.0>
-0.672612

>  <SCORE.INTRA.norm>
-0.124582

>  <SCORE.RESTR>
0

>  <SCORE.RESTR.CAVITY>
0

>  <SCORE.RESTR.norm>
0

>  <SCORE.SYSTEM>
0

>  <SCORE.SYSTEM.CONST>
0

>  <SCORE.SYSTEM.DIHEDRAL>
0

>  <SCORE.SYSTEM.SOLV>
0

>  <SCORE.SYSTEM.norm>
0

>  <SCORE.heavy>
10

>  <SCORE.norm>
-1.27912

>  <RMSD>
5.439

$$$$
ligand
 OpenBabel11021811473D
libRbt.so/2013.1/901 2013/11/27
 10  9  0  0  0  0  0  0  0  0999 V2000
   28.6562   16.4608   19.1295 N   0  0  0  0  0  0  0  0  0  0  0  0
   27.5345   15.5108   18.8845 C   0  0  2  0  0  0  0  0  0  0  0  0
   26.8958   15.0590   20.1903 C   0  0  0  0  0  0  0  0  0  0  0  0
   27.5442   14.5117   21.0835 O   0  0  0  0  0  0  0  0  0  0  0  0
   28.0065   14.3111   18.0662 C   0  0  0  0  0  0  0  0  0  0  0  0
   26.8800   13.3793   17.6831 C   0  0  0  0  0  0  0  0  0  0  0  0
   27.3953   12.0794   17.1256 C   0  0  0  0  0  0  0  0  0  0  0  0
   26.2688   11.0721   16.9769 C   0  0  0  0  0  0  0  0  0  0  0  0
   26.7666    9.7326   16.5688 N   0  0  0  0  0  0  0  0  0  0  0  0
   25.7000   15.2618   20.4061 O   0  0  0  0  0  0  0  0  0  0  0  0
  2  1  1  1  0  0  0
  2  3  1  0  0  0  0
  2  5  1  0  0  0  0
  3  4  1  0  0  0  0
  3 10  1  0  0  0  0
  5  6  1  0  0  0  0
  6  7  1  0  0  0  0
  7  8  1  0  0  0  0
  8  9  1  0  0  0  0
M  END
>  <CHROM.1>
-57.26414513,-174.78509555,-168.52834813,170.04941593,-173.80047341,27.15067401
13.73861888,18.64679700,-1.41795931,-0.81849408,-2.43218759

>  <Name>
ligand

>  <RI>
0

>  <Rbt.Current_Directory>
/home/itssahil/PROJECTS/Mol_Feturizer/New_Systems/rnas/3DIX

>  <Rbt.Executable>
rbdock ($Id: //depot/dev/client3/rdock/2013.1/src/exe/rbdock.cxx#4 $)

>  <Rbt.Library>
libRbt.so (2013.1, Build901 2013/11/27)

>  <Rbt.Parameter_File>
/export/apps/rDock/src/rDock_2013.1_src/data/scripts/dock_solv.prm

>  <Rbt.Receptor>
prm/pocket_docking_6.prm

>  <SCORE>
-12.7801

>  <SCORE.INTER>
-11.5408

>  <SCORE.INTER.CONST>
1

>  <SCORE.INTER.POLAR>
0

>  <SCORE.INTER.ROT>
5

>  <SCORE.INTER.SOLV>
15.0768

>  <SCORE.INTER.VDW>
-19.6528

>  <SCORE.INTER.norm>
-1.15408

>  <SCORE.INTRA>
-1.23934

>  <SCORE.INTRA.DIHEDRAL>
-0.603739

>  <SCORE.INTRA.DIHEDRAL.0>
3.281

>  <SCORE.INTRA.POLAR>
0

>  <SCORE.INTRA.POLAR.0>
0

>  <SCORE.INTRA.REPUL>
0

>  <SCORE.INTRA.REPUL.0>
0

>  <SCORE.INTRA.SOLV>
-1.57572

>  <SCORE.INTRA.SOLV.lig_0>
-31.9458

>  <SCORE.INTRA.VDW>
-0.149609

>  <SCORE.INTRA.VDW.0>
-0.672612

>  <SCORE.INTRA.norm>
-0.123934

>  <SCORE.RESTR>
0

>  <SCORE.RESTR.CAVITY>
0

>  <SCORE.RESTR.norm>
0

>  <SCORE.SYSTEM>
0

>  <SCORE.SYSTEM.CONST>
0

>  <SCORE.SYSTEM.DIHEDRAL>
0

>  <SCORE.SYSTEM.SOLV>
0

>  <SCORE.SYSTEM.norm>
0

>  <SCORE.heavy>
10

>  <SCORE.norm>
-1.27801

>  <RMSD>
5.442

$$$$
ligand
 OpenBabel11021811473D
libRbt.so/2013.1/901 2013/11/27
 10  9  0  0  0  0  0  0  0  0999 V2000
   28.4138   15.2174   18.8704 N   0  0  0  0  0  0  0  0  0  0  0  0
   28.0328   15.1519   20.3095 C   0  0  2  0  0  0  0  0  0  0  0  0
   26.5245   15.2522   20.4885 C   0  0  0  0  0  0  0  0  0  0  0  0
   25.9433   14.7541   21.4538 O   0  0  0  0  0  0  0  0  0  0  0  0
   28.7490   16.2360   21.1118 C   0  0  0  0  0  0  0  0  0  0  0  0
   30.2514   16.0730   21.1121 C   0  0  0  0  0  0  0  0  0  0  0  0
   30.9351   17.1967   21.8443 C   0  0  0  0  0  0  0  0  0  0  0  0
   32.4434   17.0232   21.8108 C   0  0  0  0  0  0  0  0  0  0  0  0
   32.9897   17.1442   20.4340 N   0  0  0  0  0  0  0  0  0  0  0  0
   25.8369   15.8731   19.6764 O   0  0  0  0  0  0  0  0  0  0  0  0
  2  1  1  6  0  0  0
  2  3  1  0  0  0  0
  2  5  1  0  0  0  0
  3  4  1  0  0  0  0
  3 10  1  0  0  0  0
  5  6  1  0  0  0  0
  6  7  1  0  0  0  0
  7  8  1  0  0  0  0
  8  9  1  0  0  0  0
M  END
>  <CHROM.1>
152.82743239,-63.18042158,176.80139251,-179.04674938,65.69154955,28.96674907
15.98971308,20.71341865,-2.95397316,0.27164198,1.42723872

>  <Name>
ligand

>  <RI>
0

>  <Rbt.Current_Directory>
/home/itssahil/PROJECTS/Mol_Feturizer/New_Systems/rnas/3DIX

>  <Rbt.Executable>
rbdock ($Id: //depot/dev/client3/rdock/2013.1/src/exe/rbdock.cxx#4 $)

>  <Rbt.Library>
libRbt.so (2013.1, Build901 2013/11/27)

>  <Rbt.Parameter_File>
/export/apps/rDock/src/rDock_2013.1_src/data/scripts/dock_solv.prm

>  <Rbt.Receptor>
prm/blind_docking_60.prm

>  <SCORE>
-9.68879

>  <SCORE.INTER>
-8.9716

>  <SCORE.INTER.CONST>
1

>  <SCORE.INTER.POLAR>
0

>  <SCORE.INTER.ROT>
5

>  <SCORE.INTER.SOLV>
11.7911

>  <SCORE.INTER.VDW>
-16.8448

>  <SCORE.INTER.norm>
-0.89716

>  <SCORE.INTRA>
-0.717187

>  <SCORE.INTRA.DIHEDRAL>
-1.6434

>  <SCORE.INTRA.DIHEDRAL.0>
3.281

>  <SCORE.INTRA.POLAR>
0

>  <SCORE.INTRA.POLAR.0>
0

>  <SCORE.INTRA.REPUL>
0

>  <SCORE.INTRA.REPUL.0>
0

>  <SCORE.INTRA.SOLV>
0.258599

>  <SCORE.INTRA.SOLV.lig_0>
-31.9458

>  <SCORE.INTRA.VDW>
-0.0247871

>  <SCORE.INTRA.VDW.0>
-0.672612

>  <SCORE.INTRA.norm>
-0.0717187

>  <SCORE.RESTR>
0

>  <SCORE.RESTR.CAVITY>
0

>  <SCORE.RESTR.norm>
0

>  <SCORE.SYSTEM>
0

>  <SCORE.SYSTEM.CONST>
0

>  <SCORE.SYSTEM.DIHEDRAL>
0

>  <SCORE.SYSTEM.SOLV>
0

>  <SCORE.SYSTEM.norm>
0

>  <SCORE.heavy>
10

>  <SCORE.norm>
-0.968879

>  <RMSD>
5.443

$$$$
ligand
 OpenBabel11021811473D
libRbt.so/2013.1/901 2013/11/27
 10  9  0  0  0  0  0  0  0  0999 V2000
   27.1289   14.1777   18.4284 N   0  0  0  0  0  0  0  0  0  0  0  0
   27.7732   14.5334   19.7242 C   0  0  2  0  0  0  0  0  0  0  0  0
   26.7548   15.0682   20.7211 C   0  0  0  0  0  0  0  0  0  0  0  0
   25.5993   15.3443   20.3951 O   0  0  0  0  0  0  0  0  0  0  0  0
   28.9050   15.5362   19.5118 C   0  0  0  0  0  0  0  0  0  0  0  0
   29.7746   15.7110   20.7353 C   0  0  0  0  0  0  0  0  0  0  0  0
   30.8434   16.7485   20.5176 C   0  0  0  0  0  0  0  0  0  0  0  0
   31.7131   16.8946   21.7539 C   0  0  0  0  0  0  0  0  0  0  0  0
   32.7646   17.9301   21.5787 N   0  0  0  0  0  0  0  0  0  0  0  0
   27.0543   15.2105   21.9076 O   0  0  0  0  0  0  0  0  0  0  0  0
  2  1  1  6  0  0  0
  2  3  1  0  0  0  0
  2  5  1  0  0  0  0
  3  4  1  0  0  0  0
  3 10  1  0  0  0  0
  5  6  1  0  0  0  0
  6  7  1  0  0  0  0
  7  8  1  0  0  0  0
  8  9  1  0  0  0  0
M  END
>  <CHROM.1>
-9.95925792,-167.95502456,-177.48508475,-179.35521852,-178.99830737,28.79799406
15.72078997,20.54792322,-2.78439985,0.31226154,1.18168299

>  <Name>
ligand

>  <RI>
0

>  <Rbt.Current_Directory>
/home/itssahil/PROJECTS/Mol_Feturizer/New_Systems/rnas/3DIX

>  <Rbt.Executable>
rbdock ($Id: //depot/dev/client3/rdock/2013.1/src/exe/rbdock.cxx#4 $)

>  <Rbt.Library>
libRbt.so (2013.1, Build901 2013/11/27)

>  <Rbt.Parameter_File>
/export/apps/rDock/src/rDock_2013.1_src/data/scripts/dock_solv.prm

>  <Rbt.Receptor>
prm/blind_docking_80.prm

>  <SCORE>
-8.91929

>  <SCORE.INTER>
-7.57592

>  <SCORE.INTER.CONST>
1

>  <SCORE.INTER.POLAR>
0

>  <SCORE.INTER.ROT>
5

>  <SCORE.INTER.SOLV>
15.5802

>  <SCORE.INTER.VDW>
-17.1773

>  <SCORE.INTER.norm>
-0.757592

>  <SCORE.INTRA>
-1.34337

>  <SCORE.INTRA.DIHEDRAL>
-1.18666

>  <SCORE.INTRA.DIHEDRAL.0>
3.281

>  <SCORE.INTRA.POLAR>
0

>  <SCORE.INTRA.POLAR.0>
0

>  <SCORE.INTRA.REPUL>
0

>  <SCORE.INTRA.REPUL.0>
0

>  <SCORE.INTRA.SOLV>
-1.55924

>  <SCORE.INTRA.SOLV.lig_0>
-31.9458

>  <SCORE.INTRA.VDW>
0.0295808

>  <SCORE.INTRA.VDW.0>
-0.672612

>  <SCORE.INTRA.norm>
-0.134337

>  <SCORE.RESTR>
0

>  <SCORE.RESTR.CAVITY>
0

>  <SCORE.RESTR.norm>
0

>  <SCORE.SYSTEM>
0

>  <SCORE.SYSTEM.CONST>
0

>  <SCORE.SYSTEM.DIHEDRAL>
0

>  <SCORE.SYSTEM.SOLV>
0

>  <SCORE.SYSTEM.norm>
0

>  <SCORE.heavy>
10

>  <SCORE.norm>
-0.891929

>  <RMSD>
5.444

$$$$
ligand
 OpenBabel11021811473D
libRbt.so/2013.1/901 2013/11/27
 10  9  0  0  0  0  0  0  0  0999 V2000
   27.6692   17.2710   19.3403 N   0  0  0  0  0  0  0  0  0  0  0  0
   28.1077   15.8621   19.5488 C   0  0  2  0  0  0  0  0  0  0  0  0
   26.9160   14.9220   19.6633 C   0  0  0  0  0  0  0  0  0  0  0  0
   25.9726   15.1471   20.4230 O   0  0  0  0  0  0  0  0  0  0  0  0
   29.0096   15.7490   20.7759 C   0  0  0  0  0  0  0  0  0  0  0  0
   30.2594   16.5918   20.6681 C   0  0  0  0  0  0  0  0  0  0  0  0
   31.1500   16.4266   21.8705 C   0  0  0  0  0  0  0  0  0  0  0  0
   32.3889   17.2961   21.7474 C   0  0  0  0  0  0  0  0  0  0  0  0
   33.1987   16.9495   20.5505 N   0  0  0  0  0  0  0  0  0  0  0  0
   26.8462   13.9106   18.9633 O   0  0  0  0  0  0  0  0  0  0  0  0
  2  1  1  1  0  0  0
  2  3  1  0  0  0  0
  2  5  1  0  0  0  0
  3  4  1  0  0  0  0
  3 10  1  0  0  0  0
  5  6  1  0  0  0  0
  6  7  1  0  0  0  0
  7  8  1  0  0  0  0
  8  9  1  0  0  0  0
M  END
>  <CHROM.1>
-50.06442723,-59.80641766,-178.14996260,-179.25343343,-60.32188651,29.11417388
15.98745047,20.35236052,2.82423340,0.29808836,3.10664940

>  <Name>
ligand

>  <RI>
0

>  <Rbt.Current_Directory>
/home/itssahil/PROJECTS/Mol_Feturizer/New_Systems/rnas/3DIX

>  <Rbt.Executable>
rbdock ($Id: //depot/dev/client3/rdock/2013.1/src/exe/rbdock.cxx#4 $)

>  <Rbt.Library>
libRbt.so (2013.1, Build901 2013/11/27)

>  <Rbt.Parameter_File>
/export/apps/rDock/src/rDock_2013.1_src/data/scripts/dock_solv.prm

>  <Rbt.Receptor>
prm/blind_docking_60.prm

>  <SCORE>
-6.72137

>  <SCORE.INTER>
-6.05579

>  <SCORE.INTER.CONST>
1

>  <SCORE.INTER.POLAR>
0

>  <SCORE.INTER.ROT>
5

>  <SCORE.INTER.SOLV>
16.8263

>  <SCORE.INTER.VDW>
-16.5793

>  <SCORE.INTER.norm>
-0.605579

>  <SCORE.INTRA>
-0.665582

>  <SCORE.INTRA.DIHEDRAL>
-1.74426

>  <SCORE.INTRA.DIHEDRAL.0>
3.281

>  <SCORE.INTRA.POLAR>
0

>  <SCORE.INTRA.POLAR.0>
0

>  <SCORE.INTRA.REPUL>
0

>  <SCORE.INTRA.REPUL.0>
0

>  <SCORE.INTRA.SOLV>
0.334978

>  <SCORE.INTRA.SOLV.lig_0>
-31.9458

>  <SCORE.INTRA.VDW>
0.0390597

>  <SCORE.INTRA.VDW.0>
-0.672612

>  <SCORE.INTRA.norm>
-0.0665582

>  <SCORE.RESTR>
0

>  <SCORE.RESTR.CAVITY>
0

>  <SCORE.RESTR.norm>
0

>  <SCORE.SYSTEM>
0

>  <SCORE.SYSTEM.CONST>
0

>  <SCORE.SYSTEM.DIHEDRAL>
0

>  <SCORE.SYSTEM.SOLV>
0

>  <SCORE.SYSTEM.norm>
0

>  <SCORE.heavy>
10

>  <SCORE.norm>
-0.672137

>  <RMSD>
5.445

$$$$
ligand
 OpenBabel11021811473D
libRbt.so/2013.1/901 2013/11/27
 10  9  0  0  0  0  0  0  0  0999 V2000
   28.7393   16.3838   19.2056 N   0  0  0  0  0  0  0  0  0  0  0  0
   27.5914   15.4830   18.9031 C   0  0  2  0  0  0  0  0  0  0  0  0
   26.8693   15.0594   20.1744 C   0  0  0  0  0  0  0  0  0  0  0  0
   27.4441   14.4695   21.0905 O   0  0  0  0  0  0  0  0  0  0  0  0
   28.0516   14.2638   18.1070 C   0  0  0  0  0  0  0  0  0  0  0  0
   26.9091   13.3671   17.6896 C   0  0  0  0  0  0  0  0  0  0  0  0
   27.4004   12.0485   17.1545 C   0  0  0  0  0  0  0  0  0  0  0  0
   26.2490   11.0735   16.9827 C   0  0  0  0  0  0  0  0  0  0  0  0
   26.7187    9.7135   16.6108 N   0  0  0  0  0  0  0  0  0  0  0  0
   25.6784   15.3290   20.3381 O   0  0  0  0  0  0  0  0  0  0  0  0
  2  1  1  1  0  0  0
  2  3  1  0  0  0  0
  2  5  1  0  0  0  0
  3  4  1  0  0  0  0
  3 10  1  0  0  0  0
  5  6  1  0  0  0  0
  6  7  1  0  0  0  0
  7  8  1  0  0  0  0
  8  9  1  0  0  0  0
M  END
>  <CHROM.1>
-58.22493812,-175.91427990,-168.60284395,169.57657583,-173.19524572,27.14927032
13.72055815,18.66012164,-1.42158349,-0.75917125,-2.44499597

>  <Name>
ligand

>  <RI>
0

>  <Rbt.Current_Directory>
/home/itssahil/PROJECTS/Mol_Feturizer/New_Systems/rnas/3DIX

>  <Rbt.Executable>
rbdock ($Id: //depot/dev/client3/rdock/2013.1/src/exe/rbdock.cxx#4 $)

>  <Rbt.Library>
libRbt.so (2013.1, Build901 2013/11/27)

>  <Rbt.Parameter_File>
/export/apps/rDock/src/rDock_2013.1_src/data/scripts/dock_solv.prm

>  <Rbt.Receptor>
prm/pocket_docking_6.prm

>  <SCORE>
-12.7627

>  <SCORE.INTER>
-11.5604

>  <SCORE.INTER.CONST>
1

>  <SCORE.INTER.POLAR>
0

>  <SCORE.INTER.ROT>
5

>  <SCORE.INTER.SOLV>
14.436

>  <SCORE.INTER.VDW>
-19.4523

>  <SCORE.INTER.norm>
-1.15604

>  <SCORE.INTRA>
-1.20232

>  <SCORE.INTRA.DIHEDRAL>
-0.58509

>  <SCORE.INTRA.DIHEDRAL.0>
3.281

>  <SCORE.INTRA.POLAR>
0

>  <SCORE.INTRA.POLAR.0>
0

>  <SCORE.INTRA.REPUL>
0

>  <SCORE.INTRA.REPUL.0>
0

>  <SCORE.INTRA.SOLV>
-1.57625

>  <SCORE.INTRA.SOLV.lig_0>
-31.9458

>  <SCORE.INTRA.VDW>
-0.121646

>  <SCORE.INTRA.VDW.0>
-0.672612

>  <SCORE.INTRA.norm>
-0.120232

>  <SCORE.RESTR>
0

>  <SCORE.RESTR.CAVITY>
0

>  <SCORE.RESTR.norm>
0

>  <SCORE.SYSTEM>
0

>  <SCORE.SYSTEM.CONST>
0

>  <SCORE.SYSTEM.DIHEDRAL>
0

>  <SCORE.SYSTEM.SOLV>
0

>  <SCORE.SYSTEM.norm>
0

>  <SCORE.heavy>
10

>  <SCORE.norm>
-1.27627

>  <RMSD>
5.445

$$$$
ligand
 OpenBabel11021811473D
libRbt.so/2013.1/901 2013/11/27
 10  9  0  0  0  0  0  0  0  0999 V2000
   28.7102   16.4253   19.0961 N   0  0  0  0  0  0  0  0  0  0  0  0
   27.5783   15.4903   18.8406 C   0  0  2  0  0  0  0  0  0  0  0  0
   26.9082   15.0636   20.1391 C   0  0  0  0  0  0  0  0  0  0  0  0
   27.5265   14.4978   21.0420 O   0  0  0  0  0  0  0  0  0  0  0  0
   28.0464   14.2740   18.0448 C   0  0  0  0  0  0  0  0  0  0  0  0
   26.9128   13.3549   17.6523 C   0  0  0  0  0  0  0  0  0  0  0  0
   27.4178   12.0354   17.1326 C   0  0  0  0  0  0  0  0  0  0  0  0
   26.2758   11.0482   16.9671 C   0  0  0  0  0  0  0  0  0  0  0  0
   26.7546    9.7034   16.5539 N   0  0  0  0  0  0  0  0  0  0  0  0
   25.7169   15.3063   20.3387 O   0  0  0  0  0  0  0  0  0  0  0  0
  2  1  1  1  0  0  0
  2  3  1  0  0  0  0
  2  5  1  0  0  0  0
  3  4  1  0  0  0  0
  3 10  1  0  0  0  0
  5  6  1  0  0  0  0
  6  7  1  0  0  0  0
  7  8  1  0  0  0  0
  8  9  1  0  0  0  0
M  END
>  <CHROM.1>
-58.41272228,-174.85225411,-167.93524248,170.42700801,-175.65509869,27.16999679
13.72133039,18.61579113,-1.41843318,-0.79295756,-2.44390228

>  <Name>
ligand

>  <RI>
0

>  <Rbt.Current_Directory>
/home/itssahil/PROJECTS/Mol_Feturizer/New_Systems/rnas/3DIX

>  <Rbt.Executable>
rbdock ($Id: //depot/dev/client3/rdock/2013.1/src/exe/rbdock.cxx#4 $)

>  <Rbt.Library>
libRbt.so (2013.1, Build901 2013/11/27)

>  <Rbt.Parameter_File>
/export/apps/rDock/src/rDock_2013.1_src/data/scripts/dock_solv.prm

>  <Rbt.Receptor>
prm/blind_docking_80.prm

>  <SCORE>
-12.8496

>  <SCORE.INTER>
-11.5883

>  <SCORE.INTER.CONST>
1

>  <SCORE.INTER.POLAR>
0

>  <SCORE.INTER.ROT>
5

>  <SCORE.INTER.SOLV>
14.979

>  <SCORE.INTER.VDW>
-19.6519

>  <SCORE.INTER.norm>
-1.15883

>  <SCORE.INTRA>
-1.26133

>  <SCORE.INTRA.DIHEDRAL>
-0.658132

>  <SCORE.INTRA.DIHEDRAL.0>
3.281

>  <SCORE.INTRA.POLAR>
0

>  <SCORE.INTRA.POLAR.0>
0

>  <SCORE.INTRA.REPUL>
0

>  <SCORE.INTRA.REPUL.0>
0

>  <SCORE.INTRA.SOLV>
-1.57735

>  <SCORE.INTRA.SOLV.lig_0>
-31.9458

>  <SCORE.INTRA.VDW>
-0.143594

>  <SCORE.INTRA.VDW.0>
-0.672612

>  <SCORE.INTRA.norm>
-0.126133

>  <SCORE.RESTR>
0

>  <SCORE.RESTR.CAVITY>
0

>  <SCORE.RESTR.norm>
0

>  <SCORE.SYSTEM>
0

>  <SCORE.SYSTEM.CONST>
0

>  <SCORE.SYSTEM.DIHEDRAL>
0

>  <SCORE.SYSTEM.SOLV>
0

>  <SCORE.SYSTEM.norm>
0

>  <SCORE.heavy>
10

>  <SCORE.norm>
-1.28496

>  <RMSD>
5.446

$$$$
ligand
 OpenBabel11021811473D
libRbt.so/2013.1/901 2013/11/27
 10  9  0  0  0  0  0  0  0  0999 V2000
   28.6494   16.4616   19.1328 N   0  0  0  0  0  0  0  0  0  0  0  0
   27.5289   15.5127   18.8782 C   0  0  2  0  0  0  0  0  0  0  0  0
   26.8938   15.0433   20.1795 C   0  0  0  0  0  0  0  0  0  0  0  0
   27.5424   14.4747   21.0591 O   0  0  0  0  0  0  0  0  0  0  0  0
   28.0015   14.3242   18.0439 C   0  0  0  0  0  0  0  0  0  0  0  0
   26.8776   13.3897   17.6602 C   0  0  0  0  0  0  0  0  0  0  0  0
   27.3965   12.0799   17.1298 C   0  0  0  0  0  0  0  0  0  0  0  0
   26.2672   11.0773   16.9702 C   0  0  0  0  0  0  0  0  0  0  0  0
   26.7642    9.7332   16.5768 N   0  0  0  0  0  0  0  0  0  0  0  0
   25.7010   15.2525   20.4058 O   0  0  0  0  0  0  0  0  0  0  0  0
  2  1  1  1  0  0  0
  2  3  1  0  0  0  0
  2  5  1  0  0  0  0
  3  4  1  0  0  0  0
  3 10  1  0  0  0  0
  5  6  1  0  0  0  0
  6  7  1  0  0  0  0
  7  8  1  0  0  0  0
  8  9  1  0  0  0  0
M  END
>  <CHROM.1>
-57.96954819,-175.21546556,-166.55049234,170.54283312,-174.33872209,27.14819256
13.73526109,18.63888391,-1.41588967,-0.82736491,-2.43114641

>  <Name>
ligand

>  <RI>
0

>  <Rbt.Current_Directory>
/home/itssahil/PROJECTS/Mol_Feturizer/New_Systems/rnas/3DIX

>  <Rbt.Executable>
rbdock ($Id: //depot/dev/client3/rdock/2013.1/src/exe/rbdock.cxx#4 $)

>  <Rbt.Library>
libRbt.so (2013.1, Build901 2013/11/27)

>  <Rbt.Parameter_File>
/export/apps/rDock/src/rDock_2013.1_src/data/scripts/dock_solv.prm

>  <Rbt.Receptor>
prm/pocket_docking_7.prm

>  <SCORE>
-12.7714

>  <SCORE.INTER>
-11.5959

>  <SCORE.INTER.CONST>
1

>  <SCORE.INTER.POLAR>
0

>  <SCORE.INTER.ROT>
5

>  <SCORE.INTER.SOLV>
15.0626

>  <SCORE.INTER.VDW>
-19.6848

>  <SCORE.INTER.norm>
-1.15959

>  <SCORE.INTRA>
-1.17551

>  <SCORE.INTRA.DIHEDRAL>
-0.492169

>  <SCORE.INTRA.DIHEDRAL.0>
3.281

>  <SCORE.INTRA.POLAR>
0

>  <SCORE.INTRA.POLAR.0>
0

>  <SCORE.INTRA.REPUL>
0

>  <SCORE.INTRA.REPUL.0>
0

>  <SCORE.INTRA.SOLV>
-1.57661

>  <SCORE.INTRA.SOLV.lig_0>
-31.9458

>  <SCORE.INTRA.VDW>
-0.141117

>  <SCORE.INTRA.VDW.0>
-0.672612

>  <SCORE.INTRA.norm>
-0.117551

>  <SCORE.RESTR>
0

>  <SCORE.RESTR.CAVITY>
0

>  <SCORE.RESTR.norm>
0

>  <SCORE.SYSTEM>
0

>  <SCORE.SYSTEM.CONST>
0

>  <SCORE.SYSTEM.DIHEDRAL>
0

>  <SCORE.SYSTEM.SOLV>
0

>  <SCORE.SYSTEM.norm>
0

>  <SCORE.heavy>
10

>  <SCORE.norm>
-1.27714

>  <RMSD>
5.447

$$$$
ligand
 OpenBabel11021811473D
libRbt.so/2013.1/901 2013/11/27
 10  9  0  0  0  0  0  0  0  0999 V2000
   28.7180   16.4220   19.1102 N   0  0  0  0  0  0  0  0  0  0  0  0
   27.5787   15.4988   18.8450 C   0  0  2  0  0  0  0  0  0  0  0  0
   26.8914   15.0813   20.1374 C   0  0  0  0  0  0  0  0  0  0  0  0
   25.6926   15.2823   20.3381 O   0  0  0  0  0  0  0  0  0  0  0  0
   28.0415   14.2764   18.0555 C   0  0  0  0  0  0  0  0  0  0  0  0
   26.9023   13.3676   17.6552 C   0  0  0  0  0  0  0  0  0  0  0  0
   27.3986   12.0421   17.1427 C   0  0  0  0  0  0  0  0  0  0  0  0
   26.2479   11.0669   16.9667 C   0  0  0  0  0  0  0  0  0  0  0  0
   26.7188    9.7085   16.5902 N   0  0  0  0  0  0  0  0  0  0  0  0
   27.5186   14.4914   21.0185 O   0  0  0  0  0  0  0  0  0  0  0  0
  2  1  1  1  0  0  0
  2  3  1  0  0  0  0
  2  5  1  0  0  0  0
  3  4  1  0  0  0  0
  3 10  1  0  0  0  0
  5  6  1  0  0  0  0
  6  7  1  0  0  0  0
  7  8  1  0  0  0  0
  8  9  1  0  0  0  0
M  END
>  <CHROM.1>
122.18720163,-174.94783682,-167.92218286,170.54211520,-174.36785463,27.15596298
13.72437332,18.62065194,-1.41230048,-0.77929517,-2.44417119

>  <Name>
ligand

>  <RI>
0

>  <Rbt.Current_Directory>
/home/itssahil/PROJECTS/Mol_Feturizer/New_Systems/rnas/3DIX

>  <Rbt.Executable>
rbdock ($Id: //depot/dev/client3/rdock/2013.1/src/exe/rbdock.cxx#4 $)

>  <Rbt.Library>
libRbt.so (2013.1, Build901 2013/11/27)

>  <Rbt.Parameter_File>
/export/apps/rDock/src/rDock_2013.1_src/data/scripts/dock_solv.prm

>  <Rbt.Receptor>
prm/pocket_docking_8.prm

>  <SCORE>
-12.7992

>  <SCORE.INTER>
-11.5844

>  <SCORE.INTER.CONST>
1

>  <SCORE.INTER.POLAR>
0

>  <SCORE.INTER.ROT>
5

>  <SCORE.INTER.SOLV>
14.7581

>  <SCORE.INTER.VDW>
-19.5756

>  <SCORE.INTER.norm>
-1.15844

>  <SCORE.INTRA>
-1.2148

>  <SCORE.INTRA.DIHEDRAL>
-0.623485

>  <SCORE.INTRA.DIHEDRAL.0>
3.281

>  <SCORE.INTRA.POLAR>
0

>  <SCORE.INTRA.POLAR.0>
0

>  <SCORE.INTRA.REPUL>
0

>  <SCORE.INTRA.REPUL.0>
0

>  <SCORE.INTRA.SOLV>
-1.58559

>  <SCORE.INTRA.SOLV.lig_0>
-31.9458

>  <SCORE.INTRA.VDW>
-0.110261

>  <SCORE.INTRA.VDW.0>
-0.672612

>  <SCORE.INTRA.norm>
-0.12148

>  <SCORE.RESTR>
0

>  <SCORE.RESTR.CAVITY>
0

>  <SCORE.RESTR.norm>
0

>  <SCORE.SYSTEM>
0

>  <SCORE.SYSTEM.CONST>
0

>  <SCORE.SYSTEM.DIHEDRAL>
0

>  <SCORE.SYSTEM.SOLV>
0

>  <SCORE.SYSTEM.norm>
0

>  <SCORE.heavy>
10

>  <SCORE.norm>
-1.27992

>  <RMSD>
5.447

$$$$
ligand
 OpenBabel11021811473D
libRbt.so/2013.1/901 2013/11/27
 10  9  0  0  0  0  0  0  0  0999 V2000
   28.7075   16.4238   19.0978 N   0  0  0  0  0  0  0  0  0  0  0  0
   27.5729   15.4927   18.8401 C   0  0  2  0  0  0  0  0  0  0  0  0
   26.9032   15.0627   20.1377 C   0  0  0  0  0  0  0  0  0  0  0  0
   27.5179   14.4792   21.0318 O   0  0  0  0  0  0  0  0  0  0  0  0
   28.0369   14.2783   18.0391 C   0  0  0  0  0  0  0  0  0  0  0  0
   26.9012   13.3604   17.6495 C   0  0  0  0  0  0  0  0  0  0  0  0
   27.4034   12.0415   17.1257 C   0  0  0  0  0  0  0  0  0  0  0  0
   26.2621   11.0510   16.9759 C   0  0  0  0  0  0  0  0  0  0  0  0
   26.7432    9.6964   16.5987 N   0  0  0  0  0  0  0  0  0  0  0  0
   25.7166   15.3204   20.3459 O   0  0  0  0  0  0  0  0  0  0  0  0
  2  1  1  1  0  0  0
  2  3  1  0  0  0  0
  2  5  1  0  0  0  0
  3  4  1  0  0  0  0
  3 10  1  0  0  0  0
  5  6  1  0  0  0  0
  6  7  1  0  0  0  0
  7  8  1  0  0  0  0
  8  9  1  0  0  0  0
M  END
>  <CHROM.1>
-59.20451144,-175.09905161,-167.86675116,169.87690734,-173.93374344,27.16175705
13.72196116,18.61924941,-1.41522312,-0.79920653,-2.44488853

>  <Name>
ligand

>  <RI>
0

>  <Rbt.Current_Directory>
/home/itssahil/PROJECTS/Mol_Feturizer/New_Systems/rnas/3DIX

>  <Rbt.Executable>
rbdock ($Id: //depot/dev/client3/rdock/2013.1/src/exe/rbdock.cxx#4 $)

>  <Rbt.Library>
libRbt.so (2013.1, Build901 2013/11/27)

>  <Rbt.Parameter_File>
/export/apps/rDock/src/rDock_2013.1_src/data/scripts/dock_solv.prm

>  <Rbt.Receptor>
prm/pocket_docking_6.prm

>  <SCORE>
-12.8487

>  <SCORE.INTER>
-11.6488

>  <SCORE.INTER.CONST>
1

>  <SCORE.INTER.POLAR>
0

>  <SCORE.INTER.ROT>
5

>  <SCORE.INTER.SOLV>
14.7943

>  <SCORE.INTER.VDW>
-19.6306

>  <SCORE.INTER.norm>
-1.16488

>  <SCORE.INTRA>
-1.19994

>  <SCORE.INTRA.DIHEDRAL>
-0.553281

>  <SCORE.INTRA.DIHEDRAL.0>
3.281

>  <SCORE.INTRA.POLAR>
0

>  <SCORE.INTRA.POLAR.0>
0

>  <SCORE.INTRA.REPUL>
0

>  <SCORE.INTRA.REPUL.0>
0

>  <SCORE.INTRA.SOLV>
-1.57658

>  <SCORE.INTRA.SOLV.lig_0>
-31.9458

>  <SCORE.INTRA.VDW>
-0.135006

>  <SCORE.INTRA.VDW.0>
-0.672612

>  <SCORE.INTRA.norm>
-0.119994

>  <SCORE.RESTR>
0

>  <SCORE.RESTR.CAVITY>
0

>  <SCORE.RESTR.norm>
0

>  <SCORE.SYSTEM>
0

>  <SCORE.SYSTEM.CONST>
0

>  <SCORE.SYSTEM.DIHEDRAL>
0

>  <SCORE.SYSTEM.SOLV>
0

>  <SCORE.SYSTEM.norm>
0

>  <SCORE.heavy>
10

>  <SCORE.norm>
-1.28487

>  <RMSD>
5.448

$$$$
ligand
 OpenBabel11021811473D
libRbt.so/2013.1/901 2013/11/27
 10  9  0  0  0  0  0  0  0  0999 V2000
   27.0904   14.3177   18.3804 N   0  0  0  0  0  0  0  0  0  0  0  0
   27.7558   14.5999   19.6836 C   0  0  2  0  0  0  0  0  0  0  0  0
   26.7479   15.0361   20.7375 C   0  0  0  0  0  0  0  0  0  0  0  0
   27.0525   15.1636   21.9244 O   0  0  0  0  0  0  0  0  0  0  0  0
   28.8561   15.6457   19.5174 C   0  0  0  0  0  0  0  0  0  0  0  0
   29.7503   15.7579   20.7305 C   0  0  0  0  0  0  0  0  0  0  0  0
   30.7841   16.8396   20.5644 C   0  0  0  0  0  0  0  0  0  0  0  0
   31.7101   16.8897   21.7668 C   0  0  0  0  0  0  0  0  0  0  0  0
   32.7351   17.9582   21.6391 N   0  0  0  0  0  0  0  0  0  0  0  0
   25.5891   15.3100   20.4211 O   0  0  0  0  0  0  0  0  0  0  0  0
  2  1  1  6  0  0  0
  2  3  1  0  0  0  0
  2  5  1  0  0  0  0
  3  4  1  0  0  0  0
  3 10  1  0  0  0  0
  5  6  1  0  0  0  0
  6  7  1  0  0  0  0
  7  8  1  0  0  0  0
  8  9  1  0  0  0  0
M  END
>  <CHROM.1>
171.04828686,-167.90938393,-177.31839133,-177.35094354,-179.42229595,28.77422680
15.75578501,20.55767158,-2.79844139,0.33575742,1.24950209

>  <Name>
ligand

>  <RI>
0

>  <Rbt.Current_Directory>
/home/itssahil/PROJECTS/Mol_Feturizer/New_Systems/rnas/3DIX

>  <Rbt.Executable>
rbdock ($Id: //depot/dev/client3/rdock/2013.1/src/exe/rbdock.cxx#4 $)

>  <Rbt.Library>
libRbt.so (2013.1, Build901 2013/11/27)

>  <Rbt.Parameter_File>
/export/apps/rDock/src/rDock_2013.1_src/data/scripts/dock_solv.prm

>  <Rbt.Receptor>
prm/blind_docking_80.prm

>  <SCORE>
-8.95433

>  <SCORE.INTER>
-7.61503

>  <SCORE.INTER.CONST>
1

>  <SCORE.INTER.POLAR>
0

>  <SCORE.INTER.ROT>
5

>  <SCORE.INTER.SOLV>
15.4584

>  <SCORE.INTER.VDW>
-17.1628

>  <SCORE.INTER.norm>
-0.761503

>  <SCORE.INTRA>
-1.3393

>  <SCORE.INTRA.DIHEDRAL>
-1.22853

>  <SCORE.INTRA.DIHEDRAL.0>
3.281

>  <SCORE.INTRA.POLAR>
0

>  <SCORE.INTRA.POLAR.0>
0

>  <SCORE.INTRA.REPUL>
0

>  <SCORE.INTRA.REPUL.0>
0

>  <SCORE.INTRA.SOLV>
-1.55034

>  <SCORE.INTRA.SOLV.lig_0>
-31.9458

>  <SCORE.INTRA.VDW>
0.0501406

>  <SCORE.INTRA.VDW.0>
-0.672612

>  <SCORE.INTRA.norm>
-0.13393

>  <SCORE.RESTR>
0

>  <SCORE.RESTR.CAVITY>
0

>  <SCORE.RESTR.norm>
0

>  <SCORE.SYSTEM>
0

>  <SCORE.SYSTEM.CONST>
0

>  <SCORE.SYSTEM.DIHEDRAL>
0

>  <SCORE.SYSTEM.SOLV>
0

>  <SCORE.SYSTEM.norm>
0

>  <SCORE.heavy>
10

>  <SCORE.norm>
-0.895433

>  <RMSD>
5.449

$$$$
ligand
 OpenBabel11021811473D
libRbt.so/2013.1/901 2013/11/27
 10  9  0  0  0  0  0  0  0  0999 V2000
   28.4231   14.7159   18.9066 N   0  0  0  0  0  0  0  0  0  0  0  0
   27.9599   14.7493   20.3225 C   0  0  2  0  0  0  0  0  0  0  0  0
   26.4997   15.1682   20.4182 C   0  0  0  0  0  0  0  0  0  0  0  0
   25.9560   15.8565   19.5531 O   0  0  0  0  0  0  0  0  0  0  0  0
   28.8452   15.6667   21.1631 C   0  0  0  0  0  0  0  0  0  0  0  0
   30.2796   15.1965   21.2359 C   0  0  0  0  0  0  0  0  0  0  0  0
   31.1282   16.1187   22.0699 C   0  0  0  0  0  0  0  0  0  0  0  0
   31.3996   17.4174   21.3311 C   0  0  0  0  0  0  0  0  0  0  0  0
   32.3559   18.2879   22.0635 N   0  0  0  0  0  0  0  0  0  0  0  0
   25.8016   14.7963   21.3627 O   0  0  0  0  0  0  0  0  0  0  0  0
  2  1  1  6  0  0  0
  2  3  1  0  0  0  0
  2  5  1  0  0  0  0
  3  4  1  0  0  0  0
  3 10  1  0  0  0  0
  5  6  1  0  0  0  0
  6  7  1  0  0  0  0
  7  8  1  0  0  0  0
  8  9  1  0  0  0  0
M  END
>  <CHROM.1>
-25.44566249,-62.66611686,-179.99424569,-73.14638516,-173.74413483,28.82121042
15.80044578,20.84177591,-2.69618369,0.14103628,0.91915567

>  <Name>
ligand

>  <RI>
0

>  <Rbt.Current_Directory>
/home/itssahil/PROJECTS/Mol_Feturizer/New_Systems/rnas/3DIX

>  <Rbt.Executable>
rbdock ($Id: //depot/dev/client3/rdock/2013.1/src/exe/rbdock.cxx#4 $)

>  <Rbt.Library>
libRbt.so (2013.1, Build901 2013/11/27)

>  <Rbt.Parameter_File>
/export/apps/rDock/src/rDock_2013.1_src/data/scripts/dock_solv.prm

>  <Rbt.Receptor>
prm/pocket_docking_4.prm

>  <SCORE>
-9.49247

>  <SCORE.INTER>
-9.23101

>  <SCORE.INTER.CONST>
1

>  <SCORE.INTER.POLAR>
0

>  <SCORE.INTER.ROT>
5

>  <SCORE.INTER.SOLV>
12.6399

>  <SCORE.INTER.VDW>
-17.3006

>  <SCORE.INTER.norm>
-0.923101

>  <SCORE.INTRA>
-0.261453

>  <SCORE.INTRA.DIHEDRAL>
-0.845439

>  <SCORE.INTRA.DIHEDRAL.0>
3.281

>  <SCORE.INTRA.POLAR>
0

>  <SCORE.INTRA.POLAR.0>
0

>  <SCORE.INTRA.REPUL>
0

>  <SCORE.INTRA.REPUL.0>
0

>  <SCORE.INTRA.SOLV>
-0.468411

>  <SCORE.INTRA.SOLV.lig_0>
-31.9458

>  <SCORE.INTRA.VDW>
0.395471

>  <SCORE.INTRA.VDW.0>
-0.672612

>  <SCORE.INTRA.norm>
-0.0261453

>  <SCORE.RESTR>
0

>  <SCORE.RESTR.CAVITY>
0

>  <SCORE.RESTR.norm>
0

>  <SCORE.SYSTEM>
0

>  <SCORE.SYSTEM.CONST>
0

>  <SCORE.SYSTEM.DIHEDRAL>
0

>  <SCORE.SYSTEM.SOLV>
0

>  <SCORE.SYSTEM.norm>
0

>  <SCORE.heavy>
10

>  <SCORE.norm>
-0.949247

>  <RMSD>
5.449

$$$$
ligand
 OpenBabel11021811473D
libRbt.so/2013.1/901 2013/11/27
 10  9  0  0  0  0  0  0  0  0999 V2000
   28.3904   14.7548   18.9079 N   0  0  0  0  0  0  0  0  0  0  0  0
   27.9493   14.7317   20.3311 C   0  0  2  0  0  0  0  0  0  0  0  0
   26.4878   15.1355   20.4650 C   0  0  0  0  0  0  0  0  0  0  0  0
   25.7887   14.7669   21.4101 O   0  0  0  0  0  0  0  0  0  0  0  0
   28.8411   15.6240   21.1915 C   0  0  0  0  0  0  0  0  0  0  0  0
   30.2856   15.1799   21.2006 C   0  0  0  0  0  0  0  0  0  0  0  0
   31.1425   16.0831   22.0469 C   0  0  0  0  0  0  0  0  0  0  0  0
   31.3894   17.4063   21.3440 C   0  0  0  0  0  0  0  0  0  0  0  0
   32.3590   18.2583   22.0805 N   0  0  0  0  0  0  0  0  0  0  0  0
   25.9651   15.8813   19.6353 O   0  0  0  0  0  0  0  0  0  0  0  0
  2  1  1  6  0  0  0
  2  3  1  0  0  0  0
  2  5  1  0  0  0  0
  3  4  1  0  0  0  0
  3 10  1  0  0  0  0
  5  6  1  0  0  0  0
  6  7  1  0  0  0  0
  7  8  1  0  0  0  0
  8  9  1  0  0  0  0
M  END
>  <CHROM.1>
154.48479726,-61.43108657,179.54557404,-74.27192246,-173.37897695,28.81645134
15.78590325,20.86139363,-2.70750022,0.15155886,0.93402258

>  <Name>
ligand

>  <RI>
0

>  <Rbt.Current_Directory>
/home/itssahil/PROJECTS/Mol_Feturizer/New_Systems/rnas/3DIX

>  <Rbt.Executable>
rbdock ($Id: //depot/dev/client3/rdock/2013.1/src/exe/rbdock.cxx#4 $)

>  <Rbt.Library>
libRbt.so (2013.1, Build901 2013/11/27)

>  <Rbt.Parameter_File>
/export/apps/rDock/src/rDock_2013.1_src/data/scripts/dock_solv.prm

>  <Rbt.Receptor>
prm/pocket_docking_3.prm

>  <SCORE>
-9.53133

>  <SCORE.INTER>
-9.2613

>  <SCORE.INTER.CONST>
1

>  <SCORE.INTER.POLAR>
0

>  <SCORE.INTER.ROT>
5

>  <SCORE.INTER.SOLV>
12.5881

>  <SCORE.INTER.VDW>
-17.3036

>  <SCORE.INTER.norm>
-0.92613

>  <SCORE.INTRA>
-0.270029

>  <SCORE.INTRA.DIHEDRAL>
-0.866053

>  <SCORE.INTRA.DIHEDRAL.0>
3.281

>  <SCORE.INTRA.POLAR>
0

>  <SCORE.INTRA.POLAR.0>
0

>  <SCORE.INTRA.REPUL>
0

>  <SCORE.INTRA.REPUL.0>
0

>  <SCORE.INTRA.SOLV>
-0.450257

>  <SCORE.INTRA.SOLV.lig_0>
-31.9458

>  <SCORE.INTRA.VDW>
0.388126

>  <SCORE.INTRA.VDW.0>
-0.672612

>  <SCORE.INTRA.norm>
-0.0270029

>  <SCORE.RESTR>
0

>  <SCORE.RESTR.CAVITY>
0

>  <SCORE.RESTR.norm>
0

>  <SCORE.SYSTEM>
0

>  <SCORE.SYSTEM.CONST>
0

>  <SCORE.SYSTEM.DIHEDRAL>
0

>  <SCORE.SYSTEM.SOLV>
0

>  <SCORE.SYSTEM.norm>
0

>  <SCORE.heavy>
10

>  <SCORE.norm>
-0.953133

>  <RMSD>
5.450

$$$$
ligand
 OpenBabel11021811473D
libRbt.so/2013.1/901 2013/11/27
 10  9  0  0  0  0  0  0  0  0999 V2000
   28.7049   16.4144   19.0951 N   0  0  0  0  0  0  0  0  0  0  0  0
   27.5701   15.4807   18.8480 C   0  0  2  0  0  0  0  0  0  0  0  0
   26.9130   15.0498   20.1517 C   0  0  0  0  0  0  0  0  0  0  0  0
   27.5384   14.4735   21.0430 O   0  0  0  0  0  0  0  0  0  0  0  0
   28.0296   14.2669   18.0433 C   0  0  0  0  0  0  0  0  0  0  0  0
   26.8924   13.3468   17.6638 C   0  0  0  0  0  0  0  0  0  0  0  0
   27.3927   12.0356   17.1190 C   0  0  0  0  0  0  0  0  0  0  0  0
   26.2507   11.0477   16.9581 C   0  0  0  0  0  0  0  0  0  0  0  0
   26.7292    9.7022   16.5466 N   0  0  0  0  0  0  0  0  0  0  0  0
   25.7261   15.2996   20.3677 O   0  0  0  0  0  0  0  0  0  0  0  0
  2  1  1  1  0  0  0
  2  3  1  0  0  0  0
  2  5  1  0  0  0  0
  3  4  1  0  0  0  0
  3 10  1  0  0  0  0
  5  6  1  0  0  0  0
  6  7  1  0  0  0  0
  7  8  1  0  0  0  0
  8  9  1  0  0  0  0
M  END
>  <CHROM.1>
-58.86852427,-175.07265587,-168.62277347,170.76652677,-174.49135110,27.16030272
13.71299028,18.61887921,-1.41068300,-0.80083096,-2.43355443

>  <Name>
ligand

>  <RI>
0

>  <Rbt.Current_Directory>
/home/itssahil/PROJECTS/Mol_Feturizer/New_Systems/rnas/3DIX

>  <Rbt.Executable>
rbdock ($Id: //depot/dev/client3/rdock/2013.1/src/exe/rbdock.cxx#4 $)

>  <Rbt.Library>
libRbt.so (2013.1, Build901 2013/11/27)

>  <Rbt.Parameter_File>
/export/apps/rDock/src/rDock_2013.1_src/data/scripts/dock_solv.prm

>  <Rbt.Receptor>
prm/pocket_docking_6.prm

>  <SCORE>
-12.8437

>  <SCORE.INTER>
-11.5627

>  <SCORE.INTER.CONST>
1

>  <SCORE.INTER.POLAR>
0

>  <SCORE.INTER.ROT>
5

>  <SCORE.INTER.SOLV>
14.9378

>  <SCORE.INTER.VDW>
-19.621

>  <SCORE.INTER.norm>
-1.15627

>  <SCORE.INTRA>
-1.28106

>  <SCORE.INTRA.DIHEDRAL>
-0.714267

>  <SCORE.INTRA.DIHEDRAL.0>
3.281

>  <SCORE.INTRA.POLAR>
0

>  <SCORE.INTRA.POLAR.0>
0

>  <SCORE.INTRA.REPUL>
0

>  <SCORE.INTRA.REPUL.0>
0

>  <SCORE.INTRA.SOLV>
-1.57691

>  <SCORE.INTRA.SOLV.lig_0>
-31.9458

>  <SCORE.INTRA.VDW>
-0.13547

>  <SCORE.INTRA.VDW.0>
-0.672612

>  <SCORE.INTRA.norm>
-0.128106

>  <SCORE.RESTR>
0

>  <SCORE.RESTR.CAVITY>
0

>  <SCORE.RESTR.norm>
0

>  <SCORE.SYSTEM>
0

>  <SCORE.SYSTEM.CONST>
0

>  <SCORE.SYSTEM.DIHEDRAL>
0

>  <SCORE.SYSTEM.SOLV>
0

>  <SCORE.SYSTEM.norm>
0

>  <SCORE.heavy>
10

>  <SCORE.norm>
-1.28437

>  <RMSD>
5.450

$$$$
ligand
 OpenBabel11021811473D
libRbt.so/2013.1/901 2013/11/27
 10  9  0  0  0  0  0  0  0  0999 V2000
   26.2601   15.3349   19.7916 N   0  0  0  0  0  0  0  0  0  0  0  0
   27.5373   15.6247   19.0807 C   0  0  2  0  0  0  0  0  0  0  0  0
   27.5620   14.9815   17.7013 C   0  0  0  0  0  0  0  0  0  0  0  0
   28.0940   15.5257   16.7325 O   0  0  0  0  0  0  0  0  0  0  0  0
   28.7367   15.1751   19.9121 C   0  0  0  0  0  0  0  0  0  0  0  0
   28.7971   15.8412   21.2673 C   0  0  0  0  0  0  0  0  0  0  0  0
   30.0262   15.4344   22.0354 C   0  0  0  0  0  0  0  0  0  0  0  0
   31.2685   16.0788   21.4457 C   0  0  0  0  0  0  0  0  0  0  0  0
   31.2798   17.5522   21.6396 N   0  0  0  0  0  0  0  0  0  0  0  0
   27.0715   13.8658   17.5212 O   0  0  0  0  0  0  0  0  0  0  0  0
  2  1  1  1  0  0  0
  2  3  1  0  0  0  0
  2  5  1  0  0  0  0
  3  4  1  0  0  0  0
  3 10  1  0  0  0  0
  5  6  1  0  0  0  0
  6  7  1  0  0  0  0
  7  8  1  0  0  0  0
  8  9  1  0  0  0  0
M  END
>  <CHROM.1>
143.94672058,-58.72315400,-177.02671128,72.54843960,67.69817775,28.65686158
15.52492837,19.67341098,2.30999824,-0.38429673,-1.61931735

>  <Name>
ligand

>  <RI>
0

>  <Rbt.Current_Directory>
/home/itssahil/PROJECTS/Mol_Feturizer/New_Systems/rnas/3DIX

>  <Rbt.Executable>
rbdock ($Id: //depot/dev/client3/rdock/2013.1/src/exe/rbdock.cxx#4 $)

>  <Rbt.Library>
libRbt.so (2013.1, Build901 2013/11/27)

>  <Rbt.Parameter_File>
/export/apps/rDock/src/rDock_2013.1_src/data/scripts/dock_solv.prm

>  <Rbt.Receptor>
prm/pocket_docking_4.prm

>  <SCORE>
-8.25339

>  <SCORE.INTER>
-8.62171

>  <SCORE.INTER.CONST>
1

>  <SCORE.INTER.POLAR>
0

>  <SCORE.INTER.ROT>
5

>  <SCORE.INTER.SOLV>
14.2885

>  <SCORE.INTER.VDW>
-17.444

>  <SCORE.INTER.norm>
-0.862171

>  <SCORE.INTRA>
0.368318

>  <SCORE.INTRA.DIHEDRAL>
-0.953848

>  <SCORE.INTRA.DIHEDRAL.0>
3.281

>  <SCORE.INTRA.POLAR>
0

>  <SCORE.INTRA.POLAR.0>
0

>  <SCORE.INTRA.REPUL>
0

>  <SCORE.INTRA.REPUL.0>
0

>  <SCORE.INTRA.SOLV>
0.666881

>  <SCORE.INTRA.SOLV.lig_0>
-31.9458

>  <SCORE.INTRA.VDW>
0.511801

>  <SCORE.INTRA.VDW.0>
-0.672612

>  <SCORE.INTRA.norm>
0.0368318

>  <SCORE.RESTR>
0

>  <SCORE.RESTR.CAVITY>
0

>  <SCORE.RESTR.norm>
0

>  <SCORE.SYSTEM>
0

>  <SCORE.SYSTEM.CONST>
0

>  <SCORE.SYSTEM.DIHEDRAL>
0

>  <SCORE.SYSTEM.SOLV>
0

>  <SCORE.SYSTEM.norm>
0

>  <SCORE.heavy>
10

>  <SCORE.norm>
-0.825339

>  <RMSD>
5.451

$$$$
ligand
 OpenBabel11021811473D
libRbt.so/2013.1/901 2013/11/27
 10  9  0  0  0  0  0  0  0  0999 V2000
   28.6986   16.4207   19.0928 N   0  0  0  0  0  0  0  0  0  0  0  0
   27.5635   15.4871   18.8465 C   0  0  2  0  0  0  0  0  0  0  0  0
   26.9021   15.0627   20.1501 C   0  0  0  0  0  0  0  0  0  0  0  0
   27.5240   14.4889   21.0455 O   0  0  0  0  0  0  0  0  0  0  0  0
   28.0241   14.2693   18.0486 C   0  0  0  0  0  0  0  0  0  0  0  0
   26.8868   13.3499   17.6677 C   0  0  0  0  0  0  0  0  0  0  0  0
   27.3868   12.0394   17.1211 C   0  0  0  0  0  0  0  0  0  0  0  0
   26.2448   11.0518   16.9589 C   0  0  0  0  0  0  0  0  0  0  0  0
   26.7245    9.7025   16.5615 N   0  0  0  0  0  0  0  0  0  0  0  0
   25.7151   15.3154   20.3619 O   0  0  0  0  0  0  0  0  0  0  0  0
  2  1  1  1  0  0  0
  2  3  1  0  0  0  0
  2  5  1  0  0  0  0
  3  4  1  0  0  0  0
  3 10  1  0  0  0  0
  5  6  1  0  0  0  0
  6  7  1  0  0  0  0
  7  8  1  0  0  0  0
  8  9  1  0  0  0  0
M  END
>  <CHROM.1>
-58.91437628,-174.97363969,-169.02655912,170.75459286,-173.79973797,27.15251792
13.72021251,18.62066866,-1.41265385,-0.79777212,-2.43738111

>  <Name>
ligand

>  <RI>
0

>  <Rbt.Current_Directory>
/home/itssahil/PROJECTS/Mol_Feturizer/New_Systems/rnas/3DIX

>  <Rbt.Executable>
rbdock ($Id: //depot/dev/client3/rdock/2013.1/src/exe/rbdock.cxx#4 $)

>  <Rbt.Library>
libRbt.so (2013.1, Build901 2013/11/27)

>  <Rbt.Parameter_File>
/export/apps/rDock/src/rDock_2013.1_src/data/scripts/dock_solv.prm

>  <Rbt.Receptor>
prm/pocket_docking_6.prm

>  <SCORE>
-12.8497

>  <SCORE.INTER>
-11.5672

>  <SCORE.INTER.CONST>
1

>  <SCORE.INTER.POLAR>
0

>  <SCORE.INTER.ROT>
5

>  <SCORE.INTER.SOLV>
14.9001

>  <SCORE.INTER.VDW>
-19.6115

>  <SCORE.INTER.norm>
-1.15672

>  <SCORE.INTRA>
-1.2825

>  <SCORE.INTRA.DIHEDRAL>
-0.715453

>  <SCORE.INTRA.DIHEDRAL.0>
3.281

>  <SCORE.INTRA.POLAR>
0

>  <SCORE.INTRA.POLAR.0>
0

>  <SCORE.INTRA.REPUL>
0

>  <SCORE.INTRA.REPUL.0>
0

>  <SCORE.INTRA.SOLV>
-1.57635

>  <SCORE.INTRA.SOLV.lig_0>
-31.9458

>  <SCORE.INTRA.VDW>
-0.136594

>  <SCORE.INTRA.VDW.0>
-0.672612

>  <SCORE.INTRA.norm>
-0.12825

>  <SCORE.RESTR>
0

>  <SCORE.RESTR.CAVITY>
0

>  <SCORE.RESTR.norm>
0

>  <SCORE.SYSTEM>
0

>  <SCORE.SYSTEM.CONST>
0

>  <SCORE.SYSTEM.DIHEDRAL>
0

>  <SCORE.SYSTEM.SOLV>
0

>  <SCORE.SYSTEM.norm>
0

>  <SCORE.heavy>
10

>  <SCORE.norm>
-1.28497

>  <RMSD>
5.451

$$$$
ligand
 OpenBabel11021811473D
libRbt.so/2013.1/901 2013/11/27
 10  9  0  0  0  0  0  0  0  0999 V2000
   28.6948   16.4184   19.0994 N   0  0  0  0  0  0  0  0  0  0  0  0
   27.5629   15.4812   18.8519 C   0  0  2  0  0  0  0  0  0  0  0  0
   26.9051   15.0504   20.1553 C   0  0  0  0  0  0  0  0  0  0  0  0
   27.5307   14.4772   21.0484 O   0  0  0  0  0  0  0  0  0  0  0  0
   28.0269   14.2676   18.0497 C   0  0  0  0  0  0  0  0  0  0  0  0
   26.8911   13.3503   17.6592 C   0  0  0  0  0  0  0  0  0  0  0  0
   27.3934   12.0373   17.1205 C   0  0  0  0  0  0  0  0  0  0  0  0
   26.2551   11.0425   16.9769 C   0  0  0  0  0  0  0  0  0  0  0  0
   26.7354    9.6998   16.5586 N   0  0  0  0  0  0  0  0  0  0  0  0
   25.7171   15.2972   20.3692 O   0  0  0  0  0  0  0  0  0  0  0  0
  2  1  1  1  0  0  0
  2  3  1  0  0  0  0
  2  5  1  0  0  0  0
  3  4  1  0  0  0  0
  3 10  1  0  0  0  0
  5  6  1  0  0  0  0
  6  7  1  0  0  0  0
  7  8  1  0  0  0  0
  8  9  1  0  0  0  0
M  END
>  <CHROM.1>
-58.85869035,-174.55724014,-168.46667283,169.53510447,-175.07063085,27.15680591
13.71346987,18.62411751,-1.41354214,-0.80286899,-2.43678800

>  <Name>
ligand

>  <RI>
0

>  <Rbt.Current_Directory>
/home/itssahil/PROJECTS/Mol_Feturizer/New_Systems/rnas/3DIX

>  <Rbt.Executable>
rbdock ($Id: //depot/dev/client3/rdock/2013.1/src/exe/rbdock.cxx#4 $)

>  <Rbt.Library>
libRbt.so (2013.1, Build901 2013/11/27)

>  <Rbt.Parameter_File>
/export/apps/rDock/src/rDock_2013.1_src/data/scripts/dock_solv.prm

>  <Rbt.Receptor>
prm/blind_docking_100.prm

>  <SCORE>
-12.8567

>  <SCORE.INTER>
-11.6188

>  <SCORE.INTER.CONST>
1

>  <SCORE.INTER.POLAR>
0

>  <SCORE.INTER.ROT>
5

>  <SCORE.INTER.SOLV>
14.9184

>  <SCORE.INTER.VDW>
-19.652

>  <SCORE.INTER.norm>
-1.16188

>  <SCORE.INTRA>
-1.23788

>  <SCORE.INTRA.DIHEDRAL>
-0.605543

>  <SCORE.INTRA.DIHEDRAL.0>
3.281

>  <SCORE.INTRA.POLAR>
0

>  <SCORE.INTRA.POLAR.0>
0

>  <SCORE.INTRA.REPUL>
0

>  <SCORE.INTRA.REPUL.0>
0

>  <SCORE.INTRA.SOLV>
-1.57691

>  <SCORE.INTRA.SOLV.lig_0>
-31.9458

>  <SCORE.INTRA.VDW>
-0.146653

>  <SCORE.INTRA.VDW.0>
-0.672612

>  <SCORE.INTRA.norm>
-0.123788

>  <SCORE.RESTR>
0

>  <SCORE.RESTR.CAVITY>
0

>  <SCORE.RESTR.norm>
0

>  <SCORE.SYSTEM>
0

>  <SCORE.SYSTEM.CONST>
0

>  <SCORE.SYSTEM.DIHEDRAL>
0

>  <SCORE.SYSTEM.SOLV>
0

>  <SCORE.SYSTEM.norm>
0

>  <SCORE.heavy>
10

>  <SCORE.norm>
-1.28567

>  <RMSD>
5.452

$$$$
ligand
 OpenBabel11021811473D
libRbt.so/2013.1/901 2013/11/27
 10  9  0  0  0  0  0  0  0  0999 V2000
   26.2476   14.8557   20.5580 N   0  0  0  0  0  0  0  0  0  0  0  0
   26.6177   15.5894   19.3148 C   0  0  2  0  0  0  0  0  0  0  0  0
   27.2484   14.6584   18.2888 C   0  0  0  0  0  0  0  0  0  0  0  0
   27.0079   13.4504   18.2631 O   0  0  0  0  0  0  0  0  0  0  0  0
   27.5461   16.7601   19.6301 C   0  0  0  0  0  0  0  0  0  0  0  0
   28.6300   16.4025   20.6205 C   0  0  0  0  0  0  0  0  0  0  0  0
   29.6870   15.5281   20.0005 C   0  0  0  0  0  0  0  0  0  0  0  0
   30.8161   15.2685   20.9823 C   0  0  0  0  0  0  0  0  0  0  0  0
   31.5701   16.5071   21.3075 N   0  0  0  0  0  0  0  0  0  0  0  0
   28.0031   15.1009   17.4214 O   0  0  0  0  0  0  0  0  0  0  0  0
  2  1  1  1  0  0  0
  2  3  1  0  0  0  0
  2  5  1  0  0  0  0
  3  4  1  0  0  0  0
  3 10  1  0  0  0  0
  5  6  1  0  0  0  0
  6  7  1  0  0  0  0
  7  8  1  0  0  0  0
  8  9  1  0  0  0  0
M  END
>  <CHROM.1>
26.08397711,43.51315134,73.13001981,175.74003811,-66.05410894,28.34180603
15.38975909,19.60970772,2.51280259,0.03638262,-2.16487667

>  <Name>
ligand

>  <RI>
0

>  <Rbt.Current_Directory>
/home/itssahil/PROJECTS/Mol_Feturizer/New_Systems/rnas/3DIX

>  <Rbt.Executable>
rbdock ($Id: //depot/dev/client3/rdock/2013.1/src/exe/rbdock.cxx#4 $)

>  <Rbt.Library>
libRbt.so (2013.1, Build901 2013/11/27)

>  <Rbt.Parameter_File>
/export/apps/rDock/src/rDock_2013.1_src/data/scripts/dock_solv.prm

>  <Rbt.Receptor>
prm/pocket_docking_3.prm

>  <SCORE>
-6.18309

>  <SCORE.INTER>
-7.70415

>  <SCORE.INTER.CONST>
1

>  <SCORE.INTER.POLAR>
0

>  <SCORE.INTER.ROT>
5

>  <SCORE.INTER.SOLV>
15.374

>  <SCORE.INTER.VDW>
-17.1941

>  <SCORE.INTER.norm>
-0.770415

>  <SCORE.INTRA>
1.52106

>  <SCORE.INTRA.DIHEDRAL>
0.0941002

>  <SCORE.INTRA.DIHEDRAL.0>
3.281

>  <SCORE.INTRA.POLAR>
0

>  <SCORE.INTRA.POLAR.0>
0

>  <SCORE.INTRA.REPUL>
0

>  <SCORE.INTRA.REPUL.0>
0

>  <SCORE.INTRA.SOLV>
1.09006

>  <SCORE.INTRA.SOLV.lig_0>
-31.9458

>  <SCORE.INTRA.VDW>
0.928979

>  <SCORE.INTRA.VDW.0>
-0.672612

>  <SCORE.INTRA.norm>
0.152106

>  <SCORE.RESTR>
0

>  <SCORE.RESTR.CAVITY>
0

>  <SCORE.RESTR.norm>
0

>  <SCORE.SYSTEM>
0

>  <SCORE.SYSTEM.CONST>
0

>  <SCORE.SYSTEM.DIHEDRAL>
0

>  <SCORE.SYSTEM.SOLV>
0

>  <SCORE.SYSTEM.norm>
0

>  <SCORE.heavy>
10

>  <SCORE.norm>
-0.618309

>  <RMSD>
5.452

$$$$
ligand
 OpenBabel11021811473D
libRbt.so/2013.1/901 2013/11/27
 10  9  0  0  0  0  0  0  0  0999 V2000
   27.0234   14.5335   18.4817 N   0  0  0  0  0  0  0  0  0  0  0  0
   27.7286   14.7252   19.7804 C   0  0  2  0  0  0  0  0  0  0  0  0
   26.7509   15.0624   20.8973 C   0  0  0  0  0  0  0  0  0  0  0  0
   27.1234   15.2910   22.0491 O   0  0  0  0  0  0  0  0  0  0  0  0
   28.8082   15.7984   19.6600 C   0  0  0  0  0  0  0  0  0  0  0  0
   29.8081   15.7578   20.7923 C   0  0  0  0  0  0  0  0  0  0  0  0
   30.8289   16.8582   20.6760 C   0  0  0  0  0  0  0  0  0  0  0  0
   31.8327   16.7849   21.8131 C   0  0  0  0  0  0  0  0  0  0  0  0
   32.7935   17.9183   21.7846 N   0  0  0  0  0  0  0  0  0  0  0  0
   25.5436   15.1498   20.6682 O   0  0  0  0  0  0  0  0  0  0  0  0
  2  1  1  6  0  0  0
  2  3  1  0  0  0  0
  2  5  1  0  0  0  0
  3  4  1  0  0  0  0
  3 10  1  0  0  0  0
  5  6  1  0  0  0  0
  6  7  1  0  0  0  0
  7  8  1  0  0  0  0
  8  9  1  0  0  0  0
M  END
>  <CHROM.1>
-178.33744009,-163.21378297,-177.83217406,-179.21502654,-175.70577146,28.79163040
15.78990787,20.68284279,-2.83936923,0.33838037,1.31813668

>  <Name>
ligand

>  <RI>
0

>  <Rbt.Current_Directory>
/home/itssahil/PROJECTS/Mol_Feturizer/New_Systems/rnas/3DIX

>  <Rbt.Executable>
rbdock ($Id: //depot/dev/client3/rdock/2013.1/src/exe/rbdock.cxx#4 $)

>  <Rbt.Library>
libRbt.so (2013.1, Build901 2013/11/27)

>  <Rbt.Parameter_File>
/export/apps/rDock/src/rDock_2013.1_src/data/scripts/dock_solv.prm

>  <Rbt.Receptor>
prm/pocket_docking_7.prm

>  <SCORE>
-8.93499

>  <SCORE.INTER>
-7.93974

>  <SCORE.INTER.CONST>
1

>  <SCORE.INTER.POLAR>
0

>  <SCORE.INTER.ROT>
5

>  <SCORE.INTER.SOLV>
15.3144

>  <SCORE.INTER.VDW>
-17.3313

>  <SCORE.INTER.norm>
-0.793974

>  <SCORE.INTRA>
-0.995248

>  <SCORE.INTRA.DIHEDRAL>
-0.682454

>  <SCORE.INTRA.DIHEDRAL.0>
3.281

>  <SCORE.INTRA.POLAR>
0

>  <SCORE.INTRA.POLAR.0>
0

>  <SCORE.INTRA.REPUL>
0

>  <SCORE.INTRA.REPUL.0>
0

>  <SCORE.INTRA.SOLV>
-1.53806

>  <SCORE.INTRA.SOLV.lig_0>
-31.9458

>  <SCORE.INTRA.VDW>
0.115011

>  <SCORE.INTRA.VDW.0>
-0.672612

>  <SCORE.INTRA.norm>
-0.0995248

>  <SCORE.RESTR>
0

>  <SCORE.RESTR.CAVITY>
0

>  <SCORE.RESTR.norm>
0

>  <SCORE.SYSTEM>
0

>  <SCORE.SYSTEM.CONST>
0

>  <SCORE.SYSTEM.DIHEDRAL>
0

>  <SCORE.SYSTEM.SOLV>
0

>  <SCORE.SYSTEM.norm>
0

>  <SCORE.heavy>
10

>  <SCORE.norm>
-0.893499

>  <RMSD>
5.453

$$$$
ligand
 OpenBabel11021811473D
libRbt.so/2013.1/901 2013/11/27
 10  9  0  0  0  0  0  0  0  0999 V2000
   27.0374   14.4473   18.4899 N   0  0  0  0  0  0  0  0  0  0  0  0
   27.7311   14.6850   19.7872 C   0  0  2  0  0  0  0  0  0  0  0  0
   26.7436   15.0611   20.8828 C   0  0  0  0  0  0  0  0  0  0  0  0
   25.5306   15.1289   20.6786 O   0  0  0  0  0  0  0  0  0  0  0  0
   28.8117   15.7536   19.6385 C   0  0  0  0  0  0  0  0  0  0  0  0
   29.7968   15.7588   20.7846 C   0  0  0  0  0  0  0  0  0  0  0  0
   30.8297   16.8428   20.6286 C   0  0  0  0  0  0  0  0  0  0  0  0
   31.8353   16.7970   21.7655 C   0  0  0  0  0  0  0  0  0  0  0  0
   32.8692   17.8572   21.6405 N   0  0  0  0  0  0  0  0  0  0  0  0
   27.1343   15.2793   22.0307 O   0  0  0  0  0  0  0  0  0  0  0  0
  2  1  1  6  0  0  0
  2  3  1  0  0  0  0
  2  5  1  0  0  0  0
  3  4  1  0  0  0  0
  3 10  1  0  0  0  0
  5  6  1  0  0  0  0
  6  7  1  0  0  0  0
  7  8  1  0  0  0  0
  8  9  1  0  0  0  0
M  END
>  <CHROM.1>
0.95341132,-163.56141216,-178.61014467,-178.02334521,-179.95170660,28.79947926
15.76310389,20.65547729,-2.85048221,0.33677965,1.30091552

>  <Name>
ligand

>  <RI>
0

>  <Rbt.Current_Directory>
/home/itssahil/PROJECTS/Mol_Feturizer/New_Systems/rnas/3DIX

>  <Rbt.Executable>
rbdock ($Id: //depot/dev/client3/rdock/2013.1/src/exe/rbdock.cxx#4 $)

>  <Rbt.Library>
libRbt.so (2013.1, Build901 2013/11/27)

>  <Rbt.Parameter_File>
/export/apps/rDock/src/rDock_2013.1_src/data/scripts/dock_solv.prm

>  <Rbt.Receptor>
prm/pocket_docking_4.prm

>  <SCORE>
-8.91575

>  <SCORE.INTER>
-7.87304

>  <SCORE.INTER.CONST>
1

>  <SCORE.INTER.POLAR>
0

>  <SCORE.INTER.ROT>
5

>  <SCORE.INTER.SOLV>
15.4604

>  <SCORE.INTER.VDW>
-17.3355

>  <SCORE.INTER.norm>
-0.787304

>  <SCORE.INTRA>
-1.0427

>  <SCORE.INTRA.DIHEDRAL>
-0.787482

>  <SCORE.INTRA.DIHEDRAL.0>
3.281

>  <SCORE.INTRA.POLAR>
0

>  <SCORE.INTRA.POLAR.0>
0

>  <SCORE.INTRA.REPUL>
0

>  <SCORE.INTRA.REPUL.0>
0

>  <SCORE.INTRA.SOLV>
-1.5523

>  <SCORE.INTRA.SOLV.lig_0>
-31.9458

>  <SCORE.INTRA.VDW>
0.127184

>  <SCORE.INTRA.VDW.0>
-0.672612

>  <SCORE.INTRA.norm>
-0.10427

>  <SCORE.RESTR>
0

>  <SCORE.RESTR.CAVITY>
0

>  <SCORE.RESTR.norm>
0

>  <SCORE.SYSTEM>
0

>  <SCORE.SYSTEM.CONST>
0

>  <SCORE.SYSTEM.DIHEDRAL>
0

>  <SCORE.SYSTEM.SOLV>
0

>  <SCORE.SYSTEM.norm>
0

>  <SCORE.heavy>
10

>  <SCORE.norm>
-0.891575

>  <RMSD>
5.455

$$$$
ligand
 OpenBabel11021811473D
libRbt.so/2013.1/901 2013/11/27
 10  9  0  0  0  0  0  0  0  0999 V2000
   27.1038   14.2913   18.3832 N   0  0  0  0  0  0  0  0  0  0  0  0
   27.7512   14.5924   19.6912 C   0  0  2  0  0  0  0  0  0  0  0  0
   26.7307   15.0570   20.7207 C   0  0  0  0  0  0  0  0  0  0  0  0
   25.5604   15.2997   20.4220 O   0  0  0  0  0  0  0  0  0  0  0  0
   28.8630   15.6255   19.5229 C   0  0  0  0  0  0  0  0  0  0  0  0
   29.7604   15.7280   20.7345 C   0  0  0  0  0  0  0  0  0  0  0  0
   30.8391   16.7608   20.5451 C   0  0  0  0  0  0  0  0  0  0  0  0
   31.7421   16.8273   21.7643 C   0  0  0  0  0  0  0  0  0  0  0  0
   32.7894   17.8729   21.6281 N   0  0  0  0  0  0  0  0  0  0  0  0
   27.0448   15.1728   21.9064 O   0  0  0  0  0  0  0  0  0  0  0  0
  2  1  1  6  0  0  0
  2  3  1  0  0  0  0
  2  5  1  0  0  0  0
  3  4  1  0  0  0  0
  3 10  1  0  0  0  0
  5  6  1  0  0  0  0
  6  7  1  0  0  0  0
  7  8  1  0  0  0  0
  8  9  1  0  0  0  0
M  END
>  <CHROM.1>
-8.32666792,-166.45238193,-179.52837339,-178.96747620,-177.96083671,28.78527842
15.72664370,20.55297614,-2.80373259,0.31836806,1.24058051

>  <Name>
ligand

>  <RI>
0

>  <Rbt.Current_Directory>
/home/itssahil/PROJECTS/Mol_Feturizer/New_Systems/rnas/3DIX

>  <Rbt.Executable>
rbdock ($Id: //depot/dev/client3/rdock/2013.1/src/exe/rbdock.cxx#4 $)

>  <Rbt.Library>
libRbt.so (2013.1, Build901 2013/11/27)

>  <Rbt.Parameter_File>
/export/apps/rDock/src/rDock_2013.1_src/data/scripts/dock_solv.prm

>  <Rbt.Receptor>
prm/pocket_docking_4.prm

>  <SCORE>
-8.8627

>  <SCORE.INTER>
-7.58974

>  <SCORE.INTER.CONST>
1

>  <SCORE.INTER.POLAR>
0

>  <SCORE.INTER.ROT>
5

>  <SCORE.INTER.SOLV>
15.513

>  <SCORE.INTER.VDW>
-17.1642

>  <SCORE.INTER.norm>
-0.758974

>  <SCORE.INTRA>
-1.27296

>  <SCORE.INTRA.DIHEDRAL>
-1.06383

>  <SCORE.INTRA.DIHEDRAL.0>
3.281

>  <SCORE.INTRA.POLAR>
0

>  <SCORE.INTRA.POLAR.0>
0

>  <SCORE.INTRA.REPUL>
0

>  <SCORE.INTRA.REPUL.0>
0

>  <SCORE.INTRA.SOLV>
-1.55656

>  <SCORE.INTRA.SOLV.lig_0>
-31.9458

>  <SCORE.INTRA.VDW>
0.0372334

>  <SCORE.INTRA.VDW.0>
-0.672612

>  <SCORE.INTRA.norm>
-0.127296

>  <SCORE.RESTR>
0

>  <SCORE.RESTR.CAVITY>
0

>  <SCORE.RESTR.norm>
0

>  <SCORE.SYSTEM>
0

>  <SCORE.SYSTEM.CONST>
0

>  <SCORE.SYSTEM.DIHEDRAL>
0

>  <SCORE.SYSTEM.SOLV>
0

>  <SCORE.SYSTEM.norm>
0

>  <SCORE.heavy>
10

>  <SCORE.norm>
-0.88627

>  <RMSD>
5.456

$$$$
ligand
 OpenBabel11021811473D
libRbt.so/2013.1/901 2013/11/27
 10  9  0  0  0  0  0  0  0  0999 V2000
   26.2649   15.3546   19.7591 N   0  0  0  0  0  0  0  0  0  0  0  0
   27.5492   15.6267   19.0539 C   0  0  2  0  0  0  0  0  0  0  0  0
   27.5690   14.9877   17.6724 C   0  0  0  0  0  0  0  0  0  0  0  0
   27.0035   13.9193   17.4350 O   0  0  0  0  0  0  0  0  0  0  0  0
   28.7383   15.1557   19.8881 C   0  0  0  0  0  0  0  0  0  0  0  0
   28.8110   15.8252   21.2410 C   0  0  0  0  0  0  0  0  0  0  0  0
   30.0451   15.4174   22.0006 C   0  0  0  0  0  0  0  0  0  0  0  0
   31.2814   16.0756   21.4139 C   0  0  0  0  0  0  0  0  0  0  0  0
   31.2828   17.5473   21.6204 N   0  0  0  0  0  0  0  0  0  0  0  0
   28.1325   15.5479   16.7309 O   0  0  0  0  0  0  0  0  0  0  0  0
  2  1  1  1  0  0  0
  2  3  1  0  0  0  0
  2  5  1  0  0  0  0
  3  4  1  0  0  0  0
  3 10  1  0  0  0  0
  5  6  1  0  0  0  0
  6  7  1  0  0  0  0
  7  8  1  0  0  0  0
  8  9  1  0  0  0  0
M  END
>  <CHROM.1>
-33.55130608,-59.22579497,-175.87576379,73.49981617,67.53351804,28.66068254
15.53015678,19.64180316,2.31296476,-0.38021825,-1.61373890

>  <Name>
ligand

>  <RI>
0

>  <Rbt.Current_Directory>
/home/itssahil/PROJECTS/Mol_Feturizer/New_Systems/rnas/3DIX

>  <Rbt.Executable>
rbdock ($Id: //depot/dev/client3/rdock/2013.1/src/exe/rbdock.cxx#4 $)

>  <Rbt.Library>
libRbt.so (2013.1, Build901 2013/11/27)

>  <Rbt.Parameter_File>
/export/apps/rDock/src/rDock_2013.1_src/data/scripts/dock_solv.prm

>  <Rbt.Receptor>
prm/pocket_docking_6.prm

>  <SCORE>
-8.20605

>  <SCORE.INTER>
-8.63862

>  <SCORE.INTER.CONST>
1

>  <SCORE.INTER.POLAR>
0

>  <SCORE.INTER.ROT>
5

>  <SCORE.INTER.SOLV>
14.3201

>  <SCORE.INTER.VDW>
-17.4658

>  <SCORE.INTER.norm>
-0.863862

>  <SCORE.INTRA>
0.432568

>  <SCORE.INTRA.DIHEDRAL>
-0.707229

>  <SCORE.INTRA.DIHEDRAL.0>
3.281

>  <SCORE.INTRA.POLAR>
0

>  <SCORE.INTRA.POLAR.0>
0

>  <SCORE.INTRA.REPUL>
0

>  <SCORE.INTRA.REPUL.0>
0

>  <SCORE.INTRA.SOLV>
0.649653

>  <SCORE.INTRA.SOLV.lig_0>
-31.9458

>  <SCORE.INTRA.VDW>
0.461356

>  <SCORE.INTRA.VDW.0>
-0.672612

>  <SCORE.INTRA.norm>
0.0432568

>  <SCORE.RESTR>
0

>  <SCORE.RESTR.CAVITY>
0

>  <SCORE.RESTR.norm>
0

>  <SCORE.SYSTEM>
0

>  <SCORE.SYSTEM.CONST>
0

>  <SCORE.SYSTEM.DIHEDRAL>
0

>  <SCORE.SYSTEM.SOLV>
0

>  <SCORE.SYSTEM.norm>
0

>  <SCORE.heavy>
10

>  <SCORE.norm>
-0.820605

>  <RMSD>
5.456

$$$$
ligand
 OpenBabel11021811473D
libRbt.so/2013.1/901 2013/11/27
 10  9  0  0  0  0  0  0  0  0999 V2000
   27.1646   14.2929   18.3925 N   0  0  0  0  0  0  0  0  0  0  0  0
   27.7843   14.6100   19.7101 C   0  0  2  0  0  0  0  0  0  0  0  0
   26.7361   15.0424   20.7257 C   0  0  0  0  0  0  0  0  0  0  0  0
   26.9841   15.1280   21.9294 O   0  0  0  0  0  0  0  0  0  0  0  0
   28.8678   15.6753   19.5595 C   0  0  0  0  0  0  0  0  0  0  0  0
   29.7793   15.7628   20.7618 C   0  0  0  0  0  0  0  0  0  0  0  0
   30.8018   16.8570   20.6093 C   0  0  0  0  0  0  0  0  0  0  0  0
   31.7032   16.9266   21.8293 C   0  0  0  0  0  0  0  0  0  0  0  0
   32.6934   18.0304   21.7308 N   0  0  0  0  0  0  0  0  0  0  0  0
   25.6018   15.3556   20.3609 O   0  0  0  0  0  0  0  0  0  0  0  0
  2  1  1  6  0  0  0
  2  3  1  0  0  0  0
  2  5  1  0  0  0  0
  3  4  1  0  0  0  0
  3 10  1  0  0  0  0
  5  6  1  0  0  0  0
  6  7  1  0  0  0  0
  7  8  1  0  0  0  0
  8  9  1  0  0  0  0
M  END
>  <CHROM.1>
167.17096429,-164.12555047,-177.70619126,179.90419322,-177.93317180,28.77789297
15.77191723,20.58111760,-2.78013887,0.33427618,1.23374256

>  <Name>
ligand

>  <RI>
0

>  <Rbt.Current_Directory>
/home/itssahil/PROJECTS/Mol_Feturizer/New_Systems/rnas/3DIX

>  <Rbt.Executable>
rbdock ($Id: //depot/dev/client3/rdock/2013.1/src/exe/rbdock.cxx#4 $)

>  <Rbt.Library>
libRbt.so (2013.1, Build901 2013/11/27)

>  <Rbt.Parameter_File>
/export/apps/rDock/src/rDock_2013.1_src/data/scripts/dock_solv.prm

>  <Rbt.Receptor>
prm/pocket_docking_8.prm

>  <SCORE>
-8.86291

>  <SCORE.INTER>
-7.56335

>  <SCORE.INTER.CONST>
1

>  <SCORE.INTER.POLAR>
0

>  <SCORE.INTER.ROT>
5

>  <SCORE.INTER.SOLV>
15.3545

>  <SCORE.INTER.VDW>
-17.0937

>  <SCORE.INTER.norm>
-0.756335

>  <SCORE.INTRA>
-1.29956

>  <SCORE.INTRA.DIHEDRAL>
-0.885882

>  <SCORE.INTRA.DIHEDRAL.0>
3.281

>  <SCORE.INTRA.POLAR>
0

>  <SCORE.INTRA.POLAR.0>
0

>  <SCORE.INTRA.REPUL>
0

>  <SCORE.INTRA.REPUL.0>
0

>  <SCORE.INTRA.SOLV>
-1.54472

>  <SCORE.INTRA.SOLV.lig_0>
-31.9458

>  <SCORE.INTRA.VDW>
-0.084255

>  <SCORE.INTRA.VDW.0>
-0.672612

>  <SCORE.INTRA.norm>
-0.129956

>  <SCORE.RESTR>
0

>  <SCORE.RESTR.CAVITY>
0

>  <SCORE.RESTR.norm>
0

>  <SCORE.SYSTEM>
0

>  <SCORE.SYSTEM.CONST>
0

>  <SCORE.SYSTEM.DIHEDRAL>
0

>  <SCORE.SYSTEM.SOLV>
0

>  <SCORE.SYSTEM.norm>
0

>  <SCORE.heavy>
10

>  <SCORE.norm>
-0.886291

>  <RMSD>
5.456

$$$$
ligand
 OpenBabel11021811473D
libRbt.so/2013.1/901 2013/11/27
 10  9  0  0  0  0  0  0  0  0999 V2000
   25.6531   15.3434   20.3439 N   0  0  0  0  0  0  0  0  0  0  0  0
   27.0218   15.7697   19.9370 C   0  0  2  0  0  0  0  0  0  0  0  0
   27.4074   15.1809   18.5873 C   0  0  0  0  0  0  0  0  0  0  0  0
   28.0410   15.8225   17.7479 O   0  0  0  0  0  0  0  0  0  0  0  0
   28.0475   15.3982   21.0056 C   0  0  0  0  0  0  0  0  0  0  0  0
   29.3822   16.0772   20.8025 C   0  0  0  0  0  0  0  0  0  0  0  0
   30.3913   15.6454   21.8328 C   0  0  0  0  0  0  0  0  0  0  0  0
   31.7009   16.3924   21.6511 C   0  0  0  0  0  0  0  0  0  0  0  0
   31.5648   17.8411   21.9528 N   0  0  0  0  0  0  0  0  0  0  0  0
   27.1201   14.0162   18.3066 O   0  0  0  0  0  0  0  0  0  0  0  0
  2  1  1  1  0  0  0
  2  3  1  0  0  0  0
  2  5  1  0  0  0  0
  3  4  1  0  0  0  0
  3 10  1  0  0  0  0
  5  6  1  0  0  0  0
  6  7  1  0  0  0  0
  7  8  1  0  0  0  0
  8  9  1  0  0  0  0
M  END
>  <CHROM.1>
141.10653621,-166.75045478,-177.42757204,-177.14049365,67.19689986,28.63258736
15.73323817,20.18054777,2.53214616,-0.28326681,-1.73132473

>  <Name>
ligand

>  <RI>
0

>  <Rbt.Current_Directory>
/home/itssahil/PROJECTS/Mol_Feturizer/New_Systems/rnas/3DIX

>  <Rbt.Executable>
rbdock ($Id: //depot/dev/client3/rdock/2013.1/src/exe/rbdock.cxx#4 $)

>  <Rbt.Library>
libRbt.so (2013.1, Build901 2013/11/27)

>  <Rbt.Parameter_File>
/export/apps/rDock/src/rDock_2013.1_src/data/scripts/dock_solv.prm

>  <Rbt.Receptor>
prm/pocket_docking_7.prm

>  <SCORE>
-8.59195

>  <SCORE.INTER>
-7.63503

>  <SCORE.INTER.CONST>
1

>  <SCORE.INTER.POLAR>
0

>  <SCORE.INTER.ROT>
5

>  <SCORE.INTER.SOLV>
16.8576

>  <SCORE.INTER.VDW>
-17.6426

>  <SCORE.INTER.norm>
-0.763503

>  <SCORE.INTRA>
-0.956919

>  <SCORE.INTRA.DIHEDRAL>
-0.950131

>  <SCORE.INTRA.DIHEDRAL.0>
3.281

>  <SCORE.INTRA.POLAR>
0

>  <SCORE.INTRA.POLAR.0>
0

>  <SCORE.INTRA.REPUL>
0

>  <SCORE.INTRA.REPUL.0>
0

>  <SCORE.INTRA.SOLV>
-0.656351

>  <SCORE.INTRA.SOLV.lig_0>
-31.9458

>  <SCORE.INTRA.VDW>
-0.153678

>  <SCORE.INTRA.VDW.0>
-0.672612

>  <SCORE.INTRA.norm>
-0.0956919

>  <SCORE.RESTR>
0

>  <SCORE.RESTR.CAVITY>
0

>  <SCORE.RESTR.norm>
0

>  <SCORE.SYSTEM>
0

>  <SCORE.SYSTEM.CONST>
0

>  <SCORE.SYSTEM.DIHEDRAL>
0

>  <SCORE.SYSTEM.SOLV>
0

>  <SCORE.SYSTEM.norm>
0

>  <SCORE.heavy>
10

>  <SCORE.norm>
-0.859195

>  <RMSD>
5.457

$$$$
ligand
 OpenBabel11021811473D
libRbt.so/2013.1/901 2013/11/27
 10  9  0  0  0  0  0  0  0  0999 V2000
   25.6434   15.3132   20.3210 N   0  0  0  0  0  0  0  0  0  0  0  0
   27.0039   15.7650   19.9144 C   0  0  2  0  0  0  0  0  0  0  0  0
   27.3999   15.1849   18.5639 C   0  0  0  0  0  0  0  0  0  0  0  0
   27.1101   14.0341   18.2332 O   0  0  0  0  0  0  0  0  0  0  0  0
   28.0365   15.4110   20.9823 C   0  0  0  0  0  0  0  0  0  0  0  0
   29.3856   16.0434   20.7299 C   0  0  0  0  0  0  0  0  0  0  0  0
   30.3916   15.6510   21.7788 C   0  0  0  0  0  0  0  0  0  0  0  0
   31.7098   16.3720   21.5583 C   0  0  0  0  0  0  0  0  0  0  0  0
   31.5883   17.8374   21.7736 N   0  0  0  0  0  0  0  0  0  0  0  0
   28.0022   15.8733   17.7385 O   0  0  0  0  0  0  0  0  0  0  0  0
  2  1  1  1  0  0  0
  2  3  1  0  0  0  0
  2  5  1  0  0  0  0
  3  4  1  0  0  0  0
  3 10  1  0  0  0  0
  5  6  1  0  0  0  0
  6  7  1  0  0  0  0
  7  8  1  0  0  0  0
  8  9  1  0  0  0  0
M  END
>  <CHROM.1>
-38.26408445,-170.50065967,-178.62292495,-176.12465389,66.57403929,28.62631899
15.73402359,20.12292572,2.55842139,-0.29770670,-1.70311320

>  <Name>
ligand

>  <RI>
0

>  <Rbt.Current_Directory>
/home/itssahil/PROJECTS/Mol_Feturizer/New_Systems/rnas/3DIX

>  <Rbt.Executable>
rbdock ($Id: //depot/dev/client3/rdock/2013.1/src/exe/rbdock.cxx#4 $)

>  <Rbt.Library>
libRbt.so (2013.1, Build901 2013/11/27)

>  <Rbt.Parameter_File>
/export/apps/rDock/src/rDock_2013.1_src/data/scripts/dock_solv.prm

>  <Rbt.Receptor>
prm/pocket_docking_8.prm

>  <SCORE>
-8.66316

>  <SCORE.INTER>
-7.63778

>  <SCORE.INTER.CONST>
1

>  <SCORE.INTER.POLAR>
0

>  <SCORE.INTER.ROT>
5

>  <SCORE.INTER.SOLV>
16.8341

>  <SCORE.INTER.VDW>
-17.6366

>  <SCORE.INTER.norm>
-0.763778

>  <SCORE.INTRA>
-1.02539

>  <SCORE.INTRA.DIHEDRAL>
-1.16671

>  <SCORE.INTRA.DIHEDRAL.0>
3.281

>  <SCORE.INTRA.POLAR>
0

>  <SCORE.INTRA.POLAR.0>
0

>  <SCORE.INTRA.REPUL>
0

>  <SCORE.INTRA.REPUL.0>
0

>  <SCORE.INTRA.SOLV>
-0.644648

>  <SCORE.INTRA.SOLV.lig_0>
-31.9458

>  <SCORE.INTRA.VDW>
-0.119704

>  <SCORE.INTRA.VDW.0>
-0.672612

>  <SCORE.INTRA.norm>
-0.102539

>  <SCORE.RESTR>
0

>  <SCORE.RESTR.CAVITY>
0

>  <SCORE.RESTR.norm>
0

>  <SCORE.SYSTEM>
0

>  <SCORE.SYSTEM.CONST>
0

>  <SCORE.SYSTEM.DIHEDRAL>
0

>  <SCORE.SYSTEM.SOLV>
0

>  <SCORE.SYSTEM.norm>
0

>  <SCORE.heavy>
10

>  <SCORE.norm>
-0.866316

>  <RMSD>
5.457

$$$$
ligand
 OpenBabel11021811473D
libRbt.so/2013.1/901 2013/11/27
 10  9  0  0  0  0  0  0  0  0999 V2000
   27.0448   14.4423   18.4845 N   0  0  0  0  0  0  0  0  0  0  0  0
   27.7317   14.6840   19.7847 C   0  0  2  0  0  0  0  0  0  0  0  0
   26.7380   15.0589   20.8751 C   0  0  0  0  0  0  0  0  0  0  0  0
   25.5259   15.1243   20.6646 O   0  0  0  0  0  0  0  0  0  0  0  0
   28.8098   15.7556   19.6395 C   0  0  0  0  0  0  0  0  0  0  0  0
   29.7979   15.7560   20.7829 C   0  0  0  0  0  0  0  0  0  0  0  0
   30.8388   16.8315   20.6214 C   0  0  0  0  0  0  0  0  0  0  0  0
   31.8339   16.7954   21.7680 C   0  0  0  0  0  0  0  0  0  0  0  0
   32.8661   17.8576   21.6462 N   0  0  0  0  0  0  0  0  0  0  0  0
   27.1224   15.2783   22.0249 O   0  0  0  0  0  0  0  0  0  0  0  0
  2  1  1  6  0  0  0
  2  3  1  0  0  0  0
  2  5  1  0  0  0  0
  3  4  1  0  0  0  0
  3 10  1  0  0  0  0
  5  6  1  0  0  0  0
  6  7  1  0  0  0  0
  7  8  1  0  0  0  0
  8  9  1  0  0  0  0
M  END
>  <CHROM.1>
0.85811791,-162.96098306,-179.35155006,-178.95911587,-179.28935036,28.79829338
15.76036137,20.65186166,-2.84891435,0.33567923,1.29898180

>  <Name>
ligand

>  <RI>
0

>  <Rbt.Current_Directory>
/home/itssahil/PROJECTS/Mol_Feturizer/New_Systems/rnas/3DIX

>  <Rbt.Executable>
rbdock ($Id: //depot/dev/client3/rdock/2013.1/src/exe/rbdock.cxx#4 $)

>  <Rbt.Library>
libRbt.so (2013.1, Build901 2013/11/27)

>  <Rbt.Parameter_File>
/export/apps/rDock/src/rDock_2013.1_src/data/scripts/dock_solv.prm

>  <Rbt.Receptor>
prm/pocket_docking_7.prm

>  <SCORE>
-8.92079

>  <SCORE.INTER>
-7.88613

>  <SCORE.INTER.CONST>
1

>  <SCORE.INTER.POLAR>
0

>  <SCORE.INTER.ROT>
5

>  <SCORE.INTER.SOLV>
15.4516

>  <SCORE.INTER.VDW>
-17.3413

>  <SCORE.INTER.norm>
-0.788613

>  <SCORE.INTRA>
-1.03467

>  <SCORE.INTRA.DIHEDRAL>
-0.734405

>  <SCORE.INTRA.DIHEDRAL.0>
3.281

>  <SCORE.INTRA.POLAR>
0

>  <SCORE.INTRA.POLAR.0>
0

>  <SCORE.INTRA.REPUL>
0

>  <SCORE.INTRA.REPUL.0>
0

>  <SCORE.INTRA.SOLV>
-1.55093

>  <SCORE.INTRA.SOLV.lig_0>
-31.9458

>  <SCORE.INTRA.VDW>
0.108003

>  <SCORE.INTRA.VDW.0>
-0.672612

>  <SCORE.INTRA.norm>
-0.103467

>  <SCORE.RESTR>
0

>  <SCORE.RESTR.CAVITY>
0

>  <SCORE.RESTR.norm>
0

>  <SCORE.SYSTEM>
0

>  <SCORE.SYSTEM.CONST>
0

>  <SCORE.SYSTEM.DIHEDRAL>
0

>  <SCORE.SYSTEM.SOLV>
0

>  <SCORE.SYSTEM.norm>
0

>  <SCORE.heavy>
10

>  <SCORE.norm>
-0.892079

>  <RMSD>
5.458

$$$$
ligand
 OpenBabel11021811473D
libRbt.so/2013.1/901 2013/11/27
 10  9  0  0  0  0  0  0  0  0999 V2000
   25.6307   15.2624   20.3741 N   0  0  0  0  0  0  0  0  0  0  0  0
   26.9779   15.7609   19.9778 C   0  0  2  0  0  0  0  0  0  0  0  0
   27.3621   15.2741   18.5877 C   0  0  0  0  0  0  0  0  0  0  0  0
   27.0187   14.1710   18.1601 O   0  0  0  0  0  0  0  0  0  0  0  0
   28.0318   15.3564   21.0063 C   0  0  0  0  0  0  0  0  0  0  0  0
   29.3595   16.0455   20.7915 C   0  0  0  0  0  0  0  0  0  0  0  0
   30.3901   15.5974   21.7932 C   0  0  0  0  0  0  0  0  0  0  0  0
   31.6946   16.3498   21.5981 C   0  0  0  0  0  0  0  0  0  0  0  0
   31.5548   17.7985   21.8984 N   0  0  0  0  0  0  0  0  0  0  0  0
   28.0096   15.9959   17.8277 O   0  0  0  0  0  0  0  0  0  0  0  0
  2  1  1  1  0  0  0
  2  3  1  0  0  0  0
  2  5  1  0  0  0  0
  3  4  1  0  0  0  0
  3 10  1  0  0  0  0
  5  6  1  0  0  0  0
  6  7  1  0  0  0  0
  7  8  1  0  0  0  0
  8  9  1  0  0  0  0
M  END
>  <CHROM.1>
-34.00593058,-169.39213715,-178.28526608,-177.36721710,65.89556833,28.60188980
15.74897737,20.16415998,2.57053442,-0.31493263,-1.64179256

>  <Name>
ligand

>  <RI>
0

>  <Rbt.Current_Directory>
/home/itssahil/PROJECTS/Mol_Feturizer/New_Systems/rnas/3DIX

>  <Rbt.Executable>
rbdock ($Id: //depot/dev/client3/rdock/2013.1/src/exe/rbdock.cxx#4 $)

>  <Rbt.Library>
libRbt.so (2013.1, Build901 2013/11/27)

>  <Rbt.Parameter_File>
/export/apps/rDock/src/rDock_2013.1_src/data/scripts/dock_solv.prm

>  <Rbt.Receptor>
prm/pocket_docking_7.prm

>  <SCORE>
-8.49486

>  <SCORE.INTER>
-7.51108

>  <SCORE.INTER.CONST>
1

>  <SCORE.INTER.POLAR>
0

>  <SCORE.INTER.ROT>
5

>  <SCORE.INTER.SOLV>
16.8487

>  <SCORE.INTER.VDW>
-17.5569

>  <SCORE.INTER.norm>
-0.751108

>  <SCORE.INTRA>
-0.98378

>  <SCORE.INTRA.DIHEDRAL>
-1.1393

>  <SCORE.INTRA.DIHEDRAL.0>
3.281

>  <SCORE.INTRA.POLAR>
0

>  <SCORE.INTRA.POLAR.0>
0

>  <SCORE.INTRA.REPUL>
0

>  <SCORE.INTRA.REPUL.0>
0

>  <SCORE.INTRA.SOLV>
-0.639498

>  <SCORE.INTRA.SOLV.lig_0>
-31.9458

>  <SCORE.INTRA.VDW>
-0.0943828

>  <SCORE.INTRA.VDW.0>
-0.672612

>  <SCORE.INTRA.norm>
-0.098378

>  <SCORE.RESTR>
0

>  <SCORE.RESTR.CAVITY>
0

>  <SCORE.RESTR.norm>
0

>  <SCORE.SYSTEM>
0

>  <SCORE.SYSTEM.CONST>
0

>  <SCORE.SYSTEM.DIHEDRAL>
0

>  <SCORE.SYSTEM.SOLV>
0

>  <SCORE.SYSTEM.norm>
0

>  <SCORE.heavy>
10

>  <SCORE.norm>
-0.849486

>  <RMSD>
5.458

$$$$
ligand
 OpenBabel11021811473D
libRbt.so/2013.1/901 2013/11/27
 10  9  0  0  0  0  0  0  0  0999 V2000
   27.1097   14.2761   18.3172 N   0  0  0  0  0  0  0  0  0  0  0  0
   27.7502   14.5641   19.6316 C   0  0  2  0  0  0  0  0  0  0  0  0
   26.7240   15.0168   20.6608 C   0  0  0  0  0  0  0  0  0  0  0  0
   25.5930   15.3865   20.3416 O   0  0  0  0  0  0  0  0  0  0  0  0
   28.8617   15.6001   19.4798 C   0  0  0  0  0  0  0  0  0  0  0  0
   29.7452   15.6996   20.7019 C   0  0  0  0  0  0  0  0  0  0  0  0
   30.7848   16.7782   20.5534 C   0  0  0  0  0  0  0  0  0  0  0  0
   31.6809   16.8358   21.7780 C   0  0  0  0  0  0  0  0  0  0  0  0
   32.6770   17.9352   21.6909 N   0  0  0  0  0  0  0  0  0  0  0  0
   26.9903   14.9936   21.8634 O   0  0  0  0  0  0  0  0  0  0  0  0
  2  1  1  6  0  0  0
  2  3  1  0  0  0  0
  2  5  1  0  0  0  0
  3  4  1  0  0  0  0
  3 10  1  0  0  0  0
  5  6  1  0  0  0  0
  6  7  1  0  0  0  0
  7  8  1  0  0  0  0
  8  9  1  0  0  0  0
M  END
>  <CHROM.1>
-15.58248532,-166.97432920,-176.93755968,-178.59648027,-177.22267747,28.75844426
15.71204923,20.52273975,-2.78577844,0.33098716,1.25211254

>  <Name>
ligand

>  <RI>
0

>  <Rbt.Current_Directory>
/home/itssahil/PROJECTS/Mol_Feturizer/New_Systems/rnas/3DIX

>  <Rbt.Executable>
rbdock ($Id: //depot/dev/client3/rdock/2013.1/src/exe/rbdock.cxx#4 $)

>  <Rbt.Library>
libRbt.so (2013.1, Build901 2013/11/27)

>  <Rbt.Parameter_File>
/export/apps/rDock/src/rDock_2013.1_src/data/scripts/dock_solv.prm

>  <Rbt.Receptor>
prm/pocket_docking_3.prm

>  <SCORE>
-8.86359

>  <SCORE.INTER>
-7.47621

>  <SCORE.INTER.CONST>
1

>  <SCORE.INTER.POLAR>
0

>  <SCORE.INTER.ROT>
5

>  <SCORE.INTER.SOLV>
15.5083

>  <SCORE.INTER.VDW>
-17.0869

>  <SCORE.INTER.norm>
-0.747621

>  <SCORE.INTRA>
-1.38738

>  <SCORE.INTRA.DIHEDRAL>
-1.03849

>  <SCORE.INTRA.DIHEDRAL.0>
3.281

>  <SCORE.INTRA.POLAR>
0

>  <SCORE.INTRA.POLAR.0>
0

>  <SCORE.INTRA.REPUL>
0

>  <SCORE.INTRA.REPUL.0>
0

>  <SCORE.INTRA.SOLV>
-1.55749

>  <SCORE.INTRA.SOLV.lig_0>
-31.9458

>  <SCORE.INTRA.VDW>
-0.0893855

>  <SCORE.INTRA.VDW.0>
-0.672612

>  <SCORE.INTRA.norm>
-0.138738

>  <SCORE.RESTR>
0

>  <SCORE.RESTR.CAVITY>
0

>  <SCORE.RESTR.norm>
0

>  <SCORE.SYSTEM>
0

>  <SCORE.SYSTEM.CONST>
0

>  <SCORE.SYSTEM.DIHEDRAL>
0

>  <SCORE.SYSTEM.SOLV>
0

>  <SCORE.SYSTEM.norm>
0

>  <SCORE.heavy>
10

>  <SCORE.norm>
-0.886359

>  <RMSD>
5.459

$$$$
ligand
 OpenBabel11021811473D
libRbt.so/2013.1/901 2013/11/27
 10  9  0  0  0  0  0  0  0  0999 V2000
   28.3548   15.0255   18.8250 N   0  0  0  0  0  0  0  0  0  0  0  0
   27.9221   14.8437   20.2393 C   0  0  2  0  0  0  0  0  0  0  0  0
   26.4506   15.1899   20.4175 C   0  0  0  0  0  0  0  0  0  0  0  0
   25.8308   15.8660   19.5950 O   0  0  0  0  0  0  0  0  0  0  0  0
   28.7932   15.6676   21.1850 C   0  0  0  0  0  0  0  0  0  0  0  0
   30.2282   15.1955   21.2259 C   0  0  0  0  0  0  0  0  0  0  0  0
   31.0897   16.0988   22.0674 C   0  0  0  0  0  0  0  0  0  0  0  0
   31.3736   17.4024   21.3422 C   0  0  0  0  0  0  0  0  0  0  0  0
   32.3372   18.2566   22.0841 N   0  0  0  0  0  0  0  0  0  0  0  0
   25.8208   14.7684   21.3889 O   0  0  0  0  0  0  0  0  0  0  0  0
  2  1  1  6  0  0  0
  2  3  1  0  0  0  0
  2  5  1  0  0  0  0
  3  4  1  0  0  0  0
  3 10  1  0  0  0  0
  5  6  1  0  0  0  0
  6  7  1  0  0  0  0
  7  8  1  0  0  0  0
  8  9  1  0  0  0  0
M  END
>  <CHROM.1>
-18.20588987,-65.94113900,174.86091965,-74.26394396,-173.99844209,28.77622539
15.83306470,20.83776689,-2.80970380,0.31632545,1.38756126

>  <Name>
ligand

>  <RI>
0

>  <Rbt.Current_Directory>
/home/itssahil/PROJECTS/Mol_Feturizer/New_Systems/rnas/3DIX

>  <Rbt.Executable>
rbdock ($Id: //depot/dev/client3/rdock/2013.1/src/exe/rbdock.cxx#4 $)

>  <Rbt.Library>
libRbt.so (2013.1, Build901 2013/11/27)

>  <Rbt.Parameter_File>
/export/apps/rDock/src/rDock_2013.1_src/data/scripts/dock_solv.prm

>  <Rbt.Receptor>
prm/pocket_docking_5.prm

>  <SCORE>
-9.39904

>  <SCORE.INTER>
-9.28878

>  <SCORE.INTER.CONST>
1

>  <SCORE.INTER.POLAR>
0

>  <SCORE.INTER.ROT>
5

>  <SCORE.INTER.SOLV>
12.0467

>  <SCORE.INTER.VDW>
-17.1414

>  <SCORE.INTER.norm>
-0.928878

>  <SCORE.INTRA>
-0.110266

>  <SCORE.INTRA.DIHEDRAL>
-0.520762

>  <SCORE.INTRA.DIHEDRAL.0>
3.281

>  <SCORE.INTRA.POLAR>
0

>  <SCORE.INTRA.POLAR.0>
0

>  <SCORE.INTRA.REPUL>
0

>  <SCORE.INTRA.REPUL.0>
0

>  <SCORE.INTRA.SOLV>
-0.415034

>  <SCORE.INTRA.SOLV.lig_0>
-31.9458

>  <SCORE.INTRA.VDW>
0.357632

>  <SCORE.INTRA.VDW.0>
-0.672612

>  <SCORE.INTRA.norm>
-0.0110266

>  <SCORE.RESTR>
0

>  <SCORE.RESTR.CAVITY>
0

>  <SCORE.RESTR.norm>
0

>  <SCORE.SYSTEM>
0

>  <SCORE.SYSTEM.CONST>
0

>  <SCORE.SYSTEM.DIHEDRAL>
0

>  <SCORE.SYSTEM.SOLV>
0

>  <SCORE.SYSTEM.norm>
0

>  <SCORE.heavy>
10

>  <SCORE.norm>
-0.939904

>  <RMSD>
5.459

$$$$
ligand
 OpenBabel11021811473D
libRbt.so/2013.1/901 2013/11/27
 10  9  0  0  0  0  0  0  0  0999 V2000
   27.0953   14.4177   18.1960 N   0  0  0  0  0  0  0  0  0  0  0  0
   27.7451   14.6352   19.5194 C   0  0  2  0  0  0  0  0  0  0  0  0
   26.7206   14.9883   20.5884 C   0  0  0  0  0  0  0  0  0  0  0  0
   26.9571   14.8638   21.7910 O   0  0  0  0  0  0  0  0  0  0  0  0
   28.8253   15.7104   19.4249 C   0  0  0  0  0  0  0  0  0  0  0  0
   29.6777   15.8002   20.6695 C   0  0  0  0  0  0  0  0  0  0  0  0
   30.7402   16.8592   20.5439 C   0  0  0  0  0  0  0  0  0  0  0  0
   31.6099   16.9008   21.7880 C   0  0  0  0  0  0  0  0  0  0  0  0
   32.6100   17.9987   21.7347 N   0  0  0  0  0  0  0  0  0  0  0  0
   25.6209   15.4469   20.2754 O   0  0  0  0  0  0  0  0  0  0  0  0
  2  1  1  6  0  0  0
  2  3  1  0  0  0  0
  2  5  1  0  0  0  0
  3  4  1  0  0  0  0
  3 10  1  0  0  0  0
  5  6  1  0  0  0  0
  6  7  1  0  0  0  0
  7  8  1  0  0  0  0
  8  9  1  0  0  0  0
M  END
>  <CHROM.1>
160.26857156,-169.88949318,179.52131778,-178.23758034,-176.07305866,28.72719343
15.76411780,20.47421940,-2.78859031,0.36172170,1.32238752

>  <Name>
ligand

>  <RI>
0

>  <Rbt.Current_Directory>
/home/itssahil/PROJECTS/Mol_Feturizer/New_Systems/rnas/3DIX

>  <Rbt.Executable>
rbdock ($Id: //depot/dev/client3/rdock/2013.1/src/exe/rbdock.cxx#4 $)

>  <Rbt.Library>
libRbt.so (2013.1, Build901 2013/11/27)

>  <Rbt.Parameter_File>
/export/apps/rDock/src/rDock_2013.1_src/data/scripts/dock_solv.prm

>  <Rbt.Receptor>
prm/pocket_docking_7.prm

>  <SCORE>
-8.96141

>  <SCORE.INTER>
-7.41834

>  <SCORE.INTER.CONST>
1

>  <SCORE.INTER.POLAR>
0

>  <SCORE.INTER.ROT>
5

>  <SCORE.INTER.SOLV>
15.4575

>  <SCORE.INTER.VDW>
-17.0314

>  <SCORE.INTER.norm>
-0.741834

>  <SCORE.INTRA>
-1.54307

>  <SCORE.INTRA.DIHEDRAL>
-1.40371

>  <SCORE.INTRA.DIHEDRAL.0>
3.281

>  <SCORE.INTRA.POLAR>
0

>  <SCORE.INTRA.POLAR.0>
0

>  <SCORE.INTRA.REPUL>
0

>  <SCORE.INTRA.REPUL.0>
0

>  <SCORE.INTRA.SOLV>
-1.55695

>  <SCORE.INTRA.SOLV.lig_0>
-31.9458

>  <SCORE.INTRA.VDW>
-0.0627359

>  <SCORE.INTRA.VDW.0>
-0.672612

>  <SCORE.INTRA.norm>
-0.154307

>  <SCORE.RESTR>
0

>  <SCORE.RESTR.CAVITY>
0

>  <SCORE.RESTR.norm>
0

>  <SCORE.SYSTEM>
0

>  <SCORE.SYSTEM.CONST>
0

>  <SCORE.SYSTEM.DIHEDRAL>
0

>  <SCORE.SYSTEM.SOLV>
0

>  <SCORE.SYSTEM.norm>
0

>  <SCORE.heavy>
10

>  <SCORE.norm>
-0.896141

>  <RMSD>
5.460

$$$$
ligand
 OpenBabel11021811473D
libRbt.so/2013.1/901 2013/11/27
 10  9  0  0  0  0  0  0  0  0999 V2000
   25.6345   15.2307   20.4136 N   0  0  0  0  0  0  0  0  0  0  0  0
   26.9806   15.7289   20.0130 C   0  0  2  0  0  0  0  0  0  0  0  0
   27.3730   15.2174   18.6340 C   0  0  0  0  0  0  0  0  0  0  0  0
   27.0786   14.0862   18.2451 O   0  0  0  0  0  0  0  0  0  0  0  0
   28.0325   15.3505   21.0532 C   0  0  0  0  0  0  0  0  0  0  0  0
   29.3569   16.0436   20.8309 C   0  0  0  0  0  0  0  0  0  0  0  0
   30.3833   15.6277   21.8506 C   0  0  0  0  0  0  0  0  0  0  0  0
   31.6851   16.3817   21.6440 C   0  0  0  0  0  0  0  0  0  0  0  0
   31.5591   17.8209   21.9925 N   0  0  0  0  0  0  0  0  0  0  0  0
   27.9769   15.9450   17.8442 O   0  0  0  0  0  0  0  0  0  0  0  0
  2  1  1  1  0  0  0
  2  3  1  0  0  0  0
  2  5  1  0  0  0  0
  3  4  1  0  0  0  0
  3 10  1  0  0  0  0
  5  6  1  0  0  0  0
  6  7  1  0  0  0  0
  7  8  1  0  0  0  0
  8  9  1  0  0  0  0
M  END
>  <CHROM.1>
-36.67864776,-169.34212913,-178.66365505,-177.51828274,69.72407746,28.60513492
15.73028909,20.21493625,2.55843451,-0.31747104,-1.66629513

>  <Name>
ligand

>  <RI>
0

>  <Rbt.Current_Directory>
/home/itssahil/PROJECTS/Mol_Feturizer/New_Systems/rnas/3DIX

>  <Rbt.Executable>
rbdock ($Id: //depot/dev/client3/rdock/2013.1/src/exe/rbdock.cxx#4 $)

>  <Rbt.Library>
libRbt.so (2013.1, Build901 2013/11/27)

>  <Rbt.Parameter_File>
/export/apps/rDock/src/rDock_2013.1_src/data/scripts/dock_solv.prm

>  <Rbt.Receptor>
prm/blind_docking_100.prm

>  <SCORE>
-8.52807

>  <SCORE.INTER>
-7.55358

>  <SCORE.INTER.CONST>
1

>  <SCORE.INTER.POLAR>
0

>  <SCORE.INTER.ROT>
5

>  <SCORE.INTER.SOLV>
16.9925

>  <SCORE.INTER.VDW>
-17.6332

>  <SCORE.INTER.norm>
-0.755358

>  <SCORE.INTRA>
-0.974481

>  <SCORE.INTRA.DIHEDRAL>
-0.927221

>  <SCORE.INTRA.DIHEDRAL.0>
3.281

>  <SCORE.INTRA.POLAR>
0

>  <SCORE.INTRA.POLAR.0>
0

>  <SCORE.INTRA.REPUL>
0

>  <SCORE.INTRA.REPUL.0>
0

>  <SCORE.INTRA.SOLV>
-0.695942

>  <SCORE.INTRA.SOLV.lig_0>
-31.9458

>  <SCORE.INTRA.VDW>
-0.162899

>  <SCORE.INTRA.VDW.0>
-0.672612

>  <SCORE.INTRA.norm>
-0.0974481

>  <SCORE.RESTR>
0

>  <SCORE.RESTR.CAVITY>
0

>  <SCORE.RESTR.norm>
0

>  <SCORE.SYSTEM>
0

>  <SCORE.SYSTEM.CONST>
0

>  <SCORE.SYSTEM.DIHEDRAL>
0

>  <SCORE.SYSTEM.SOLV>
0

>  <SCORE.SYSTEM.norm>
0

>  <SCORE.heavy>
10

>  <SCORE.norm>
-0.852807

>  <RMSD>
5.462

$$$$
ligand
 OpenBabel11021811473D
libRbt.so/2013.1/901 2013/11/27
 10  9  0  0  0  0  0  0  0  0999 V2000
   27.0982   14.2607   18.2049 N   0  0  0  0  0  0  0  0  0  0  0  0
   27.7289   14.5208   19.5297 C   0  0  2  0  0  0  0  0  0  0  0  0
   26.7018   14.9920   20.5495 C   0  0  0  0  0  0  0  0  0  0  0  0
   26.9059   14.9318   21.7630 O   0  0  0  0  0  0  0  0  0  0  0  0
   28.8693   15.5281   19.4009 C   0  0  0  0  0  0  0  0  0  0  0  0
   29.6915   15.6517   20.6629 C   0  0  0  0  0  0  0  0  0  0  0  0
   30.7699   16.6933   20.5273 C   0  0  0  0  0  0  0  0  0  0  0  0
   31.5835   16.7967   21.8054 C   0  0  0  0  0  0  0  0  0  0  0  0
   32.5883   17.8898   21.7417 N   0  0  0  0  0  0  0  0  0  0  0  0
   25.6344   15.4852   20.1819 O   0  0  0  0  0  0  0  0  0  0  0  0
  2  1  1  6  0  0  0
  2  3  1  0  0  0  0
  2  5  1  0  0  0  0
  3  4  1  0  0  0  0
  3 10  1  0  0  0  0
  5  6  1  0  0  0  0
  6  7  1  0  0  0  0
  7  8  1  0  0  0  0
  8  9  1  0  0  0  0
M  END
>  <CHROM.1>
160.58225863,-170.26188542,-177.52636199,-179.87201747,-175.54983464,28.72404820
15.67985459,20.45670195,-2.75502704,0.31555873,1.24271359

>  <Name>
ligand

>  <RI>
0

>  <Rbt.Current_Directory>
/home/itssahil/PROJECTS/Mol_Feturizer/New_Systems/rnas/3DIX

>  <Rbt.Executable>
rbdock ($Id: //depot/dev/client3/rdock/2013.1/src/exe/rbdock.cxx#4 $)

>  <Rbt.Library>
libRbt.so (2013.1, Build901 2013/11/27)

>  <Rbt.Parameter_File>
/export/apps/rDock/src/rDock_2013.1_src/data/scripts/dock_solv.prm

>  <Rbt.Receptor>
prm/blind_docking_80.prm

>  <SCORE>
-8.93223

>  <SCORE.INTER>
-7.39929

>  <SCORE.INTER.CONST>
1

>  <SCORE.INTER.POLAR>
0

>  <SCORE.INTER.ROT>
5

>  <SCORE.INTER.SOLV>
15.5461

>  <SCORE.INTER.VDW>
-17.0482

>  <SCORE.INTER.norm>
-0.739929

>  <SCORE.INTRA>
-1.53294

>  <SCORE.INTRA.DIHEDRAL>
-1.40235

>  <SCORE.INTRA.DIHEDRAL.0>
3.281

>  <SCORE.INTRA.POLAR>
0

>  <SCORE.INTRA.POLAR.0>
0

>  <SCORE.INTRA.REPUL>
0

>  <SCORE.INTRA.REPUL.0>
0

>  <SCORE.INTRA.SOLV>
-1.55699

>  <SCORE.INTRA.SOLV.lig_0>
-31.9458

>  <SCORE.INTRA.VDW>
-0.0532744

>  <SCORE.INTRA.VDW.0>
-0.672612

>  <SCORE.INTRA.norm>
-0.153294

>  <SCORE.RESTR>
0

>  <SCORE.RESTR.CAVITY>
0

>  <SCORE.RESTR.norm>
0

>  <SCORE.SYSTEM>
0

>  <SCORE.SYSTEM.CONST>
0

>  <SCORE.SYSTEM.DIHEDRAL>
0

>  <SCORE.SYSTEM.SOLV>
0

>  <SCORE.SYSTEM.norm>
0

>  <SCORE.heavy>
10

>  <SCORE.norm>
-0.893223

>  <RMSD>
5.462

$$$$
ligand
 OpenBabel11021811473D
libRbt.so/2013.1/901 2013/11/27
 10  9  0  0  0  0  0  0  0  0999 V2000
   26.3257   15.2774   19.9734 N   0  0  0  0  0  0  0  0  0  0  0  0
   27.5448   15.6137   19.1852 C   0  0  2  0  0  0  0  0  0  0  0  0
   27.5178   14.9533   17.8139 C   0  0  0  0  0  0  0  0  0  0  0  0
   26.9150   13.8995   17.6044 O   0  0  0  0  0  0  0  0  0  0  0  0
   28.8098   15.2291   19.9492 C   0  0  0  0  0  0  0  0  0  0  0  0
   28.9330   15.9367   21.2789 C   0  0  0  0  0  0  0  0  0  0  0  0
   30.2038   15.5638   21.9946 C   0  0  0  0  0  0  0  0  0  0  0  0
   31.4074   16.2032   21.3249 C   0  0  0  0  0  0  0  0  0  0  0  0
   31.4222   17.6797   21.4933 N   0  0  0  0  0  0  0  0  0  0  0  0
   28.0798   15.4812   16.8530 O   0  0  0  0  0  0  0  0  0  0  0  0
  2  1  1  1  0  0  0
  2  3  1  0  0  0  0
  2  5  1  0  0  0  0
  3  4  1  0  0  0  0
  3 10  1  0  0  0  0
  5  6  1  0  0  0  0
  6  7  1  0  0  0  0
  7  8  1  0  0  0  0
  8  9  1  0  0  0  0
M  END
>  <CHROM.1>
-27.75793806,-59.86962907,-178.65008814,72.70828519,68.49425750,28.70730202
15.56731604,19.70800784,2.37305258,-0.40094022,-1.62227794

>  <Name>
ligand

>  <RI>
0

>  <Rbt.Current_Directory>
/home/itssahil/PROJECTS/Mol_Feturizer/New_Systems/rnas/3DIX

>  <Rbt.Executable>
rbdock ($Id: //depot/dev/client3/rdock/2013.1/src/exe/rbdock.cxx#4 $)

>  <Rbt.Library>
libRbt.so (2013.1, Build901 2013/11/27)

>  <Rbt.Parameter_File>
/export/apps/rDock/src/rDock_2013.1_src/data/scripts/dock_solv.prm

>  <Rbt.Receptor>
prm/blind_docking_100.prm

>  <SCORE>
-8.18619

>  <SCORE.INTER>
-8.60591

>  <SCORE.INTER.CONST>
1

>  <SCORE.INTER.POLAR>
0

>  <SCORE.INTER.ROT>
5

>  <SCORE.INTER.SOLV>
14.3023

>  <SCORE.INTER.VDW>
-17.438

>  <SCORE.INTER.norm>
-0.860591

>  <SCORE.INTRA>
0.419715

>  <SCORE.INTRA.DIHEDRAL>
-0.793008

>  <SCORE.INTRA.DIHEDRAL.0>
3.281

>  <SCORE.INTRA.POLAR>
0

>  <SCORE.INTRA.POLAR.0>
0

>  <SCORE.INTRA.REPUL>
0

>  <SCORE.INTRA.REPUL.0>
0

>  <SCORE.INTRA.SOLV>
0.644035

>  <SCORE.INTRA.SOLV.lig_0>
-31.9458

>  <SCORE.INTRA.VDW>
0.494202

>  <SCORE.INTRA.VDW.0>
-0.672612

>  <SCORE.INTRA.norm>
0.0419715

>  <SCORE.RESTR>
0

>  <SCORE.RESTR.CAVITY>
0

>  <SCORE.RESTR.norm>
0

>  <SCORE.SYSTEM>
0

>  <SCORE.SYSTEM.CONST>
0

>  <SCORE.SYSTEM.DIHEDRAL>
0

>  <SCORE.SYSTEM.SOLV>
0

>  <SCORE.SYSTEM.norm>
0

>  <SCORE.heavy>
10

>  <SCORE.norm>
-0.818619

>  <RMSD>
5.464

$$$$
ligand
 OpenBabel11021811473D
libRbt.so/2013.1/901 2013/11/27
 10  9  0  0  0  0  0  0  0  0999 V2000
   28.2135   15.8783   18.8064 N   0  0  0  0  0  0  0  0  0  0  0  0
   27.9895   15.4013   20.2003 C   0  0  2  0  0  0  0  0  0  0  0  0
   26.5047   15.2734   20.5104 C   0  0  0  0  0  0  0  0  0  0  0  0
   25.6366   15.7297   19.7649 O   0  0  0  0  0  0  0  0  0  0  0  0
   28.6782   16.3200   21.2070 C   0  0  0  0  0  0  0  0  0  0  0  0
   30.1264   16.5865   20.8668 C   0  0  0  0  0  0  0  0  0  0  0  0
   30.8045   17.4181   21.9227 C   0  0  0  0  0  0  0  0  0  0  0  0
   32.1653   17.8923   21.4440 C   0  0  0  0  0  0  0  0  0  0  0  0
   33.0565   16.7597   21.0814 N   0  0  0  0  0  0  0  0  0  0  0  0
   26.1240   14.6710   21.5154 O   0  0  0  0  0  0  0  0  0  0  0  0
  2  1  1  6  0  0  0
  2  3  1  0  0  0  0
  2  5  1  0  0  0  0
  3  4  1  0  0  0  0
  3 10  1  0  0  0  0
  5  6  1  0  0  0  0
  6  7  1  0  0  0  0
  7  8  1  0  0  0  0
  8  9  1  0  0  0  0
M  END
>  <CHROM.1>
-11.32381652,-50.27233076,-176.18348106,-169.30090997,-58.26137731,28.88555405
16.18402441,20.73654687,-2.97514534,0.33116405,1.56160600

>  <Name>
ligand

>  <RI>
0

>  <Rbt.Current_Directory>
/home/itssahil/PROJECTS/Mol_Feturizer/New_Systems/rnas/3DIX

>  <Rbt.Executable>
rbdock ($Id: //depot/dev/client3/rdock/2013.1/src/exe/rbdock.cxx#4 $)

>  <Rbt.Library>
libRbt.so (2013.1, Build901 2013/11/27)

>  <Rbt.Parameter_File>
/export/apps/rDock/src/rDock_2013.1_src/data/scripts/dock_solv.prm

>  <Rbt.Receptor>
prm/blind_docking_60.prm

>  <SCORE>
-7.44644

>  <SCORE.INTER>
-7.57438

>  <SCORE.INTER.CONST>
1

>  <SCORE.INTER.POLAR>
0

>  <SCORE.INTER.ROT>
5

>  <SCORE.INTER.SOLV>
12.352

>  <SCORE.INTER.VDW>
-16.1002

>  <SCORE.INTER.norm>
-0.757438

>  <SCORE.INTRA>
0.127939

>  <SCORE.INTRA.DIHEDRAL>
-0.859749

>  <SCORE.INTRA.DIHEDRAL.0>
3.281

>  <SCORE.INTRA.POLAR>
0

>  <SCORE.INTRA.POLAR.0>
0

>  <SCORE.INTRA.REPUL>
0

>  <SCORE.INTRA.REPUL.0>
0

>  <SCORE.INTRA.SOLV>
0.442782

>  <SCORE.INTRA.SOLV.lig_0>
-31.9458

>  <SCORE.INTRA.VDW>
0.336422

>  <SCORE.INTRA.VDW.0>
-0.672612

>  <SCORE.INTRA.norm>
0.0127939

>  <SCORE.RESTR>
0

>  <SCORE.RESTR.CAVITY>
0

>  <SCORE.RESTR.norm>
0

>  <SCORE.SYSTEM>
0

>  <SCORE.SYSTEM.CONST>
0

>  <SCORE.SYSTEM.DIHEDRAL>
0

>  <SCORE.SYSTEM.SOLV>
0

>  <SCORE.SYSTEM.norm>
0

>  <SCORE.heavy>
10

>  <SCORE.norm>
-0.744644

>  <RMSD>
5.464

$$$$
ligand
 OpenBabel11021811473D
libRbt.so/2013.1/901 2013/11/27
 10  9  0  0  0  0  0  0  0  0999 V2000
   26.8137   16.3376   19.5873 N   0  0  0  0  0  0  0  0  0  0  0  0
   27.9925   15.6093   19.0389 C   0  0  2  0  0  0  0  0  0  0  0  0
   27.6859   15.0057   17.6755 C   0  0  0  0  0  0  0  0  0  0  0  0
   26.9397   14.0349   17.5400 O   0  0  0  0  0  0  0  0  0  0  0  0
   28.4705   14.5357   20.0140 C   0  0  0  0  0  0  0  0  0  0  0  0
   29.1638   15.1092   21.2282 C   0  0  0  0  0  0  0  0  0  0  0  0
   30.4321   15.8309   20.8585 C   0  0  0  0  0  0  0  0  0  0  0  0
   31.0891   16.4314   22.0889 C   0  0  0  0  0  0  0  0  0  0  0  0
   32.2633   17.2733   21.7411 N   0  0  0  0  0  0  0  0  0  0  0  0
   28.1574   15.5008   16.6507 O   0  0  0  0  0  0  0  0  0  0  0  0
  2  1  1  1  0  0  0
  2  3  1  0  0  0  0
  2  5  1  0  0  0  0
  3  4  1  0  0  0  0
  3 10  1  0  0  0  0
  5  6  1  0  0  0  0
  6  7  1  0  0  0  0
  7  8  1  0  0  0  0
  8  9  1  0  0  0  0
M  END
>  <CHROM.1>
-71.69530825,-72.61322622,-64.00044394,178.38862929,-173.85546953,28.88668832
15.55190296,19.60321528,2.39427726,-0.44469178,-1.50311375

>  <Name>
ligand

>  <RI>
0

>  <Rbt.Current_Directory>
/home/itssahil/PROJECTS/Mol_Feturizer/New_Systems/rnas/3DIX

>  <Rbt.Executable>
rbdock ($Id: //depot/dev/client3/rdock/2013.1/src/exe/rbdock.cxx#4 $)

>  <Rbt.Library>
libRbt.so (2013.1, Build901 2013/11/27)

>  <Rbt.Parameter_File>
/export/apps/rDock/src/rDock_2013.1_src/data/scripts/dock_solv.prm

>  <Rbt.Receptor>
prm/pocket_docking_4.prm

>  <SCORE>
-8.55515

>  <SCORE.INTER>
-8.12001

>  <SCORE.INTER.CONST>
1

>  <SCORE.INTER.POLAR>
0

>  <SCORE.INTER.ROT>
5

>  <SCORE.INTER.SOLV>
15.1384

>  <SCORE.INTER.VDW>
-17.3928

>  <SCORE.INTER.norm>
-0.812001

>  <SCORE.INTRA>
-0.435137

>  <SCORE.INTRA.DIHEDRAL>
-0.982733

>  <SCORE.INTRA.DIHEDRAL.0>
3.281

>  <SCORE.INTRA.POLAR>
0

>  <SCORE.INTRA.POLAR.0>
0

>  <SCORE.INTRA.REPUL>
0

>  <SCORE.INTRA.REPUL.0>
0

>  <SCORE.INTRA.SOLV>
-0.345927

>  <SCORE.INTRA.SOLV.lig_0>
-31.9458

>  <SCORE.INTRA.VDW>
0.229193

>  <SCORE.INTRA.VDW.0>
-0.672612

>  <SCORE.INTRA.norm>
-0.0435137

>  <SCORE.RESTR>
0

>  <SCORE.RESTR.CAVITY>
0

>  <SCORE.RESTR.norm>
0

>  <SCORE.SYSTEM>
0

>  <SCORE.SYSTEM.CONST>
0

>  <SCORE.SYSTEM.DIHEDRAL>
0

>  <SCORE.SYSTEM.SOLV>
0

>  <SCORE.SYSTEM.norm>
0

>  <SCORE.heavy>
10

>  <SCORE.norm>
-0.855515

>  <RMSD>
5.464

$$$$
ligand
 OpenBabel11021811473D
libRbt.so/2013.1/901 2013/11/27
 10  9  0  0  0  0  0  0  0  0999 V2000
   27.1116   14.2614   18.2117 N   0  0  0  0  0  0  0  0  0  0  0  0
   27.7210   14.5565   19.5391 C   0  0  2  0  0  0  0  0  0  0  0  0
   26.6771   15.0508   20.5306 C   0  0  0  0  0  0  0  0  0  0  0  0
   26.8583   15.0125   21.7486 O   0  0  0  0  0  0  0  0  0  0  0  0
   28.8612   15.5631   19.4026 C   0  0  0  0  0  0  0  0  0  0  0  0
   29.6719   15.7104   20.6695 C   0  0  0  0  0  0  0  0  0  0  0  0
   30.7319   16.7708   20.5344 C   0  0  0  0  0  0  0  0  0  0  0  0
   31.5426   16.8888   21.8129 C   0  0  0  0  0  0  0  0  0  0  0  0
   32.5810   17.9481   21.7208 N   0  0  0  0  0  0  0  0  0  0  0  0
   25.6189   15.5413   20.1340 O   0  0  0  0  0  0  0  0  0  0  0  0
  2  1  1  6  0  0  0
  2  3  1  0  0  0  0
  2  5  1  0  0  0  0
  3  4  1  0  0  0  0
  3 10  1  0  0  0  0
  5  6  1  0  0  0  0
  6  7  1  0  0  0  0
  7  8  1  0  0  0  0
  8  9  1  0  0  0  0
M  END
>  <CHROM.1>
160.01842227,-169.68248766,-176.36662107,-179.34715914,-178.83848179,28.70407220
15.73566729,20.44976697,-2.74442856,0.31055195,1.21784491

>  <Name>
ligand

>  <RI>
0

>  <Rbt.Current_Directory>
/home/itssahil/PROJECTS/Mol_Feturizer/New_Systems/rnas/3DIX

>  <Rbt.Executable>
rbdock ($Id: //depot/dev/client3/rdock/2013.1/src/exe/rbdock.cxx#4 $)

>  <Rbt.Library>
libRbt.so (2013.1, Build901 2013/11/27)

>  <Rbt.Parameter_File>
/export/apps/rDock/src/rDock_2013.1_src/data/scripts/dock_solv.prm

>  <Rbt.Receptor>
prm/pocket_docking_5.prm

>  <SCORE>
-9.00376

>  <SCORE.INTER>
-7.44967

>  <SCORE.INTER.CONST>
1

>  <SCORE.INTER.POLAR>
0

>  <SCORE.INTER.ROT>
5

>  <SCORE.INTER.SOLV>
15.4733

>  <SCORE.INTER.VDW>
-17.0576

>  <SCORE.INTER.norm>
-0.744967

>  <SCORE.INTRA>
-1.55408

>  <SCORE.INTRA.DIHEDRAL>
-1.39853

>  <SCORE.INTRA.DIHEDRAL.0>
3.281

>  <SCORE.INTRA.POLAR>
0

>  <SCORE.INTRA.POLAR.0>
0

>  <SCORE.INTRA.REPUL>
0

>  <SCORE.INTRA.REPUL.0>
0

>  <SCORE.INTRA.SOLV>
-1.55769

>  <SCORE.INTRA.SOLV.lig_0>
-31.9458

>  <SCORE.INTRA.VDW>
-0.0759734

>  <SCORE.INTRA.VDW.0>
-0.672612

>  <SCORE.INTRA.norm>
-0.155408

>  <SCORE.RESTR>
0

>  <SCORE.RESTR.CAVITY>
0

>  <SCORE.RESTR.norm>
0

>  <SCORE.SYSTEM>
0

>  <SCORE.SYSTEM.CONST>
0

>  <SCORE.SYSTEM.DIHEDRAL>
0

>  <SCORE.SYSTEM.SOLV>
0

>  <SCORE.SYSTEM.norm>
0

>  <SCORE.heavy>
10

>  <SCORE.norm>
-0.900376

>  <RMSD>
5.465

$$$$
ligand
 OpenBabel11021811473D
libRbt.so/2013.1/901 2013/11/27
 10  9  0  0  0  0  0  0  0  0999 V2000
   26.7856   16.2969   19.6643 N   0  0  0  0  0  0  0  0  0  0  0  0
   27.9766   15.6019   19.0993 C   0  0  2  0  0  0  0  0  0  0  0  0
   27.6733   15.0052   17.7322 C   0  0  0  0  0  0  0  0  0  0  0  0
   26.9581   14.0117   17.5935 O   0  0  0  0  0  0  0  0  0  0  0  0
   28.4874   14.5300   20.0596 C   0  0  0  0  0  0  0  0  0  0  0  0
   29.2023   15.1065   21.2597 C   0  0  0  0  0  0  0  0  0  0  0  0
   30.4551   15.8414   20.8639 C   0  0  0  0  0  0  0  0  0  0  0  0
   31.1289   16.4524   22.0800 C   0  0  0  0  0  0  0  0  0  0  0  0
   32.3088   17.2768   21.7103 N   0  0  0  0  0  0  0  0  0  0  0  0
   28.1153   15.5282   16.7081 O   0  0  0  0  0  0  0  0  0  0  0  0
  2  1  1  1  0  0  0
  2  3  1  0  0  0  0
  2  5  1  0  0  0  0
  3  4  1  0  0  0  0
  3 10  1  0  0  0  0
  5  6  1  0  0  0  0
  6  7  1  0  0  0  0
  7  8  1  0  0  0  0
  8  9  1  0  0  0  0
M  END
>  <CHROM.1>
-72.32841549,-73.82173162,-64.03520340,178.00810421,-175.40367537,28.89490013
15.55025655,19.63809344,2.41266633,-0.44485228,-1.49790223

>  <Name>
ligand

>  <RI>
0

>  <Rbt.Current_Directory>
/home/itssahil/PROJECTS/Mol_Feturizer/New_Systems/rnas/3DIX

>  <Rbt.Executable>
rbdock ($Id: //depot/dev/client3/rdock/2013.1/src/exe/rbdock.cxx#4 $)

>  <Rbt.Library>
libRbt.so (2013.1, Build901 2013/11/27)

>  <Rbt.Parameter_File>
/export/apps/rDock/src/rDock_2013.1_src/data/scripts/dock_solv.prm

>  <Rbt.Receptor>
prm/pocket_docking_6.prm

>  <SCORE>
-8.57617

>  <SCORE.INTER>
-8.13909

>  <SCORE.INTER.CONST>
1

>  <SCORE.INTER.POLAR>
0

>  <SCORE.INTER.ROT>
5

>  <SCORE.INTER.SOLV>
15.1691

>  <SCORE.INTER.VDW>
-17.4158

>  <SCORE.INTER.norm>
-0.813909

>  <SCORE.INTRA>
-0.437079

>  <SCORE.INTRA.DIHEDRAL>
-0.921056

>  <SCORE.INTRA.DIHEDRAL.0>
3.281

>  <SCORE.INTRA.POLAR>
0

>  <SCORE.INTRA.POLAR.0>
0

>  <SCORE.INTRA.REPUL>
0

>  <SCORE.INTRA.REPUL.0>
0

>  <SCORE.INTRA.SOLV>
-0.3709

>  <SCORE.INTRA.SOLV.lig_0>
-31.9458

>  <SCORE.INTRA.VDW>
0.208899

>  <SCORE.INTRA.VDW.0>
-0.672612

>  <SCORE.INTRA.norm>
-0.0437079

>  <SCORE.RESTR>
0

>  <SCORE.RESTR.CAVITY>
0

>  <SCORE.RESTR.norm>
0

>  <SCORE.SYSTEM>
0

>  <SCORE.SYSTEM.CONST>
0

>  <SCORE.SYSTEM.DIHEDRAL>
0

>  <SCORE.SYSTEM.SOLV>
0

>  <SCORE.SYSTEM.norm>
0

>  <SCORE.heavy>
10

>  <SCORE.norm>
-0.857617

>  <RMSD>
5.465

$$$$
ligand
 OpenBabel11021811473D
libRbt.so/2013.1/901 2013/11/27
 10  9  0  0  0  0  0  0  0  0999 V2000
   27.0377   14.4294   18.4700 N   0  0  0  0  0  0  0  0  0  0  0  0
   27.7118   14.6793   19.7753 C   0  0  2  0  0  0  0  0  0  0  0  0
   26.7083   15.0677   20.8518 C   0  0  0  0  0  0  0  0  0  0  0  0
   25.5018   15.1631   20.6212 O   0  0  0  0  0  0  0  0  0  0  0  0
   28.7960   15.7451   19.6323 C   0  0  0  0  0  0  0  0  0  0  0  0
   29.7795   15.7427   20.7797 C   0  0  0  0  0  0  0  0  0  0  0  0
   30.8075   16.8331   20.6368 C   0  0  0  0  0  0  0  0  0  0  0  0
   31.8204   16.7707   21.7665 C   0  0  0  0  0  0  0  0  0  0  0  0
   32.8506   17.8359   21.6532 N   0  0  0  0  0  0  0  0  0  0  0  0
   27.0777   15.2683   22.0099 O   0  0  0  0  0  0  0  0  0  0  0  0
  2  1  1  6  0  0  0
  2  3  1  0  0  0  0
  2  5  1  0  0  0  0
  3  4  1  0  0  0  0
  3 10  1  0  0  0  0
  5  6  1  0  0  0  0
  6  7  1  0  0  0  0
  7  8  1  0  0  0  0
  8  9  1  0  0  0  0
M  END
>  <CHROM.1>
-0.65881784,-162.42086349,-178.01640031,-177.42216850,179.97764564,28.77623295
15.75585008,20.64201239,-2.84309109,0.32763810,1.29147469

>  <Name>
ligand

>  <RI>
0

>  <Rbt.Current_Directory>
/home/itssahil/PROJECTS/Mol_Feturizer/New_Systems/rnas/3DIX

>  <Rbt.Executable>
rbdock ($Id: //depot/dev/client3/rdock/2013.1/src/exe/rbdock.cxx#4 $)

>  <Rbt.Library>
libRbt.so (2013.1, Build901 2013/11/27)

>  <Rbt.Parameter_File>
/export/apps/rDock/src/rDock_2013.1_src/data/scripts/dock_solv.prm

>  <Rbt.Receptor>
prm/pocket_docking_4.prm

>  <SCORE>
-8.91851

>  <SCORE.INTER>
-7.89259

>  <SCORE.INTER.CONST>
1

>  <SCORE.INTER.POLAR>
0

>  <SCORE.INTER.ROT>
5

>  <SCORE.INTER.SOLV>
15.4769

>  <SCORE.INTER.VDW>
-17.354

>  <SCORE.INTER.norm>
-0.789259

>  <SCORE.INTRA>
-1.02592

>  <SCORE.INTRA.DIHEDRAL>
-0.629262

>  <SCORE.INTRA.DIHEDRAL.0>
3.281

>  <SCORE.INTRA.POLAR>
0

>  <SCORE.INTRA.POLAR.0>
0

>  <SCORE.INTRA.REPUL>
0

>  <SCORE.INTRA.REPUL.0>
0

>  <SCORE.INTRA.SOLV>
-1.54951

>  <SCORE.INTRA.SOLV.lig_0>
-31.9458

>  <SCORE.INTRA.VDW>
0.0634689

>  <SCORE.INTRA.VDW.0>
-0.672612

>  <SCORE.INTRA.norm>
-0.102592

>  <SCORE.RESTR>
0

>  <SCORE.RESTR.CAVITY>
0

>  <SCORE.RESTR.norm>
0

>  <SCORE.SYSTEM>
0

>  <SCORE.SYSTEM.CONST>
0

>  <SCORE.SYSTEM.DIHEDRAL>
0

>  <SCORE.SYSTEM.SOLV>
0

>  <SCORE.SYSTEM.norm>
0

>  <SCORE.heavy>
10

>  <SCORE.norm>
-0.891851

>  <RMSD>
5.466

$$$$
ligand
 OpenBabel11021811473D
libRbt.so/2013.1/901 2013/11/27
 10  9  0  0  0  0  0  0  0  0999 V2000
   27.1496   14.2348   18.1671 N   0  0  0  0  0  0  0  0  0  0  0  0
   27.7397   14.5359   19.5019 C   0  0  2  0  0  0  0  0  0  0  0  0
   26.6801   15.0277   20.4780 C   0  0  0  0  0  0  0  0  0  0  0  0
   26.8014   14.9011   21.6974 O   0  0  0  0  0  0  0  0  0  0  0  0
   28.8768   15.5476   19.3784 C   0  0  0  0  0  0  0  0  0  0  0  0
   29.6501   15.7247   20.6646 C   0  0  0  0  0  0  0  0  0  0  0  0
   30.7496   16.7428   20.5199 C   0  0  0  0  0  0  0  0  0  0  0  0
   31.5168   16.8967   21.8213 C   0  0  0  0  0  0  0  0  0  0  0  0
   32.5908   17.9189   21.7197 N   0  0  0  0  0  0  0  0  0  0  0  0
   25.6714   15.6050   20.0694 O   0  0  0  0  0  0  0  0  0  0  0  0
  2  1  1  6  0  0  0
  2  3  1  0  0  0  0
  2  5  1  0  0  0  0
  3  4  1  0  0  0  0
  3 10  1  0  0  0  0
  5  6  1  0  0  0  0
  6  7  1  0  0  0  0
  7  8  1  0  0  0  0
  8  9  1  0  0  0  0
M  END
>  <CHROM.1>
154.41383509,-170.98073957,-179.08147245,-179.64996811,-178.69587798,28.70886396
15.71875396,20.42069121,-2.73891776,0.31277364,1.22331528

>  <Name>
ligand

>  <RI>
0

>  <Rbt.Current_Directory>
/home/itssahil/PROJECTS/Mol_Feturizer/New_Systems/rnas/3DIX

>  <Rbt.Executable>
rbdock ($Id: //depot/dev/client3/rdock/2013.1/src/exe/rbdock.cxx#4 $)

>  <Rbt.Library>
libRbt.so (2013.1, Build901 2013/11/27)

>  <Rbt.Parameter_File>
/export/apps/rDock/src/rDock_2013.1_src/data/scripts/dock_solv.prm

>  <Rbt.Receptor>
prm/pocket_docking_3.prm

>  <SCORE>
-9.04835

>  <SCORE.INTER>
-7.38427

>  <SCORE.INTER.CONST>
1

>  <SCORE.INTER.POLAR>
0

>  <SCORE.INTER.ROT>
5

>  <SCORE.INTER.SOLV>
15.4522

>  <SCORE.INTER.VDW>
-17.0069

>  <SCORE.INTER.norm>
-0.738427

>  <SCORE.INTRA>
-1.66408

>  <SCORE.INTRA.DIHEDRAL>
-1.54881

>  <SCORE.INTRA.DIHEDRAL.0>
3.281

>  <SCORE.INTRA.POLAR>
0

>  <SCORE.INTRA.POLAR.0>
0

>  <SCORE.INTRA.REPUL>
0

>  <SCORE.INTRA.REPUL.0>
0

>  <SCORE.INTRA.SOLV>
-1.5625

>  <SCORE.INTRA.SOLV.lig_0>
-31.9458

>  <SCORE.INTRA.VDW>
-0.108422

>  <SCORE.INTRA.VDW.0>
-0.672612

>  <SCORE.INTRA.norm>
-0.166408

>  <SCORE.RESTR>
0

>  <SCORE.RESTR.CAVITY>
0

>  <SCORE.RESTR.norm>
0

>  <SCORE.SYSTEM>
0

>  <SCORE.SYSTEM.CONST>
0

>  <SCORE.SYSTEM.DIHEDRAL>
0

>  <SCORE.SYSTEM.SOLV>
0

>  <SCORE.SYSTEM.norm>
0

>  <SCORE.heavy>
10

>  <SCORE.norm>
-0.904835

>  <RMSD>
5.467

$$$$
ligand
 OpenBabel11021811473D
libRbt.so/2013.1/901 2013/11/27
 10  9  0  0  0  0  0  0  0  0999 V2000
   25.6258   15.3054   20.3041 N   0  0  0  0  0  0  0  0  0  0  0  0
   26.9906   15.7428   19.8958 C   0  0  2  0  0  0  0  0  0  0  0  0
   27.3885   15.1391   18.5563 C   0  0  0  0  0  0  0  0  0  0  0  0
   27.1153   13.9768   18.2528 O   0  0  0  0  0  0  0  0  0  0  0  0
   28.0169   15.3997   20.9733 C   0  0  0  0  0  0  0  0  0  0  0  0
   29.3663   16.0330   20.7247 C   0  0  0  0  0  0  0  0  0  0  0  0
   30.3644   15.6565   21.7869 C   0  0  0  0  0  0  0  0  0  0  0  0
   31.6864   16.3688   21.5613 C   0  0  0  0  0  0  0  0  0  0  0  0
   31.5715   17.8371   21.7596 N   0  0  0  0  0  0  0  0  0  0  0  0
   27.9752   15.8183   17.7123 O   0  0  0  0  0  0  0  0  0  0  0  0
  2  1  1  1  0  0  0
  2  3  1  0  0  0  0
  2  5  1  0  0  0  0
  3  4  1  0  0  0  0
  3 10  1  0  0  0  0
  5  6  1  0  0  0  0
  6  7  1  0  0  0  0
  7  8  1  0  0  0  0
  8  9  1  0  0  0  0
M  END
>  <CHROM.1>
-39.67345907,-169.84806816,-178.89520816,-176.65551861,67.04495775,28.60934213
15.71258351,20.11643786,2.55118571,-0.29542090,-1.71970343

>  <Name>
ligand

>  <RI>
0

>  <Rbt.Current_Directory>
/home/itssahil/PROJECTS/Mol_Feturizer/New_Systems/rnas/3DIX

>  <Rbt.Executable>
rbdock ($Id: //depot/dev/client3/rdock/2013.1/src/exe/rbdock.cxx#4 $)

>  <Rbt.Library>
libRbt.so (2013.1, Build901 2013/11/27)

>  <Rbt.Parameter_File>
/export/apps/rDock/src/rDock_2013.1_src/data/scripts/dock_solv.prm

>  <Rbt.Receptor>
prm/pocket_docking_3.prm

>  <SCORE>
-8.62356

>  <SCORE.INTER>
-7.59812

>  <SCORE.INTER.CONST>
1

>  <SCORE.INTER.POLAR>
0

>  <SCORE.INTER.ROT>
5

>  <SCORE.INTER.SOLV>
16.8722

>  <SCORE.INTER.VDW>
-17.6228

>  <SCORE.INTER.norm>
-0.759812

>  <SCORE.INTRA>
-1.02545

>  <SCORE.INTRA.DIHEDRAL>
-1.11702

>  <SCORE.INTRA.DIHEDRAL.0>
3.281

>  <SCORE.INTRA.POLAR>
0

>  <SCORE.INTRA.POLAR.0>
0

>  <SCORE.INTRA.REPUL>
0

>  <SCORE.INTRA.REPUL.0>
0

>  <SCORE.INTRA.SOLV>
-0.654076

>  <SCORE.INTRA.SOLV.lig_0>
-31.9458

>  <SCORE.INTRA.VDW>
-0.139899

>  <SCORE.INTRA.VDW.0>
-0.672612

>  <SCORE.INTRA.norm>
-0.102545

>  <SCORE.RESTR>
0

>  <SCORE.RESTR.CAVITY>
0

>  <SCORE.RESTR.norm>
0

>  <SCORE.SYSTEM>
0

>  <SCORE.SYSTEM.CONST>
0

>  <SCORE.SYSTEM.DIHEDRAL>
0

>  <SCORE.SYSTEM.SOLV>
0

>  <SCORE.SYSTEM.norm>
0

>  <SCORE.heavy>
10

>  <SCORE.norm>
-0.862356

>  <RMSD>
5.468

$$$$
ligand
 OpenBabel11021811473D
libRbt.so/2013.1/901 2013/11/27
 10  9  0  0  0  0  0  0  0  0999 V2000
   27.0838   14.1666   18.3975 N   0  0  0  0  0  0  0  0  0  0  0  0
   27.7163   14.5248   19.6984 C   0  0  2  0  0  0  0  0  0  0  0  0
   26.6875   15.0536   20.6879 C   0  0  0  0  0  0  0  0  0  0  0  0
   25.5561   15.3946   20.3394 O   0  0  0  0  0  0  0  0  0  0  0  0
   28.8444   15.5338   19.4953 C   0  0  0  0  0  0  0  0  0  0  0  0
   29.7115   15.7028   20.7215 C   0  0  0  0  0  0  0  0  0  0  0  0
   30.8122   16.7042   20.4937 C   0  0  0  0  0  0  0  0  0  0  0  0
   31.6653   16.8607   21.7402 C   0  0  0  0  0  0  0  0  0  0  0  0
   32.7453   17.8648   21.5561 N   0  0  0  0  0  0  0  0  0  0  0  0
   26.9521   15.1248   21.8890 O   0  0  0  0  0  0  0  0  0  0  0  0
  2  1  1  6  0  0  0
  2  3  1  0  0  0  0
  2  5  1  0  0  0  0
  3  4  1  0  0  0  0
  3 10  1  0  0  0  0
  5  6  1  0  0  0  0
  6  7  1  0  0  0  0
  7  8  1  0  0  0  0
  8  9  1  0  0  0  0
M  END
>  <CHROM.1>
-14.12350030,-167.42174375,-179.88099194,179.76354760,-178.82437636,28.74400149
15.69832868,20.52223516,-2.79179634,0.30833163,1.19535596

>  <Name>
ligand

>  <RI>
0

>  <Rbt.Current_Directory>
/home/itssahil/PROJECTS/Mol_Feturizer/New_Systems/rnas/3DIX

>  <Rbt.Executable>
rbdock ($Id: //depot/dev/client3/rdock/2013.1/src/exe/rbdock.cxx#4 $)

>  <Rbt.Library>
libRbt.so (2013.1, Build901 2013/11/27)

>  <Rbt.Parameter_File>
/export/apps/rDock/src/rDock_2013.1_src/data/scripts/dock_solv.prm

>  <Rbt.Receptor>
prm/pocket_docking_4.prm

>  <SCORE>
-8.91547

>  <SCORE.INTER>
-7.50543

>  <SCORE.INTER.CONST>
1

>  <SCORE.INTER.POLAR>
0

>  <SCORE.INTER.ROT>
5

>  <SCORE.INTER.SOLV>
15.703

>  <SCORE.INTER.VDW>
-17.1713

>  <SCORE.INTER.norm>
-0.750543

>  <SCORE.INTRA>
-1.41004

>  <SCORE.INTRA.DIHEDRAL>
-1.15434

>  <SCORE.INTRA.DIHEDRAL.0>
3.281

>  <SCORE.INTRA.POLAR>
0

>  <SCORE.INTRA.POLAR.0>
0

>  <SCORE.INTRA.REPUL>
0

>  <SCORE.INTRA.REPUL.0>
0

>  <SCORE.INTRA.SOLV>
-1.55855

>  <SCORE.INTRA.SOLV.lig_0>
-31.9458

>  <SCORE.INTRA.VDW>
-0.0536009

>  <SCORE.INTRA.VDW.0>
-0.672612

>  <SCORE.INTRA.norm>
-0.141004

>  <SCORE.RESTR>
0

>  <SCORE.RESTR.CAVITY>
0

>  <SCORE.RESTR.norm>
0

>  <SCORE.SYSTEM>
0

>  <SCORE.SYSTEM.CONST>
0

>  <SCORE.SYSTEM.DIHEDRAL>
0

>  <SCORE.SYSTEM.SOLV>
0

>  <SCORE.SYSTEM.norm>
0

>  <SCORE.heavy>
10

>  <SCORE.norm>
-0.891547

>  <RMSD>
5.469

$$$$
ligand
 OpenBabel11021811473D
libRbt.so/2013.1/901 2013/11/27
 10  9  0  0  0  0  0  0  0  0999 V2000
   26.7979   16.2762   19.6584 N   0  0  0  0  0  0  0  0  0  0  0  0
   27.9911   15.6054   19.0694 C   0  0  2  0  0  0  0  0  0  0  0  0
   27.6758   15.0134   17.7029 C   0  0  0  0  0  0  0  0  0  0  0  0
   26.9365   14.0376   17.5648 O   0  0  0  0  0  0  0  0  0  0  0  0
   28.5350   14.5354   20.0134 C   0  0  0  0  0  0  0  0  0  0  0  0
   29.2167   15.1155   21.2311 C   0  0  0  0  0  0  0  0  0  0  0  0
   30.4742   15.8584   20.8666 C   0  0  0  0  0  0  0  0  0  0  0  0
   31.0982   16.4974   22.0947 C   0  0  0  0  0  0  0  0  0  0  0  0
   32.2832   17.3265   21.7527 N   0  0  0  0  0  0  0  0  0  0  0  0
   28.1327   15.5230   16.6786 O   0  0  0  0  0  0  0  0  0  0  0  0
  2  1  1  1  0  0  0
  2  3  1  0  0  0  0
  2  5  1  0  0  0  0
  3  4  1  0  0  0  0
  3 10  1  0  0  0  0
  5  6  1  0  0  0  0
  6  7  1  0  0  0  0
  7  8  1  0  0  0  0
  8  9  1  0  0  0  0
M  END
>  <CHROM.1>
-69.67835776,-71.78501867,-66.38079649,176.80677102,-175.55323541,28.89966291
15.56408714,19.62416841,2.40473849,-0.45160421,-1.50203359

>  <Name>
ligand

>  <RI>
0

>  <Rbt.Current_Directory>
/home/itssahil/PROJECTS/Mol_Feturizer/New_Systems/rnas/3DIX

>  <Rbt.Executable>
rbdock ($Id: //depot/dev/client3/rdock/2013.1/src/exe/rbdock.cxx#4 $)

>  <Rbt.Library>
libRbt.so (2013.1, Build901 2013/11/27)

>  <Rbt.Parameter_File>
/export/apps/rDock/src/rDock_2013.1_src/data/scripts/dock_solv.prm

>  <Rbt.Receptor>
prm/pocket_docking_8.prm

>  <SCORE>
-8.5789

>  <SCORE.INTER>
-8.05921

>  <SCORE.INTER.CONST>
1

>  <SCORE.INTER.POLAR>
0

>  <SCORE.INTER.ROT>
5

>  <SCORE.INTER.SOLV>
15.0562

>  <SCORE.INTER.VDW>
-17.3249

>  <SCORE.INTER.norm>
-0.805921

>  <SCORE.INTRA>
-0.519688

>  <SCORE.INTRA.DIHEDRAL>
-0.986057

>  <SCORE.INTRA.DIHEDRAL.0>
3.281

>  <SCORE.INTRA.POLAR>
0

>  <SCORE.INTRA.POLAR.0>
0

>  <SCORE.INTRA.REPUL>
0

>  <SCORE.INTRA.REPUL.0>
0

>  <SCORE.INTRA.SOLV>
-0.358099

>  <SCORE.INTRA.SOLV.lig_0>
-31.9458

>  <SCORE.INTRA.VDW>
0.15239

>  <SCORE.INTRA.VDW.0>
-0.672612

>  <SCORE.INTRA.norm>
-0.0519688

>  <SCORE.RESTR>
0

>  <SCORE.RESTR.CAVITY>
0

>  <SCORE.RESTR.norm>
0

>  <SCORE.SYSTEM>
0

>  <SCORE.SYSTEM.CONST>
0

>  <SCORE.SYSTEM.DIHEDRAL>
0

>  <SCORE.SYSTEM.SOLV>
0

>  <SCORE.SYSTEM.norm>
0

>  <SCORE.heavy>
10

>  <SCORE.norm>
-0.85789

>  <RMSD>
5.469

$$$$
ligand
 OpenBabel11021811473D
libRbt.so/2013.1/901 2013/11/27
 10  9  0  0  0  0  0  0  0  0999 V2000
   27.1005   14.2643   18.1924 N   0  0  0  0  0  0  0  0  0  0  0  0
   27.7145   14.5313   19.5237 C   0  0  2  0  0  0  0  0  0  0  0  0
   26.6742   15.0059   20.5286 C   0  0  0  0  0  0  0  0  0  0  0  0
   25.6092   15.5172   20.1793 O   0  0  0  0  0  0  0  0  0  0  0  0
   28.8551   15.5396   19.4044 C   0  0  0  0  0  0  0  0  0  0  0  0
   29.6924   15.6331   20.6589 C   0  0  0  0  0  0  0  0  0  0  0  0
   30.7598   16.6881   20.5410 C   0  0  0  0  0  0  0  0  0  0  0  0
   31.5929   16.7565   21.8088 C   0  0  0  0  0  0  0  0  0  0  0  0
   32.5860   17.8613   21.7663 N   0  0  0  0  0  0  0  0  0  0  0  0
   26.8582   14.8586   21.7378 O   0  0  0  0  0  0  0  0  0  0  0  0
  2  1  1  6  0  0  0
  2  3  1  0  0  0  0
  2  5  1  0  0  0  0
  3  4  1  0  0  0  0
  3 10  1  0  0  0  0
  5  6  1  0  0  0  0
  6  7  1  0  0  0  0
  7  8  1  0  0  0  0
  8  9  1  0  0  0  0
M  END
>  <CHROM.1>
-22.29343826,-168.15562491,-176.79472941,-179.61893720,-175.45791118,28.71068910
15.66964274,20.45405339,-2.75841924,0.31163223,1.25111030

>  <Name>
ligand

>  <RI>
0

>  <Rbt.Current_Directory>
/home/itssahil/PROJECTS/Mol_Feturizer/New_Systems/rnas/3DIX

>  <Rbt.Executable>
rbdock ($Id: //depot/dev/client3/rdock/2013.1/src/exe/rbdock.cxx#4 $)

>  <Rbt.Library>
libRbt.so (2013.1, Build901 2013/11/27)

>  <Rbt.Parameter_File>
/export/apps/rDock/src/rDock_2013.1_src/data/scripts/dock_solv.prm

>  <Rbt.Receptor>
prm/pocket_docking_3.prm

>  <SCORE>
-8.92337

>  <SCORE.INTER>
-7.44874

>  <SCORE.INTER.CONST>
1

>  <SCORE.INTER.POLAR>
0

>  <SCORE.INTER.ROT>
5

>  <SCORE.INTER.SOLV>
15.5631

>  <SCORE.INTER.VDW>
-17.0868

>  <SCORE.INTER.norm>
-0.744874

>  <SCORE.INTRA>
-1.47464

>  <SCORE.INTRA.DIHEDRAL>
-1.08882

>  <SCORE.INTRA.DIHEDRAL.0>
3.281

>  <SCORE.INTRA.POLAR>
0

>  <SCORE.INTRA.POLAR.0>
0

>  <SCORE.INTRA.REPUL>
0

>  <SCORE.INTRA.REPUL.0>
0

>  <SCORE.INTRA.SOLV>
-1.55948

>  <SCORE.INTRA.SOLV.lig_0>
-31.9458

>  <SCORE.INTRA.VDW>
-0.150483

>  <SCORE.INTRA.VDW.0>
-0.672612

>  <SCORE.INTRA.norm>
-0.147464

>  <SCORE.RESTR>
0

>  <SCORE.RESTR.CAVITY>
0

>  <SCORE.RESTR.norm>
0

>  <SCORE.SYSTEM>
0

>  <SCORE.SYSTEM.CONST>
0

>  <SCORE.SYSTEM.DIHEDRAL>
0

>  <SCORE.SYSTEM.SOLV>
0

>  <SCORE.SYSTEM.norm>
0

>  <SCORE.heavy>
10

>  <SCORE.norm>
-0.892337

>  <RMSD>
5.474

$$$$
ligand
 OpenBabel11021811473D
libRbt.so/2013.1/901 2013/11/27
 10  9  0  0  0  0  0  0  0  0999 V2000
   27.1051   14.2472   18.1799 N   0  0  0  0  0  0  0  0  0  0  0  0
   27.7088   14.5283   19.5130 C   0  0  2  0  0  0  0  0  0  0  0  0
   26.6635   15.0277   20.5005 C   0  0  0  0  0  0  0  0  0  0  0  0
   25.6085   15.5470   20.1333 O   0  0  0  0  0  0  0  0  0  0  0  0
   28.8602   15.5238   19.3899 C   0  0  0  0  0  0  0  0  0  0  0  0
   29.6688   15.6494   20.6604 C   0  0  0  0  0  0  0  0  0  0  0  0
   30.7503   16.6889   20.5338 C   0  0  0  0  0  0  0  0  0  0  0  0
   31.5774   16.7641   21.8051 C   0  0  0  0  0  0  0  0  0  0  0  0
   32.5873   17.8531   21.7515 N   0  0  0  0  0  0  0  0  0  0  0  0
   26.8327   14.8936   21.7135 O   0  0  0  0  0  0  0  0  0  0  0  0
  2  1  1  6  0  0  0
  2  3  1  0  0  0  0
  2  5  1  0  0  0  0
  3  4  1  0  0  0  0
  3 10  1  0  0  0  0
  5  6  1  0  0  0  0
  6  7  1  0  0  0  0
  7  8  1  0  0  0  0
  8  9  1  0  0  0  0
M  END
>  <CHROM.1>
-22.48622639,-169.35604275,-176.98840229,-178.11284164,-175.60727401,28.70254185
15.67695731,20.43762218,-2.75067814,0.30231981,1.23478932

>  <Name>
ligand

>  <RI>
0

>  <Rbt.Current_Directory>
/home/itssahil/PROJECTS/Mol_Feturizer/New_Systems/rnas/3DIX

>  <Rbt.Executable>
rbdock ($Id: //depot/dev/client3/rdock/2013.1/src/exe/rbdock.cxx#4 $)

>  <Rbt.Library>
libRbt.so (2013.1, Build901 2013/11/27)

>  <Rbt.Parameter_File>
/export/apps/rDock/src/rDock_2013.1_src/data/scripts/dock_solv.prm

>  <Rbt.Receptor>
prm/pocket_docking_5.prm

>  <SCORE>
-8.96354

>  <SCORE.INTER>
-7.46478

>  <SCORE.INTER.CONST>
1

>  <SCORE.INTER.POLAR>
0

>  <SCORE.INTER.ROT>
5

>  <SCORE.INTER.SOLV>
15.5558

>  <SCORE.INTER.VDW>
-17.0951

>  <SCORE.INTER.norm>
-0.746478

>  <SCORE.INTRA>
-1.49876

>  <SCORE.INTRA.DIHEDRAL>
-1.18308

>  <SCORE.INTRA.DIHEDRAL.0>
3.281

>  <SCORE.INTRA.POLAR>
0

>  <SCORE.INTRA.POLAR.0>
0

>  <SCORE.INTRA.REPUL>
0

>  <SCORE.INTRA.REPUL.0>
0

>  <SCORE.INTRA.SOLV>
-1.56138

>  <SCORE.INTRA.SOLV.lig_0>
-31.9458

>  <SCORE.INTRA.VDW>
-0.126531

>  <SCORE.INTRA.VDW.0>
-0.672612

>  <SCORE.INTRA.norm>
-0.149876

>  <SCORE.RESTR>
0

>  <SCORE.RESTR.CAVITY>
0

>  <SCORE.RESTR.norm>
0

>  <SCORE.SYSTEM>
0

>  <SCORE.SYSTEM.CONST>
0

>  <SCORE.SYSTEM.DIHEDRAL>
0

>  <SCORE.SYSTEM.SOLV>
0

>  <SCORE.SYSTEM.norm>
0

>  <SCORE.heavy>
10

>  <SCORE.norm>
-0.896354

>  <RMSD>
5.475

$$$$
ligand
 OpenBabel11021811473D
libRbt.so/2013.1/901 2013/11/27
 10  9  0  0  0  0  0  0  0  0999 V2000
   26.9132   14.4918   20.0381 N   0  0  0  0  0  0  0  0  0  0  0  0
   27.1598   15.5638   19.0328 C   0  0  2  0  0  0  0  0  0  0  0  0
   27.7953   15.0023   17.7686 C   0  0  0  0  0  0  0  0  0  0  0  0
   28.0855   15.7157   16.8070 O   0  0  0  0  0  0  0  0  0  0  0  0
   28.0199   16.6778   19.6253 C   0  0  0  0  0  0  0  0  0  0  0  0
   29.3552   16.1847   20.1328 C   0  0  0  0  0  0  0  0  0  0  0  0
   30.1537   17.2904   20.7699 C   0  0  0  0  0  0  0  0  0  0  0  0
   31.4945   16.7734   21.2609 C   0  0  0  0  0  0  0  0  0  0  0  0
   32.2940   17.8355   21.9252 N   0  0  0  0  0  0  0  0  0  0  0  0
   28.0716   13.8046   17.6849 O   0  0  0  0  0  0  0  0  0  0  0  0
  2  1  1  1  0  0  0
  2  3  1  0  0  0  0
  2  5  1  0  0  0  0
  3  4  1  0  0  0  0
  3 10  1  0  0  0  0
  5  6  1  0  0  0  0
  6  7  1  0  0  0  0
  7  8  1  0  0  0  0
  8  9  1  0  0  0  0
M  END
>  <CHROM.1>
-179.94798751,58.15943387,-177.28245694,-179.52418962,-178.61853531,28.93908958
15.91707867,19.46916153,2.40805556,-0.44675130,-1.75704468

>  <Name>
ligand

>  <RI>
0

>  <Rbt.Current_Directory>
/home/itssahil/PROJECTS/Mol_Feturizer/New_Systems/rnas/3DIX

>  <Rbt.Executable>
rbdock ($Id: //depot/dev/client3/rdock/2013.1/src/exe/rbdock.cxx#4 $)

>  <Rbt.Library>
libRbt.so (2013.1, Build901 2013/11/27)

>  <Rbt.Parameter_File>
/export/apps/rDock/src/rDock_2013.1_src/data/scripts/dock_solv.prm

>  <Rbt.Receptor>
prm/pocket_docking_8.prm

>  <SCORE>
-9.34714

>  <SCORE.INTER>
-8.34857

>  <SCORE.INTER.CONST>
1

>  <SCORE.INTER.POLAR>
0

>  <SCORE.INTER.ROT>
5

>  <SCORE.INTER.SOLV>
13.873

>  <SCORE.INTER.VDW>
-17.1234

>  <SCORE.INTER.norm>
-0.834857

>  <SCORE.INTRA>
-0.998569

>  <SCORE.INTRA.DIHEDRAL>
-1.73919

>  <SCORE.INTRA.DIHEDRAL.0>
3.281

>  <SCORE.INTRA.POLAR>
0

>  <SCORE.INTRA.POLAR.0>
0

>  <SCORE.INTRA.REPUL>
0

>  <SCORE.INTRA.REPUL.0>
0

>  <SCORE.INTRA.SOLV>
-0.595638

>  <SCORE.INTRA.SOLV.lig_0>
-31.9458

>  <SCORE.INTRA.VDW>
0.168847

>  <SCORE.INTRA.VDW.0>
-0.672612

>  <SCORE.INTRA.norm>
-0.0998569

>  <SCORE.RESTR>
0

>  <SCORE.RESTR.CAVITY>
0

>  <SCORE.RESTR.norm>
0

>  <SCORE.SYSTEM>
0

>  <SCORE.SYSTEM.CONST>
0

>  <SCORE.SYSTEM.DIHEDRAL>
0

>  <SCORE.SYSTEM.SOLV>
0

>  <SCORE.SYSTEM.norm>
0

>  <SCORE.heavy>
10

>  <SCORE.norm>
-0.934714

>  <RMSD>
5.476

$$$$
ligand
 OpenBabel11021811473D
libRbt.so/2013.1/901 2013/11/27
 10  9  0  0  0  0  0  0  0  0999 V2000
   26.8848   14.5497   20.0470 N   0  0  0  0  0  0  0  0  0  0  0  0
   27.1613   15.6057   19.0325 C   0  0  2  0  0  0  0  0  0  0  0  0
   27.7874   15.0169   17.7762 C   0  0  0  0  0  0  0  0  0  0  0  0
   28.1115   15.7157   16.8147 O   0  0  0  0  0  0  0  0  0  0  0  0
   28.0461   16.7040   19.6178 C   0  0  0  0  0  0  0  0  0  0  0  0
   29.3626   16.1817   20.1449 C   0  0  0  0  0  0  0  0  0  0  0  0
   30.1798   17.2715   20.7858 C   0  0  0  0  0  0  0  0  0  0  0  0
   31.4980   16.7235   21.3036 C   0  0  0  0  0  0  0  0  0  0  0  0
   32.3375   17.7806   21.9250 N   0  0  0  0  0  0  0  0  0  0  0  0
   28.0214   13.8098   17.6992 O   0  0  0  0  0  0  0  0  0  0  0  0
  2  1  1  1  0  0  0
  2  3  1  0  0  0  0
  2  5  1  0  0  0  0
  3  4  1  0  0  0  0
  3 10  1  0  0  0  0
  5  6  1  0  0  0  0
  6  7  1  0  0  0  0
  7  8  1  0  0  0  0
  8  9  1  0  0  0  0
M  END
>  <CHROM.1>
-179.16224842,57.71288508,-176.74755872,-179.83956353,179.15316476,28.94359300
15.91853610,19.47941073,2.40728198,-0.42572476,-1.76184988

>  <Name>
ligand

>  <RI>
0

>  <Rbt.Current_Directory>
/home/itssahil/PROJECTS/Mol_Feturizer/New_Systems/rnas/3DIX

>  <Rbt.Executable>
rbdock ($Id: //depot/dev/client3/rdock/2013.1/src/exe/rbdock.cxx#4 $)

>  <Rbt.Library>
libRbt.so (2013.1, Build901 2013/11/27)

>  <Rbt.Parameter_File>
/export/apps/rDock/src/rDock_2013.1_src/data/scripts/dock_solv.prm

>  <Rbt.Receptor>
prm/pocket_docking_5.prm

>  <SCORE>
-9.34264

>  <SCORE.INTER>
-8.3656

>  <SCORE.INTER.CONST>
1

>  <SCORE.INTER.POLAR>
0

>  <SCORE.INTER.ROT>
5

>  <SCORE.INTER.SOLV>
13.9338

>  <SCORE.INTER.VDW>
-17.155

>  <SCORE.INTER.norm>
-0.83656

>  <SCORE.INTRA>
-0.977048

>  <SCORE.INTRA.DIHEDRAL>
-1.72019

>  <SCORE.INTRA.DIHEDRAL.0>
3.281

>  <SCORE.INTRA.POLAR>
0

>  <SCORE.INTRA.POLAR.0>
0

>  <SCORE.INTRA.REPUL>
0

>  <SCORE.INTRA.REPUL.0>
0

>  <SCORE.INTRA.SOLV>
-0.587206

>  <SCORE.INTRA.SOLV.lig_0>
-31.9458

>  <SCORE.INTRA.VDW>
0.176652

>  <SCORE.INTRA.VDW.0>
-0.672612

>  <SCORE.INTRA.norm>
-0.0977048

>  <SCORE.RESTR>
0

>  <SCORE.RESTR.CAVITY>
0

>  <SCORE.RESTR.norm>
0

>  <SCORE.SYSTEM>
0

>  <SCORE.SYSTEM.CONST>
0

>  <SCORE.SYSTEM.DIHEDRAL>
0

>  <SCORE.SYSTEM.SOLV>
0

>  <SCORE.SYSTEM.norm>
0

>  <SCORE.heavy>
10

>  <SCORE.norm>
-0.934264

>  <RMSD>
5.477

$$$$
ligand
 OpenBabel11021811473D
libRbt.so/2013.1/901 2013/11/27
 10  9  0  0  0  0  0  0  0  0999 V2000
   27.1049   14.2782   18.1456 N   0  0  0  0  0  0  0  0  0  0  0  0
   27.7070   14.5410   19.4832 C   0  0  2  0  0  0  0  0  0  0  0  0
   26.6573   15.0096   20.4810 C   0  0  0  0  0  0  0  0  0  0  0  0
   26.7970   14.8668   21.6967 O   0  0  0  0  0  0  0  0  0  0  0  0
   28.8467   15.5518   19.3777 C   0  0  0  0  0  0  0  0  0  0  0  0
   29.6554   15.6628   20.6496 C   0  0  0  0  0  0  0  0  0  0  0  0
   30.7394   16.7009   20.5336 C   0  0  0  0  0  0  0  0  0  0  0  0
   31.5553   16.7737   21.8123 C   0  0  0  0  0  0  0  0  0  0  0  0
   32.5821   17.8468   21.7600 N   0  0  0  0  0  0  0  0  0  0  0  0
   25.6379   15.5837   20.0950 O   0  0  0  0  0  0  0  0  0  0  0  0
  2  1  1  6  0  0  0
  2  3  1  0  0  0  0
  2  5  1  0  0  0  0
  3  4  1  0  0  0  0
  3 10  1  0  0  0  0
  5  6  1  0  0  0  0
  6  7  1  0  0  0  0
  7  8  1  0  0  0  0
  8  9  1  0  0  0  0
M  END
>  <CHROM.1>
155.48711558,-169.35951833,-177.93491751,-178.83174849,-176.55044362,28.69466474
15.68640125,20.42281980,-2.75022874,0.30752726,1.25234103

>  <Name>
ligand

>  <RI>
0

>  <Rbt.Current_Directory>
/home/itssahil/PROJECTS/Mol_Feturizer/New_Systems/rnas/3DIX

>  <Rbt.Executable>
rbdock ($Id: //depot/dev/client3/rdock/2013.1/src/exe/rbdock.cxx#4 $)

>  <Rbt.Library>
libRbt.so (2013.1, Build901 2013/11/27)

>  <Rbt.Parameter_File>
/export/apps/rDock/src/rDock_2013.1_src/data/scripts/dock_solv.prm

>  <Rbt.Receptor>
prm/pocket_docking_7.prm

>  <SCORE>
-9.05443

>  <SCORE.INTER>
-7.45522

>  <SCORE.INTER.CONST>
1

>  <SCORE.INTER.POLAR>
0

>  <SCORE.INTER.ROT>
5

>  <SCORE.INTER.SOLV>
15.5368

>  <SCORE.INTER.VDW>
-17.0824

>  <SCORE.INTER.norm>
-0.745522

>  <SCORE.INTRA>
-1.59921

>  <SCORE.INTRA.DIHEDRAL>
-1.37236

>  <SCORE.INTRA.DIHEDRAL.0>
3.281

>  <SCORE.INTRA.POLAR>
0

>  <SCORE.INTRA.POLAR.0>
0

>  <SCORE.INTRA.REPUL>
0

>  <SCORE.INTRA.REPUL.0>
0

>  <SCORE.INTRA.SOLV>
-1.55909

>  <SCORE.INTRA.SOLV.lig_0>
-31.9458

>  <SCORE.INTRA.VDW>
-0.133489

>  <SCORE.INTRA.VDW.0>
-0.672612

>  <SCORE.INTRA.norm>
-0.159921

>  <SCORE.RESTR>
0

>  <SCORE.RESTR.CAVITY>
0

>  <SCORE.RESTR.norm>
0

>  <SCORE.SYSTEM>
0

>  <SCORE.SYSTEM.CONST>
0

>  <SCORE.SYSTEM.DIHEDRAL>
0

>  <SCORE.SYSTEM.SOLV>
0

>  <SCORE.SYSTEM.norm>
0

>  <SCORE.heavy>
10

>  <SCORE.norm>
-0.905443

>  <RMSD>
5.477

$$$$
ligand
 OpenBabel11021811473D
libRbt.so/2013.1/901 2013/11/27
 10  9  0  0  0  0  0  0  0  0999 V2000
   26.8666   14.5128   20.0295 N   0  0  0  0  0  0  0  0  0  0  0  0
   27.1496   15.5741   19.0225 C   0  0  2  0  0  0  0  0  0  0  0  0
   27.7924   14.9931   17.7709 C   0  0  0  0  0  0  0  0  0  0  0  0
   28.0931   15.6924   16.8022 O   0  0  0  0  0  0  0  0  0  0  0  0
   28.0229   16.6740   19.6220 C   0  0  0  0  0  0  0  0  0  0  0  0
   29.3507   16.1611   20.1295 C   0  0  0  0  0  0  0  0  0  0  0  0
   30.1810   17.2620   20.7335 C   0  0  0  0  0  0  0  0  0  0  0  0
   31.5183   16.7269   21.2144 C   0  0  0  0  0  0  0  0  0  0  0  0
   32.3624   17.7913   21.8170 N   0  0  0  0  0  0  0  0  0  0  0  0
   28.0642   13.7933   17.7052 O   0  0  0  0  0  0  0  0  0  0  0  0
  2  1  1  1  0  0  0
  2  3  1  0  0  0  0
  2  5  1  0  0  0  0
  3  4  1  0  0  0  0
  3 10  1  0  0  0  0
  5  6  1  0  0  0  0
  6  7  1  0  0  0  0
  7  8  1  0  0  0  0
  8  9  1  0  0  0  0
M  END
>  <CHROM.1>
178.96020501,59.19604499,-179.12582875,-179.04918989,-179.99180907,28.94503415
15.90084386,19.44966629,2.41541823,-0.41679007,-1.78163064

>  <Name>
ligand

>  <RI>
0

>  <Rbt.Current_Directory>
/home/itssahil/PROJECTS/Mol_Feturizer/New_Systems/rnas/3DIX

>  <Rbt.Executable>
rbdock ($Id: //depot/dev/client3/rdock/2013.1/src/exe/rbdock.cxx#4 $)

>  <Rbt.Library>
libRbt.so (2013.1, Build901 2013/11/27)

>  <Rbt.Parameter_File>
/export/apps/rDock/src/rDock_2013.1_src/data/scripts/dock_solv.prm

>  <Rbt.Receptor>
prm/pocket_docking_6.prm

>  <SCORE>
-9.31359

>  <SCORE.INTER>
-8.26943

>  <SCORE.INTER.CONST>
1

>  <SCORE.INTER.POLAR>
0

>  <SCORE.INTER.ROT>
5

>  <SCORE.INTER.SOLV>
14.0013

>  <SCORE.INTER.VDW>
-17.1134

>  <SCORE.INTER.norm>
-0.826943

>  <SCORE.INTRA>
-1.04417

>  <SCORE.INTRA.DIHEDRAL>
-1.78815

>  <SCORE.INTRA.DIHEDRAL.0>
3.281

>  <SCORE.INTRA.POLAR>
0

>  <SCORE.INTRA.POLAR.0>
0

>  <SCORE.INTRA.REPUL>
0

>  <SCORE.INTRA.REPUL.0>
0

>  <SCORE.INTRA.SOLV>
-0.618384

>  <SCORE.INTRA.SOLV.lig_0>
-31.9458

>  <SCORE.INTRA.VDW>
0.159099

>  <SCORE.INTRA.VDW.0>
-0.672612

>  <SCORE.INTRA.norm>
-0.104417

>  <SCORE.RESTR>
0

>  <SCORE.RESTR.CAVITY>
0

>  <SCORE.RESTR.norm>
0

>  <SCORE.SYSTEM>
0

>  <SCORE.SYSTEM.CONST>
0

>  <SCORE.SYSTEM.DIHEDRAL>
0

>  <SCORE.SYSTEM.SOLV>
0

>  <SCORE.SYSTEM.norm>
0

>  <SCORE.heavy>
10

>  <SCORE.norm>
-0.931359

>  <RMSD>
5.480

$$$$
ligand
 OpenBabel11021811473D
libRbt.so/2013.1/901 2013/11/27
 10  9  0  0  0  0  0  0  0  0999 V2000
   26.8700   14.5673   20.0830 N   0  0  0  0  0  0  0  0  0  0  0  0
   27.1702   15.5869   19.0386 C   0  0  2  0  0  0  0  0  0  0  0  0
   27.8166   14.9530   17.8149 C   0  0  0  0  0  0  0  0  0  0  0  0
   28.0455   13.7446   17.7450 O   0  0  0  0  0  0  0  0  0  0  0  0
   28.0493   16.7008   19.6026 C   0  0  0  0  0  0  0  0  0  0  0  0
   29.3680   16.1954   20.1405 C   0  0  0  0  0  0  0  0  0  0  0  0
   30.1790   17.3014   20.7612 C   0  0  0  0  0  0  0  0  0  0  0  0
   31.4950   16.7682   21.2996 C   0  0  0  0  0  0  0  0  0  0  0  0
   32.3113   17.8341   21.9371 N   0  0  0  0  0  0  0  0  0  0  0  0
   28.1028   15.6381   16.8317 O   0  0  0  0  0  0  0  0  0  0  0  0
  2  1  1  1  0  0  0
  2  3  1  0  0  0  0
  2  5  1  0  0  0  0
  3  4  1  0  0  0  0
  3 10  1  0  0  0  0
  5  6  1  0  0  0  0
  6  7  1  0  0  0  0
  7  8  1  0  0  0  0
  8  9  1  0  0  0  0
M  END
>  <CHROM.1>
-0.15228776,59.13944822,-176.70330855,179.73055628,-179.18254449,28.94507129
15.91068880,19.49038359,2.39363545,-0.41433871,-1.80369713

>  <Name>
ligand

>  <RI>
0

>  <Rbt.Current_Directory>
/home/itssahil/PROJECTS/Mol_Feturizer/New_Systems/rnas/3DIX

>  <Rbt.Executable>
rbdock ($Id: //depot/dev/client3/rdock/2013.1/src/exe/rbdock.cxx#4 $)

>  <Rbt.Library>
libRbt.so (2013.1, Build901 2013/11/27)

>  <Rbt.Parameter_File>
/export/apps/rDock/src/rDock_2013.1_src/data/scripts/dock_solv.prm

>  <Rbt.Receptor>
prm/pocket_docking_6.prm

>  <SCORE>
-9.30333

>  <SCORE.INTER>
-8.28942

>  <SCORE.INTER.CONST>
1

>  <SCORE.INTER.POLAR>
0

>  <SCORE.INTER.ROT>
5

>  <SCORE.INTER.SOLV>
13.924

>  <SCORE.INTER.VDW>
-17.101

>  <SCORE.INTER.norm>
-0.828942

>  <SCORE.INTRA>
-1.01391

>  <SCORE.INTRA.DIHEDRAL>
-1.73081

>  <SCORE.INTRA.DIHEDRAL.0>
3.281

>  <SCORE.INTRA.POLAR>
0

>  <SCORE.INTRA.POLAR.0>
0

>  <SCORE.INTRA.REPUL>
0

>  <SCORE.INTRA.REPUL.0>
0

>  <SCORE.INTRA.SOLV>
-0.616061

>  <SCORE.INTRA.SOLV.lig_0>
-31.9458

>  <SCORE.INTRA.VDW>
0.159526

>  <SCORE.INTRA.VDW.0>
-0.672612

>  <SCORE.INTRA.norm>
-0.101391

>  <SCORE.RESTR>
0

>  <SCORE.RESTR.CAVITY>
0

>  <SCORE.RESTR.norm>
0

>  <SCORE.SYSTEM>
0

>  <SCORE.SYSTEM.CONST>
0

>  <SCORE.SYSTEM.DIHEDRAL>
0

>  <SCORE.SYSTEM.SOLV>
0

>  <SCORE.SYSTEM.norm>
0

>  <SCORE.heavy>
10

>  <SCORE.norm>
-0.930333

>  <RMSD>
5.480

$$$$
ligand
 OpenBabel11021811473D
libRbt.so/2013.1/901 2013/11/27
 10  9  0  0  0  0  0  0  0  0999 V2000
   27.1077   14.2410   18.1724 N   0  0  0  0  0  0  0  0  0  0  0  0
   27.7043   14.5268   19.5077 C   0  0  2  0  0  0  0  0  0  0  0  0
   26.6519   15.0197   20.4909 C   0  0  0  0  0  0  0  0  0  0  0  0
   25.6037   15.5500   20.1197 O   0  0  0  0  0  0  0  0  0  0  0  0
   28.8494   15.5300   19.3884 C   0  0  0  0  0  0  0  0  0  0  0  0
   29.6500   15.6646   20.6631 C   0  0  0  0  0  0  0  0  0  0  0  0
   30.7382   16.6966   20.5332 C   0  0  0  0  0  0  0  0  0  0  0  0
   31.5679   16.7683   21.8030 C   0  0  0  0  0  0  0  0  0  0  0  0
   32.5866   17.8488   21.7451 N   0  0  0  0  0  0  0  0  0  0  0  0
   26.8079   14.8690   21.7036 O   0  0  0  0  0  0  0  0  0  0  0  0
  2  1  1  6  0  0  0
  2  3  1  0  0  0  0
  2  5  1  0  0  0  0
  3  4  1  0  0  0  0
  3 10  1  0  0  0  0
  5  6  1  0  0  0  0
  6  7  1  0  0  0  0
  7  8  1  0  0  0  0
  8  9  1  0  0  0  0
M  END
>  <CHROM.1>
-23.60451032,-169.51238831,-177.84428407,-177.39945708,-175.71118024,28.69291325
15.67592788,20.43212286,-2.75155454,0.30525206,1.23876095

>  <Name>
ligand

>  <RI>
0

>  <Rbt.Current_Directory>
/home/itssahil/PROJECTS/Mol_Feturizer/New_Systems/rnas/3DIX

>  <Rbt.Executable>
rbdock ($Id: //depot/dev/client3/rdock/2013.1/src/exe/rbdock.cxx#4 $)

>  <Rbt.Library>
libRbt.so (2013.1, Build901 2013/11/27)

>  <Rbt.Parameter_File>
/export/apps/rDock/src/rDock_2013.1_src/data/scripts/dock_solv.prm

>  <Rbt.Receptor>
prm/pocket_docking_4.prm

>  <SCORE>
-8.96203

>  <SCORE.INTER>
-7.44515

>  <SCORE.INTER.CONST>
1

>  <SCORE.INTER.POLAR>
0

>  <SCORE.INTER.ROT>
5

>  <SCORE.INTER.SOLV>
15.5588

>  <SCORE.INTER.VDW>
-17.083

>  <SCORE.INTER.norm>
-0.744515

>  <SCORE.INTRA>
-1.51688

>  <SCORE.INTRA.DIHEDRAL>
-1.2026

>  <SCORE.INTRA.DIHEDRAL.0>
3.281

>  <SCORE.INTRA.POLAR>
0

>  <SCORE.INTRA.POLAR.0>
0

>  <SCORE.INTRA.REPUL>
0

>  <SCORE.INTRA.REPUL.0>
0

>  <SCORE.INTRA.SOLV>
-1.56187

>  <SCORE.INTRA.SOLV.lig_0>
-31.9458

>  <SCORE.INTRA.VDW>
-0.134641

>  <SCORE.INTRA.VDW.0>
-0.672612

>  <SCORE.INTRA.norm>
-0.151688

>  <SCORE.RESTR>
0

>  <SCORE.RESTR.CAVITY>
0

>  <SCORE.RESTR.norm>
0

>  <SCORE.SYSTEM>
0

>  <SCORE.SYSTEM.CONST>
0

>  <SCORE.SYSTEM.DIHEDRAL>
0

>  <SCORE.SYSTEM.SOLV>
0

>  <SCORE.SYSTEM.norm>
0

>  <SCORE.heavy>
10

>  <SCORE.norm>
-0.896203

>  <RMSD>
5.481

$$$$
ligand
 OpenBabel11021811473D
libRbt.so/2013.1/901 2013/11/27
 10  9  0  0  0  0  0  0  0  0999 V2000
   27.1017   14.2348   18.1698 N   0  0  0  0  0  0  0  0  0  0  0  0
   27.6989   14.5243   19.5040 C   0  0  2  0  0  0  0  0  0  0  0  0
   26.6487   15.0287   20.4837 C   0  0  0  0  0  0  0  0  0  0  0  0
   25.6060   15.5672   20.1089 O   0  0  0  0  0  0  0  0  0  0  0  0
   28.8500   15.5201   19.3803 C   0  0  0  0  0  0  0  0  0  0  0  0
   29.6533   15.6532   20.6534 C   0  0  0  0  0  0  0  0  0  0  0  0
   30.7328   16.6947   20.5266 C   0  0  0  0  0  0  0  0  0  0  0  0
   31.5623   16.7691   21.7965 C   0  0  0  0  0  0  0  0  0  0  0  0
   32.5834   17.8471   21.7350 N   0  0  0  0  0  0  0  0  0  0  0  0
   26.8007   14.8795   21.6971 O   0  0  0  0  0  0  0  0  0  0  0  0
  2  1  1  6  0  0  0
  2  3  1  0  0  0  0
  2  5  1  0  0  0  0
  3  4  1  0  0  0  0
  3 10  1  0  0  0  0
  5  6  1  0  0  0  0
  6  7  1  0  0  0  0
  7  8  1  0  0  0  0
  8  9  1  0  0  0  0
M  END
>  <CHROM.1>
-23.85546857,-169.31359379,-176.88292673,-177.62587746,-176.43512271,28.68995481
15.67660017,20.42490328,-2.74961196,0.30134261,1.23163074

>  <Name>
ligand

>  <RI>
0

>  <Rbt.Current_Directory>
/home/itssahil/PROJECTS/Mol_Feturizer/New_Systems/rnas/3DIX

>  <Rbt.Executable>
rbdock ($Id: //depot/dev/client3/rdock/2013.1/src/exe/rbdock.cxx#4 $)

>  <Rbt.Library>
libRbt.so (2013.1, Build901 2013/11/27)

>  <Rbt.Parameter_File>
/export/apps/rDock/src/rDock_2013.1_src/data/scripts/dock_solv.prm

>  <Rbt.Receptor>
prm/pocket_docking_6.prm

>  <SCORE>
-8.96321

>  <SCORE.INTER>
-7.44359

>  <SCORE.INTER.CONST>
1

>  <SCORE.INTER.POLAR>
0

>  <SCORE.INTER.ROT>
5

>  <SCORE.INTER.SOLV>
15.5717

>  <SCORE.INTER.VDW>
-17.0863

>  <SCORE.INTER.norm>
-0.744359

>  <SCORE.INTRA>
-1.51962

>  <SCORE.INTRA.DIHEDRAL>
-1.19178

>  <SCORE.INTRA.DIHEDRAL.0>
3.281

>  <SCORE.INTRA.POLAR>
0

>  <SCORE.INTRA.POLAR.0>
0

>  <SCORE.INTRA.REPUL>
0

>  <SCORE.INTRA.REPUL.0>
0

>  <SCORE.INTRA.SOLV>
-1.562

>  <SCORE.INTRA.SOLV.lig_0>
-31.9458

>  <SCORE.INTRA.VDW>
-0.142731

>  <SCORE.INTRA.VDW.0>
-0.672612

>  <SCORE.INTRA.norm>
-0.151962

>  <SCORE.RESTR>
0

>  <SCORE.RESTR.CAVITY>
0

>  <SCORE.RESTR.norm>
0

>  <SCORE.SYSTEM>
0

>  <SCORE.SYSTEM.CONST>
0

>  <SCORE.SYSTEM.DIHEDRAL>
0

>  <SCORE.SYSTEM.SOLV>
0

>  <SCORE.SYSTEM.norm>
0

>  <SCORE.heavy>
10

>  <SCORE.norm>
-0.896321

>  <RMSD>
5.481

$$$$
ligand
 OpenBabel11021811473D
libRbt.so/2013.1/901 2013/11/27
 10  9  0  0  0  0  0  0  0  0999 V2000
   25.5999   15.3278   20.2932 N   0  0  0  0  0  0  0  0  0  0  0  0
   26.9745   15.7402   19.8918 C   0  0  2  0  0  0  0  0  0  0  0  0
   27.3771   15.1100   18.5659 C   0  0  0  0  0  0  0  0  0  0  0  0
   27.0635   13.9574   18.2647 O   0  0  0  0  0  0  0  0  0  0  0  0
   27.9853   15.4004   20.9847 C   0  0  0  0  0  0  0  0  0  0  0  0
   29.3301   16.0549   20.7676 C   0  0  0  0  0  0  0  0  0  0  0  0
   30.3190   15.6670   21.8342 C   0  0  0  0  0  0  0  0  0  0  0  0
   31.6646   16.3262   21.5875 C   0  0  0  0  0  0  0  0  0  0  0  0
   31.6133   17.7968   21.7958 N   0  0  0  0  0  0  0  0  0  0  0  0
   28.0098   15.7579   17.7307 O   0  0  0  0  0  0  0  0  0  0  0  0
  2  1  1  1  0  0  0
  2  3  1  0  0  0  0
  2  5  1  0  0  0  0
  3  4  1  0  0  0  0
  3 10  1  0  0  0  0
  5  6  1  0  0  0  0
  6  7  1  0  0  0  0
  7  8  1  0  0  0  0
  8  9  1  0  0  0  0
M  END
>  <CHROM.1>
-37.89054963,-167.62375252,-178.13295295,179.48000242,68.89038982,28.59309141
15.69810490,20.13551121,2.54195969,-0.27896477,-1.74240259

>  <Name>
ligand

>  <RI>
0

>  <Rbt.Current_Directory>
/home/itssahil/PROJECTS/Mol_Feturizer/New_Systems/rnas/3DIX

>  <Rbt.Executable>
rbdock ($Id: //depot/dev/client3/rdock/2013.1/src/exe/rbdock.cxx#4 $)

>  <Rbt.Library>
libRbt.so (2013.1, Build901 2013/11/27)

>  <Rbt.Parameter_File>
/export/apps/rDock/src/rDock_2013.1_src/data/scripts/dock_solv.prm

>  <Rbt.Receptor>
prm/pocket_docking_6.prm

>  <SCORE>
-8.58216

>  <SCORE.INTER>
-7.61646

>  <SCORE.INTER.CONST>
1

>  <SCORE.INTER.POLAR>
0

>  <SCORE.INTER.ROT>
5

>  <SCORE.INTER.SOLV>
16.8442

>  <SCORE.INTER.VDW>
-17.6257

>  <SCORE.INTER.norm>
-0.761646

>  <SCORE.INTRA>
-0.965698

>  <SCORE.INTRA.DIHEDRAL>
-0.858663

>  <SCORE.INTRA.DIHEDRAL.0>
3.281

>  <SCORE.INTRA.POLAR>
0

>  <SCORE.INTRA.POLAR.0>
0

>  <SCORE.INTRA.REPUL>
0

>  <SCORE.INTRA.REPUL.0>
0

>  <SCORE.INTRA.SOLV>
-0.698295

>  <SCORE.INTRA.SOLV.lig_0>
-31.9458

>  <SCORE.INTRA.VDW>
-0.187219

>  <SCORE.INTRA.VDW.0>
-0.672612

>  <SCORE.INTRA.norm>
-0.0965698

>  <SCORE.RESTR>
0

>  <SCORE.RESTR.CAVITY>
0

>  <SCORE.RESTR.norm>
0

>  <SCORE.SYSTEM>
0

>  <SCORE.SYSTEM.CONST>
0

>  <SCORE.SYSTEM.DIHEDRAL>
0

>  <SCORE.SYSTEM.SOLV>
0

>  <SCORE.SYSTEM.norm>
0

>  <SCORE.heavy>
10

>  <SCORE.norm>
-0.858216

>  <RMSD>
5.481

$$$$
ligand
 OpenBabel11021811473D
libRbt.so/2013.1/901 2013/11/27
 10  9  0  0  0  0  0  0  0  0999 V2000
   26.8811   14.7750   20.1266 N   0  0  0  0  0  0  0  0  0  0  0  0
   27.3943   15.6973   19.0746 C   0  0  2  0  0  0  0  0  0  0  0  0
   27.6426   14.9613   17.7654 C   0  0  0  0  0  0  0  0  0  0  0  0
   28.1809   15.5037   16.7991 O   0  0  0  0  0  0  0  0  0  0  0  0
   28.6597   16.4101   19.5462 C   0  0  0  0  0  0  0  0  0  0  0  0
   29.7491   15.4546   19.9751 C   0  0  0  0  0  0  0  0  0  0  0  0
   31.0134   16.1807   20.3500 C   0  0  0  0  0  0  0  0  0  0  0  0
   30.8194   16.9763   21.6288 C   0  0  0  0  0  0  0  0  0  0  0  0
   32.0337   17.7510   21.9950 N   0  0  0  0  0  0  0  0  0  0  0  0
   27.3367   13.7738   17.6463 O   0  0  0  0  0  0  0  0  0  0  0  0
  2  1  1  1  0  0  0
  2  3  1  0  0  0  0
  2  5  1  0  0  0  0
  3  4  1  0  0  0  0
  3 10  1  0  0  0  0
  5  6  1  0  0  0  0
  6  7  1  0  0  0  0
  7  8  1  0  0  0  0
  8  9  1  0  0  0  0
M  END
>  <CHROM.1>
-173.28034546,55.90982440,176.31257200,68.64019005,-177.59242485,28.96727986
15.72880514,19.45447630,2.40778252,-0.44353209,-1.70884901

>  <Name>
ligand

>  <RI>
0

>  <Rbt.Current_Directory>
/home/itssahil/PROJECTS/Mol_Feturizer/New_Systems/rnas/3DIX

>  <Rbt.Executable>
rbdock ($Id: //depot/dev/client3/rdock/2013.1/src/exe/rbdock.cxx#4 $)

>  <Rbt.Library>
libRbt.so (2013.1, Build901 2013/11/27)

>  <Rbt.Parameter_File>
/export/apps/rDock/src/rDock_2013.1_src/data/scripts/dock_solv.prm

>  <Rbt.Receptor>
prm/pocket_docking_4.prm

>  <SCORE>
-8.27014

>  <SCORE.INTER>
-8.41926

>  <SCORE.INTER.CONST>
1

>  <SCORE.INTER.POLAR>
0

>  <SCORE.INTER.ROT>
5

>  <SCORE.INTER.SOLV>
13.0663

>  <SCORE.INTER.VDW>
-16.9016

>  <SCORE.INTER.norm>
-0.841926

>  <SCORE.INTRA>
0.149122

>  <SCORE.INTRA.DIHEDRAL>
-1.3109

>  <SCORE.INTRA.DIHEDRAL.0>
3.281

>  <SCORE.INTRA.POLAR>
0

>  <SCORE.INTRA.POLAR.0>
0

>  <SCORE.INTRA.REPUL>
0

>  <SCORE.INTRA.REPUL.0>
0

>  <SCORE.INTRA.SOLV>
-0.324227

>  <SCORE.INTRA.SOLV.lig_0>
-31.9458

>  <SCORE.INTRA.VDW>
0.966683

>  <SCORE.INTRA.VDW.0>
-0.672612

>  <SCORE.INTRA.norm>
0.0149122

>  <SCORE.RESTR>
0

>  <SCORE.RESTR.CAVITY>
0

>  <SCORE.RESTR.norm>
0

>  <SCORE.SYSTEM>
0

>  <SCORE.SYSTEM.CONST>
0

>  <SCORE.SYSTEM.DIHEDRAL>
0

>  <SCORE.SYSTEM.SOLV>
0

>  <SCORE.SYSTEM.norm>
0

>  <SCORE.heavy>
10

>  <SCORE.norm>
-0.827014

>  <RMSD>
5.482

$$$$
ligand
 OpenBabel11021811473D
libRbt.so/2013.1/901 2013/11/27
 10  9  0  0  0  0  0  0  0  0999 V2000
   26.6497   16.2345   19.6809 N   0  0  0  0  0  0  0  0  0  0  0  0
   27.8604   15.5639   19.1286 C   0  0  2  0  0  0  0  0  0  0  0  0
   27.5913   14.9846   17.7469 C   0  0  0  0  0  0  0  0  0  0  0  0
   28.0994   15.4543   16.7276 O   0  0  0  0  0  0  0  0  0  0  0  0
   28.3667   14.4838   20.0820 C   0  0  0  0  0  0  0  0  0  0  0  0
   29.0822   15.0498   21.2868 C   0  0  0  0  0  0  0  0  0  0  0  0
   30.3555   15.7539   20.9007 C   0  0  0  0  0  0  0  0  0  0  0  0
   31.0048   16.3976   22.1132 C   0  0  0  0  0  0  0  0  0  0  0  0
   32.2075   17.1906   21.7485 N   0  0  0  0  0  0  0  0  0  0  0  0
   26.8723   13.9933   17.6122 O   0  0  0  0  0  0  0  0  0  0  0  0
  2  1  1  1  0  0  0
  2  3  1  0  0  0  0
  2  5  1  0  0  0  0
  3  4  1  0  0  0  0
  3 10  1  0  0  0  0
  5  6  1  0  0  0  0
  6  7  1  0  0  0  0
  7  8  1  0  0  0  0
  8  9  1  0  0  0  0
M  END
>  <CHROM.1>
110.50819375,-75.30276986,-65.45662625,175.99286159,-175.52342235,28.79599242
15.49542228,19.66368771,2.39072999,-0.40821197,-1.53634044

>  <Name>
ligand

>  <RI>
0

>  <Rbt.Current_Directory>
/home/itssahil/PROJECTS/Mol_Feturizer/New_Systems/rnas/3DIX

>  <Rbt.Executable>
rbdock ($Id: //depot/dev/client3/rdock/2013.1/src/exe/rbdock.cxx#4 $)

>  <Rbt.Library>
libRbt.so (2013.1, Build901 2013/11/27)

>  <Rbt.Parameter_File>
/export/apps/rDock/src/rDock_2013.1_src/data/scripts/dock_solv.prm

>  <Rbt.Receptor>
prm/blind_docking_80.prm

>  <SCORE>
-8.33419

>  <SCORE.INTER>
-8.02802

>  <SCORE.INTER.CONST>
1

>  <SCORE.INTER.POLAR>
0

>  <SCORE.INTER.ROT>
5

>  <SCORE.INTER.SOLV>
15.5034

>  <SCORE.INTER.VDW>
-17.4532

>  <SCORE.INTER.norm>
-0.802802

>  <SCORE.INTRA>
-0.306163

>  <SCORE.INTRA.DIHEDRAL>
-0.578842

>  <SCORE.INTRA.DIHEDRAL.0>
3.281

>  <SCORE.INTRA.POLAR>
0

>  <SCORE.INTRA.POLAR.0>
0

>  <SCORE.INTRA.REPUL>
0

>  <SCORE.INTRA.REPUL.0>
0

>  <SCORE.INTRA.SOLV>
-0.426913

>  <SCORE.INTRA.SOLV.lig_0>
-31.9458

>  <SCORE.INTRA.VDW>
0.196715

>  <SCORE.INTRA.VDW.0>
-0.672612

>  <SCORE.INTRA.norm>
-0.0306163

>  <SCORE.RESTR>
0

>  <SCORE.RESTR.CAVITY>
0

>  <SCORE.RESTR.norm>
0

>  <SCORE.SYSTEM>
0

>  <SCORE.SYSTEM.CONST>
0

>  <SCORE.SYSTEM.DIHEDRAL>
0

>  <SCORE.SYSTEM.SOLV>
0

>  <SCORE.SYSTEM.norm>
0

>  <SCORE.heavy>
10

>  <SCORE.norm>
-0.833419

>  <RMSD>
5.485

$$$$
ligand
 OpenBabel11021811473D
libRbt.so/2013.1/901 2013/11/27
 10  9  0  0  0  0  0  0  0  0999 V2000
   26.9827   14.5065   20.0576 N   0  0  0  0  0  0  0  0  0  0  0  0
   27.1771   15.5845   19.0472 C   0  0  2  0  0  0  0  0  0  0  0  0
   27.7679   15.0344   17.7566 C   0  0  0  0  0  0  0  0  0  0  0  0
   28.1034   15.7660   16.8240 O   0  0  0  0  0  0  0  0  0  0  0  0
   28.0475   16.7063   19.6091 C   0  0  0  0  0  0  0  0  0  0  0  0
   29.3835   16.2165   20.1184 C   0  0  0  0  0  0  0  0  0  0  0  0
   30.1803   17.3253   20.7523 C   0  0  0  0  0  0  0  0  0  0  0  0
   31.5294   16.8159   21.2281 C   0  0  0  0  0  0  0  0  0  0  0  0
   32.2649   17.8363   22.0196 N   0  0  0  0  0  0  0  0  0  0  0  0
   27.9602   13.8251   17.6210 O   0  0  0  0  0  0  0  0  0  0  0  0
  2  1  1  1  0  0  0
  2  3  1  0  0  0  0
  2  5  1  0  0  0  0
  3  4  1  0  0  0  0
  3 10  1  0  0  0  0
  5  6  1  0  0  0  0
  6  7  1  0  0  0  0
  7  8  1  0  0  0  0
  8  9  1  0  0  0  0
M  END
>  <CHROM.1>
-174.45440625,55.57023177,-176.04602760,-178.74775948,-172.30455915,28.94344301
15.94497587,19.46737041,2.42273790,-0.48157211,-1.71113476

>  <Name>
ligand

>  <RI>
0

>  <Rbt.Current_Directory>
/home/itssahil/PROJECTS/Mol_Feturizer/New_Systems/rnas/3DIX

>  <Rbt.Executable>
rbdock ($Id: //depot/dev/client3/rdock/2013.1/src/exe/rbdock.cxx#4 $)

>  <Rbt.Library>
libRbt.so (2013.1, Build901 2013/11/27)

>  <Rbt.Parameter_File>
/export/apps/rDock/src/rDock_2013.1_src/data/scripts/dock_solv.prm

>  <Rbt.Receptor>
prm/pocket_docking_8.prm

>  <SCORE>
-9.08167

>  <SCORE.INTER>
-8.37029

>  <SCORE.INTER.CONST>
1

>  <SCORE.INTER.POLAR>
0

>  <SCORE.INTER.ROT>
5

>  <SCORE.INTER.SOLV>
13.6235

>  <SCORE.INTER.VDW>
-17.0547

>  <SCORE.INTER.norm>
-0.837029

>  <SCORE.INTRA>
-0.711373

>  <SCORE.INTRA.DIHEDRAL>
-1.39657

>  <SCORE.INTRA.DIHEDRAL.0>
3.281

>  <SCORE.INTRA.POLAR>
0

>  <SCORE.INTRA.POLAR.0>
0

>  <SCORE.INTRA.REPUL>
0

>  <SCORE.INTRA.REPUL.0>
0

>  <SCORE.INTRA.SOLV>
-0.552718

>  <SCORE.INTRA.SOLV.lig_0>
-31.9458

>  <SCORE.INTRA.VDW>
0.26327

>  <SCORE.INTRA.VDW.0>
-0.672612

>  <SCORE.INTRA.norm>
-0.0711373

>  <SCORE.RESTR>
0

>  <SCORE.RESTR.CAVITY>
0

>  <SCORE.RESTR.norm>
0

>  <SCORE.SYSTEM>
0

>  <SCORE.SYSTEM.CONST>
0

>  <SCORE.SYSTEM.DIHEDRAL>
0

>  <SCORE.SYSTEM.SOLV>
0

>  <SCORE.SYSTEM.norm>
0

>  <SCORE.heavy>
10

>  <SCORE.norm>
-0.908167

>  <RMSD>
5.486

$$$$
ligand
 OpenBabel11021811473D
libRbt.so/2013.1/901 2013/11/27
 10  9  0  0  0  0  0  0  0  0999 V2000
   27.0770   14.1395   18.0976 N   0  0  0  0  0  0  0  0  0  0  0  0
   27.6453   14.4506   19.4396 C   0  0  2  0  0  0  0  0  0  0  0  0
   26.5926   15.0488   20.3621 C   0  0  0  0  0  0  0  0  0  0  0  0
   26.6233   14.8903   21.5834 O   0  0  0  0  0  0  0  0  0  0  0  0
   28.8521   15.3783   19.3175 C   0  0  0  0  0  0  0  0  0  0  0  0
   29.5691   15.5882   20.6312 C   0  0  0  0  0  0  0  0  0  0  0  0
   30.6883   16.5868   20.5035 C   0  0  0  0  0  0  0  0  0  0  0  0
   31.3711   16.8056   21.8421 C   0  0  0  0  0  0  0  0  0  0  0  0
   32.4371   17.8382   21.7639 N   0  0  0  0  0  0  0  0  0  0  0  0
   25.6850   15.7471   19.9076 O   0  0  0  0  0  0  0  0  0  0  0  0
  2  1  1  6  0  0  0
  2  3  1  0  0  0  0
  2  5  1  0  0  0  0
  3  4  1  0  0  0  0
  3 10  1  0  0  0  0
  5  6  1  0  0  0  0
  6  7  1  0  0  0  0
  7  8  1  0  0  0  0
  8  9  1  0  0  0  0
M  END
>  <CHROM.1>
149.83655379,-172.89593864,-175.65462777,178.62955146,-177.11169218,28.62054781
15.65515776,20.36236829,-2.69810532,0.26435081,1.16061404

>  <Name>
ligand

>  <RI>
0

>  <Rbt.Current_Directory>
/home/itssahil/PROJECTS/Mol_Feturizer/New_Systems/rnas/3DIX

>  <Rbt.Executable>
rbdock ($Id: //depot/dev/client3/rdock/2013.1/src/exe/rbdock.cxx#4 $)

>  <Rbt.Library>
libRbt.so (2013.1, Build901 2013/11/27)

>  <Rbt.Parameter_File>
/export/apps/rDock/src/rDock_2013.1_src/data/scripts/dock_solv.prm

>  <Rbt.Receptor>
prm/blind_docking_100.prm

>  <SCORE>
-8.92434

>  <SCORE.INTER>
-7.23141

>  <SCORE.INTER.CONST>
1

>  <SCORE.INTER.POLAR>
0

>  <SCORE.INTER.ROT>
5

>  <SCORE.INTER.SOLV>
15.5309

>  <SCORE.INTER.VDW>
-16.9312

>  <SCORE.INTER.norm>
-0.723141

>  <SCORE.INTRA>
-1.69293

>  <SCORE.INTRA.DIHEDRAL>
-1.55656

>  <SCORE.INTRA.DIHEDRAL.0>
3.281

>  <SCORE.INTRA.POLAR>
0

>  <SCORE.INTRA.POLAR.0>
0

>  <SCORE.INTRA.REPUL>
0

>  <SCORE.INTRA.REPUL.0>
0

>  <SCORE.INTRA.SOLV>
-1.56694

>  <SCORE.INTRA.SOLV.lig_0>
-31.9458

>  <SCORE.INTRA.VDW>
-0.13118

>  <SCORE.INTRA.VDW.0>
-0.672612

>  <SCORE.INTRA.norm>
-0.169293

>  <SCORE.RESTR>
0

>  <SCORE.RESTR.CAVITY>
0

>  <SCORE.RESTR.norm>
0

>  <SCORE.SYSTEM>
0

>  <SCORE.SYSTEM.CONST>
0

>  <SCORE.SYSTEM.DIHEDRAL>
0

>  <SCORE.SYSTEM.SOLV>
0

>  <SCORE.SYSTEM.norm>
0

>  <SCORE.heavy>
10

>  <SCORE.norm>
-0.892434

>  <RMSD>
5.487

$$$$
ligand
 OpenBabel11021811473D
libRbt.so/2013.1/901 2013/11/27
 10  9  0  0  0  0  0  0  0  0999 V2000
   25.8009   15.3157   20.3551 N   0  0  0  0  0  0  0  0  0  0  0  0
   27.1167   15.5976   19.7149 C   0  0  2  0  0  0  0  0  0  0  0  0
   27.2705   14.8362   18.4058 C   0  0  0  0  0  0  0  0  0  0  0  0
   26.9086   13.6653   18.2809 O   0  0  0  0  0  0  0  0  0  0  0  0
   28.2655   15.2774   20.6686 C   0  0  0  0  0  0  0  0  0  0  0  0
   29.6198   15.6326   20.0998 C   0  0  0  0  0  0  0  0  0  0  0  0
   30.7373   15.2299   21.0247 C   0  0  0  0  0  0  0  0  0  0  0  0
   30.7989   16.1521   22.2295 C   0  0  0  0  0  0  0  0  0  0  0  0
   31.1922   17.5355   21.8553 N   0  0  0  0  0  0  0  0  0  0  0  0
   27.7384   15.3903   17.4099 O   0  0  0  0  0  0  0  0  0  0  0  0
  2  1  1  1  0  0  0
  2  3  1  0  0  0  0
  2  5  1  0  0  0  0
  3  4  1  0  0  0  0
  3 10  1  0  0  0  0
  5  6  1  0  0  0  0
  6  7  1  0  0  0  0
  7  8  1  0  0  0  0
  8  9  1  0  0  0  0
M  END
>  <CHROM.1>
-41.56680114,-176.18787985,-176.53026852,-73.17343996,-66.82105060,28.53914995
15.44482135,19.96867492,2.42485365,-0.16368788,-1.88356404

>  <Name>
ligand

>  <RI>
0

>  <Rbt.Current_Directory>
/home/itssahil/PROJECTS/Mol_Feturizer/New_Systems/rnas/3DIX

>  <Rbt.Executable>
rbdock ($Id: //depot/dev/client3/rdock/2013.1/src/exe/rbdock.cxx#4 $)

>  <Rbt.Library>
libRbt.so (2013.1, Build901 2013/11/27)

>  <Rbt.Parameter_File>
/export/apps/rDock/src/rDock_2013.1_src/data/scripts/dock_solv.prm

>  <Rbt.Receptor>
prm/pocket_docking_7.prm

>  <SCORE>
-7.76158

>  <SCORE.INTER>
-7.76405

>  <SCORE.INTER.CONST>
1

>  <SCORE.INTER.POLAR>
0

>  <SCORE.INTER.ROT>
5

>  <SCORE.INTER.SOLV>
16.1969

>  <SCORE.INTER.VDW>
-17.5083

>  <SCORE.INTER.norm>
-0.776405

>  <SCORE.INTRA>
0.00247311

>  <SCORE.INTRA.DIHEDRAL>
-0.763684

>  <SCORE.INTRA.DIHEDRAL.0>
3.281

>  <SCORE.INTRA.POLAR>
0

>  <SCORE.INTRA.POLAR.0>
0

>  <SCORE.INTRA.REPUL>
0

>  <SCORE.INTRA.REPUL.0>
0

>  <SCORE.INTRA.SOLV>
-0.260069

>  <SCORE.INTRA.SOLV.lig_0>
-31.9458

>  <SCORE.INTRA.VDW>
0.51435

>  <SCORE.INTRA.VDW.0>
-0.672612

>  <SCORE.INTRA.norm>
0.000247311

>  <SCORE.RESTR>
0

>  <SCORE.RESTR.CAVITY>
0

>  <SCORE.RESTR.norm>
0

>  <SCORE.SYSTEM>
0

>  <SCORE.SYSTEM.CONST>
0

>  <SCORE.SYSTEM.DIHEDRAL>
0

>  <SCORE.SYSTEM.SOLV>
0

>  <SCORE.SYSTEM.norm>
0

>  <SCORE.heavy>
10

>  <SCORE.norm>
-0.776158

>  <RMSD>
5.488

$$$$
ligand
 OpenBabel11021811473D
libRbt.so/2013.1/901 2013/11/27
 10  9  0  0  0  0  0  0  0  0999 V2000
   28.5095   16.3645   19.5610 N   0  0  0  0  0  0  0  0  0  0  0  0
   27.9520   15.2970   20.4388 C   0  0  2  0  0  0  0  0  0  0  0  0
   26.4299   15.3092   20.4278 C   0  0  0  0  0  0  0  0  0  0  0  0
   25.7842   15.8877   19.5526 O   0  0  0  0  0  0  0  0  0  0  0  0
   28.4868   15.4294   21.8630 C   0  0  0  0  0  0  0  0  0  0  0  0
   29.9961   15.3960   21.9311 C   0  0  0  0  0  0  0  0  0  0  0  0
   30.6003   16.7335   21.5964 C   0  0  0  0  0  0  0  0  0  0  0  0
   32.1128   16.6893   21.7244 C   0  0  0  0  0  0  0  0  0  0  0  0
   32.7360   18.0107   21.4519 N   0  0  0  0  0  0  0  0  0  0  0  0
   25.7922   14.7027   21.2900 O   0  0  0  0  0  0  0  0  0  0  0  0
  2  1  1  6  0  0  0
  2  3  1  0  0  0  0
  2  5  1  0  0  0  0
  3  4  1  0  0  0  0
  3 10  1  0  0  0  0
  5  6  1  0  0  0  0
  6  7  1  0  0  0  0
  7  8  1  0  0  0  0
  8  9  1  0  0  0  0
M  END
>  <CHROM.1>
17.19097442,-56.88634084,80.95495455,177.78182674,-177.75915736,28.79493076
15.97695982,20.97993299,3.13326239,0.36190193,2.19283924

>  <Name>
ligand

>  <RI>
0

>  <Rbt.Current_Directory>
/home/itssahil/PROJECTS/Mol_Feturizer/New_Systems/rnas/3DIX

>  <Rbt.Executable>
rbdock ($Id: //depot/dev/client3/rdock/2013.1/src/exe/rbdock.cxx#4 $)

>  <Rbt.Library>
libRbt.so (2013.1, Build901 2013/11/27)

>  <Rbt.Parameter_File>
/export/apps/rDock/src/rDock_2013.1_src/data/scripts/dock_solv.prm

>  <Rbt.Receptor>
prm/blind_docking_60.prm

>  <SCORE>
-8.47191

>  <SCORE.INTER>
-9.45298

>  <SCORE.INTER.CONST>
1

>  <SCORE.INTER.POLAR>
0

>  <SCORE.INTER.ROT>
5

>  <SCORE.INTER.SOLV>
12.2645

>  <SCORE.INTER.VDW>
-17.3235

>  <SCORE.INTER.norm>
-0.945298

>  <SCORE.INTRA>
0.981066

>  <SCORE.INTRA.DIHEDRAL>
-0.103967

>  <SCORE.INTRA.DIHEDRAL.0>
3.281

>  <SCORE.INTRA.POLAR>
0

>  <SCORE.INTRA.POLAR.0>
0

>  <SCORE.INTRA.REPUL>
0

>  <SCORE.INTRA.REPUL.0>
0

>  <SCORE.INTRA.SOLV>
0.792827

>  <SCORE.INTRA.SOLV.lig_0>
-31.9458

>  <SCORE.INTRA.VDW>
0.636636

>  <SCORE.INTRA.VDW.0>
-0.672612

>  <SCORE.INTRA.norm>
0.0981066

>  <SCORE.RESTR>
0

>  <SCORE.RESTR.CAVITY>
0

>  <SCORE.RESTR.norm>
0

>  <SCORE.SYSTEM>
0

>  <SCORE.SYSTEM.CONST>
0

>  <SCORE.SYSTEM.DIHEDRAL>
0

>  <SCORE.SYSTEM.SOLV>
0

>  <SCORE.SYSTEM.norm>
0

>  <SCORE.heavy>
10

>  <SCORE.norm>
-0.847191

>  <RMSD>
5.491

$$$$
ligand
 OpenBabel11021811473D
libRbt.so/2013.1/901 2013/11/27
 10  9  0  0  0  0  0  0  0  0999 V2000
   26.8505   14.5491   20.0769 N   0  0  0  0  0  0  0  0  0  0  0  0
   27.1526   15.5764   19.0405 C   0  0  2  0  0  0  0  0  0  0  0  0
   27.7848   14.9489   17.8061 C   0  0  0  0  0  0  0  0  0  0  0  0
   28.0030   13.7393   17.7230 O   0  0  0  0  0  0  0  0  0  0  0  0
   28.0456   16.6768   19.6093 C   0  0  0  0  0  0  0  0  0  0  0  0
   29.3606   16.1534   20.1390 C   0  0  0  0  0  0  0  0  0  0  0  0
   30.1905   17.2482   20.7544 C   0  0  0  0  0  0  0  0  0  0  0  0
   31.5128   16.7015   21.2629 C   0  0  0  0  0  0  0  0  0  0  0  0
   32.3617   17.7621   21.8656 N   0  0  0  0  0  0  0  0  0  0  0  0
   28.0694   15.6410   16.8274 O   0  0  0  0  0  0  0  0  0  0  0  0
  2  1  1  1  0  0  0
  2  3  1  0  0  0  0
  2  5  1  0  0  0  0
  3  4  1  0  0  0  0
  3 10  1  0  0  0  0
  5  6  1  0  0  0  0
  6  7  1  0  0  0  0
  7  8  1  0  0  0  0
  8  9  1  0  0  0  0
M  END
>  <CHROM.1>
-0.19606180,58.85757194,-177.17356948,-179.27751238,179.45942673,28.93699890
15.88166710,19.47529155,2.40860200,-0.40537685,-1.79441479

>  <Name>
ligand

>  <RI>
0

>  <Rbt.Current_Directory>
/home/itssahil/PROJECTS/Mol_Feturizer/New_Systems/rnas/3DIX

>  <Rbt.Executable>
rbdock ($Id: //depot/dev/client3/rdock/2013.1/src/exe/rbdock.cxx#4 $)

>  <Rbt.Library>
libRbt.so (2013.1, Build901 2013/11/27)

>  <Rbt.Parameter_File>
/export/apps/rDock/src/rDock_2013.1_src/data/scripts/dock_solv.prm

>  <Rbt.Receptor>
prm/pocket_docking_7.prm

>  <SCORE>
-9.31611

>  <SCORE.INTER>
-8.29683

>  <SCORE.INTER.CONST>
1

>  <SCORE.INTER.POLAR>
0

>  <SCORE.INTER.ROT>
5

>  <SCORE.INTER.SOLV>
14.0447

>  <SCORE.INTER.VDW>
-17.1461

>  <SCORE.INTER.norm>
-0.829683

>  <SCORE.INTRA>
-1.01928

>  <SCORE.INTRA.DIHEDRAL>
-1.7394

>  <SCORE.INTRA.DIHEDRAL.0>
3.281

>  <SCORE.INTRA.POLAR>
0

>  <SCORE.INTRA.POLAR.0>
0

>  <SCORE.INTRA.REPUL>
0

>  <SCORE.INTRA.REPUL.0>
0

>  <SCORE.INTRA.SOLV>
-0.614983

>  <SCORE.INTRA.SOLV.lig_0>
-31.9458

>  <SCORE.INTRA.VDW>
0.157911

>  <SCORE.INTRA.VDW.0>
-0.672612

>  <SCORE.INTRA.norm>
-0.101928

>  <SCORE.RESTR>
0

>  <SCORE.RESTR.CAVITY>
0

>  <SCORE.RESTR.norm>
0

>  <SCORE.SYSTEM>
0

>  <SCORE.SYSTEM.CONST>
0

>  <SCORE.SYSTEM.DIHEDRAL>
0

>  <SCORE.SYSTEM.SOLV>
0

>  <SCORE.SYSTEM.norm>
0

>  <SCORE.heavy>
10

>  <SCORE.norm>
-0.931611

>  <RMSD>
5.491

$$$$
ligand
 OpenBabel11021811473D
libRbt.so/2013.1/901 2013/11/27
 10  9  0  0  0  0  0  0  0  0999 V2000
   26.8686   14.5495   20.0873 N   0  0  0  0  0  0  0  0  0  0  0  0
   27.1573   15.5726   19.0430 C   0  0  2  0  0  0  0  0  0  0  0  0
   27.7737   14.9403   17.8031 C   0  0  0  0  0  0  0  0  0  0  0  0
   27.9632   13.7266   17.7102 O   0  0  0  0  0  0  0  0  0  0  0  0
   28.0573   16.6753   19.5959 C   0  0  0  0  0  0  0  0  0  0  0  0
   29.3669   16.1507   20.1377 C   0  0  0  0  0  0  0  0  0  0  0  0
   30.2000   17.2478   20.7449 C   0  0  0  0  0  0  0  0  0  0  0  0
   31.5130   16.6979   21.2739 C   0  0  0  0  0  0  0  0  0  0  0  0
   32.3496   17.7543   21.9005 N   0  0  0  0  0  0  0  0  0  0  0  0
   28.0743   15.6332   16.8298 O   0  0  0  0  0  0  0  0  0  0  0  0
  2  1  1  1  0  0  0
  2  3  1  0  0  0  0
  2  5  1  0  0  0  0
  3  4  1  0  0  0  0
  3 10  1  0  0  0  0
  5  6  1  0  0  0  0
  6  7  1  0  0  0  0
  7  8  1  0  0  0  0
  8  9  1  0  0  0  0
M  END
>  <CHROM.1>
1.48672731,57.63478794,-176.82108888,-179.64649973,-179.05984789,28.93587534
15.87671906,19.47730270,2.41083372,-0.41716856,-1.78037399

>  <Name>
ligand

>  <RI>
0

>  <Rbt.Current_Directory>
/home/itssahil/PROJECTS/Mol_Feturizer/New_Systems/rnas/3DIX

>  <Rbt.Executable>
rbdock ($Id: //depot/dev/client3/rdock/2013.1/src/exe/rbdock.cxx#4 $)

>  <Rbt.Library>
libRbt.so (2013.1, Build901 2013/11/27)

>  <Rbt.Parameter_File>
/export/apps/rDock/src/rDock_2013.1_src/data/scripts/dock_solv.prm

>  <Rbt.Receptor>
prm/blind_docking_100.prm

>  <SCORE>
-9.30115

>  <SCORE.INTER>
-8.33689

>  <SCORE.INTER.CONST>
1

>  <SCORE.INTER.POLAR>
0

>  <SCORE.INTER.ROT>
5

>  <SCORE.INTER.SOLV>
13.9822

>  <SCORE.INTER.VDW>
-17.152

>  <SCORE.INTER.norm>
-0.833689

>  <SCORE.INTRA>
-0.964258

>  <SCORE.INTRA.DIHEDRAL>
-1.71652

>  <SCORE.INTRA.DIHEDRAL.0>
3.281

>  <SCORE.INTRA.POLAR>
0

>  <SCORE.INTRA.POLAR.0>
0

>  <SCORE.INTRA.REPUL>
0

>  <SCORE.INTRA.REPUL.0>
0

>  <SCORE.INTRA.SOLV>
-0.597953

>  <SCORE.INTRA.SOLV.lig_0>
-31.9458

>  <SCORE.INTRA.VDW>
0.192979

>  <SCORE.INTRA.VDW.0>
-0.672612

>  <SCORE.INTRA.norm>
-0.0964258

>  <SCORE.RESTR>
0

>  <SCORE.RESTR.CAVITY>
0

>  <SCORE.RESTR.norm>
0

>  <SCORE.SYSTEM>
0

>  <SCORE.SYSTEM.CONST>
0

>  <SCORE.SYSTEM.DIHEDRAL>
0

>  <SCORE.SYSTEM.SOLV>
0

>  <SCORE.SYSTEM.norm>
0

>  <SCORE.heavy>
10

>  <SCORE.norm>
-0.930115

>  <RMSD>
5.496

$$$$
ligand
 OpenBabel11021811473D
libRbt.so/2013.1/901 2013/11/27
 10  9  0  0  0  0  0  0  0  0999 V2000
   28.4891   16.3210   19.5451 N   0  0  0  0  0  0  0  0  0  0  0  0
   27.9266   15.2766   20.4470 C   0  0  2  0  0  0  0  0  0  0  0  0
   26.4046   15.2989   20.4393 C   0  0  0  0  0  0  0  0  0  0  0  0
   25.7609   15.8874   19.5692 O   0  0  0  0  0  0  0  0  0  0  0  0
   28.4657   15.4361   21.8668 C   0  0  0  0  0  0  0  0  0  0  0  0
   29.9750   15.3944   21.9320 C   0  0  0  0  0  0  0  0  0  0  0  0
   30.5858   16.7279   21.5928 C   0  0  0  0  0  0  0  0  0  0  0  0
   32.0994   16.6707   21.7009 C   0  0  0  0  0  0  0  0  0  0  0  0
   32.7315   17.9814   21.3986 N   0  0  0  0  0  0  0  0  0  0  0  0
   25.7645   14.6911   21.2988 O   0  0  0  0  0  0  0  0  0  0  0  0
  2  1  1  6  0  0  0
  2  3  1  0  0  0  0
  2  5  1  0  0  0  0
  3  4  1  0  0  0  0
  3 10  1  0  0  0  0
  5  6  1  0  0  0  0
  6  7  1  0  0  0  0
  7  8  1  0  0  0  0
  8  9  1  0  0  0  0
M  END
>  <CHROM.1>
15.57856574,-56.85567488,82.03951965,178.50184203,-178.83191544,28.77520747
15.96372084,20.97547293,3.13267238,0.35639785,2.18075960

>  <Name>
ligand

>  <RI>
0

>  <Rbt.Current_Directory>
/home/itssahil/PROJECTS/Mol_Feturizer/New_Systems/rnas/3DIX

>  <Rbt.Executable>
rbdock ($Id: //depot/dev/client3/rdock/2013.1/src/exe/rbdock.cxx#4 $)

>  <Rbt.Library>
libRbt.so (2013.1, Build901 2013/11/27)

>  <Rbt.Parameter_File>
/export/apps/rDock/src/rDock_2013.1_src/data/scripts/dock_solv.prm

>  <Rbt.Receptor>
prm/pocket_docking_3.prm

>  <SCORE>
-8.47681

>  <SCORE.INTER>
-9.4541

>  <SCORE.INTER.CONST>
1

>  <SCORE.INTER.POLAR>
0

>  <SCORE.INTER.ROT>
5

>  <SCORE.INTER.SOLV>
12.1766

>  <SCORE.INTER.VDW>
-17.2949

>  <SCORE.INTER.norm>
-0.94541

>  <SCORE.INTRA>
0.977292

>  <SCORE.INTRA.DIHEDRAL>
0.0326352

>  <SCORE.INTRA.DIHEDRAL.0>
3.281

>  <SCORE.INTRA.POLAR>
0

>  <SCORE.INTRA.POLAR.0>
0

>  <SCORE.INTRA.REPUL>
0

>  <SCORE.INTRA.REPUL.0>
0

>  <SCORE.INTRA.SOLV>
0.776862

>  <SCORE.INTRA.SOLV.lig_0>
-31.9458

>  <SCORE.INTRA.VDW>
0.572543

>  <SCORE.INTRA.VDW.0>
-0.672612

>  <SCORE.INTRA.norm>
0.0977292

>  <SCORE.RESTR>
0

>  <SCORE.RESTR.CAVITY>
0

>  <SCORE.RESTR.norm>
0

>  <SCORE.SYSTEM>
0

>  <SCORE.SYSTEM.CONST>
0

>  <SCORE.SYSTEM.DIHEDRAL>
0

>  <SCORE.SYSTEM.SOLV>
0

>  <SCORE.SYSTEM.norm>
0

>  <SCORE.heavy>
10

>  <SCORE.norm>
-0.847681

>  <RMSD>
5.497

$$$$
ligand
 OpenBabel11021811473D
libRbt.so/2013.1/901 2013/11/27
 10  9  0  0  0  0  0  0  0  0999 V2000
   28.2499   14.1142   20.1464 N   0  0  0  0  0  0  0  0  0  0  0  0
   27.1295   14.7217   19.3741 C   0  0  2  0  0  0  0  0  0  0  0  0
   27.2770   14.4567   17.8824 C   0  0  0  0  0  0  0  0  0  0  0  0
   27.8661   15.2363   17.1321 O   0  0  0  0  0  0  0  0  0  0  0  0
   27.0259   16.2195   19.6528 C   0  0  0  0  0  0  0  0  0  0  0  0
   28.3531   16.9331   19.5393 C   0  0  0  0  0  0  0  0  0  0  0  0
   29.2313   16.6732   20.7341 C   0  0  0  0  0  0  0  0  0  0  0  0
   30.6430   17.1740   20.4849 C   0  0  0  0  0  0  0  0  0  0  0  0
   31.5273   16.9614   21.6602 N   0  0  0  0  0  0  0  0  0  0  0  0
   26.8325   13.4219   17.3828 O   0  0  0  0  0  0  0  0  0  0  0  0
  2  1  1  1  0  0  0
  2  3  1  0  0  0  0
  2  5  1  0  0  0  0
  3  4  1  0  0  0  0
  3 10  1  0  0  0  0
  5  6  1  0  0  0  0
  6  7  1  0  0  0  0
  7  8  1  0  0  0  0
  8  9  1  0  0  0  0
M  END
>  <CHROM.1>
-91.45779011,48.71156721,-75.86674242,169.23470290,178.61198756,28.40879462
15.57833056,19.36045179,-3.10437453,-0.88778149,-0.66132833

>  <Name>
ligand

>  <RI>
0

>  <Rbt.Current_Directory>
/home/itssahil/PROJECTS/Mol_Feturizer/New_Systems/rnas/3DIX

>  <Rbt.Executable>
rbdock ($Id: //depot/dev/client3/rdock/2013.1/src/exe/rbdock.cxx#4 $)

>  <Rbt.Library>
libRbt.so (2013.1, Build901 2013/11/27)

>  <Rbt.Parameter_File>
/export/apps/rDock/src/rDock_2013.1_src/data/scripts/dock_solv.prm

>  <Rbt.Receptor>
prm/pocket_docking_7.prm

>  <SCORE>
-8.23296

>  <SCORE.INTER>
-10.0589

>  <SCORE.INTER.CONST>
1

>  <SCORE.INTER.POLAR>
0

>  <SCORE.INTER.ROT>
5

>  <SCORE.INTER.SOLV>
11.8143

>  <SCORE.INTER.VDW>
-17.5773

>  <SCORE.INTER.norm>
-1.00589

>  <SCORE.INTRA>
1.82589

>  <SCORE.INTRA.DIHEDRAL>
0.131941

>  <SCORE.INTRA.DIHEDRAL.0>
3.281

>  <SCORE.INTRA.POLAR>
0

>  <SCORE.INTRA.POLAR.0>
0

>  <SCORE.INTRA.REPUL>
0

>  <SCORE.INTRA.REPUL.0>
0

>  <SCORE.INTRA.SOLV>
1.15612

>  <SCORE.INTRA.SOLV.lig_0>
-31.9458

>  <SCORE.INTRA.VDW>
1.18186

>  <SCORE.INTRA.VDW.0>
-0.672612

>  <SCORE.INTRA.norm>
0.182589

>  <SCORE.RESTR>
0

>  <SCORE.RESTR.CAVITY>
0

>  <SCORE.RESTR.norm>
0

>  <SCORE.SYSTEM>
0

>  <SCORE.SYSTEM.CONST>
0

>  <SCORE.SYSTEM.DIHEDRAL>
0

>  <SCORE.SYSTEM.SOLV>
0

>  <SCORE.SYSTEM.norm>
0

>  <SCORE.heavy>
10

>  <SCORE.norm>
-0.823296

>  <RMSD>
5.497

$$$$
ligand
 OpenBabel11021811473D
libRbt.so/2013.1/901 2013/11/27
 10  9  0  0  0  0  0  0  0  0999 V2000
   26.4925   14.8776   20.6464 N   0  0  0  0  0  0  0  0  0  0  0  0
   26.8948   15.4288   19.3216 C   0  0  2  0  0  0  0  0  0  0  0  0
   27.4055   14.3326   18.3973 C   0  0  0  0  0  0  0  0  0  0  0  0
   28.4230   13.6844   18.6469 O   0  0  0  0  0  0  0  0  0  0  0  0
   27.9378   16.5320   19.4854 C   0  0  0  0  0  0  0  0  0  0  0  0
   29.1998   16.0534   20.1652 C   0  0  0  0  0  0  0  0  0  0  0  0
   30.2279   17.1481   20.2695 C   0  0  0  0  0  0  0  0  0  0  0  0
   31.5356   16.6090   20.8220 C   0  0  0  0  0  0  0  0  0  0  0  0
   31.3888   16.1015   22.2111 N   0  0  0  0  0  0  0  0  0  0  0  0
   26.7864   14.0366   17.3741 O   0  0  0  0  0  0  0  0  0  0  0  0
  2  1  1  1  0  0  0
  2  3  1  0  0  0  0
  2  5  1  0  0  0  0
  3  4  1  0  0  0  0
  3 10  1  0  0  0  0
  5  6  1  0  0  0  0
  6  7  1  0  0  0  0
  7  8  1  0  0  0  0
  8  9  1  0  0  0  0
M  END
>  <CHROM.1>
-63.96840210,59.97724688,177.98857841,-174.08049987,-63.63665958,28.63035235
15.45186842,19.70734603,2.41988489,0.00655142,-2.25422815

>  <Name>
ligand

>  <RI>
0

>  <Rbt.Current_Directory>
/home/itssahil/PROJECTS/Mol_Feturizer/New_Systems/rnas/3DIX

>  <Rbt.Executable>
rbdock ($Id: //depot/dev/client3/rdock/2013.1/src/exe/rbdock.cxx#4 $)

>  <Rbt.Library>
libRbt.so (2013.1, Build901 2013/11/27)

>  <Rbt.Parameter_File>
/export/apps/rDock/src/rDock_2013.1_src/data/scripts/dock_solv.prm

>  <Rbt.Receptor>
prm/blind_docking_80.prm

>  <SCORE>
-7.24376

>  <SCORE.INTER>
-6.98465

>  <SCORE.INTER.CONST>
1

>  <SCORE.INTER.POLAR>
0

>  <SCORE.INTER.ROT>
5

>  <SCORE.INTER.SOLV>
17.1143

>  <SCORE.INTER.VDW>
-17.2945

>  <SCORE.INTER.norm>
-0.698465

>  <SCORE.INTRA>
-0.259113

>  <SCORE.INTRA.DIHEDRAL>
-1.59689

>  <SCORE.INTRA.DIHEDRAL.0>
3.281

>  <SCORE.INTRA.POLAR>
0

>  <SCORE.INTRA.POLAR.0>
0

>  <SCORE.INTRA.REPUL>
0

>  <SCORE.INTRA.REPUL.0>
0

>  <SCORE.INTRA.SOLV>
0.250744

>  <SCORE.INTRA.SOLV.lig_0>
-31.9458

>  <SCORE.INTRA.VDW>
0.413962

>  <SCORE.INTRA.VDW.0>
-0.672612

>  <SCORE.INTRA.norm>
-0.0259113

>  <SCORE.RESTR>
0

>  <SCORE.RESTR.CAVITY>
0

>  <SCORE.RESTR.norm>
0

>  <SCORE.SYSTEM>
0

>  <SCORE.SYSTEM.CONST>
0

>  <SCORE.SYSTEM.DIHEDRAL>
0

>  <SCORE.SYSTEM.SOLV>
0

>  <SCORE.SYSTEM.norm>
0

>  <SCORE.heavy>
10

>  <SCORE.norm>
-0.724376

>  <RMSD>
5.499

$$$$
ligand
 OpenBabel11021811473D
libRbt.so/2013.1/901 2013/11/27
 10  9  0  0  0  0  0  0  0  0999 V2000
   26.5963   14.6303   19.9514 N   0  0  0  0  0  0  0  0  0  0  0  0
   27.5433   15.4482   19.1422 C   0  0  2  0  0  0  0  0  0  0  0  0
   27.7004   14.8853   17.7366 C   0  0  0  0  0  0  0  0  0  0  0  0
   27.3275   13.7496   17.4387 O   0  0  0  0  0  0  0  0  0  0  0  0
   28.8979   15.5596   19.8381 C   0  0  0  0  0  0  0  0  0  0  0  0
   28.7988   16.1358   21.2317 C   0  0  0  0  0  0  0  0  0  0  0  0
   30.1556   16.3247   21.8559 C   0  0  0  0  0  0  0  0  0  0  0  0
   30.8780   17.5042   21.2291 C   0  0  0  0  0  0  0  0  0  0  0  0
   32.1858   17.7704   21.8828 N   0  0  0  0  0  0  0  0  0  0  0  0
   28.1826   15.5740   16.8361 O   0  0  0  0  0  0  0  0  0  0  0  0
  2  1  1  1  0  0  0
  2  3  1  0  0  0  0
  2  5  1  0  0  0  0
  3  4  1  0  0  0  0
  3 10  1  0  0  0  0
  5  6  1  0  0  0  0
  6  7  1  0  0  0  0
  7  8  1  0  0  0  0
  8  9  1  0  0  0  0
M  END
>  <CHROM.1>
-15.04308388,-56.72667044,-175.96214308,73.43588838,176.38971892,28.82174893
15.74211534,19.67420224,2.38170425,-0.55834120,-1.65390906

>  <Name>
ligand

>  <RI>
0

>  <Rbt.Current_Directory>
/home/itssahil/PROJECTS/Mol_Feturizer/New_Systems/rnas/3DIX

>  <Rbt.Executable>
rbdock ($Id: //depot/dev/client3/rdock/2013.1/src/exe/rbdock.cxx#4 $)

>  <Rbt.Library>
libRbt.so (2013.1, Build901 2013/11/27)

>  <Rbt.Parameter_File>
/export/apps/rDock/src/rDock_2013.1_src/data/scripts/dock_solv.prm

>  <Rbt.Receptor>
prm/pocket_docking_4.prm

>  <SCORE>
-8.11821

>  <SCORE.INTER>
-8.02262

>  <SCORE.INTER.CONST>
1

>  <SCORE.INTER.POLAR>
0

>  <SCORE.INTER.ROT>
5

>  <SCORE.INTER.SOLV>
13.86

>  <SCORE.INTER.VDW>
-16.9018

>  <SCORE.INTER.norm>
-0.802262

>  <SCORE.INTRA>
-0.0955923

>  <SCORE.INTRA.DIHEDRAL>
-0.858381

>  <SCORE.INTRA.DIHEDRAL.0>
3.281

>  <SCORE.INTRA.POLAR>
0

>  <SCORE.INTRA.POLAR.0>
0

>  <SCORE.INTRA.REPUL>
0

>  <SCORE.INTRA.REPUL.0>
0

>  <SCORE.INTRA.SOLV>
-0.402013

>  <SCORE.INTRA.SOLV.lig_0>
-31.9458

>  <SCORE.INTRA.VDW>
0.534605

>  <SCORE.INTRA.VDW.0>
-0.672612

>  <SCORE.INTRA.norm>
-0.00955923

>  <SCORE.RESTR>
0

>  <SCORE.RESTR.CAVITY>
0

>  <SCORE.RESTR.norm>
0

>  <SCORE.SYSTEM>
0

>  <SCORE.SYSTEM.CONST>
0

>  <SCORE.SYSTEM.DIHEDRAL>
0

>  <SCORE.SYSTEM.SOLV>
0

>  <SCORE.SYSTEM.norm>
0

>  <SCORE.heavy>
10

>  <SCORE.norm>
-0.811821

>  <RMSD>
5.499

$$$$
ligand
 OpenBabel11021811473D
libRbt.so/2013.1/901 2013/11/27
 10  9  0  0  0  0  0  0  0  0999 V2000
   26.8642   14.5350   20.1021 N   0  0  0  0  0  0  0  0  0  0  0  0
   27.1386   15.5596   19.0554 C   0  0  2  0  0  0  0  0  0  0  0  0
   27.7412   14.9294   17.8076 C   0  0  0  0  0  0  0  0  0  0  0  0
   28.0666   15.5986   16.8258 O   0  0  0  0  0  0  0  0  0  0  0  0
   28.0434   16.6633   19.5984 C   0  0  0  0  0  0  0  0  0  0  0  0
   29.3551   16.1390   20.1354 C   0  0  0  0  0  0  0  0  0  0  0  0
   30.1918   17.2369   20.7362 C   0  0  0  0  0  0  0  0  0  0  0  0
   31.5243   16.6948   21.2223 C   0  0  0  0  0  0  0  0  0  0  0  0
   32.3508   17.7442   21.8737 N   0  0  0  0  0  0  0  0  0  0  0  0
   27.9539   13.7169   17.7582 O   0  0  0  0  0  0  0  0  0  0  0  0
  2  1  1  1  0  0  0
  2  3  1  0  0  0  0
  2  5  1  0  0  0  0
  3  4  1  0  0  0  0
  3 10  1  0  0  0  0
  5  6  1  0  0  0  0
  6  7  1  0  0  0  0
  7  8  1  0  0  0  0
  8  9  1  0  0  0  0
M  END
>  <CHROM.1>
-178.76270088,57.11639423,-176.68166843,-177.92922871,-177.56822396,28.92691628
15.86339372,19.47662843,2.41836422,-0.41582312,-1.78403977

>  <Name>
ligand

>  <RI>
0

>  <Rbt.Current_Directory>
/home/itssahil/PROJECTS/Mol_Feturizer/New_Systems/rnas/3DIX

>  <Rbt.Executable>
rbdock ($Id: //depot/dev/client3/rdock/2013.1/src/exe/rbdock.cxx#4 $)

>  <Rbt.Library>
libRbt.so (2013.1, Build901 2013/11/27)

>  <Rbt.Parameter_File>
/export/apps/rDock/src/rDock_2013.1_src/data/scripts/dock_solv.prm

>  <Rbt.Receptor>
prm/pocket_docking_4.prm

>  <SCORE>
-9.28335

>  <SCORE.INTER>
-8.34121

>  <SCORE.INTER.CONST>
1

>  <SCORE.INTER.POLAR>
0

>  <SCORE.INTER.ROT>
5

>  <SCORE.INTER.SOLV>
14.007

>  <SCORE.INTER.VDW>
-17.1632

>  <SCORE.INTER.norm>
-0.834121

>  <SCORE.INTRA>
-0.942136

>  <SCORE.INTRA.DIHEDRAL>
-1.66607

>  <SCORE.INTRA.DIHEDRAL.0>
3.281

>  <SCORE.INTRA.POLAR>
0

>  <SCORE.INTRA.POLAR.0>
0

>  <SCORE.INTRA.REPUL>
0

>  <SCORE.INTRA.REPUL.0>
0

>  <SCORE.INTRA.SOLV>
-0.57902

>  <SCORE.INTRA.SOLV.lig_0>
-31.9458

>  <SCORE.INTRA.VDW>
0.180409

>  <SCORE.INTRA.VDW.0>
-0.672612

>  <SCORE.INTRA.norm>
-0.0942136

>  <SCORE.RESTR>
0

>  <SCORE.RESTR.CAVITY>
0

>  <SCORE.RESTR.norm>
0

>  <SCORE.SYSTEM>
0

>  <SCORE.SYSTEM.CONST>
0

>  <SCORE.SYSTEM.DIHEDRAL>
0

>  <SCORE.SYSTEM.SOLV>
0

>  <SCORE.SYSTEM.norm>
0

>  <SCORE.heavy>
10

>  <SCORE.norm>
-0.928335

>  <RMSD>
5.501

$$$$
ligand
 OpenBabel11021811473D
libRbt.so/2013.1/901 2013/11/27
 10  9  0  0  0  0  0  0  0  0999 V2000
   26.8490   14.5603   20.0975 N   0  0  0  0  0  0  0  0  0  0  0  0
   27.1541   15.5596   19.0350 C   0  0  2  0  0  0  0  0  0  0  0  0
   27.7721   14.8968   17.8119 C   0  0  0  0  0  0  0  0  0  0  0  0
   27.9182   13.6763   17.7299 O   0  0  0  0  0  0  0  0  0  0  0  0
   28.0615   16.6644   19.5716 C   0  0  0  0  0  0  0  0  0  0  0  0
   29.3647   16.1385   20.1274 C   0  0  0  0  0  0  0  0  0  0  0  0
   30.2016   17.2380   20.7248 C   0  0  0  0  0  0  0  0  0  0  0  0
   31.5005   16.6842   21.2833 C   0  0  0  0  0  0  0  0  0  0  0  0
   32.3537   17.7480   21.8741 N   0  0  0  0  0  0  0  0  0  0  0  0
   28.1180   15.5717   16.8410 O   0  0  0  0  0  0  0  0  0  0  0  0
  2  1  1  1  0  0  0
  2  3  1  0  0  0  0
  2  5  1  0  0  0  0
  3  4  1  0  0  0  0
  3 10  1  0  0  0  0
  5  6  1  0  0  0  0
  6  7  1  0  0  0  0
  7  8  1  0  0  0  0
  8  9  1  0  0  0  0
M  END
>  <CHROM.1>
3.42182844,57.84948119,-176.51563445,179.65852933,179.67478333,28.93287820
15.85495347,19.47470251,2.40786139,-0.40912985,-1.80007781

>  <Name>
ligand

>  <RI>
0

>  <Rbt.Current_Directory>
/home/itssahil/PROJECTS/Mol_Feturizer/New_Systems/rnas/3DIX

>  <Rbt.Executable>
rbdock ($Id: //depot/dev/client3/rdock/2013.1/src/exe/rbdock.cxx#4 $)

>  <Rbt.Library>
libRbt.so (2013.1, Build901 2013/11/27)

>  <Rbt.Parameter_File>
/export/apps/rDock/src/rDock_2013.1_src/data/scripts/dock_solv.prm

>  <Rbt.Receptor>
prm/pocket_docking_4.prm

>  <SCORE>
-9.31008

>  <SCORE.INTER>
-8.36449

>  <SCORE.INTER.CONST>
1

>  <SCORE.INTER.POLAR>
0

>  <SCORE.INTER.ROT>
5

>  <SCORE.INTER.SOLV>
13.9953

>  <SCORE.INTER.VDW>
-17.1748

>  <SCORE.INTER.norm>
-0.836449

>  <SCORE.INTRA>
-0.945589

>  <SCORE.INTRA.DIHEDRAL>
-1.72219

>  <SCORE.INTRA.DIHEDRAL.0>
3.281

>  <SCORE.INTRA.POLAR>
0

>  <SCORE.INTRA.POLAR.0>
0

>  <SCORE.INTRA.REPUL>
0

>  <SCORE.INTRA.REPUL.0>
0

>  <SCORE.INTRA.SOLV>
-0.599422

>  <SCORE.INTRA.SOLV.lig_0>
-31.9458

>  <SCORE.INTRA.VDW>
0.215216

>  <SCORE.INTRA.VDW.0>
-0.672612

>  <SCORE.INTRA.norm>
-0.0945589

>  <SCORE.RESTR>
0

>  <SCORE.RESTR.CAVITY>
0

>  <SCORE.RESTR.norm>
0

>  <SCORE.SYSTEM>
0

>  <SCORE.SYSTEM.CONST>
0

>  <SCORE.SYSTEM.DIHEDRAL>
0

>  <SCORE.SYSTEM.SOLV>
0

>  <SCORE.SYSTEM.norm>
0

>  <SCORE.heavy>
10

>  <SCORE.norm>
-0.931008

>  <RMSD>
5.503

$$$$
ligand
 OpenBabel11021811473D
libRbt.so/2013.1/901 2013/11/27
 10  9  0  0  0  0  0  0  0  0999 V2000
   26.8415   14.5624   20.0975 N   0  0  0  0  0  0  0  0  0  0  0  0
   27.1455   15.5624   19.0354 C   0  0  2  0  0  0  0  0  0  0  0  0
   27.7755   14.9025   17.8169 C   0  0  0  0  0  0  0  0  0  0  0  0
   27.9118   13.6814   17.7285 O   0  0  0  0  0  0  0  0  0  0  0  0
   28.0414   16.6747   19.5758 C   0  0  0  0  0  0  0  0  0  0  0  0
   29.3563   16.1618   20.1162 C   0  0  0  0  0  0  0  0  0  0  0  0
   30.1837   17.2677   20.7151 C   0  0  0  0  0  0  0  0  0  0  0  0
   31.5139   16.7346   21.2174 C   0  0  0  0  0  0  0  0  0  0  0  0
   32.3387   17.7964   21.8505 N   0  0  0  0  0  0  0  0  0  0  0  0
   28.1420   15.5810   16.8561 O   0  0  0  0  0  0  0  0  0  0  0  0
  2  1  1  1  0  0  0
  2  3  1  0  0  0  0
  2  5  1  0  0  0  0
  3  4  1  0  0  0  0
  3 10  1  0  0  0  0
  5  6  1  0  0  0  0
  6  7  1  0  0  0  0
  7  8  1  0  0  0  0
  8  9  1  0  0  0  0
M  END
>  <CHROM.1>
4.60111510,58.93745783,-176.64249624,-178.49757944,-178.35081007,28.92886108
15.87364876,19.46616666,2.40737024,-0.40614136,-1.81855962

>  <Name>
ligand

>  <RI>
0

>  <Rbt.Current_Directory>
/home/itssahil/PROJECTS/Mol_Feturizer/New_Systems/rnas/3DIX

>  <Rbt.Executable>
rbdock ($Id: //depot/dev/client3/rdock/2013.1/src/exe/rbdock.cxx#4 $)

>  <Rbt.Library>
libRbt.so (2013.1, Build901 2013/11/27)

>  <Rbt.Parameter_File>
/export/apps/rDock/src/rDock_2013.1_src/data/scripts/dock_solv.prm

>  <Rbt.Receptor>
prm/pocket_docking_5.prm

>  <SCORE>
-9.26868

>  <SCORE.INTER>
-8.32922

>  <SCORE.INTER.CONST>
1

>  <SCORE.INTER.POLAR>
0

>  <SCORE.INTER.ROT>
5

>  <SCORE.INTER.SOLV>
13.9797

>  <SCORE.INTER.VDW>
-17.146

>  <SCORE.INTER.norm>
-0.832922

>  <SCORE.INTRA>
-0.939456

>  <SCORE.INTRA.DIHEDRAL>
-1.7272

>  <SCORE.INTRA.DIHEDRAL.0>
3.281

>  <SCORE.INTRA.POLAR>
0

>  <SCORE.INTRA.POLAR.0>
0

>  <SCORE.INTRA.REPUL>
0

>  <SCORE.INTRA.REPUL.0>
0

>  <SCORE.INTRA.SOLV>
-0.613853

>  <SCORE.INTRA.SOLV.lig_0>
-31.9458

>  <SCORE.INTRA.VDW>
0.231069

>  <SCORE.INTRA.VDW.0>
-0.672612

>  <SCORE.INTRA.norm>
-0.0939456

>  <SCORE.RESTR>
0

>  <SCORE.RESTR.CAVITY>
0

>  <SCORE.RESTR.norm>
0

>  <SCORE.SYSTEM>
0

>  <SCORE.SYSTEM.CONST>
0

>  <SCORE.SYSTEM.DIHEDRAL>
0

>  <SCORE.SYSTEM.SOLV>
0

>  <SCORE.SYSTEM.norm>
0

>  <SCORE.heavy>
10

>  <SCORE.norm>
-0.926868

>  <RMSD>
5.503

$$$$
ligand
 OpenBabel11021811473D
libRbt.so/2013.1/901 2013/11/27
 10  9  0  0  0  0  0  0  0  0999 V2000
   27.1186   14.0218   18.1203 N   0  0  0  0  0  0  0  0  0  0  0  0
   27.6507   14.4014   19.4595 C   0  0  2  0  0  0  0  0  0  0  0  0
   26.5748   15.0490   20.3200 C   0  0  0  0  0  0  0  0  0  0  0  0
   25.7039   15.7785   19.8437 O   0  0  0  0  0  0  0  0  0  0  0  0
   28.8634   15.3192   19.3230 C   0  0  0  0  0  0  0  0  0  0  0  0
   29.5561   15.5803   20.6405 C   0  0  0  0  0  0  0  0  0  0  0  0
   30.7148   16.5285   20.4843 C   0  0  0  0  0  0  0  0  0  0  0  0
   31.3690   16.8063   21.8263 C   0  0  0  0  0  0  0  0  0  0  0  0
   32.4632   17.8062   21.7187 N   0  0  0  0  0  0  0  0  0  0  0  0
   26.5257   14.8305   21.5315 O   0  0  0  0  0  0  0  0  0  0  0  0
  2  1  1  6  0  0  0
  2  3  1  0  0  0  0
  2  5  1  0  0  0  0
  3  4  1  0  0  0  0
  3 10  1  0  0  0  0
  5  6  1  0  0  0  0
  6  7  1  0  0  0  0
  7  8  1  0  0  0  0
  8  9  1  0  0  0  0
M  END
>  <CHROM.1>
-35.31438951,-172.08088024,-177.82599006,178.36104402,-176.39890058,28.61958534
15.62018299,20.34326848,-2.69343847,0.24924748,1.12068554

>  <Name>
ligand

>  <RI>
0

>  <Rbt.Current_Directory>
/home/itssahil/PROJECTS/Mol_Feturizer/New_Systems/rnas/3DIX

>  <Rbt.Executable>
rbdock ($Id: //depot/dev/client3/rdock/2013.1/src/exe/rbdock.cxx#4 $)

>  <Rbt.Library>
libRbt.so (2013.1, Build901 2013/11/27)

>  <Rbt.Parameter_File>
/export/apps/rDock/src/rDock_2013.1_src/data/scripts/dock_solv.prm

>  <Rbt.Receptor>
prm/blind_docking_60.prm

>  <SCORE>
-8.79935

>  <SCORE.INTER>
-7.12754

>  <SCORE.INTER.CONST>
1

>  <SCORE.INTER.POLAR>
0

>  <SCORE.INTER.ROT>
5

>  <SCORE.INTER.SOLV>
15.5937

>  <SCORE.INTER.VDW>
-16.8829

>  <SCORE.INTER.norm>
-0.712754

>  <SCORE.INTRA>
-1.67181

>  <SCORE.INTRA.DIHEDRAL>
-1.4172

>  <SCORE.INTRA.DIHEDRAL.0>
3.281

>  <SCORE.INTRA.POLAR>
0

>  <SCORE.INTRA.POLAR.0>
0

>  <SCORE.INTRA.REPUL>
0

>  <SCORE.INTRA.REPUL.0>
0

>  <SCORE.INTRA.SOLV>
-1.56831

>  <SCORE.INTRA.SOLV.lig_0>
-31.9458

>  <SCORE.INTRA.VDW>
-0.179053

>  <SCORE.INTRA.VDW.0>
-0.672612

>  <SCORE.INTRA.norm>
-0.167181

>  <SCORE.RESTR>
0

>  <SCORE.RESTR.CAVITY>
0

>  <SCORE.RESTR.norm>
0

>  <SCORE.SYSTEM>
0

>  <SCORE.SYSTEM.CONST>
0

>  <SCORE.SYSTEM.DIHEDRAL>
0

>  <SCORE.SYSTEM.SOLV>
0

>  <SCORE.SYSTEM.norm>
0

>  <SCORE.heavy>
10

>  <SCORE.norm>
-0.879935

>  <RMSD>
5.504

$$$$
ligand
 OpenBabel11021811473D
libRbt.so/2013.1/901 2013/11/27
 10  9  0  0  0  0  0  0  0  0999 V2000
   26.9993   14.6231   20.0505 N   0  0  0  0  0  0  0  0  0  0  0  0
   27.2964   15.6414   19.0039 C   0  0  2  0  0  0  0  0  0  0  0  0
   27.8335   14.9926   17.7360 C   0  0  0  0  0  0  0  0  0  0  0  0
   28.1731   15.6535   16.7533 O   0  0  0  0  0  0  0  0  0  0  0  0
   28.2690   16.6945   19.5301 C   0  0  0  0  0  0  0  0  0  0  0  0
   29.5757   16.1037   20.0070 C   0  0  0  0  0  0  0  0  0  0  0  0
   30.5219   17.1655   20.5004 C   0  0  0  0  0  0  0  0  0  0  0  0
   31.8517   16.5558   20.9077 C   0  0  0  0  0  0  0  0  0  0  0  0
   32.8099   17.5806   21.3978 N   0  0  0  0  0  0  0  0  0  0  0  0
   27.9766   13.7708   17.6695 O   0  0  0  0  0  0  0  0  0  0  0  0
  2  1  1  1  0  0  0
  2  3  1  0  0  0  0
  2  5  1  0  0  0  0
  3  4  1  0  0  0  0
  3 10  1  0  0  0  0
  5  6  1  0  0  0  0
  6  7  1  0  0  0  0
  7  8  1  0  0  0  0
  8  9  1  0  0  0  0
M  END
>  <CHROM.1>
-178.31563342,58.05121606,179.14595910,-177.12540761,179.89574023,29.13258512
15.85983095,19.32093094,2.49393301,-0.36516448,-1.78234446

>  <Name>
ligand

>  <RI>
0

>  <Rbt.Current_Directory>
/home/itssahil/PROJECTS/Mol_Feturizer/New_Systems/rnas/3DIX

>  <Rbt.Executable>
rbdock ($Id: //depot/dev/client3/rdock/2013.1/src/exe/rbdock.cxx#4 $)

>  <Rbt.Library>
libRbt.so (2013.1, Build901 2013/11/27)

>  <Rbt.Parameter_File>
/export/apps/rDock/src/rDock_2013.1_src/data/scripts/dock_solv.prm

>  <Rbt.Receptor>
prm/pocket_docking_8.prm

>  <SCORE>
-9.19295

>  <SCORE.INTER>
-8.20307

>  <SCORE.INTER.CONST>
1

>  <SCORE.INTER.POLAR>
0

>  <SCORE.INTER.ROT>
5

>  <SCORE.INTER.SOLV>
13.9402

>  <SCORE.INTER.VDW>
-17.0488

>  <SCORE.INTER.norm>
-0.820307

>  <SCORE.INTRA>
-0.989873

>  <SCORE.INTRA.DIHEDRAL>
-1.73291

>  <SCORE.INTRA.DIHEDRAL.0>
3.281

>  <SCORE.INTRA.POLAR>
0

>  <SCORE.INTRA.POLAR.0>
0

>  <SCORE.INTRA.REPUL>
0

>  <SCORE.INTRA.REPUL.0>
0

>  <SCORE.INTRA.SOLV>
-0.611546

>  <SCORE.INTRA.SOLV.lig_0>
-31.9458

>  <SCORE.INTRA.VDW>
0.182357

>  <SCORE.INTRA.VDW.0>
-0.672612

>  <SCORE.INTRA.norm>
-0.0989873

>  <SCORE.RESTR>
0

>  <SCORE.RESTR.CAVITY>
0

>  <SCORE.RESTR.norm>
0

>  <SCORE.SYSTEM>
0

>  <SCORE.SYSTEM.CONST>
0

>  <SCORE.SYSTEM.DIHEDRAL>
0

>  <SCORE.SYSTEM.SOLV>
0

>  <SCORE.SYSTEM.norm>
0

>  <SCORE.heavy>
10

>  <SCORE.norm>
-0.919295

>  <RMSD>
5.504

$$$$
ligand
 OpenBabel11021811473D
libRbt.so/2013.1/901 2013/11/27
 10  9  0  0  0  0  0  0  0  0999 V2000
   25.8731   15.0311   20.4516 N   0  0  0  0  0  0  0  0  0  0  0  0
   26.8240   15.7416   19.5508 C   0  0  2  0  0  0  0  0  0  0  0  0
   27.2031   14.8799   18.3546 C   0  0  0  0  0  0  0  0  0  0  0  0
   26.9322   13.6795   18.2980 O   0  0  0  0  0  0  0  0  0  0  0  0
   28.0680   16.1877   20.3158 C   0  0  0  0  0  0  0  0  0  0  0  0
   28.8173   15.0360   20.9451 C   0  0  0  0  0  0  0  0  0  0  0  0
   30.1110   15.4858   21.5697 C   0  0  0  0  0  0  0  0  0  0  0  0
   31.1058   15.9098   20.5035 C   0  0  0  0  0  0  0  0  0  0  0  0
   32.3462   16.4797   21.0911 N   0  0  0  0  0  0  0  0  0  0  0  0
   27.7713   15.3755   17.3802 O   0  0  0  0  0  0  0  0  0  0  0  0
  2  1  1  1  0  0  0
  2  3  1  0  0  0  0
  2  5  1  0  0  0  0
  3  4  1  0  0  0  0
  3 10  1  0  0  0  0
  5  6  1  0  0  0  0
  6  7  1  0  0  0  0
  7  8  1  0  0  0  0
  8  9  1  0  0  0  0
M  END
>  <CHROM.1>
-11.87642067,59.42938943,174.10145847,-68.92200484,174.61379487,28.50339040
15.36127730,19.81309140,2.63617850,-0.19242158,-1.72459334

>  <Name>
ligand

>  <RI>
0

>  <Rbt.Current_Directory>
/home/itssahil/PROJECTS/Mol_Feturizer/New_Systems/rnas/3DIX

>  <Rbt.Executable>
rbdock ($Id: //depot/dev/client3/rdock/2013.1/src/exe/rbdock.cxx#4 $)

>  <Rbt.Library>
libRbt.so (2013.1, Build901 2013/11/27)

>  <Rbt.Parameter_File>
/export/apps/rDock/src/rDock_2013.1_src/data/scripts/dock_solv.prm

>  <Rbt.Receptor>
prm/pocket_docking_5.prm

>  <SCORE>
-8.67557

>  <SCORE.INTER>
-8.61747

>  <SCORE.INTER.CONST>
1

>  <SCORE.INTER.POLAR>
0

>  <SCORE.INTER.ROT>
5

>  <SCORE.INTER.SOLV>
16.9689

>  <SCORE.INTER.VDW>
-18.3346

>  <SCORE.INTER.norm>
-0.861747

>  <SCORE.INTRA>
-0.0580932

>  <SCORE.INTRA.DIHEDRAL>
-1.16161

>  <SCORE.INTRA.DIHEDRAL.0>
3.281

>  <SCORE.INTRA.POLAR>
0

>  <SCORE.INTRA.POLAR.0>
0

>  <SCORE.INTRA.REPUL>
0

>  <SCORE.INTRA.REPUL.0>
0

>  <SCORE.INTRA.SOLV>
-0.368271

>  <SCORE.INTRA.SOLV.lig_0>
-31.9458

>  <SCORE.INTRA.VDW>
0.706849

>  <SCORE.INTRA.VDW.0>
-0.672612

>  <SCORE.INTRA.norm>
-0.00580932

>  <SCORE.RESTR>
0

>  <SCORE.RESTR.CAVITY>
0

>  <SCORE.RESTR.norm>
0

>  <SCORE.SYSTEM>
0

>  <SCORE.SYSTEM.CONST>
0

>  <SCORE.SYSTEM.DIHEDRAL>
0

>  <SCORE.SYSTEM.SOLV>
0

>  <SCORE.SYSTEM.norm>
0

>  <SCORE.heavy>
10

>  <SCORE.norm>
-0.867557

>  <RMSD>
5.506

$$$$
ligand
 OpenBabel11021811473D
libRbt.so/2013.1/901 2013/11/27
 10  9  0  0  0  0  0  0  0  0999 V2000
   26.4769   14.7418   20.0112 N   0  0  0  0  0  0  0  0  0  0  0  0
   27.5373   15.4344   19.2260 C   0  0  2  0  0  0  0  0  0  0  0  0
   27.6210   14.8900   17.8070 C   0  0  0  0  0  0  0  0  0  0  0  0
   28.1169   15.5373   16.8835 O   0  0  0  0  0  0  0  0  0  0  0  0
   28.8892   15.3316   19.9286 C   0  0  0  0  0  0  0  0  0  0  0  0
   28.8639   15.8774   21.3376 C   0  0  0  0  0  0  0  0  0  0  0  0
   30.2466   15.9708   21.9255 C   0  0  0  0  0  0  0  0  0  0  0  0
   31.0199   17.1210   21.3048 C   0  0  0  0  0  0  0  0  0  0  0  0
   32.3786   17.2618   21.8903 N   0  0  0  0  0  0  0  0  0  0  0  0
   27.2182   13.7552   17.5463 O   0  0  0  0  0  0  0  0  0  0  0  0
  2  1  1  1  0  0  0
  2  3  1  0  0  0  0
  2  5  1  0  0  0  0
  3  4  1  0  0  0  0
  3 10  1  0  0  0  0
  5  6  1  0  0  0  0
  6  7  1  0  0  0  0
  7  8  1  0  0  0  0
  8  9  1  0  0  0  0
M  END
>  <CHROM.1>
158.17931878,-56.55640645,-170.74313602,73.40749551,178.51519873,28.83065133
15.57670735,19.74613935,2.40155636,-0.46687486,-1.62266392

>  <Name>
ligand

>  <RI>
0

>  <Rbt.Current_Directory>
/home/itssahil/PROJECTS/Mol_Feturizer/New_Systems/rnas/3DIX

>  <Rbt.Executable>
rbdock ($Id: //depot/dev/client3/rdock/2013.1/src/exe/rbdock.cxx#4 $)

>  <Rbt.Library>
libRbt.so (2013.1, Build901 2013/11/27)

>  <Rbt.Parameter_File>
/export/apps/rDock/src/rDock_2013.1_src/data/scripts/dock_solv.prm

>  <Rbt.Receptor>
prm/pocket_docking_5.prm

>  <SCORE>
-8.05429

>  <SCORE.INTER>
-7.99619

>  <SCORE.INTER.CONST>
1

>  <SCORE.INTER.POLAR>
0

>  <SCORE.INTER.ROT>
5

>  <SCORE.INTER.SOLV>
15.1228

>  <SCORE.INTER.VDW>
-17.3051

>  <SCORE.INTER.norm>
-0.799619

>  <SCORE.INTRA>
-0.0581076

>  <SCORE.INTRA.DIHEDRAL>
-0.730177

>  <SCORE.INTRA.DIHEDRAL.0>
3.281

>  <SCORE.INTRA.POLAR>
0

>  <SCORE.INTRA.POLAR.0>
0

>  <SCORE.INTRA.REPUL>
0

>  <SCORE.INTRA.REPUL.0>
0

>  <SCORE.INTRA.SOLV>
-0.402721

>  <SCORE.INTRA.SOLV.lig_0>
-31.9458

>  <SCORE.INTRA.VDW>
0.508341

>  <SCORE.INTRA.VDW.0>
-0.672612

>  <SCORE.INTRA.norm>
-0.00581076

>  <SCORE.RESTR>
0

>  <SCORE.RESTR.CAVITY>
0

>  <SCORE.RESTR.norm>
0

>  <SCORE.SYSTEM>
0

>  <SCORE.SYSTEM.CONST>
0

>  <SCORE.SYSTEM.DIHEDRAL>
0

>  <SCORE.SYSTEM.SOLV>
0

>  <SCORE.SYSTEM.norm>
0

>  <SCORE.heavy>
10

>  <SCORE.norm>
-0.805429

>  <RMSD>
5.507

$$$$
ligand
 OpenBabel11021811473D
libRbt.so/2013.1/901 2013/11/27
 10  9  0  0  0  0  0  0  0  0999 V2000
   26.4859   15.9147   19.7249 N   0  0  0  0  0  0  0  0  0  0  0  0
   27.7877   15.5107   19.1228 C   0  0  2  0  0  0  0  0  0  0  0  0
   27.5995   14.9507   17.7199 C   0  0  0  0  0  0  0  0  0  0  0  0
   28.1077   15.4776   16.7290 O   0  0  0  0  0  0  0  0  0  0  0  0
   28.5122   14.5066   20.0165 C   0  0  0  0  0  0  0  0  0  0  0  0
   29.1101   15.1409   21.2511 C   0  0  0  0  0  0  0  0  0  0  0  0
   30.2379   16.0770   20.9078 C   0  0  0  0  0  0  0  0  0  0  0  0
   30.8500   16.6680   22.1656 C   0  0  0  0  0  0  0  0  0  0  0  0
   31.9346   17.6363   21.8579 N   0  0  0  0  0  0  0  0  0  0  0  0
   26.9504   13.9194   17.5387 O   0  0  0  0  0  0  0  0  0  0  0  0
  2  1  1  1  0  0  0
  2  3  1  0  0  0  0
  2  5  1  0  0  0  0
  3  4  1  0  0  0  0
  3 10  1  0  0  0  0
  5  6  1  0  0  0  0
  6  7  1  0  0  0  0
  7  8  1  0  0  0  0
  8  9  1  0  0  0  0
M  END
>  <CHROM.1>
118.44470616,-74.00738719,-67.17920779,-178.23764212,-177.88269309,28.74658971
15.56470214,19.66372739,2.38046154,-0.50545939,-1.54817849

>  <Name>
ligand

>  <RI>
0

>  <Rbt.Current_Directory>
/home/itssahil/PROJECTS/Mol_Feturizer/New_Systems/rnas/3DIX

>  <Rbt.Executable>
rbdock ($Id: //depot/dev/client3/rdock/2013.1/src/exe/rbdock.cxx#4 $)

>  <Rbt.Library>
libRbt.so (2013.1, Build901 2013/11/27)

>  <Rbt.Parameter_File>
/export/apps/rDock/src/rDock_2013.1_src/data/scripts/dock_solv.prm

>  <Rbt.Receptor>
prm/pocket_docking_7.prm

>  <SCORE>
-8.40907

>  <SCORE.INTER>
-7.91793

>  <SCORE.INTER.CONST>
1

>  <SCORE.INTER.POLAR>
0

>  <SCORE.INTER.ROT>
5

>  <SCORE.INTER.SOLV>
14.7092

>  <SCORE.INTER.VDW>
-17.115

>  <SCORE.INTER.norm>
-0.791793

>  <SCORE.INTRA>
-0.491137

>  <SCORE.INTRA.DIHEDRAL>
-0.766028

>  <SCORE.INTRA.DIHEDRAL.0>
3.281

>  <SCORE.INTRA.POLAR>
0

>  <SCORE.INTRA.POLAR.0>
0

>  <SCORE.INTRA.REPUL>
0

>  <SCORE.INTRA.REPUL.0>
0

>  <SCORE.INTRA.SOLV>
-0.420403

>  <SCORE.INTRA.SOLV.lig_0>
-31.9458

>  <SCORE.INTRA.VDW>
0.102078

>  <SCORE.INTRA.VDW.0>
-0.672612

>  <SCORE.INTRA.norm>
-0.0491137

>  <SCORE.RESTR>
0

>  <SCORE.RESTR.CAVITY>
0

>  <SCORE.RESTR.norm>
0

>  <SCORE.SYSTEM>
0

>  <SCORE.SYSTEM.CONST>
0

>  <SCORE.SYSTEM.DIHEDRAL>
0

>  <SCORE.SYSTEM.SOLV>
0

>  <SCORE.SYSTEM.norm>
0

>  <SCORE.heavy>
10

>  <SCORE.norm>
-0.840907

>  <RMSD>
5.507

$$$$
ligand
 OpenBabel11021811473D
libRbt.so/2013.1/901 2013/11/27
 10  9  0  0  0  0  0  0  0  0999 V2000
   25.8278   14.9787   20.5266 N   0  0  0  0  0  0  0  0  0  0  0  0
   26.7719   15.7086   19.6340 C   0  0  2  0  0  0  0  0  0  0  0  0
   27.1656   14.8612   18.4323 C   0  0  0  0  0  0  0  0  0  0  0  0
   26.8990   13.6606   18.3598 O   0  0  0  0  0  0  0  0  0  0  0  0
   28.0078   16.1649   20.4062 C   0  0  0  0  0  0  0  0  0  0  0  0
   28.7828   15.0164   21.0097 C   0  0  0  0  0  0  0  0  0  0  0  0
   30.0899   15.4734   21.6000 C   0  0  0  0  0  0  0  0  0  0  0  0
   31.0535   15.9041   20.5082 C   0  0  0  0  0  0  0  0  0  0  0  0
   32.3015   16.4900   21.0630 N   0  0  0  0  0  0  0  0  0  0  0  0
   27.7419   15.3691   17.4692 O   0  0  0  0  0  0  0  0  0  0  0  0
  2  1  1  1  0  0  0
  2  3  1  0  0  0  0
  2  5  1  0  0  0  0
  3  4  1  0  0  0  0
  3 10  1  0  0  0  0
  5  6  1  0  0  0  0
  6  7  1  0  0  0  0
  7  8  1  0  0  0  0
  8  9  1  0  0  0  0
M  END
>  <CHROM.1>
-11.15311957,60.37197337,172.16295845,-69.14148739,174.20089518,28.46266433
15.34358079,19.86799862,2.65361771,-0.20203901,-1.72197307

>  <Name>
ligand

>  <RI>
0

>  <Rbt.Current_Directory>
/home/itssahil/PROJECTS/Mol_Feturizer/New_Systems/rnas/3DIX

>  <Rbt.Executable>
rbdock ($Id: //depot/dev/client3/rdock/2013.1/src/exe/rbdock.cxx#4 $)

>  <Rbt.Library>
libRbt.so (2013.1, Build901 2013/11/27)

>  <Rbt.Parameter_File>
/export/apps/rDock/src/rDock_2013.1_src/data/scripts/dock_solv.prm

>  <Rbt.Receptor>
prm/pocket_docking_7.prm

>  <SCORE>
-8.74004

>  <SCORE.INTER>
-8.73387

>  <SCORE.INTER.CONST>
1

>  <SCORE.INTER.POLAR>
0

>  <SCORE.INTER.ROT>
5

>  <SCORE.INTER.SOLV>
17.0944

>  <SCORE.INTER.VDW>
-18.4541

>  <SCORE.INTER.norm>
-0.873387

>  <SCORE.INTRA>
-0.0061712

>  <SCORE.INTRA.DIHEDRAL>
-1.02381

>  <SCORE.INTRA.DIHEDRAL.0>
3.281

>  <SCORE.INTRA.POLAR>
0

>  <SCORE.INTRA.POLAR.0>
0

>  <SCORE.INTRA.REPUL>
0

>  <SCORE.INTRA.REPUL.0>
0

>  <SCORE.INTRA.SOLV>
-0.385499

>  <SCORE.INTRA.SOLV.lig_0>
-31.9458

>  <SCORE.INTRA.VDW>
0.698485

>  <SCORE.INTRA.VDW.0>
-0.672612

>  <SCORE.INTRA.norm>
-0.00061712

>  <SCORE.RESTR>
0

>  <SCORE.RESTR.CAVITY>
0

>  <SCORE.RESTR.norm>
0

>  <SCORE.SYSTEM>
0

>  <SCORE.SYSTEM.CONST>
0

>  <SCORE.SYSTEM.DIHEDRAL>
0

>  <SCORE.SYSTEM.SOLV>
0

>  <SCORE.SYSTEM.norm>
0

>  <SCORE.heavy>
10

>  <SCORE.norm>
-0.874004

>  <RMSD>
5.509

$$$$
ligand
 OpenBabel11021811473D
libRbt.so/2013.1/901 2013/11/27
 10  9  0  0  0  0  0  0  0  0999 V2000
   26.4861   16.0863   19.6719 N   0  0  0  0  0  0  0  0  0  0  0  0
   27.7451   15.4964   19.1356 C   0  0  2  0  0  0  0  0  0  0  0  0
   27.5346   14.9095   17.7470 C   0  0  0  0  0  0  0  0  0  0  0  0
   26.8381   13.9117   17.5545 O   0  0  0  0  0  0  0  0  0  0  0  0
   28.3036   14.4447   20.0917 C   0  0  0  0  0  0  0  0  0  0  0  0
   28.9222   15.0459   21.3325 C   0  0  0  0  0  0  0  0  0  0  0  0
   30.1388   15.8705   21.0070 C   0  0  0  0  0  0  0  0  0  0  0  0
   30.6958   16.5270   22.2579 C   0  0  0  0  0  0  0  0  0  0  0  0
   31.8497   17.4140   21.9574 N   0  0  0  0  0  0  0  0  0  0  0  0
   28.0366   15.4451   16.7575 O   0  0  0  0  0  0  0  0  0  0  0  0
  2  1  1  1  0  0  0
  2  3  1  0  0  0  0
  2  5  1  0  0  0  0
  3  4  1  0  0  0  0
  3 10  1  0  0  0  0
  5  6  1  0  0  0  0
  6  7  1  0  0  0  0
  7  8  1  0  0  0  0
  8  9  1  0  0  0  0
M  END
>  <CHROM.1>
-68.02764005,-73.38905922,-64.96802942,176.79726688,-176.57172825,28.64337929
15.50014582,19.71146024,2.36172848,-0.49437372,-1.52503516

>  <Name>
ligand

>  <RI>
0

>  <Rbt.Current_Directory>
/home/itssahil/PROJECTS/Mol_Feturizer/New_Systems/rnas/3DIX

>  <Rbt.Executable>
rbdock ($Id: //depot/dev/client3/rdock/2013.1/src/exe/rbdock.cxx#4 $)

>  <Rbt.Library>
libRbt.so (2013.1, Build901 2013/11/27)

>  <Rbt.Parameter_File>
/export/apps/rDock/src/rDock_2013.1_src/data/scripts/dock_solv.prm

>  <Rbt.Receptor>
prm/blind_docking_80.prm

>  <SCORE>
-8.60362

>  <SCORE.INTER>
-8.11561

>  <SCORE.INTER.CONST>
1

>  <SCORE.INTER.POLAR>
0

>  <SCORE.INTER.ROT>
5

>  <SCORE.INTER.SOLV>
15.0608

>  <SCORE.INTER.VDW>
-17.364

>  <SCORE.INTER.norm>
-0.811561

>  <SCORE.INTRA>
-0.488007

>  <SCORE.INTRA.DIHEDRAL>
-0.92598

>  <SCORE.INTRA.DIHEDRAL.0>
3.281

>  <SCORE.INTRA.POLAR>
0

>  <SCORE.INTRA.POLAR.0>
0

>  <SCORE.INTRA.REPUL>
0

>  <SCORE.INTRA.REPUL.0>
0

>  <SCORE.INTRA.SOLV>
-0.372977

>  <SCORE.INTRA.SOLV.lig_0>
-31.9458

>  <SCORE.INTRA.VDW>
0.161471

>  <SCORE.INTRA.VDW.0>
-0.672612

>  <SCORE.INTRA.norm>
-0.0488007

>  <SCORE.RESTR>
0

>  <SCORE.RESTR.CAVITY>
0

>  <SCORE.RESTR.norm>
0

>  <SCORE.SYSTEM>
0

>  <SCORE.SYSTEM.CONST>
0

>  <SCORE.SYSTEM.DIHEDRAL>
0

>  <SCORE.SYSTEM.SOLV>
0

>  <SCORE.SYSTEM.norm>
0

>  <SCORE.heavy>
10

>  <SCORE.norm>
-0.860362

>  <RMSD>
5.511

$$$$
ligand
 OpenBabel11021811473D
libRbt.so/2013.1/901 2013/11/27
 10  9  0  0  0  0  0  0  0  0999 V2000
   25.8046   14.9698   20.5231 N   0  0  0  0  0  0  0  0  0  0  0  0
   26.7492   15.7115   19.6409 C   0  0  2  0  0  0  0  0  0  0  0  0
   27.1628   14.8711   18.4411 C   0  0  0  0  0  0  0  0  0  0  0  0
   26.9309   13.6630   18.3743 O   0  0  0  0  0  0  0  0  0  0  0  0
   27.9731   16.1790   20.4254 C   0  0  0  0  0  0  0  0  0  0  0  0
   28.7601   15.0367   21.0251 C   0  0  0  0  0  0  0  0  0  0  0  0
   30.0370   15.5130   21.6646 C   0  0  0  0  0  0  0  0  0  0  0  0
   31.0231   15.9875   20.6117 C   0  0  0  0  0  0  0  0  0  0  0  0
   32.2512   16.5662   21.2162 N   0  0  0  0  0  0  0  0  0  0  0  0
   27.7205   15.3917   17.4737 O   0  0  0  0  0  0  0  0  0  0  0  0
  2  1  1  1  0  0  0
  2  3  1  0  0  0  0
  2  5  1  0  0  0  0
  3  4  1  0  0  0  0
  3 10  1  0  0  0  0
  5  6  1  0  0  0  0
  6  7  1  0  0  0  0
  7  8  1  0  0  0  0
  8  9  1  0  0  0  0
M  END
>  <CHROM.1>
-12.49792622,60.79036778,173.86515923,-69.43670253,175.38518937,28.44024717
15.36985123,19.90653564,2.62930461,-0.21425151,-1.71964330

>  <Name>
ligand

>  <RI>
0

>  <Rbt.Current_Directory>
/home/itssahil/PROJECTS/Mol_Feturizer/New_Systems/rnas/3DIX

>  <Rbt.Executable>
rbdock ($Id: //depot/dev/client3/rdock/2013.1/src/exe/rbdock.cxx#4 $)

>  <Rbt.Library>
libRbt.so (2013.1, Build901 2013/11/27)

>  <Rbt.Parameter_File>
/export/apps/rDock/src/rDock_2013.1_src/data/scripts/dock_solv.prm

>  <Rbt.Receptor>
prm/pocket_docking_8.prm

>  <SCORE>
-8.73514

>  <SCORE.INTER>
-8.65324

>  <SCORE.INTER.CONST>
1

>  <SCORE.INTER.POLAR>
0

>  <SCORE.INTER.ROT>
5

>  <SCORE.INTER.SOLV>
17.1072

>  <SCORE.INTER.VDW>
-18.4045

>  <SCORE.INTER.norm>
-0.865324

>  <SCORE.INTRA>
-0.0819063

>  <SCORE.INTRA.DIHEDRAL>
-1.14056

>  <SCORE.INTRA.DIHEDRAL.0>
3.281

>  <SCORE.INTRA.POLAR>
0

>  <SCORE.INTRA.POLAR.0>
0

>  <SCORE.INTRA.REPUL>
0

>  <SCORE.INTRA.REPUL.0>
0

>  <SCORE.INTRA.SOLV>
-0.395685

>  <SCORE.INTRA.SOLV.lig_0>
-31.9458

>  <SCORE.INTRA.VDW>
0.686219

>  <SCORE.INTRA.VDW.0>
-0.672612

>  <SCORE.INTRA.norm>
-0.00819063

>  <SCORE.RESTR>
0

>  <SCORE.RESTR.CAVITY>
0

>  <SCORE.RESTR.norm>
0

>  <SCORE.SYSTEM>
0

>  <SCORE.SYSTEM.CONST>
0

>  <SCORE.SYSTEM.DIHEDRAL>
0

>  <SCORE.SYSTEM.SOLV>
0

>  <SCORE.SYSTEM.norm>
0

>  <SCORE.heavy>
10

>  <SCORE.norm>
-0.873514

>  <RMSD>
5.512

$$$$
ligand
 OpenBabel11021811473D
libRbt.so/2013.1/901 2013/11/27
 10  9  0  0  0  0  0  0  0  0999 V2000
   25.8457   14.9460   20.5227 N   0  0  0  0  0  0  0  0  0  0  0  0
   26.7793   15.6841   19.6259 C   0  0  2  0  0  0  0  0  0  0  0  0
   27.1765   14.8395   18.4234 C   0  0  0  0  0  0  0  0  0  0  0  0
   26.8605   13.6532   18.3211 O   0  0  0  0  0  0  0  0  0  0  0  0
   28.0136   16.1530   20.3929 C   0  0  0  0  0  0  0  0  0  0  0  0
   28.8101   15.0117   20.9818 C   0  0  0  0  0  0  0  0  0  0  0  0
   30.0862   15.4918   21.6201 C   0  0  0  0  0  0  0  0  0  0  0  0
   31.0446   16.0290   20.5719 C   0  0  0  0  0  0  0  0  0  0  0  0
   32.2858   16.5775   21.1778 N   0  0  0  0  0  0  0  0  0  0  0  0
   27.8070   15.3369   17.4891 O   0  0  0  0  0  0  0  0  0  0  0  0
  2  1  1  1  0  0  0
  2  3  1  0  0  0  0
  2  5  1  0  0  0  0
  3  4  1  0  0  0  0
  3 10  1  0  0  0  0
  5  6  1  0  0  0  0
  6  7  1  0  0  0  0
  7  8  1  0  0  0  0
  8  9  1  0  0  0  0
M  END
>  <CHROM.1>
-7.26598324,60.98977703,174.66856483,-67.27826197,176.96932087,28.46955275
15.35301643,19.87959722,2.63587650,-0.22403519,-1.72382024

>  <Name>
ligand

>  <RI>
0

>  <Rbt.Current_Directory>
/home/itssahil/PROJECTS/Mol_Feturizer/New_Systems/rnas/3DIX

>  <Rbt.Executable>
rbdock ($Id: //depot/dev/client3/rdock/2013.1/src/exe/rbdock.cxx#4 $)

>  <Rbt.Library>
libRbt.so (2013.1, Build901 2013/11/27)

>  <Rbt.Parameter_File>
/export/apps/rDock/src/rDock_2013.1_src/data/scripts/dock_solv.prm

>  <Rbt.Receptor>
prm/pocket_docking_7.prm

>  <SCORE>
-8.70267

>  <SCORE.INTER>
-8.64031

>  <SCORE.INTER.CONST>
1

>  <SCORE.INTER.POLAR>
0

>  <SCORE.INTER.ROT>
5

>  <SCORE.INTER.SOLV>
16.9765

>  <SCORE.INTER.VDW>
-18.3524

>  <SCORE.INTER.norm>
-0.864031

>  <SCORE.INTRA>
-0.0623626

>  <SCORE.INTRA.DIHEDRAL>
-1.385

>  <SCORE.INTRA.DIHEDRAL.0>
3.281

>  <SCORE.INTRA.POLAR>
0

>  <SCORE.INTRA.POLAR.0>
0

>  <SCORE.INTRA.REPUL>
0

>  <SCORE.INTRA.REPUL.0>
0

>  <SCORE.INTRA.SOLV>
-0.392786

>  <SCORE.INTRA.SOLV.lig_0>
-31.9458

>  <SCORE.INTRA.VDW>
0.826529

>  <SCORE.INTRA.VDW.0>
-0.672612

>  <SCORE.INTRA.norm>
-0.00623626

>  <SCORE.RESTR>
0

>  <SCORE.RESTR.CAVITY>
0

>  <SCORE.RESTR.norm>
0

>  <SCORE.SYSTEM>
0

>  <SCORE.SYSTEM.CONST>
0

>  <SCORE.SYSTEM.DIHEDRAL>
0

>  <SCORE.SYSTEM.SOLV>
0

>  <SCORE.SYSTEM.norm>
0

>  <SCORE.heavy>
10

>  <SCORE.norm>
-0.870267

>  <RMSD>
5.514

$$$$
ligand
 OpenBabel11021811473D
libRbt.so/2013.1/901 2013/11/27
 10  9  0  0  0  0  0  0  0  0999 V2000
   25.8473   14.9571   20.5237 N   0  0  0  0  0  0  0  0  0  0  0  0
   26.7821   15.6967   19.6295 C   0  0  2  0  0  0  0  0  0  0  0  0
   27.1720   14.8585   18.4202 C   0  0  0  0  0  0  0  0  0  0  0  0
   26.9126   13.6566   18.3432 O   0  0  0  0  0  0  0  0  0  0  0  0
   28.0209   16.1543   20.3964 C   0  0  0  0  0  0  0  0  0  0  0  0
   28.8171   15.0047   20.9693 C   0  0  0  0  0  0  0  0  0  0  0  0
   30.0970   15.4747   21.6073 C   0  0  0  0  0  0  0  0  0  0  0  0
   31.0506   16.0248   20.5614 C   0  0  0  0  0  0  0  0  0  0  0  0
   32.2752   16.6053   21.1714 N   0  0  0  0  0  0  0  0  0  0  0  0
   27.7375   15.3754   17.4554 O   0  0  0  0  0  0  0  0  0  0  0  0
  2  1  1  1  0  0  0
  2  3  1  0  0  0  0
  2  5  1  0  0  0  0
  3  4  1  0  0  0  0
  3 10  1  0  0  0  0
  5  6  1  0  0  0  0
  6  7  1  0  0  0  0
  7  8  1  0  0  0  0
  8  9  1  0  0  0  0
M  END
>  <CHROM.1>
-11.28074228,61.28370833,174.66291584,-67.11029135,175.03581127,28.46964547
15.36170963,19.87460310,2.63835321,-0.22800000,-1.70891124

>  <Name>
ligand

>  <RI>
0

>  <Rbt.Current_Directory>
/home/itssahil/PROJECTS/Mol_Feturizer/New_Systems/rnas/3DIX

>  <Rbt.Executable>
rbdock ($Id: //depot/dev/client3/rdock/2013.1/src/exe/rbdock.cxx#4 $)

>  <Rbt.Library>
libRbt.so (2013.1, Build901 2013/11/27)

>  <Rbt.Parameter_File>
/export/apps/rDock/src/rDock_2013.1_src/data/scripts/dock_solv.prm

>  <Rbt.Receptor>
prm/pocket_docking_8.prm

>  <SCORE>
-8.76465

>  <SCORE.INTER>
-8.71693

>  <SCORE.INTER.CONST>
1

>  <SCORE.INTER.POLAR>
0

>  <SCORE.INTER.ROT>
5

>  <SCORE.INTER.SOLV>
16.9106

>  <SCORE.INTER.VDW>
-18.3815

>  <SCORE.INTER.norm>
-0.871693

>  <SCORE.INTRA>
-0.0477199

>  <SCORE.INTRA.DIHEDRAL>
-1.3225

>  <SCORE.INTRA.DIHEDRAL.0>
3.281

>  <SCORE.INTRA.POLAR>
0

>  <SCORE.INTRA.POLAR.0>
0

>  <SCORE.INTRA.REPUL>
0

>  <SCORE.INTRA.REPUL.0>
0

>  <SCORE.INTRA.SOLV>
-0.38263

>  <SCORE.INTRA.SOLV.lig_0>
-31.9458

>  <SCORE.INTRA.VDW>
0.804844

>  <SCORE.INTRA.VDW.0>
-0.672612

>  <SCORE.INTRA.norm>
-0.00477199

>  <SCORE.RESTR>
0

>  <SCORE.RESTR.CAVITY>
0

>  <SCORE.RESTR.norm>
0

>  <SCORE.SYSTEM>
0

>  <SCORE.SYSTEM.CONST>
0

>  <SCORE.SYSTEM.DIHEDRAL>
0

>  <SCORE.SYSTEM.SOLV>
0

>  <SCORE.SYSTEM.norm>
0

>  <SCORE.heavy>
10

>  <SCORE.norm>
-0.876465

>  <RMSD>
5.514

$$$$
ligand
 OpenBabel11021811473D
libRbt.so/2013.1/901 2013/11/27
 10  9  0  0  0  0  0  0  0  0999 V2000
   26.8480   14.5633   20.0841 N   0  0  0  0  0  0  0  0  0  0  0  0
   27.1237   15.5857   19.0356 C   0  0  2  0  0  0  0  0  0  0  0  0
   27.7260   14.9526   17.7891 C   0  0  0  0  0  0  0  0  0  0  0  0
   27.8110   13.7317   17.6484 O   0  0  0  0  0  0  0  0  0  0  0  0
   28.0294   16.6895   19.5768 C   0  0  0  0  0  0  0  0  0  0  0  0
   29.3457   16.1662   20.1037 C   0  0  0  0  0  0  0  0  0  0  0  0
   30.1872   17.2652   20.6956 C   0  0  0  0  0  0  0  0  0  0  0  0
   31.5031   16.7153   21.2170 C   0  0  0  0  0  0  0  0  0  0  0  0
   32.3472   17.7733   21.8309 N   0  0  0  0  0  0  0  0  0  0  0  0
   28.1209   15.6556   16.8576 O   0  0  0  0  0  0  0  0  0  0  0  0
  2  1  1  1  0  0  0
  2  3  1  0  0  0  0
  2  5  1  0  0  0  0
  3  4  1  0  0  0  0
  3 10  1  0  0  0  0
  5  6  1  0  0  0  0
  6  7  1  0  0  0  0
  7  8  1  0  0  0  0
  8  9  1  0  0  0  0
M  END
>  <CHROM.1>
7.77078497,57.63624957,-177.02332183,-179.97743458,-178.95692952,28.90732381
15.89176134,19.44850713,2.42588256,-0.42483690,-1.77578580

>  <Name>
ligand

>  <RI>
0

>  <Rbt.Current_Directory>
/home/itssahil/PROJECTS/Mol_Feturizer/New_Systems/rnas/3DIX

>  <Rbt.Executable>
rbdock ($Id: //depot/dev/client3/rdock/2013.1/src/exe/rbdock.cxx#4 $)

>  <Rbt.Library>
libRbt.so (2013.1, Build901 2013/11/27)

>  <Rbt.Parameter_File>
/export/apps/rDock/src/rDock_2013.1_src/data/scripts/dock_solv.prm

>  <Rbt.Receptor>
prm/blind_docking_80.prm

>  <SCORE>
-9.22293

>  <SCORE.INTER>
-8.31876

>  <SCORE.INTER.CONST>
1

>  <SCORE.INTER.POLAR>
0

>  <SCORE.INTER.ROT>
5

>  <SCORE.INTER.SOLV>
13.9717

>  <SCORE.INTER.VDW>
-17.1364

>  <SCORE.INTER.norm>
-0.831876

>  <SCORE.INTRA>
-0.904173

>  <SCORE.INTRA.DIHEDRAL>
-1.74359

>  <SCORE.INTRA.DIHEDRAL.0>
3.281

>  <SCORE.INTRA.POLAR>
0

>  <SCORE.INTRA.POLAR.0>
0

>  <SCORE.INTRA.REPUL>
0

>  <SCORE.INTRA.REPUL.0>
0

>  <SCORE.INTRA.SOLV>
-0.6003

>  <SCORE.INTRA.SOLV.lig_0>
-31.9458

>  <SCORE.INTRA.VDW>
0.267773

>  <SCORE.INTRA.VDW.0>
-0.672612

>  <SCORE.INTRA.norm>
-0.0904173

>  <SCORE.RESTR>
0

>  <SCORE.RESTR.CAVITY>
0

>  <SCORE.RESTR.norm>
0

>  <SCORE.SYSTEM>
0

>  <SCORE.SYSTEM.CONST>
0

>  <SCORE.SYSTEM.DIHEDRAL>
0

>  <SCORE.SYSTEM.SOLV>
0

>  <SCORE.SYSTEM.norm>
0

>  <SCORE.heavy>
10

>  <SCORE.norm>
-0.922293

>  <RMSD>
5.516

$$$$
ligand
 OpenBabel11021811473D
libRbt.so/2013.1/901 2013/11/27
 10  9  0  0  0  0  0  0  0  0999 V2000
   26.4125   15.9712   19.7219 N   0  0  0  0  0  0  0  0  0  0  0  0
   27.7038   15.4796   19.1636 C   0  0  2  0  0  0  0  0  0  0  0  0
   27.5282   14.9443   17.7495 C   0  0  0  0  0  0  0  0  0  0  0  0
   28.0555   15.4811   16.7741 O   0  0  0  0  0  0  0  0  0  0  0  0
   28.3217   14.4203   20.0734 C   0  0  0  0  0  0  0  0  0  0  0  0
   28.9703   15.0076   21.3056 C   0  0  0  0  0  0  0  0  0  0  0  0
   30.1537   15.8701   20.9569 C   0  0  0  0  0  0  0  0  0  0  0  0
   30.7817   16.4560   22.2093 C   0  0  0  0  0  0  0  0  0  0  0  0
   31.9065   17.3745   21.8936 N   0  0  0  0  0  0  0  0  0  0  0  0
   26.8700   13.9235   17.5431 O   0  0  0  0  0  0  0  0  0  0  0  0
  2  1  1  1  0  0  0
  2  3  1  0  0  0  0
  2  5  1  0  0  0  0
  3  4  1  0  0  0  0
  3 10  1  0  0  0  0
  5  6  1  0  0  0  0
  6  7  1  0  0  0  0
  7  8  1  0  0  0  0
  8  9  1  0  0  0  0
M  END
>  <CHROM.1>
114.73866122,-76.51148511,-64.94784885,179.60183252,-176.77497178,28.65971152
15.47830069,19.69919521,2.37428662,-0.47062229,-1.52903465

>  <Name>
ligand

>  <RI>
0

>  <Rbt.Current_Directory>
/home/itssahil/PROJECTS/Mol_Feturizer/New_Systems/rnas/3DIX

>  <Rbt.Executable>
rbdock ($Id: //depot/dev/client3/rdock/2013.1/src/exe/rbdock.cxx#4 $)

>  <Rbt.Library>
libRbt.so (2013.1, Build901 2013/11/27)

>  <Rbt.Parameter_File>
/export/apps/rDock/src/rDock_2013.1_src/data/scripts/dock_solv.prm

>  <Rbt.Receptor>
prm/pocket_docking_6.prm

>  <SCORE>
-8.4547

>  <SCORE.INTER>
-8.10049

>  <SCORE.INTER.CONST>
1

>  <SCORE.INTER.POLAR>
0

>  <SCORE.INTER.ROT>
5

>  <SCORE.INTER.SOLV>
15.2538

>  <SCORE.INTER.VDW>
-17.4183

>  <SCORE.INTER.norm>
-0.810049

>  <SCORE.INTRA>
-0.354213

>  <SCORE.INTRA.DIHEDRAL>
-0.57996

>  <SCORE.INTRA.DIHEDRAL.0>
3.281

>  <SCORE.INTRA.POLAR>
0

>  <SCORE.INTRA.POLAR.0>
0

>  <SCORE.INTRA.REPUL>
0

>  <SCORE.INTRA.REPUL.0>
0

>  <SCORE.INTRA.SOLV>
-0.443889

>  <SCORE.INTRA.SOLV.lig_0>
-31.9458

>  <SCORE.INTRA.VDW>
0.157712

>  <SCORE.INTRA.VDW.0>
-0.672612

>  <SCORE.INTRA.norm>
-0.0354213

>  <SCORE.RESTR>
0

>  <SCORE.RESTR.CAVITY>
0

>  <SCORE.RESTR.norm>
0

>  <SCORE.SYSTEM>
0

>  <SCORE.SYSTEM.CONST>
0

>  <SCORE.SYSTEM.DIHEDRAL>
0

>  <SCORE.SYSTEM.SOLV>
0

>  <SCORE.SYSTEM.norm>
0

>  <SCORE.heavy>
10

>  <SCORE.norm>
-0.84547

>  <RMSD>
5.516

$$$$
ligand
 OpenBabel11021811473D
libRbt.so/2013.1/901 2013/11/27
 10  9  0  0  0  0  0  0  0  0999 V2000
   26.8136   14.6046   20.1290 N   0  0  0  0  0  0  0  0  0  0  0  0
   27.1147   15.5866   19.0493 C   0  0  2  0  0  0  0  0  0  0  0  0
   27.7189   14.9027   17.8310 C   0  0  0  0  0  0  0  0  0  0  0  0
   27.7910   13.6767   17.7346 O   0  0  0  0  0  0  0  0  0  0  0  0
   28.0319   16.6946   19.5619 C   0  0  0  0  0  0  0  0  0  0  0  0
   29.3326   16.1696   20.1243 C   0  0  0  0  0  0  0  0  0  0  0  0
   30.1860   17.2759   20.6848 C   0  0  0  0  0  0  0  0  0  0  0  0
   31.4872   16.7245   21.2404 C   0  0  0  0  0  0  0  0  0  0  0  0
   32.3216   17.7836   21.8655 N   0  0  0  0  0  0  0  0  0  0  0  0
   28.1288   15.5675   16.8782 O   0  0  0  0  0  0  0  0  0  0  0  0
  2  1  1  1  0  0  0
  2  3  1  0  0  0  0
  2  5  1  0  0  0  0
  3  4  1  0  0  0  0
  3 10  1  0  0  0  0
  5  6  1  0  0  0  0
  6  7  1  0  0  0  0
  7  8  1  0  0  0  0
  8  9  1  0  0  0  0
M  END
>  <CHROM.1>
7.51032291,57.39808606,-177.11826471,-179.87078922,-177.01840296,28.89581959
15.87931740,19.47514576,2.41522819,-0.40932669,-1.80963903

>  <Name>
ligand

>  <RI>
0

>  <Rbt.Current_Directory>
/home/itssahil/PROJECTS/Mol_Feturizer/New_Systems/rnas/3DIX

>  <Rbt.Executable>
rbdock ($Id: //depot/dev/client3/rdock/2013.1/src/exe/rbdock.cxx#4 $)

>  <Rbt.Library>
libRbt.so (2013.1, Build901 2013/11/27)

>  <Rbt.Parameter_File>
/export/apps/rDock/src/rDock_2013.1_src/data/scripts/dock_solv.prm

>  <Rbt.Receptor>
prm/pocket_docking_4.prm

>  <SCORE>
-9.22988

>  <SCORE.INTER>
-8.34022

>  <SCORE.INTER.CONST>
1

>  <SCORE.INTER.POLAR>
0

>  <SCORE.INTER.ROT>
5

>  <SCORE.INTER.SOLV>
14.004

>  <SCORE.INTER.VDW>
-17.1615

>  <SCORE.INTER.norm>
-0.834022

>  <SCORE.INTRA>
-0.88966

>  <SCORE.INTRA.DIHEDRAL>
-1.71035

>  <SCORE.INTRA.DIHEDRAL.0>
3.281

>  <SCORE.INTRA.POLAR>
0

>  <SCORE.INTRA.POLAR.0>
0

>  <SCORE.INTRA.REPUL>
0

>  <SCORE.INTRA.REPUL.0>
0

>  <SCORE.INTRA.SOLV>
-0.597239

>  <SCORE.INTRA.SOLV.lig_0>
-31.9458

>  <SCORE.INTRA.VDW>
0.264137

>  <SCORE.INTRA.VDW.0>
-0.672612

>  <SCORE.INTRA.norm>
-0.088966

>  <SCORE.RESTR>
0

>  <SCORE.RESTR.CAVITY>
0

>  <SCORE.RESTR.norm>
0

>  <SCORE.SYSTEM>
0

>  <SCORE.SYSTEM.CONST>
0

>  <SCORE.SYSTEM.DIHEDRAL>
0

>  <SCORE.SYSTEM.SOLV>
0

>  <SCORE.SYSTEM.norm>
0

>  <SCORE.heavy>
10

>  <SCORE.norm>
-0.922988

>  <RMSD>
5.521

$$$$
ligand
 OpenBabel11021811473D
libRbt.so/2013.1/901 2013/11/27
 10  9  0  0  0  0  0  0  0  0999 V2000
   28.4190   14.2756   21.6179 N   0  0  0  0  0  0  0  0  0  0  0  0
   28.0372   15.4728   20.8169 C   0  0  2  0  0  0  0  0  0  0  0  0
   26.8879   15.1616   19.8686 C   0  0  0  0  0  0  0  0  0  0  0  0
   25.9110   15.9036   19.7551 O   0  0  0  0  0  0  0  0  0  0  0  0
   29.2397   16.0219   20.0524 C   0  0  0  0  0  0  0  0  0  0  0  0
   30.3963   16.3843   20.9550 C   0  0  0  0  0  0  0  0  0  0  0  0
   31.5843   16.8746   20.1713 C   0  0  0  0  0  0  0  0  0  0  0  0
   32.7414   17.2065   21.0971 C   0  0  0  0  0  0  0  0  0  0  0  0
   32.3976   18.2885   22.0561 N   0  0  0  0  0  0  0  0  0  0  0  0
   26.9199   14.1593   19.1528 O   0  0  0  0  0  0  0  0  0  0  0  0
  2  1  1  6  0  0  0
  2  3  1  0  0  0  0
  2  5  1  0  0  0  0
  3  4  1  0  0  0  0
  3 10  1  0  0  0  0
  5  6  1  0  0  0  0
  6  7  1  0  0  0  0
  7  8  1  0  0  0  0
  8  9  1  0  0  0  0
M  END
>  <CHROM.1>
133.50387957,-57.41779322,177.90610724,-178.89716190,-61.36740274,29.21623286
15.96361011,20.53111061,-2.88183887,-0.41185515,-0.47122032

>  <Name>
ligand

>  <RI>
0

>  <Rbt.Current_Directory>
/home/itssahil/PROJECTS/Mol_Feturizer/New_Systems/rnas/3DIX

>  <Rbt.Executable>
rbdock ($Id: //depot/dev/client3/rdock/2013.1/src/exe/rbdock.cxx#4 $)

>  <Rbt.Library>
libRbt.so (2013.1, Build901 2013/11/27)

>  <Rbt.Parameter_File>
/export/apps/rDock/src/rDock_2013.1_src/data/scripts/dock_solv.prm

>  <Rbt.Receptor>
prm/blind_docking_100.prm

>  <SCORE>
-7.24839

>  <SCORE.INTER>
-6.61362

>  <SCORE.INTER.CONST>
1

>  <SCORE.INTER.POLAR>
0

>  <SCORE.INTER.ROT>
5

>  <SCORE.INTER.SOLV>
15.7519

>  <SCORE.INTER.VDW>
-16.593

>  <SCORE.INTER.norm>
-0.661362

>  <SCORE.INTRA>
-0.634768

>  <SCORE.INTRA.DIHEDRAL>
-1.77834

>  <SCORE.INTRA.DIHEDRAL.0>
3.281

>  <SCORE.INTRA.POLAR>
0

>  <SCORE.INTRA.POLAR.0>
0

>  <SCORE.INTRA.REPUL>
0

>  <SCORE.INTRA.REPUL.0>
0

>  <SCORE.INTRA.SOLV>
0.36411

>  <SCORE.INTRA.SOLV.lig_0>
-31.9458

>  <SCORE.INTRA.VDW>
0.0723488

>  <SCORE.INTRA.VDW.0>
-0.672612

>  <SCORE.INTRA.norm>
-0.0634768

>  <SCORE.RESTR>
0

>  <SCORE.RESTR.CAVITY>
0

>  <SCORE.RESTR.norm>
0

>  <SCORE.SYSTEM>
0

>  <SCORE.SYSTEM.CONST>
0

>  <SCORE.SYSTEM.DIHEDRAL>
0

>  <SCORE.SYSTEM.SOLV>
0

>  <SCORE.SYSTEM.norm>
0

>  <SCORE.heavy>
10

>  <SCORE.norm>
-0.724839

>  <RMSD>
5.531

$$$$
ligand
 OpenBabel11021811473D
libRbt.so/2013.1/901 2013/11/27
 10  9  0  0  0  0  0  0  0  0999 V2000
   25.7600   15.3052   20.4027 N   0  0  0  0  0  0  0  0  0  0  0  0
   27.0024   15.8999   19.8340 C   0  0  2  0  0  0  0  0  0  0  0  0
   27.4111   15.2017   18.5446 C   0  0  0  0  0  0  0  0  0  0  0  0
   28.0432   15.7777   17.6578 O   0  0  0  0  0  0  0  0  0  0  0  0
   28.1380   15.8664   20.8542 C   0  0  0  0  0  0  0  0  0  0  0  0
   29.3810   16.5806   20.3759 C   0  0  0  0  0  0  0  0  0  0  0  0
   30.4866   16.5217   21.3959 C   0  0  0  0  0  0  0  0  0  0  0  0
   31.7249   17.2415   20.8912 C   0  0  0  0  0  0  0  0  0  0  0  0
   32.7955   17.3009   21.9202 N   0  0  0  0  0  0  0  0  0  0  0  0
   27.1450   14.0124   18.3644 O   0  0  0  0  0  0  0  0  0  0  0  0
  2  1  1  1  0  0  0
  2  3  1  0  0  0  0
  2  5  1  0  0  0  0
  3  4  1  0  0  0  0
  3 10  1  0  0  0  0
  5  6  1  0  0  0  0
  6  7  1  0  0  0  0
  7  8  1  0  0  0  0
  8  9  1  0  0  0  0
M  END
>  <CHROM.1>
151.88474054,-174.31660661,-179.52381913,179.82030341,175.16633823,28.78767232
15.95212389,19.98999870,2.62199403,-0.27449336,-1.81802096

>  <Name>
ligand

>  <RI>
0

>  <Rbt.Current_Directory>
/home/itssahil/PROJECTS/Mol_Feturizer/New_Systems/rnas/3DIX

>  <Rbt.Executable>
rbdock ($Id: //depot/dev/client3/rdock/2013.1/src/exe/rbdock.cxx#4 $)

>  <Rbt.Library>
libRbt.so (2013.1, Build901 2013/11/27)

>  <Rbt.Parameter_File>
/export/apps/rDock/src/rDock_2013.1_src/data/scripts/dock_solv.prm

>  <Rbt.Receptor>
prm/pocket_docking_7.prm

>  <SCORE>
-8.34102

>  <SCORE.INTER>
-6.6765

>  <SCORE.INTER.CONST>
1

>  <SCORE.INTER.POLAR>
0

>  <SCORE.INTER.ROT>
5

>  <SCORE.INTER.SOLV>
18.1533

>  <SCORE.INTER.VDW>
-17.4354

>  <SCORE.INTER.norm>
-0.66765

>  <SCORE.INTRA>
-1.66452

>  <SCORE.INTRA.DIHEDRAL>
-1.65388

>  <SCORE.INTRA.DIHEDRAL.0>
3.281

>  <SCORE.INTRA.POLAR>
0

>  <SCORE.INTRA.POLAR.0>
0

>  <SCORE.INTRA.REPUL>
0

>  <SCORE.INTRA.REPUL.0>
0

>  <SCORE.INTRA.SOLV>
-1.56597

>  <SCORE.INTRA.SOLV.lig_0>
-31.9458

>  <SCORE.INTRA.VDW>
-0.054589

>  <SCORE.INTRA.VDW.0>
-0.672612

>  <SCORE.INTRA.norm>
-0.166452

>  <SCORE.RESTR>
0

>  <SCORE.RESTR.CAVITY>
0

>  <SCORE.RESTR.norm>
0

>  <SCORE.SYSTEM>
0

>  <SCORE.SYSTEM.CONST>
0

>  <SCORE.SYSTEM.DIHEDRAL>
0

>  <SCORE.SYSTEM.SOLV>
0

>  <SCORE.SYSTEM.norm>
0

>  <SCORE.heavy>
10

>  <SCORE.norm>
-0.834102

>  <RMSD>
5.549

$$$$
ligand
 OpenBabel11021811473D
libRbt.so/2013.1/901 2013/11/27
 10  9  0  0  0  0  0  0  0  0999 V2000
   25.7898   15.3524   20.3372 N   0  0  0  0  0  0  0  0  0  0  0  0
   27.0497   15.9044   19.7639 C   0  0  2  0  0  0  0  0  0  0  0  0
   27.4438   15.1753   18.4871 C   0  0  0  0  0  0  0  0  0  0  0  0
   27.1507   13.9954   18.2877 O   0  0  0  0  0  0  0  0  0  0  0  0
   28.1806   15.8563   20.7889 C   0  0  0  0  0  0  0  0  0  0  0  0
   29.4496   16.5134   20.2974 C   0  0  0  0  0  0  0  0  0  0  0  0
   30.5371   16.4765   21.3377 C   0  0  0  0  0  0  0  0  0  0  0  0
   31.7993   17.1452   20.8224 C   0  0  0  0  0  0  0  0  0  0  0  0
   32.8701   17.1873   21.8521 N   0  0  0  0  0  0  0  0  0  0  0  0
   28.0477   15.7649   17.5897 O   0  0  0  0  0  0  0  0  0  0  0  0
  2  1  1  1  0  0  0
  2  3  1  0  0  0  0
  2  5  1  0  0  0  0
  3  4  1  0  0  0  0
  3 10  1  0  0  0  0
  5  6  1  0  0  0  0
  6  7  1  0  0  0  0
  7  8  1  0  0  0  0
  8  9  1  0  0  0  0
M  END
>  <CHROM.1>
-29.24176450,-175.05896257,178.81262782,-179.84763972,177.06117597,28.82979285
15.91857282,19.92203638,2.62419051,-0.25091086,-1.82424998

>  <Name>
ligand

>  <RI>
0

>  <Rbt.Current_Directory>
/home/itssahil/PROJECTS/Mol_Feturizer/New_Systems/rnas/3DIX

>  <Rbt.Executable>
rbdock ($Id: //depot/dev/client3/rdock/2013.1/src/exe/rbdock.cxx#4 $)

>  <Rbt.Library>
libRbt.so (2013.1, Build901 2013/11/27)

>  <Rbt.Parameter_File>
/export/apps/rDock/src/rDock_2013.1_src/data/scripts/dock_solv.prm

>  <Rbt.Receptor>
prm/blind_docking_80.prm

>  <SCORE>
-8.25627

>  <SCORE.INTER>
-6.63088

>  <SCORE.INTER.CONST>
1

>  <SCORE.INTER.POLAR>
0

>  <SCORE.INTER.ROT>
5

>  <SCORE.INTER.SOLV>
18.2195

>  <SCORE.INTER.VDW>
-17.4271

>  <SCORE.INTER.norm>
-0.663088

>  <SCORE.INTRA>
-1.62539

>  <SCORE.INTRA.DIHEDRAL>
-1.59709

>  <SCORE.INTRA.DIHEDRAL.0>
3.281

>  <SCORE.INTRA.POLAR>
0

>  <SCORE.INTRA.POLAR.0>
0

>  <SCORE.INTRA.REPUL>
0

>  <SCORE.INTRA.REPUL.0>
0

>  <SCORE.INTRA.SOLV>
-1.56957

>  <SCORE.INTRA.SOLV.lig_0>
-31.9458

>  <SCORE.INTRA.VDW>
-0.0420619

>  <SCORE.INTRA.VDW.0>
-0.672612

>  <SCORE.INTRA.norm>
-0.162539

>  <SCORE.RESTR>
0

>  <SCORE.RESTR.CAVITY>
0

>  <SCORE.RESTR.norm>
0

>  <SCORE.SYSTEM>
0

>  <SCORE.SYSTEM.CONST>
0

>  <SCORE.SYSTEM.DIHEDRAL>
0

>  <SCORE.SYSTEM.SOLV>
0

>  <SCORE.SYSTEM.norm>
0

>  <SCORE.heavy>
10

>  <SCORE.norm>
-0.825627

>  <RMSD>
5.551

$$$$
ligand
 OpenBabel11021811473D
libRbt.so/2013.1/901 2013/11/27
 10  9  0  0  0  0  0  0  0  0999 V2000
   25.7754   15.2245   20.4456 N   0  0  0  0  0  0  0  0  0  0  0  0
   27.0030   15.8457   19.8730 C   0  0  2  0  0  0  0  0  0  0  0  0
   27.4073   15.1735   18.5685 C   0  0  0  0  0  0  0  0  0  0  0  0
   27.1158   14.0038   18.3146 O   0  0  0  0  0  0  0  0  0  0  0  0
   28.1501   15.8125   20.8804 C   0  0  0  0  0  0  0  0  0  0  0  0
   29.3705   16.5689   20.4087 C   0  0  0  0  0  0  0  0  0  0  0  0
   30.4901   16.5051   21.4129 C   0  0  0  0  0  0  0  0  0  0  0  0
   31.7218   17.2258   20.8939 C   0  0  0  0  0  0  0  0  0  0  0  0
   32.8190   17.2505   21.8959 N   0  0  0  0  0  0  0  0  0  0  0  0
   28.0186   15.8020   17.7029 O   0  0  0  0  0  0  0  0  0  0  0  0
  2  1  1  1  0  0  0
  2  3  1  0  0  0  0
  2  5  1  0  0  0  0
  3  4  1  0  0  0  0
  3 10  1  0  0  0  0
  5  6  1  0  0  0  0
  6  7  1  0  0  0  0
  7  8  1  0  0  0  0
  8  9  1  0  0  0  0
M  END
>  <CHROM.1>
-26.43944675,-173.47300695,-179.29591516,177.80619053,176.60015610,28.78536917
15.92376259,20.00475262,2.63192923,-0.28701478,-1.79634031

>  <Name>
ligand

>  <RI>
0

>  <Rbt.Current_Directory>
/home/itssahil/PROJECTS/Mol_Feturizer/New_Systems/rnas/3DIX

>  <Rbt.Executable>
rbdock ($Id: //depot/dev/client3/rdock/2013.1/src/exe/rbdock.cxx#4 $)

>  <Rbt.Library>
libRbt.so (2013.1, Build901 2013/11/27)

>  <Rbt.Parameter_File>
/export/apps/rDock/src/rDock_2013.1_src/data/scripts/dock_solv.prm

>  <Rbt.Receptor>
prm/pocket_docking_8.prm

>  <SCORE>
-8.22766

>  <SCORE.INTER>
-6.61903

>  <SCORE.INTER.CONST>
1

>  <SCORE.INTER.POLAR>
0

>  <SCORE.INTER.ROT>
5

>  <SCORE.INTER.SOLV>
18.3202

>  <SCORE.INTER.VDW>
-17.4528

>  <SCORE.INTER.norm>
-0.661903

>  <SCORE.INTRA>
-1.60862

>  <SCORE.INTRA.DIHEDRAL>
-1.50235

>  <SCORE.INTRA.DIHEDRAL.0>
3.281

>  <SCORE.INTRA.POLAR>
0

>  <SCORE.INTRA.POLAR.0>
0

>  <SCORE.INTRA.REPUL>
0

>  <SCORE.INTRA.REPUL.0>
0

>  <SCORE.INTRA.SOLV>
-1.56744

>  <SCORE.INTRA.SOLV.lig_0>
-31.9458

>  <SCORE.INTRA.VDW>
-0.0737276

>  <SCORE.INTRA.VDW.0>
-0.672612

>  <SCORE.INTRA.norm>
-0.160862

>  <SCORE.RESTR>
0

>  <SCORE.RESTR.CAVITY>
0

>  <SCORE.RESTR.norm>
0

>  <SCORE.SYSTEM>
0

>  <SCORE.SYSTEM.CONST>
0

>  <SCORE.SYSTEM.DIHEDRAL>
0

>  <SCORE.SYSTEM.SOLV>
0

>  <SCORE.SYSTEM.norm>
0

>  <SCORE.heavy>
10

>  <SCORE.norm>
-0.822766

>  <RMSD>
5.551

$$$$
ligand
 OpenBabel11021811473D
libRbt.so/2013.1/901 2013/11/27
 10  9  0  0  0  0  0  0  0  0999 V2000
   27.1481   15.3345   20.2468 N   0  0  0  0  0  0  0  0  0  0  0  0
   28.0713   15.7011   19.1359 C   0  0  2  0  0  0  0  0  0  0  0  0
   27.6297   15.0771   17.8196 C   0  0  0  0  0  0  0  0  0  0  0  0
   28.0213   15.4974   16.7297 O   0  0  0  0  0  0  0  0  0  0  0  0
   29.5081   15.3065   19.4700 C   0  0  0  0  0  0  0  0  0  0  0  0
   30.1149   16.1592   20.5603 C   0  0  0  0  0  0  0  0  0  0  0  0
   31.5928   15.9119   20.7055 C   0  0  0  0  0  0  0  0  0  0  0  0
   32.1700   16.7440   21.8371 C   0  0  0  0  0  0  0  0  0  0  0  0
   32.0272   18.2022   21.5881 N   0  0  0  0  0  0  0  0  0  0  0  0
   26.8825   14.0977   17.8099 O   0  0  0  0  0  0  0  0  0  0  0  0
  2  1  1  1  0  0  0
  2  3  1  0  0  0  0
  2  5  1  0  0  0  0
  3  4  1  0  0  0  0
  3 10  1  0  0  0  0
  5  6  1  0  0  0  0
  6  7  1  0  0  0  0
  7  8  1  0  0  0  0
  8  9  1  0  0  0  0
M  END
>  <CHROM.1>
161.24829704,-70.36625964,-170.17600273,-178.06856791,-62.09973406,29.29737298
15.78588119,19.55357685,2.49127532,-0.40761976,-1.63195283

>  <Name>
ligand

>  <RI>
0

>  <Rbt.Current_Directory>
/home/itssahil/PROJECTS/Mol_Feturizer/New_Systems/rnas/3DIX

>  <Rbt.Executable>
rbdock ($Id: //depot/dev/client3/rdock/2013.1/src/exe/rbdock.cxx#4 $)

>  <Rbt.Library>
libRbt.so (2013.1, Build901 2013/11/27)

>  <Rbt.Parameter_File>
/export/apps/rDock/src/rDock_2013.1_src/data/scripts/dock_solv.prm

>  <Rbt.Receptor>
prm/blind_docking_100.prm

>  <SCORE>
-7.1936

>  <SCORE.INTER>
-6.77798

>  <SCORE.INTER.CONST>
1

>  <SCORE.INTER.POLAR>
0

>  <SCORE.INTER.ROT>
5

>  <SCORE.INTER.SOLV>
12.8818

>  <SCORE.INTER.VDW>
-15.7459

>  <SCORE.INTER.norm>
-0.677798

>  <SCORE.INTRA>
-0.415612

>  <SCORE.INTRA.DIHEDRAL>
-0.98591

>  <SCORE.INTRA.DIHEDRAL.0>
3.281

>  <SCORE.INTRA.POLAR>
0

>  <SCORE.INTRA.POLAR.0>
0

>  <SCORE.INTRA.REPUL>
0

>  <SCORE.INTRA.REPUL.0>
0

>  <SCORE.INTRA.SOLV>
0.143907

>  <SCORE.INTRA.SOLV.lig_0>
-31.9458

>  <SCORE.INTRA.VDW>
0.00538897

>  <SCORE.INTRA.VDW.0>
-0.672612

>  <SCORE.INTRA.norm>
-0.0415612

>  <SCORE.RESTR>
0

>  <SCORE.RESTR.CAVITY>
0

>  <SCORE.RESTR.norm>
0

>  <SCORE.SYSTEM>
0

>  <SCORE.SYSTEM.CONST>
0

>  <SCORE.SYSTEM.DIHEDRAL>
0

>  <SCORE.SYSTEM.SOLV>
0

>  <SCORE.SYSTEM.norm>
0

>  <SCORE.heavy>
10

>  <SCORE.norm>
-0.71936

>  <RMSD>
5.558

$$$$
ligand
 OpenBabel11021811473D
libRbt.so/2013.1/901 2013/11/27
 10  9  0  0  0  0  0  0  0  0999 V2000
   25.8032   15.3192   20.3790 N   0  0  0  0  0  0  0  0  0  0  0  0
   27.0290   15.8996   19.7616 C   0  0  2  0  0  0  0  0  0  0  0  0
   27.3956   15.1772   18.4728 C   0  0  0  0  0  0  0  0  0  0  0  0
   27.9748   15.7435   17.5447 O   0  0  0  0  0  0  0  0  0  0  0  0
   28.1957   15.8804   20.7467 C   0  0  0  0  0  0  0  0  0  0  0  0
   29.4523   16.5032   20.1839 C   0  0  0  0  0  0  0  0  0  0  0  0
   30.5732   16.5054   21.1888 C   0  0  0  0  0  0  0  0  0  0  0  0
   31.8393   17.0850   20.5830 C   0  0  0  0  0  0  0  0  0  0  0  0
   32.9447   17.1697   21.5728 N   0  0  0  0  0  0  0  0  0  0  0  0
   27.1482   13.9783   18.3343 O   0  0  0  0  0  0  0  0  0  0  0  0
  2  1  1  1  0  0  0
  2  3  1  0  0  0  0
  2  5  1  0  0  0  0
  3  4  1  0  0  0  0
  3 10  1  0  0  0  0
  5  6  1  0  0  0  0
  6  7  1  0  0  0  0
  7  8  1  0  0  0  0
  8  9  1  0  0  0  0
M  END
>  <CHROM.1>
150.21002452,-178.00656716,178.39948863,177.75130428,176.87484060,28.83330096
15.90717189,19.84316532,2.67100479,-0.25698473,-1.82383533

>  <Name>
ligand

>  <RI>
0

>  <Rbt.Current_Directory>
/home/itssahil/PROJECTS/Mol_Feturizer/New_Systems/rnas/3DIX

>  <Rbt.Executable>
rbdock ($Id: //depot/dev/client3/rdock/2013.1/src/exe/rbdock.cxx#4 $)

>  <Rbt.Library>
libRbt.so (2013.1, Build901 2013/11/27)

>  <Rbt.Parameter_File>
/export/apps/rDock/src/rDock_2013.1_src/data/scripts/dock_solv.prm

>  <Rbt.Receptor>
prm/blind_docking_100.prm

>  <SCORE>
-8.41731

>  <SCORE.INTER>
-6.75544

>  <SCORE.INTER.CONST>
1

>  <SCORE.INTER.POLAR>
0

>  <SCORE.INTER.ROT>
5

>  <SCORE.INTER.SOLV>
18.043

>  <SCORE.INTER.VDW>
-17.4513

>  <SCORE.INTER.norm>
-0.675544

>  <SCORE.INTRA>
-1.66187

>  <SCORE.INTRA.DIHEDRAL>
-1.77774

>  <SCORE.INTRA.DIHEDRAL.0>
3.281

>  <SCORE.INTRA.POLAR>
0

>  <SCORE.INTRA.POLAR.0>
0

>  <SCORE.INTRA.REPUL>
0

>  <SCORE.INTRA.REPUL.0>
0

>  <SCORE.INTRA.SOLV>
-1.57

>  <SCORE.INTRA.SOLV.lig_0>
-31.9458

>  <SCORE.INTRA.VDW>
0.0120023

>  <SCORE.INTRA.VDW.0>
-0.672612

>  <SCORE.INTRA.norm>
-0.166187

>  <SCORE.RESTR>
0

>  <SCORE.RESTR.CAVITY>
0

>  <SCORE.RESTR.norm>
0

>  <SCORE.SYSTEM>
0

>  <SCORE.SYSTEM.CONST>
0

>  <SCORE.SYSTEM.DIHEDRAL>
0

>  <SCORE.SYSTEM.SOLV>
0

>  <SCORE.SYSTEM.norm>
0

>  <SCORE.heavy>
10

>  <SCORE.norm>
-0.841731

>  <RMSD>
5.562

$$$$
ligand
 OpenBabel11021811473D
libRbt.so/2013.1/901 2013/11/27
 10  9  0  0  0  0  0  0  0  0999 V2000
   25.8102   15.3229   20.3665 N   0  0  0  0  0  0  0  0  0  0  0  0
   27.0370   15.9006   19.7485 C   0  0  2  0  0  0  0  0  0  0  0  0
   27.3910   15.1895   18.4500 C   0  0  0  0  0  0  0  0  0  0  0  0
   27.9618   15.7636   17.5214 O   0  0  0  0  0  0  0  0  0  0  0  0
   28.2089   15.8619   20.7268 C   0  0  0  0  0  0  0  0  0  0  0  0
   29.4572   16.5125   20.1769 C   0  0  0  0  0  0  0  0  0  0  0  0
   30.5917   16.4688   21.1654 C   0  0  0  0  0  0  0  0  0  0  0  0
   31.8415   17.1024   20.5801 C   0  0  0  0  0  0  0  0  0  0  0  0
   32.9473   17.1761   21.5703 N   0  0  0  0  0  0  0  0  0  0  0  0
   27.1416   13.9919   18.3033 O   0  0  0  0  0  0  0  0  0  0  0  0
  2  1  1  1  0  0  0
  2  3  1  0  0  0  0
  2  5  1  0  0  0  0
  3  4  1  0  0  0  0
  3 10  1  0  0  0  0
  5  6  1  0  0  0  0
  6  7  1  0  0  0  0
  7  8  1  0  0  0  0
  8  9  1  0  0  0  0
M  END
>  <CHROM.1>
149.73348064,-176.55171773,179.57447691,178.84055072,175.28946357,28.83623174
15.91030870,19.82709150,2.67185561,-0.26091254,-1.81056896

>  <Name>
ligand

>  <RI>
0

>  <Rbt.Current_Directory>
/home/itssahil/PROJECTS/Mol_Feturizer/New_Systems/rnas/3DIX

>  <Rbt.Executable>
rbdock ($Id: //depot/dev/client3/rdock/2013.1/src/exe/rbdock.cxx#4 $)

>  <Rbt.Library>
libRbt.so (2013.1, Build901 2013/11/27)

>  <Rbt.Parameter_File>
/export/apps/rDock/src/rDock_2013.1_src/data/scripts/dock_solv.prm

>  <Rbt.Receptor>
prm/pocket_docking_5.prm

>  <SCORE>
-8.4428

>  <SCORE.INTER>
-6.75909

>  <SCORE.INTER.CONST>
1

>  <SCORE.INTER.POLAR>
0

>  <SCORE.INTER.ROT>
5

>  <SCORE.INTER.SOLV>
18.0143

>  <SCORE.INTER.VDW>
-17.4442

>  <SCORE.INTER.norm>
-0.675909

>  <SCORE.INTRA>
-1.6837

>  <SCORE.INTRA.DIHEDRAL>
-1.7282

>  <SCORE.INTRA.DIHEDRAL.0>
3.281

>  <SCORE.INTRA.POLAR>
0

>  <SCORE.INTRA.POLAR.0>
0

>  <SCORE.INTRA.REPUL>
0

>  <SCORE.INTRA.REPUL.0>
0

>  <SCORE.INTRA.SOLV>
-1.56888

>  <SCORE.INTRA.SOLV.lig_0>
-31.9458

>  <SCORE.INTRA.VDW>
-0.0351667

>  <SCORE.INTRA.VDW.0>
-0.672612

>  <SCORE.INTRA.norm>
-0.16837

>  <SCORE.RESTR>
0

>  <SCORE.RESTR.CAVITY>
0

>  <SCORE.RESTR.norm>
0

>  <SCORE.SYSTEM>
0

>  <SCORE.SYSTEM.CONST>
0

>  <SCORE.SYSTEM.DIHEDRAL>
0

>  <SCORE.SYSTEM.SOLV>
0

>  <SCORE.SYSTEM.norm>
0

>  <SCORE.heavy>
10

>  <SCORE.norm>
-0.84428

>  <RMSD>
5.566

$$$$
ligand
 OpenBabel11021811473D
libRbt.so/2013.1/901 2013/11/27
 10  9  0  0  0  0  0  0  0  0999 V2000
   25.8216   15.2977   20.3757 N   0  0  0  0  0  0  0  0  0  0  0  0
   27.0459   15.8825   19.7593 C   0  0  2  0  0  0  0  0  0  0  0  0
   27.3923   15.1889   18.4494 C   0  0  0  0  0  0  0  0  0  0  0  0
   27.9806   15.7684   17.5351 O   0  0  0  0  0  0  0  0  0  0  0  0
   28.2227   15.8291   20.7309 C   0  0  0  0  0  0  0  0  0  0  0  0
   29.4704   16.4813   20.1814 C   0  0  0  0  0  0  0  0  0  0  0  0
   30.5986   16.4569   21.1778 C   0  0  0  0  0  0  0  0  0  0  0  0
   31.8529   17.0768   20.5874 C   0  0  0  0  0  0  0  0  0  0  0  0
   32.9558   17.1604   21.5800 N   0  0  0  0  0  0  0  0  0  0  0  0
   27.1186   13.9999   18.2783 O   0  0  0  0  0  0  0  0  0  0  0  0
  2  1  1  1  0  0  0
  2  3  1  0  0  0  0
  2  5  1  0  0  0  0
  3  4  1  0  0  0  0
  3 10  1  0  0  0  0
  5  6  1  0  0  0  0
  6  7  1  0  0  0  0
  7  8  1  0  0  0  0
  8  9  1  0  0  0  0
M  END
>  <CHROM.1>
151.07831632,-176.76861075,177.99208941,178.17006053,175.72434206,28.84316992
15.89588493,19.83143787,2.67422292,-0.26438133,-1.79826541

>  <Name>
ligand

>  <RI>
0

>  <Rbt.Current_Directory>
/home/itssahil/PROJECTS/Mol_Feturizer/New_Systems/rnas/3DIX

>  <Rbt.Executable>
rbdock ($Id: //depot/dev/client3/rdock/2013.1/src/exe/rbdock.cxx#4 $)

>  <Rbt.Library>
libRbt.so (2013.1, Build901 2013/11/27)

>  <Rbt.Parameter_File>
/export/apps/rDock/src/rDock_2013.1_src/data/scripts/dock_solv.prm

>  <Rbt.Receptor>
prm/pocket_docking_6.prm

>  <SCORE>
-8.42714

>  <SCORE.INTER>
-6.78575

>  <SCORE.INTER.CONST>
1

>  <SCORE.INTER.POLAR>
0

>  <SCORE.INTER.ROT>
5

>  <SCORE.INTER.SOLV>
18.0617

>  <SCORE.INTER.VDW>
-17.4777

>  <SCORE.INTER.norm>
-0.678575

>  <SCORE.INTRA>
-1.64139

>  <SCORE.INTRA.DIHEDRAL>
-1.72388

>  <SCORE.INTRA.DIHEDRAL.0>
3.281

>  <SCORE.INTRA.POLAR>
0

>  <SCORE.INTRA.POLAR.0>
0

>  <SCORE.INTRA.REPUL>
0

>  <SCORE.INTRA.REPUL.0>
0

>  <SCORE.INTRA.SOLV>
-1.56838

>  <SCORE.INTRA.SOLV.lig_0>
-31.9458

>  <SCORE.INTRA.VDW>
0.00473768

>  <SCORE.INTRA.VDW.0>
-0.672612

>  <SCORE.INTRA.norm>
-0.164139

>  <SCORE.RESTR>
0

>  <SCORE.RESTR.CAVITY>
0

>  <SCORE.RESTR.norm>
0

>  <SCORE.SYSTEM>
0

>  <SCORE.SYSTEM.CONST>
0

>  <SCORE.SYSTEM.DIHEDRAL>
0

>  <SCORE.SYSTEM.SOLV>
0

>  <SCORE.SYSTEM.norm>
0

>  <SCORE.heavy>
10

>  <SCORE.norm>
-0.842714

>  <RMSD>
5.566

$$$$
ligand
 OpenBabel11021811473D
libRbt.so/2013.1/901 2013/11/27
 10  9  0  0  0  0  0  0  0  0999 V2000
   25.8062   15.3055   20.3717 N   0  0  0  0  0  0  0  0  0  0  0  0
   27.0296   15.8925   19.7557 C   0  0  2  0  0  0  0  0  0  0  0  0
   27.3845   15.1916   18.4519 C   0  0  0  0  0  0  0  0  0  0  0  0
   27.9641   15.7706   17.5318 O   0  0  0  0  0  0  0  0  0  0  0  0
   28.2032   15.8522   20.7318 C   0  0  0  0  0  0  0  0  0  0  0  0
   29.4494   16.5069   20.1823 C   0  0  0  0  0  0  0  0  0  0  0  0
   30.5807   16.4764   21.1750 C   0  0  0  0  0  0  0  0  0  0  0  0
   31.8359   17.0913   20.5812 C   0  0  0  0  0  0  0  0  0  0  0  0
   32.9386   17.1795   21.5736 N   0  0  0  0  0  0  0  0  0  0  0  0
   27.1268   13.9975   18.2920 O   0  0  0  0  0  0  0  0  0  0  0  0
  2  1  1  1  0  0  0
  2  3  1  0  0  0  0
  2  5  1  0  0  0  0
  3  4  1  0  0  0  0
  3 10  1  0  0  0  0
  5  6  1  0  0  0  0
  6  7  1  0  0  0  0
  7  8  1  0  0  0  0
  8  9  1  0  0  0  0
M  END
>  <CHROM.1>
150.52301526,-176.77623046,178.88511739,177.81956059,175.23102817,28.82932321
15.90792557,19.83074650,2.67287211,-0.26398498,-1.80547194

>  <Name>
ligand

>  <RI>
0

>  <Rbt.Current_Directory>
/home/itssahil/PROJECTS/Mol_Feturizer/New_Systems/rnas/3DIX

>  <Rbt.Executable>
rbdock ($Id: //depot/dev/client3/rdock/2013.1/src/exe/rbdock.cxx#4 $)

>  <Rbt.Library>
libRbt.so (2013.1, Build901 2013/11/27)

>  <Rbt.Parameter_File>
/export/apps/rDock/src/rDock_2013.1_src/data/scripts/dock_solv.prm

>  <Rbt.Receptor>
prm/pocket_docking_5.prm

>  <SCORE>
-8.4214

>  <SCORE.INTER>
-6.77884

>  <SCORE.INTER.CONST>
1

>  <SCORE.INTER.POLAR>
0

>  <SCORE.INTER.ROT>
5

>  <SCORE.INTER.SOLV>
18.0198

>  <SCORE.INTER.VDW>
-17.4592

>  <SCORE.INTER.norm>
-0.677884

>  <SCORE.INTRA>
-1.64256

>  <SCORE.INTRA.DIHEDRAL>
-1.71305

>  <SCORE.INTRA.DIHEDRAL.0>
3.281

>  <SCORE.INTRA.POLAR>
0

>  <SCORE.INTRA.POLAR.0>
0

>  <SCORE.INTRA.REPUL>
0

>  <SCORE.INTRA.REPUL.0>
0

>  <SCORE.INTRA.SOLV>
-1.56845

>  <SCORE.INTRA.SOLV.lig_0>
-31.9458

>  <SCORE.INTRA.VDW>
-0.00181567

>  <SCORE.INTRA.VDW.0>
-0.672612

>  <SCORE.INTRA.norm>
-0.164256

>  <SCORE.RESTR>
0

>  <SCORE.RESTR.CAVITY>
0

>  <SCORE.RESTR.norm>
0

>  <SCORE.SYSTEM>
0

>  <SCORE.SYSTEM.CONST>
0

>  <SCORE.SYSTEM.DIHEDRAL>
0

>  <SCORE.SYSTEM.SOLV>
0

>  <SCORE.SYSTEM.norm>
0

>  <SCORE.heavy>
10

>  <SCORE.norm>
-0.84214

>  <RMSD>
5.567

$$$$
ligand
 OpenBabel11021811473D
libRbt.so/2013.1/901 2013/11/27
 10  9  0  0  0  0  0  0  0  0999 V2000
   25.8078   15.3057   20.4127 N   0  0  0  0  0  0  0  0  0  0  0  0
   27.0339   15.8686   19.7800 C   0  0  2  0  0  0  0  0  0  0  0  0
   27.3734   15.1421   18.4862 C   0  0  0  0  0  0  0  0  0  0  0  0
   27.9521   15.6997   17.5524 O   0  0  0  0  0  0  0  0  0  0  0  0
   28.2126   15.8316   20.7500 C   0  0  0  0  0  0  0  0  0  0  0  0
   29.4603   16.4710   20.1858 C   0  0  0  0  0  0  0  0  0  0  0  0
   30.6040   16.4225   21.1634 C   0  0  0  0  0  0  0  0  0  0  0  0
   31.8500   17.0536   20.5675 C   0  0  0  0  0  0  0  0  0  0  0  0
   32.9604   17.1364   21.5518 N   0  0  0  0  0  0  0  0  0  0  0  0
   27.1034   13.9479   18.3486 O   0  0  0  0  0  0  0  0  0  0  0  0
  2  1  1  1  0  0  0
  2  3  1  0  0  0  0
  2  5  1  0  0  0  0
  3  4  1  0  0  0  0
  3 10  1  0  0  0  0
  5  6  1  0  0  0  0
  6  7  1  0  0  0  0
  7  8  1  0  0  0  0
  8  9  1  0  0  0  0
M  END
>  <CHROM.1>
150.41332990,-176.40968574,179.89277545,179.24182636,174.65160560,28.83282668
15.86886301,19.84622101,2.67999324,-0.25757319,-1.81874841

>  <Name>
ligand

>  <RI>
0

>  <Rbt.Current_Directory>
/home/itssahil/PROJECTS/Mol_Feturizer/New_Systems/rnas/3DIX

>  <Rbt.Executable>
rbdock ($Id: //depot/dev/client3/rdock/2013.1/src/exe/rbdock.cxx#4 $)

>  <Rbt.Library>
libRbt.so (2013.1, Build901 2013/11/27)

>  <Rbt.Parameter_File>
/export/apps/rDock/src/rDock_2013.1_src/data/scripts/dock_solv.prm

>  <Rbt.Receptor>
prm/blind_docking_80.prm

>  <SCORE>
-8.36185

>  <SCORE.INTER>
-6.69305

>  <SCORE.INTER.CONST>
1

>  <SCORE.INTER.POLAR>
0

>  <SCORE.INTER.ROT>
5

>  <SCORE.INTER.SOLV>
18.1449

>  <SCORE.INTER.VDW>
-17.4437

>  <SCORE.INTER.norm>
-0.669305

>  <SCORE.INTRA>
-1.6688

>  <SCORE.INTRA.DIHEDRAL>
-1.70469

>  <SCORE.INTRA.DIHEDRAL.0>
3.281

>  <SCORE.INTRA.POLAR>
0

>  <SCORE.INTRA.POLAR.0>
0

>  <SCORE.INTRA.REPUL>
0

>  <SCORE.INTRA.REPUL.0>
0

>  <SCORE.INTRA.SOLV>
-1.56795

>  <SCORE.INTRA.SOLV.lig_0>
-31.9458

>  <SCORE.INTRA.VDW>
-0.0324786

>  <SCORE.INTRA.VDW.0>
-0.672612

>  <SCORE.INTRA.norm>
-0.16688

>  <SCORE.RESTR>
0

>  <SCORE.RESTR.CAVITY>
0

>  <SCORE.RESTR.norm>
0

>  <SCORE.SYSTEM>
0

>  <SCORE.SYSTEM.CONST>
0

>  <SCORE.SYSTEM.DIHEDRAL>
0

>  <SCORE.SYSTEM.SOLV>
0

>  <SCORE.SYSTEM.norm>
0

>  <SCORE.heavy>
10

>  <SCORE.norm>
-0.836185

>  <RMSD>
5.572

$$$$
ligand
 OpenBabel11021811473D
libRbt.so/2013.1/901 2013/11/27
 10  9  0  0  0  0  0  0  0  0999 V2000
   28.2462   15.5239   16.5935 N   0  0  0  0  0  0  0  0  0  0  0  0
   28.2567   14.5748   17.7424 C   0  0  2  0  0  0  0  0  0  0  0  0
   27.4387   13.3276   17.4383 C   0  0  0  0  0  0  0  0  0  0  0  0
   26.2386   13.3799   17.1652 O   0  0  0  0  0  0  0  0  0  0  0  0
   27.7579   15.2556   19.0150 C   0  0  0  0  0  0  0  0  0  0  0  0
   27.8908   14.3823   20.2412 C   0  0  0  0  0  0  0  0  0  0  0  0
   27.6652   15.1616   21.5092 C   0  0  0  0  0  0  0  0  0  0  0  0
   28.8317   16.0941   21.7839 C   0  0  0  0  0  0  0  0  0  0  0  0
   30.1026   15.3530   21.9942 N   0  0  0  0  0  0  0  0  0  0  0  0
   27.9714   12.2168   17.4245 O   0  0  0  0  0  0  0  0  0  0  0  0
  2  1  1  6  0  0  0
  2  3  1  0  0  0  0
  2  5  1  0  0  0  0
  3  4  1  0  0  0  0
  3 10  1  0  0  0  0
  5  6  1  0  0  0  0
  6  7  1  0  0  0  0
  7  8  1  0  0  0  0
  8  9  1  0  0  0  0
M  END
>  <CHROM.1>
-59.59392148,-173.71417861,168.21042895,-71.71114510,-62.43799497,28.02056674
14.49516085,19.07371139,-2.34743584,1.13906723,1.88702680

>  <Name>
ligand

>  <RI>
0

>  <Rbt.Current_Directory>
/home/itssahil/PROJECTS/Mol_Feturizer/New_Systems/rnas/3DIX

>  <Rbt.Executable>
rbdock ($Id: //depot/dev/client3/rdock/2013.1/src/exe/rbdock.cxx#4 $)

>  <Rbt.Library>
libRbt.so (2013.1, Build901 2013/11/27)

>  <Rbt.Parameter_File>
/export/apps/rDock/src/rDock_2013.1_src/data/scripts/dock_solv.prm

>  <Rbt.Receptor>
prm/blind_docking_60.prm

>  <SCORE>
-6.70165

>  <SCORE.INTER>
-6.95531

>  <SCORE.INTER.CONST>
1

>  <SCORE.INTER.POLAR>
0

>  <SCORE.INTER.ROT>
5

>  <SCORE.INTER.SOLV>
19.2114

>  <SCORE.INTER.VDW>
-17.974

>  <SCORE.INTER.norm>
-0.695531

>  <SCORE.INTRA>
0.253653

>  <SCORE.INTRA.DIHEDRAL>
-0.507208

>  <SCORE.INTRA.DIHEDRAL.0>
3.281

>  <SCORE.INTRA.POLAR>
0

>  <SCORE.INTRA.POLAR.0>
0

>  <SCORE.INTRA.REPUL>
0

>  <SCORE.INTRA.REPUL.0>
0

>  <SCORE.INTRA.SOLV>
-0.151442

>  <SCORE.INTRA.SOLV.lig_0>
-31.9458

>  <SCORE.INTRA.VDW>
0.582979

>  <SCORE.INTRA.VDW.0>
-0.672612

>  <SCORE.INTRA.norm>
0.0253653

>  <SCORE.RESTR>
0

>  <SCORE.RESTR.CAVITY>
0

>  <SCORE.RESTR.norm>
0

>  <SCORE.SYSTEM>
0

>  <SCORE.SYSTEM.CONST>
0

>  <SCORE.SYSTEM.DIHEDRAL>
0

>  <SCORE.SYSTEM.SOLV>
0

>  <SCORE.SYSTEM.norm>
0

>  <SCORE.heavy>
10

>  <SCORE.norm>
-0.670165

>  <RMSD>
5.576

$$$$
ligand
 OpenBabel11021811473D
libRbt.so/2013.1/901 2013/11/27
 10  9  0  0  0  0  0  0  0  0999 V2000
   26.1141   15.5120   20.3812 N   0  0  0  0  0  0  0  0  0  0  0  0
   27.4531   15.2450   19.7841 C   0  0  2  0  0  0  0  0  0  0  0  0
   27.3287   14.6205   18.4014 C   0  0  0  0  0  0  0  0  0  0  0  0
   26.8327   13.5065   18.2263 O   0  0  0  0  0  0  0  0  0  0  0  0
   28.2937   14.3637   20.7053 C   0  0  0  0  0  0  0  0  0  0  0  0
   29.0934   15.1579   21.7120 C   0  0  0  0  0  0  0  0  0  0  0  0
   30.1937   15.9469   21.0541 C   0  0  0  0  0  0  0  0  0  0  0  0
   31.0184   16.6899   22.0904 C   0  0  0  0  0  0  0  0  0  0  0  0
   32.1190   17.4739   21.4719 N   0  0  0  0  0  0  0  0  0  0  0  0
   27.6966   15.2368   17.4001 O   0  0  0  0  0  0  0  0  0  0  0  0
  2  1  1  1  0  0  0
  2  3  1  0  0  0  0
  2  5  1  0  0  0  0
  3  4  1  0  0  0  0
  3 10  1  0  0  0  0
  5  6  1  0  0  0  0
  6  7  1  0  0  0  0
  7  8  1  0  0  0  0
  8  9  1  0  0  0  0
M  END
>  <CHROM.1>
-64.70199588,-88.36767524,-68.85221406,-177.63742901,179.69592575,28.60313156
15.35864651,20.08488890,2.53428823,-0.46804982,-1.60137374

>  <Name>
ligand

>  <RI>
0

>  <Rbt.Current_Directory>
/home/itssahil/PROJECTS/Mol_Feturizer/New_Systems/rnas/3DIX

>  <Rbt.Executable>
rbdock ($Id: //depot/dev/client3/rdock/2013.1/src/exe/rbdock.cxx#4 $)

>  <Rbt.Library>
libRbt.so (2013.1, Build901 2013/11/27)

>  <Rbt.Parameter_File>
/export/apps/rDock/src/rDock_2013.1_src/data/scripts/dock_solv.prm

>  <Rbt.Receptor>
prm/pocket_docking_3.prm

>  <SCORE>
-7.59309

>  <SCORE.INTER>
-7.82635

>  <SCORE.INTER.CONST>
1

>  <SCORE.INTER.POLAR>
0

>  <SCORE.INTER.ROT>
5

>  <SCORE.INTER.SOLV>
15.8563

>  <SCORE.INTER.VDW>
-17.4363

>  <SCORE.INTER.norm>
-0.782635

>  <SCORE.INTRA>
0.233256

>  <SCORE.INTRA.DIHEDRAL>
1.21617

>  <SCORE.INTRA.DIHEDRAL.0>
3.281

>  <SCORE.INTRA.POLAR>
0

>  <SCORE.INTRA.POLAR.0>
0

>  <SCORE.INTRA.REPUL>
0

>  <SCORE.INTRA.REPUL.0>
0

>  <SCORE.INTRA.SOLV>
-0.694347

>  <SCORE.INTRA.SOLV.lig_0>
-31.9458

>  <SCORE.INTRA.VDW>
-0.0276576

>  <SCORE.INTRA.VDW.0>
-0.672612

>  <SCORE.INTRA.norm>
0.0233256

>  <SCORE.RESTR>
0

>  <SCORE.RESTR.CAVITY>
0

>  <SCORE.RESTR.norm>
0

>  <SCORE.SYSTEM>
0

>  <SCORE.SYSTEM.CONST>
0

>  <SCORE.SYSTEM.DIHEDRAL>
0

>  <SCORE.SYSTEM.SOLV>
0

>  <SCORE.SYSTEM.norm>
0

>  <SCORE.heavy>
10

>  <SCORE.norm>
-0.759309

>  <RMSD>
5.576

$$$$
ligand
 OpenBabel11021811473D
libRbt.so/2013.1/901 2013/11/27
 10  9  0  0  0  0  0  0  0  0999 V2000
   27.1467   15.6876   20.2549 N   0  0  0  0  0  0  0  0  0  0  0  0
   28.1185   15.8402   19.1355 C   0  0  2  0  0  0  0  0  0  0  0  0
   27.6511   15.0990   17.8909 C   0  0  0  0  0  0  0  0  0  0  0  0
   27.9913   15.4400   16.7570 O   0  0  0  0  0  0  0  0  0  0  0  0
   29.5104   15.3735   19.5559 C   0  0  0  0  0  0  0  0  0  0  0  0
   30.3230   16.4637   20.2155 C   0  0  0  0  0  0  0  0  0  0  0  0
   31.7456   16.0331   20.4544 C   0  0  0  0  0  0  0  0  0  0  0  0
   32.5951   17.2069   20.9090 C   0  0  0  0  0  0  0  0  0  0  0  0
   32.0815   17.8162   22.1634 N   0  0  0  0  0  0  0  0  0  0  0  0
   26.9347   14.1014   17.9876 O   0  0  0  0  0  0  0  0  0  0  0  0
  2  1  1  1  0  0  0
  2  3  1  0  0  0  0
  2  5  1  0  0  0  0
  3  4  1  0  0  0  0
  3 10  1  0  0  0  0
  5  6  1  0  0  0  0
  6  7  1  0  0  0  0
  7  8  1  0  0  0  0
  8  9  1  0  0  0  0
M  END
>  <CHROM.1>
153.58394152,-87.19271714,-172.48308275,170.94863467,59.19703744,29.38964878
15.88617063,19.49782959,2.47632492,-0.24798370,-1.85327884

>  <Name>
ligand

>  <RI>
0

>  <Rbt.Current_Directory>
/home/itssahil/PROJECTS/Mol_Feturizer/New_Systems/rnas/3DIX

>  <Rbt.Executable>
rbdock ($Id: //depot/dev/client3/rdock/2013.1/src/exe/rbdock.cxx#4 $)

>  <Rbt.Library>
libRbt.so (2013.1, Build901 2013/11/27)

>  <Rbt.Parameter_File>
/export/apps/rDock/src/rDock_2013.1_src/data/scripts/dock_solv.prm

>  <Rbt.Receptor>
prm/pocket_docking_8.prm

>  <SCORE>
-7.22519

>  <SCORE.INTER>
-7.72481

>  <SCORE.INTER.CONST>
1

>  <SCORE.INTER.POLAR>
0

>  <SCORE.INTER.ROT>
5

>  <SCORE.INTER.SOLV>
12.3039

>  <SCORE.INTER.VDW>
-16.1845

>  <SCORE.INTER.norm>
-0.772481

>  <SCORE.INTRA>
0.499623

>  <SCORE.INTRA.DIHEDRAL>
1.22061

>  <SCORE.INTRA.DIHEDRAL.0>
3.281

>  <SCORE.INTRA.POLAR>
0

>  <SCORE.INTRA.POLAR.0>
0

>  <SCORE.INTRA.REPUL>
0

>  <SCORE.INTRA.REPUL.0>
0

>  <SCORE.INTRA.SOLV>
-0.0720598

>  <SCORE.INTRA.SOLV.lig_0>
-31.9458

>  <SCORE.INTRA.VDW>
-0.0746538

>  <SCORE.INTRA.VDW.0>
-0.672612

>  <SCORE.INTRA.norm>
0.0499623

>  <SCORE.RESTR>
0

>  <SCORE.RESTR.CAVITY>
0

>  <SCORE.RESTR.norm>
0

>  <SCORE.SYSTEM>
0

>  <SCORE.SYSTEM.CONST>
0

>  <SCORE.SYSTEM.DIHEDRAL>
0

>  <SCORE.SYSTEM.SOLV>
0

>  <SCORE.SYSTEM.norm>
0

>  <SCORE.heavy>
10

>  <SCORE.norm>
-0.722519

>  <RMSD>
5.582

$$$$
ligand
 OpenBabel11021811473D
libRbt.so/2013.1/901 2013/11/27
 10  9  0  0  0  0  0  0  0  0999 V2000
   27.2378   15.6463   20.3630 N   0  0  0  0  0  0  0  0  0  0  0  0
   28.1488   15.7957   19.1932 C   0  0  2  0  0  0  0  0  0  0  0  0
   27.6357   15.0195   17.9885 C   0  0  0  0  0  0  0  0  0  0  0  0
   27.9051   15.3482   16.8323 O   0  0  0  0  0  0  0  0  0  0  0  0
   29.5697   15.3664   19.5519 C   0  0  0  0  0  0  0  0  0  0  0  0
   30.3671   16.4651   20.2160 C   0  0  0  0  0  0  0  0  0  0  0  0
   31.7958   16.0537   20.4523 C   0  0  0  0  0  0  0  0  0  0  0  0
   32.6298   17.2384   20.9074 C   0  0  0  0  0  0  0  0  0  0  0  0
   32.1195   17.8284   22.1724 N   0  0  0  0  0  0  0  0  0  0  0  0
   26.9531   14.0052   18.1410 O   0  0  0  0  0  0  0  0  0  0  0  0
  2  1  1  1  0  0  0
  2  3  1  0  0  0  0
  2  5  1  0  0  0  0
  3  4  1  0  0  0  0
  3 10  1  0  0  0  0
  5  6  1  0  0  0  0
  6  7  1  0  0  0  0
  7  8  1  0  0  0  0
  8  9  1  0  0  0  0
M  END
>  <CHROM.1>
153.16663062,-84.10428911,-175.17161880,170.76290692,59.90424231,29.41496413
15.85572809,19.54827519,2.48979343,-0.26611896,-1.85891285

>  <Name>
ligand

>  <RI>
0

>  <Rbt.Current_Directory>
/home/itssahil/PROJECTS/Mol_Feturizer/New_Systems/rnas/3DIX

>  <Rbt.Executable>
rbdock ($Id: //depot/dev/client3/rdock/2013.1/src/exe/rbdock.cxx#4 $)

>  <Rbt.Library>
libRbt.so (2013.1, Build901 2013/11/27)

>  <Rbt.Parameter_File>
/export/apps/rDock/src/rDock_2013.1_src/data/scripts/dock_solv.prm

>  <Rbt.Receptor>
prm/pocket_docking_4.prm

>  <SCORE>
-7.13201

>  <SCORE.INTER>
-7.35957

>  <SCORE.INTER.CONST>
1

>  <SCORE.INTER.POLAR>
0

>  <SCORE.INTER.ROT>
5

>  <SCORE.INTER.SOLV>
12.0932

>  <SCORE.INTER.VDW>
-15.8708

>  <SCORE.INTER.norm>
-0.735957

>  <SCORE.INTRA>
0.227567

>  <SCORE.INTRA.DIHEDRAL>
0.63903

>  <SCORE.INTRA.DIHEDRAL.0>
3.281

>  <SCORE.INTRA.POLAR>
0

>  <SCORE.INTRA.POLAR.0>
0

>  <SCORE.INTRA.REPUL>
0

>  <SCORE.INTRA.REPUL.0>
0

>  <SCORE.INTRA.SOLV>
-0.0285925

>  <SCORE.INTRA.SOLV.lig_0>
-31.9458

>  <SCORE.INTRA.VDW>
-0.0776516

>  <SCORE.INTRA.VDW.0>
-0.672612

>  <SCORE.INTRA.norm>
0.0227567

>  <SCORE.RESTR>
0

>  <SCORE.RESTR.CAVITY>
0

>  <SCORE.RESTR.norm>
0

>  <SCORE.SYSTEM>
0

>  <SCORE.SYSTEM.CONST>
0

>  <SCORE.SYSTEM.DIHEDRAL>
0

>  <SCORE.SYSTEM.SOLV>
0

>  <SCORE.SYSTEM.norm>
0

>  <SCORE.heavy>
10

>  <SCORE.norm>
-0.713201

>  <RMSD>
5.584

$$$$
ligand
 OpenBabel11021811473D
libRbt.so/2013.1/901 2013/11/27
 10  9  0  0  0  0  0  0  0  0999 V2000
   27.1940   15.7293   20.2623 N   0  0  0  0  0  0  0  0  0  0  0  0
   28.1567   15.8490   19.1312 C   0  0  2  0  0  0  0  0  0  0  0  0
   27.6771   15.0757   17.9110 C   0  0  0  0  0  0  0  0  0  0  0  0
   26.9300   14.1005   18.0036 O   0  0  0  0  0  0  0  0  0  0  0  0
   29.5509   15.3901   19.5526 C   0  0  0  0  0  0  0  0  0  0  0  0
   30.3591   16.4862   20.2076 C   0  0  0  0  0  0  0  0  0  0  0  0
   31.7739   16.0503   20.4805 C   0  0  0  0  0  0  0  0  0  0  0  0
   32.6354   17.2348   20.8813 C   0  0  0  0  0  0  0  0  0  0  0  0
   32.1619   17.8708   22.1382 N   0  0  0  0  0  0  0  0  0  0  0  0
   28.0019   15.4304   16.7767 O   0  0  0  0  0  0  0  0  0  0  0  0
  2  1  1  1  0  0  0
  2  3  1  0  0  0  0
  2  5  1  0  0  0  0
  3  4  1  0  0  0  0
  3 10  1  0  0  0  0
  5  6  1  0  0  0  0
  6  7  1  0  0  0  0
  7  8  1  0  0  0  0
  8  9  1  0  0  0  0
M  END
>  <CHROM.1>
-26.30323331,-85.72877165,-173.99483637,168.89726218,62.22376584,29.42314365
15.90174708,19.50014605,2.47991977,-0.24676194,-1.86478873

>  <Name>
ligand

>  <RI>
0

>  <Rbt.Current_Directory>
/home/itssahil/PROJECTS/Mol_Feturizer/New_Systems/rnas/3DIX

>  <Rbt.Executable>
rbdock ($Id: //depot/dev/client3/rdock/2013.1/src/exe/rbdock.cxx#4 $)

>  <Rbt.Library>
libRbt.so (2013.1, Build901 2013/11/27)

>  <Rbt.Parameter_File>
/export/apps/rDock/src/rDock_2013.1_src/data/scripts/dock_solv.prm

>  <Rbt.Receptor>
prm/pocket_docking_7.prm

>  <SCORE>
-7.13267

>  <SCORE.INTER>
-7.57045

>  <SCORE.INTER.CONST>
1

>  <SCORE.INTER.POLAR>
0

>  <SCORE.INTER.ROT>
5

>  <SCORE.INTER.SOLV>
12.3462

>  <SCORE.INTER.VDW>
-16.0957

>  <SCORE.INTER.norm>
-0.757045

>  <SCORE.INTRA>
0.437781

>  <SCORE.INTRA.DIHEDRAL>
1.23598

>  <SCORE.INTRA.DIHEDRAL.0>
3.281

>  <SCORE.INTRA.POLAR>
0

>  <SCORE.INTRA.POLAR.0>
0

>  <SCORE.INTRA.REPUL>
0

>  <SCORE.INTRA.REPUL.0>
0

>  <SCORE.INTRA.SOLV>
-0.0979639

>  <SCORE.INTRA.SOLV.lig_0>
-31.9458

>  <SCORE.INTRA.VDW>
-0.131227

>  <SCORE.INTRA.VDW.0>
-0.672612

>  <SCORE.INTRA.norm>
0.0437781

>  <SCORE.RESTR>
0

>  <SCORE.RESTR.CAVITY>
0

>  <SCORE.RESTR.norm>
0

>  <SCORE.SYSTEM>
0

>  <SCORE.SYSTEM.CONST>
0

>  <SCORE.SYSTEM.DIHEDRAL>
0

>  <SCORE.SYSTEM.SOLV>
0

>  <SCORE.SYSTEM.norm>
0

>  <SCORE.heavy>
10

>  <SCORE.norm>
-0.713267

>  <RMSD>
5.585

$$$$
ligand
 OpenBabel11021811473D
libRbt.so/2013.1/901 2013/11/27
 10  9  0  0  0  0  0  0  0  0999 V2000
   25.7948   15.3159   20.3886 N   0  0  0  0  0  0  0  0  0  0  0  0
   27.0323   15.8356   19.7412 C   0  0  2  0  0  0  0  0  0  0  0  0
   27.3700   15.0510   18.4813 C   0  0  0  0  0  0  0  0  0  0  0  0
   27.8949   15.5791   17.4998 O   0  0  0  0  0  0  0  0  0  0  0  0
   28.2045   15.8237   20.7199 C   0  0  0  0  0  0  0  0  0  0  0  0
   29.4521   16.4604   20.1527 C   0  0  0  0  0  0  0  0  0  0  0  0
   30.5669   16.5027   21.1635 C   0  0  0  0  0  0  0  0  0  0  0  0
   31.8309   17.0771   20.5486 C   0  0  0  0  0  0  0  0  0  0  0  0
   32.9122   17.2513   21.5531 N   0  0  0  0  0  0  0  0  0  0  0  0
   27.1541   13.8395   18.4207 O   0  0  0  0  0  0  0  0  0  0  0  0
  2  1  1  1  0  0  0
  2  3  1  0  0  0  0
  2  5  1  0  0  0  0
  3  4  1  0  0  0  0
  3 10  1  0  0  0  0
  5  6  1  0  0  0  0
  6  7  1  0  0  0  0
  7  8  1  0  0  0  0
  8  9  1  0  0  0  0
M  END
>  <CHROM.1>
146.26919258,-174.65705940,176.87387472,176.93491275,174.62568168,28.81837985
15.85298247,19.83400654,2.66061981,-0.26243904,-1.86208291

>  <Name>
ligand

>  <RI>
0

>  <Rbt.Current_Directory>
/home/itssahil/PROJECTS/Mol_Feturizer/New_Systems/rnas/3DIX

>  <Rbt.Executable>
rbdock ($Id: //depot/dev/client3/rdock/2013.1/src/exe/rbdock.cxx#4 $)

>  <Rbt.Library>
libRbt.so (2013.1, Build901 2013/11/27)

>  <Rbt.Parameter_File>
/export/apps/rDock/src/rDock_2013.1_src/data/scripts/dock_solv.prm

>  <Rbt.Receptor>
prm/pocket_docking_4.prm

>  <SCORE>
-8.31894

>  <SCORE.INTER>
-6.65956

>  <SCORE.INTER.CONST>
1

>  <SCORE.INTER.POLAR>
0

>  <SCORE.INTER.ROT>
5

>  <SCORE.INTER.SOLV>
17.8737

>  <SCORE.INTER.VDW>
-17.3309

>  <SCORE.INTER.norm>
-0.665956

>  <SCORE.INTRA>
-1.65938

>  <SCORE.INTRA.DIHEDRAL>
-1.56549

>  <SCORE.INTRA.DIHEDRAL.0>
3.281

>  <SCORE.INTRA.POLAR>
0

>  <SCORE.INTRA.POLAR.0>
0

>  <SCORE.INTRA.REPUL>
0

>  <SCORE.INTRA.REPUL.0>
0

>  <SCORE.INTRA.SOLV>
-1.56948

>  <SCORE.INTRA.SOLV.lig_0>
-31.9458

>  <SCORE.INTRA.VDW>
-0.0919022

>  <SCORE.INTRA.VDW.0>
-0.672612

>  <SCORE.INTRA.norm>
-0.165938

>  <SCORE.RESTR>
0

>  <SCORE.RESTR.CAVITY>
0

>  <SCORE.RESTR.norm>
0

>  <SCORE.SYSTEM>
0

>  <SCORE.SYSTEM.CONST>
0

>  <SCORE.SYSTEM.DIHEDRAL>
0

>  <SCORE.SYSTEM.SOLV>
0

>  <SCORE.SYSTEM.norm>
0

>  <SCORE.heavy>
10

>  <SCORE.norm>
-0.831894

>  <RMSD>
5.589

$$$$
ligand
 OpenBabel11021811473D
libRbt.so/2013.1/901 2013/11/27
 10  9  0  0  0  0  0  0  0  0999 V2000
   28.5132   14.8957   18.9336 N   0  0  0  0  0  0  0  0  0  0  0  0
   28.0869   15.1214   20.3436 C   0  0  2  0  0  0  0  0  0  0  0  0
   26.5755   15.2685   20.4488 C   0  0  0  0  0  0  0  0  0  0  0  0
   25.9091   15.8364   19.5821 O   0  0  0  0  0  0  0  0  0  0  0  0
   28.7944   16.3372   20.9379 C   0  0  0  0  0  0  0  0  0  0  0  0
   30.2964   16.1782   20.9888 C   0  0  0  0  0  0  0  0  0  0  0  0
   30.9692   17.4033   21.5481 C   0  0  0  0  0  0  0  0  0  0  0  0
   32.4800   17.2600   21.4959 C   0  0  0  0  0  0  0  0  0  0  0  0
   33.1746   18.4839   21.9737 N   0  0  0  0  0  0  0  0  0  0  0  0
   25.9639   14.7863   21.4034 O   0  0  0  0  0  0  0  0  0  0  0  0
  2  1  1  6  0  0  0
  2  3  1  0  0  0  0
  2  5  1  0  0  0  0
  3  4  1  0  0  0  0
  3 10  1  0  0  0  0
  5  6  1  0  0  0  0
  6  7  1  0  0  0  0
  7  8  1  0  0  0  0
  8  9  1  0  0  0  0
M  END
>  <CHROM.1>
-36.29727091,-61.75288833,178.64219708,-175.89443014,176.92242455,29.03081686
16.15338015,20.76558518,-2.77172924,0.27231502,1.11458122

>  <Name>
ligand

>  <RI>
0

>  <Rbt.Current_Directory>
/home/itssahil/PROJECTS/Mol_Feturizer/New_Systems/rnas/3DIX

>  <Rbt.Executable>
rbdock ($Id: //depot/dev/client3/rdock/2013.1/src/exe/rbdock.cxx#4 $)

>  <Rbt.Library>
libRbt.so (2013.1, Build901 2013/11/27)

>  <Rbt.Parameter_File>
/export/apps/rDock/src/rDock_2013.1_src/data/scripts/dock_solv.prm

>  <Rbt.Receptor>
prm/pocket_docking_5.prm

>  <SCORE>
-9.53487

>  <SCORE.INTER>
-8.24067

>  <SCORE.INTER.CONST>
1

>  <SCORE.INTER.POLAR>
0

>  <SCORE.INTER.ROT>
5

>  <SCORE.INTER.SOLV>
12.6754

>  <SCORE.INTER.VDW>
-16.6522

>  <SCORE.INTER.norm>
-0.824067

>  <SCORE.INTRA>
-1.29421

>  <SCORE.INTRA.DIHEDRAL>
-1.59775

>  <SCORE.INTRA.DIHEDRAL.0>
3.281

>  <SCORE.INTRA.POLAR>
0

>  <SCORE.INTRA.POLAR.0>
0

>  <SCORE.INTRA.REPUL>
0

>  <SCORE.INTRA.REPUL.0>
0

>  <SCORE.INTRA.SOLV>
-0.655934

>  <SCORE.INTRA.SOLV.lig_0>
-31.9458

>  <SCORE.INTRA.VDW>
-0.167365

>  <SCORE.INTRA.VDW.0>
-0.672612

>  <SCORE.INTRA.norm>
-0.129421

>  <SCORE.RESTR>
0

>  <SCORE.RESTR.CAVITY>
0

>  <SCORE.RESTR.norm>
0

>  <SCORE.SYSTEM>
0

>  <SCORE.SYSTEM.CONST>
0

>  <SCORE.SYSTEM.DIHEDRAL>
0

>  <SCORE.SYSTEM.SOLV>
0

>  <SCORE.SYSTEM.norm>
0

>  <SCORE.heavy>
10

>  <SCORE.norm>
-0.953487

>  <RMSD>
5.595

$$$$
ligand
 OpenBabel11021811473D
libRbt.so/2013.1/901 2013/11/27
 10  9  0  0  0  0  0  0  0  0999 V2000
   26.2263   14.9720   20.5279 N   0  0  0  0  0  0  0  0  0  0  0  0
   26.8037   15.5210   19.2686 C   0  0  2  0  0  0  0  0  0  0  0  0
   27.3932   14.4171   18.4019 C   0  0  0  0  0  0  0  0  0  0  0  0
   26.9614   14.1650   17.2760 O   0  0  0  0  0  0  0  0  0  0  0  0
   27.8492   16.5920   19.5710 C   0  0  0  0  0  0  0  0  0  0  0  0
   28.9473   16.1016   20.4862 C   0  0  0  0  0  0  0  0  0  0  0  0
   29.9660   17.1752   20.7619 C   0  0  0  0  0  0  0  0  0  0  0  0
   31.0697   16.6523   21.6643 C   0  0  0  0  0  0  0  0  0  0  0  0
   32.1019   17.6851   21.9411 N   0  0  0  0  0  0  0  0  0  0  0  0
   28.3557   13.7571   18.7966 O   0  0  0  0  0  0  0  0  0  0  0  0
  2  1  1  1  0  0  0
  2  3  1  0  0  0  0
  2  5  1  0  0  0  0
  3  4  1  0  0  0  0
  3 10  1  0  0  0  0
  5  6  1  0  0  0  0
  6  7  1  0  0  0  0
  7  8  1  0  0  0  0
  8  9  1  0  0  0  0
M  END
>  <CHROM.1>
117.76515336,55.39342184,179.74523626,-179.08045438,179.25833578,28.57122793
15.67462685,19.84317786,2.35520508,-0.01471566,-2.28764291

>  <Name>
ligand

>  <RI>
0

>  <Rbt.Current_Directory>
/home/itssahil/PROJECTS/Mol_Feturizer/New_Systems/rnas/3DIX

>  <Rbt.Executable>
rbdock ($Id: //depot/dev/client3/rdock/2013.1/src/exe/rbdock.cxx#4 $)

>  <Rbt.Library>
libRbt.so (2013.1, Build901 2013/11/27)

>  <Rbt.Parameter_File>
/export/apps/rDock/src/rDock_2013.1_src/data/scripts/dock_solv.prm

>  <Rbt.Receptor>
prm/pocket_docking_5.prm

>  <SCORE>
-8.55293

>  <SCORE.INTER>
-7.664

>  <SCORE.INTER.CONST>
1

>  <SCORE.INTER.POLAR>
0

>  <SCORE.INTER.ROT>
5

>  <SCORE.INTER.SOLV>
15.8199

>  <SCORE.INTER.VDW>
-17.316

>  <SCORE.INTER.norm>
-0.7664

>  <SCORE.INTRA>
-0.888921

>  <SCORE.INTRA.DIHEDRAL>
-1.67751

>  <SCORE.INTRA.DIHEDRAL.0>
3.281

>  <SCORE.INTRA.POLAR>
0

>  <SCORE.INTRA.POLAR.0>
0

>  <SCORE.INTRA.REPUL>
0

>  <SCORE.INTRA.REPUL.0>
0

>  <SCORE.INTRA.SOLV>
-0.608359

>  <SCORE.INTRA.SOLV.lig_0>
-31.9458

>  <SCORE.INTRA.VDW>
0.254013

>  <SCORE.INTRA.VDW.0>
-0.672612

>  <SCORE.INTRA.norm>
-0.0888921

>  <SCORE.RESTR>
0

>  <SCORE.RESTR.CAVITY>
0

>  <SCORE.RESTR.norm>
0

>  <SCORE.SYSTEM>
0

>  <SCORE.SYSTEM.CONST>
0

>  <SCORE.SYSTEM.DIHEDRAL>
0

>  <SCORE.SYSTEM.SOLV>
0

>  <SCORE.SYSTEM.norm>
0

>  <SCORE.heavy>
10

>  <SCORE.norm>
-0.855293

>  <RMSD>
5.596

$$$$
ligand
 OpenBabel11021811473D
libRbt.so/2013.1/901 2013/11/27
 10  9  0  0  0  0  0  0  0  0999 V2000
   28.4745   15.0276   18.8760 N   0  0  0  0  0  0  0  0  0  0  0  0
   28.0797   15.1344   20.3090 C   0  0  2  0  0  0  0  0  0  0  0  0
   26.5689   15.2403   20.4612 C   0  0  0  0  0  0  0  0  0  0  0  0
   25.9713   14.7636   21.4273 O   0  0  0  0  0  0  0  0  0  0  0  0
   28.7780   16.3156   20.9791 C   0  0  0  0  0  0  0  0  0  0  0  0
   30.2842   16.1926   20.9689 C   0  0  0  0  0  0  0  0  0  0  0  0
   30.9462   17.3824   21.6112 C   0  0  0  0  0  0  0  0  0  0  0  0
   32.4582   17.2502   21.5613 C   0  0  0  0  0  0  0  0  0  0  0  0
   33.1423   18.4263   22.1592 N   0  0  0  0  0  0  0  0  0  0  0  0
   25.8956   15.8444   19.6249 O   0  0  0  0  0  0  0  0  0  0  0  0
  2  1  1  6  0  0  0
  2  3  1  0  0  0  0
  2  5  1  0  0  0  0
  3  4  1  0  0  0  0
  3 10  1  0  0  0  0
  5  6  1  0  0  0  0
  6  7  1  0  0  0  0
  7  8  1  0  0  0  0
  8  9  1  0  0  0  0
M  END
>  <CHROM.1>
146.98932144,-61.14893152,178.88181557,-178.74132661,178.62275919,29.01455943
16.15413720,20.79860353,-2.78151612,0.29191215,1.19751346

>  <Name>
ligand

>  <RI>
0

>  <Rbt.Current_Directory>
/home/itssahil/PROJECTS/Mol_Feturizer/New_Systems/rnas/3DIX

>  <Rbt.Executable>
rbdock ($Id: //depot/dev/client3/rdock/2013.1/src/exe/rbdock.cxx#4 $)

>  <Rbt.Library>
libRbt.so (2013.1, Build901 2013/11/27)

>  <Rbt.Parameter_File>
/export/apps/rDock/src/rDock_2013.1_src/data/scripts/dock_solv.prm

>  <Rbt.Receptor>
prm/blind_docking_100.prm

>  <SCORE>
-9.57246

>  <SCORE.INTER>
-8.19892

>  <SCORE.INTER.CONST>
1

>  <SCORE.INTER.POLAR>
0

>  <SCORE.INTER.ROT>
5

>  <SCORE.INTER.SOLV>
12.4907

>  <SCORE.INTER.VDW>
-16.5628

>  <SCORE.INTER.norm>
-0.819892

>  <SCORE.INTRA>
-1.37354

>  <SCORE.INTRA.DIHEDRAL>
-1.8297

>  <SCORE.INTRA.DIHEDRAL.0>
3.281

>  <SCORE.INTRA.POLAR>
0

>  <SCORE.INTRA.POLAR.0>
0

>  <SCORE.INTRA.REPUL>
0

>  <SCORE.INTRA.REPUL.0>
0

>  <SCORE.INTRA.SOLV>
-0.648924

>  <SCORE.INTRA.SOLV.lig_0>
-31.9458

>  <SCORE.INTRA.VDW>
-0.134227

>  <SCORE.INTRA.VDW.0>
-0.672612

>  <SCORE.INTRA.norm>
-0.137354

>  <SCORE.RESTR>
0

>  <SCORE.RESTR.CAVITY>
0

>  <SCORE.RESTR.norm>
0

>  <SCORE.SYSTEM>
0

>  <SCORE.SYSTEM.CONST>
0

>  <SCORE.SYSTEM.DIHEDRAL>
0

>  <SCORE.SYSTEM.SOLV>
0

>  <SCORE.SYSTEM.norm>
0

>  <SCORE.heavy>
10

>  <SCORE.norm>
-0.957246

>  <RMSD>
5.597

$$$$
ligand
 OpenBabel11021811473D
libRbt.so/2013.1/901 2013/11/27
 10  9  0  0  0  0  0  0  0  0999 V2000
   28.6824   13.9124   21.5396 N   0  0  0  0  0  0  0  0  0  0  0  0
   27.9711   15.1822   21.2199 C   0  0  2  0  0  0  0  0  0  0  0  0
   26.8256   14.9457   20.2458 C   0  0  0  0  0  0  0  0  0  0  0  0
   25.7086   15.4375   20.4139 O   0  0  0  0  0  0  0  0  0  0  0  0
   28.9419   16.2271   20.6744 C   0  0  0  0  0  0  0  0  0  0  0  0
   30.1154   16.4775   21.5933 C   0  0  0  0  0  0  0  0  0  0  0  0
   31.1934   17.2812   20.9164 C   0  0  0  0  0  0  0  0  0  0  0  0
   32.4207   17.3923   21.8037 C   0  0  0  0  0  0  0  0  0  0  0  0
   33.5505   18.0674   21.1135 N   0  0  0  0  0  0  0  0  0  0  0  0
   26.9969   14.2718   19.2287 O   0  0  0  0  0  0  0  0  0  0  0  0
  2  1  1  6  0  0  0
  2  3  1  0  0  0  0
  2  5  1  0  0  0  0
  3  4  1  0  0  0  0
  3 10  1  0  0  0  0
  5  6  1  0  0  0  0
  6  7  1  0  0  0  0
  7  8  1  0  0  0  0
  8  9  1  0  0  0  0
M  END
>  <CHROM.1>
134.22117890,-54.57410024,168.02661784,-173.89745522,174.49499372,29.20292892
15.90890198,20.85185856,-2.81859966,-0.36402639,-0.43555171

>  <Name>
ligand

>  <RI>
0

>  <Rbt.Current_Directory>
/home/itssahil/PROJECTS/Mol_Feturizer/New_Systems/rnas/3DIX

>  <Rbt.Executable>
rbdock ($Id: //depot/dev/client3/rdock/2013.1/src/exe/rbdock.cxx#4 $)

>  <Rbt.Library>
libRbt.so (2013.1, Build901 2013/11/27)

>  <Rbt.Parameter_File>
/export/apps/rDock/src/rDock_2013.1_src/data/scripts/dock_solv.prm

>  <Rbt.Receptor>
prm/blind_docking_60.prm

>  <SCORE>
-6.84296

>  <SCORE.INTER>
-6.0721

>  <SCORE.INTER.CONST>
1

>  <SCORE.INTER.POLAR>
0

>  <SCORE.INTER.ROT>
5

>  <SCORE.INTER.SOLV>
18.4712

>  <SCORE.INTER.VDW>
-17.1385

>  <SCORE.INTER.norm>
-0.60721

>  <SCORE.INTRA>
-0.770864

>  <SCORE.INTRA.DIHEDRAL>
-0.876581

>  <SCORE.INTRA.DIHEDRAL.0>
3.281

>  <SCORE.INTRA.POLAR>
0

>  <SCORE.INTRA.POLAR.0>
0

>  <SCORE.INTRA.REPUL>
0

>  <SCORE.INTRA.REPUL.0>
0

>  <SCORE.INTRA.SOLV>
-0.511883

>  <SCORE.INTRA.SOLV.lig_0>
-31.9458

>  <SCORE.INTRA.VDW>
-0.0766324

>  <SCORE.INTRA.VDW.0>
-0.672612

>  <SCORE.INTRA.norm>
-0.0770864

>  <SCORE.RESTR>
0

>  <SCORE.RESTR.CAVITY>
0

>  <SCORE.RESTR.norm>
0

>  <SCORE.SYSTEM>
0

>  <SCORE.SYSTEM.CONST>
0

>  <SCORE.SYSTEM.DIHEDRAL>
0

>  <SCORE.SYSTEM.SOLV>
0

>  <SCORE.SYSTEM.norm>
0

>  <SCORE.heavy>
10

>  <SCORE.norm>
-0.684296

>  <RMSD>
5.597

$$$$
ligand
 OpenBabel11021811473D
libRbt.so/2013.1/901 2013/11/27
 10  9  0  0  0  0  0  0  0  0999 V2000
   28.4973   14.8971   18.9157 N   0  0  0  0  0  0  0  0  0  0  0  0
   28.0867   15.1109   20.3321 C   0  0  2  0  0  0  0  0  0  0  0  0
   26.5759   15.2483   20.4565 C   0  0  0  0  0  0  0  0  0  0  0  0
   25.8956   15.8167   19.6009 O   0  0  0  0  0  0  0  0  0  0  0  0
   28.7942   16.3270   20.9259 C   0  0  0  0  0  0  0  0  0  0  0  0
   30.2964   16.1691   20.9745 C   0  0  0  0  0  0  0  0  0  0  0  0
   30.9690   17.3936   21.5353 C   0  0  0  0  0  0  0  0  0  0  0  0
   32.4783   17.2261   21.5383 C   0  0  0  0  0  0  0  0  0  0  0  0
   33.1710   18.4087   22.1130 N   0  0  0  0  0  0  0  0  0  0  0  0
   25.9788   14.7576   21.4159 O   0  0  0  0  0  0  0  0  0  0  0  0
  2  1  1  6  0  0  0
  2  3  1  0  0  0  0
  2  5  1  0  0  0  0
  3  4  1  0  0  0  0
  3 10  1  0  0  0  0
  5  6  1  0  0  0  0
  6  7  1  0  0  0  0
  7  8  1  0  0  0  0
  8  9  1  0  0  0  0
M  END
>  <CHROM.1>
-36.21675604,-62.51092656,178.72711272,-178.43665899,-178.81796686,29.02885846
16.13163338,20.78111872,-2.76899076,0.27152485,1.13404246

>  <Name>
ligand

>  <RI>
0

>  <Rbt.Current_Directory>
/home/itssahil/PROJECTS/Mol_Feturizer/New_Systems/rnas/3DIX

>  <Rbt.Executable>
rbdock ($Id: //depot/dev/client3/rdock/2013.1/src/exe/rbdock.cxx#4 $)

>  <Rbt.Library>
libRbt.so (2013.1, Build901 2013/11/27)

>  <Rbt.Parameter_File>
/export/apps/rDock/src/rDock_2013.1_src/data/scripts/dock_solv.prm

>  <Rbt.Receptor>
prm/pocket_docking_7.prm

>  <SCORE>
-9.51091

>  <SCORE.INTER>
-8.16463

>  <SCORE.INTER.CONST>
1

>  <SCORE.INTER.POLAR>
0

>  <SCORE.INTER.ROT>
5

>  <SCORE.INTER.SOLV>
12.6561

>  <SCORE.INTER.VDW>
-16.5951

>  <SCORE.INTER.norm>
-0.816463

>  <SCORE.INTRA>
-1.34628

>  <SCORE.INTRA.DIHEDRAL>
-1.6749

>  <SCORE.INTRA.DIHEDRAL.0>
3.281

>  <SCORE.INTRA.POLAR>
0

>  <SCORE.INTRA.POLAR.0>
0

>  <SCORE.INTRA.REPUL>
0

>  <SCORE.INTRA.REPUL.0>
0

>  <SCORE.INTRA.SOLV>
-0.666675

>  <SCORE.INTRA.SOLV.lig_0>
-31.9458

>  <SCORE.INTRA.VDW>
-0.175491

>  <SCORE.INTRA.VDW.0>
-0.672612

>  <SCORE.INTRA.norm>
-0.134628

>  <SCORE.RESTR>
0

>  <SCORE.RESTR.CAVITY>
0

>  <SCORE.RESTR.norm>
0

>  <SCORE.SYSTEM>
0

>  <SCORE.SYSTEM.CONST>
0

>  <SCORE.SYSTEM.DIHEDRAL>
0

>  <SCORE.SYSTEM.SOLV>
0

>  <SCORE.SYSTEM.norm>
0

>  <SCORE.heavy>
10

>  <SCORE.norm>
-0.951091

>  <RMSD>
5.599

$$$$
ligand
 OpenBabel11021811473D
libRbt.so/2013.1/901 2013/11/27
 10  9  0  0  0  0  0  0  0  0999 V2000
   27.2811   15.7689   20.4401 N   0  0  0  0  0  0  0  0  0  0  0  0
   28.1341   15.7333   19.2187 C   0  0  2  0  0  0  0  0  0  0  0  0
   27.5522   14.8035   18.1632 C   0  0  0  0  0  0  0  0  0  0  0  0
   27.6678   15.0255   16.9570 O   0  0  0  0  0  0  0  0  0  0  0  0
   29.5660   15.3326   19.5666 C   0  0  0  0  0  0  0  0  0  0  0  0
   30.3562   16.4571   20.1952 C   0  0  0  0  0  0  0  0  0  0  0  0
   31.7922   16.0692   20.4271 C   0  0  0  0  0  0  0  0  0  0  0  0
   32.6080   17.2674   20.8797 C   0  0  0  0  0  0  0  0  0  0  0  0
   32.0939   17.8471   22.1478 N   0  0  0  0  0  0  0  0  0  0  0  0
   26.9689   13.7694   18.4920 O   0  0  0  0  0  0  0  0  0  0  0  0
  2  1  1  1  0  0  0
  2  3  1  0  0  0  0
  2  5  1  0  0  0  0
  3  4  1  0  0  0  0
  3 10  1  0  0  0  0
  5  6  1  0  0  0  0
  6  7  1  0  0  0  0
  7  8  1  0  0  0  0
  8  9  1  0  0  0  0
M  END
>  <CHROM.1>
146.59648134,-76.67640550,-175.47929189,172.25467690,60.03338251,29.37918391
15.78255061,19.61876091,2.48816208,-0.24138153,-1.96116085

>  <Name>
ligand

>  <RI>
0

>  <Rbt.Current_Directory>
/home/itssahil/PROJECTS/Mol_Feturizer/New_Systems/rnas/3DIX

>  <Rbt.Executable>
rbdock ($Id: //depot/dev/client3/rdock/2013.1/src/exe/rbdock.cxx#4 $)

>  <Rbt.Library>
libRbt.so (2013.1, Build901 2013/11/27)

>  <Rbt.Parameter_File>
/export/apps/rDock/src/rDock_2013.1_src/data/scripts/dock_solv.prm

>  <Rbt.Receptor>
prm/pocket_docking_7.prm

>  <SCORE>
-7.15073

>  <SCORE.INTER>
-6.88598

>  <SCORE.INTER.CONST>
1

>  <SCORE.INTER.POLAR>
0

>  <SCORE.INTER.ROT>
5

>  <SCORE.INTER.SOLV>
12.1504

>  <SCORE.INTER.VDW>
-15.5741

>  <SCORE.INTER.norm>
-0.688598

>  <SCORE.INTRA>
-0.264754

>  <SCORE.INTRA.DIHEDRAL>
-0.459143

>  <SCORE.INTRA.DIHEDRAL.0>
3.281

>  <SCORE.INTRA.POLAR>
0

>  <SCORE.INTRA.POLAR.0>
0

>  <SCORE.INTRA.REPUL>
0

>  <SCORE.INTRA.REPUL.0>
0

>  <SCORE.INTRA.SOLV>
0.0747151

>  <SCORE.INTRA.SOLV.lig_0>
-31.9458

>  <SCORE.INTRA.VDW>
-0.0725402

>  <SCORE.INTRA.VDW.0>
-0.672612

>  <SCORE.INTRA.norm>
-0.0264754

>  <SCORE.RESTR>
0

>  <SCORE.RESTR.CAVITY>
0

>  <SCORE.RESTR.norm>
0

>  <SCORE.SYSTEM>
0

>  <SCORE.SYSTEM.CONST>
0

>  <SCORE.SYSTEM.DIHEDRAL>
0

>  <SCORE.SYSTEM.SOLV>
0

>  <SCORE.SYSTEM.norm>
0

>  <SCORE.heavy>
10

>  <SCORE.norm>
-0.715073

>  <RMSD>
5.603

$$$$
ligand
 OpenBabel11021811473D
libRbt.so/2013.1/901 2013/11/27
 10  9  0  0  0  0  0  0  0  0999 V2000
   26.2630   14.8577   20.5729 N   0  0  0  0  0  0  0  0  0  0  0  0
   26.8144   15.4173   19.3066 C   0  0  2  0  0  0  0  0  0  0  0  0
   27.4113   14.3242   18.4313 C   0  0  0  0  0  0  0  0  0  0  0  0
   28.4546   13.7409   18.7293 O   0  0  0  0  0  0  0  0  0  0  0  0
   27.8455   16.5058   19.5963 C   0  0  0  0  0  0  0  0  0  0  0  0
   28.9562   16.0375   20.5079 C   0  0  0  0  0  0  0  0  0  0  0  0
   29.9654   17.1250   20.7630 C   0  0  0  0  0  0  0  0  0  0  0  0
   31.0623   16.6355   21.6921 C   0  0  0  0  0  0  0  0  0  0  0  0
   32.0892   17.6799   21.9438 N   0  0  0  0  0  0  0  0  0  0  0  0
   26.8397   13.9646   17.4008 O   0  0  0  0  0  0  0  0  0  0  0  0
  2  1  1  1  0  0  0
  2  3  1  0  0  0  0
  2  5  1  0  0  0  0
  3  4  1  0  0  0  0
  3 10  1  0  0  0  0
  5  6  1  0  0  0  0
  6  7  1  0  0  0  0
  7  8  1  0  0  0  0
  8  9  1  0  0  0  0
M  END
>  <CHROM.1>
-70.42123352,54.80957214,179.33215215,179.40119314,178.94439255,28.57328135
15.59915264,19.86796861,2.35053058,-0.02559590,-2.29990351

>  <Name>
ligand

>  <RI>
0

>  <Rbt.Current_Directory>
/home/itssahil/PROJECTS/Mol_Feturizer/New_Systems/rnas/3DIX

>  <Rbt.Executable>
rbdock ($Id: //depot/dev/client3/rdock/2013.1/src/exe/rbdock.cxx#4 $)

>  <Rbt.Library>
libRbt.so (2013.1, Build901 2013/11/27)

>  <Rbt.Parameter_File>
/export/apps/rDock/src/rDock_2013.1_src/data/scripts/dock_solv.prm

>  <Rbt.Receptor>
prm/pocket_docking_8.prm

>  <SCORE>
-8.76345

>  <SCORE.INTER>
-7.91061

>  <SCORE.INTER.CONST>
1

>  <SCORE.INTER.POLAR>
0

>  <SCORE.INTER.ROT>
5

>  <SCORE.INTER.SOLV>
15.7774

>  <SCORE.INTER.VDW>
-17.4662

>  <SCORE.INTER.norm>
-0.791061

>  <SCORE.INTRA>
-0.852848

>  <SCORE.INTRA.DIHEDRAL>
-1.70597

>  <SCORE.INTRA.DIHEDRAL.0>
3.281

>  <SCORE.INTRA.POLAR>
0

>  <SCORE.INTRA.POLAR.0>
0

>  <SCORE.INTRA.REPUL>
0

>  <SCORE.INTRA.REPUL.0>
0

>  <SCORE.INTRA.SOLV>
-0.594666

>  <SCORE.INTRA.SOLV.lig_0>
-31.9458

>  <SCORE.INTRA.VDW>
0.29747

>  <SCORE.INTRA.VDW.0>
-0.672612

>  <SCORE.INTRA.norm>
-0.0852848

>  <SCORE.RESTR>
0

>  <SCORE.RESTR.CAVITY>
0

>  <SCORE.RESTR.norm>
0

>  <SCORE.SYSTEM>
0

>  <SCORE.SYSTEM.CONST>
0

>  <SCORE.SYSTEM.DIHEDRAL>
0

>  <SCORE.SYSTEM.SOLV>
0

>  <SCORE.SYSTEM.norm>
0

>  <SCORE.heavy>
10

>  <SCORE.norm>
-0.876345

>  <RMSD>
5.604

$$$$
ligand
 OpenBabel11021811473D
libRbt.so/2013.1/901 2013/11/27
 10  9  0  0  0  0  0  0  0  0999 V2000
   28.4118   15.1749   18.8267 N   0  0  0  0  0  0  0  0  0  0  0  0
   28.0603   15.1897   20.2748 C   0  0  2  0  0  0  0  0  0  0  0  0
   26.5541   15.2714   20.4786 C   0  0  0  0  0  0  0  0  0  0  0  0
   25.8113   15.8290   19.6692 O   0  0  0  0  0  0  0  0  0  0  0  0
   28.7697   16.3341   20.9951 C   0  0  0  0  0  0  0  0  0  0  0  0
   30.2757   16.2211   20.9407 C   0  0  0  0  0  0  0  0  0  0  0  0
   30.9482   17.3850   21.6184 C   0  0  0  0  0  0  0  0  0  0  0  0
   32.4590   17.2649   21.5234 C   0  0  0  0  0  0  0  0  0  0  0  0
   33.1522   18.4230   22.1454 N   0  0  0  0  0  0  0  0  0  0  0  0
   26.0248   14.7446   21.4585 O   0  0  0  0  0  0  0  0  0  0  0  0
  2  1  1  6  0  0  0
  2  3  1  0  0  0  0
  2  5  1  0  0  0  0
  3  4  1  0  0  0  0
  3 10  1  0  0  0  0
  5  6  1  0  0  0  0
  6  7  1  0  0  0  0
  7  8  1  0  0  0  0
  8  9  1  0  0  0  0
M  END
>  <CHROM.1>
-29.52032546,-61.56765027,178.10772196,-178.72389015,178.14241295,29.00138734
16.17864067,20.79495588,-2.81223174,0.31756684,1.28021179

>  <Name>
ligand

>  <RI>
0

>  <Rbt.Current_Directory>
/home/itssahil/PROJECTS/Mol_Feturizer/New_Systems/rnas/3DIX

>  <Rbt.Executable>
rbdock ($Id: //depot/dev/client3/rdock/2013.1/src/exe/rbdock.cxx#4 $)

>  <Rbt.Library>
libRbt.so (2013.1, Build901 2013/11/27)

>  <Rbt.Parameter_File>
/export/apps/rDock/src/rDock_2013.1_src/data/scripts/dock_solv.prm

>  <Rbt.Receptor>
prm/pocket_docking_5.prm

>  <SCORE>
-9.52628

>  <SCORE.INTER>
-8.21928

>  <SCORE.INTER.CONST>
1

>  <SCORE.INTER.POLAR>
0

>  <SCORE.INTER.ROT>
5

>  <SCORE.INTER.SOLV>
12.3395

>  <SCORE.INTER.VDW>
-16.526

>  <SCORE.INTER.norm>
-0.821928

>  <SCORE.INTRA>
-1.307

>  <SCORE.INTRA.DIHEDRAL>
-1.67399

>  <SCORE.INTRA.DIHEDRAL.0>
3.281

>  <SCORE.INTRA.POLAR>
0

>  <SCORE.INTRA.POLAR.0>
0

>  <SCORE.INTRA.REPUL>
0

>  <SCORE.INTRA.REPUL.0>
0

>  <SCORE.INTRA.SOLV>
-0.649381

>  <SCORE.INTRA.SOLV.lig_0>
-31.9458

>  <SCORE.INTRA.VDW>
-0.145321

>  <SCORE.INTRA.VDW.0>
-0.672612

>  <SCORE.INTRA.norm>
-0.1307

>  <SCORE.RESTR>
0

>  <SCORE.RESTR.CAVITY>
0

>  <SCORE.RESTR.norm>
0

>  <SCORE.SYSTEM>
0

>  <SCORE.SYSTEM.CONST>
0

>  <SCORE.SYSTEM.DIHEDRAL>
0

>  <SCORE.SYSTEM.SOLV>
0

>  <SCORE.SYSTEM.norm>
0

>  <SCORE.heavy>
10

>  <SCORE.norm>
-0.952628

>  <RMSD>
5.605

$$$$
ligand
 OpenBabel11021811473D
libRbt.so/2013.1/901 2013/11/27
 10  9  0  0  0  0  0  0  0  0999 V2000
   28.4694   15.0101   18.8916 N   0  0  0  0  0  0  0  0  0  0  0  0
   28.0591   15.1343   20.3189 C   0  0  2  0  0  0  0  0  0  0  0  0
   26.5477   15.2569   20.4524 C   0  0  0  0  0  0  0  0  0  0  0  0
   25.8567   15.8185   19.6010 O   0  0  0  0  0  0  0  0  0  0  0  0
   28.7616   16.3146   20.9861 C   0  0  0  0  0  0  0  0  0  0  0  0
   30.2659   16.1708   21.0051 C   0  0  0  0  0  0  0  0  0  0  0  0
   30.9341   17.3709   21.6212 C   0  0  0  0  0  0  0  0  0  0  0  0
   32.4453   17.2296   21.5748 C   0  0  0  0  0  0  0  0  0  0  0  0
   33.1354   18.4108   22.1556 N   0  0  0  0  0  0  0  0  0  0  0  0
   25.9614   14.7603   21.4154 O   0  0  0  0  0  0  0  0  0  0  0  0
  2  1  1  6  0  0  0
  2  3  1  0  0  0  0
  2  5  1  0  0  0  0
  3  4  1  0  0  0  0
  3 10  1  0  0  0  0
  5  6  1  0  0  0  0
  6  7  1  0  0  0  0
  7  8  1  0  0  0  0
  8  9  1  0  0  0  0
M  END
>  <CHROM.1>
-32.65258676,-61.63486165,177.85155576,-177.56179077,179.02778619,28.99821556
16.14349044,20.80252399,-2.77896460,0.28720218,1.19455613

>  <Name>
ligand

>  <RI>
0

>  <Rbt.Current_Directory>
/home/itssahil/PROJECTS/Mol_Feturizer/New_Systems/rnas/3DIX

>  <Rbt.Executable>
rbdock ($Id: //depot/dev/client3/rdock/2013.1/src/exe/rbdock.cxx#4 $)

>  <Rbt.Library>
libRbt.so (2013.1, Build901 2013/11/27)

>  <Rbt.Parameter_File>
/export/apps/rDock/src/rDock_2013.1_src/data/scripts/dock_solv.prm

>  <Rbt.Receptor>
prm/pocket_docking_5.prm

>  <SCORE>
-9.51954

>  <SCORE.INTER>
-8.20681

>  <SCORE.INTER.CONST>
1

>  <SCORE.INTER.POLAR>
0

>  <SCORE.INTER.ROT>
5

>  <SCORE.INTER.SOLV>
12.498

>  <SCORE.INTER.VDW>
-16.5705

>  <SCORE.INTER.norm>
-0.820681

>  <SCORE.INTRA>
-1.31273

>  <SCORE.INTRA.DIHEDRAL>
-1.66162

>  <SCORE.INTRA.DIHEDRAL.0>
3.281

>  <SCORE.INTRA.POLAR>
0

>  <SCORE.INTRA.POLAR.0>
0

>  <SCORE.INTRA.REPUL>
0

>  <SCORE.INTRA.REPUL.0>
0

>  <SCORE.INTRA.SOLV>
-0.649875

>  <SCORE.INTRA.SOLV.lig_0>
-31.9458

>  <SCORE.INTRA.VDW>
-0.156982

>  <SCORE.INTRA.VDW.0>
-0.672612

>  <SCORE.INTRA.norm>
-0.131273

>  <SCORE.RESTR>
0

>  <SCORE.RESTR.CAVITY>
0

>  <SCORE.RESTR.norm>
0

>  <SCORE.SYSTEM>
0

>  <SCORE.SYSTEM.CONST>
0

>  <SCORE.SYSTEM.DIHEDRAL>
0

>  <SCORE.SYSTEM.SOLV>
0

>  <SCORE.SYSTEM.norm>
0

>  <SCORE.heavy>
10

>  <SCORE.norm>
-0.951954

>  <RMSD>
5.605

$$$$
ligand
 OpenBabel11021811473D
libRbt.so/2013.1/901 2013/11/27
 10  9  0  0  0  0  0  0  0  0999 V2000
   28.3780   15.1786   18.8437 N   0  0  0  0  0  0  0  0  0  0  0  0
   27.9847   15.1308   20.2803 C   0  0  2  0  0  0  0  0  0  0  0  0
   26.4739   15.2180   20.4444 C   0  0  0  0  0  0  0  0  0  0  0  0
   25.8880   14.7185   21.4061 O   0  0  0  0  0  0  0  0  0  0  0  0
   28.6824   16.2343   21.0723 C   0  0  0  0  0  0  0  0  0  0  0  0
   30.1893   16.1294   21.0269 C   0  0  0  0  0  0  0  0  0  0  0  0
   30.8517   17.3066   21.6914 C   0  0  0  0  0  0  0  0  0  0  0  0
   32.3632   17.2050   21.5865 C   0  0  0  0  0  0  0  0  0  0  0  0
   33.0449   18.3922   22.1649 N   0  0  0  0  0  0  0  0  0  0  0  0
   25.7885   15.8293   19.6231 O   0  0  0  0  0  0  0  0  0  0  0  0
  2  1  1  6  0  0  0
  2  3  1  0  0  0  0
  2  5  1  0  0  0  0
  3  4  1  0  0  0  0
  3 10  1  0  0  0  0
  5  6  1  0  0  0  0
  6  7  1  0  0  0  0
  7  8  1  0  0  0  0
  8  9  1  0  0  0  0
M  END
>  <CHROM.1>
152.19155521,-60.10590404,173.99474298,-177.84074140,176.71863929,28.91913955
16.13028315,20.81476094,-2.80634739,0.31636433,1.29528602

>  <Name>
ligand

>  <RI>
0

>  <Rbt.Current_Directory>
/home/itssahil/PROJECTS/Mol_Feturizer/New_Systems/rnas/3DIX

>  <Rbt.Executable>
rbdock ($Id: //depot/dev/client3/rdock/2013.1/src/exe/rbdock.cxx#4 $)

>  <Rbt.Library>
libRbt.so (2013.1, Build901 2013/11/27)

>  <Rbt.Parameter_File>
/export/apps/rDock/src/rDock_2013.1_src/data/scripts/dock_solv.prm

>  <Rbt.Receptor>
prm/pocket_docking_4.prm

>  <SCORE>
-9.64516

>  <SCORE.INTER>
-8.41333

>  <SCORE.INTER.CONST>
1

>  <SCORE.INTER.POLAR>
0

>  <SCORE.INTER.ROT>
5

>  <SCORE.INTER.SOLV>
12.2712

>  <SCORE.INTER.VDW>
-16.6326

>  <SCORE.INTER.norm>
-0.841333

>  <SCORE.INTRA>
-1.23183

>  <SCORE.INTRA.DIHEDRAL>
-1.64783

>  <SCORE.INTRA.DIHEDRAL.0>
3.281

>  <SCORE.INTRA.POLAR>
0

>  <SCORE.INTRA.POLAR.0>
0

>  <SCORE.INTRA.REPUL>
0

>  <SCORE.INTRA.REPUL.0>
0

>  <SCORE.INTRA.SOLV>
-0.605507

>  <SCORE.INTRA.SOLV.lig_0>
-31.9458

>  <SCORE.INTRA.VDW>
-0.105161

>  <SCORE.INTRA.VDW.0>
-0.672612

>  <SCORE.INTRA.norm>
-0.123183

>  <SCORE.RESTR>
0

>  <SCORE.RESTR.CAVITY>
0

>  <SCORE.RESTR.norm>
0

>  <SCORE.SYSTEM>
0

>  <SCORE.SYSTEM.CONST>
0

>  <SCORE.SYSTEM.DIHEDRAL>
0

>  <SCORE.SYSTEM.SOLV>
0

>  <SCORE.SYSTEM.norm>
0

>  <SCORE.heavy>
10

>  <SCORE.norm>
-0.964516

>  <RMSD>
5.619

$$$$
ligand
 OpenBabel11021811473D
libRbt.so/2013.1/901 2013/11/27
 10  9  0  0  0  0  0  0  0  0999 V2000
   28.4634   14.8163   19.0139 N   0  0  0  0  0  0  0  0  0  0  0  0
   27.9860   15.0403   20.4077 C   0  0  2  0  0  0  0  0  0  0  0  0
   26.4734   15.2038   20.4559 C   0  0  0  0  0  0  0  0  0  0  0  0
   25.7939   14.7579   21.3817 O   0  0  0  0  0  0  0  0  0  0  0  0
   28.6837   16.2453   21.0346 C   0  0  0  0  0  0  0  0  0  0  0  0
   30.1852   16.0880   21.1011 C   0  0  0  0  0  0  0  0  0  0  0  0
   30.8507   17.3130   21.6693 C   0  0  0  0  0  0  0  0  0  0  0  0
   32.3620   17.1680   21.6405 C   0  0  0  0  0  0  0  0  0  0  0  0
   33.0501   18.3832   22.1487 N   0  0  0  0  0  0  0  0  0  0  0  0
   25.8818   15.8258   19.5721 O   0  0  0  0  0  0  0  0  0  0  0  0
  2  1  1  6  0  0  0
  2  3  1  0  0  0  0
  2  5  1  0  0  0  0
  3  4  1  0  0  0  0
  3 10  1  0  0  0  0
  5  6  1  0  0  0  0
  6  7  1  0  0  0  0
  7  8  1  0  0  0  0
  8  9  1  0  0  0  0
M  END
>  <CHROM.1>
143.21346951,-59.89109369,177.58907540,-176.23754579,177.87408091,28.92763555
16.08188632,20.84103937,-2.74831825,0.24648765,1.08931230

>  <Name>
ligand

>  <RI>
0

>  <Rbt.Current_Directory>
/home/itssahil/PROJECTS/Mol_Feturizer/New_Systems/rnas/3DIX

>  <Rbt.Executable>
rbdock ($Id: //depot/dev/client3/rdock/2013.1/src/exe/rbdock.cxx#4 $)

>  <Rbt.Library>
libRbt.so (2013.1, Build901 2013/11/27)

>  <Rbt.Parameter_File>
/export/apps/rDock/src/rDock_2013.1_src/data/scripts/dock_solv.prm

>  <Rbt.Receptor>
prm/pocket_docking_5.prm

>  <SCORE>
-9.6041

>  <SCORE.INTER>
-8.28624

>  <SCORE.INTER.CONST>
1

>  <SCORE.INTER.POLAR>
0

>  <SCORE.INTER.ROT>
5

>  <SCORE.INTER.SOLV>
12.772

>  <SCORE.INTER.VDW>
-16.7148

>  <SCORE.INTER.norm>
-0.828624

>  <SCORE.INTRA>
-1.31786

>  <SCORE.INTRA.DIHEDRAL>
-1.75143

>  <SCORE.INTRA.DIHEDRAL.0>
3.281

>  <SCORE.INTRA.POLAR>
0

>  <SCORE.INTRA.POLAR.0>
0

>  <SCORE.INTRA.REPUL>
0

>  <SCORE.INTRA.REPUL.0>
0

>  <SCORE.INTRA.SOLV>
-0.628475

>  <SCORE.INTRA.SOLV.lig_0>
-31.9458

>  <SCORE.INTRA.VDW>
-0.127908

>  <SCORE.INTRA.VDW.0>
-0.672612

>  <SCORE.INTRA.norm>
-0.131786

>  <SCORE.RESTR>
0

>  <SCORE.RESTR.CAVITY>
0

>  <SCORE.RESTR.norm>
0

>  <SCORE.SYSTEM>
0

>  <SCORE.SYSTEM.CONST>
0

>  <SCORE.SYSTEM.DIHEDRAL>
0

>  <SCORE.SYSTEM.SOLV>
0

>  <SCORE.SYSTEM.norm>
0

>  <SCORE.heavy>
10

>  <SCORE.norm>
-0.96041

>  <RMSD>
5.620

$$$$
ligand
 OpenBabel11021811473D
libRbt.so/2013.1/901 2013/11/27
 10  9  0  0  0  0  0  0  0  0999 V2000
   28.4551   14.9092   19.0107 N   0  0  0  0  0  0  0  0  0  0  0  0
   27.9794   15.0592   20.4150 C   0  0  2  0  0  0  0  0  0  0  0  0
   26.4650   15.2010   20.4749 C   0  0  0  0  0  0  0  0  0  0  0  0
   25.7990   14.7439   21.4050 O   0  0  0  0  0  0  0  0  0  0  0  0
   28.6639   16.2411   21.0979 C   0  0  0  0  0  0  0  0  0  0  0  0
   30.1683   16.1050   21.1431 C   0  0  0  0  0  0  0  0  0  0  0  0
   30.8236   17.3341   21.7141 C   0  0  0  0  0  0  0  0  0  0  0  0
   32.3363   17.2085   21.6701 C   0  0  0  0  0  0  0  0  0  0  0  0
   33.0137   18.4222   22.1960 N   0  0  0  0  0  0  0  0  0  0  0  0
   25.8580   15.8160   19.5967 O   0  0  0  0  0  0  0  0  0  0  0  0
  2  1  1  6  0  0  0
  2  3  1  0  0  0  0
  2  5  1  0  0  0  0
  3  4  1  0  0  0  0
  3 10  1  0  0  0  0
  5  6  1  0  0  0  0
  6  7  1  0  0  0  0
  7  8  1  0  0  0  0
  8  9  1  0  0  0  0
M  END
>  <CHROM.1>
145.90993161,-59.43528285,175.13018298,-176.50384927,178.55498030,28.91086406
16.10117390,20.87096995,-2.75531935,0.26924319,1.13845740

>  <Name>
ligand

>  <RI>
0

>  <Rbt.Current_Directory>
/home/itssahil/PROJECTS/Mol_Feturizer/New_Systems/rnas/3DIX

>  <Rbt.Executable>
rbdock ($Id: //depot/dev/client3/rdock/2013.1/src/exe/rbdock.cxx#4 $)

>  <Rbt.Library>
libRbt.so (2013.1, Build901 2013/11/27)

>  <Rbt.Parameter_File>
/export/apps/rDock/src/rDock_2013.1_src/data/scripts/dock_solv.prm

>  <Rbt.Receptor>
prm/blind_docking_60.prm

>  <SCORE>
-9.53469

>  <SCORE.INTER>
-8.26435

>  <SCORE.INTER.CONST>
1

>  <SCORE.INTER.POLAR>
0

>  <SCORE.INTER.ROT>
5

>  <SCORE.INTER.SOLV>
12.606

>  <SCORE.INTER.VDW>
-16.6449

>  <SCORE.INTER.norm>
-0.826435

>  <SCORE.INTRA>
-1.27033

>  <SCORE.INTRA.DIHEDRAL>
-1.69727

>  <SCORE.INTRA.DIHEDRAL.0>
3.281

>  <SCORE.INTRA.POLAR>
0

>  <SCORE.INTRA.POLAR.0>
0

>  <SCORE.INTRA.REPUL>
0

>  <SCORE.INTRA.REPUL.0>
0

>  <SCORE.INTRA.SOLV>
-0.607923

>  <SCORE.INTRA.SOLV.lig_0>
-31.9458

>  <SCORE.INTRA.VDW>
-0.117735

>  <SCORE.INTRA.VDW.0>
-0.672612

>  <SCORE.INTRA.norm>
-0.127033

>  <SCORE.RESTR>
0

>  <SCORE.RESTR.CAVITY>
0

>  <SCORE.RESTR.norm>
0

>  <SCORE.SYSTEM>
0

>  <SCORE.SYSTEM.CONST>
0

>  <SCORE.SYSTEM.DIHEDRAL>
0

>  <SCORE.SYSTEM.SOLV>
0

>  <SCORE.SYSTEM.norm>
0

>  <SCORE.heavy>
10

>  <SCORE.norm>
-0.953469

>  <RMSD>
5.624

$$$$
ligand
 OpenBabel11021811473D
libRbt.so/2013.1/901 2013/11/27
 10  9  0  0  0  0  0  0  0  0999 V2000
   27.8082   15.5913   22.3430 N   0  0  0  0  0  0  0  0  0  0  0  0
   27.7628   15.9868   20.9070 C   0  0  2  0  0  0  0  0  0  0  0  0
   26.5668   15.3662   20.1988 C   0  0  0  0  0  0  0  0  0  0  0  0
   26.5023   15.2806   18.9715 O   0  0  0  0  0  0  0  0  0  0  0  0
   29.0651   15.6183   20.1998 C   0  0  0  0  0  0  0  0  0  0  0  0
   30.2661   16.3434   20.7614 C   0  0  0  0  0  0  0  0  0  0  0  0
   31.5319   15.9740   20.0350 C   0  0  0  0  0  0  0  0  0  0  0  0
   32.7038   16.7962   20.5414 C   0  0  0  0  0  0  0  0  0  0  0  0
   33.9888   16.3786   19.9224 N   0  0  0  0  0  0  0  0  0  0  0  0
   25.6304   14.8950   20.8461 O   0  0  0  0  0  0  0  0  0  0  0  0
  2  1  1  1  0  0  0
  2  3  1  0  0  0  0
  2  5  1  0  0  0  0
  3  4  1  0  0  0  0
  3 10  1  0  0  0  0
  5  6  1  0  0  0  0
  6  7  1  0  0  0  0
  7  8  1  0  0  0  0
  8  9  1  0  0  0  0
M  END
>  <CHROM.1>
-161.91196649,-62.75779597,-179.29655609,175.44636700,175.35858854,29.14252498
15.80782362,20.45749858,-3.12441663,-0.18441296,-1.67008928

>  <Name>
ligand

>  <RI>
0

>  <Rbt.Current_Directory>
/home/itssahil/PROJECTS/Mol_Feturizer/New_Systems/rnas/3DIX

>  <Rbt.Executable>
rbdock ($Id: //depot/dev/client3/rdock/2013.1/src/exe/rbdock.cxx#4 $)

>  <Rbt.Library>
libRbt.so (2013.1, Build901 2013/11/27)

>  <Rbt.Parameter_File>
/export/apps/rDock/src/rDock_2013.1_src/data/scripts/dock_solv.prm

>  <Rbt.Receptor>
prm/blind_docking_60.prm

>  <SCORE>
-6.76173

>  <SCORE.INTER>
-5.93995

>  <SCORE.INTER.CONST>
1

>  <SCORE.INTER.POLAR>
0

>  <SCORE.INTER.ROT>
5

>  <SCORE.INTER.SOLV>
19.0977

>  <SCORE.INTER.VDW>
-17.2592

>  <SCORE.INTER.norm>
-0.593995

>  <SCORE.INTRA>
-0.821776

>  <SCORE.INTRA.DIHEDRAL>
-1.53258

>  <SCORE.INTRA.DIHEDRAL.0>
3.281

>  <SCORE.INTRA.POLAR>
0

>  <SCORE.INTRA.POLAR.0>
0

>  <SCORE.INTRA.REPUL>
0

>  <SCORE.INTRA.REPUL.0>
0

>  <SCORE.INTRA.SOLV>
-0.663276

>  <SCORE.INTRA.SOLV.lig_0>
-31.9458

>  <SCORE.INTRA.VDW>
0.276151

>  <SCORE.INTRA.VDW.0>
-0.672612

>  <SCORE.INTRA.norm>
-0.0821776

>  <SCORE.RESTR>
0

>  <SCORE.RESTR.CAVITY>
0

>  <SCORE.RESTR.norm>
0

>  <SCORE.SYSTEM>
0

>  <SCORE.SYSTEM.CONST>
0

>  <SCORE.SYSTEM.DIHEDRAL>
0

>  <SCORE.SYSTEM.SOLV>
0

>  <SCORE.SYSTEM.norm>
0

>  <SCORE.heavy>
10

>  <SCORE.norm>
-0.676173

>  <RMSD>
5.630

$$$$
ligand
 OpenBabel11021811473D
libRbt.so/2013.1/901 2013/11/27
 10  9  0  0  0  0  0  0  0  0999 V2000
   25.7484   15.0788   20.5037 N   0  0  0  0  0  0  0  0  0  0  0  0
   26.9311   15.6485   19.7986 C   0  0  2  0  0  0  0  0  0  0  0  0
   27.2115   14.9073   18.4989 C   0  0  0  0  0  0  0  0  0  0  0  0
   27.7424   15.4554   17.5318 O   0  0  0  0  0  0  0  0  0  0  0  0
   28.1602   15.6415   20.7048 C   0  0  0  0  0  0  0  0  0  0  0  0
   29.3636   16.2997   20.0705 C   0  0  0  0  0  0  0  0  0  0  0  0
   30.5673   16.2518   20.9732 C   0  0  0  0  0  0  0  0  0  0  0  0
   31.7558   16.9390   20.3243 C   0  0  0  0  0  0  0  0  0  0  0  0
   32.9758   16.8629   21.1695 N   0  0  0  0  0  0  0  0  0  0  0  0
   26.9406   13.7104   18.3891 O   0  0  0  0  0  0  0  0  0  0  0  0
  2  1  1  1  0  0  0
  2  3  1  0  0  0  0
  2  5  1  0  0  0  0
  3  4  1  0  0  0  0
  3 10  1  0  0  0  0
  5  6  1  0  0  0  0
  6  7  1  0  0  0  0
  7  8  1  0  0  0  0
  8  9  1  0  0  0  0
M  END
>  <CHROM.1>
151.04996231,-175.90285383,-178.75661337,-179.05157381,-177.80319186,28.73515734
15.66004236,19.76332946,2.73766293,-0.27251286,-1.82147774

>  <Name>
ligand

>  <RI>
0

>  <Rbt.Current_Directory>
/home/itssahil/PROJECTS/Mol_Feturizer/New_Systems/rnas/3DIX

>  <Rbt.Executable>
rbdock ($Id: //depot/dev/client3/rdock/2013.1/src/exe/rbdock.cxx#4 $)

>  <Rbt.Library>
libRbt.so (2013.1, Build901 2013/11/27)

>  <Rbt.Parameter_File>
/export/apps/rDock/src/rDock_2013.1_src/data/scripts/dock_solv.prm

>  <Rbt.Receptor>
prm/blind_docking_100.prm

>  <SCORE>
-8.40882

>  <SCORE.INTER>
-6.69786

>  <SCORE.INTER.CONST>
1

>  <SCORE.INTER.POLAR>
0

>  <SCORE.INTER.ROT>
5

>  <SCORE.INTER.SOLV>
18.4601

>  <SCORE.INTER.VDW>
-17.5519

>  <SCORE.INTER.norm>
-0.669786

>  <SCORE.INTRA>
-1.71096

>  <SCORE.INTRA.DIHEDRAL>
-1.77197

>  <SCORE.INTRA.DIHEDRAL.0>
3.281

>  <SCORE.INTRA.POLAR>
0

>  <SCORE.INTRA.POLAR.0>
0

>  <SCORE.INTRA.REPUL>
0

>  <SCORE.INTRA.REPUL.0>
0

>  <SCORE.INTRA.SOLV>
-1.5688

>  <SCORE.INTRA.SOLV.lig_0>
-31.9458

>  <SCORE.INTRA.VDW>
-0.040574

>  <SCORE.INTRA.VDW.0>
-0.672612

>  <SCORE.INTRA.norm>
-0.171096

>  <SCORE.RESTR>
0

>  <SCORE.RESTR.CAVITY>
0

>  <SCORE.RESTR.norm>
0

>  <SCORE.SYSTEM>
0

>  <SCORE.SYSTEM.CONST>
0

>  <SCORE.SYSTEM.DIHEDRAL>
0

>  <SCORE.SYSTEM.SOLV>
0

>  <SCORE.SYSTEM.norm>
0

>  <SCORE.heavy>
10

>  <SCORE.norm>
-0.840882

>  <RMSD>
5.641

$$$$
ligand
 OpenBabel11021811473D
libRbt.so/2013.1/901 2013/11/27
 10  9  0  0  0  0  0  0  0  0999 V2000
   26.7653   15.5849   20.1626 N   0  0  0  0  0  0  0  0  0  0  0  0
   27.7471   15.9921   19.1181 C   0  0  2  0  0  0  0  0  0  0  0  0
   27.6146   15.1335   17.8682 C   0  0  0  0  0  0  0  0  0  0  0  0
   28.0745   15.4827   16.7799 O   0  0  0  0  0  0  0  0  0  0  0  0
   29.1728   15.9432   19.6630 C   0  0  0  0  0  0  0  0  0  0  0  0
   29.4657   17.0520   20.6472 C   0  0  0  0  0  0  0  0  0  0  0  0
   30.9151   17.0698   21.0537 C   0  0  0  0  0  0  0  0  0  0  0  0
   31.2040   18.2464   21.9691 C   0  0  0  0  0  0  0  0  0  0  0  0
   32.6438   18.3367   22.3262 N   0  0  0  0  0  0  0  0  0  0  0  0
   27.0635   14.0329   17.9195 O   0  0  0  0  0  0  0  0  0  0  0  0
  2  1  1  1  0  0  0
  2  3  1  0  0  0  0
  2  5  1  0  0  0  0
  3  4  1  0  0  0  0
  3 10  1  0  0  0  0
  5  6  1  0  0  0  0
  6  7  1  0  0  0  0
  7  8  1  0  0  0  0
  8  9  1  0  0  0  0
M  END
>  <CHROM.1>
161.77222574,-71.90755205,-173.83171103,176.22945080,-176.74440441,29.05475704
16.26305437,19.71460357,2.35353105,-0.39665936,-1.86167790

>  <Name>
ligand

>  <RI>
0

>  <Rbt.Current_Directory>
/home/itssahil/PROJECTS/Mol_Feturizer/New_Systems/rnas/3DIX

>  <Rbt.Executable>
rbdock ($Id: //depot/dev/client3/rdock/2013.1/src/exe/rbdock.cxx#4 $)

>  <Rbt.Library>
libRbt.so (2013.1, Build901 2013/11/27)

>  <Rbt.Parameter_File>
/export/apps/rDock/src/rDock_2013.1_src/data/scripts/dock_solv.prm

>  <Rbt.Receptor>
prm/pocket_docking_4.prm

>  <SCORE>
-8.21503

>  <SCORE.INTER>
-7.13547

>  <SCORE.INTER.CONST>
1

>  <SCORE.INTER.POLAR>
0

>  <SCORE.INTER.ROT>
5

>  <SCORE.INTER.SOLV>
15.0941

>  <SCORE.INTER.VDW>
-16.7217

>  <SCORE.INTER.norm>
-0.713547

>  <SCORE.INTRA>
-1.07956

>  <SCORE.INTRA.DIHEDRAL>
-1.0246

>  <SCORE.INTRA.DIHEDRAL.0>
3.281

>  <SCORE.INTRA.POLAR>
0

>  <SCORE.INTRA.POLAR.0>
0

>  <SCORE.INTRA.REPUL>
0

>  <SCORE.INTRA.REPUL.0>
0

>  <SCORE.INTRA.SOLV>
-0.817516

>  <SCORE.INTRA.SOLV.lig_0>
-31.9458

>  <SCORE.INTRA.VDW>
-0.158507

>  <SCORE.INTRA.VDW.0>
-0.672612

>  <SCORE.INTRA.norm>
-0.107956

>  <SCORE.RESTR>
0

>  <SCORE.RESTR.CAVITY>
0

>  <SCORE.RESTR.norm>
0

>  <SCORE.SYSTEM>
0

>  <SCORE.SYSTEM.CONST>
0

>  <SCORE.SYSTEM.DIHEDRAL>
0

>  <SCORE.SYSTEM.SOLV>
0

>  <SCORE.SYSTEM.norm>
0

>  <SCORE.heavy>
10

>  <SCORE.norm>
-0.821503

>  <RMSD>
5.645

$$$$
ligand
 OpenBabel11021811473D
libRbt.so/2013.1/901 2013/11/27
 10  9  0  0  0  0  0  0  0  0999 V2000
   26.7854   15.4922   20.1667 N   0  0  0  0  0  0  0  0  0  0  0  0
   27.7446   15.9511   19.1226 C   0  0  2  0  0  0  0  0  0  0  0  0
   27.6256   15.1162   17.8553 C   0  0  0  0  0  0  0  0  0  0  0  0
   27.0406   14.0322   17.8357 O   0  0  0  0  0  0  0  0  0  0  0  0
   29.1763   15.9329   19.6535 C   0  0  0  0  0  0  0  0  0  0  0  0
   29.4506   17.0390   20.6460 C   0  0  0  0  0  0  0  0  0  0  0  0
   30.9004   17.0809   21.0492 C   0  0  0  0  0  0  0  0  0  0  0  0
   31.1684   18.2527   21.9771 C   0  0  0  0  0  0  0  0  0  0  0  0
   32.6044   18.3572   22.3456 N   0  0  0  0  0  0  0  0  0  0  0  0
   28.0902   15.5246   16.7899 O   0  0  0  0  0  0  0  0  0  0  0  0
  2  1  1  1  0  0  0
  2  3  1  0  0  0  0
  2  5  1  0  0  0  0
  3  4  1  0  0  0  0
  3 10  1  0  0  0  0
  5  6  1  0  0  0  0
  6  7  1  0  0  0  0
  7  8  1  0  0  0  0
  8  9  1  0  0  0  0
M  END
>  <CHROM.1>
-15.47756138,-72.63390212,-174.39167936,176.40972715,-177.46691791,29.04658341
16.25471430,19.70718343,2.35730710,-0.42543360,-1.83680969

>  <Name>
ligand

>  <RI>
0

>  <Rbt.Current_Directory>
/home/itssahil/PROJECTS/Mol_Feturizer/New_Systems/rnas/3DIX

>  <Rbt.Executable>
rbdock ($Id: //depot/dev/client3/rdock/2013.1/src/exe/rbdock.cxx#4 $)

>  <Rbt.Library>
libRbt.so (2013.1, Build901 2013/11/27)

>  <Rbt.Parameter_File>
/export/apps/rDock/src/rDock_2013.1_src/data/scripts/dock_solv.prm

>  <Rbt.Receptor>
prm/pocket_docking_8.prm

>  <SCORE>
-8.23956

>  <SCORE.INTER>
-7.21382

>  <SCORE.INTER.CONST>
1

>  <SCORE.INTER.POLAR>
0

>  <SCORE.INTER.ROT>
5

>  <SCORE.INTER.SOLV>
14.9996

>  <SCORE.INTER.VDW>
-16.7424

>  <SCORE.INTER.norm>
-0.721382

>  <SCORE.INTRA>
-1.02575

>  <SCORE.INTRA.DIHEDRAL>
-0.894052

>  <SCORE.INTRA.DIHEDRAL.0>
3.281

>  <SCORE.INTRA.POLAR>
0

>  <SCORE.INTRA.POLAR.0>
0

>  <SCORE.INTRA.REPUL>
0

>  <SCORE.INTRA.REPUL.0>
0

>  <SCORE.INTRA.SOLV>
-0.83037

>  <SCORE.INTRA.SOLV.lig_0>
-31.9458

>  <SCORE.INTRA.VDW>
-0.163537

>  <SCORE.INTRA.VDW.0>
-0.672612

>  <SCORE.INTRA.norm>
-0.102575

>  <SCORE.RESTR>
0

>  <SCORE.RESTR.CAVITY>
0

>  <SCORE.RESTR.norm>
0

>  <SCORE.SYSTEM>
0

>  <SCORE.SYSTEM.CONST>
0

>  <SCORE.SYSTEM.DIHEDRAL>
0

>  <SCORE.SYSTEM.SOLV>
0

>  <SCORE.SYSTEM.norm>
0

>  <SCORE.heavy>
10

>  <SCORE.norm>
-0.823956

>  <RMSD>
5.646

$$$$
ligand
 OpenBabel11021811473D
libRbt.so/2013.1/901 2013/11/27
 10  9  0  0  0  0  0  0  0  0999 V2000
   28.1017   14.3922   21.7291 N   0  0  0  0  0  0  0  0  0  0  0  0
   27.7410   15.6386   20.9962 C   0  0  2  0  0  0  0  0  0  0  0  0
   26.6207   15.3891   19.9964 C   0  0  0  0  0  0  0  0  0  0  0  0
   26.8411   15.1730   18.8037 O   0  0  0  0  0  0  0  0  0  0  0  0
   28.9642   16.2363   20.3046 C   0  0  0  0  0  0  0  0  0  0  0  0
   30.0850   16.5597   21.2655 C   0  0  0  0  0  0  0  0  0  0  0  0
   31.3390   16.9728   20.5424 C   0  0  0  0  0  0  0  0  0  0  0  0
   32.4711   17.2196   21.5240 C   0  0  0  0  0  0  0  0  0  0  0  0
   33.7351   17.5929   20.8375 N   0  0  0  0  0  0  0  0  0  0  0  0
   25.4456   15.3634   20.3654 O   0  0  0  0  0  0  0  0  0  0  0  0
  2  1  1  6  0  0  0
  2  3  1  0  0  0  0
  2  5  1  0  0  0  0
  3  4  1  0  0  0  0
  3 10  1  0  0  0  0
  5  6  1  0  0  0  0
  6  7  1  0  0  0  0
  7  8  1  0  0  0  0
  8  9  1  0  0  0  0
M  END
>  <CHROM.1>
-96.70405685,-58.30986605,172.39356798,-176.93125375,178.40924897,29.09618575
16.04426967,20.61346845,3.11483080,-0.35285095,-1.22086949

>  <Name>
ligand

>  <RI>
0

>  <Rbt.Current_Directory>
/home/itssahil/PROJECTS/Mol_Feturizer/New_Systems/rnas/3DIX

>  <Rbt.Executable>
rbdock ($Id: //depot/dev/client3/rdock/2013.1/src/exe/rbdock.cxx#4 $)

>  <Rbt.Library>
libRbt.so (2013.1, Build901 2013/11/27)

>  <Rbt.Parameter_File>
/export/apps/rDock/src/rDock_2013.1_src/data/scripts/dock_solv.prm

>  <Rbt.Receptor>
prm/blind_docking_100.prm

>  <SCORE>
-7.01408

>  <SCORE.INTER>
-6.29742

>  <SCORE.INTER.CONST>
1

>  <SCORE.INTER.POLAR>
0

>  <SCORE.INTER.ROT>
5

>  <SCORE.INTER.SOLV>
17.4833

>  <SCORE.INTER.VDW>
-16.9594

>  <SCORE.INTER.norm>
-0.629742

>  <SCORE.INTRA>
-0.716656

>  <SCORE.INTRA.DIHEDRAL>
-1.55569

>  <SCORE.INTRA.DIHEDRAL.0>
3.281

>  <SCORE.INTRA.POLAR>
0

>  <SCORE.INTRA.POLAR.0>
0

>  <SCORE.INTRA.REPUL>
0

>  <SCORE.INTRA.REPUL.0>
0

>  <SCORE.INTRA.SOLV>
-0.58697

>  <SCORE.INTRA.SOLV.lig_0>
-31.9458

>  <SCORE.INTRA.VDW>
0.354673

>  <SCORE.INTRA.VDW.0>
-0.672612

>  <SCORE.INTRA.norm>
-0.0716656

>  <SCORE.RESTR>
0

>  <SCORE.RESTR.CAVITY>
0

>  <SCORE.RESTR.norm>
0

>  <SCORE.SYSTEM>
0

>  <SCORE.SYSTEM.CONST>
0

>  <SCORE.SYSTEM.DIHEDRAL>
0

>  <SCORE.SYSTEM.SOLV>
0

>  <SCORE.SYSTEM.norm>
0

>  <SCORE.heavy>
10

>  <SCORE.norm>
-0.701408

>  <RMSD>
5.647

$$$$
ligand
 OpenBabel11021811473D
libRbt.so/2013.1/901 2013/11/27
 10  9  0  0  0  0  0  0  0  0999 V2000
   26.6448   14.6541   20.3469 N   0  0  0  0  0  0  0  0  0  0  0  0
   26.9120   15.5456   19.1830 C   0  0  2  0  0  0  0  0  0  0  0  0
   27.3580   14.7484   17.9653 C   0  0  0  0  0  0  0  0  0  0  0  0
   27.9935   15.2602   17.0423 O   0  0  0  0  0  0  0  0  0  0  0  0
   27.9427   16.6138   19.5412 C   0  0  0  0  0  0  0  0  0  0  0  0
   29.2582   16.0315   20.0040 C   0  0  0  0  0  0  0  0  0  0  0  0
   30.2486   17.1061   20.3654 C   0  0  0  0  0  0  0  0  0  0  0  0
   31.5869   16.4993   20.7483 C   0  0  0  0  0  0  0  0  0  0  0  0
   32.5861   17.5360   21.1163 N   0  0  0  0  0  0  0  0  0  0  0  0
   27.1200   13.5424   17.8843 O   0  0  0  0  0  0  0  0  0  0  0  0
  2  1  1  1  0  0  0
  2  3  1  0  0  0  0
  2  5  1  0  0  0  0
  3  4  1  0  0  0  0
  3 10  1  0  0  0  0
  5  6  1  0  0  0  0
  6  7  1  0  0  0  0
  7  8  1  0  0  0  0
  8  9  1  0  0  0  0
M  END
>  <CHROM.1>
-158.27456371,58.27115425,-179.32662533,-176.65782546,-179.76902782,28.76439989
15.73167477,19.38708464,2.55186220,-0.34264151,-1.88967205

>  <Name>
ligand

>  <RI>
0

>  <Rbt.Current_Directory>
/home/itssahil/PROJECTS/Mol_Feturizer/New_Systems/rnas/3DIX

>  <Rbt.Executable>
rbdock ($Id: //depot/dev/client3/rdock/2013.1/src/exe/rbdock.cxx#4 $)

>  <Rbt.Library>
libRbt.so (2013.1, Build901 2013/11/27)

>  <Rbt.Parameter_File>
/export/apps/rDock/src/rDock_2013.1_src/data/scripts/dock_solv.prm

>  <Rbt.Receptor>
prm/blind_docking_60.prm

>  <SCORE>
-8.94323

>  <SCORE.INTER>
-8.24877

>  <SCORE.INTER.CONST>
1

>  <SCORE.INTER.POLAR>
0

>  <SCORE.INTER.ROT>
5

>  <SCORE.INTER.SOLV>
15.1694

>  <SCORE.INTER.VDW>
-17.489

>  <SCORE.INTER.norm>
-0.824877

>  <SCORE.INTRA>
-0.694456

>  <SCORE.INTRA.DIHEDRAL>
-1.66638

>  <SCORE.INTRA.DIHEDRAL.0>
3.281

>  <SCORE.INTRA.POLAR>
0

>  <SCORE.INTRA.POLAR.0>
0

>  <SCORE.INTRA.REPUL>
0

>  <SCORE.INTRA.REPUL.0>
0

>  <SCORE.INTRA.SOLV>
-0.608123

>  <SCORE.INTRA.SOLV.lig_0>
-31.9458

>  <SCORE.INTRA.VDW>
0.442794

>  <SCORE.INTRA.VDW.0>
-0.672612

>  <SCORE.INTRA.norm>
-0.0694456

>  <SCORE.RESTR>
0

>  <SCORE.RESTR.CAVITY>
0

>  <SCORE.RESTR.norm>
0

>  <SCORE.SYSTEM>
0

>  <SCORE.SYSTEM.CONST>
0

>  <SCORE.SYSTEM.DIHEDRAL>
0

>  <SCORE.SYSTEM.SOLV>
0

>  <SCORE.SYSTEM.norm>
0

>  <SCORE.heavy>
10

>  <SCORE.norm>
-0.894323

>  <RMSD>
5.650

$$$$
ligand
 OpenBabel11021811473D
libRbt.so/2013.1/901 2013/11/27
 10  9  0  0  0  0  0  0  0  0999 V2000
   27.9058   14.5960   21.6444 N   0  0  0  0  0  0  0  0  0  0  0  0
   27.7605   15.7148   20.6708 C   0  0  2  0  0  0  0  0  0  0  0  0
   26.7237   15.3904   19.6045 C   0  0  0  0  0  0  0  0  0  0  0  0
   26.9667   14.6380   18.6598 O   0  0  0  0  0  0  0  0  0  0  0  0
   29.1051   16.0605   20.0347 C   0  0  0  0  0  0  0  0  0  0  0  0
   30.1344   16.5152   21.0434 C   0  0  0  0  0  0  0  0  0  0  0  0
   31.4609   16.8082   20.3947 C   0  0  0  0  0  0  0  0  0  0  0  0
   32.4793   17.2565   21.4281 C   0  0  0  0  0  0  0  0  0  0  0  0
   33.8022   17.5509   20.8183 N   0  0  0  0  0  0  0  0  0  0  0  0
   25.5843   15.8532   19.6771 O   0  0  0  0  0  0  0  0  0  0  0  0
  2  1  1  1  0  0  0
  2  3  1  0  0  0  0
  2  5  1  0  0  0  0
  3  4  1  0  0  0  0
  3 10  1  0  0  0  0
  5  6  1  0  0  0  0
  6  7  1  0  0  0  0
  7  8  1  0  0  0  0
  8  9  1  0  0  0  0
M  END
>  <CHROM.1>
-77.48662306,-61.12786531,178.24138681,-179.73429192,179.87129077,29.15575666
16.02774600,20.37233963,3.00908485,-0.34337242,-1.38075613

>  <Name>
ligand

>  <RI>
0

>  <Rbt.Current_Directory>
/home/itssahil/PROJECTS/Mol_Feturizer/New_Systems/rnas/3DIX

>  <Rbt.Executable>
rbdock ($Id: //depot/dev/client3/rdock/2013.1/src/exe/rbdock.cxx#4 $)

>  <Rbt.Library>
libRbt.so (2013.1, Build901 2013/11/27)

>  <Rbt.Parameter_File>
/export/apps/rDock/src/rDock_2013.1_src/data/scripts/dock_solv.prm

>  <Rbt.Receptor>
prm/blind_docking_60.prm

>  <SCORE>
-7.10137

>  <SCORE.INTER>
-5.90378

>  <SCORE.INTER.CONST>
1

>  <SCORE.INTER.POLAR>
0

>  <SCORE.INTER.ROT>
5

>  <SCORE.INTER.SOLV>
16.9043

>  <SCORE.INTER.VDW>
-16.5039

>  <SCORE.INTER.norm>
-0.590378

>  <SCORE.INTRA>
-1.19759

>  <SCORE.INTRA.DIHEDRAL>
-1.82675

>  <SCORE.INTRA.DIHEDRAL.0>
3.281

>  <SCORE.INTRA.POLAR>
0

>  <SCORE.INTRA.POLAR.0>
0

>  <SCORE.INTRA.REPUL>
0

>  <SCORE.INTRA.REPUL.0>
0

>  <SCORE.INTRA.SOLV>
-0.65643

>  <SCORE.INTRA.SOLV.lig_0>
-31.9458

>  <SCORE.INTRA.VDW>
0.0440006

>  <SCORE.INTRA.VDW.0>
-0.672612

>  <SCORE.INTRA.norm>
-0.119759

>  <SCORE.RESTR>
0

>  <SCORE.RESTR.CAVITY>
0

>  <SCORE.RESTR.norm>
0

>  <SCORE.SYSTEM>
0

>  <SCORE.SYSTEM.CONST>
0

>  <SCORE.SYSTEM.DIHEDRAL>
0

>  <SCORE.SYSTEM.SOLV>
0

>  <SCORE.SYSTEM.norm>
0

>  <SCORE.heavy>
10

>  <SCORE.norm>
-0.710137

>  <RMSD>
5.653

$$$$
ligand
 OpenBabel11021811473D
libRbt.so/2013.1/901 2013/11/27
 10  9  0  0  0  0  0  0  0  0999 V2000
   26.6370   14.6766   20.3515 N   0  0  0  0  0  0  0  0  0  0  0  0
   26.9171   15.5546   19.1805 C   0  0  2  0  0  0  0  0  0  0  0  0
   27.3483   14.7410   17.9684 C   0  0  0  0  0  0  0  0  0  0  0  0
   27.9910   15.2351   17.0408 O   0  0  0  0  0  0  0  0  0  0  0  0
   27.9658   16.6085   19.5292 C   0  0  0  0  0  0  0  0  0  0  0  0
   29.2711   16.0082   19.9981 C   0  0  0  0  0  0  0  0  0  0  0  0
   30.2794   17.0691   20.3502 C   0  0  0  0  0  0  0  0  0  0  0  0
   31.6138   16.4442   20.7171 C   0  0  0  0  0  0  0  0  0  0  0  0
   32.6160   17.4638   21.1229 N   0  0  0  0  0  0  0  0  0  0  0  0
   27.0902   13.5385   17.8968 O   0  0  0  0  0  0  0  0  0  0  0  0
  2  1  1  1  0  0  0
  2  3  1  0  0  0  0
  2  5  1  0  0  0  0
  3  4  1  0  0  0  0
  3 10  1  0  0  0  0
  5  6  1  0  0  0  0
  6  7  1  0  0  0  0
  7  8  1  0  0  0  0
  8  9  1  0  0  0  0
M  END
>  <CHROM.1>
-158.26383432,58.12437129,-179.31569101,-175.71664247,-177.70747361,28.77188816
15.71165902,19.38310911,2.55626158,-0.32618337,-1.89619268

>  <Name>
ligand

>  <RI>
0

>  <Rbt.Current_Directory>
/home/itssahil/PROJECTS/Mol_Feturizer/New_Systems/rnas/3DIX

>  <Rbt.Executable>
rbdock ($Id: //depot/dev/client3/rdock/2013.1/src/exe/rbdock.cxx#4 $)

>  <Rbt.Library>
libRbt.so (2013.1, Build901 2013/11/27)

>  <Rbt.Parameter_File>
/export/apps/rDock/src/rDock_2013.1_src/data/scripts/dock_solv.prm

>  <Rbt.Receptor>
prm/pocket_docking_4.prm

>  <SCORE>
-8.87311

>  <SCORE.INTER>
-8.20515

>  <SCORE.INTER.CONST>
1

>  <SCORE.INTER.POLAR>
0

>  <SCORE.INTER.ROT>
5

>  <SCORE.INTER.SOLV>
15.1614

>  <SCORE.INTER.VDW>
-17.4572

>  <SCORE.INTER.norm>
-0.820515

>  <SCORE.INTRA>
-0.667953

>  <SCORE.INTRA.DIHEDRAL>
-1.61434

>  <SCORE.INTRA.DIHEDRAL.0>
3.281

>  <SCORE.INTRA.POLAR>
0

>  <SCORE.INTRA.POLAR.0>
0

>  <SCORE.INTRA.REPUL>
0

>  <SCORE.INTRA.REPUL.0>
0

>  <SCORE.INTRA.SOLV>
-0.605871

>  <SCORE.INTRA.SOLV.lig_0>
-31.9458

>  <SCORE.INTRA.VDW>
0.442154

>  <SCORE.INTRA.VDW.0>
-0.672612

>  <SCORE.INTRA.norm>
-0.0667953

>  <SCORE.RESTR>
0

>  <SCORE.RESTR.CAVITY>
0

>  <SCORE.RESTR.norm>
0

>  <SCORE.SYSTEM>
0

>  <SCORE.SYSTEM.CONST>
0

>  <SCORE.SYSTEM.DIHEDRAL>
0

>  <SCORE.SYSTEM.SOLV>
0

>  <SCORE.SYSTEM.norm>
0

>  <SCORE.heavy>
10

>  <SCORE.norm>
-0.887311

>  <RMSD>
5.653

$$$$
ligand
 OpenBabel11021811473D
libRbt.so/2013.1/901 2013/11/27
 10  9  0  0  0  0  0  0  0  0999 V2000
   26.9555   15.0186   20.2280 N   0  0  0  0  0  0  0  0  0  0  0  0
   27.7171   15.6970   19.1415 C   0  0  2  0  0  0  0  0  0  0  0  0
   27.5299   14.9881   17.8076 C   0  0  0  0  0  0  0  0  0  0  0  0
   26.8824   13.9452   17.7034 O   0  0  0  0  0  0  0  0  0  0  0  0
   29.1980   15.8018   19.4988 C   0  0  0  0  0  0  0  0  0  0  0  0
   29.4701   16.8063   20.5946 C   0  0  0  0  0  0  0  0  0  0  0  0
   30.9446   16.9665   20.8521 C   0  0  0  0  0  0  0  0  0  0  0  0
   31.1934   17.9988   21.9377 C   0  0  0  0  0  0  0  0  0  0  0  0
   32.6427   18.1922   22.2038 N   0  0  0  0  0  0  0  0  0  0  0  0
   28.0011   15.4639   16.7735 O   0  0  0  0  0  0  0  0  0  0  0  0
  2  1  1  1  0  0  0
  2  3  1  0  0  0  0
  2  5  1  0  0  0  0
  3  4  1  0  0  0  0
  3 10  1  0  0  0  0
  5  6  1  0  0  0  0
  6  7  1  0  0  0  0
  7  8  1  0  0  0  0
  8  9  1  0  0  0  0
M  END
>  <CHROM.1>
-3.73610910,-71.50661541,-175.58742251,178.93321200,-179.30124168,29.03951410
16.06750924,19.63603564,2.43385095,-0.51754572,-1.70924472

>  <Name>
ligand

>  <RI>
0

>  <Rbt.Current_Directory>
/home/itssahil/PROJECTS/Mol_Feturizer/New_Systems/rnas/3DIX

>  <Rbt.Executable>
rbdock ($Id: //depot/dev/client3/rdock/2013.1/src/exe/rbdock.cxx#4 $)

>  <Rbt.Library>
libRbt.so (2013.1, Build901 2013/11/27)

>  <Rbt.Parameter_File>
/export/apps/rDock/src/rDock_2013.1_src/data/scripts/dock_solv.prm

>  <Rbt.Receptor>
prm/pocket_docking_8.prm

>  <SCORE>
-8.16563

>  <SCORE.INTER>
-7.12877

>  <SCORE.INTER.CONST>
1

>  <SCORE.INTER.POLAR>
0

>  <SCORE.INTER.ROT>
5

>  <SCORE.INTER.SOLV>
13.9536

>  <SCORE.INTER.VDW>
-16.337

>  <SCORE.INTER.norm>
-0.712877

>  <SCORE.INTRA>
-1.03685

>  <SCORE.INTRA.DIHEDRAL>
-1.1523

>  <SCORE.INTRA.DIHEDRAL.0>
3.281

>  <SCORE.INTRA.POLAR>
0

>  <SCORE.INTRA.POLAR.0>
0

>  <SCORE.INTRA.REPUL>
0

>  <SCORE.INTRA.REPUL.0>
0

>  <SCORE.INTRA.SOLV>
-0.809938

>  <SCORE.INTRA.SOLV.lig_0>
-31.9458

>  <SCORE.INTRA.VDW>
-0.0557333

>  <SCORE.INTRA.VDW.0>
-0.672612

>  <SCORE.INTRA.norm>
-0.103685

>  <SCORE.RESTR>
0

>  <SCORE.RESTR.CAVITY>
0

>  <SCORE.RESTR.norm>
0

>  <SCORE.SYSTEM>
0

>  <SCORE.SYSTEM.CONST>
0

>  <SCORE.SYSTEM.DIHEDRAL>
0

>  <SCORE.SYSTEM.SOLV>
0

>  <SCORE.SYSTEM.norm>
0

>  <SCORE.heavy>
10

>  <SCORE.norm>
-0.816563

>  <RMSD>
5.677

$$$$
ligand
 OpenBabel11021811473D
libRbt.so/2013.1/901 2013/11/27
 10  9  0  0  0  0  0  0  0  0999 V2000
   27.3431   14.3390   20.1353 N   0  0  0  0  0  0  0  0  0  0  0  0
   27.1019   14.8124   18.7430 C   0  0  2  0  0  0  0  0  0  0  0  0
   27.2368   13.6755   17.7399 C   0  0  0  0  0  0  0  0  0  0  0  0
   28.3323   13.2838   17.3347 O   0  0  0  0  0  0  0  0  0  0  0  0
   28.0407   15.9638   18.3897 C   0  0  0  0  0  0  0  0  0  0  0  0
   28.0089   17.0827   19.4050 C   0  0  0  0  0  0  0  0  0  0  0  0
   28.8783   16.7808   20.5964 C   0  0  0  0  0  0  0  0  0  0  0  0
   30.3484   16.9038   20.2362 C   0  0  0  0  0  0  0  0  0  0  0  0
   31.2329   16.6587   21.4050 N   0  0  0  0  0  0  0  0  0  0  0  0
   26.2387   13.0846   17.3245 O   0  0  0  0  0  0  0  0  0  0  0  0
  2  1  1  1  0  0  0
  2  3  1  0  0  0  0
  2  5  1  0  0  0  0
  3  4  1  0  0  0  0
  3 10  1  0  0  0  0
  5  6  1  0  0  0  0
  6  7  1  0  0  0  0
  7  8  1  0  0  0  0
  8  9  1  0  0  0  0
M  END
>  <CHROM.1>
-80.37926803,-52.14785802,81.66218831,73.15438536,177.96997319,28.27142862
15.22625137,19.10278542,2.18616058,0.24774815,-2.58071583

>  <Name>
ligand

>  <RI>
0

>  <Rbt.Current_Directory>
/home/itssahil/PROJECTS/Mol_Feturizer/New_Systems/rnas/3DIX

>  <Rbt.Executable>
rbdock ($Id: //depot/dev/client3/rdock/2013.1/src/exe/rbdock.cxx#4 $)

>  <Rbt.Library>
libRbt.so (2013.1, Build901 2013/11/27)

>  <Rbt.Parameter_File>
/export/apps/rDock/src/rDock_2013.1_src/data/scripts/dock_solv.prm

>  <Rbt.Receptor>
prm/pocket_docking_4.prm

>  <SCORE>
-6.13802

>  <SCORE.INTER>
-8.16798

>  <SCORE.INTER.CONST>
1

>  <SCORE.INTER.POLAR>
0

>  <SCORE.INTER.ROT>
5

>  <SCORE.INTER.SOLV>
12.1154

>  <SCORE.INTER.VDW>
-16.4171

>  <SCORE.INTER.norm>
-0.816798

>  <SCORE.INTRA>
2.02996

>  <SCORE.INTRA.DIHEDRAL>
0.851927

>  <SCORE.INTRA.DIHEDRAL.0>
3.281

>  <SCORE.INTRA.POLAR>
0

>  <SCORE.INTRA.POLAR.0>
0

>  <SCORE.INTRA.REPUL>
0

>  <SCORE.INTRA.REPUL.0>
0

>  <SCORE.INTRA.SOLV>
1.22723

>  <SCORE.INTRA.SOLV.lig_0>
-31.9458

>  <SCORE.INTRA.VDW>
0.990375

>  <SCORE.INTRA.VDW.0>
-0.672612

>  <SCORE.INTRA.norm>
0.202996

>  <SCORE.RESTR>
0

>  <SCORE.RESTR.CAVITY>
0

>  <SCORE.RESTR.norm>
0

>  <SCORE.SYSTEM>
0

>  <SCORE.SYSTEM.CONST>
0

>  <SCORE.SYSTEM.DIHEDRAL>
0

>  <SCORE.SYSTEM.SOLV>
0

>  <SCORE.SYSTEM.norm>
0

>  <SCORE.heavy>
10

>  <SCORE.norm>
-0.613802

>  <RMSD>
5.700

$$$$
ligand
 OpenBabel11021811473D
libRbt.so/2013.1/901 2013/11/27
 10  9  0  0  0  0  0  0  0  0999 V2000
   28.6498   14.9477   17.0510 N   0  0  0  0  0  0  0  0  0  0  0  0
   27.8719   14.1563   18.0456 C   0  0  2  0  0  0  0  0  0  0  0  0
   27.2489   12.9228   17.4072 C   0  0  0  0  0  0  0  0  0  0  0  0
   26.0826   12.9068   17.0107 O   0  0  0  0  0  0  0  0  0  0  0  0
   26.8050   15.0206   18.7139 C   0  0  0  0  0  0  0  0  0  0  0  0
   27.3762   16.2491   19.3834 C   0  0  0  0  0  0  0  0  0  0  0  0
   27.8624   15.9511   20.7766 C   0  0  0  0  0  0  0  0  0  0  0  0
   29.1102   15.0866   20.7389 C   0  0  0  0  0  0  0  0  0  0  0  0
   29.5404   14.6661   22.0979 N   0  0  0  0  0  0  0  0  0  0  0  0
   27.9155   11.9009   17.2370 O   0  0  0  0  0  0  0  0  0  0  0  0
  2  1  1  6  0  0  0
  2  3  1  0  0  0  0
  2  5  1  0  0  0  0
  3  4  1  0  0  0  0
  3 10  1  0  0  0  0
  5  6  1  0  0  0  0
  6  7  1  0  0  0  0
  7  8  1  0  0  0  0
  8  9  1  0  0  0  0
M  END
>  <CHROM.1>
-96.72150801,-56.71034289,-84.81133671,70.13445387,-174.50841377,27.83059370
14.34784184,18.82414236,2.09044318,0.89683572,-2.55912792

>  <Name>
ligand

>  <RI>
0

>  <Rbt.Current_Directory>
/home/itssahil/PROJECTS/Mol_Feturizer/New_Systems/rnas/3DIX

>  <Rbt.Executable>
rbdock ($Id: //depot/dev/client3/rdock/2013.1/src/exe/rbdock.cxx#4 $)

>  <Rbt.Library>
libRbt.so (2013.1, Build901 2013/11/27)

>  <Rbt.Parameter_File>
/export/apps/rDock/src/rDock_2013.1_src/data/scripts/dock_solv.prm

>  <Rbt.Receptor>
prm/blind_docking_40.prm

>  <SCORE>
-5.16597

>  <SCORE.INTER>
-7.37039

>  <SCORE.INTER.CONST>
1

>  <SCORE.INTER.POLAR>
0

>  <SCORE.INTER.ROT>
5

>  <SCORE.INTER.SOLV>
18.0776

>  <SCORE.INTER.VDW>
-17.8728

>  <SCORE.INTER.norm>
-0.737039

>  <SCORE.INTRA>
2.1708

>  <SCORE.INTRA.DIHEDRAL>
0.956993

>  <SCORE.INTRA.DIHEDRAL.0>
3.281

>  <SCORE.INTRA.POLAR>
0

>  <SCORE.INTRA.POLAR.0>
0

>  <SCORE.INTRA.REPUL>
0

>  <SCORE.INTRA.REPUL.0>
0

>  <SCORE.INTRA.SOLV>
0.879163

>  <SCORE.INTRA.SOLV.lig_0>
-31.9458

>  <SCORE.INTRA.VDW>
1.25272

>  <SCORE.INTRA.VDW.0>
-0.672612

>  <SCORE.INTRA.norm>
0.21708

>  <SCORE.RESTR>
0.0336272

>  <SCORE.RESTR.CAVITY>
0.0336272

>  <SCORE.RESTR.norm>
0.00336272

>  <SCORE.SYSTEM>
0

>  <SCORE.SYSTEM.CONST>
0

>  <SCORE.SYSTEM.DIHEDRAL>
0

>  <SCORE.SYSTEM.SOLV>
0

>  <SCORE.SYSTEM.norm>
0

>  <SCORE.heavy>
10

>  <SCORE.norm>
-0.516597

>  <RMSD>
5.765

$$$$
ligand
 OpenBabel11021811473D
libRbt.so/2013.1/901 2013/11/27
 10  9  0  0  0  0  0  0  0  0999 V2000
   28.8378   14.7286   17.1051 N   0  0  0  0  0  0  0  0  0  0  0  0
   27.4565   14.7274   17.6641 C   0  0  2  0  0  0  0  0  0  0  0  0
   27.3639   15.5907   18.9144 C   0  0  0  0  0  0  0  0  0  0  0  0
   26.3864   15.5587   19.6635 O   0  0  0  0  0  0  0  0  0  0  0  0
   26.9868   13.3029   17.9506 C   0  0  0  0  0  0  0  0  0  0  0  0
   26.6006   12.5472   16.7002 C   0  0  0  0  0  0  0  0  0  0  0  0
   26.2193   11.1228   17.0036 C   0  0  0  0  0  0  0  0  0  0  0  0
   27.4560   10.2643   17.2029 C   0  0  0  0  0  0  0  0  0  0  0  0
   27.1124    8.8505   17.5054 N   0  0  0  0  0  0  0  0  0  0  0  0
   28.2941   16.3326   19.2340 O   0  0  0  0  0  0  0  0  0  0  0  0
  2  1  1  1  0  0  0
  2  3  1  0  0  0  0
  2  5  1  0  0  0  0
  3  4  1  0  0  0  0
  3 10  1  0  0  0  0
  5  6  1  0  0  0  0
  6  7  1  0  0  0  0
  7  8  1  0  0  0  0
  8  9  1  0  0  0  0
M  END
>  <CHROM.1>
-167.57626768,-75.73557516,176.65316823,-78.99158032,179.96223194,27.27045386
13.33403660,17.92507610,-1.42144919,-0.71053814,-2.75190129

>  <Name>
ligand

>  <RI>
0

>  <Rbt.Current_Directory>
/home/itssahil/PROJECTS/Mol_Feturizer/New_Systems/rnas/3DIX

>  <Rbt.Executable>
rbdock ($Id: //depot/dev/client3/rdock/2013.1/src/exe/rbdock.cxx#4 $)

>  <Rbt.Library>
libRbt.so (2013.1, Build901 2013/11/27)

>  <Rbt.Parameter_File>
/export/apps/rDock/src/rDock_2013.1_src/data/scripts/dock_solv.prm

>  <Rbt.Receptor>
prm/blind_docking_40.prm

>  <SCORE>
-7.18009

>  <SCORE.INTER>
-7.65827

>  <SCORE.INTER.CONST>
1

>  <SCORE.INTER.POLAR>
0

>  <SCORE.INTER.ROT>
5

>  <SCORE.INTER.SOLV>
17.7676

>  <SCORE.INTER.VDW>
-17.9614

>  <SCORE.INTER.norm>
-0.765827

>  <SCORE.INTRA>
0.478183

>  <SCORE.INTRA.DIHEDRAL>
0.641128

>  <SCORE.INTRA.DIHEDRAL.0>
3.281

>  <SCORE.INTRA.POLAR>
0

>  <SCORE.INTRA.POLAR.0>
0

>  <SCORE.INTRA.REPUL>
0

>  <SCORE.INTRA.REPUL.0>
0

>  <SCORE.INTRA.SOLV>
-0.604254

>  <SCORE.INTRA.SOLV.lig_0>
-31.9458

>  <SCORE.INTRA.VDW>
0.459746

>  <SCORE.INTRA.VDW.0>
-0.672612

>  <SCORE.INTRA.norm>
0.0478183

>  <SCORE.RESTR>
0

>  <SCORE.RESTR.CAVITY>
0

>  <SCORE.RESTR.norm>
0

>  <SCORE.SYSTEM>
0

>  <SCORE.SYSTEM.CONST>
0

>  <SCORE.SYSTEM.DIHEDRAL>
0

>  <SCORE.SYSTEM.SOLV>
0

>  <SCORE.SYSTEM.norm>
0

>  <SCORE.heavy>
10

>  <SCORE.norm>
-0.718009

>  <RMSD>
5.802

$$$$
ligand
 OpenBabel11021811473D
libRbt.so/2013.1/901 2013/11/27
 10  9  0  0  0  0  0  0  0  0999 V2000
   27.9903   15.3316   17.1654 N   0  0  0  0  0  0  0  0  0  0  0  0
   27.8453   14.1947   18.1179 C   0  0  2  0  0  0  0  0  0  0  0  0
   27.2513   12.9713   17.4341 C   0  0  0  0  0  0  0  0  0  0  0  0
   26.1384   12.9898   16.9060 O   0  0  0  0  0  0  0  0  0  0  0  0
   27.0075   14.6021   19.3278 C   0  0  0  0  0  0  0  0  0  0  0  0
   27.8110   14.6661   20.6062 C   0  0  0  0  0  0  0  0  0  0  0  0
   28.8137   15.7886   20.5802 C   0  0  0  0  0  0  0  0  0  0  0  0
   29.6662   15.7793   21.8369 C   0  0  0  0  0  0  0  0  0  0  0  0
   30.6527   16.8907   21.8516 N   0  0  0  0  0  0  0  0  0  0  0  0
   27.8920   11.9216   17.3603 O   0  0  0  0  0  0  0  0  0  0  0  0
  2  1  1  6  0  0  0
  2  3  1  0  0  0  0
  2  5  1  0  0  0  0
  3  4  1  0  0  0  0
  3 10  1  0  0  0  0
  5  6  1  0  0  0  0
  6  7  1  0  0  0  0
  7  8  1  0  0  0  0
  8  9  1  0  0  0  0
M  END
>  <CHROM.1>
-60.20385232,-111.66721153,67.67332140,-176.47996401,-179.06326664,28.09007938
14.47989437,19.09424195,-2.97078861,1.10649635,2.31353177

>  <Name>
ligand

>  <RI>
0

>  <Rbt.Current_Directory>
/home/itssahil/PROJECTS/Mol_Feturizer/New_Systems/rnas/3DIX

>  <Rbt.Executable>
rbdock ($Id: //depot/dev/client3/rdock/2013.1/src/exe/rbdock.cxx#4 $)

>  <Rbt.Library>
libRbt.so (2013.1, Build901 2013/11/27)

>  <Rbt.Parameter_File>
/export/apps/rDock/src/rDock_2013.1_src/data/scripts/dock_solv.prm

>  <Rbt.Receptor>
prm/blind_docking_60.prm

>  <SCORE>
-7.6274

>  <SCORE.INTER>
-9.3669

>  <SCORE.INTER.CONST>
1

>  <SCORE.INTER.POLAR>
0

>  <SCORE.INTER.ROT>
5

>  <SCORE.INTER.SOLV>
14.9343

>  <SCORE.INTER.VDW>
-18.156

>  <SCORE.INTER.norm>
-0.93669

>  <SCORE.INTRA>
1.7395

>  <SCORE.INTRA.DIHEDRAL>
4.02648

>  <SCORE.INTRA.DIHEDRAL.0>
3.281

>  <SCORE.INTRA.POLAR>
0

>  <SCORE.INTRA.POLAR.0>
0

>  <SCORE.INTRA.REPUL>
0

>  <SCORE.INTRA.REPUL.0>
0

>  <SCORE.INTRA.SOLV>
-0.40946

>  <SCORE.INTRA.SOLV.lig_0>
-31.9458

>  <SCORE.INTRA.VDW>
-0.0690134

>  <SCORE.INTRA.VDW.0>
-0.672612

>  <SCORE.INTRA.norm>
0.17395

>  <SCORE.RESTR>
0

>  <SCORE.RESTR.CAVITY>
0

>  <SCORE.RESTR.norm>
0

>  <SCORE.SYSTEM>
0

>  <SCORE.SYSTEM.CONST>
0

>  <SCORE.SYSTEM.DIHEDRAL>
0

>  <SCORE.SYSTEM.SOLV>
0

>  <SCORE.SYSTEM.norm>
0

>  <SCORE.heavy>
10

>  <SCORE.norm>
-0.76274

>  <RMSD>
5.901

$$$$
ligand
 OpenBabel11021811473D
libRbt.so/2013.1/901 2013/11/27
 10  9  0  0  0  0  0  0  0  0999 V2000
   28.2415   14.1257   19.4241 N   0  0  0  0  0  0  0  0  0  0  0  0
   28.2004   14.2609   17.9406 C   0  0  2  0  0  0  0  0  0  0  0  0
   28.1867   15.7231   17.5176 C   0  0  0  0  0  0  0  0  0  0  0  0
   28.0330   16.6393   18.3267 O   0  0  0  0  0  0  0  0  0  0  0  0
   27.0013   13.5152   17.3593 C   0  0  0  0  0  0  0  0  0  0  0  0
   27.2304   12.0254   17.2501 C   0  0  0  0  0  0  0  0  0  0  0  0
   25.9610   11.2879   16.9173 C   0  0  0  0  0  0  0  0  0  0  0  0
   26.1258    9.7969   17.1537 C   0  0  0  0  0  0  0  0  0  0  0  0
   27.0886    9.1830   16.2026 N   0  0  0  0  0  0  0  0  0  0  0  0
   28.3652   16.0363   16.3395 O   0  0  0  0  0  0  0  0  0  0  0  0
  2  1  1  1  0  0  0
  2  3  1  0  0  0  0
  2  5  1  0  0  0  0
  3  4  1  0  0  0  0
  3 10  1  0  0  0  0
  5  6  1  0  0  0  0
  6  7  1  0  0  0  0
  7  8  1  0  0  0  0
  8  9  1  0  0  0  0
M  END
>  <CHROM.1>
-9.64851261,-79.24640042,169.53941772,-165.73106201,-67.16972589,27.44842862
13.30353155,17.43535131,-0.11292058,1.29382516,1.85776954

>  <Name>
ligand

>  <RI>
0

>  <Rbt.Current_Directory>
/home/itssahil/PROJECTS/Mol_Feturizer/New_Systems/rnas/3DIX

>  <Rbt.Executable>
rbdock ($Id: //depot/dev/client3/rdock/2013.1/src/exe/rbdock.cxx#4 $)

>  <Rbt.Library>
libRbt.so (2013.1, Build901 2013/11/27)

>  <Rbt.Parameter_File>
/export/apps/rDock/src/rDock_2013.1_src/data/scripts/dock_solv.prm

>  <Rbt.Receptor>
prm/blind_docking_40.prm

>  <SCORE>
-7.07012

>  <SCORE.INTER>
-7.55362

>  <SCORE.INTER.CONST>
1

>  <SCORE.INTER.POLAR>
0

>  <SCORE.INTER.ROT>
5

>  <SCORE.INTER.SOLV>
17.9734

>  <SCORE.INTER.VDW>
-17.9602

>  <SCORE.INTER.norm>
-0.755362

>  <SCORE.INTRA>
0.483503

>  <SCORE.INTRA.DIHEDRAL>
1.08302

>  <SCORE.INTRA.DIHEDRAL.0>
3.281

>  <SCORE.INTRA.POLAR>
0

>  <SCORE.INTRA.POLAR.0>
0

>  <SCORE.INTRA.REPUL>
0

>  <SCORE.INTRA.REPUL.0>
0

>  <SCORE.INTRA.SOLV>
0.00397649

>  <SCORE.INTRA.SOLV.lig_0>
-31.9458

>  <SCORE.INTRA.VDW>
-0.0599932

>  <SCORE.INTRA.VDW.0>
-0.672612

>  <SCORE.INTRA.norm>
0.0483503

>  <SCORE.RESTR>
0

>  <SCORE.RESTR.CAVITY>
0

>  <SCORE.RESTR.norm>
0

>  <SCORE.SYSTEM>
0

>  <SCORE.SYSTEM.CONST>
0

>  <SCORE.SYSTEM.DIHEDRAL>
0

>  <SCORE.SYSTEM.SOLV>
0

>  <SCORE.SYSTEM.norm>
0

>  <SCORE.heavy>
10

>  <SCORE.norm>
-0.707012

>  <RMSD>
5.915

$$$$
ligand
 OpenBabel11021811473D
libRbt.so/2013.1/901 2013/11/27
 10  9  0  0  0  0  0  0  0  0999 V2000
   28.1568   14.2504   19.5153 N   0  0  0  0  0  0  0  0  0  0  0  0
   28.2033   14.2700   18.0259 C   0  0  2  0  0  0  0  0  0  0  0  0
   28.1736   15.6941   17.4892 C   0  0  0  0  0  0  0  0  0  0  0  0
   28.0052   16.6690   18.2232 O   0  0  0  0  0  0  0  0  0  0  0  0
   27.0643   13.4421   17.4351 C   0  0  0  0  0  0  0  0  0  0  0  0
   27.4361   11.9921   17.2272 C   0  0  0  0  0  0  0  0  0  0  0  0
   26.2254   11.1371   16.9638 C   0  0  0  0  0  0  0  0  0  0  0  0
   26.6030    9.6670   16.9185 C   0  0  0  0  0  0  0  0  0  0  0  0
   25.4099    8.7859   16.8247 N   0  0  0  0  0  0  0  0  0  0  0  0
   28.3533   15.9159   16.2907 O   0  0  0  0  0  0  0  0  0  0  0  0
  2  1  1  1  0  0  0
  2  3  1  0  0  0  0
  2  5  1  0  0  0  0
  3  4  1  0  0  0  0
  3 10  1  0  0  0  0
  5  6  1  0  0  0  0
  6  7  1  0  0  0  0
  7  8  1  0  0  0  0
  8  9  1  0  0  0  0
M  END
>  <CHROM.1>
-6.22565748,-89.58143000,166.31149270,-173.43215714,173.08359107,27.36850895
13.22614118,17.48082213,-0.25747468,1.23158350,1.97952709

>  <Name>
ligand

>  <RI>
0

>  <Rbt.Current_Directory>
/home/itssahil/PROJECTS/Mol_Feturizer/New_Systems/rnas/3DIX

>  <Rbt.Executable>
rbdock ($Id: //depot/dev/client3/rdock/2013.1/src/exe/rbdock.cxx#4 $)

>  <Rbt.Library>
libRbt.so (2013.1, Build901 2013/11/27)

>  <Rbt.Parameter_File>
/export/apps/rDock/src/rDock_2013.1_src/data/scripts/dock_solv.prm

>  <Rbt.Receptor>
prm/pocket_docking_8.prm

>  <SCORE>
-9.3025

>  <SCORE.INTER>
-9.76968

>  <SCORE.INTER.CONST>
1

>  <SCORE.INTER.POLAR>
0

>  <SCORE.INTER.ROT>
5

>  <SCORE.INTER.SOLV>
13.403

>  <SCORE.INTER.VDW>
-17.9141

>  <SCORE.INTER.norm>
-0.976968

>  <SCORE.INTRA>
0.46718

>  <SCORE.INTRA.DIHEDRAL>
2.21332

>  <SCORE.INTRA.DIHEDRAL.0>
3.281

>  <SCORE.INTRA.POLAR>
0

>  <SCORE.INTRA.POLAR.0>
0

>  <SCORE.INTRA.REPUL>
0

>  <SCORE.INTRA.REPUL.0>
0

>  <SCORE.INTRA.SOLV>
-0.947274

>  <SCORE.INTRA.SOLV.lig_0>
-31.9458

>  <SCORE.INTRA.VDW>
-0.165843

>  <SCORE.INTRA.VDW.0>
-0.672612

>  <SCORE.INTRA.norm>
0.046718

>  <SCORE.RESTR>
0

>  <SCORE.RESTR.CAVITY>
0

>  <SCORE.RESTR.norm>
0

>  <SCORE.SYSTEM>
0

>  <SCORE.SYSTEM.CONST>
0

>  <SCORE.SYSTEM.DIHEDRAL>
0

>  <SCORE.SYSTEM.SOLV>
0

>  <SCORE.SYSTEM.norm>
0

>  <SCORE.heavy>
10

>  <SCORE.norm>
-0.93025

>  <RMSD>
5.968

$$$$
ligand
 OpenBabel11021811473D
libRbt.so/2013.1/901 2013/11/27
 10  9  0  0  0  0  0  0  0  0999 V2000
   28.0562   14.1926   19.5234 N   0  0  0  0  0  0  0  0  0  0  0  0
   28.1663   14.2019   18.0373 C   0  0  2  0  0  0  0  0  0  0  0  0
   28.1620   15.6224   17.4902 C   0  0  0  0  0  0  0  0  0  0  0  0
   28.0031   16.6051   18.2160 O   0  0  0  0  0  0  0  0  0  0  0  0
   27.0521   13.3717   17.4040 C   0  0  0  0  0  0  0  0  0  0  0  0
   27.4375   11.9244   17.2027 C   0  0  0  0  0  0  0  0  0  0  0  0
   26.2329   11.0531   16.9662 C   0  0  0  0  0  0  0  0  0  0  0  0
   26.6361    9.5930   16.8588 C   0  0  0  0  0  0  0  0  0  0  0  0
   25.4573    8.6925   16.7692 N   0  0  0  0  0  0  0  0  0  0  0  0
   28.3536   15.8329   16.2915 O   0  0  0  0  0  0  0  0  0  0  0  0
  2  1  1  1  0  0  0
  2  3  1  0  0  0  0
  2  5  1  0  0  0  0
  3  4  1  0  0  0  0
  3 10  1  0  0  0  0
  5  6  1  0  0  0  0
  6  7  1  0  0  0  0
  7  8  1  0  0  0  0
  8  9  1  0  0  0  0
M  END
>  <CHROM.1>
-4.04939131,-90.45077411,163.29506740,-176.24246977,173.94945592,27.36157204
13.15267945,17.46530245,-0.13904361,1.24853293,1.86081353

>  <Name>
ligand

>  <RI>
0

>  <Rbt.Current_Directory>
/home/itssahil/PROJECTS/Mol_Feturizer/New_Systems/rnas/3DIX

>  <Rbt.Executable>
rbdock ($Id: //depot/dev/client3/rdock/2013.1/src/exe/rbdock.cxx#4 $)

>  <Rbt.Library>
libRbt.so (2013.1, Build901 2013/11/27)

>  <Rbt.Parameter_File>
/export/apps/rDock/src/rDock_2013.1_src/data/scripts/dock_solv.prm

>  <Rbt.Receptor>
prm/blind_docking_40.prm

>  <SCORE>
-9.22635

>  <SCORE.INTER>
-9.86901

>  <SCORE.INTER.CONST>
1

>  <SCORE.INTER.POLAR>
0

>  <SCORE.INTER.ROT>
5

>  <SCORE.INTER.SOLV>
13.6385

>  <SCORE.INTER.VDW>
-18.0588

>  <SCORE.INTER.norm>
-0.986901

>  <SCORE.INTRA>
0.642661

>  <SCORE.INTRA.DIHEDRAL>
2.5206

>  <SCORE.INTRA.DIHEDRAL.0>
3.281

>  <SCORE.INTRA.POLAR>
0

>  <SCORE.INTRA.POLAR.0>
0

>  <SCORE.INTRA.REPUL>
0

>  <SCORE.INTRA.REPUL.0>
0

>  <SCORE.INTRA.SOLV>
-0.937962

>  <SCORE.INTRA.SOLV.lig_0>
-31.9458

>  <SCORE.INTRA.VDW>
-0.148658

>  <SCORE.INTRA.VDW.0>
-0.672612

>  <SCORE.INTRA.norm>
0.0642661

>  <SCORE.RESTR>
0

>  <SCORE.RESTR.CAVITY>
0

>  <SCORE.RESTR.norm>
0

>  <SCORE.SYSTEM>
0

>  <SCORE.SYSTEM.CONST>
0

>  <SCORE.SYSTEM.DIHEDRAL>
0

>  <SCORE.SYSTEM.SOLV>
0

>  <SCORE.SYSTEM.norm>
0

>  <SCORE.heavy>
10

>  <SCORE.norm>
-0.922635

>  <RMSD>
6.025

$$$$
ligand
 OpenBabel11021811473D
libRbt.so/2013.1/901 2013/11/27
 10  9  0  0  0  0  0  0  0  0999 V2000
   27.9316   14.2140   19.5656 N   0  0  0  0  0  0  0  0  0  0  0  0
   28.1114   14.2034   18.0864 C   0  0  2  0  0  0  0  0  0  0  0  0
   28.1430   15.6167   17.5218 C   0  0  0  0  0  0  0  0  0  0  0  0
   27.9731   16.6105   18.2298 O   0  0  0  0  0  0  0  0  0  0  0  0
   27.0223   13.3724   17.4118 C   0  0  0  0  0  0  0  0  0  0  0  0
   27.4281   11.9328   17.1963 C   0  0  0  0  0  0  0  0  0  0  0  0
   26.2343   11.0429   16.9750 C   0  0  0  0  0  0  0  0  0  0  0  0
   26.6549    9.5858   16.8967 C   0  0  0  0  0  0  0  0  0  0  0  0
   25.4868    8.6676   16.8642 N   0  0  0  0  0  0  0  0  0  0  0  0
   28.3762   15.8094   16.3275 O   0  0  0  0  0  0  0  0  0  0  0  0
  2  1  1  1  0  0  0
  2  3  1  0  0  0  0
  2  5  1  0  0  0  0
  3  4  1  0  0  0  0
  3 10  1  0  0  0  0
  5  6  1  0  0  0  0
  6  7  1  0  0  0  0
  7  8  1  0  0  0  0
  8  9  1  0  0  0  0
M  END
>  <CHROM.1>
-3.16079225,-92.79018791,160.80968195,-174.45726505,172.22702093,27.34271933
13.14909708,17.49657120,0.03688156,1.25889592,1.67131738

>  <Name>
ligand

>  <RI>
0

>  <Rbt.Current_Directory>
/home/itssahil/PROJECTS/Mol_Feturizer/New_Systems/rnas/3DIX

>  <Rbt.Executable>
rbdock ($Id: //depot/dev/client3/rdock/2013.1/src/exe/rbdock.cxx#4 $)

>  <Rbt.Library>
libRbt.so (2013.1, Build901 2013/11/27)

>  <Rbt.Parameter_File>
/export/apps/rDock/src/rDock_2013.1_src/data/scripts/dock_solv.prm

>  <Rbt.Receptor>
prm/blind_docking_40.prm

>  <SCORE>
-9.19025

>  <SCORE.INTER>
-10.2419

>  <SCORE.INTER.CONST>
1

>  <SCORE.INTER.POLAR>
0

>  <SCORE.INTER.ROT>
5

>  <SCORE.INTER.SOLV>
13.3818

>  <SCORE.INTER.VDW>
-18.2219

>  <SCORE.INTER.norm>
-1.02419

>  <SCORE.INTRA>
1.05166

>  <SCORE.INTRA.DIHEDRAL>
3.34784

>  <SCORE.INTRA.DIHEDRAL.0>
3.281

>  <SCORE.INTRA.POLAR>
0

>  <SCORE.INTRA.POLAR.0>
0

>  <SCORE.INTRA.REPUL>
0

>  <SCORE.INTRA.REPUL.0>
0

>  <SCORE.INTRA.SOLV>
-0.949896

>  <SCORE.INTRA.SOLV.lig_0>
-31.9458

>  <SCORE.INTRA.VDW>
-0.147313

>  <SCORE.INTRA.VDW.0>
-0.672612

>  <SCORE.INTRA.norm>
0.105166

>  <SCORE.RESTR>
0

>  <SCORE.RESTR.CAVITY>
0

>  <SCORE.RESTR.norm>
0

>  <SCORE.SYSTEM>
0

>  <SCORE.SYSTEM.CONST>
0

>  <SCORE.SYSTEM.DIHEDRAL>
0

>  <SCORE.SYSTEM.SOLV>
0

>  <SCORE.SYSTEM.norm>
0

>  <SCORE.heavy>
10

>  <SCORE.norm>
-0.919025

>  <RMSD>
6.029

$$$$
ligand
 OpenBabel11021811473D
libRbt.so/2013.1/901 2013/11/27
 10  9  0  0  0  0  0  0  0  0999 V2000
   24.8877   11.6092   16.6846 N   0  0  0  0  0  0  0  0  0  0  0  0
   26.3560   11.8356   16.8002 C   0  0  2  0  0  0  0  0  0  0  0  0
   27.0561   10.6301   17.4115 C   0  0  0  0  0  0  0  0  0  0  0  0
   26.4375    9.7339   17.9876 O   0  0  0  0  0  0  0  0  0  0  0  0
   26.6499   13.1005   17.6036 C   0  0  0  0  0  0  0  0  0  0  0  0
   28.0985   13.5241   17.5266 C   0  0  0  0  0  0  0  0  0  0  0  0
   28.3479   14.8019   18.2824 C   0  0  0  0  0  0  0  0  0  0  0  0
   28.2021   14.5812   19.7777 C   0  0  0  0  0  0  0  0  0  0  0  0
   28.4512   15.8242   20.5533 N   0  0  0  0  0  0  0  0  0  0  0  0
   28.2774   10.4996   17.3160 O   0  0  0  0  0  0  0  0  0  0  0  0
  2  1  1  1  0  0  0
  2  3  1  0  0  0  0
  2  5  1  0  0  0  0
  3  4  1  0  0  0  0
  3 10  1  0  0  0  0
  5  6  1  0  0  0  0
  6  7  1  0  0  0  0
  7  8  1  0  0  0  0
  8  9  1  0  0  0  0
M  END
>  <CHROM.1>
-14.48827372,-168.85658094,177.75972815,68.73778040,179.63298734,27.28857853
12.57780524,18.00145383,1.98219476,0.54157331,-2.88921572

>  <Name>
ligand

>  <RI>
0

>  <Rbt.Current_Directory>
/home/itssahil/PROJECTS/Mol_Feturizer/New_Systems/rnas/3DIX

>  <Rbt.Executable>
rbdock ($Id: //depot/dev/client3/rdock/2013.1/src/exe/rbdock.cxx#4 $)

>  <Rbt.Library>
libRbt.so (2013.1, Build901 2013/11/27)

>  <Rbt.Parameter_File>
/export/apps/rDock/src/rDock_2013.1_src/data/scripts/dock_solv.prm

>  <Rbt.Receptor>
prm/blind_docking_40.prm

>  <SCORE>
-6.42761

>  <SCORE.INTER>
-5.99418

>  <SCORE.INTER.CONST>
1

>  <SCORE.INTER.POLAR>
0

>  <SCORE.INTER.ROT>
5

>  <SCORE.INTER.SOLV>
16.0965

>  <SCORE.INTER.VDW>
-16.2949

>  <SCORE.INTER.norm>
-0.599418

>  <SCORE.INTRA>
-0.435464

>  <SCORE.INTRA.DIHEDRAL>
-0.946596

>  <SCORE.INTRA.DIHEDRAL.0>
3.281

>  <SCORE.INTRA.POLAR>
0

>  <SCORE.INTRA.POLAR.0>
0

>  <SCORE.INTRA.REPUL>
0

>  <SCORE.INTRA.REPUL.0>
0

>  <SCORE.INTRA.SOLV>
-1.30568

>  <SCORE.INTRA.SOLV.lig_0>
-31.9458

>  <SCORE.INTRA.VDW>
0.690673

>  <SCORE.INTRA.VDW.0>
-0.672612

>  <SCORE.INTRA.norm>
-0.0435464

>  <SCORE.RESTR>
0.00202952

>  <SCORE.RESTR.CAVITY>
0.00202952

>  <SCORE.RESTR.norm>
0.000202952

>  <SCORE.SYSTEM>
0

>  <SCORE.SYSTEM.CONST>
0

>  <SCORE.SYSTEM.DIHEDRAL>
0

>  <SCORE.SYSTEM.SOLV>
0

>  <SCORE.SYSTEM.norm>
0

>  <SCORE.heavy>
10

>  <SCORE.norm>
-0.642761

>  <RMSD>
7.235

$$$$
ligand
 OpenBabel11021811473D
libRbt.so/2013.1/901 2013/11/27
 10  9  0  0  0  0  0  0  0  0999 V2000
   25.2629   11.8793   16.8398 N   0  0  0  0  0  0  0  0  0  0  0  0
   26.7241   11.7024   16.6074 C   0  0  2  0  0  0  0  0  0  0  0  0
   27.1472   10.2551   16.8155 C   0  0  0  0  0  0  0  0  0  0  0  0
   27.1461    9.7241   17.9271 O   0  0  0  0  0  0  0  0  0  0  0  0
   27.5344   12.6397   17.5001 C   0  0  0  0  0  0  0  0  0  0  0  0
   27.1176   14.0863   17.3675 C   0  0  0  0  0  0  0  0  0  0  0  0
   27.9246   14.9849   18.2661 C   0  0  0  0  0  0  0  0  0  0  0  0
   27.5642   14.7547   19.7232 C   0  0  0  0  0  0  0  0  0  0  0  0
   28.3419   15.6318   20.6367 N   0  0  0  0  0  0  0  0  0  0  0  0
   27.4759    9.5543   15.8571 O   0  0  0  0  0  0  0  0  0  0  0  0
  2  1  1  1  0  0  0
  2  3  1  0  0  0  0
  2  5  1  0  0  0  0
  3  4  1  0  0  0  0
  3 10  1  0  0  0  0
  5  6  1  0  0  0  0
  6  7  1  0  0  0  0
  7  8  1  0  0  0  0
  8  9  1  0  0  0  0
M  END
>  <CHROM.1>
-68.83858689,-53.70976790,179.53577408,-70.08962528,-179.80367062,27.23109828
12.47855110,17.75125755,1.87704181,1.01053883,-2.88451849

>  <Name>
ligand

>  <RI>
0

>  <Rbt.Current_Directory>
/home/itssahil/PROJECTS/Mol_Feturizer/New_Systems/rnas/3DIX

>  <Rbt.Executable>
rbdock ($Id: //depot/dev/client3/rdock/2013.1/src/exe/rbdock.cxx#4 $)

>  <Rbt.Library>
libRbt.so (2013.1, Build901 2013/11/27)

>  <Rbt.Parameter_File>
/export/apps/rDock/src/rDock_2013.1_src/data/scripts/dock_solv.prm

>  <Rbt.Receptor>
prm/blind_docking_40.prm

>  <SCORE>
-8.29239

>  <SCORE.INTER>
-8.19169

>  <SCORE.INTER.CONST>
1

>  <SCORE.INTER.POLAR>
0

>  <SCORE.INTER.ROT>
5

>  <SCORE.INTER.SOLV>
16.1575

>  <SCORE.INTER.VDW>
-17.7803

>  <SCORE.INTER.norm>
-0.819169

>  <SCORE.INTRA>
-0.100701

>  <SCORE.INTRA.DIHEDRAL>
-1.26471

>  <SCORE.INTRA.DIHEDRAL.0>
3.281

>  <SCORE.INTRA.POLAR>
0

>  <SCORE.INTRA.POLAR.0>
0

>  <SCORE.INTRA.REPUL>
0

>  <SCORE.INTRA.REPUL.0>
0

>  <SCORE.INTRA.SOLV>
-0.304711

>  <SCORE.INTRA.SOLV.lig_0>
-31.9458

>  <SCORE.INTRA.VDW>
0.684011

>  <SCORE.INTRA.VDW.0>
-0.672612

>  <SCORE.INTRA.norm>
-0.0100701

>  <SCORE.RESTR>
0

>  <SCORE.RESTR.CAVITY>
0

>  <SCORE.RESTR.norm>
0

>  <SCORE.SYSTEM>
0

>  <SCORE.SYSTEM.CONST>
0

>  <SCORE.SYSTEM.DIHEDRAL>
0

>  <SCORE.SYSTEM.SOLV>
0

>  <SCORE.SYSTEM.norm>
0

>  <SCORE.heavy>
10

>  <SCORE.norm>
-0.829239

>  <RMSD>
7.417

$$$$
ligand
 OpenBabel11021811473D
libRbt.so/2013.1/901 2013/11/27
 10  9  0  0  0  0  0  0  0  0999 V2000
   25.0047    9.3685   16.8134 N   0  0  0  0  0  0  0  0  0  0  0  0
   26.2794   10.1401   16.7981 C   0  0  2  0  0  0  0  0  0  0  0  0
   27.2658    9.6013   17.8247 C   0  0  0  0  0  0  0  0  0  0  0  0
   28.4170   10.0301   17.9173 O   0  0  0  0  0  0  0  0  0  0  0  0
   26.0178   11.6276   17.0237 C   0  0  0  0  0  0  0  0  0  0  0  0
   27.2879   12.4362   17.1530 C   0  0  0  0  0  0  0  0  0  0  0  0
   27.0228   13.8065   17.7171 C   0  0  0  0  0  0  0  0  0  0  0  0
   28.3213   14.5680   17.9168 C   0  0  0  0  0  0  0  0  0  0  0  0
   28.1140   15.8448   18.6485 N   0  0  0  0  0  0  0  0  0  0  0  0
   26.9232    8.7304   18.6259 O   0  0  0  0  0  0  0  0  0  0  0  0
  2  1  1  1  0  0  0
  2  3  1  0  0  0  0
  2  5  1  0  0  0  0
  3  4  1  0  0  0  0
  3 10  1  0  0  0  0
  5  6  1  0  0  0  0
  6  7  1  0  0  0  0
  7  8  1  0  0  0  0
  8  9  1  0  0  0  0
M  END
>  <CHROM.1>
174.77325390,174.33577080,-165.40236842,176.54064172,-171.90334150,27.08517848
11.59188662,17.66482121,1.85732764,0.52581101,3.08605231

>  <Name>
ligand

>  <RI>
0

>  <Rbt.Current_Directory>
/home/itssahil/PROJECTS/Mol_Feturizer/New_Systems/rnas/3DIX

>  <Rbt.Executable>
rbdock ($Id: //depot/dev/client3/rdock/2013.1/src/exe/rbdock.cxx#4 $)

>  <Rbt.Library>
libRbt.so (2013.1, Build901 2013/11/27)

>  <Rbt.Parameter_File>
/export/apps/rDock/src/rDock_2013.1_src/data/scripts/dock_solv.prm

>  <Rbt.Receptor>
prm/blind_docking_40.prm

>  <SCORE>
-8.33903

>  <SCORE.INTER>
-8.35671

>  <SCORE.INTER.CONST>
1

>  <SCORE.INTER.POLAR>
0

>  <SCORE.INTER.ROT>
5

>  <SCORE.INTER.SOLV>
12.8444

>  <SCORE.INTER.VDW>
-16.7859

>  <SCORE.INTER.norm>
-0.835671

>  <SCORE.INTRA>
0.0176784

>  <SCORE.INTRA.DIHEDRAL>
-0.530668

>  <SCORE.INTRA.DIHEDRAL.0>
3.281

>  <SCORE.INTRA.POLAR>
0

>  <SCORE.INTRA.POLAR.0>
0

>  <SCORE.INTRA.REPUL>
0

>  <SCORE.INTRA.REPUL.0>
0

>  <SCORE.INTRA.SOLV>
-1.55456

>  <SCORE.INTRA.SOLV.lig_0>
-31.9458

>  <SCORE.INTRA.VDW>
1.06029

>  <SCORE.INTRA.VDW.0>
-0.672612

>  <SCORE.INTRA.norm>
0.00176784

>  <SCORE.RESTR>
0

>  <SCORE.RESTR.CAVITY>
0

>  <SCORE.RESTR.norm>
0

>  <SCORE.SYSTEM>
0

>  <SCORE.SYSTEM.CONST>
0

>  <SCORE.SYSTEM.DIHEDRAL>
0

>  <SCORE.SYSTEM.SOLV>
0

>  <SCORE.SYSTEM.norm>
0

>  <SCORE.heavy>
10

>  <SCORE.norm>
-0.833903

>  <RMSD>
7.909

$$$$
ligand
 OpenBabel11021811473D
libRbt.so/2013.1/901 2013/11/27
 10  9  0  0  0  0  0  0  0  0999 V2000
   24.9701   10.6663   17.1452 N   0  0  0  0  0  0  0  0  0  0  0  0
   26.3636   10.6049   16.6210 C   0  0  2  0  0  0  0  0  0  0  0  0
   26.9768    9.2285   16.8368 C   0  0  0  0  0  0  0  0  0  0  0  0
   27.1830    8.4482   15.9060 O   0  0  0  0  0  0  0  0  0  0  0  0
   27.2308   11.6918   17.2523 C   0  0  0  0  0  0  0  0  0  0  0  0
   26.6135   13.0678   17.1563 C   0  0  0  0  0  0  0  0  0  0  0  0
   27.2293   14.0263   18.1403 C   0  0  0  0  0  0  0  0  0  0  0  0
   28.5359   14.5844   17.6041 C   0  0  0  0  0  0  0  0  0  0  0  0
   28.3162   15.5938   16.5358 N   0  0  0  0  0  0  0  0  0  0  0  0
   27.3197    8.8648   17.9628 O   0  0  0  0  0  0  0  0  0  0  0  0
  2  1  1  1  0  0  0
  2  3  1  0  0  0  0
  2  5  1  0  0  0  0
  3  4  1  0  0  0  0
  3 10  1  0  0  0  0
  5  6  1  0  0  0  0
  6  7  1  0  0  0  0
  7  8  1  0  0  0  0
  8  9  1  0  0  0  0
M  END
>  <CHROM.1>
108.83060985,-51.46963080,161.52473028,81.64200672,74.49570810,27.08543106
11.63544680,17.11859145,1.77141873,-0.11283169,-3.04029993

>  <Name>
ligand

>  <RI>
0

>  <Rbt.Current_Directory>
/home/itssahil/PROJECTS/Mol_Feturizer/New_Systems/rnas/3DIX

>  <Rbt.Executable>
rbdock ($Id: //depot/dev/client3/rdock/2013.1/src/exe/rbdock.cxx#4 $)

>  <Rbt.Library>
libRbt.so (2013.1, Build901 2013/11/27)

>  <Rbt.Parameter_File>
/export/apps/rDock/src/rDock_2013.1_src/data/scripts/dock_solv.prm

>  <Rbt.Receptor>
prm/blind_docking_40.prm

>  <SCORE>
-1.42152

>  <SCORE.INTER>
-3.49015

>  <SCORE.INTER.CONST>
1

>  <SCORE.INTER.POLAR>
0

>  <SCORE.INTER.ROT>
5

>  <SCORE.INTER.SOLV>
21.26

>  <SCORE.INTER.VDW>
-16.3468

>  <SCORE.INTER.norm>
-0.349015

>  <SCORE.INTRA>
2.02634

>  <SCORE.INTRA.DIHEDRAL>
2.36294

>  <SCORE.INTRA.DIHEDRAL.0>
3.281

>  <SCORE.INTRA.POLAR>
0

>  <SCORE.INTRA.POLAR.0>
0

>  <SCORE.INTRA.REPUL>
0

>  <SCORE.INTRA.REPUL.0>
0

>  <SCORE.INTRA.SOLV>
0.615795

>  <SCORE.INTRA.SOLV.lig_0>
-31.9458

>  <SCORE.INTRA.VDW>
0.536974

>  <SCORE.INTRA.VDW.0>
-0.672612

>  <SCORE.INTRA.norm>
0.202634

>  <SCORE.RESTR>
0.0422855

>  <SCORE.RESTR.CAVITY>
0.0422855

>  <SCORE.RESTR.norm>
0.00422855

>  <SCORE.SYSTEM>
0

>  <SCORE.SYSTEM.CONST>
0

>  <SCORE.SYSTEM.DIHEDRAL>
0

>  <SCORE.SYSTEM.SOLV>
0

>  <SCORE.SYSTEM.norm>
0

>  <SCORE.heavy>
10

>  <SCORE.norm>
-0.142152

>  <RMSD>
8.175

$$$$
ligand
 OpenBabel11021811473D
libRbt.so/2013.1/901 2013/11/27
 10  9  0  0  0  0  0  0  0  0999 V2000
   27.2729    9.5831   16.3115 N   0  0  0  0  0  0  0  0  0  0  0  0
   26.2196   10.2050   17.1627 C   0  0  2  0  0  0  0  0  0  0  0  0
   24.8672    9.5416   16.9440 C   0  0  0  0  0  0  0  0  0  0  0  0
   24.7604    8.4069   16.4761 O   0  0  0  0  0  0  0  0  0  0  0  0
   26.1348   11.7088   16.9115 C   0  0  0  0  0  0  0  0  0  0  0  0
   27.3948   12.4440   17.3060 C   0  0  0  0  0  0  0  0  0  0  0  0
   27.1333   13.9047   17.5592 C   0  0  0  0  0  0  0  0  0  0  0  0
   28.3762   14.5892   18.1004 C   0  0  0  0  0  0  0  0  0  0  0  0
   28.0958   15.9736   18.5623 N   0  0  0  0  0  0  0  0  0  0  0  0
   23.8270   10.1183   17.2653 O   0  0  0  0  0  0  0  0  0  0  0  0
  2  1  1  6  0  0  0
  2  3  1  0  0  0  0
  2  5  1  0  0  0  0
  3  4  1  0  0  0  0
  3 10  1  0  0  0  0
  5  6  1  0  0  0  0
  6  7  1  0  0  0  0
  7  8  1  0  0  0  0
  8  9  1  0  0  0  0
M  END
>  <CHROM.1>
21.33828579,-64.08358924,-158.00486554,173.75397279,-170.95274393,26.37209581
11.62090428,17.25418525,-2.05531969,0.17541931,0.32730206

>  <Name>
ligand

>  <RI>
0

>  <Rbt.Current_Directory>
/home/itssahil/PROJECTS/Mol_Feturizer/New_Systems/rnas/3DIX

>  <Rbt.Executable>
rbdock ($Id: //depot/dev/client3/rdock/2013.1/src/exe/rbdock.cxx#4 $)

>  <Rbt.Library>
libRbt.so (2013.1, Build901 2013/11/27)

>  <Rbt.Parameter_File>
/export/apps/rDock/src/rDock_2013.1_src/data/scripts/dock_solv.prm

>  <Rbt.Receptor>
prm/blind_docking_40.prm

>  <SCORE>
-7.0942

>  <SCORE.INTER>
-7.27662

>  <SCORE.INTER.CONST>
1

>  <SCORE.INTER.POLAR>
0

>  <SCORE.INTER.ROT>
5

>  <SCORE.INTER.SOLV>
16.3036

>  <SCORE.INTER.VDW>
-17.219

>  <SCORE.INTER.norm>
-0.727662

>  <SCORE.INTRA>
0.182421

>  <SCORE.INTRA.DIHEDRAL>
0.506215

>  <SCORE.INTRA.DIHEDRAL.0>
3.281

>  <SCORE.INTRA.POLAR>
0

>  <SCORE.INTRA.POLAR.0>
0

>  <SCORE.INTRA.REPUL>
0

>  <SCORE.INTRA.REPUL.0>
0

>  <SCORE.INTRA.SOLV>
-0.760242

>  <SCORE.INTRA.SOLV.lig_0>
-31.9458

>  <SCORE.INTRA.VDW>
0.309434

>  <SCORE.INTRA.VDW.0>
-0.672612

>  <SCORE.INTRA.norm>
0.0182421

>  <SCORE.RESTR>
0

>  <SCORE.RESTR.CAVITY>
0

>  <SCORE.RESTR.norm>
0

>  <SCORE.SYSTEM>
0

>  <SCORE.SYSTEM.CONST>
0

>  <SCORE.SYSTEM.DIHEDRAL>
0

>  <SCORE.SYSTEM.SOLV>
0

>  <SCORE.SYSTEM.norm>
0

>  <SCORE.heavy>
10

>  <SCORE.norm>
-0.70942

>  <RMSD>
8.682

$$$$
ligand
 OpenBabel11021811473D
libRbt.so/2013.1/901 2013/11/27
 10  9  0  0  0  0  0  0  0  0999 V2000
   26.5145    8.0620   17.7494 N   0  0  0  0  0  0  0  0  0  0  0  0
   25.9487    9.4397   17.6990 C   0  0  2  0  0  0  0  0  0  0  0  0
   24.6378    9.4725   16.9260 C   0  0  0  0  0  0  0  0  0  0  0  0
   23.8141   10.3775   17.0683 O   0  0  0  0  0  0  0  0  0  0  0  0
   26.9564   10.4201   17.1030 C   0  0  0  0  0  0  0  0  0  0  0  0
   26.5019   11.8587   17.1916 C   0  0  0  0  0  0  0  0  0  0  0  0
   27.6626   12.8016   17.3646 C   0  0  0  0  0  0  0  0  0  0  0  0
   27.1760   14.1986   17.7076 C   0  0  0  0  0  0  0  0  0  0  0  0
   28.3012   15.1409   17.9415 N   0  0  0  0  0  0  0  0  0  0  0  0
   24.3760    8.5977   16.0989 O   0  0  0  0  0  0  0  0  0  0  0  0
  2  1  1  6  0  0  0
  2  3  1  0  0  0  0
  2  5  1  0  0  0  0
  3  4  1  0  0  0  0
  3 10  1  0  0  0  0
  5  6  1  0  0  0  0
  6  7  1  0  0  0  0
  7  8  1  0  0  0  0
  8  9  1  0  0  0  0
M  END
>  <CHROM.1>
158.85675733,-172.62647754,147.52713598,-169.49662258,177.58171614,26.15390571
11.02720352,17.26739776,-2.07466920,-0.26943020,-0.00098693

>  <Name>
ligand

>  <RI>
0

>  <Rbt.Current_Directory>
/home/itssahil/PROJECTS/Mol_Feturizer/New_Systems/rnas/3DIX

>  <Rbt.Executable>
rbdock ($Id: //depot/dev/client3/rdock/2013.1/src/exe/rbdock.cxx#4 $)

>  <Rbt.Library>
libRbt.so (2013.1, Build901 2013/11/27)

>  <Rbt.Parameter_File>
/export/apps/rDock/src/rDock_2013.1_src/data/scripts/dock_solv.prm

>  <Rbt.Receptor>
prm/blind_docking_40.prm

>  <SCORE>
-6.18373

>  <SCORE.INTER>
-6.54908

>  <SCORE.INTER.CONST>
1

>  <SCORE.INTER.POLAR>
0

>  <SCORE.INTER.ROT>
5

>  <SCORE.INTER.SOLV>
11.794

>  <SCORE.INTER.VDW>
-15.2307

>  <SCORE.INTER.norm>
-0.654908

>  <SCORE.INTRA>
0.365347

>  <SCORE.INTRA.DIHEDRAL>
2.27278

>  <SCORE.INTRA.DIHEDRAL.0>
3.281

>  <SCORE.INTRA.POLAR>
0

>  <SCORE.INTRA.POLAR.0>
0

>  <SCORE.INTRA.REPUL>
0

>  <SCORE.INTRA.REPUL.0>
0

>  <SCORE.INTRA.SOLV>
-1.55939

>  <SCORE.INTRA.SOLV.lig_0>
-31.9458

>  <SCORE.INTRA.VDW>
0.00865107

>  <SCORE.INTRA.VDW.0>
-0.672612

>  <SCORE.INTRA.norm>
0.0365347

>  <SCORE.RESTR>
0

>  <SCORE.RESTR.CAVITY>
0

>  <SCORE.RESTR.norm>
0

>  <SCORE.SYSTEM>
0

>  <SCORE.SYSTEM.CONST>
0

>  <SCORE.SYSTEM.DIHEDRAL>
0

>  <SCORE.SYSTEM.SOLV>
0

>  <SCORE.SYSTEM.norm>
0

>  <SCORE.heavy>
10

>  <SCORE.norm>
-0.618373

>  <RMSD>
9.043

$$$$
ligand
 OpenBabel11021811473D
libRbt.so/2013.1/901 2013/11/27
 10  9  0  0  0  0  0  0  0  0999 V2000
   28.7940    8.3349   28.0382 N   0  0  0  0  0  0  0  0  0  0  0  0
   29.4192    9.1169   26.9344 C   0  0  2  0  0  0  0  0  0  0  0  0
   29.3468   10.6131   27.2052 C   0  0  0  0  0  0  0  0  0  0  0  0
   28.3017   11.1688   27.5466 O   0  0  0  0  0  0  0  0  0  0  0  0
   28.7747    8.7752   25.5928 C   0  0  0  0  0  0  0  0  0  0  0  0
   27.2738    8.9521   25.5982 C   0  0  0  0  0  0  0  0  0  0  0  0
   26.6651    8.6003   24.2671 C   0  0  0  0  0  0  0  0  0  0  0  0
   26.7062    7.1002   24.0348 C   0  0  0  0  0  0  0  0  0  0  0  0
   26.0228    6.7106   22.7740 N   0  0  0  0  0  0  0  0  0  0  0  0
   30.3560   11.3147   27.1210 O   0  0  0  0  0  0  0  0  0  0  0  0
  2  1  1  1  0  0  0
  2  3  1  0  0  0  0
  2  5  1  0  0  0  0
  3  4  1  0  0  0  0
  3 10  1  0  0  0  0
  5  6  1  0  0  0  0
  6  7  1  0  0  0  0
  7  8  1  0  0  0  0
  8  9  1  0  0  0  0
M  END
>  <CHROM.1>
-48.85935202,54.74616300,-179.64631019,71.53732334,175.79772304,28.17292713
9.10746453,25.92533623,-0.44845072,0.96152697,2.95933713

>  <Name>
ligand

>  <RI>
0

>  <Rbt.Current_Directory>
/home/itssahil/PROJECTS/Mol_Feturizer/New_Systems/rnas/3DIX

>  <Rbt.Executable>
rbdock ($Id: //depot/dev/client3/rdock/2013.1/src/exe/rbdock.cxx#4 $)

>  <Rbt.Library>
libRbt.so (2013.1, Build901 2013/11/27)

>  <Rbt.Parameter_File>
/export/apps/rDock/src/rDock_2013.1_src/data/scripts/dock_solv.prm

>  <Rbt.Receptor>
prm/blind_docking_80.prm

>  <SCORE>
-5.2605

>  <SCORE.INTER>
-5.18979

>  <SCORE.INTER.CONST>
1

>  <SCORE.INTER.POLAR>
0

>  <SCORE.INTER.ROT>
5

>  <SCORE.INTER.SOLV>
10.1111

>  <SCORE.INTER.VDW>
-13.7636

>  <SCORE.INTER.norm>
-0.518979

>  <SCORE.INTRA>
-0.0707168

>  <SCORE.INTRA.DIHEDRAL>
-1.02928

>  <SCORE.INTRA.DIHEDRAL.0>
3.281

>  <SCORE.INTRA.POLAR>
0

>  <SCORE.INTRA.POLAR.0>
0

>  <SCORE.INTRA.REPUL>
0

>  <SCORE.INTRA.REPUL.0>
0

>  <SCORE.INTRA.SOLV>
-0.3511

>  <SCORE.INTRA.SOLV.lig_0>
-31.9458

>  <SCORE.INTRA.VDW>
0.619471

>  <SCORE.INTRA.VDW.0>
-0.672612

>  <SCORE.INTRA.norm>
-0.00707168

>  <SCORE.RESTR>
0

>  <SCORE.RESTR.CAVITY>
0

>  <SCORE.RESTR.norm>
0

>  <SCORE.SYSTEM>
0

>  <SCORE.SYSTEM.CONST>
0

>  <SCORE.SYSTEM.DIHEDRAL>
0

>  <SCORE.SYSTEM.SOLV>
0

>  <SCORE.SYSTEM.norm>
0

>  <SCORE.heavy>
10

>  <SCORE.norm>
-0.52605

>  <RMSD>
9.419

$$$$
ligand
 OpenBabel11021811473D
libRbt.so/2013.1/901 2013/11/27
 10  9  0  0  0  0  0  0  0  0999 V2000
   28.2201    9.3261   25.7416 N   0  0  0  0  0  0  0  0  0  0  0  0
   28.1534    9.7410   27.1713 C   0  0  2  0  0  0  0  0  0  0  0  0
   29.0740   10.9208   27.4495 C   0  0  0  0  0  0  0  0  0  0  0  0
   30.0598   11.1634   26.7516 O   0  0  0  0  0  0  0  0  0  0  0  0
   28.4783    8.5682   28.0938 C   0  0  0  0  0  0  0  0  0  0  0  0
   27.5139    7.4146   27.9420 C   0  0  0  0  0  0  0  0  0  0  0  0
   26.1199    7.7921   28.3669 C   0  0  0  0  0  0  0  0  0  0  0  0
   25.1491    6.6545   28.1032 C   0  0  0  0  0  0  0  0  0  0  0  0
   23.7659    6.9893   28.5312 N   0  0  0  0  0  0  0  0  0  0  0  0
   28.8352   11.6972   28.3758 O   0  0  0  0  0  0  0  0  0  0  0  0
  2  1  1  6  0  0  0
  2  3  1  0  0  0  0
  2  5  1  0  0  0  0
  3  4  1  0  0  0  0
  3 10  1  0  0  0  0
  5  6  1  0  0  0  0
  6  7  1  0  0  0  0
  7  8  1  0  0  0  0
  8  9  1  0  0  0  0
M  END
>  <CHROM.1>
-24.23173117,-60.84909968,-64.82175908,175.53546922,179.15263448,27.56444780
9.06200091,27.65669142,-0.45265516,-0.63823758,-2.51345527

>  <Name>
ligand

>  <RI>
0

>  <Rbt.Current_Directory>
/home/itssahil/PROJECTS/Mol_Feturizer/New_Systems/rnas/3DIX

>  <Rbt.Executable>
rbdock ($Id: //depot/dev/client3/rdock/2013.1/src/exe/rbdock.cxx#4 $)

>  <Rbt.Library>
libRbt.so (2013.1, Build901 2013/11/27)

>  <Rbt.Parameter_File>
/export/apps/rDock/src/rDock_2013.1_src/data/scripts/dock_solv.prm

>  <Rbt.Receptor>
prm/blind_docking_60.prm

>  <SCORE>
-3.90147

>  <SCORE.INTER>
-3.28069

>  <SCORE.INTER.CONST>
1

>  <SCORE.INTER.POLAR>
0

>  <SCORE.INTER.ROT>
5

>  <SCORE.INTER.SOLV>
4.89831

>  <SCORE.INTER.VDW>
-10.7532

>  <SCORE.INTER.norm>
-0.328069

>  <SCORE.INTRA>
-0.620773

>  <SCORE.INTRA.DIHEDRAL>
-1.53579

>  <SCORE.INTRA.DIHEDRAL.0>
3.281

>  <SCORE.INTRA.POLAR>
0

>  <SCORE.INTRA.POLAR.0>
0

>  <SCORE.INTRA.REPUL>
0

>  <SCORE.INTRA.REPUL.0>
0

>  <SCORE.INTRA.SOLV>
-0.113193

>  <SCORE.INTRA.SOLV.lig_0>
-31.9458

>  <SCORE.INTRA.VDW>
0.203719

>  <SCORE.INTRA.VDW.0>
-0.672612

>  <SCORE.INTRA.norm>
-0.0620773

>  <SCORE.RESTR>
0

>  <SCORE.RESTR.CAVITY>
0

>  <SCORE.RESTR.norm>
0

>  <SCORE.SYSTEM>
0

>  <SCORE.SYSTEM.CONST>
0

>  <SCORE.SYSTEM.DIHEDRAL>
0

>  <SCORE.SYSTEM.SOLV>
0

>  <SCORE.SYSTEM.norm>
0

>  <SCORE.heavy>
10

>  <SCORE.norm>
-0.390147

>  <RMSD>
10.599

$$$$
ligand
 OpenBabel11021811473D
libRbt.so/2013.1/901 2013/11/27
 10  9  0  0  0  0  0  0  0  0999 V2000
   27.0705   27.3405   19.6750 N   0  0  0  0  0  0  0  0  0  0  0  0
   26.2970   27.0610   20.9177 C   0  0  2  0  0  0  0  0  0  0  0  0
   27.0393   27.5485   22.1540 C   0  0  0  0  0  0  0  0  0  0  0  0
   26.4806   27.6875   23.2431 O   0  0  0  0  0  0  0  0  0  0  0  0
   25.9689   25.5739   21.0314 C   0  0  0  0  0  0  0  0  0  0  0  0
   25.1818   25.0524   19.8515 C   0  0  0  0  0  0  0  0  0  0  0  0
   24.8949   23.5800   19.9781 C   0  0  0  0  0  0  0  0  0  0  0  0
   24.2060   23.0556   18.7305 C   0  0  0  0  0  0  0  0  0  0  0  0
   25.0761   23.1507   17.5295 N   0  0  0  0  0  0  0  0  0  0  0  0
   28.2465   27.7896   22.1056 O   0  0  0  0  0  0  0  0  0  0  0  0
  2  1  1  6  0  0  0
  2  3  1  0  0  0  0
  2  5  1  0  0  0  0
  3  4  1  0  0  0  0
  3 10  1  0  0  0  0
  5  6  1  0  0  0  0
  6  7  1  0  0  0  0
  7  8  1  0  0  0  0
  8  9  1  0  0  0  0
M  END
>  <CHROM.1>
163.97709826,-58.08526577,178.94375215,-175.28011646,64.28642513,26.06700897
25.80444198,20.55622349,-0.89806564,-0.85760379,-1.90938621

>  <Name>
ligand

>  <RI>
0

>  <Rbt.Current_Directory>
/home/itssahil/PROJECTS/Mol_Feturizer/New_Systems/rnas/3DIX

>  <Rbt.Executable>
rbdock ($Id: //depot/dev/client3/rdock/2013.1/src/exe/rbdock.cxx#4 $)

>  <Rbt.Library>
libRbt.so (2013.1, Build901 2013/11/27)

>  <Rbt.Parameter_File>
/export/apps/rDock/src/rDock_2013.1_src/data/scripts/dock_solv.prm

>  <Rbt.Receptor>
prm/blind_docking_100.prm

>  <SCORE>
-4.08258

>  <SCORE.INTER>
-3.54729

>  <SCORE.INTER.CONST>
1

>  <SCORE.INTER.POLAR>
0

>  <SCORE.INTER.ROT>
5

>  <SCORE.INTER.SOLV>
7.85978

>  <SCORE.INTER.VDW>
-11.9181

>  <SCORE.INTER.norm>
-0.354729

>  <SCORE.INTRA>
-0.535288

>  <SCORE.INTRA.DIHEDRAL>
-1.667

>  <SCORE.INTRA.DIHEDRAL.0>
3.281

>  <SCORE.INTRA.POLAR>
0

>  <SCORE.INTRA.POLAR.0>
0

>  <SCORE.INTRA.REPUL>
0

>  <SCORE.INTRA.REPUL.0>
0

>  <SCORE.INTRA.SOLV>
0.35959

>  <SCORE.INTRA.SOLV.lig_0>
-31.9458

>  <SCORE.INTRA.VDW>
0.11842

>  <SCORE.INTRA.VDW.0>
-0.672612

>  <SCORE.INTRA.norm>
-0.0535288

>  <SCORE.RESTR>
0

>  <SCORE.RESTR.CAVITY>
0

>  <SCORE.RESTR.norm>
0

>  <SCORE.SYSTEM>
0

>  <SCORE.SYSTEM.CONST>
0

>  <SCORE.SYSTEM.DIHEDRAL>
0

>  <SCORE.SYSTEM.SOLV>
0

>  <SCORE.SYSTEM.norm>
0

>  <SCORE.heavy>
10

>  <SCORE.norm>
-0.408258

>  <RMSD>
10.665

$$$$
ligand
 OpenBabel11021811473D
libRbt.so/2013.1/901 2013/11/27
 10  9  0  0  0  0  0  0  0  0999 V2000
   27.7648    9.3874   25.9369 N   0  0  0  0  0  0  0  0  0  0  0  0
   28.0297    9.7625   27.3545 C   0  0  2  0  0  0  0  0  0  0  0  0
   29.0367   10.9001   27.4479 C   0  0  0  0  0  0  0  0  0  0  0  0
   28.9557   11.7799   28.3065 O   0  0  0  0  0  0  0  0  0  0  0  0
   28.4999    8.5525   28.1587 C   0  0  0  0  0  0  0  0  0  0  0  0
   27.3738    7.6119   28.5207 C   0  0  0  0  0  0  0  0  0  0  0  0
   26.8353    6.8937   27.3122 C   0  0  0  0  0  0  0  0  0  0  0  0
   25.8197    5.8406   27.7189 C   0  0  0  0  0  0  0  0  0  0  0  0
   24.6052    6.4414   28.3293 N   0  0  0  0  0  0  0  0  0  0  0  0
   29.9946   10.9541   26.6751 O   0  0  0  0  0  0  0  0  0  0  0  0
  2  1  1  6  0  0  0
  2  3  1  0  0  0  0
  2  5  1  0  0  0  0
  3  4  1  0  0  0  0
  3 10  1  0  0  0  0
  5  6  1  0  0  0  0
  6  7  1  0  0  0  0
  7  8  1  0  0  0  0
  8  9  1  0  0  0  0
M  END
>  <CHROM.1>
143.93594002,-76.55396092,69.49257307,173.43420497,65.15929023,27.72022094
8.84747561,27.57722560,-0.24262173,-0.90588453,-2.00228747

>  <Name>
ligand

>  <RI>
0

>  <Rbt.Current_Directory>
/home/itssahil/PROJECTS/Mol_Feturizer/New_Systems/rnas/3DIX

>  <Rbt.Executable>
rbdock ($Id: //depot/dev/client3/rdock/2013.1/src/exe/rbdock.cxx#4 $)

>  <Rbt.Library>
libRbt.so (2013.1, Build901 2013/11/27)

>  <Rbt.Parameter_File>
/export/apps/rDock/src/rDock_2013.1_src/data/scripts/dock_solv.prm

>  <Rbt.Receptor>
prm/blind_docking_80.prm

>  <SCORE>
-3.34328

>  <SCORE.INTER>
-4.17513

>  <SCORE.INTER.CONST>
1

>  <SCORE.INTER.POLAR>
0

>  <SCORE.INTER.ROT>
5

>  <SCORE.INTER.SOLV>
4.88506

>  <SCORE.INTER.VDW>
-11.3451

>  <SCORE.INTER.norm>
-0.417513

>  <SCORE.INTRA>
0.831855

>  <SCORE.INTRA.DIHEDRAL>
-0.154507

>  <SCORE.INTRA.DIHEDRAL.0>
3.281

>  <SCORE.INTRA.POLAR>
0

>  <SCORE.INTRA.POLAR.0>
0

>  <SCORE.INTRA.REPUL>
0

>  <SCORE.INTRA.REPUL.0>
0

>  <SCORE.INTRA.SOLV>
1.35974

>  <SCORE.INTRA.SOLV.lig_0>
-31.9458

>  <SCORE.INTRA.VDW>
0.22924

>  <SCORE.INTRA.VDW.0>
-0.672612

>  <SCORE.INTRA.norm>
0.0831855

>  <SCORE.RESTR>
0

>  <SCORE.RESTR.CAVITY>
0

>  <SCORE.RESTR.norm>
0

>  <SCORE.SYSTEM>
0

>  <SCORE.SYSTEM.CONST>
0

>  <SCORE.SYSTEM.DIHEDRAL>
0

>  <SCORE.SYSTEM.SOLV>
0

>  <SCORE.SYSTEM.norm>
0

>  <SCORE.heavy>
10

>  <SCORE.norm>
-0.334328

>  <RMSD>
10.696

$$$$
ligand
 OpenBabel11021811473D
libRbt.so/2013.1/901 2013/11/27
 10  9  0  0  0  0  0  0  0  0999 V2000
   25.5857   23.7799   17.8824 N   0  0  0  0  0  0  0  0  0  0  0  0
   25.3769   23.5653   19.3422 C   0  0  2  0  0  0  0  0  0  0  0  0
   25.0937   22.1022   19.6524 C   0  0  0  0  0  0  0  0  0  0  0  0
   24.7035   21.7294   20.7599 O   0  0  0  0  0  0  0  0  0  0  0  0
   24.2567   24.4596   19.8688 C   0  0  0  0  0  0  0  0  0  0  0  0
   24.6226   25.9259   19.8654 C   0  0  0  0  0  0  0  0  0  0  0  0
   25.7180   26.2307   20.8522 C   0  0  0  0  0  0  0  0  0  0  0  0
   26.0273   27.7172   20.8724 C   0  0  0  0  0  0  0  0  0  0  0  0
   27.0995   28.0521   21.8454 N   0  0  0  0  0  0  0  0  0  0  0  0
   25.2175   21.2413   18.7799 O   0  0  0  0  0  0  0  0  0  0  0  0
  2  1  1  6  0  0  0
  2  3  1  0  0  0  0
  2  5  1  0  0  0  0
  3  4  1  0  0  0  0
  3 10  1  0  0  0  0
  5  6  1  0  0  0  0
  6  7  1  0  0  0  0
  7  8  1  0  0  0  0
  8  9  1  0  0  0  0
M  END
>  <CHROM.1>
-169.36368270,-68.54988754,-67.01849485,-177.61980502,179.58540250,25.36232361
24.43673214,19.97554142,3.12628051,1.37037102,1.90088006

>  <Name>
ligand

>  <RI>
0

>  <Rbt.Current_Directory>
/home/itssahil/PROJECTS/Mol_Feturizer/New_Systems/rnas/3DIX

>  <Rbt.Executable>
rbdock ($Id: //depot/dev/client3/rdock/2013.1/src/exe/rbdock.cxx#4 $)

>  <Rbt.Library>
libRbt.so (2013.1, Build901 2013/11/27)

>  <Rbt.Parameter_File>
/export/apps/rDock/src/rDock_2013.1_src/data/scripts/dock_solv.prm

>  <Rbt.Receptor>
prm/blind_docking_60.prm

>  <SCORE>
-5.72333

>  <SCORE.INTER>
-5.37154

>  <SCORE.INTER.CONST>
1

>  <SCORE.INTER.POLAR>
0

>  <SCORE.INTER.ROT>
5

>  <SCORE.INTER.SOLV>
7.1347

>  <SCORE.INTER.VDW>
-12.8926

>  <SCORE.INTER.norm>
-0.537154

>  <SCORE.INTRA>
-0.351787

>  <SCORE.INTRA.DIHEDRAL>
-1.22839

>  <SCORE.INTRA.DIHEDRAL.0>
3.281

>  <SCORE.INTRA.POLAR>
0

>  <SCORE.INTRA.POLAR.0>
0

>  <SCORE.INTRA.REPUL>
0

>  <SCORE.INTRA.REPUL.0>
0

>  <SCORE.INTRA.SOLV>
-0.281126

>  <SCORE.INTRA.SOLV.lig_0>
-31.9458

>  <SCORE.INTRA.VDW>
0.402971

>  <SCORE.INTRA.VDW.0>
-0.672612

>  <SCORE.INTRA.norm>
-0.0351787

>  <SCORE.RESTR>
0

>  <SCORE.RESTR.CAVITY>
0

>  <SCORE.RESTR.norm>
0

>  <SCORE.SYSTEM>
0

>  <SCORE.SYSTEM.CONST>
0

>  <SCORE.SYSTEM.DIHEDRAL>
0

>  <SCORE.SYSTEM.SOLV>
0

>  <SCORE.SYSTEM.norm>
0

>  <SCORE.heavy>
10

>  <SCORE.norm>
-0.572333

>  <RMSD>
10.740

$$$$
ligand
 OpenBabel11021811473D
libRbt.so/2013.1/901 2013/11/27
 10  9  0  0  0  0  0  0  0  0999 V2000
   27.5320   14.7082    8.7222 N   0  0  0  0  0  0  0  0  0  0  0  0
   26.7506   14.8628    9.9816 C   0  0  2  0  0  0  0  0  0  0  0  0
   27.5629   14.4310   11.1944 C   0  0  0  0  0  0  0  0  0  0  0  0
   27.1722   14.6196   12.3474 O   0  0  0  0  0  0  0  0  0  0  0  0
   25.4358   14.0901    9.9044 C   0  0  0  0  0  0  0  0  0  0  0  0
   24.5129   14.3801   11.0655 C   0  0  0  0  0  0  0  0  0  0  0  0
   23.2134   13.6294   10.9473 C   0  0  0  0  0  0  0  0  0  0  0  0
   22.3377   13.8723   12.1639 C   0  0  0  0  0  0  0  0  0  0  0  0
   21.0551   13.1256   12.0878 N   0  0  0  0  0  0  0  0  0  0  0  0
   28.6354   13.8416   11.0527 O   0  0  0  0  0  0  0  0  0  0  0  0
  2  1  1  6  0  0  0
  2  3  1  0  0  0  0
  2  5  1  0  0  0  0
  3  4  1  0  0  0  0
  3 10  1  0  0  0  0
  5  6  1  0  0  0  0
  6  7  1  0  0  0  0
  7  8  1  0  0  0  0
  8  9  1  0  0  0  0
M  END
>  <CHROM.1>
171.37510564,-171.30270168,178.71485750,176.65782665,-179.04258949,25.45045456
14.14924500,10.97128445,0.23170666,-0.12757137,-1.46918299

>  <Name>
ligand

>  <RI>
0

>  <Rbt.Current_Directory>
/home/itssahil/PROJECTS/Mol_Feturizer/New_Systems/rnas/3DIX

>  <Rbt.Executable>
rbdock ($Id: //depot/dev/client3/rdock/2013.1/src/exe/rbdock.cxx#4 $)

>  <Rbt.Library>
libRbt.so (2013.1, Build901 2013/11/27)

>  <Rbt.Parameter_File>
/export/apps/rDock/src/rDock_2013.1_src/data/scripts/dock_solv.prm

>  <Rbt.Receptor>
prm/blind_docking_40.prm

>  <SCORE>
-5.8713

>  <SCORE.INTER>
-4.51841

>  <SCORE.INTER.CONST>
1

>  <SCORE.INTER.POLAR>
0

>  <SCORE.INTER.ROT>
5

>  <SCORE.INTER.SOLV>
6.42161

>  <SCORE.INTER.VDW>
-12.0861

>  <SCORE.INTER.norm>
-0.451841

>  <SCORE.INTRA>
-1.35289

>  <SCORE.INTRA.DIHEDRAL>
-1.4906

>  <SCORE.INTRA.DIHEDRAL.0>
3.281

>  <SCORE.INTRA.POLAR>
0

>  <SCORE.INTRA.POLAR.0>
0

>  <SCORE.INTRA.REPUL>
0

>  <SCORE.INTRA.REPUL.0>
0

>  <SCORE.INTRA.SOLV>
-1.55486

>  <SCORE.INTRA.SOLV.lig_0>
-31.9458

>  <SCORE.INTRA.VDW>
0.16984

>  <SCORE.INTRA.VDW.0>
-0.672612

>  <SCORE.INTRA.norm>
-0.135289

>  <SCORE.RESTR>
0

>  <SCORE.RESTR.CAVITY>
0

>  <SCORE.RESTR.norm>
0

>  <SCORE.SYSTEM>
0

>  <SCORE.SYSTEM.CONST>
0

>  <SCORE.SYSTEM.DIHEDRAL>
0

>  <SCORE.SYSTEM.SOLV>
0

>  <SCORE.SYSTEM.norm>
0

>  <SCORE.heavy>
10

>  <SCORE.norm>
-0.58713

>  <RMSD>
11.228

$$$$
ligand
 OpenBabel11021811473D
libRbt.so/2013.1/901 2013/11/27
 10  9  0  0  0  0  0  0  0  0999 V2000
   27.5044   14.6969    8.6977 N   0  0  0  0  0  0  0  0  0  0  0  0
   26.7391   14.8494    9.9673 C   0  0  2  0  0  0  0  0  0  0  0  0
   27.5586   14.3939   11.1665 C   0  0  0  0  0  0  0  0  0  0  0  0
   28.6359   13.8097   11.0418 O   0  0  0  0  0  0  0  0  0  0  0  0
   25.4129   14.0956    9.8969 C   0  0  0  0  0  0  0  0  0  0  0  0
   24.4997   14.3998   11.0620 C   0  0  0  0  0  0  0  0  0  0  0  0
   23.2115   13.6253   10.9792 C   0  0  0  0  0  0  0  0  0  0  0  0
   22.3533   13.8734   12.2072 C   0  0  0  0  0  0  0  0  0  0  0  0
   21.0654   13.1343   12.1480 N   0  0  0  0  0  0  0  0  0  0  0  0
   27.1760   14.6308   12.3134 O   0  0  0  0  0  0  0  0  0  0  0  0
  2  1  1  6  0  0  0
  2  3  1  0  0  0  0
  2  5  1  0  0  0  0
  3  4  1  0  0  0  0
  3 10  1  0  0  0  0
  5  6  1  0  0  0  0
  6  7  1  0  0  0  0
  7  8  1  0  0  0  0
  8  9  1  0  0  0  0
M  END
>  <CHROM.1>
-9.20237465,-170.56771392,-178.98821698,176.06713612,179.31883404,25.44555627
14.14446115,10.97242157,0.24393198,-0.12132179,-1.46380580

>  <Name>
ligand

>  <RI>
0

>  <Rbt.Current_Directory>
/home/itssahil/PROJECTS/Mol_Feturizer/New_Systems/rnas/3DIX

>  <Rbt.Executable>
rbdock ($Id: //depot/dev/client3/rdock/2013.1/src/exe/rbdock.cxx#4 $)

>  <Rbt.Library>
libRbt.so (2013.1, Build901 2013/11/27)

>  <Rbt.Parameter_File>
/export/apps/rDock/src/rDock_2013.1_src/data/scripts/dock_solv.prm

>  <Rbt.Receptor>
prm/blind_docking_40.prm

>  <SCORE>
-5.82545

>  <SCORE.INTER>
-4.49468

>  <SCORE.INTER.CONST>
1

>  <SCORE.INTER.POLAR>
0

>  <SCORE.INTER.ROT>
5

>  <SCORE.INTER.SOLV>
6.29095

>  <SCORE.INTER.VDW>
-12.0268

>  <SCORE.INTER.norm>
-0.449468

>  <SCORE.INTRA>
-1.33077

>  <SCORE.INTRA.DIHEDRAL>
-1.35622

>  <SCORE.INTRA.DIHEDRAL.0>
3.281

>  <SCORE.INTRA.POLAR>
0

>  <SCORE.INTRA.POLAR.0>
0

>  <SCORE.INTRA.REPUL>
0

>  <SCORE.INTRA.REPUL.0>
0

>  <SCORE.INTRA.SOLV>
-1.56297

>  <SCORE.INTRA.SOLV.lig_0>
-31.9458

>  <SCORE.INTRA.VDW>
0.128828

>  <SCORE.INTRA.VDW.0>
-0.672612

>  <SCORE.INTRA.norm>
-0.133077

>  <SCORE.RESTR>
0

>  <SCORE.RESTR.CAVITY>
0

>  <SCORE.RESTR.norm>
0

>  <SCORE.SYSTEM>
0

>  <SCORE.SYSTEM.CONST>
0

>  <SCORE.SYSTEM.DIHEDRAL>
0

>  <SCORE.SYSTEM.SOLV>
0

>  <SCORE.SYSTEM.norm>
0

>  <SCORE.heavy>
10

>  <SCORE.norm>
-0.582545

>  <RMSD>
11.233

$$$$
ligand
 OpenBabel11021811473D
libRbt.so/2013.1/901 2013/11/27
 10  9  0  0  0  0  0  0  0  0999 V2000
   27.4940   14.7017    8.6993 N   0  0  0  0  0  0  0  0  0  0  0  0
   26.7232   14.8657    9.9641 C   0  0  2  0  0  0  0  0  0  0  0  0
   27.5485   14.4503   11.1738 C   0  0  0  0  0  0  0  0  0  0  0  0
   27.1658   14.6459   12.3284 O   0  0  0  0  0  0  0  0  0  0  0  0
   25.4115   14.0860    9.9068 C   0  0  0  0  0  0  0  0  0  0  0  0
   24.4974   14.3842   11.0728 C   0  0  0  0  0  0  0  0  0  0  0  0
   23.1967   13.6335   10.9693 C   0  0  0  0  0  0  0  0  0  0  0  0
   22.3067   13.9295   12.1636 C   0  0  0  0  0  0  0  0  0  0  0  0
   21.0447   13.1454   12.1284 N   0  0  0  0  0  0  0  0  0  0  0  0
   28.6242   13.8676   11.0284 O   0  0  0  0  0  0  0  0  0  0  0  0
  2  1  1  6  0  0  0
  2  3  1  0  0  0  0
  2  5  1  0  0  0  0
  3  4  1  0  0  0  0
  3 10  1  0  0  0  0
  5  6  1  0  0  0  0
  6  7  1  0  0  0  0
  7  8  1  0  0  0  0
  8  9  1  0  0  0  0
M  END
>  <CHROM.1>
171.56470031,-171.26788243,178.32159504,178.96290919,-176.87565827,25.43120550
14.16450738,10.96789826,0.23689181,-0.12733855,-1.48133892

>  <Name>
ligand

>  <RI>
0

>  <Rbt.Current_Directory>
/home/itssahil/PROJECTS/Mol_Feturizer/New_Systems/rnas/3DIX

>  <Rbt.Executable>
rbdock ($Id: //depot/dev/client3/rdock/2013.1/src/exe/rbdock.cxx#4 $)

>  <Rbt.Library>
libRbt.so (2013.1, Build901 2013/11/27)

>  <Rbt.Parameter_File>
/export/apps/rDock/src/rDock_2013.1_src/data/scripts/dock_solv.prm

>  <Rbt.Receptor>
prm/blind_docking_40.prm

>  <SCORE>
-5.86585

>  <SCORE.INTER>
-4.5167

>  <SCORE.INTER.CONST>
1

>  <SCORE.INTER.POLAR>
0

>  <SCORE.INTER.ROT>
5

>  <SCORE.INTER.SOLV>
6.25281

>  <SCORE.INTER.VDW>
-12.0287

>  <SCORE.INTER.norm>
-0.45167

>  <SCORE.INTRA>
-1.34915

>  <SCORE.INTRA.DIHEDRAL>
-1.49172

>  <SCORE.INTRA.DIHEDRAL.0>
3.281

>  <SCORE.INTRA.POLAR>
0

>  <SCORE.INTRA.POLAR.0>
0

>  <SCORE.INTRA.REPUL>
0

>  <SCORE.INTRA.REPUL.0>
0

>  <SCORE.INTRA.SOLV>
-1.55418

>  <SCORE.INTRA.SOLV.lig_0>
-31.9458

>  <SCORE.INTRA.VDW>
0.173798

>  <SCORE.INTRA.VDW.0>
-0.672612

>  <SCORE.INTRA.norm>
-0.134915

>  <SCORE.RESTR>
0

>  <SCORE.RESTR.CAVITY>
0

>  <SCORE.RESTR.norm>
0

>  <SCORE.SYSTEM>
0

>  <SCORE.SYSTEM.CONST>
0

>  <SCORE.SYSTEM.DIHEDRAL>
0

>  <SCORE.SYSTEM.SOLV>
0

>  <SCORE.SYSTEM.norm>
0

>  <SCORE.heavy>
10

>  <SCORE.norm>
-0.586585

>  <RMSD>
11.237

$$$$
ligand
 OpenBabel11021811473D
libRbt.so/2013.1/901 2013/11/27
 10  9  0  0  0  0  0  0  0  0999 V2000
   27.4118   14.7091    8.7083 N   0  0  0  0  0  0  0  0  0  0  0  0
   26.6484   14.8440    9.9810 C   0  0  2  0  0  0  0  0  0  0  0  0
   27.4769   14.3907   11.1748 C   0  0  0  0  0  0  0  0  0  0  0  0
   28.5490   13.7983   11.0431 O   0  0  0  0  0  0  0  0  0  0  0  0
   25.3312   14.0749    9.9094 C   0  0  0  0  0  0  0  0  0  0  0  0
   24.4183   14.3597   11.0796 C   0  0  0  0  0  0  0  0  0  0  0  0
   23.1455   13.5595   11.0030 C   0  0  0  0  0  0  0  0  0  0  0  0
   22.2703   13.8210   12.2161 C   0  0  0  0  0  0  0  0  0  0  0  0
   21.0200   13.0183   12.1870 N   0  0  0  0  0  0  0  0  0  0  0  0
   27.1075   14.6376   12.3239 O   0  0  0  0  0  0  0  0  0  0  0  0
  2  1  1  6  0  0  0
  2  3  1  0  0  0  0
  2  5  1  0  0  0  0
  3  4  1  0  0  0  0
  3 10  1  0  0  0  0
  5  6  1  0  0  0  0
  6  7  1  0  0  0  0
  7  8  1  0  0  0  0
  8  9  1  0  0  0  0
M  END
>  <CHROM.1>
-10.57682257,-170.60608221,-178.39087740,177.74229285,-178.55128585,25.36791856
14.11508392,10.98689346,0.24956202,-0.13448512,-1.45828278

>  <Name>
ligand

>  <RI>
0

>  <Rbt.Current_Directory>
/home/itssahil/PROJECTS/Mol_Feturizer/New_Systems/rnas/3DIX

>  <Rbt.Executable>
rbdock ($Id: //depot/dev/client3/rdock/2013.1/src/exe/rbdock.cxx#4 $)

>  <Rbt.Library>
libRbt.so (2013.1, Build901 2013/11/27)

>  <Rbt.Parameter_File>
/export/apps/rDock/src/rDock_2013.1_src/data/scripts/dock_solv.prm

>  <Rbt.Receptor>
prm/blind_docking_80.prm

>  <SCORE>
-5.79776

>  <SCORE.INTER>
-4.42402

>  <SCORE.INTER.CONST>
1

>  <SCORE.INTER.POLAR>
0

>  <SCORE.INTER.ROT>
5

>  <SCORE.INTER.SOLV>
6.31476

>  <SCORE.INTER.VDW>
-11.9876

>  <SCORE.INTER.norm>
-0.442402

>  <SCORE.INTRA>
-1.37373

>  <SCORE.INTRA.DIHEDRAL>
-1.3854

>  <SCORE.INTRA.DIHEDRAL.0>
3.281

>  <SCORE.INTRA.POLAR>
0

>  <SCORE.INTRA.POLAR.0>
0

>  <SCORE.INTRA.REPUL>
0

>  <SCORE.INTRA.REPUL.0>
0

>  <SCORE.INTRA.SOLV>
-1.56293

>  <SCORE.INTRA.SOLV.lig_0>
-31.9458

>  <SCORE.INTRA.VDW>
0.100428

>  <SCORE.INTRA.VDW.0>
-0.672612

>  <SCORE.INTRA.norm>
-0.137373

>  <SCORE.RESTR>
0

>  <SCORE.RESTR.CAVITY>
0

>  <SCORE.RESTR.norm>
0

>  <SCORE.SYSTEM>
0

>  <SCORE.SYSTEM.CONST>
0

>  <SCORE.SYSTEM.DIHEDRAL>
0

>  <SCORE.SYSTEM.SOLV>
0

>  <SCORE.SYSTEM.norm>
0

>  <SCORE.heavy>
10

>  <SCORE.norm>
-0.579776

>  <RMSD>
11.260

$$$$
ligand
 OpenBabel11021811473D
libRbt.so/2013.1/901 2013/11/27
 10  9  0  0  0  0  0  0  0  0999 V2000
   25.9777   24.2591   18.1670 N   0  0  0  0  0  0  0  0  0  0  0  0
   25.6312   23.9430   19.5814 C   0  0  2  0  0  0  0  0  0  0  0  0
   24.6778   22.7595   19.6671 C   0  0  0  0  0  0  0  0  0  0  0  0
   24.7070   21.9592   20.6033 O   0  0  0  0  0  0  0  0  0  0  0  0
   25.0453   25.1655   20.2843 C   0  0  0  0  0  0  0  0  0  0  0  0
   26.0452   26.2868   20.4474 C   0  0  0  0  0  0  0  0  0  0  0  0
   25.4119   27.5187   21.0370 C   0  0  0  0  0  0  0  0  0  0  0  0
   26.4301   28.6374   21.1701 C   0  0  0  0  0  0  0  0  0  0  0  0
   27.4747   28.3256   22.1802 N   0  0  0  0  0  0  0  0  0  0  0  0
   23.8149   22.5861   18.8049 O   0  0  0  0  0  0  0  0  0  0  0  0
  2  1  1  6  0  0  0
  2  3  1  0  0  0  0
  2  5  1  0  0  0  0
  3  4  1  0  0  0  0
  3 10  1  0  0  0  0
  5  6  1  0  0  0  0
  6  7  1  0  0  0  0
  7  8  1  0  0  0  0
  8  9  1  0  0  0  0
M  END
>  <CHROM.1>
146.81764675,-66.16510254,175.20572168,-179.07859565,-67.26171297,25.49726871
25.10611966,20.19247900,-2.74296955,1.21450252,1.49918302

>  <Name>
ligand

>  <RI>
0

>  <Rbt.Current_Directory>
/home/itssahil/PROJECTS/Mol_Feturizer/New_Systems/rnas/3DIX

>  <Rbt.Executable>
rbdock ($Id: //depot/dev/client3/rdock/2013.1/src/exe/rbdock.cxx#4 $)

>  <Rbt.Library>
libRbt.so (2013.1, Build901 2013/11/27)

>  <Rbt.Parameter_File>
/export/apps/rDock/src/rDock_2013.1_src/data/scripts/dock_solv.prm

>  <Rbt.Receptor>
prm/blind_docking_100.prm

>  <SCORE>
-4.58114

>  <SCORE.INTER>
-3.8859

>  <SCORE.INTER.CONST>
1

>  <SCORE.INTER.POLAR>
0

>  <SCORE.INTER.ROT>
5

>  <SCORE.INTER.SOLV>
7.43078

>  <SCORE.INTER.VDW>
-12.0009

>  <SCORE.INTER.norm>
-0.38859

>  <SCORE.INTRA>
-0.695234

>  <SCORE.INTRA.DIHEDRAL>
-1.3979

>  <SCORE.INTRA.DIHEDRAL.0>
3.281

>  <SCORE.INTRA.POLAR>
0

>  <SCORE.INTRA.POLAR.0>
0

>  <SCORE.INTRA.REPUL>
0

>  <SCORE.INTRA.REPUL.0>
0

>  <SCORE.INTRA.SOLV>
0.192601

>  <SCORE.INTRA.SOLV.lig_0>
-31.9458

>  <SCORE.INTRA.VDW>
-0.092583

>  <SCORE.INTRA.VDW.0>
-0.672612

>  <SCORE.INTRA.norm>
-0.0695234

>  <SCORE.RESTR>
0

>  <SCORE.RESTR.CAVITY>
0

>  <SCORE.RESTR.norm>
0

>  <SCORE.SYSTEM>
0

>  <SCORE.SYSTEM.CONST>
0

>  <SCORE.SYSTEM.DIHEDRAL>
0

>  <SCORE.SYSTEM.SOLV>
0

>  <SCORE.SYSTEM.norm>
0

>  <SCORE.heavy>
10

>  <SCORE.norm>
-0.458114

>  <RMSD>
11.284

$$$$
ligand
 OpenBabel11021811473D
libRbt.so/2013.1/901 2013/11/27
 10  9  0  0  0  0  0  0  0  0999 V2000
   28.4613   15.3537    8.8530 N   0  0  0  0  0  0  0  0  0  0  0  0
   27.4007   15.1973    9.8880 C   0  0  2  0  0  0  0  0  0  0  0  0
   27.9479   14.5399   11.1472 C   0  0  0  0  0  0  0  0  0  0  0  0
   27.4146   14.6847   12.2483 O   0  0  0  0  0  0  0  0  0  0  0  0
   26.2136   14.4113    9.3361 C   0  0  0  0  0  0  0  0  0  0  0  0
   25.0283   14.3986   10.2735 C   0  0  0  0  0  0  0  0  0  0  0  0
   23.8704   13.6263    9.6997 C   0  0  0  0  0  0  0  0  0  0  0  0
   22.6534   13.7294   10.6021 C   0  0  0  0  0  0  0  0  0  0  0  0
   22.8608   13.0387   11.9015 N   0  0  0  0  0  0  0  0  0  0  0  0
   28.9362   13.8064   11.0924 O   0  0  0  0  0  0  0  0  0  0  0  0
  2  1  1  6  0  0  0
  2  3  1  0  0  0  0
  2  5  1  0  0  0  0
  3  4  1  0  0  0  0
  3 10  1  0  0  0  0
  5  6  1  0  0  0  0
  6  7  1  0  0  0  0
  7  8  1  0  0  0  0
  8  9  1  0  0  0  0
M  END
>  <CHROM.1>
156.46720215,-171.52171406,179.56435157,-175.04562511,-67.18978699,26.10130800
14.26742541,10.53203587,0.12198846,-0.19444931,-1.29756394

>  <Name>
ligand

>  <RI>
0

>  <Rbt.Current_Directory>
/home/itssahil/PROJECTS/Mol_Feturizer/New_Systems/rnas/3DIX

>  <Rbt.Executable>
rbdock ($Id: //depot/dev/client3/rdock/2013.1/src/exe/rbdock.cxx#4 $)

>  <Rbt.Library>
libRbt.so (2013.1, Build901 2013/11/27)

>  <Rbt.Parameter_File>
/export/apps/rDock/src/rDock_2013.1_src/data/scripts/dock_solv.prm

>  <Rbt.Receptor>
prm/blind_docking_40.prm

>  <SCORE>
-5.05495

>  <SCORE.INTER>
-4.08699

>  <SCORE.INTER.CONST>
1

>  <SCORE.INTER.POLAR>
0

>  <SCORE.INTER.ROT>
5

>  <SCORE.INTER.SOLV>
10.504

>  <SCORE.INTER.VDW>
-13.1593

>  <SCORE.INTER.norm>
-0.408699

>  <SCORE.INTRA>
-0.967963

>  <SCORE.INTRA.DIHEDRAL>
-1.29656

>  <SCORE.INTRA.DIHEDRAL.0>
3.281

>  <SCORE.INTRA.POLAR>
0

>  <SCORE.INTRA.POLAR.0>
0

>  <SCORE.INTRA.REPUL>
0

>  <SCORE.INTRA.REPUL.0>
0

>  <SCORE.INTRA.SOLV>
-0.69337

>  <SCORE.INTRA.SOLV.lig_0>
-31.9458

>  <SCORE.INTRA.VDW>
0.0270003

>  <SCORE.INTRA.VDW.0>
-0.672612

>  <SCORE.INTRA.norm>
-0.0967963

>  <SCORE.RESTR>
0

>  <SCORE.RESTR.CAVITY>
0

>  <SCORE.RESTR.norm>
0

>  <SCORE.SYSTEM>
0

>  <SCORE.SYSTEM.CONST>
0

>  <SCORE.SYSTEM.DIHEDRAL>
0

>  <SCORE.SYSTEM.SOLV>
0

>  <SCORE.SYSTEM.norm>
0

>  <SCORE.heavy>
10

>  <SCORE.norm>
-0.505495

>  <RMSD>
11.319

$$$$
ligand
 OpenBabel11021811473D
libRbt.so/2013.1/901 2013/11/27
 10  9  0  0  0  0  0  0  0  0999 V2000
   26.6964   14.1929    8.7075 N   0  0  0  0  0  0  0  0  0  0  0  0
   26.5664   15.0955    9.8861 C   0  0  2  0  0  0  0  0  0  0  0  0
   27.9270   15.4288   10.4816 C   0  0  0  0  0  0  0  0  0  0  0  0
   28.3961   16.5676   10.4508 O   0  0  0  0  0  0  0  0  0  0  0  0
   25.6461   14.4844   10.9404 C   0  0  0  0  0  0  0  0  0  0  0  0
   24.2143   14.3615   10.4727 C   0  0  0  0  0  0  0  0  0  0  0  0
   23.2989   13.9239   11.5848 C   0  0  0  0  0  0  0  0  0  0  0  0
   21.8640   13.8301   11.0967 C   0  0  0  0  0  0  0  0  0  0  0  0
   20.9295   13.4312   12.1812 N   0  0  0  0  0  0  0  0  0  0  0  0
   28.5922   14.5611   11.0494 O   0  0  0  0  0  0  0  0  0  0  0  0
  2  1  1  6  0  0  0
  2  3  1  0  0  0  0
  2  5  1  0  0  0  0
  3  4  1  0  0  0  0
  3 10  1  0  0  0  0
  5  6  1  0  0  0  0
  6  7  1  0  0  0  0
  7  8  1  0  0  0  0
  8  9  1  0  0  0  0
M  END
>  <CHROM.1>
113.38364641,-65.98195854,-172.67808553,179.05860518,-178.63138403,25.45554688
14.59958213,10.69561924,0.12465166,-0.30383019,-1.81564036

>  <Name>
ligand

>  <RI>
0

>  <Rbt.Current_Directory>
/home/itssahil/PROJECTS/Mol_Feturizer/New_Systems/rnas/3DIX

>  <Rbt.Executable>
rbdock ($Id: //depot/dev/client3/rdock/2013.1/src/exe/rbdock.cxx#4 $)

>  <Rbt.Library>
libRbt.so (2013.1, Build901 2013/11/27)

>  <Rbt.Parameter_File>
/export/apps/rDock/src/rDock_2013.1_src/data/scripts/dock_solv.prm

>  <Rbt.Receptor>
prm/blind_docking_100.prm

>  <SCORE>
-5.83406

>  <SCORE.INTER>
-4.69894

>  <SCORE.INTER.CONST>
1

>  <SCORE.INTER.POLAR>
0

>  <SCORE.INTER.ROT>
5

>  <SCORE.INTER.SOLV>
4.98083

>  <SCORE.INTER.VDW>
-11.7262

>  <SCORE.INTER.norm>
-0.469894

>  <SCORE.INTRA>
-1.13512

>  <SCORE.INTRA.DIHEDRAL>
-1.37595

>  <SCORE.INTRA.DIHEDRAL.0>
3.281

>  <SCORE.INTRA.POLAR>
0

>  <SCORE.INTRA.POLAR.0>
0

>  <SCORE.INTRA.REPUL>
0

>  <SCORE.INTRA.REPUL.0>
0

>  <SCORE.INTRA.SOLV>
-0.771129

>  <SCORE.INTRA.SOLV.lig_0>
-31.9458

>  <SCORE.INTRA.VDW>
-0.0615824

>  <SCORE.INTRA.VDW.0>
-0.672612

>  <SCORE.INTRA.norm>
-0.113512

>  <SCORE.RESTR>
0

>  <SCORE.RESTR.CAVITY>
0

>  <SCORE.RESTR.norm>
0

>  <SCORE.SYSTEM>
0

>  <SCORE.SYSTEM.CONST>
0

>  <SCORE.SYSTEM.DIHEDRAL>
0

>  <SCORE.SYSTEM.SOLV>
0

>  <SCORE.SYSTEM.norm>
0

>  <SCORE.heavy>
10

>  <SCORE.norm>
-0.583406

>  <RMSD>
11.375

$$$$
ligand
 OpenBabel11021811473D
libRbt.so/2013.1/901 2013/11/27
 10  9  0  0  0  0  0  0  0  0999 V2000
   26.8395   14.1561    8.6690 N   0  0  0  0  0  0  0  0  0  0  0  0
   26.6727   15.0845    9.8227 C   0  0  2  0  0  0  0  0  0  0  0  0
   28.0177   15.4744   10.4192 C   0  0  0  0  0  0  0  0  0  0  0  0
   28.7439   14.6593   10.9901 O   0  0  0  0  0  0  0  0  0  0  0  0
   25.7628   14.4731   10.8858 C   0  0  0  0  0  0  0  0  0  0  0  0
   24.3405   14.2893   10.4091 C   0  0  0  0  0  0  0  0  0  0  0  0
   23.4189   13.9054   11.5358 C   0  0  0  0  0  0  0  0  0  0  0  0
   22.0072   13.6786   11.0242 C   0  0  0  0  0  0  0  0  0  0  0  0
   21.0770   13.2742   12.1105 N   0  0  0  0  0  0  0  0  0  0  0  0
   28.4381   16.6279   10.3164 O   0  0  0  0  0  0  0  0  0  0  0  0
  2  1  1  6  0  0  0
  2  3  1  0  0  0  0
  2  5  1  0  0  0  0
  3  4  1  0  0  0  0
  3 10  1  0  0  0  0
  5  6  1  0  0  0  0
  6  7  1  0  0  0  0
  7  8  1  0  0  0  0
  8  9  1  0  0  0  0
M  END
>  <CHROM.1>
-66.55331325,-65.74219296,-170.44867285,-177.99676659,178.98890000,25.57415321
14.57599101,10.62785734,0.11108113,-0.33339096,-1.84250324

>  <Name>
ligand

>  <RI>
0

>  <Rbt.Current_Directory>
/home/itssahil/PROJECTS/Mol_Feturizer/New_Systems/rnas/3DIX

>  <Rbt.Executable>
rbdock ($Id: //depot/dev/client3/rdock/2013.1/src/exe/rbdock.cxx#4 $)

>  <Rbt.Library>
libRbt.so (2013.1, Build901 2013/11/27)

>  <Rbt.Parameter_File>
/export/apps/rDock/src/rDock_2013.1_src/data/scripts/dock_solv.prm

>  <Rbt.Receptor>
prm/blind_docking_40.prm

>  <SCORE>
-6.29727

>  <SCORE.INTER>
-5.1577

>  <SCORE.INTER.CONST>
1

>  <SCORE.INTER.POLAR>
0

>  <SCORE.INTER.ROT>
5

>  <SCORE.INTER.SOLV>
5.29807

>  <SCORE.INTER.VDW>
-12.1378

>  <SCORE.INTER.norm>
-0.51577

>  <SCORE.INTRA>
-1.13958

>  <SCORE.INTRA.DIHEDRAL>
-1.28153

>  <SCORE.INTRA.DIHEDRAL.0>
3.281

>  <SCORE.INTRA.POLAR>
0

>  <SCORE.INTRA.POLAR.0>
0

>  <SCORE.INTRA.REPUL>
0

>  <SCORE.INTRA.REPUL.0>
0

>  <SCORE.INTRA.SOLV>
-0.764771

>  <SCORE.INTRA.SOLV.lig_0>
-31.9458

>  <SCORE.INTRA.VDW>
-0.116428

>  <SCORE.INTRA.VDW.0>
-0.672612

>  <SCORE.INTRA.norm>
-0.113958

>  <SCORE.RESTR>
0

>  <SCORE.RESTR.CAVITY>
0

>  <SCORE.RESTR.norm>
0

>  <SCORE.SYSTEM>
0

>  <SCORE.SYSTEM.CONST>
0

>  <SCORE.SYSTEM.DIHEDRAL>
0

>  <SCORE.SYSTEM.SOLV>
0

>  <SCORE.SYSTEM.norm>
0

>  <SCORE.heavy>
10

>  <SCORE.norm>
-0.629727

>  <RMSD>
11.384

$$$$
ligand
 OpenBabel11021811473D
libRbt.so/2013.1/901 2013/11/27
 10  9  0  0  0  0  0  0  0  0999 V2000
   28.1266   16.2605    9.4638 N   0  0  0  0  0  0  0  0  0  0  0  0
   27.1062   15.3596   10.0703 C   0  0  2  0  0  0  0  0  0  0  0  0
   27.6830   14.5794   11.2432 C   0  0  0  0  0  0  0  0  0  0  0  0
   27.0634   14.4239   12.2966 O   0  0  0  0  0  0  0  0  0  0  0  0
   26.5233   14.4143    9.0223 C   0  0  0  0  0  0  0  0  0  0  0  0
   25.4604   13.4973    9.5821 C   0  0  0  0  0  0  0  0  0  0  0  0
   24.2410   14.2606   10.0255 C   0  0  0  0  0  0  0  0  0  0  0  0
   23.1734   13.3153   10.5476 C   0  0  0  0  0  0  0  0  0  0  0  0
   21.9689   14.0420   11.0266 N   0  0  0  0  0  0  0  0  0  0  0  0
   28.7899   14.0454   11.1570 O   0  0  0  0  0  0  0  0  0  0  0  0
  2  1  1  6  0  0  0
  2  3  1  0  0  0  0
  2  5  1  0  0  0  0
  3  4  1  0  0  0  0
  3 10  1  0  0  0  0
  5  6  1  0  0  0  0
  6  7  1  0  0  0  0
  7  8  1  0  0  0  0
  8  9  1  0  0  0  0
M  END
>  <CHROM.1>
136.81926849,-178.79632266,65.72696100,178.41758201,178.51656967,26.03571469
14.40547579,10.47067655,0.05949903,-0.21273779,-1.22514674

>  <Name>
ligand

>  <RI>
0

>  <Rbt.Current_Directory>
/home/itssahil/PROJECTS/Mol_Feturizer/New_Systems/rnas/3DIX

>  <Rbt.Executable>
rbdock ($Id: //depot/dev/client3/rdock/2013.1/src/exe/rbdock.cxx#4 $)

>  <Rbt.Library>
libRbt.so (2013.1, Build901 2013/11/27)

>  <Rbt.Parameter_File>
/export/apps/rDock/src/rDock_2013.1_src/data/scripts/dock_solv.prm

>  <Rbt.Receptor>
prm/blind_docking_60.prm

>  <SCORE>
-5.58123

>  <SCORE.INTER>
-4.2596

>  <SCORE.INTER.CONST>
1

>  <SCORE.INTER.POLAR>
0

>  <SCORE.INTER.ROT>
5

>  <SCORE.INTER.SOLV>
11.6474

>  <SCORE.INTER.VDW>
-13.6555

>  <SCORE.INTER.norm>
-0.42596

>  <SCORE.INTRA>
-1.32163

>  <SCORE.INTRA.DIHEDRAL>
-1.68029

>  <SCORE.INTRA.DIHEDRAL.0>
3.281

>  <SCORE.INTRA.POLAR>
0

>  <SCORE.INTRA.POLAR.0>
0

>  <SCORE.INTRA.REPUL>
0

>  <SCORE.INTRA.REPUL.0>
0

>  <SCORE.INTRA.SOLV>
-1.3282

>  <SCORE.INTRA.SOLV.lig_0>
-31.9458

>  <SCORE.INTRA.VDW>
0.182619

>  <SCORE.INTRA.VDW.0>
-0.672612

>  <SCORE.INTRA.norm>
-0.132163

>  <SCORE.RESTR>
0

>  <SCORE.RESTR.CAVITY>
0

>  <SCORE.RESTR.norm>
0

>  <SCORE.SYSTEM>
0

>  <SCORE.SYSTEM.CONST>
0

>  <SCORE.SYSTEM.DIHEDRAL>
0

>  <SCORE.SYSTEM.SOLV>
0

>  <SCORE.SYSTEM.norm>
0

>  <SCORE.heavy>
10

>  <SCORE.norm>
-0.558123

>  <RMSD>
11.393

$$$$
ligand
 OpenBabel11021811473D
libRbt.so/2013.1/901 2013/11/27
 10  9  0  0  0  0  0  0  0  0999 V2000
   26.5798   14.0571    8.5178 N   0  0  0  0  0  0  0  0  0  0  0  0
   26.7243   14.8767    9.7539 C   0  0  2  0  0  0  0  0  0  0  0  0
   28.1636   14.8833   10.2494 C   0  0  0  0  0  0  0  0  0  0  0  0
   28.5928   14.0334   11.0310 O   0  0  0  0  0  0  0  0  0  0  0  0
   25.7755   14.3868   10.8456 C   0  0  0  0  0  0  0  0  0  0  0  0
   24.3300   14.3679   10.4049 C   0  0  0  0  0  0  0  0  0  0  0  0
   23.4091   13.9686   11.5268 C   0  0  0  0  0  0  0  0  0  0  0  0
   21.9652   13.9458   11.0571 C   0  0  0  0  0  0  0  0  0  0  0  0
   21.0293   13.5604   12.1452 N   0  0  0  0  0  0  0  0  0  0  0  0
   28.9601   15.7338    9.8494 O   0  0  0  0  0  0  0  0  0  0  0  0
  2  1  1  6  0  0  0
  2  3  1  0  0  0  0
  2  5  1  0  0  0  0
  3  4  1  0  0  0  0
  3 10  1  0  0  0  0
  5  6  1  0  0  0  0
  6  7  1  0  0  0  0
  7  8  1  0  0  0  0
  8  9  1  0  0  0  0
M  END
>  <CHROM.1>
-89.02364303,-56.06367911,-176.23582666,-179.53396120,-179.74629175,25.59793632
14.38488560,10.54516203,0.24696623,-0.13992681,-1.46202413

>  <Name>
ligand

>  <RI>
0

>  <Rbt.Current_Directory>
/home/itssahil/PROJECTS/Mol_Feturizer/New_Systems/rnas/3DIX

>  <Rbt.Executable>
rbdock ($Id: //depot/dev/client3/rdock/2013.1/src/exe/rbdock.cxx#4 $)

>  <Rbt.Library>
libRbt.so (2013.1, Build901 2013/11/27)

>  <Rbt.Parameter_File>
/export/apps/rDock/src/rDock_2013.1_src/data/scripts/dock_solv.prm

>  <Rbt.Receptor>
prm/blind_docking_40.prm

>  <SCORE>
-5.40835

>  <SCORE.INTER>
-4.50092

>  <SCORE.INTER.CONST>
1

>  <SCORE.INTER.POLAR>
0

>  <SCORE.INTER.ROT>
5

>  <SCORE.INTER.SOLV>
5.02833

>  <SCORE.INTER.VDW>
-11.6101

>  <SCORE.INTER.norm>
-0.450092

>  <SCORE.INTRA>
-0.907434

>  <SCORE.INTRA.DIHEDRAL>
-1.74482

>  <SCORE.INTRA.DIHEDRAL.0>
3.281

>  <SCORE.INTRA.POLAR>
0

>  <SCORE.INTRA.POLAR.0>
0

>  <SCORE.INTRA.REPUL>
0

>  <SCORE.INTRA.REPUL.0>
0

>  <SCORE.INTRA.SOLV>
-0.617166

>  <SCORE.INTRA.SOLV.lig_0>
-31.9458

>  <SCORE.INTRA.VDW>
0.273556

>  <SCORE.INTRA.VDW.0>
-0.672612

>  <SCORE.INTRA.norm>
-0.0907434

>  <SCORE.RESTR>
0

>  <SCORE.RESTR.CAVITY>
0

>  <SCORE.RESTR.norm>
0

>  <SCORE.SYSTEM>
0

>  <SCORE.SYSTEM.CONST>
0

>  <SCORE.SYSTEM.DIHEDRAL>
0

>  <SCORE.SYSTEM.SOLV>
0

>  <SCORE.SYSTEM.norm>
0

>  <SCORE.heavy>
10

>  <SCORE.norm>
-0.540835

>  <RMSD>
11.507

$$$$
ligand
 OpenBabel11021811473D
libRbt.so/2013.1/901 2013/11/27
 10  9  0  0  0  0  0  0  0  0999 V2000
   27.3522   14.4321    8.3480 N   0  0  0  0  0  0  0  0  0  0  0  0
   26.8172   15.1044    9.5656 C   0  0  2  0  0  0  0  0  0  0  0  0
   27.9367   15.4946   10.5203 C   0  0  0  0  0  0  0  0  0  0  0  0
   28.6637   14.6572   11.0569 O   0  0  0  0  0  0  0  0  0  0  0  0
   25.7875   14.2212   10.2667 C   0  0  0  0  0  0  0  0  0  0  0  0
   24.5832   13.9220    9.4042 C   0  0  0  0  0  0  0  0  0  0  0  0
   23.5838   13.0544   10.1217 C   0  0  0  0  0  0  0  0  0  0  0  0
   22.9042   13.8258   11.2393 C   0  0  0  0  0  0  0  0  0  0  0  0
   21.9085   12.9960   11.9663 N   0  0  0  0  0  0  0  0  0  0  0  0
   28.1709   16.6801   10.7603 O   0  0  0  0  0  0  0  0  0  0  0  0
  2  1  1  6  0  0  0
  2  3  1  0  0  0  0
  2  5  1  0  0  0  0
  3  4  1  0  0  0  0
  3 10  1  0  0  0  0
  5  6  1  0  0  0  0
  6  7  1  0  0  0  0
  7  8  1  0  0  0  0
  8  9  1  0  0  0  0
M  END
>  <CHROM.1>
-63.08670294,-61.66565511,-179.80599518,70.08150031,179.89908437,25.80670473
14.45353194,10.34394162,0.01471680,-0.40868251,-1.88175814

>  <Name>
ligand

>  <RI>
0

>  <Rbt.Current_Directory>
/home/itssahil/PROJECTS/Mol_Feturizer/New_Systems/rnas/3DIX

>  <Rbt.Executable>
rbdock ($Id: //depot/dev/client3/rdock/2013.1/src/exe/rbdock.cxx#4 $)

>  <Rbt.Library>
libRbt.so (2013.1, Build901 2013/11/27)

>  <Rbt.Parameter_File>
/export/apps/rDock/src/rDock_2013.1_src/data/scripts/dock_solv.prm

>  <Rbt.Receptor>
prm/blind_docking_40.prm

>  <SCORE>
-5.71913

>  <SCORE.INTER>
-5.37697

>  <SCORE.INTER.CONST>
1

>  <SCORE.INTER.POLAR>
0

>  <SCORE.INTER.ROT>
5

>  <SCORE.INTER.SOLV>
6.7265

>  <SCORE.INTER.VDW>
-12.7601

>  <SCORE.INTER.norm>
-0.537697

>  <SCORE.INTRA>
-0.342163

>  <SCORE.INTRA.DIHEDRAL>
-1.37542

>  <SCORE.INTRA.DIHEDRAL.0>
3.281

>  <SCORE.INTRA.POLAR>
0

>  <SCORE.INTRA.POLAR.0>
0

>  <SCORE.INTRA.REPUL>
0

>  <SCORE.INTRA.REPUL.0>
0

>  <SCORE.INTRA.SOLV>
-0.422038

>  <SCORE.INTRA.SOLV.lig_0>
-31.9458

>  <SCORE.INTRA.VDW>
0.556568

>  <SCORE.INTRA.VDW.0>
-0.672612

>  <SCORE.INTRA.norm>
-0.0342163

>  <SCORE.RESTR>
0

>  <SCORE.RESTR.CAVITY>
0

>  <SCORE.RESTR.norm>
0

>  <SCORE.SYSTEM>
0

>  <SCORE.SYSTEM.CONST>
0

>  <SCORE.SYSTEM.DIHEDRAL>
0

>  <SCORE.SYSTEM.SOLV>
0

>  <SCORE.SYSTEM.norm>
0

>  <SCORE.heavy>
10

>  <SCORE.norm>
-0.571913

>  <RMSD>
11.556

$$$$
ligand
 OpenBabel11021811473D
libRbt.so/2013.1/901 2013/11/27
 10  9  0  0  0  0  0  0  0  0999 V2000
   26.6693   14.1155    8.5355 N   0  0  0  0  0  0  0  0  0  0  0  0
   26.5817   15.0710    9.6757 C   0  0  2  0  0  0  0  0  0  0  0  0
   27.9644   15.4745   10.1681 C   0  0  0  0  0  0  0  0  0  0  0  0
   28.3919   16.6244   10.0550 O   0  0  0  0  0  0  0  0  0  0  0  0
   25.7487   14.4852   10.8136 C   0  0  0  0  0  0  0  0  0  0  0  0
   24.3029   14.2654   10.4327 C   0  0  0  0  0  0  0  0  0  0  0  0
   23.4614   13.8937   11.6244 C   0  0  0  0  0  0  0  0  0  0  0  0
   22.0575   13.5072   11.1937 C   0  0  0  0  0  0  0  0  0  0  0  0
   21.3119   14.6578   10.6201 N   0  0  0  0  0  0  0  0  0  0  0  0
   28.6923   14.6562   10.7322 O   0  0  0  0  0  0  0  0  0  0  0  0
  2  1  1  6  0  0  0
  2  3  1  0  0  0  0
  2  5  1  0  0  0  0
  3  4  1  0  0  0  0
  3 10  1  0  0  0  0
  5  6  1  0  0  0  0
  6  7  1  0  0  0  0
  7  8  1  0  0  0  0
  8  9  1  0  0  0  0
M  END
>  <CHROM.1>
113.46364211,-64.62205523,-171.09649849,-172.81504448,-66.17579654,25.56064441
14.68791675,10.39372092,0.13796848,-0.23961376,-1.64170844

>  <Name>
ligand

>  <RI>
0

>  <Rbt.Current_Directory>
/home/itssahil/PROJECTS/Mol_Feturizer/New_Systems/rnas/3DIX

>  <Rbt.Executable>
rbdock ($Id: //depot/dev/client3/rdock/2013.1/src/exe/rbdock.cxx#4 $)

>  <Rbt.Library>
libRbt.so (2013.1, Build901 2013/11/27)

>  <Rbt.Parameter_File>
/export/apps/rDock/src/rDock_2013.1_src/data/scripts/dock_solv.prm

>  <Rbt.Receptor>
prm/blind_docking_80.prm

>  <SCORE>
-4.2055

>  <SCORE.INTER>
-3.83013

>  <SCORE.INTER.CONST>
1

>  <SCORE.INTER.POLAR>
0

>  <SCORE.INTER.ROT>
5

>  <SCORE.INTER.SOLV>
8.55672

>  <SCORE.INTER.VDW>
-12.339

>  <SCORE.INTER.norm>
-0.383013

>  <SCORE.INTRA>
-0.37537

>  <SCORE.INTRA.DIHEDRAL>
-0.98463

>  <SCORE.INTRA.DIHEDRAL.0>
3.281

>  <SCORE.INTRA.POLAR>
0

>  <SCORE.INTRA.POLAR.0>
0

>  <SCORE.INTRA.REPUL>
0

>  <SCORE.INTRA.REPUL.0>
0

>  <SCORE.INTRA.SOLV>
0.115138

>  <SCORE.INTRA.SOLV.lig_0>
-31.9458

>  <SCORE.INTRA.VDW>
0.0593763

>  <SCORE.INTRA.VDW.0>
-0.672612

>  <SCORE.INTRA.norm>
-0.037537

>  <SCORE.RESTR>
0

>  <SCORE.RESTR.CAVITY>
0

>  <SCORE.RESTR.norm>
0

>  <SCORE.SYSTEM>
0

>  <SCORE.SYSTEM.CONST>
0

>  <SCORE.SYSTEM.DIHEDRAL>
0

>  <SCORE.SYSTEM.SOLV>
0

>  <SCORE.SYSTEM.norm>
0

>  <SCORE.heavy>
10

>  <SCORE.norm>
-0.42055

>  <RMSD>
11.575

$$$$
ligand
 OpenBabel11021811473D
libRbt.so/2013.1/901 2013/11/27
 10  9  0  0  0  0  0  0  0  0999 V2000
   27.0569   14.2145    8.0010 N   0  0  0  0  0  0  0  0  0  0  0  0
   26.3144   14.7054    9.1961 C   0  0  2  0  0  0  0  0  0  0  0  0
   27.2294   14.8238   10.4069 C   0  0  0  0  0  0  0  0  0  0  0  0
   27.6814   13.8358   10.9875 O   0  0  0  0  0  0  0  0  0  0  0  0
   25.1204   13.8042    9.5028 C   0  0  0  0  0  0  0  0  0  0  0  0
   24.2470   14.3410   10.6132 C   0  0  0  0  0  0  0  0  0  0  0  0
   23.1208   13.3982   10.9434 C   0  0  0  0  0  0  0  0  0  0  0  0
   22.3522   13.8817   12.1606 C   0  0  0  0  0  0  0  0  0  0  0  0
   21.2741   12.9370   12.5527 N   0  0  0  0  0  0  0  0  0  0  0  0
   27.5748   15.9298   10.8255 O   0  0  0  0  0  0  0  0  0  0  0  0
  2  1  1  6  0  0  0
  2  3  1  0  0  0  0
  2  5  1  0  0  0  0
  3  4  1  0  0  0  0
  3 10  1  0  0  0  0
  5  6  1  0  0  0  0
  6  7  1  0  0  0  0
  7  8  1  0  0  0  0
  8  9  1  0  0  0  0
M  END
>  <CHROM.1>
-70.49728621,-173.75257886,-176.97508582,173.64213865,-177.20689798,25.22839442
14.19396151,10.54091980,0.32360353,-0.32581850,-1.77366500

>  <Name>
ligand

>  <RI>
0

>  <Rbt.Current_Directory>
/home/itssahil/PROJECTS/Mol_Feturizer/New_Systems/rnas/3DIX

>  <Rbt.Executable>
rbdock ($Id: //depot/dev/client3/rdock/2013.1/src/exe/rbdock.cxx#4 $)

>  <Rbt.Library>
libRbt.so (2013.1, Build901 2013/11/27)

>  <Rbt.Parameter_File>
/export/apps/rDock/src/rDock_2013.1_src/data/scripts/dock_solv.prm

>  <Rbt.Receptor>
prm/blind_docking_80.prm

>  <SCORE>
-5.29489

>  <SCORE.INTER>
-3.72036

>  <SCORE.INTER.CONST>
1

>  <SCORE.INTER.POLAR>
0

>  <SCORE.INTER.ROT>
5

>  <SCORE.INTER.SOLV>
5.26723

>  <SCORE.INTER.VDW>
-11.1693

>  <SCORE.INTER.norm>
-0.372036

>  <SCORE.INTRA>
-1.57453

>  <SCORE.INTRA.DIHEDRAL>
-1.45411

>  <SCORE.INTRA.DIHEDRAL.0>
3.281

>  <SCORE.INTRA.POLAR>
0

>  <SCORE.INTRA.POLAR.0>
0

>  <SCORE.INTRA.REPUL>
0

>  <SCORE.INTRA.REPUL.0>
0

>  <SCORE.INTRA.SOLV>
-1.58022

>  <SCORE.INTRA.SOLV.lig_0>
-31.9458

>  <SCORE.INTRA.VDW>
-0.0573687

>  <SCORE.INTRA.VDW.0>
-0.672612

>  <SCORE.INTRA.norm>
-0.157453

>  <SCORE.RESTR>
0

>  <SCORE.RESTR.CAVITY>
0

>  <SCORE.RESTR.norm>
0

>  <SCORE.SYSTEM>
0

>  <SCORE.SYSTEM.CONST>
0

>  <SCORE.SYSTEM.DIHEDRAL>
0

>  <SCORE.SYSTEM.SOLV>
0

>  <SCORE.SYSTEM.norm>
0

>  <SCORE.heavy>
10

>  <SCORE.norm>
-0.529489

>  <RMSD>
11.723

$$$$
ligand
 OpenBabel11021811473D
libRbt.so/2013.1/901 2013/11/27
 10  9  0  0  0  0  0  0  0  0999 V2000
   26.9609   14.2868    8.0102 N   0  0  0  0  0  0  0  0  0  0  0  0
   26.2515   14.7277    9.2444 C   0  0  2  0  0  0  0  0  0  0  0  0
   27.1946   14.7766   10.4382 C   0  0  0  0  0  0  0  0  0  0  0  0
   27.4916   15.8334   10.9975 O   0  0  0  0  0  0  0  0  0  0  0  0
   25.0533   13.8266    9.5344 C   0  0  0  0  0  0  0  0  0  0  0  0
   24.2259   14.3052   10.7050 C   0  0  0  0  0  0  0  0  0  0  0  0
   23.0353   13.4165   10.9481 C   0  0  0  0  0  0  0  0  0  0  0  0
   22.2484   13.8883   12.1581 C   0  0  0  0  0  0  0  0  0  0  0  0
   21.0719   13.0227   12.4323 N   0  0  0  0  0  0  0  0  0  0  0  0
   27.6682   13.7398   10.9056 O   0  0  0  0  0  0  0  0  0  0  0  0
  2  1  1  6  0  0  0
  2  3  1  0  0  0  0
  2  5  1  0  0  0  0
  3  4  1  0  0  0  0
  3 10  1  0  0  0  0
  5  6  1  0  0  0  0
  6  7  1  0  0  0  0
  7  8  1  0  0  0  0
  8  9  1  0  0  0  0
M  END
>  <CHROM.1>
114.03604480,-174.79388208,178.70505325,177.96704451,-179.47177664,25.15152896
14.18702117,10.55968463,0.31318924,-0.29799107,-1.75939225

>  <Name>
ligand

>  <RI>
0

>  <Rbt.Current_Directory>
/home/itssahil/PROJECTS/Mol_Feturizer/New_Systems/rnas/3DIX

>  <Rbt.Executable>
rbdock ($Id: //depot/dev/client3/rdock/2013.1/src/exe/rbdock.cxx#4 $)

>  <Rbt.Library>
libRbt.so (2013.1, Build901 2013/11/27)

>  <Rbt.Parameter_File>
/export/apps/rDock/src/rDock_2013.1_src/data/scripts/dock_solv.prm

>  <Rbt.Receptor>
prm/blind_docking_40.prm

>  <SCORE>
-5.07017

>  <SCORE.INTER>
-3.432

>  <SCORE.INTER.CONST>
1

>  <SCORE.INTER.POLAR>
0

>  <SCORE.INTER.ROT>
5

>  <SCORE.INTER.SOLV>
4.97334

>  <SCORE.INTER.VDW>
-10.8791

>  <SCORE.INTER.norm>
-0.3432

>  <SCORE.INTRA>
-1.63817

>  <SCORE.INTRA.DIHEDRAL>
-1.64226

>  <SCORE.INTRA.DIHEDRAL.0>
3.281

>  <SCORE.INTRA.POLAR>
0

>  <SCORE.INTRA.POLAR.0>
0

>  <SCORE.INTRA.REPUL>
0

>  <SCORE.INTRA.REPUL.0>
0

>  <SCORE.INTRA.SOLV>
-1.59258

>  <SCORE.INTRA.SOLV.lig_0>
-31.9458

>  <SCORE.INTRA.VDW>
-0.0207509

>  <SCORE.INTRA.VDW.0>
-0.672612

>  <SCORE.INTRA.norm>
-0.163817

>  <SCORE.RESTR>
0

>  <SCORE.RESTR.CAVITY>
0

>  <SCORE.RESTR.norm>
0

>  <SCORE.SYSTEM>
0

>  <SCORE.SYSTEM.CONST>
0

>  <SCORE.SYSTEM.DIHEDRAL>
0

>  <SCORE.SYSTEM.SOLV>
0

>  <SCORE.SYSTEM.norm>
0

>  <SCORE.heavy>
10

>  <SCORE.norm>
-0.507017

>  <RMSD>
11.739

$$$$
ligand
 OpenBabel11021811473D
libRbt.so/2013.1/901 2013/11/27
 10  9  0  0  0  0  0  0  0  0999 V2000
   27.0268   14.2253    7.9873 N   0  0  0  0  0  0  0  0  0  0  0  0
   26.2990   14.7112    9.1935 C   0  0  2  0  0  0  0  0  0  0  0  0
   27.2268   14.8160   10.3958 C   0  0  0  0  0  0  0  0  0  0  0  0
   27.5625   15.9008   10.8734 O   0  0  0  0  0  0  0  0  0  0  0  0
   25.1035   13.8139    9.5056 C   0  0  0  0  0  0  0  0  0  0  0  0
   24.2403   14.3504   10.6241 C   0  0  0  0  0  0  0  0  0  0  0  0
   23.0805   13.4379   10.9216 C   0  0  0  0  0  0  0  0  0  0  0  0
   22.2786   13.9530   12.1038 C   0  0  0  0  0  0  0  0  0  0  0  0
   21.1384   13.0602   12.4377 N   0  0  0  0  0  0  0  0  0  0  0  0
   27.6473   13.8010   10.9532 O   0  0  0  0  0  0  0  0  0  0  0  0
  2  1  1  6  0  0  0
  2  3  1  0  0  0  0
  2  5  1  0  0  0  0
  3  4  1  0  0  0  0
  3 10  1  0  0  0  0
  5  6  1  0  0  0  0
  6  7  1  0  0  0  0
  7  8  1  0  0  0  0
  8  9  1  0  0  0  0
M  END
>  <CHROM.1>
110.32769225,-173.46258085,-179.27802163,176.47433809,-179.01972137,25.19137244
14.21282042,10.52205168,0.30819512,-0.30655689,-1.78902045

>  <Name>
ligand

>  <RI>
0

>  <Rbt.Current_Directory>
/home/itssahil/PROJECTS/Mol_Feturizer/New_Systems/rnas/3DIX

>  <Rbt.Executable>
rbdock ($Id: //depot/dev/client3/rdock/2013.1/src/exe/rbdock.cxx#4 $)

>  <Rbt.Library>
libRbt.so (2013.1, Build901 2013/11/27)

>  <Rbt.Parameter_File>
/export/apps/rDock/src/rDock_2013.1_src/data/scripts/dock_solv.prm

>  <Rbt.Receptor>
prm/blind_docking_40.prm

>  <SCORE>
-5.17596

>  <SCORE.INTER>
-3.60317

>  <SCORE.INTER.CONST>
1

>  <SCORE.INTER.POLAR>
0

>  <SCORE.INTER.ROT>
5

>  <SCORE.INTER.SOLV>
5.03433

>  <SCORE.INTER.VDW>
-11.0136

>  <SCORE.INTER.norm>
-0.360317

>  <SCORE.INTRA>
-1.57279

>  <SCORE.INTRA.DIHEDRAL>
-1.53987

>  <SCORE.INTRA.DIHEDRAL.0>
3.281

>  <SCORE.INTRA.POLAR>
0

>  <SCORE.INTRA.POLAR.0>
0

>  <SCORE.INTRA.REPUL>
0

>  <SCORE.INTRA.REPUL.0>
0

>  <SCORE.INTRA.SOLV>
-1.59331

>  <SCORE.INTRA.SOLV.lig_0>
-31.9458

>  <SCORE.INTRA.VDW>
-0.0061993

>  <SCORE.INTRA.VDW.0>
-0.672612

>  <SCORE.INTRA.norm>
-0.157279

>  <SCORE.RESTR>
0

>  <SCORE.RESTR.CAVITY>
0

>  <SCORE.RESTR.norm>
0

>  <SCORE.SYSTEM>
0

>  <SCORE.SYSTEM.CONST>
0

>  <SCORE.SYSTEM.DIHEDRAL>
0

>  <SCORE.SYSTEM.SOLV>
0

>  <SCORE.SYSTEM.norm>
0

>  <SCORE.heavy>
10

>  <SCORE.norm>
-0.517596

>  <RMSD>
11.750

$$$$
ligand
 OpenBabel11021811473D
libRbt.so/2013.1/901 2013/11/27
 10  9  0  0  0  0  0  0  0  0999 V2000
   26.4934   14.1592    8.3366 N   0  0  0  0  0  0  0  0  0  0  0  0
   25.7941   14.5411    9.5958 C   0  0  2  0  0  0  0  0  0  0  0  0
   26.7029   14.3776   10.8060 C   0  0  0  0  0  0  0  0  0  0  0  0
   27.6039   13.5383   10.8418 O   0  0  0  0  0  0  0  0  0  0  0  0
   24.5076   13.7369    9.7691 C   0  0  0  0  0  0  0  0  0  0  0  0
   23.7068   14.1599   10.9789 C   0  0  0  0  0  0  0  0  0  0  0  0
   22.4758   13.3121   11.1584 C   0  0  0  0  0  0  0  0  0  0  0  0
   21.7211   13.7159   12.4128 C   0  0  0  0  0  0  0  0  0  0  0  0
   20.5099   12.8825   12.6293 N   0  0  0  0  0  0  0  0  0  0  0  0
   26.5810   15.1150   11.7854 O   0  0  0  0  0  0  0  0  0  0  0  0
  2  1  1  6  0  0  0
  2  3  1  0  0  0  0
  2  5  1  0  0  0  0
  3  4  1  0  0  0  0
  3 10  1  0  0  0  0
  5  6  1  0  0  0  0
  6  7  1  0  0  0  0
  7  8  1  0  0  0  0
  8  9  1  0  0  0  0
M  END
>  <CHROM.1>
-29.28650416,-175.67360157,-177.54832254,177.51144371,-179.13733487,24.64101220
13.95413167,10.85416391,0.33086415,-0.20716230,-1.66839107

>  <Name>
ligand

>  <RI>
0

>  <Rbt.Current_Directory>
/home/itssahil/PROJECTS/Mol_Feturizer/New_Systems/rnas/3DIX

>  <Rbt.Executable>
rbdock ($Id: //depot/dev/client3/rdock/2013.1/src/exe/rbdock.cxx#4 $)

>  <Rbt.Library>
libRbt.so (2013.1, Build901 2013/11/27)

>  <Rbt.Parameter_File>
/export/apps/rDock/src/rDock_2013.1_src/data/scripts/dock_solv.prm

>  <Rbt.Receptor>
prm/blind_docking_80.prm

>  <SCORE>
-5.26573

>  <SCORE.INTER>
-3.62985

>  <SCORE.INTER.CONST>
1

>  <SCORE.INTER.POLAR>
0

>  <SCORE.INTER.ROT>
5

>  <SCORE.INTER.SOLV>
4.63321

>  <SCORE.INTER.VDW>
-10.8976

>  <SCORE.INTER.norm>
-0.362985

>  <SCORE.INTRA>
-1.63588

>  <SCORE.INTRA.DIHEDRAL>
-1.60289

>  <SCORE.INTRA.DIHEDRAL.0>
3.281

>  <SCORE.INTRA.POLAR>
0

>  <SCORE.INTRA.POLAR.0>
0

>  <SCORE.INTRA.REPUL>
0

>  <SCORE.INTRA.REPUL.0>
0

>  <SCORE.INTRA.SOLV>
-1.57049

>  <SCORE.INTRA.SOLV.lig_0>
-31.9458

>  <SCORE.INTRA.VDW>
-0.0491932

>  <SCORE.INTRA.VDW.0>
-0.672612

>  <SCORE.INTRA.norm>
-0.163588

>  <SCORE.RESTR>
0

>  <SCORE.RESTR.CAVITY>
0

>  <SCORE.RESTR.norm>
0

>  <SCORE.SYSTEM>
0

>  <SCORE.SYSTEM.CONST>
0

>  <SCORE.SYSTEM.DIHEDRAL>
0

>  <SCORE.SYSTEM.SOLV>
0

>  <SCORE.SYSTEM.norm>
0

>  <SCORE.heavy>
10

>  <SCORE.norm>
-0.526573

>  <RMSD>
11.769

$$$$
ligand
 OpenBabel11021811473D
libRbt.so/2013.1/901 2013/11/27
 10  9  0  0  0  0  0  0  0  0999 V2000
   24.5155   22.8700   18.5673 N   0  0  0  0  0  0  0  0  0  0  0  0
   24.3262   24.2797   19.0117 C   0  0  2  0  0  0  0  0  0  0  0  0
   24.1904   25.2218   17.8238 C   0  0  0  0  0  0  0  0  0  0  0  0
   23.4481   26.2048   17.8468 O   0  0  0  0  0  0  0  0  0  0  0  0
   25.4666   24.7194   19.9270 C   0  0  0  0  0  0  0  0  0  0  0  0
   25.2707   26.1097   20.4862 C   0  0  0  0  0  0  0  0  0  0  0  0
   26.3919   26.5033   21.4105 C   0  0  0  0  0  0  0  0  0  0  0  0
   26.1442   27.8793   22.0032 C   0  0  0  0  0  0  0  0  0  0  0  0
   27.2802   28.3385   22.8443 N   0  0  0  0  0  0  0  0  0  0  0  0
   24.8553   25.0422   16.8023 O   0  0  0  0  0  0  0  0  0  0  0  0
  2  1  1  6  0  0  0
  2  3  1  0  0  0  0
  2  5  1  0  0  0  0
  3  4  1  0  0  0  0
  3 10  1  0  0  0  0
  5  6  1  0  0  0  0
  6  7  1  0  0  0  0
  7  8  1  0  0  0  0
  8  9  1  0  0  0  0
M  END
>  <CHROM.1>
144.66645907,-175.84238365,178.60325886,-177.67866124,-175.89902060,25.18012168
25.73161977,19.63751300,-2.55172635,-1.06805438,0.03320663

>  <Name>
ligand

>  <RI>
0

>  <Rbt.Current_Directory>
/home/itssahil/PROJECTS/Mol_Feturizer/New_Systems/rnas/3DIX

>  <Rbt.Executable>
rbdock ($Id: //depot/dev/client3/rdock/2013.1/src/exe/rbdock.cxx#4 $)

>  <Rbt.Library>
libRbt.so (2013.1, Build901 2013/11/27)

>  <Rbt.Parameter_File>
/export/apps/rDock/src/rDock_2013.1_src/data/scripts/dock_solv.prm

>  <Rbt.Receptor>
prm/blind_docking_80.prm

>  <SCORE>
-3.0337

>  <SCORE.INTER>
-1.32253

>  <SCORE.INTER.CONST>
1

>  <SCORE.INTER.POLAR>
0

>  <SCORE.INTER.ROT>
5

>  <SCORE.INTER.SOLV>
10.2995

>  <SCORE.INTER.VDW>
-11.2482

>  <SCORE.INTER.norm>
-0.132253

>  <SCORE.INTRA>
-1.71116

>  <SCORE.INTRA.DIHEDRAL>
-1.70008

>  <SCORE.INTRA.DIHEDRAL.0>
3.281

>  <SCORE.INTRA.POLAR>
0

>  <SCORE.INTRA.POLAR.0>
0

>  <SCORE.INTRA.REPUL>
0

>  <SCORE.INTRA.REPUL.0>
0

>  <SCORE.INTRA.SOLV>
-1.57216

>  <SCORE.INTRA.SOLV.lig_0>
-31.9458

>  <SCORE.INTRA.VDW>
-0.0750399

>  <SCORE.INTRA.VDW.0>
-0.672612

>  <SCORE.INTRA.norm>
-0.171116

>  <SCORE.RESTR>
0

>  <SCORE.RESTR.CAVITY>
0

>  <SCORE.RESTR.norm>
0

>  <SCORE.SYSTEM>
0

>  <SCORE.SYSTEM.CONST>
0

>  <SCORE.SYSTEM.DIHEDRAL>
0

>  <SCORE.SYSTEM.SOLV>
0

>  <SCORE.SYSTEM.norm>
0

>  <SCORE.heavy>
10

>  <SCORE.norm>
-0.30337

>  <RMSD>
11.887

$$$$
ligand
 OpenBabel11021811473D
libRbt.so/2013.1/901 2013/11/27
 10  9  0  0  0  0  0  0  0  0999 V2000
   25.2354   14.4890   10.9517 N   0  0  0  0  0  0  0  0  0  0  0  0
   26.3895   14.4444   10.0100 C   0  0  2  0  0  0  0  0  0  0  0  0
   27.6819   14.8622   10.6972 C   0  0  0  0  0  0  0  0  0  0  0  0
   28.5788   14.0576   10.9541 O   0  0  0  0  0  0  0  0  0  0  0  0
   26.1225   15.3103    8.7809 C   0  0  0  0  0  0  0  0  0  0  0  0
   24.8816   14.8941    8.0254 C   0  0  0  0  0  0  0  0  0  0  0  0
   25.0214   13.5152    7.4378 C   0  0  0  0  0  0  0  0  0  0  0  0
   25.9229   13.5385    6.2160 C   0  0  0  0  0  0  0  0  0  0  0  0
   27.3448   13.7795    6.5747 N   0  0  0  0  0  0  0  0  0  0  0  0
   27.8830   16.0419   10.9900 O   0  0  0  0  0  0  0  0  0  0  0  0
  2  1  1  1  0  0  0
  2  3  1  0  0  0  0
  2  5  1  0  0  0  0
  3  4  1  0  0  0  0
  3 10  1  0  0  0  0
  5  6  1  0  0  0  0
  6  7  1  0  0  0  0
  7  8  1  0  0  0  0
  8  9  1  0  0  0  0
M  END
>  <CHROM.1>
109.07379014,-58.41769532,-64.64656673,-75.23558865,70.61000023,26.53851169
14.50400692,9.08712072,1.15572263,-0.08525828,1.26316021

>  <Name>
ligand

>  <RI>
0

>  <Rbt.Current_Directory>
/home/itssahil/PROJECTS/Mol_Feturizer/New_Systems/rnas/3DIX

>  <Rbt.Executable>
rbdock ($Id: //depot/dev/client3/rdock/2013.1/src/exe/rbdock.cxx#4 $)

>  <Rbt.Library>
libRbt.so (2013.1, Build901 2013/11/27)

>  <Rbt.Parameter_File>
/export/apps/rDock/src/rDock_2013.1_src/data/scripts/dock_solv.prm

>  <Rbt.Receptor>
prm/blind_docking_40.prm

>  <SCORE>
-2.64025

>  <SCORE.INTER>
-4.78229

>  <SCORE.INTER.CONST>
1

>  <SCORE.INTER.POLAR>
0

>  <SCORE.INTER.ROT>
5

>  <SCORE.INTER.SOLV>
8.3563

>  <SCORE.INTER.VDW>
-12.907

>  <SCORE.INTER.norm>
-0.478229

>  <SCORE.INTRA>
2.14205

>  <SCORE.INTRA.DIHEDRAL>
-0.31348

>  <SCORE.INTRA.DIHEDRAL.0>
3.281

>  <SCORE.INTRA.POLAR>
0

>  <SCORE.INTRA.POLAR.0>
0

>  <SCORE.INTRA.REPUL>
0

>  <SCORE.INTRA.REPUL.0>
0

>  <SCORE.INTRA.SOLV>
2.62342

>  <SCORE.INTRA.SOLV.lig_0>
-31.9458

>  <SCORE.INTRA.VDW>
0.987077

>  <SCORE.INTRA.VDW.0>
-0.672612

>  <SCORE.INTRA.norm>
0.214205

>  <SCORE.RESTR>
0

>  <SCORE.RESTR.CAVITY>
0

>  <SCORE.RESTR.norm>
0

>  <SCORE.SYSTEM>
0

>  <SCORE.SYSTEM.CONST>
0

>  <SCORE.SYSTEM.DIHEDRAL>
0

>  <SCORE.SYSTEM.SOLV>
0

>  <SCORE.SYSTEM.norm>
0

>  <SCORE.heavy>
10

>  <SCORE.norm>
-0.264025

>  <RMSD>
12.662

$$$$
ligand
 OpenBabel11021811473D
libRbt.so/2013.1/901 2013/11/27
 10  9  0  0  0  0  0  0  0  0999 V2000
   24.6459   13.9736    8.3806 N   0  0  0  0  0  0  0  0  0  0  0  0
   24.4329   13.7388    9.8367 C   0  0  2  0  0  0  0  0  0  0  0  0
   23.0337   14.1567   10.2666 C   0  0  0  0  0  0  0  0  0  0  0  0
   22.3454   13.4677   11.0210 O   0  0  0  0  0  0  0  0  0  0  0  0
   25.4943   14.4594   10.6649 C   0  0  0  0  0  0  0  0  0  0  0  0
   26.8755   13.8704   10.4936 C   0  0  0  0  0  0  0  0  0  0  0  0
   27.9196   14.6732   11.2225 C   0  0  0  0  0  0  0  0  0  0  0  0
   28.1918   15.9829   10.5038 C   0  0  0  0  0  0  0  0  0  0  0  0
   28.7784   15.7692    9.1551 N   0  0  0  0  0  0  0  0  0  0  0  0
   22.5571   15.2291    9.8917 O   0  0  0  0  0  0  0  0  0  0  0  0
  2  1  1  6  0  0  0
  2  3  1  0  0  0  0
  2  5  1  0  0  0  0
  3  4  1  0  0  0  0
  3 10  1  0  0  0  0
  5  6  1  0  0  0  0
  6  7  1  0  0  0  0
  7  8  1  0  0  0  0
  8  9  1  0  0  0  0
M  END
>  <CHROM.1>
136.57139168,-68.24799742,174.90755915,-73.22996277,-64.27057862,25.38519934
14.53788871,10.15321162,3.06627230,0.20527531,1.91328381

>  <Name>
ligand

>  <RI>
0

>  <Rbt.Current_Directory>
/home/itssahil/PROJECTS/Mol_Feturizer/New_Systems/rnas/3DIX

>  <Rbt.Executable>
rbdock ($Id: //depot/dev/client3/rdock/2013.1/src/exe/rbdock.cxx#4 $)

>  <Rbt.Library>
libRbt.so (2013.1, Build901 2013/11/27)

>  <Rbt.Parameter_File>
/export/apps/rDock/src/rDock_2013.1_src/data/scripts/dock_solv.prm

>  <Rbt.Receptor>
prm/blind_docking_40.prm

>  <SCORE>
-4.36655

>  <SCORE.INTER>
-4.76752

>  <SCORE.INTER.CONST>
1

>  <SCORE.INTER.POLAR>
0

>  <SCORE.INTER.ROT>
5

>  <SCORE.INTER.SOLV>
11.7379

>  <SCORE.INTER.VDW>
-14.0243

>  <SCORE.INTER.norm>
-0.476752

>  <SCORE.INTRA>
0.40097

>  <SCORE.INTRA.DIHEDRAL>
-0.674399

>  <SCORE.INTRA.DIHEDRAL.0>
3.281

>  <SCORE.INTRA.POLAR>
0

>  <SCORE.INTRA.POLAR.0>
0

>  <SCORE.INTRA.REPUL>
0

>  <SCORE.INTRA.REPUL.0>
0

>  <SCORE.INTRA.SOLV>
0.715791

>  <SCORE.INTRA.SOLV.lig_0>
-31.9458

>  <SCORE.INTRA.VDW>
0.380274

>  <SCORE.INTRA.VDW.0>
-0.672612

>  <SCORE.INTRA.norm>
0.040097

>  <SCORE.RESTR>
0

>  <SCORE.RESTR.CAVITY>
0

>  <SCORE.RESTR.norm>
0

>  <SCORE.SYSTEM>
0

>  <SCORE.SYSTEM.CONST>
0

>  <SCORE.SYSTEM.DIHEDRAL>
0

>  <SCORE.SYSTEM.SOLV>
0

>  <SCORE.SYSTEM.norm>
0

>  <SCORE.heavy>
10

>  <SCORE.norm>
-0.436655

>  <RMSD>
12.778

$$$$
ligand
 OpenBabel11021811473D
libRbt.so/2013.1/901 2013/11/27
 10  9  0  0  0  0  0  0  0  0999 V2000
   23.7904   14.7276    8.6807 N   0  0  0  0  0  0  0  0  0  0  0  0
   23.7579   13.8492    9.8840 C   0  0  2  0  0  0  0  0  0  0  0  0
   22.3502   13.7406   10.4530 C   0  0  0  0  0  0  0  0  0  0  0  0
   21.9797   12.7643   11.1067 O   0  0  0  0  0  0  0  0  0  0  0  0
   24.7372   14.3445   10.9459 C   0  0  0  0  0  0  0  0  0  0  0  0
   26.1805   14.2413   10.5101 C   0  0  0  0  0  0  0  0  0  0  0  0
   27.1248   14.6860   11.5950 C   0  0  0  0  0  0  0  0  0  0  0  0
   28.5681   14.5470   11.1440 C   0  0  0  0  0  0  0  0  0  0  0  0
   28.8563   15.3592    9.9332 N   0  0  0  0  0  0  0  0  0  0  0  0
   21.5405   14.6565   10.3008 O   0  0  0  0  0  0  0  0  0  0  0  0
  2  1  1  6  0  0  0
  2  3  1  0  0  0  0
  2  5  1  0  0  0  0
  3  4  1  0  0  0  0
  3 10  1  0  0  0  0
  5  6  1  0  0  0  0
  6  7  1  0  0  0  0
  7  8  1  0  0  0  0
  8  9  1  0  0  0  0
M  END
>  <CHROM.1>
153.96839348,-65.83136220,-177.79411115,178.86472272,59.64923070,24.84502819
14.28618972,10.46672611,3.11406821,0.17522617,2.06790118

>  <Name>
ligand

>  <RI>
0

>  <Rbt.Current_Directory>
/home/itssahil/PROJECTS/Mol_Feturizer/New_Systems/rnas/3DIX

>  <Rbt.Executable>
rbdock ($Id: //depot/dev/client3/rdock/2013.1/src/exe/rbdock.cxx#4 $)

>  <Rbt.Library>
libRbt.so (2013.1, Build901 2013/11/27)

>  <Rbt.Parameter_File>
/export/apps/rDock/src/rDock_2013.1_src/data/scripts/dock_solv.prm

>  <Rbt.Receptor>
prm/blind_docking_40.prm

>  <SCORE>
-4.38147

>  <SCORE.INTER>
-3.70905

>  <SCORE.INTER.CONST>
1

>  <SCORE.INTER.POLAR>
0

>  <SCORE.INTER.ROT>
5

>  <SCORE.INTER.SOLV>
11.7232

>  <SCORE.INTER.VDW>
-13.3138

>  <SCORE.INTER.norm>
-0.370905

>  <SCORE.INTRA>
-0.672423

>  <SCORE.INTRA.DIHEDRAL>
-1.68606

>  <SCORE.INTRA.DIHEDRAL.0>
3.281

>  <SCORE.INTRA.POLAR>
0

>  <SCORE.INTRA.POLAR.0>
0

>  <SCORE.INTRA.REPUL>
0

>  <SCORE.INTRA.REPUL.0>
0

>  <SCORE.INTRA.SOLV>
0.271113

>  <SCORE.INTRA.SOLV.lig_0>
-31.9458

>  <SCORE.INTRA.VDW>
0.0350507

>  <SCORE.INTRA.VDW.0>
-0.672612

>  <SCORE.INTRA.norm>
-0.0672423

>  <SCORE.RESTR>
0

>  <SCORE.RESTR.CAVITY>
0

>  <SCORE.RESTR.norm>
0

>  <SCORE.SYSTEM>
0

>  <SCORE.SYSTEM.CONST>
0

>  <SCORE.SYSTEM.DIHEDRAL>
0

>  <SCORE.SYSTEM.SOLV>
0

>  <SCORE.SYSTEM.norm>
0

>  <SCORE.heavy>
10

>  <SCORE.norm>
-0.438147

>  <RMSD>
12.874

$$$$
ligand
 OpenBabel11021811473D
libRbt.so/2013.1/901 2013/11/27
 10  9  0  0  0  0  0  0  0  0999 V2000
   27.4442   16.0167    9.2730 N   0  0  0  0  0  0  0  0  0  0  0  0
   26.7291   14.9635   10.0476 C   0  0  2  0  0  0  0  0  0  0  0  0
   27.5405   14.5171   11.2558 C   0  0  0  0  0  0  0  0  0  0  0  0
   27.0846   14.5459   12.3999 O   0  0  0  0  0  0  0  0  0  0  0  0
   26.3819   13.7736    9.1558 C   0  0  0  0  0  0  0  0  0  0  0  0
   26.0827   14.1738    7.7296 C   0  0  0  0  0  0  0  0  0  0  0  0
   26.1536   12.9976    6.7927 C   0  0  0  0  0  0  0  0  0  0  0  0
   26.2015   13.4614    5.3475 C   0  0  0  0  0  0  0  0  0  0  0  0
   26.4370   12.3356    4.4064 N   0  0  0  0  0  0  0  0  0  0  0  0
   28.6824   14.0765   11.1156 O   0  0  0  0  0  0  0  0  0  0  0  0
  2  1  1  6  0  0  0
  2  3  1  0  0  0  0
  2  5  1  0  0  0  0
  3  4  1  0  0  0  0
  3 10  1  0  0  0  0
  5  6  1  0  0  0  0
  6  7  1  0  0  0  0
  7  8  1  0  0  0  0
  8  9  1  0  0  0  0
M  END
>  <CHROM.1>
124.80521520,-32.99912486,162.81045901,-165.66012676,173.09229968,26.89346876
14.08001171,8.79194438,0.84157247,-1.25252272,0.59649703

>  <Name>
ligand

>  <RI>
0

>  <Rbt.Current_Directory>
/home/itssahil/PROJECTS/Mol_Feturizer/New_Systems/rnas/3DIX

>  <Rbt.Executable>
rbdock ($Id: //depot/dev/client3/rdock/2013.1/src/exe/rbdock.cxx#4 $)

>  <Rbt.Library>
libRbt.so (2013.1, Build901 2013/11/27)

>  <Rbt.Parameter_File>
/export/apps/rDock/src/rDock_2013.1_src/data/scripts/dock_solv.prm

>  <Rbt.Receptor>
prm/blind_docking_40.prm

>  <SCORE>
-1.46963

>  <SCORE.INTER>
-3.14518

>  <SCORE.INTER.CONST>
1

>  <SCORE.INTER.POLAR>
0

>  <SCORE.INTER.ROT>
5

>  <SCORE.INTER.SOLV>
10.2286

>  <SCORE.INTER.VDW>
-12.4397

>  <SCORE.INTER.norm>
-0.314518

>  <SCORE.INTRA>
1.67117

>  <SCORE.INTRA.DIHEDRAL>
2.7561

>  <SCORE.INTRA.DIHEDRAL.0>
3.281

>  <SCORE.INTRA.POLAR>
0

>  <SCORE.INTRA.POLAR.0>
0

>  <SCORE.INTRA.REPUL>
0

>  <SCORE.INTRA.REPUL.0>
0

>  <SCORE.INTRA.SOLV>
-0.275147

>  <SCORE.INTRA.SOLV.lig_0>
-31.9458

>  <SCORE.INTRA.VDW>
0.430694

>  <SCORE.INTRA.VDW.0>
-0.672612

>  <SCORE.INTRA.norm>
0.167117

>  <SCORE.RESTR>
0.00438205

>  <SCORE.RESTR.CAVITY>
0.00438205

>  <SCORE.RESTR.norm>
0.000438205

>  <SCORE.SYSTEM>
0

>  <SCORE.SYSTEM.CONST>
0

>  <SCORE.SYSTEM.DIHEDRAL>
0

>  <SCORE.SYSTEM.SOLV>
0

>  <SCORE.SYSTEM.norm>
0

>  <SCORE.heavy>
10

>  <SCORE.norm>
-0.146963

>  <RMSD>
12.916

$$$$
ligand
 OpenBabel11021811473D
libRbt.so/2013.1/901 2013/11/27
 10  9  0  0  0  0  0  0  0  0999 V2000
   26.4185   14.1485   10.9667 N   0  0  0  0  0  0  0  0  0  0  0  0
   27.0443   14.6469    9.7094 C   0  0  2  0  0  0  0  0  0  0  0  0
   27.9946   15.8038    9.9841 C   0  0  0  0  0  0  0  0  0  0  0  0
   28.8250   16.1821    9.1565 O   0  0  0  0  0  0  0  0  0  0  0  0
   25.9778   15.0487    8.6931 C   0  0  0  0  0  0  0  0  0  0  0  0
   25.7678   14.0085    7.6170 C   0  0  0  0  0  0  0  0  0  0  0  0
   27.0095   13.7995    6.7920 C   0  0  0  0  0  0  0  0  0  0  0  0
   26.7724   12.7547    5.7159 C   0  0  0  0  0  0  0  0  0  0  0  0
   27.9975   12.4845    4.9192 N   0  0  0  0  0  0  0  0  0  0  0  0
   27.9355   16.4246   11.0467 O   0  0  0  0  0  0  0  0  0  0  0  0
  2  1  1  1  0  0  0
  2  3  1  0  0  0  0
  2  5  1  0  0  0  0
  3  4  1  0  0  0  0
  3 10  1  0  0  0  0
  5  6  1  0  0  0  0
  6  7  1  0  0  0  0
  7  8  1  0  0  0  0
  8  9  1  0  0  0  0
M  END
>  <CHROM.1>
164.26640225,-101.61938147,-62.67168975,-179.80131214,-177.63788893,27.19720394
14.56108389,8.47540648,1.46192291,0.50685453,1.08809320

>  <Name>
ligand

>  <RI>
0

>  <Rbt.Current_Directory>
/home/itssahil/PROJECTS/Mol_Feturizer/New_Systems/rnas/3DIX

>  <Rbt.Executable>
rbdock ($Id: //depot/dev/client3/rdock/2013.1/src/exe/rbdock.cxx#4 $)

>  <Rbt.Library>
libRbt.so (2013.1, Build901 2013/11/27)

>  <Rbt.Parameter_File>
/export/apps/rDock/src/rDock_2013.1_src/data/scripts/dock_solv.prm

>  <Rbt.Receptor>
prm/blind_docking_40.prm

>  <SCORE>
-3.84783

>  <SCORE.INTER>
-4.88733

>  <SCORE.INTER.CONST>
1

>  <SCORE.INTER.POLAR>
0

>  <SCORE.INTER.ROT>
5

>  <SCORE.INTER.SOLV>
5.97157

>  <SCORE.INTER.VDW>
-12.1821

>  <SCORE.INTER.norm>
-0.488733

>  <SCORE.INTRA>
1.0395

>  <SCORE.INTRA.DIHEDRAL>
2.77991

>  <SCORE.INTRA.DIHEDRAL.0>
3.281

>  <SCORE.INTRA.POLAR>
0

>  <SCORE.INTRA.POLAR.0>
0

>  <SCORE.INTRA.REPUL>
0

>  <SCORE.INTRA.REPUL.0>
0

>  <SCORE.INTRA.SOLV>
-0.834973

>  <SCORE.INTRA.SOLV.lig_0>
-31.9458

>  <SCORE.INTRA.VDW>
0.0670301

>  <SCORE.INTRA.VDW.0>
-0.672612

>  <SCORE.INTRA.norm>
0.10395

>  <SCORE.RESTR>
0

>  <SCORE.RESTR.CAVITY>
0

>  <SCORE.RESTR.norm>
0

>  <SCORE.SYSTEM>
0

>  <SCORE.SYSTEM.CONST>
0

>  <SCORE.SYSTEM.DIHEDRAL>
0

>  <SCORE.SYSTEM.SOLV>
0

>  <SCORE.SYSTEM.norm>
0

>  <SCORE.heavy>
10

>  <SCORE.norm>
-0.384783

>  <RMSD>
13.066

$$$$
ligand
 OpenBabel11021811473D
libRbt.so/2013.1/901 2013/11/27
 10  9  0  0  0  0  0  0  0  0999 V2000
   27.1291   15.7031    9.5208 N   0  0  0  0  0  0  0  0  0  0  0  0
   26.0280   14.8864    8.9366 C   0  0  2  0  0  0  0  0  0  0  0  0
   25.2610   15.6664    7.8781 C   0  0  0  0  0  0  0  0  0  0  0  0
   24.8661   15.1436    6.8348 O   0  0  0  0  0  0  0  0  0  0  0  0
   25.0872   14.3814   10.0283 C   0  0  0  0  0  0  0  0  0  0  0  0
   24.0356   13.4299    9.5060 C   0  0  0  0  0  0  0  0  0  0  0  0
   23.1014   12.9767   10.5960 C   0  0  0  0  0  0  0  0  0  0  0  0
   22.1783   14.1059   11.0191 C   0  0  0  0  0  0  0  0  0  0  0  0
   21.2406   13.6886   12.0938 N   0  0  0  0  0  0  0  0  0  0  0  0
   24.9811   16.8532    8.0542 O   0  0  0  0  0  0  0  0  0  0  0  0
  2  1  1  1  0  0  0
  2  3  1  0  0  0  0
  2  5  1  0  0  0  0
  3  4  1  0  0  0  0
  3 10  1  0  0  0  0
  5  6  1  0  0  0  0
  6  7  1  0  0  0  0
  7  8  1  0  0  0  0
  8  9  1  0  0  0  0
M  END
>  <CHROM.1>
140.41450551,-174.02474217,-178.51426024,71.65180393,179.89256195,24.38168449
14.70477892,9.41644520,-0.80993955,0.15253767,2.03157315

>  <Name>
ligand

>  <RI>
0

>  <Rbt.Current_Directory>
/home/itssahil/PROJECTS/Mol_Feturizer/New_Systems/rnas/3DIX

>  <Rbt.Executable>
rbdock ($Id: //depot/dev/client3/rdock/2013.1/src/exe/rbdock.cxx#4 $)

>  <Rbt.Library>
libRbt.so (2013.1, Build901 2013/11/27)

>  <Rbt.Parameter_File>
/export/apps/rDock/src/rDock_2013.1_src/data/scripts/dock_solv.prm

>  <Rbt.Receptor>
prm/blind_docking_40.prm

>  <SCORE>
-4.59256

>  <SCORE.INTER>
-3.7577

>  <SCORE.INTER.CONST>
1

>  <SCORE.INTER.POLAR>
0

>  <SCORE.INTER.ROT>
5

>  <SCORE.INTER.SOLV>
7.35311

>  <SCORE.INTER.VDW>
-11.8895

>  <SCORE.INTER.norm>
-0.37577

>  <SCORE.INTRA>
-0.834862

>  <SCORE.INTRA.DIHEDRAL>
-1.15753

>  <SCORE.INTRA.DIHEDRAL.0>
3.281

>  <SCORE.INTRA.POLAR>
0

>  <SCORE.INTRA.POLAR.0>
0

>  <SCORE.INTRA.REPUL>
0

>  <SCORE.INTRA.REPUL.0>
0

>  <SCORE.INTRA.SOLV>
-1.33557

>  <SCORE.INTRA.SOLV.lig_0>
-31.9458

>  <SCORE.INTRA.VDW>
0.411691

>  <SCORE.INTRA.VDW.0>
-0.672612

>  <SCORE.INTRA.norm>
-0.0834862

>  <SCORE.RESTR>
0

>  <SCORE.RESTR.CAVITY>
0

>  <SCORE.RESTR.norm>
0

>  <SCORE.SYSTEM>
0

>  <SCORE.SYSTEM.CONST>
0

>  <SCORE.SYSTEM.DIHEDRAL>
0

>  <SCORE.SYSTEM.SOLV>
0

>  <SCORE.SYSTEM.norm>
0

>  <SCORE.heavy>
10

>  <SCORE.norm>
-0.459256

>  <RMSD>
13.108

$$$$
ligand
 OpenBabel11021811473D
libRbt.so/2013.1/901 2013/11/27
 10  9  0  0  0  0  0  0  0  0999 V2000
   24.5596    6.9117   27.8402 N   0  0  0  0  0  0  0  0  0  0  0  0
   25.7425    6.1612   27.3319 C   0  0  2  0  0  0  0  0  0  0  0  0
   25.6114    4.6694   27.6047 C   0  0  0  0  0  0  0  0  0  0  0  0
   25.5943    4.2099   28.7476 O   0  0  0  0  0  0  0  0  0  0  0  0
   27.0347    6.7122   27.9307 C   0  0  0  0  0  0  0  0  0  0  0  0
   27.3947    8.0798   27.3979 C   0  0  0  0  0  0  0  0  0  0  0  0
   28.8076    8.4622   27.7495 C   0  0  0  0  0  0  0  0  0  0  0  0
   29.2012    9.7597   27.0656 C   0  0  0  0  0  0  0  0  0  0  0  0
   28.3941   10.9117   27.5451 N   0  0  0  0  0  0  0  0  0  0  0  0
   25.4834    3.8712   26.6750 O   0  0  0  0  0  0  0  0  0  0  0  0
  2  1  1  1  0  0  0
  2  3  1  0  0  0  0
  2  5  1  0  0  0  0
  3  4  1  0  0  0  0
  3 10  1  0  0  0  0
  5  6  1  0  0  0  0
  6  7  1  0  0  0  0
  7  8  1  0  0  0  0
  8  9  1  0  0  0  0
M  END
>  <CHROM.1>
-64.95352491,-70.63888557,-166.87946443,173.18717327,64.63500024,26.77181709
6.93104921,27.59383435,2.12966323,-0.10356775,-3.12149185

>  <Name>
ligand

>  <RI>
0

>  <Rbt.Current_Directory>
/home/itssahil/PROJECTS/Mol_Feturizer/New_Systems/rnas/3DIX

>  <Rbt.Executable>
rbdock ($Id: //depot/dev/client3/rdock/2013.1/src/exe/rbdock.cxx#4 $)

>  <Rbt.Library>
libRbt.so (2013.1, Build901 2013/11/27)

>  <Rbt.Parameter_File>
/export/apps/rDock/src/rDock_2013.1_src/data/scripts/dock_solv.prm

>  <Rbt.Receptor>
prm/blind_docking_60.prm

>  <SCORE>
-3.9802

>  <SCORE.INTER>
-3.76909

>  <SCORE.INTER.CONST>
1

>  <SCORE.INTER.POLAR>
0

>  <SCORE.INTER.ROT>
5

>  <SCORE.INTER.SOLV>
7.42494

>  <SCORE.INTER.VDW>
-11.921

>  <SCORE.INTER.norm>
-0.376909

>  <SCORE.INTRA>
-0.211111

>  <SCORE.INTRA.DIHEDRAL>
-0.387681

>  <SCORE.INTRA.DIHEDRAL.0>
3.281

>  <SCORE.INTRA.POLAR>
0

>  <SCORE.INTRA.POLAR.0>
0

>  <SCORE.INTRA.REPUL>
0

>  <SCORE.INTRA.REPUL.0>
0

>  <SCORE.INTRA.SOLV>
0.0539903

>  <SCORE.INTRA.SOLV.lig_0>
-31.9458

>  <SCORE.INTRA.VDW>
-0.0442659

>  <SCORE.INTRA.VDW.0>
-0.672612

>  <SCORE.INTRA.norm>
-0.0211111

>  <SCORE.RESTR>
0

>  <SCORE.RESTR.CAVITY>
0

>  <SCORE.RESTR.norm>
0

>  <SCORE.SYSTEM>
0

>  <SCORE.SYSTEM.CONST>
0

>  <SCORE.SYSTEM.DIHEDRAL>
0

>  <SCORE.SYSTEM.SOLV>
0

>  <SCORE.SYSTEM.norm>
0

>  <SCORE.heavy>
10

>  <SCORE.norm>
-0.39802

>  <RMSD>
13.192

$$$$
ligand
 OpenBabel11021811473D
libRbt.so/2013.1/901 2013/11/27
 10  9  0  0  0  0  0  0  0  0999 V2000
   26.9311   14.6222    8.4979 N   0  0  0  0  0  0  0  0  0  0  0  0
   25.4519   14.4456    8.5348 C   0  0  2  0  0  0  0  0  0  0  0  0
   24.7370   15.6202    7.8817 C   0  0  0  0  0  0  0  0  0  0  0  0
   23.6774   15.4850    7.2680 O   0  0  0  0  0  0  0  0  0  0  0  0
   24.9640   14.2401    9.9671 C   0  0  0  0  0  0  0  0  0  0  0  0
   23.4906   13.9136   10.0466 C   0  0  0  0  0  0  0  0  0  0  0  0
   23.0366   13.7228   11.4691 C   0  0  0  0  0  0  0  0  0  0  0  0
   21.5621   13.3632   11.5210 C   0  0  0  0  0  0  0  0  0  0  0  0
   21.0865   13.1526   12.9131 N   0  0  0  0  0  0  0  0  0  0  0  0
   25.1895   16.7619    7.9794 O   0  0  0  0  0  0  0  0  0  0  0  0
  2  1  1  1  0  0  0
  2  3  1  0  0  0  0
  2  5  1  0  0  0  0
  3  4  1  0  0  0  0
  3 10  1  0  0  0  0
  5  6  1  0  0  0  0
  6  7  1  0  0  0  0
  7  8  1  0  0  0  0
  8  9  1  0  0  0  0
M  END
>  <CHROM.1>
146.93100166,-174.04446552,-179.74013451,-178.63603653,179.34538189,24.00382402
14.56246316,9.58440184,-0.89839419,-0.15348548,2.18569395

>  <Name>
ligand

>  <RI>
0

>  <Rbt.Current_Directory>
/home/itssahil/PROJECTS/Mol_Feturizer/New_Systems/rnas/3DIX

>  <Rbt.Executable>
rbdock ($Id: //depot/dev/client3/rdock/2013.1/src/exe/rbdock.cxx#4 $)

>  <Rbt.Library>
libRbt.so (2013.1, Build901 2013/11/27)

>  <Rbt.Parameter_File>
/export/apps/rDock/src/rDock_2013.1_src/data/scripts/dock_solv.prm

>  <Rbt.Receptor>
prm/blind_docking_40.prm

>  <SCORE>
-6.00205

>  <SCORE.INTER>
-4.2531

>  <SCORE.INTER.CONST>
1

>  <SCORE.INTER.POLAR>
0

>  <SCORE.INTER.ROT>
5

>  <SCORE.INTER.SOLV>
5.3591

>  <SCORE.INTER.VDW>
-11.5551

>  <SCORE.INTER.norm>
-0.42531

>  <SCORE.INTRA>
-1.74894

>  <SCORE.INTRA.DIHEDRAL>
-1.71937

>  <SCORE.INTRA.DIHEDRAL.0>
3.281

>  <SCORE.INTRA.POLAR>
0

>  <SCORE.INTRA.POLAR.0>
0

>  <SCORE.INTRA.REPUL>
0

>  <SCORE.INTRA.REPUL.0>
0

>  <SCORE.INTRA.SOLV>
-1.57042

>  <SCORE.INTRA.SOLV.lig_0>
-31.9458

>  <SCORE.INTRA.VDW>
-0.10405

>  <SCORE.INTRA.VDW.0>
-0.672612

>  <SCORE.INTRA.norm>
-0.174894

>  <SCORE.RESTR>
0

>  <SCORE.RESTR.CAVITY>
0

>  <SCORE.RESTR.norm>
0

>  <SCORE.SYSTEM>
0

>  <SCORE.SYSTEM.CONST>
0

>  <SCORE.SYSTEM.DIHEDRAL>
0

>  <SCORE.SYSTEM.SOLV>
0

>  <SCORE.SYSTEM.norm>
0

>  <SCORE.heavy>
10

>  <SCORE.norm>
-0.600205

>  <RMSD>
13.213

$$$$
ligand
 OpenBabel11021811473D
libRbt.so/2013.1/901 2013/11/27
 10  9  0  0  0  0  0  0  0  0999 V2000
   26.8602   14.6249    8.3957 N   0  0  0  0  0  0  0  0  0  0  0  0
   25.3788   14.4936    8.4906 C   0  0  2  0  0  0  0  0  0  0  0  0
   24.6758   15.7066    7.8978 C   0  0  0  0  0  0  0  0  0  0  0  0
   25.1458   16.8425    7.9789 O   0  0  0  0  0  0  0  0  0  0  0  0
   24.9443   14.2659    9.9366 C   0  0  0  0  0  0  0  0  0  0  0  0
   23.4826   13.9030   10.0625 C   0  0  0  0  0  0  0  0  0  0  0  0
   23.0803   13.6944   11.4980 C   0  0  0  0  0  0  0  0  0  0  0  0
   21.6351   13.2378   11.5921 C   0  0  0  0  0  0  0  0  0  0  0  0
   21.2191   12.9842   12.9961 N   0  0  0  0  0  0  0  0  0  0  0  0
   23.6167   15.5782    7.2818 O   0  0  0  0  0  0  0  0  0  0  0  0
  2  1  1  1  0  0  0
  2  3  1  0  0  0  0
  2  5  1  0  0  0  0
  3  4  1  0  0  0  0
  3 10  1  0  0  0  0
  5  6  1  0  0  0  0
  6  7  1  0  0  0  0
  7  8  1  0  0  0  0
  8  9  1  0  0  0  0
M  END
>  <CHROM.1>
-34.39280292,-170.64240219,-179.58374917,-176.08033802,178.30730701,23.99498430
14.56371795,9.58979437,-0.93911663,-0.17325410,2.21647556

>  <Name>
ligand

>  <RI>
0

>  <Rbt.Current_Directory>
/home/itssahil/PROJECTS/Mol_Feturizer/New_Systems/rnas/3DIX

>  <Rbt.Executable>
rbdock ($Id: //depot/dev/client3/rdock/2013.1/src/exe/rbdock.cxx#4 $)

>  <Rbt.Library>
libRbt.so (2013.1, Build901 2013/11/27)

>  <Rbt.Parameter_File>
/export/apps/rDock/src/rDock_2013.1_src/data/scripts/dock_solv.prm

>  <Rbt.Receptor>
prm/blind_docking_40.prm

>  <SCORE>
-5.94803

>  <SCORE.INTER>
-4.31954

>  <SCORE.INTER.CONST>
1

>  <SCORE.INTER.POLAR>
0

>  <SCORE.INTER.ROT>
5

>  <SCORE.INTER.SOLV>
5.54749

>  <SCORE.INTER.VDW>
-11.6622

>  <SCORE.INTER.norm>
-0.431954

>  <SCORE.INTRA>
-1.62849

>  <SCORE.INTRA.DIHEDRAL>
-1.32791

>  <SCORE.INTRA.DIHEDRAL.0>
3.281

>  <SCORE.INTRA.POLAR>
0

>  <SCORE.INTRA.POLAR.0>
0

>  <SCORE.INTRA.REPUL>
0

>  <SCORE.INTRA.REPUL.0>
0

>  <SCORE.INTRA.SOLV>
-1.56703

>  <SCORE.INTRA.SOLV.lig_0>
-31.9458

>  <SCORE.INTRA.VDW>
-0.181016

>  <SCORE.INTRA.VDW.0>
-0.672612

>  <SCORE.INTRA.norm>
-0.162849

>  <SCORE.RESTR>
0

>  <SCORE.RESTR.CAVITY>
0

>  <SCORE.RESTR.norm>
0

>  <SCORE.SYSTEM>
0

>  <SCORE.SYSTEM.CONST>
0

>  <SCORE.SYSTEM.DIHEDRAL>
0

>  <SCORE.SYSTEM.SOLV>
0

>  <SCORE.SYSTEM.norm>
0

>  <SCORE.heavy>
10

>  <SCORE.norm>
-0.594803

>  <RMSD>
13.220

$$$$
ligand
 OpenBabel11021811473D
libRbt.so/2013.1/901 2013/11/27
 10  9  0  0  0  0  0  0  0  0999 V2000
   26.8456   14.6200    8.4294 N   0  0  0  0  0  0  0  0  0  0  0  0
   25.3633   14.4826    8.4978 C   0  0  2  0  0  0  0  0  0  0  0  0
   24.6660   15.6969    7.9009 C   0  0  0  0  0  0  0  0  0  0  0  0
   25.1510   16.8278    7.9607 O   0  0  0  0  0  0  0  0  0  0  0  0
   24.9048   14.2438    9.9346 C   0  0  0  0  0  0  0  0  0  0  0  0
   23.4247   13.9575   10.0409 C   0  0  0  0  0  0  0  0  0  0  0  0
   23.0037   13.7132   11.4654 C   0  0  0  0  0  0  0  0  0  0  0  0
   21.5283   13.3612   11.5389 C   0  0  0  0  0  0  0  0  0  0  0  0
   21.0908   13.0733   12.9297 N   0  0  0  0  0  0  0  0  0  0  0  0
   23.5959   15.5741    7.3029 O   0  0  0  0  0  0  0  0  0  0  0  0
  2  1  1  1  0  0  0
  2  3  1  0  0  0  0
  2  5  1  0  0  0  0
  3  4  1  0  0  0  0
  3 10  1  0  0  0  0
  5  6  1  0  0  0  0
  6  7  1  0  0  0  0
  7  8  1  0  0  0  0
  8  9  1  0  0  0  0
M  END
>  <CHROM.1>
-32.03848998,-174.14717533,179.44743087,-177.22608370,178.25651294,23.94888211
14.58546350,9.57692517,-0.91093044,-0.17778078,2.21600606

>  <Name>
ligand

>  <RI>
0

>  <Rbt.Current_Directory>
/home/itssahil/PROJECTS/Mol_Feturizer/New_Systems/rnas/3DIX

>  <Rbt.Executable>
rbdock ($Id: //depot/dev/client3/rdock/2013.1/src/exe/rbdock.cxx#4 $)

>  <Rbt.Library>
libRbt.so (2013.1, Build901 2013/11/27)

>  <Rbt.Parameter_File>
/export/apps/rDock/src/rDock_2013.1_src/data/scripts/dock_solv.prm

>  <Rbt.Receptor>
prm/blind_docking_40.prm

>  <SCORE>
-5.95505

>  <SCORE.INTER>
-4.30227

>  <SCORE.INTER.CONST>
1

>  <SCORE.INTER.POLAR>
0

>  <SCORE.INTER.ROT>
5

>  <SCORE.INTER.SOLV>
5.31816

>  <SCORE.INTER.VDW>
-11.5742

>  <SCORE.INTER.norm>
-0.430227

>  <SCORE.INTRA>
-1.65278

>  <SCORE.INTRA.DIHEDRAL>
-1.55523

>  <SCORE.INTRA.DIHEDRAL.0>
3.281

>  <SCORE.INTRA.POLAR>
0

>  <SCORE.INTRA.POLAR.0>
0

>  <SCORE.INTRA.REPUL>
0

>  <SCORE.INTRA.REPUL.0>
0

>  <SCORE.INTRA.SOLV>
-1.56997

>  <SCORE.INTRA.SOLV.lig_0>
-31.9458

>  <SCORE.INTRA.VDW>
-0.0901717

>  <SCORE.INTRA.VDW.0>
-0.672612

>  <SCORE.INTRA.norm>
-0.165278

>  <SCORE.RESTR>
0

>  <SCORE.RESTR.CAVITY>
0

>  <SCORE.RESTR.norm>
0

>  <SCORE.SYSTEM>
0

>  <SCORE.SYSTEM.CONST>
0

>  <SCORE.SYSTEM.DIHEDRAL>
0

>  <SCORE.SYSTEM.SOLV>
0

>  <SCORE.SYSTEM.norm>
0

>  <SCORE.heavy>
10

>  <SCORE.norm>
-0.595505

>  <RMSD>
13.243

$$$$
ligand
 OpenBabel11021811473D
libRbt.so/2013.1/901 2013/11/27
 10  9  0  0  0  0  0  0  0  0999 V2000
   24.5976   13.3723   10.1386 N   0  0  0  0  0  0  0  0  0  0  0  0
   25.9582   13.8657    9.7838 C   0  0  2  0  0  0  0  0  0  0  0  0
   26.7025   14.3704   11.0120 C   0  0  0  0  0  0  0  0  0  0  0  0
   26.1694   15.1010   11.8486 O   0  0  0  0  0  0  0  0  0  0  0  0
   25.8812   14.9497    8.7110 C   0  0  0  0  0  0  0  0  0  0  0  0
   25.7054   14.3891    7.3186 C   0  0  0  0  0  0  0  0  0  0  0  0
   26.9274   13.6393    6.8598 C   0  0  0  0  0  0  0  0  0  0  0  0
   26.7586   13.1563    5.4300 C   0  0  0  0  0  0  0  0  0  0  0  0
   27.9892   12.5045    4.9110 N   0  0  0  0  0  0  0  0  0  0  0  0
   27.8673   14.0291   11.2231 O   0  0  0  0  0  0  0  0  0  0  0  0
  2  1  1  1  0  0  0
  2  3  1  0  0  0  0
  2  5  1  0  0  0  0
  3  4  1  0  0  0  0
  3 10  1  0  0  0  0
  5  6  1  0  0  0  0
  6  7  1  0  0  0  0
  7  8  1  0  0  0  0
  8  9  1  0  0  0  0
M  END
>  <CHROM.1>
-45.29187980,-80.05801958,-67.65148667,-176.66922962,175.52642034,26.47147430
13.94989145,8.76234654,1.70451452,-0.18085012,1.36582059

>  <Name>
ligand

>  <RI>
0

>  <Rbt.Current_Directory>
/home/itssahil/PROJECTS/Mol_Feturizer/New_Systems/rnas/3DIX

>  <Rbt.Executable>
rbdock ($Id: //depot/dev/client3/rdock/2013.1/src/exe/rbdock.cxx#4 $)

>  <Rbt.Library>
libRbt.so (2013.1, Build901 2013/11/27)

>  <Rbt.Parameter_File>
/export/apps/rDock/src/rDock_2013.1_src/data/scripts/dock_solv.prm

>  <Rbt.Receptor>
prm/blind_docking_40.prm

>  <SCORE>
-3.87794

>  <SCORE.INTER>
-3.63405

>  <SCORE.INTER.CONST>
1

>  <SCORE.INTER.POLAR>
0

>  <SCORE.INTER.ROT>
5

>  <SCORE.INTER.SOLV>
5.48574

>  <SCORE.INTER.VDW>
-11.1846

>  <SCORE.INTER.norm>
-0.363405

>  <SCORE.INTRA>
-0.243884

>  <SCORE.INTRA.DIHEDRAL>
0.103728

>  <SCORE.INTRA.DIHEDRAL.0>
3.281

>  <SCORE.INTRA.POLAR>
0

>  <SCORE.INTRA.POLAR.0>
0

>  <SCORE.INTRA.REPUL>
0

>  <SCORE.INTRA.REPUL.0>
0

>  <SCORE.INTRA.SOLV>
-0.52515

>  <SCORE.INTRA.SOLV.lig_0>
-31.9458

>  <SCORE.INTRA.VDW>
-0.0331735

>  <SCORE.INTRA.VDW.0>
-0.672612

>  <SCORE.INTRA.norm>
-0.0243884

>  <SCORE.RESTR>
0

>  <SCORE.RESTR.CAVITY>
0

>  <SCORE.RESTR.norm>
0

>  <SCORE.SYSTEM>
0

>  <SCORE.SYSTEM.CONST>
0

>  <SCORE.SYSTEM.DIHEDRAL>
0

>  <SCORE.SYSTEM.SOLV>
0

>  <SCORE.SYSTEM.norm>
0

>  <SCORE.heavy>
10

>  <SCORE.norm>
-0.387794

>  <RMSD>
13.245

$$$$
ligand
 OpenBabel11021811473D
libRbt.so/2013.1/901 2013/11/27
 10  9  0  0  0  0  0  0  0  0999 V2000
   26.1970   14.5594    9.6075 N   0  0  0  0  0  0  0  0  0  0  0  0
   25.0124   14.5390    8.7036 C   0  0  2  0  0  0  0  0  0  0  0  0
   25.0710   15.6711    7.6877 C   0  0  0  0  0  0  0  0  0  0  0  0
   25.0233   16.8560    8.0216 O   0  0  0  0  0  0  0  0  0  0  0  0
   23.7146   14.5950    9.5062 C   0  0  0  0  0  0  0  0  0  0  0  0
   23.5101   13.3799   10.3813 C   0  0  0  0  0  0  0  0  0  0  0  0
   22.2259   13.4636   11.1623 C   0  0  0  0  0  0  0  0  0  0  0  0
   22.0508   12.2402   12.0447 C   0  0  0  0  0  0  0  0  0  0  0  0
   20.8238   12.3236   12.8791 N   0  0  0  0  0  0  0  0  0  0  0  0
   25.2033   15.4294    6.4870 O   0  0  0  0  0  0  0  0  0  0  0  0
  2  1  1  1  0  0  0
  2  3  1  0  0  0  0
  2  5  1  0  0  0  0
  3  4  1  0  0  0  0
  3 10  1  0  0  0  0
  5  6  1  0  0  0  0
  6  7  1  0  0  0  0
  7  8  1  0  0  0  0
  8  9  1  0  0  0  0
M  END
>  <CHROM.1>
-64.37597236,-64.41249281,179.87447924,-179.36039975,177.20590818,23.89267577
14.33615739,9.61547546,-0.98478746,-0.10179701,2.25303644

>  <Name>
ligand

>  <RI>
0

>  <Rbt.Current_Directory>
/home/itssahil/PROJECTS/Mol_Feturizer/New_Systems/rnas/3DIX

>  <Rbt.Executable>
rbdock ($Id: //depot/dev/client3/rdock/2013.1/src/exe/rbdock.cxx#4 $)

>  <Rbt.Library>
libRbt.so (2013.1, Build901 2013/11/27)

>  <Rbt.Parameter_File>
/export/apps/rDock/src/rDock_2013.1_src/data/scripts/dock_solv.prm

>  <Rbt.Receptor>
prm/blind_docking_80.prm

>  <SCORE>
-5.8343

>  <SCORE.INTER>
-4.5119

>  <SCORE.INTER.CONST>
1

>  <SCORE.INTER.POLAR>
0

>  <SCORE.INTER.ROT>
5

>  <SCORE.INTER.SOLV>
5.15808

>  <SCORE.INTER.VDW>
-11.6606

>  <SCORE.INTER.norm>
-0.45119

>  <SCORE.INTRA>
-1.3224

>  <SCORE.INTRA.DIHEDRAL>
-1.69393

>  <SCORE.INTRA.DIHEDRAL.0>
3.281

>  <SCORE.INTRA.POLAR>
0

>  <SCORE.INTRA.POLAR.0>
0

>  <SCORE.INTRA.REPUL>
0

>  <SCORE.INTRA.REPUL.0>
0

>  <SCORE.INTRA.SOLV>
-0.705006

>  <SCORE.INTRA.SOLV.lig_0>
-31.9458

>  <SCORE.INTRA.VDW>
-0.122931

>  <SCORE.INTRA.VDW.0>
-0.672612

>  <SCORE.INTRA.norm>
-0.13224

>  <SCORE.RESTR>
0

>  <SCORE.RESTR.CAVITY>
0

>  <SCORE.RESTR.norm>
0

>  <SCORE.SYSTEM>
0

>  <SCORE.SYSTEM.CONST>
0

>  <SCORE.SYSTEM.DIHEDRAL>
0

>  <SCORE.SYSTEM.SOLV>
0

>  <SCORE.SYSTEM.norm>
0

>  <SCORE.heavy>
10

>  <SCORE.norm>
-0.58343

>  <RMSD>
13.273

$$$$
ligand
 OpenBabel11021811473D
libRbt.so/2013.1/901 2013/11/27
 10  9  0  0  0  0  0  0  0  0999 V2000
   26.2280   14.5618    9.4656 N   0  0  0  0  0  0  0  0  0  0  0  0
   25.0049   14.5953    8.6150 C   0  0  2  0  0  0  0  0  0  0  0  0
   25.0374   15.7666    7.6434 C   0  0  0  0  0  0  0  0  0  0  0  0
   24.9168   16.9340    8.0180 O   0  0  0  0  0  0  0  0  0  0  0  0
   23.7445   14.6377    9.4761 C   0  0  0  0  0  0  0  0  0  0  0  0
   23.5350   13.3730   10.2766 C   0  0  0  0  0  0  0  0  0  0  0  0
   22.3202   13.4662   11.1607 C   0  0  0  0  0  0  0  0  0  0  0  0
   22.1310   12.1852   11.9540 C   0  0  0  0  0  0  0  0  0  0  0  0
   20.9638   12.2624   12.8707 N   0  0  0  0  0  0  0  0  0  0  0  0
   25.2214   15.5776    6.4400 O   0  0  0  0  0  0  0  0  0  0  0  0
  2  1  1  1  0  0  0
  2  3  1  0  0  0  0
  2  5  1  0  0  0  0
  3  4  1  0  0  0  0
  3 10  1  0  0  0  0
  5  6  1  0  0  0  0
  6  7  1  0  0  0  0
  7  8  1  0  0  0  0
  8  9  1  0  0  0  0
M  END
>  <CHROM.1>
-70.27420054,-66.27311021,177.48631117,-179.99956634,178.13228903,23.91886578
14.36763252,9.56029288,-0.99773171,-0.21384520,2.33947678

>  <Name>
ligand

>  <RI>
0

>  <Rbt.Current_Directory>
/home/itssahil/PROJECTS/Mol_Feturizer/New_Systems/rnas/3DIX

>  <Rbt.Executable>
rbdock ($Id: //depot/dev/client3/rdock/2013.1/src/exe/rbdock.cxx#4 $)

>  <Rbt.Library>
libRbt.so (2013.1, Build901 2013/11/27)

>  <Rbt.Parameter_File>
/export/apps/rDock/src/rDock_2013.1_src/data/scripts/dock_solv.prm

>  <Rbt.Receptor>
prm/blind_docking_80.prm

>  <SCORE>
-5.93471

>  <SCORE.INTER>
-4.6744

>  <SCORE.INTER.CONST>
1

>  <SCORE.INTER.POLAR>
0

>  <SCORE.INTER.ROT>
5

>  <SCORE.INTER.SOLV>
5.34248

>  <SCORE.INTER.VDW>
-11.8304

>  <SCORE.INTER.norm>
-0.46744

>  <SCORE.INTRA>
-1.26031

>  <SCORE.INTRA.DIHEDRAL>
-1.62293

>  <SCORE.INTRA.DIHEDRAL.0>
3.281

>  <SCORE.INTRA.POLAR>
0

>  <SCORE.INTRA.POLAR.0>
0

>  <SCORE.INTRA.REPUL>
0

>  <SCORE.INTRA.REPUL.0>
0

>  <SCORE.INTRA.SOLV>
-0.718452

>  <SCORE.INTRA.SOLV.lig_0>
-31.9458

>  <SCORE.INTRA.VDW>
-0.0896198

>  <SCORE.INTRA.VDW.0>
-0.672612

>  <SCORE.INTRA.norm>
-0.126031

>  <SCORE.RESTR>
0

>  <SCORE.RESTR.CAVITY>
0

>  <SCORE.RESTR.norm>
0

>  <SCORE.SYSTEM>
0

>  <SCORE.SYSTEM.CONST>
0

>  <SCORE.SYSTEM.DIHEDRAL>
0

>  <SCORE.SYSTEM.SOLV>
0

>  <SCORE.SYSTEM.norm>
0

>  <SCORE.heavy>
10

>  <SCORE.norm>
-0.593471

>  <RMSD>
13.305

$$$$
ligand
 OpenBabel11021811473D
libRbt.so/2013.1/901 2013/11/27
 10  9  0  0  0  0  0  0  0  0999 V2000
   26.2262   14.4201    9.3902 N   0  0  0  0  0  0  0  0  0  0  0  0
   24.9796   14.5315    8.5814 C   0  0  2  0  0  0  0  0  0  0  0  0
   25.0296   15.7335    7.6487 C   0  0  0  0  0  0  0  0  0  0  0  0
   24.8965   16.8879    8.0577 O   0  0  0  0  0  0  0  0  0  0  0  0
   23.7493   14.5942    9.4839 C   0  0  0  0  0  0  0  0  0  0  0  0
   23.5330   13.3242   10.2740 C   0  0  0  0  0  0  0  0  0  0  0  0
   22.3147   13.4142   11.1536 C   0  0  0  0  0  0  0  0  0  0  0  0
   22.1373   12.1404   11.9611 C   0  0  0  0  0  0  0  0  0  0  0  0
   20.9486   12.2034   12.8509 N   0  0  0  0  0  0  0  0  0  0  0  0
   25.2412   15.5837    6.4443 O   0  0  0  0  0  0  0  0  0  0  0  0
  2  1  1  1  0  0  0
  2  3  1  0  0  0  0
  2  5  1  0  0  0  0
  3  4  1  0  0  0  0
  3 10  1  0  0  0  0
  5  6  1  0  0  0  0
  6  7  1  0  0  0  0
  7  8  1  0  0  0  0
  8  9  1  0  0  0  0
M  END
>  <CHROM.1>
-74.25994084,-64.84970677,-179.99247331,-178.65027235,179.43877612,23.91447634
14.31568859,9.55372756,-0.98526571,-0.28609450,2.39001677

>  <Name>
ligand

>  <RI>
0

>  <Rbt.Current_Directory>
/home/itssahil/PROJECTS/Mol_Feturizer/New_Systems/rnas/3DIX

>  <Rbt.Executable>
rbdock ($Id: //depot/dev/client3/rdock/2013.1/src/exe/rbdock.cxx#4 $)

>  <Rbt.Library>
libRbt.so (2013.1, Build901 2013/11/27)

>  <Rbt.Parameter_File>
/export/apps/rDock/src/rDock_2013.1_src/data/scripts/dock_solv.prm

>  <Rbt.Receptor>
prm/blind_docking_80.prm

>  <SCORE>
-5.79962

>  <SCORE.INTER>
-4.54503

>  <SCORE.INTER.CONST>
1

>  <SCORE.INTER.POLAR>
0

>  <SCORE.INTER.ROT>
5

>  <SCORE.INTER.SOLV>
5.28577

>  <SCORE.INTER.VDW>
-11.7253

>  <SCORE.INTER.norm>
-0.454503

>  <SCORE.INTRA>
-1.25459

>  <SCORE.INTRA.DIHEDRAL>
-1.72902

>  <SCORE.INTRA.DIHEDRAL.0>
3.281

>  <SCORE.INTRA.POLAR>
0

>  <SCORE.INTRA.POLAR.0>
0

>  <SCORE.INTRA.REPUL>
0

>  <SCORE.INTRA.REPUL.0>
0

>  <SCORE.INTRA.SOLV>
-0.71356

>  <SCORE.INTRA.SOLV.lig_0>
-31.9458

>  <SCORE.INTRA.VDW>
-0.0332976

>  <SCORE.INTRA.VDW.0>
-0.672612

>  <SCORE.INTRA.norm>
-0.125459

>  <SCORE.RESTR>
0

>  <SCORE.RESTR.CAVITY>
0

>  <SCORE.RESTR.norm>
0

>  <SCORE.SYSTEM>
0

>  <SCORE.SYSTEM.CONST>
0

>  <SCORE.SYSTEM.DIHEDRAL>
0

>  <SCORE.SYSTEM.SOLV>
0

>  <SCORE.SYSTEM.norm>
0

>  <SCORE.heavy>
10

>  <SCORE.norm>
-0.579962

>  <RMSD>
13.318

$$$$
ligand
 OpenBabel11021811473D
libRbt.so/2013.1/901 2013/11/27
 10  9  0  0  0  0  0  0  0  0999 V2000
   24.9830   15.5705    8.5053 N   0  0  0  0  0  0  0  0  0  0  0  0
   25.8444   14.3559    8.5634 C   0  0  2  0  0  0  0  0  0  0  0  0
   25.3670   13.2907    7.5863 C   0  0  0  0  0  0  0  0  0  0  0  0
   24.1714   13.0837    7.3733 O   0  0  0  0  0  0  0  0  0  0  0  0
   25.9076   13.8011    9.9847 C   0  0  0  0  0  0  0  0  0  0  0  0
   26.6721   14.6957   10.9328 C   0  0  0  0  0  0  0  0  0  0  0  0
   28.1333   14.7671   10.5778 C   0  0  0  0  0  0  0  0  0  0  0  0
   28.3630   15.7362    9.4315 C   0  0  0  0  0  0  0  0  0  0  0  0
   29.6027   15.4229    8.6743 N   0  0  0  0  0  0  0  0  0  0  0  0
   26.1776   12.6185    6.9469 O   0  0  0  0  0  0  0  0  0  0  0  0
  2  1  1  1  0  0  0
  2  3  1  0  0  0  0
  2  5  1  0  0  0  0
  3  4  1  0  0  0  0
  3 10  1  0  0  0  0
  5  6  1  0  0  0  0
  6  7  1  0  0  0  0
  7  8  1  0  0  0  0
  8  9  1  0  0  0  0
M  END
>  <CHROM.1>
-37.55527572,-69.27282557,-66.47907185,79.97363828,-155.20308782,26.50566159
14.30719467,8.83050321,2.45758107,-0.24954806,-1.98600834

>  <Name>
ligand

>  <RI>
0

>  <Rbt.Current_Directory>
/home/itssahil/PROJECTS/Mol_Feturizer/New_Systems/rnas/3DIX

>  <Rbt.Executable>
rbdock ($Id: //depot/dev/client3/rdock/2013.1/src/exe/rbdock.cxx#4 $)

>  <Rbt.Library>
libRbt.so (2013.1, Build901 2013/11/27)

>  <Rbt.Parameter_File>
/export/apps/rDock/src/rDock_2013.1_src/data/scripts/dock_solv.prm

>  <Rbt.Receptor>
prm/blind_docking_60.prm

>  <SCORE>
-2.10115

>  <SCORE.INTER>
-4.8059

>  <SCORE.INTER.CONST>
1

>  <SCORE.INTER.POLAR>
0

>  <SCORE.INTER.ROT>
5

>  <SCORE.INTER.SOLV>
12.3933

>  <SCORE.INTER.VDW>
-14.2684

>  <SCORE.INTER.norm>
-0.48059

>  <SCORE.INTRA>
2.70474

>  <SCORE.INTRA.DIHEDRAL>
2.34099

>  <SCORE.INTRA.DIHEDRAL.0>
3.281

>  <SCORE.INTRA.POLAR>
0

>  <SCORE.INTRA.POLAR.0>
0

>  <SCORE.INTRA.REPUL>
0

>  <SCORE.INTRA.REPUL.0>
0

>  <SCORE.INTRA.SOLV>
1.53374

>  <SCORE.INTRA.SOLV.lig_0>
-31.9458

>  <SCORE.INTRA.VDW>
0.767375

>  <SCORE.INTRA.VDW.0>
-0.672612

>  <SCORE.INTRA.norm>
0.270474

>  <SCORE.RESTR>
0

>  <SCORE.RESTR.CAVITY>
0

>  <SCORE.RESTR.norm>
0

>  <SCORE.SYSTEM>
0

>  <SCORE.SYSTEM.CONST>
0

>  <SCORE.SYSTEM.DIHEDRAL>
0

>  <SCORE.SYSTEM.SOLV>
0

>  <SCORE.SYSTEM.norm>
0

>  <SCORE.heavy>
10

>  <SCORE.norm>
-0.210115

>  <RMSD>
13.431

$$$$
ligand
 OpenBabel11021811473D
libRbt.so/2013.1/901 2013/11/27
 10  9  0  0  0  0  0  0  0  0999 V2000
   22.9848   14.0635    9.7344 N   0  0  0  0  0  0  0  0  0  0  0  0
   24.3005   14.7533    9.6167 C   0  0  2  0  0  0  0  0  0  0  0  0
   24.5816   15.1691    8.1796 C   0  0  0  0  0  0  0  0  0  0  0  0
   24.8467   16.3323    7.8725 O   0  0  0  0  0  0  0  0  0  0  0  0
   25.4258   13.8749   10.1588 C   0  0  0  0  0  0  0  0  0  0  0  0
   26.7232   14.6273   10.3444 C   0  0  0  0  0  0  0  0  0  0  0  0
   27.4738   14.7751    9.0478 C   0  0  0  0  0  0  0  0  0  0  0  0
   28.8354   15.4053    9.2818 C   0  0  0  0  0  0  0  0  0  0  0  0
   29.6731   15.3984    8.0543 N   0  0  0  0  0  0  0  0  0  0  0  0
   24.5840   14.3333    7.2745 O   0  0  0  0  0  0  0  0  0  0  0  0
  2  1  1  6  0  0  0
  2  3  1  0  0  0  0
  2  5  1  0  0  0  0
  3  4  1  0  0  0  0
  3 10  1  0  0  0  0
  5  6  1  0  0  0  0
  6  7  1  0  0  0  0
  7  8  1  0  0  0  0
  8  9  1  0  0  0  0
M  END
>  <CHROM.1>
125.07057706,-167.43211711,-80.61359363,-174.16224661,172.32256068,25.93964267
14.88279027,8.92419453,-3.06530331,-0.11127940,-1.13558639

>  <Name>
ligand

>  <RI>
0

>  <Rbt.Current_Directory>
/home/itssahil/PROJECTS/Mol_Feturizer/New_Systems/rnas/3DIX

>  <Rbt.Executable>
rbdock ($Id: //depot/dev/client3/rdock/2013.1/src/exe/rbdock.cxx#4 $)

>  <Rbt.Library>
libRbt.so (2013.1, Build901 2013/11/27)

>  <Rbt.Parameter_File>
/export/apps/rDock/src/rDock_2013.1_src/data/scripts/dock_solv.prm

>  <Rbt.Receptor>
prm/blind_docking_40.prm

>  <SCORE>
-3.44585

>  <SCORE.INTER>
-2.98089

>  <SCORE.INTER.CONST>
1

>  <SCORE.INTER.POLAR>
0

>  <SCORE.INTER.ROT>
5

>  <SCORE.INTER.SOLV>
12.59

>  <SCORE.INTER.VDW>
-13.1172

>  <SCORE.INTER.norm>
-0.298089

>  <SCORE.INTRA>
-0.464964

>  <SCORE.INTRA.DIHEDRAL>
0.754509

>  <SCORE.INTRA.DIHEDRAL.0>
3.281

>  <SCORE.INTRA.POLAR>
0

>  <SCORE.INTRA.POLAR.0>
0

>  <SCORE.INTRA.REPUL>
0

>  <SCORE.INTRA.REPUL.0>
0

>  <SCORE.INTRA.SOLV>
-1.47886

>  <SCORE.INTRA.SOLV.lig_0>
-31.9458

>  <SCORE.INTRA.VDW>
-0.102788

>  <SCORE.INTRA.VDW.0>
-0.672612

>  <SCORE.INTRA.norm>
-0.0464964

>  <SCORE.RESTR>
0

>  <SCORE.RESTR.CAVITY>
0

>  <SCORE.RESTR.norm>
0

>  <SCORE.SYSTEM>
0

>  <SCORE.SYSTEM.CONST>
0

>  <SCORE.SYSTEM.DIHEDRAL>
0

>  <SCORE.SYSTEM.SOLV>
0

>  <SCORE.SYSTEM.norm>
0

>  <SCORE.heavy>
10

>  <SCORE.norm>
-0.344585

>  <RMSD>
13.478

$$$$
ligand
 OpenBabel11021811473D
libRbt.so/2013.1/901 2013/11/27
 10  9  0  0  0  0  0  0  0  0999 V2000
   26.3849   13.8920    7.0829 N   0  0  0  0  0  0  0  0  0  0  0  0
   25.2217   14.1193    7.9861 C   0  0  2  0  0  0  0  0  0  0  0  0
   24.4887   15.4057    7.6327 C   0  0  0  0  0  0  0  0  0  0  0  0
   23.2933   15.4198    7.3353 O   0  0  0  0  0  0  0  0  0  0  0  0
   25.6619   14.1282    9.4483 C   0  0  0  0  0  0  0  0  0  0  0  0
   24.5241   14.4024   10.4044 C   0  0  0  0  0  0  0  0  0  0  0  0
   23.5274   13.2744   10.4250 C   0  0  0  0  0  0  0  0  0  0  0  0
   22.4596   13.5174   11.4770 C   0  0  0  0  0  0  0  0  0  0  0  0
   21.5528   12.3504   11.6333 N   0  0  0  0  0  0  0  0  0  0  0  0
   25.0731   16.4898    7.6674 O   0  0  0  0  0  0  0  0  0  0  0  0
  2  1  1  6  0  0  0
  2  3  1  0  0  0  0
  2  5  1  0  0  0  0
  3  4  1  0  0  0  0
  3 10  1  0  0  0  0
  5  6  1  0  0  0  0
  6  7  1  0  0  0  0
  7  8  1  0  0  0  0
  8  9  1  0  0  0  0
M  END
>  <CHROM.1>
122.10617649,178.04724429,67.52922057,175.13857243,-173.29634805,24.20680305
14.33203756,9.09330909,-0.97486972,-0.31584782,2.29045588

>  <Name>
ligand

>  <RI>
0

>  <Rbt.Current_Directory>
/home/itssahil/PROJECTS/Mol_Feturizer/New_Systems/rnas/3DIX

>  <Rbt.Executable>
rbdock ($Id: //depot/dev/client3/rdock/2013.1/src/exe/rbdock.cxx#4 $)

>  <Rbt.Library>
libRbt.so (2013.1, Build901 2013/11/27)

>  <Rbt.Parameter_File>
/export/apps/rDock/src/rDock_2013.1_src/data/scripts/dock_solv.prm

>  <Rbt.Receptor>
prm/blind_docking_40.prm

>  <SCORE>
-4.42562

>  <SCORE.INTER>
-3.38716

>  <SCORE.INTER.CONST>
1

>  <SCORE.INTER.POLAR>
0

>  <SCORE.INTER.ROT>
5

>  <SCORE.INTER.SOLV>
7.95421

>  <SCORE.INTER.VDW>
-11.8428

>  <SCORE.INTER.norm>
-0.338716

>  <SCORE.INTRA>
-1.03846

>  <SCORE.INTRA.DIHEDRAL>
-1.27118

>  <SCORE.INTRA.DIHEDRAL.0>
3.281

>  <SCORE.INTRA.POLAR>
0

>  <SCORE.INTRA.POLAR.0>
0

>  <SCORE.INTRA.REPUL>
0

>  <SCORE.INTRA.REPUL.0>
0

>  <SCORE.INTRA.SOLV>
-1.36242

>  <SCORE.INTRA.SOLV.lig_0>
-31.9458

>  <SCORE.INTRA.VDW>
0.278338

>  <SCORE.INTRA.VDW.0>
-0.672612

>  <SCORE.INTRA.norm>
-0.103846

>  <SCORE.RESTR>
0

>  <SCORE.RESTR.CAVITY>
0

>  <SCORE.RESTR.norm>
0

>  <SCORE.SYSTEM>
0

>  <SCORE.SYSTEM.CONST>
0

>  <SCORE.SYSTEM.DIHEDRAL>
0

>  <SCORE.SYSTEM.SOLV>
0

>  <SCORE.SYSTEM.norm>
0

>  <SCORE.heavy>
10

>  <SCORE.norm>
-0.442562

>  <RMSD>
13.572

$$$$
ligand
 OpenBabel11021811473D
libRbt.so/2013.1/901 2013/11/27
 10  9  0  0  0  0  0  0  0  0999 V2000
   26.2835   13.9480    6.4806 N   0  0  0  0  0  0  0  0  0  0  0  0
   25.1113   13.9199    7.4003 C   0  0  2  0  0  0  0  0  0  0  0  0
   24.3837   15.2569    7.4117 C   0  0  0  0  0  0  0  0  0  0  0  0
   23.1546   15.3354    7.4416 O   0  0  0  0  0  0  0  0  0  0  0  0
   25.5364   13.5199    8.8113 C   0  0  0  0  0  0  0  0  0  0  0  0
   26.4906   14.5078    9.4416 C   0  0  0  0  0  0  0  0  0  0  0  0
   26.9541   14.0493   10.7984 C   0  0  0  0  0  0  0  0  0  0  0  0
   27.8839   15.0733   11.4252 C   0  0  0  0  0  0  0  0  0  0  0  0
   29.0304   15.4038   10.5393 N   0  0  0  0  0  0  0  0  0  0  0  0
   25.0159   16.3143    7.4251 O   0  0  0  0  0  0  0  0  0  0  0  0
  2  1  1  6  0  0  0
  2  3  1  0  0  0  0
  2  5  1  0  0  0  0
  3  4  1  0  0  0  0
  3 10  1  0  0  0  0
  5  6  1  0  0  0  0
  6  7  1  0  0  0  0
  7  8  1  0  0  0  0
  8  9  1  0  0  0  0
M  END
>  <CHROM.1>
140.09464179,63.00688433,-176.72298960,-178.60515290,-54.64762309,25.95997308
14.76171913,8.70973231,-2.66937641,-0.65165946,0.75194904

>  <Name>
ligand

>  <RI>
0

>  <Rbt.Current_Directory>
/home/itssahil/PROJECTS/Mol_Feturizer/New_Systems/rnas/3DIX

>  <Rbt.Executable>
rbdock ($Id: //depot/dev/client3/rdock/2013.1/src/exe/rbdock.cxx#4 $)

>  <Rbt.Library>
libRbt.so (2013.1, Build901 2013/11/27)

>  <Rbt.Parameter_File>
/export/apps/rDock/src/rDock_2013.1_src/data/scripts/dock_solv.prm

>  <Rbt.Receptor>
prm/blind_docking_40.prm

>  <SCORE>
-5.12667

>  <SCORE.INTER>
-4.82853

>  <SCORE.INTER.CONST>
1

>  <SCORE.INTER.POLAR>
0

>  <SCORE.INTER.ROT>
5

>  <SCORE.INTER.SOLV>
11.2644

>  <SCORE.INTER.VDW>
-13.9072

>  <SCORE.INTER.norm>
-0.482853

>  <SCORE.INTRA>
-0.298144

>  <SCORE.INTRA.DIHEDRAL>
-1.65601

>  <SCORE.INTRA.DIHEDRAL.0>
3.281

>  <SCORE.INTRA.POLAR>
0

>  <SCORE.INTRA.POLAR.0>
0

>  <SCORE.INTRA.REPUL>
0

>  <SCORE.INTRA.REPUL.0>
0

>  <SCORE.INTRA.SOLV>
0.386597

>  <SCORE.INTRA.SOLV.lig_0>
-31.9458

>  <SCORE.INTRA.VDW>
0.336565

>  <SCORE.INTRA.VDW.0>
-0.672612

>  <SCORE.INTRA.norm>
-0.0298144

>  <SCORE.RESTR>
0

>  <SCORE.RESTR.CAVITY>
0

>  <SCORE.RESTR.norm>
0

>  <SCORE.SYSTEM>
0

>  <SCORE.SYSTEM.CONST>
0

>  <SCORE.SYSTEM.DIHEDRAL>
0

>  <SCORE.SYSTEM.SOLV>
0

>  <SCORE.SYSTEM.norm>
0

>  <SCORE.heavy>
10

>  <SCORE.norm>
-0.512667

>  <RMSD>
13.622

$$$$
ligand
 OpenBabel11021811473D
libRbt.so/2013.1/901 2013/11/27
 10  9  0  0  0  0  0  0  0  0999 V2000
   26.6018   13.9958    7.3258 N   0  0  0  0  0  0  0  0  0  0  0  0
   25.2179   13.9956    7.8784 C   0  0  2  0  0  0  0  0  0  0  0  0
   24.5348   15.3387    7.6628 C   0  0  0  0  0  0  0  0  0  0  0  0
   23.3686   15.4276    7.2756 O   0  0  0  0  0  0  0  0  0  0  0  0
   25.2231   13.6194    9.3584 C   0  0  0  0  0  0  0  0  0  0  0  0
   23.8415   13.3287    9.8973 C   0  0  0  0  0  0  0  0  0  0  0  0
   23.0808   14.5930   10.1958 C   0  0  0  0  0  0  0  0  0  0  0  0
   21.6924   14.2754   10.7226 C   0  0  0  0  0  0  0  0  0  0  0  0
   21.7383   13.5684   12.0290 N   0  0  0  0  0  0  0  0  0  0  0  0
   25.1292   16.3902    7.9055 O   0  0  0  0  0  0  0  0  0  0  0  0
  2  1  1  1  0  0  0
  2  3  1  0  0  0  0
  2  5  1  0  0  0  0
  3  4  1  0  0  0  0
  3 10  1  0  0  0  0
  5  6  1  0  0  0  0
  6  7  1  0  0  0  0
  7  8  1  0  0  0  0
  8  9  1  0  0  0  0
M  END
>  <CHROM.1>
136.16786155,-168.25489985,-79.13833295,179.44582157,64.39107517,24.03314070
14.48477762,9.01250696,-0.72049569,-0.50545985,2.35795944

>  <Name>
ligand

>  <RI>
0

>  <Rbt.Current_Directory>
/home/itssahil/PROJECTS/Mol_Feturizer/New_Systems/rnas/3DIX

>  <Rbt.Executable>
rbdock ($Id: //depot/dev/client3/rdock/2013.1/src/exe/rbdock.cxx#4 $)

>  <Rbt.Library>
libRbt.so (2013.1, Build901 2013/11/27)

>  <Rbt.Parameter_File>
/export/apps/rDock/src/rDock_2013.1_src/data/scripts/dock_solv.prm

>  <Rbt.Receptor>
prm/blind_docking_40.prm

>  <SCORE>
-4.51039

>  <SCORE.INTER>
-4.49104

>  <SCORE.INTER.CONST>
1

>  <SCORE.INTER.POLAR>
0

>  <SCORE.INTER.ROT>
5

>  <SCORE.INTER.SOLV>
5.98138

>  <SCORE.INTER.VDW>
-11.9212

>  <SCORE.INTER.norm>
-0.449104

>  <SCORE.INTRA>
-0.019353

>  <SCORE.INTRA.DIHEDRAL>
0.155251

>  <SCORE.INTRA.DIHEDRAL.0>
3.281

>  <SCORE.INTRA.POLAR>
0

>  <SCORE.INTRA.POLAR.0>
0

>  <SCORE.INTRA.REPUL>
0

>  <SCORE.INTRA.REPUL.0>
0

>  <SCORE.INTRA.SOLV>
-0.530927

>  <SCORE.INTRA.SOLV.lig_0>
-31.9458

>  <SCORE.INTRA.VDW>
0.168485

>  <SCORE.INTRA.VDW.0>
-0.672612

>  <SCORE.INTRA.norm>
-0.0019353

>  <SCORE.RESTR>
0

>  <SCORE.RESTR.CAVITY>
0

>  <SCORE.RESTR.norm>
0

>  <SCORE.SYSTEM>
0

>  <SCORE.SYSTEM.CONST>
0

>  <SCORE.SYSTEM.DIHEDRAL>
0

>  <SCORE.SYSTEM.SOLV>
0

>  <SCORE.SYSTEM.norm>
0

>  <SCORE.heavy>
10

>  <SCORE.norm>
-0.451039

>  <RMSD>
13.682

$$$$
ligand
 OpenBabel11021811473D
libRbt.so/2013.1/901 2013/11/27
 10  9  0  0  0  0  0  0  0  0999 V2000
   27.1040   14.6988    8.9347 N   0  0  0  0  0  0  0  0  0  0  0  0
   26.2098   13.8053    8.1456 C   0  0  2  0  0  0  0  0  0  0  0  0
   26.9050   13.2921    6.8924 C   0  0  0  0  0  0  0  0  0  0  0  0
   28.0164   13.6954    6.5462 O   0  0  0  0  0  0  0  0  0  0  0  0
   24.9054   14.5160    7.7916 C   0  0  0  0  0  0  0  0  0  0  0  0
   24.0884   14.8880    9.0073 C   0  0  0  0  0  0  0  0  0  0  0  0
   23.6431   13.6718    9.7747 C   0  0  0  0  0  0  0  0  0  0  0  0
   22.8092   14.0700   10.9797 C   0  0  0  0  0  0  0  0  0  0  0  0
   22.3123   12.8880   11.7311 N   0  0  0  0  0  0  0  0  0  0  0  0
   26.3805   12.4208    6.1971 O   0  0  0  0  0  0  0  0  0  0  0  0
  2  1  1  6  0  0  0
  2  3  1  0  0  0  0
  2  5  1  0  0  0  0
  3  4  1  0  0  0  0
  3 10  1  0  0  0  0
  5  6  1  0  0  0  0
  6  7  1  0  0  0  0
  7  8  1  0  0  0  0
  8  9  1  0  0  0  0
M  END
>  <CHROM.1>
-6.58963732,-63.19020070,-63.15396056,-179.23582783,177.92017096,25.26161628
13.78113621,8.56487167,-0.52789057,0.56922022,0.77126319

>  <Name>
ligand

>  <RI>
0

>  <Rbt.Current_Directory>
/home/itssahil/PROJECTS/Mol_Feturizer/New_Systems/rnas/3DIX

>  <Rbt.Executable>
rbdock ($Id: //depot/dev/client3/rdock/2013.1/src/exe/rbdock.cxx#4 $)

>  <Rbt.Library>
libRbt.so (2013.1, Build901 2013/11/27)

>  <Rbt.Parameter_File>
/export/apps/rDock/src/rDock_2013.1_src/data/scripts/dock_solv.prm

>  <Rbt.Receptor>
prm/blind_docking_40.prm

>  <SCORE>
-3.11962

>  <SCORE.INTER>
-2.57683

>  <SCORE.INTER.CONST>
1

>  <SCORE.INTER.POLAR>
0

>  <SCORE.INTER.ROT>
5

>  <SCORE.INTER.SOLV>
6.61511

>  <SCORE.INTER.VDW>
-10.8563

>  <SCORE.INTER.norm>
-0.257683

>  <SCORE.INTRA>
-0.542794

>  <SCORE.INTRA.DIHEDRAL>
-1.65448

>  <SCORE.INTRA.DIHEDRAL.0>
3.281

>  <SCORE.INTRA.POLAR>
0

>  <SCORE.INTRA.POLAR.0>
0

>  <SCORE.INTRA.REPUL>
0

>  <SCORE.INTRA.REPUL.0>
0

>  <SCORE.INTRA.SOLV>
-0.13875

>  <SCORE.INTRA.SOLV.lig_0>
-31.9458

>  <SCORE.INTRA.VDW>
0.353821

>  <SCORE.INTRA.VDW.0>
-0.672612

>  <SCORE.INTRA.norm>
-0.0542794

>  <SCORE.RESTR>
0

>  <SCORE.RESTR.CAVITY>
0

>  <SCORE.RESTR.norm>
0

>  <SCORE.SYSTEM>
0

>  <SCORE.SYSTEM.CONST>
0

>  <SCORE.SYSTEM.DIHEDRAL>
0

>  <SCORE.SYSTEM.SOLV>
0

>  <SCORE.SYSTEM.norm>
0

>  <SCORE.heavy>
10

>  <SCORE.norm>
-0.311962

>  <RMSD>
13.695

$$$$
ligand
 OpenBabel11021811473D
libRbt.so/2013.1/901 2013/11/27
 10  9  0  0  0  0  0  0  0  0999 V2000
   21.2799   12.7201   12.9073 N   0  0  0  0  0  0  0  0  0  0  0  0
   21.8451   13.8712   12.1482 C   0  0  2  0  0  0  0  0  0  0  0  0
   20.7490   14.8176   11.6792 C   0  0  0  0  0  0  0  0  0  0  0  0
   20.1001   14.6132   10.6521 O   0  0  0  0  0  0  0  0  0  0  0  0
   22.6855   13.3855   10.9693 C   0  0  0  0  0  0  0  0  0  0  0  0
   23.3225   14.5158   10.1945 C   0  0  0  0  0  0  0  0  0  0  0  0
   24.1655   14.0072    9.0558 C   0  0  0  0  0  0  0  0  0  0  0  0
   24.7121   15.1602    8.2325 C   0  0  0  0  0  0  0  0  0  0  0  0
   25.5880   14.6920    7.1270 N   0  0  0  0  0  0  0  0  0  0  0  0
   20.4538   15.8126   12.3430 O   0  0  0  0  0  0  0  0  0  0  0  0
  2  1  1  6  0  0  0
  2  3  1  0  0  0  0
  2  5  1  0  0  0  0
  3  4  1  0  0  0  0
  3 10  1  0  0  0  0
  5  6  1  0  0  0  0
  6  7  1  0  0  0  0
  7  8  1  0  0  0  0
  8  9  1  0  0  0  0
M  END
>  <CHROM.1>
-82.91170826,-177.96690549,178.89182977,175.87997478,178.02674006,22.45749611
14.38051493,10.53011020,-2.61532232,0.60062859,-0.73005560

>  <Name>
ligand

>  <RI>
0

>  <Rbt.Current_Directory>
/home/itssahil/PROJECTS/Mol_Feturizer/New_Systems/rnas/3DIX

>  <Rbt.Executable>
rbdock ($Id: //depot/dev/client3/rdock/2013.1/src/exe/rbdock.cxx#4 $)

>  <Rbt.Library>
libRbt.so (2013.1, Build901 2013/11/27)

>  <Rbt.Parameter_File>
/export/apps/rDock/src/rDock_2013.1_src/data/scripts/dock_solv.prm

>  <Rbt.Receptor>
prm/blind_docking_80.prm

>  <SCORE>
-3.39994

>  <SCORE.INTER>
-1.96117

>  <SCORE.INTER.CONST>
1

>  <SCORE.INTER.POLAR>
0

>  <SCORE.INTER.ROT>
5

>  <SCORE.INTER.SOLV>
6.52718

>  <SCORE.INTER.VDW>
-10.4165

>  <SCORE.INTER.norm>
-0.196117

>  <SCORE.INTRA>
-1.43877

>  <SCORE.INTRA.DIHEDRAL>
-1.75254

>  <SCORE.INTRA.DIHEDRAL.0>
3.281

>  <SCORE.INTRA.POLAR>
0

>  <SCORE.INTRA.POLAR.0>
0

>  <SCORE.INTRA.REPUL>
0

>  <SCORE.INTRA.REPUL.0>
0

>  <SCORE.INTRA.SOLV>
-1.58405

>  <SCORE.INTRA.SOLV.lig_0>
-31.9458

>  <SCORE.INTRA.VDW>
0.229528

>  <SCORE.INTRA.VDW.0>
-0.672612

>  <SCORE.INTRA.norm>
-0.143877

>  <SCORE.RESTR>
0

>  <SCORE.RESTR.CAVITY>
0

>  <SCORE.RESTR.norm>
0

>  <SCORE.SYSTEM>
0

>  <SCORE.SYSTEM.CONST>
0

>  <SCORE.SYSTEM.DIHEDRAL>
0

>  <SCORE.SYSTEM.SOLV>
0

>  <SCORE.SYSTEM.norm>
0

>  <SCORE.heavy>
10

>  <SCORE.norm>
-0.339994

>  <RMSD>
13.816

$$$$
ligand
 OpenBabel11021811473D
libRbt.so/2013.1/901 2013/11/27
 10  9  0  0  0  0  0  0  0  0999 V2000
   21.5136   13.1940   12.1517 N   0  0  0  0  0  0  0  0  0  0  0  0
   21.5468   14.2641   11.1151 C   0  0  2  0  0  0  0  0  0  0  0  0
   20.2754   14.2643   10.2779 C   0  0  0  0  0  0  0  0  0  0  0  0
   20.1005   15.0553    9.3498 O   0  0  0  0  0  0  0  0  0  0  0  0
   22.7820   14.1244   10.2282 C   0  0  0  0  0  0  0  0  0  0  0  0
   24.0763   14.2932   10.9899 C   0  0  0  0  0  0  0  0  0  0  0  0
   25.2734   14.2233   10.0798 C   0  0  0  0  0  0  0  0  0  0  0  0
   26.5525   14.5032   10.8488 C   0  0  0  0  0  0  0  0  0  0  0  0
   27.7416   14.5487    9.9585 N   0  0  0  0  0  0  0  0  0  0  0  0
   19.3865   13.4377   10.4883 O   0  0  0  0  0  0  0  0  0  0  0  0
  2  1  1  1  0  0  0
  2  3  1  0  0  0  0
  2  5  1  0  0  0  0
  3  4  1  0  0  0  0
  3 10  1  0  0  0  0
  5  6  1  0  0  0  0
  6  7  1  0  0  0  0
  7  8  1  0  0  0  0
  8  9  1  0  0  0  0
M  END
>  <CHROM.1>
-178.92143929,-63.03004618,-176.98022345,175.57091699,-175.44150522,22.88312186
14.19089154,10.53088579,-3.10191436,-0.04705819,-1.03877477

>  <Name>
ligand

>  <RI>
0

>  <Rbt.Current_Directory>
/home/itssahil/PROJECTS/Mol_Feturizer/New_Systems/rnas/3DIX

>  <Rbt.Executable>
rbdock ($Id: //depot/dev/client3/rdock/2013.1/src/exe/rbdock.cxx#4 $)

>  <Rbt.Library>
libRbt.so (2013.1, Build901 2013/11/27)

>  <Rbt.Parameter_File>
/export/apps/rDock/src/rDock_2013.1_src/data/scripts/dock_solv.prm

>  <Rbt.Receptor>
prm/blind_docking_80.prm

>  <SCORE>
-3.7683

>  <SCORE.INTER>
-2.73651

>  <SCORE.INTER.CONST>
1

>  <SCORE.INTER.POLAR>
0

>  <SCORE.INTER.ROT>
5

>  <SCORE.INTER.SOLV>
6.84529

>  <SCORE.INTER.VDW>
-11.0394

>  <SCORE.INTER.norm>
-0.273651

>  <SCORE.INTRA>
-1.03179

>  <SCORE.INTRA.DIHEDRAL>
-1.55098

>  <SCORE.INTRA.DIHEDRAL.0>
3.281

>  <SCORE.INTRA.POLAR>
0

>  <SCORE.INTRA.POLAR.0>
0

>  <SCORE.INTRA.REPUL>
0

>  <SCORE.INTRA.REPUL.0>
0

>  <SCORE.INTRA.SOLV>
-0.677405

>  <SCORE.INTRA.SOLV.lig_0>
-31.9458

>  <SCORE.INTRA.VDW>
0.0824019

>  <SCORE.INTRA.VDW.0>
-0.672612

>  <SCORE.INTRA.norm>
-0.103179

>  <SCORE.RESTR>
0

>  <SCORE.RESTR.CAVITY>
0

>  <SCORE.RESTR.norm>
0

>  <SCORE.SYSTEM>
0

>  <SCORE.SYSTEM.CONST>
0

>  <SCORE.SYSTEM.DIHEDRAL>
0

>  <SCORE.SYSTEM.SOLV>
0

>  <SCORE.SYSTEM.norm>
0

>  <SCORE.heavy>
10

>  <SCORE.norm>
-0.37683

>  <RMSD>
13.869

$$$$
ligand
 OpenBabel11021811473D
libRbt.so/2013.1/901 2013/11/27
 10  9  0  0  0  0  0  0  0  0999 V2000
   22.5977   15.0156   10.2574 N   0  0  0  0  0  0  0  0  0  0  0  0
   22.9213   13.5612   10.2829 C   0  0  2  0  0  0  0  0  0  0  0  0
   22.7468   12.9790   11.6786 C   0  0  0  0  0  0  0  0  0  0  0  0
   22.6239   11.7690   11.8746 O   0  0  0  0  0  0  0  0  0  0  0  0
   24.3341   13.3090    9.7611 C   0  0  0  0  0  0  0  0  0  0  0  0
   24.5024   13.6902    8.3085 C   0  0  0  0  0  0  0  0  0  0  0  0
   25.8831   13.3678    7.8026 C   0  0  0  0  0  0  0  0  0  0  0  0
   26.0162   13.7260    6.3329 C   0  0  0  0  0  0  0  0  0  0  0  0
   27.3589   13.3864    5.7940 N   0  0  0  0  0  0  0  0  0  0  0  0
   22.7572   13.7117   12.6690 O   0  0  0  0  0  0  0  0  0  0  0  0
  2  1  1  1  0  0  0
  2  3  1  0  0  0  0
  2  5  1  0  0  0  0
  3  4  1  0  0  0  0
  3 10  1  0  0  0  0
  5  6  1  0  0  0  0
  6  7  1  0  0  0  0
  7  8  1  0  0  0  0
  8  9  1  0  0  0  0
M  END
>  <CHROM.1>
161.11555465,-63.98635907,-177.16765525,178.51975436,-178.51563956,24.16176682
13.43744454,9.51750343,2.62062157,-0.83880331,2.54952545

>  <Name>
ligand

>  <RI>
0

>  <Rbt.Current_Directory>
/home/itssahil/PROJECTS/Mol_Feturizer/New_Systems/rnas/3DIX

>  <Rbt.Executable>
rbdock ($Id: //depot/dev/client3/rdock/2013.1/src/exe/rbdock.cxx#4 $)

>  <Rbt.Library>
libRbt.so (2013.1, Build901 2013/11/27)

>  <Rbt.Parameter_File>
/export/apps/rDock/src/rDock_2013.1_src/data/scripts/dock_solv.prm

>  <Rbt.Receptor>
prm/blind_docking_40.prm

>  <SCORE>
-3.21116

>  <SCORE.INTER>
-1.90218

>  <SCORE.INTER.CONST>
1

>  <SCORE.INTER.POLAR>
0

>  <SCORE.INTER.ROT>
5

>  <SCORE.INTER.SOLV>
9.56623

>  <SCORE.INTER.VDW>
-11.3902

>  <SCORE.INTER.norm>
-0.190218

>  <SCORE.INTRA>
-1.30898

>  <SCORE.INTRA.DIHEDRAL>
-1.72801

>  <SCORE.INTRA.DIHEDRAL.0>
3.281

>  <SCORE.INTRA.POLAR>
0

>  <SCORE.INTRA.POLAR.0>
0

>  <SCORE.INTRA.REPUL>
0

>  <SCORE.INTRA.REPUL.0>
0

>  <SCORE.INTRA.SOLV>
-0.696816

>  <SCORE.INTRA.SOLV.lig_0>
-31.9458

>  <SCORE.INTRA.VDW>
-0.0965677

>  <SCORE.INTRA.VDW.0>
-0.672612

>  <SCORE.INTRA.norm>
-0.130898

>  <SCORE.RESTR>
0

>  <SCORE.RESTR.CAVITY>
0

>  <SCORE.RESTR.norm>
0

>  <SCORE.SYSTEM>
0

>  <SCORE.SYSTEM.CONST>
0

>  <SCORE.SYSTEM.DIHEDRAL>
0

>  <SCORE.SYSTEM.SOLV>
0

>  <SCORE.SYSTEM.norm>
0

>  <SCORE.heavy>
10

>  <SCORE.norm>
-0.321116

>  <RMSD>
13.889

$$$$
ligand
 OpenBabel11021811473D
libRbt.so/2013.1/901 2013/11/27
 10  9  0  0  0  0  0  0  0  0999 V2000
   21.2283   12.2206   12.6665 N   0  0  0  0  0  0  0  0  0  0  0  0
   21.8242   13.4317   12.0351 C   0  0  2  0  0  0  0  0  0  0  0  0
   20.7486   14.4219   11.6112 C   0  0  0  0  0  0  0  0  0  0  0  0
   20.6660   15.5502   12.0987 O   0  0  0  0  0  0  0  0  0  0  0  0
   22.7082   13.0485   10.8503 C   0  0  0  0  0  0  0  0  0  0  0  0
   23.3742   14.2403   10.2024 C   0  0  0  0  0  0  0  0  0  0  0  0
   24.2202   13.8357    9.0247 C   0  0  0  0  0  0  0  0  0  0  0  0
   24.7877   15.0572    8.3234 C   0  0  0  0  0  0  0  0  0  0  0  0
   25.5990   14.6920    7.1330 N   0  0  0  0  0  0  0  0  0  0  0  0
   19.9386   14.1283   10.7305 O   0  0  0  0  0  0  0  0  0  0  0  0
  2  1  1  6  0  0  0
  2  3  1  0  0  0  0
  2  5  1  0  0  0  0
  3  4  1  0  0  0  0
  3 10  1  0  0  0  0
  5  6  1  0  0  0  0
  6  7  1  0  0  0  0
  7  8  1  0  0  0  0
  8  9  1  0  0  0  0
M  END
>  <CHROM.1>
116.84134295,-178.08409060,-179.05217765,175.42164458,-178.47048245,22.47757625
14.08390252,10.46669560,-2.65178687,0.59529484,-0.58578431

>  <Name>
ligand

>  <RI>
0

>  <Rbt.Current_Directory>
/home/itssahil/PROJECTS/Mol_Feturizer/New_Systems/rnas/3DIX

>  <Rbt.Executable>
rbdock ($Id: //depot/dev/client3/rdock/2013.1/src/exe/rbdock.cxx#4 $)

>  <Rbt.Library>
libRbt.so (2013.1, Build901 2013/11/27)

>  <Rbt.Parameter_File>
/export/apps/rDock/src/rDock_2013.1_src/data/scripts/dock_solv.prm

>  <Rbt.Receptor>
prm/blind_docking_40.prm

>  <SCORE>
-3.31272

>  <SCORE.INTER>
-1.70713

>  <SCORE.INTER.CONST>
1

>  <SCORE.INTER.POLAR>
0

>  <SCORE.INTER.ROT>
5

>  <SCORE.INTER.SOLV>
6.41391

>  <SCORE.INTER.VDW>
-10.2094

>  <SCORE.INTER.norm>
-0.170713

>  <SCORE.INTRA>
-1.60559

>  <SCORE.INTRA.DIHEDRAL>
-1.66254

>  <SCORE.INTRA.DIHEDRAL.0>
3.281

>  <SCORE.INTRA.POLAR>
0

>  <SCORE.INTRA.POLAR.0>
0

>  <SCORE.INTRA.REPUL>
0

>  <SCORE.INTRA.REPUL.0>
0

>  <SCORE.INTRA.SOLV>
-1.59266

>  <SCORE.INTRA.SOLV.lig_0>
-31.9458

>  <SCORE.INTRA.VDW>
0.0220105

>  <SCORE.INTRA.VDW.0>
-0.672612

>  <SCORE.INTRA.norm>
-0.160559

>  <SCORE.RESTR>
0

>  <SCORE.RESTR.CAVITY>
0

>  <SCORE.RESTR.norm>
0

>  <SCORE.SYSTEM>
0

>  <SCORE.SYSTEM.CONST>
0

>  <SCORE.SYSTEM.DIHEDRAL>
0

>  <SCORE.SYSTEM.SOLV>
0

>  <SCORE.SYSTEM.norm>
0

>  <SCORE.heavy>
10

>  <SCORE.norm>
-0.331272

>  <RMSD>
13.908

$$$$
ligand
 OpenBabel11021811473D
libRbt.so/2013.1/901 2013/11/27
 10  9  0  0  0  0  0  0  0  0999 V2000
   27.9611   12.7223    4.8603 N   0  0  0  0  0  0  0  0  0  0  0  0
   27.6051   13.6692    5.9545 C   0  0  2  0  0  0  0  0  0  0  0  0
   28.8353   14.0881    6.7470 C   0  0  0  0  0  0  0  0  0  0  0  0
   28.7567   14.5473    7.8874 O   0  0  0  0  0  0  0  0  0  0  0  0
   26.5457   13.0651    6.8735 C   0  0  0  0  0  0  0  0  0  0  0  0
   25.8717   14.0939    7.7517 C   0  0  0  0  0  0  0  0  0  0  0  0
   24.7929   13.4804    8.6038 C   0  0  0  0  0  0  0  0  0  0  0  0
   24.1671   14.5222    9.5142 C   0  0  0  0  0  0  0  0  0  0  0  0
   23.1269   13.9380   10.4004 N   0  0  0  0  0  0  0  0  0  0  0  0
   29.9639   13.9458    6.2739 O   0  0  0  0  0  0  0  0  0  0  0  0
  2  1  1  6  0  0  0
  2  3  1  0  0  0  0
  2  5  1  0  0  0  0
  3  4  1  0  0  0  0
  3 10  1  0  0  0  0
  5  6  1  0  0  0  0
  6  7  1  0  0  0  0
  7  8  1  0  0  0  0
  8  9  1  0  0  0  0
M  END
>  <CHROM.1>
-159.42467821,-163.94932093,177.56986872,177.85238589,-178.16756939,26.79998066
13.81661900,7.49678814,0.55381162,-0.26423407,-2.06201410

>  <Name>
ligand

>  <RI>
0

>  <Rbt.Current_Directory>
/home/itssahil/PROJECTS/Mol_Feturizer/New_Systems/rnas/3DIX

>  <Rbt.Executable>
rbdock ($Id: //depot/dev/client3/rdock/2013.1/src/exe/rbdock.cxx#4 $)

>  <Rbt.Library>
libRbt.so (2013.1, Build901 2013/11/27)

>  <Rbt.Parameter_File>
/export/apps/rDock/src/rDock_2013.1_src/data/scripts/dock_solv.prm

>  <Rbt.Receptor>
prm/blind_docking_40.prm

>  <SCORE>
-3.43201

>  <SCORE.INTER>
-2.74167

>  <SCORE.INTER.CONST>
1

>  <SCORE.INTER.POLAR>
0

>  <SCORE.INTER.ROT>
5

>  <SCORE.INTER.SOLV>
5.05647

>  <SCORE.INTER.VDW>
-10.4466

>  <SCORE.INTER.norm>
-0.274167

>  <SCORE.INTRA>
-0.690342

>  <SCORE.INTRA.DIHEDRAL>
-0.743759

>  <SCORE.INTRA.DIHEDRAL.0>
3.281

>  <SCORE.INTRA.POLAR>
0

>  <SCORE.INTRA.POLAR.0>
0

>  <SCORE.INTRA.REPUL>
0

>  <SCORE.INTRA.REPUL.0>
0

>  <SCORE.INTRA.SOLV>
-1.54181

>  <SCORE.INTRA.SOLV.lig_0>
-31.9458

>  <SCORE.INTRA.VDW>
0.452441

>  <SCORE.INTRA.VDW.0>
-0.672612

>  <SCORE.INTRA.norm>
-0.0690342

>  <SCORE.RESTR>
0

>  <SCORE.RESTR.CAVITY>
0

>  <SCORE.RESTR.norm>
0

>  <SCORE.SYSTEM>
0

>  <SCORE.SYSTEM.CONST>
0

>  <SCORE.SYSTEM.DIHEDRAL>
0

>  <SCORE.SYSTEM.SOLV>
0

>  <SCORE.SYSTEM.norm>
0

>  <SCORE.heavy>
10

>  <SCORE.norm>
-0.343201

>  <RMSD>
14.078

$$$$
ligand
 OpenBabel11021811473D
libRbt.so/2013.1/901 2013/11/27
 10  9  0  0  0  0  0  0  0  0999 V2000
   22.6197   12.5986   11.8791 N   0  0  0  0  0  0  0  0  0  0  0  0
   22.5904   13.7867   10.9801 C   0  0  2  0  0  0  0  0  0  0  0  0
   21.1792   14.0741   10.4872 C   0  0  0  0  0  0  0  0  0  0  0  0
   20.2192   13.3662   10.7954 O   0  0  0  0  0  0  0  0  0  0  0  0
   23.5500   13.6044    9.8062 C   0  0  0  0  0  0  0  0  0  0  0  0
   23.7788   14.8799    9.0287 C   0  0  0  0  0  0  0  0  0  0  0  0
   24.5691   14.6337    7.7714 C   0  0  0  0  0  0  0  0  0  0  0  0
   25.9912   14.2157    8.1015 C   0  0  0  0  0  0  0  0  0  0  0  0
   26.7766   13.8932    6.8817 N   0  0  0  0  0  0  0  0  0  0  0  0
   20.9499   15.0578    9.7819 O   0  0  0  0  0  0  0  0  0  0  0  0
  2  1  1  6  0  0  0
  2  3  1  0  0  0  0
  2  5  1  0  0  0  0
  3  4  1  0  0  0  0
  3 10  1  0  0  0  0
  5  6  1  0  0  0  0
  6  7  1  0  0  0  0
  7  8  1  0  0  0  0
  8  9  1  0  0  0  0
M  END
>  <CHROM.1>
-1.54887817,-167.93406078,-171.99659694,-67.35818687,176.88628210,23.18195370
14.01756605,9.54841421,-2.62049988,0.31680448,-0.92297908

>  <Name>
ligand

>  <RI>
0

>  <Rbt.Current_Directory>
/home/itssahil/PROJECTS/Mol_Feturizer/New_Systems/rnas/3DIX

>  <Rbt.Executable>
rbdock ($Id: //depot/dev/client3/rdock/2013.1/src/exe/rbdock.cxx#4 $)

>  <Rbt.Library>
libRbt.so (2013.1, Build901 2013/11/27)

>  <Rbt.Parameter_File>
/export/apps/rDock/src/rDock_2013.1_src/data/scripts/dock_solv.prm

>  <Rbt.Receptor>
prm/blind_docking_40.prm

>  <SCORE>
-2.09728

>  <SCORE.INTER>
-2.12389

>  <SCORE.INTER.CONST>
1

>  <SCORE.INTER.POLAR>
0

>  <SCORE.INTER.ROT>
5

>  <SCORE.INTER.SOLV>
7.68348

>  <SCORE.INTER.VDW>
-10.9104

>  <SCORE.INTER.norm>
-0.212389

>  <SCORE.INTRA>
0.0266069

>  <SCORE.INTRA.DIHEDRAL>
-0.718835

>  <SCORE.INTRA.DIHEDRAL.0>
3.281

>  <SCORE.INTRA.POLAR>
0

>  <SCORE.INTRA.POLAR.0>
0

>  <SCORE.INTRA.REPUL>
0

>  <SCORE.INTRA.REPUL.0>
0

>  <SCORE.INTRA.SOLV>
-1.27683

>  <SCORE.INTRA.SOLV.lig_0>
-31.9458

>  <SCORE.INTRA.VDW>
1.02444

>  <SCORE.INTRA.VDW.0>
-0.672612

>  <SCORE.INTRA.norm>
0.00266069

>  <SCORE.RESTR>
0

>  <SCORE.RESTR.CAVITY>
0

>  <SCORE.RESTR.norm>
0

>  <SCORE.SYSTEM>
0

>  <SCORE.SYSTEM.CONST>
0

>  <SCORE.SYSTEM.DIHEDRAL>
0

>  <SCORE.SYSTEM.SOLV>
0

>  <SCORE.SYSTEM.norm>
0

>  <SCORE.heavy>
10

>  <SCORE.norm>
-0.209728

>  <RMSD>
14.270

$$$$
ligand
 OpenBabel11021811473D
libRbt.so/2013.1/901 2013/11/27
 10  9  0  0  0  0  0  0  0  0999 V2000
   28.0758   13.5682    3.8592 N   0  0  0  0  0  0  0  0  0  0  0  0
   27.6959   14.0067    5.2317 C   0  0  2  0  0  0  0  0  0  0  0  0
   28.7691   13.6409    6.2474 C   0  0  0  0  0  0  0  0  0  0  0  0
   29.2250   14.4614    7.0452 O   0  0  0  0  0  0  0  0  0  0  0  0
   26.3439   13.4223    5.6348 C   0  0  0  0  0  0  0  0  0  0  0  0
   25.7184   14.1396    6.8087 C   0  0  0  0  0  0  0  0  0  0  0  0
   26.3875   13.7752    8.1071 C   0  0  0  0  0  0  0  0  0  0  0  0
   25.7559   14.5234    9.2678 C   0  0  0  0  0  0  0  0  0  0  0  0
   26.3886   14.1768   10.5671 N   0  0  0  0  0  0  0  0  0  0  0  0
   29.1939   12.4869    6.3220 O   0  0  0  0  0  0  0  0  0  0  0  0
  2  1  1  6  0  0  0
  2  3  1  0  0  0  0
  2  5  1  0  0  0  0
  3  4  1  0  0  0  0
  3 10  1  0  0  0  0
  5  6  1  0  0  0  0
  6  7  1  0  0  0  0
  7  8  1  0  0  0  0
  8  9  1  0  0  0  0
M  END
>  <CHROM.1>
129.76971133,-162.76380012,-75.22978416,179.15467862,179.55915132,27.38464446
13.81166808,6.92413958,1.09335977,0.13066781,-1.67732576

>  <Name>
ligand

>  <RI>
0

>  <Rbt.Current_Directory>
/home/itssahil/PROJECTS/Mol_Feturizer/New_Systems/rnas/3DIX

>  <Rbt.Executable>
rbdock ($Id: //depot/dev/client3/rdock/2013.1/src/exe/rbdock.cxx#4 $)

>  <Rbt.Library>
libRbt.so (2013.1, Build901 2013/11/27)

>  <Rbt.Parameter_File>
/export/apps/rDock/src/rDock_2013.1_src/data/scripts/dock_solv.prm

>  <Rbt.Receptor>
prm/blind_docking_40.prm

>  <SCORE>
-2.68435

>  <SCORE.INTER>
-2.01439

>  <SCORE.INTER.CONST>
1

>  <SCORE.INTER.POLAR>
0

>  <SCORE.INTER.ROT>
5

>  <SCORE.INTER.SOLV>
6.30377

>  <SCORE.INTER.VDW>
-10.3775

>  <SCORE.INTER.norm>
-0.201439

>  <SCORE.INTRA>
-0.669967

>  <SCORE.INTRA.DIHEDRAL>
0.17563

>  <SCORE.INTRA.DIHEDRAL.0>
3.281

>  <SCORE.INTRA.POLAR>
0

>  <SCORE.INTRA.POLAR.0>
0

>  <SCORE.INTRA.REPUL>
0

>  <SCORE.INTRA.REPUL.0>
0

>  <SCORE.INTRA.SOLV>
-1.44929

>  <SCORE.INTRA.SOLV.lig_0>
-31.9458

>  <SCORE.INTRA.VDW>
-0.0331385

>  <SCORE.INTRA.VDW.0>
-0.672612

>  <SCORE.INTRA.norm>
-0.0669967

>  <SCORE.RESTR>
0

>  <SCORE.RESTR.CAVITY>
0

>  <SCORE.RESTR.norm>
0

>  <SCORE.SYSTEM>
0

>  <SCORE.SYSTEM.CONST>
0

>  <SCORE.SYSTEM.DIHEDRAL>
0

>  <SCORE.SYSTEM.SOLV>
0

>  <SCORE.SYSTEM.norm>
0

>  <SCORE.heavy>
10

>  <SCORE.norm>
-0.268435

>  <RMSD>
14.592

$$$$
ligand
 OpenBabel11021811473D
libRbt.so/2013.1/901 2013/11/27
 10  9  0  0  0  0  0  0  0  0999 V2000
   25.0152   16.3333    8.1473 N   0  0  0  0  0  0  0  0  0  0  0  0
   24.2289   15.0696    8.2221 C   0  0  2  0  0  0  0  0  0  0  0  0
   23.5191   14.9370    9.5621 C   0  0  0  0  0  0  0  0  0  0  0  0
   24.1216   14.6561   10.5994 O   0  0  0  0  0  0  0  0  0  0  0  0
   25.1197   13.8581    7.9562 C   0  0  0  0  0  0  0  0  0  0  0  0
   25.8137   13.9201    6.6152 C   0  0  0  0  0  0  0  0  0  0  0  0
   26.6850   12.7151    6.3808 C   0  0  0  0  0  0  0  0  0  0  0  0
   27.3839   12.8083    5.0359 C   0  0  0  0  0  0  0  0  0  0  0  0
   28.1998   11.6008    4.7448 N   0  0  0  0  0  0  0  0  0  0  0  0
   22.3078   15.1430    9.6527 O   0  0  0  0  0  0  0  0  0  0  0  0
  2  1  1  1  0  0  0
  2  3  1  0  0  0  0
  2  5  1  0  0  0  0
  3  4  1  0  0  0  0
  3 10  1  0  0  0  0
  5  6  1  0  0  0  0
  6  7  1  0  0  0  0
  7  8  1  0  0  0  0
  8  9  1  0  0  0  0
M  END
>  <CHROM.1>
-74.05521224,-57.64608380,179.94278353,-179.31394474,-177.15817076,25.21425869
14.10762595,7.72956195,-2.99896443,-0.90143698,2.75775793

>  <Name>
ligand

>  <RI>
0

>  <Rbt.Current_Directory>
/home/itssahil/PROJECTS/Mol_Feturizer/New_Systems/rnas/3DIX

>  <Rbt.Executable>
rbdock ($Id: //depot/dev/client3/rdock/2013.1/src/exe/rbdock.cxx#4 $)

>  <Rbt.Library>
libRbt.so (2013.1, Build901 2013/11/27)

>  <Rbt.Parameter_File>
/export/apps/rDock/src/rDock_2013.1_src/data/scripts/dock_solv.prm

>  <Rbt.Receptor>
prm/blind_docking_60.prm

>  <SCORE>
-3.51747

>  <SCORE.INTER>
-2.36075

>  <SCORE.INTER.CONST>
1

>  <SCORE.INTER.POLAR>
0

>  <SCORE.INTER.ROT>
5

>  <SCORE.INTER.SOLV>
9.21401

>  <SCORE.INTER.VDW>
-11.5785

>  <SCORE.INTER.norm>
-0.236075

>  <SCORE.INTRA>
-1.15672

>  <SCORE.INTRA.DIHEDRAL>
-1.79035

>  <SCORE.INTRA.DIHEDRAL.0>
3.281

>  <SCORE.INTRA.POLAR>
0

>  <SCORE.INTRA.POLAR.0>
0

>  <SCORE.INTRA.REPUL>
0

>  <SCORE.INTRA.REPUL.0>
0

>  <SCORE.INTRA.SOLV>
-0.619765

>  <SCORE.INTRA.SOLV.lig_0>
-31.9458

>  <SCORE.INTRA.VDW>
0.0483395

>  <SCORE.INTRA.VDW.0>
-0.672612

>  <SCORE.INTRA.norm>
-0.115672

>  <SCORE.RESTR>
0

>  <SCORE.RESTR.CAVITY>
0

>  <SCORE.RESTR.norm>
0

>  <SCORE.SYSTEM>
0

>  <SCORE.SYSTEM.CONST>
0

>  <SCORE.SYSTEM.DIHEDRAL>
0

>  <SCORE.SYSTEM.SOLV>
0

>  <SCORE.SYSTEM.norm>
0

>  <SCORE.heavy>
10

>  <SCORE.norm>
-0.351747

>  <RMSD>
14.778

$$$$
ligand
 OpenBabel11021811473D
libRbt.so/2013.1/901 2013/11/27
 10  9  0  0  0  0  0  0  0  0999 V2000
   27.8588   13.3270    3.9452 N   0  0  0  0  0  0  0  0  0  0  0  0
   27.5870   13.7464    5.3491 C   0  0  2  0  0  0  0  0  0  0  0  0
   28.8226   13.5878    6.2239 C   0  0  0  0  0  0  0  0  0  0  0  0
   29.0991   14.3860    7.1206 O   0  0  0  0  0  0  0  0  0  0  0  0
   26.4064   12.9712    5.9296 C   0  0  0  0  0  0  0  0  0  0  0  0
   25.9165   13.5393    7.2415 C   0  0  0  0  0  0  0  0  0  0  0  0
   25.2355   14.8688    7.0551 C   0  0  0  0  0  0  0  0  0  0  0  0
   24.8014   15.4444    8.3916 C   0  0  0  0  0  0  0  0  0  0  0  0
   23.8167   14.5720    9.0828 N   0  0  0  0  0  0  0  0  0  0  0  0
   29.5741   12.6225    6.0778 O   0  0  0  0  0  0  0  0  0  0  0  0
  2  1  1  6  0  0  0
  2  3  1  0  0  0  0
  2  5  1  0  0  0  0
  3  4  1  0  0  0  0
  3 10  1  0  0  0  0
  5  6  1  0  0  0  0
  6  7  1  0  0  0  0
  7  8  1  0  0  0  0
  8  9  1  0  0  0  0
M  END
>  <CHROM.1>
143.45771419,-168.72513252,70.14819374,-177.75939140,-61.75059608,26.94778407
13.90096520,6.65576688,0.62395318,0.10011935,-1.93658598

>  <Name>
ligand

>  <RI>
0

>  <Rbt.Current_Directory>
/home/itssahil/PROJECTS/Mol_Feturizer/New_Systems/rnas/3DIX

>  <Rbt.Executable>
rbdock ($Id: //depot/dev/client3/rdock/2013.1/src/exe/rbdock.cxx#4 $)

>  <Rbt.Library>
libRbt.so (2013.1, Build901 2013/11/27)

>  <Rbt.Parameter_File>
/export/apps/rDock/src/rDock_2013.1_src/data/scripts/dock_solv.prm

>  <Rbt.Receptor>
prm/blind_docking_40.prm

>  <SCORE>
-3.72547

>  <SCORE.INTER>
-3.19599

>  <SCORE.INTER.CONST>
1

>  <SCORE.INTER.POLAR>
0

>  <SCORE.INTER.ROT>
5

>  <SCORE.INTER.SOLV>
6.1114

>  <SCORE.INTER.VDW>
-11.1011

>  <SCORE.INTER.norm>
-0.319599

>  <SCORE.INTRA>
-0.529479

>  <SCORE.INTRA.DIHEDRAL>
-0.930665

>  <SCORE.INTRA.DIHEDRAL.0>
3.281

>  <SCORE.INTRA.POLAR>
0

>  <SCORE.INTRA.POLAR.0>
0

>  <SCORE.INTRA.REPUL>
0

>  <SCORE.INTRA.REPUL.0>
0

>  <SCORE.INTRA.SOLV>
-0.314674

>  <SCORE.INTRA.SOLV.lig_0>
-31.9458

>  <SCORE.INTRA.VDW>
0.0931908

>  <SCORE.INTRA.VDW.0>
-0.672612

>  <SCORE.INTRA.norm>
-0.0529479

>  <SCORE.RESTR>
0

>  <SCORE.RESTR.CAVITY>
0

>  <SCORE.RESTR.norm>
0

>  <SCORE.SYSTEM>
0

>  <SCORE.SYSTEM.CONST>
0

>  <SCORE.SYSTEM.DIHEDRAL>
0

>  <SCORE.SYSTEM.SOLV>
0

>  <SCORE.SYSTEM.norm>
0

>  <SCORE.heavy>
10

>  <SCORE.norm>
-0.372547

>  <RMSD>
14.848

$$$$
ligand
 OpenBabel11021811473D
libRbt.so/2013.1/901 2013/11/27
 10  9  0  0  0  0  0  0  0  0999 V2000
   24.1164   14.4324    9.9057 N   0  0  0  0  0  0  0  0  0  0  0  0
   25.1103   14.7519    8.8423 C   0  0  2  0  0  0  0  0  0  0  0  0
   24.5926   15.8363    7.9077 C   0  0  0  0  0  0  0  0  0  0  0  0
   23.6439   15.6476    7.1448 O   0  0  0  0  0  0  0  0  0  0  0  0
   25.4929   13.4972    8.0605 C   0  0  0  0  0  0  0  0  0  0  0  0
   26.6140   13.7358    7.0756 C   0  0  0  0  0  0  0  0  0  0  0  0
   27.0020   12.4727    6.3542 C   0  0  0  0  0  0  0  0  0  0  0  0
   28.1960   12.7147    5.4476 C   0  0  0  0  0  0  0  0  0  0  0  0
   27.8841   13.6741    4.3563 N   0  0  0  0  0  0  0  0  0  0  0  0
   25.0958   16.9608    7.9131 O   0  0  0  0  0  0  0  0  0  0  0  0
  2  1  1  1  0  0  0
  2  3  1  0  0  0  0
  2  5  1  0  0  0  0
  3  4  1  0  0  0  0
  3 10  1  0  0  0  0
  5  6  1  0  0  0  0
  6  7  1  0  0  0  0
  7  8  1  0  0  0  0
  8  9  1  0  0  0  0
M  END
>  <CHROM.1>
-67.73898077,-173.42209687,178.02420141,-175.79558574,-64.16318493,25.75708576
14.40282811,7.28752772,-3.13093493,0.87351121,-0.70039141

>  <Name>
ligand

>  <RI>
0

>  <Rbt.Current_Directory>
/home/itssahil/PROJECTS/Mol_Feturizer/New_Systems/rnas/3DIX

>  <Rbt.Executable>
rbdock ($Id: //depot/dev/client3/rdock/2013.1/src/exe/rbdock.cxx#4 $)

>  <Rbt.Library>
libRbt.so (2013.1, Build901 2013/11/27)

>  <Rbt.Parameter_File>
/export/apps/rDock/src/rDock_2013.1_src/data/scripts/dock_solv.prm

>  <Rbt.Receptor>
prm/blind_docking_100.prm

>  <SCORE>
-4.80816

>  <SCORE.INTER>
-3.76865

>  <SCORE.INTER.CONST>
1

>  <SCORE.INTER.POLAR>
0

>  <SCORE.INTER.ROT>
5

>  <SCORE.INTER.SOLV>
5.84802

>  <SCORE.INTER.VDW>
-11.3951

>  <SCORE.INTER.norm>
-0.376865

>  <SCORE.INTRA>
-1.03952

>  <SCORE.INTRA.DIHEDRAL>
-1.51017

>  <SCORE.INTRA.DIHEDRAL.0>
3.281

>  <SCORE.INTRA.POLAR>
0

>  <SCORE.INTRA.POLAR.0>
0

>  <SCORE.INTRA.REPUL>
0

>  <SCORE.INTRA.REPUL.0>
0

>  <SCORE.INTRA.SOLV>
-0.664235

>  <SCORE.INTRA.SOLV.lig_0>
-31.9458

>  <SCORE.INTRA.VDW>
0.0476822

>  <SCORE.INTRA.VDW.0>
-0.672612

>  <SCORE.INTRA.norm>
-0.103952

>  <SCORE.RESTR>
0

>  <SCORE.RESTR.CAVITY>
0

>  <SCORE.RESTR.norm>
0

>  <SCORE.SYSTEM>
0

>  <SCORE.SYSTEM.CONST>
0

>  <SCORE.SYSTEM.DIHEDRAL>
0

>  <SCORE.SYSTEM.SOLV>
0

>  <SCORE.SYSTEM.norm>
0

>  <SCORE.heavy>
10

>  <SCORE.norm>
-0.480816

>  <RMSD>
14.883

$$$$
ligand
 OpenBabel11021811473D
libRbt.so/2013.1/901 2013/11/27
 10  9  0  0  0  0  0  0  0  0999 V2000
   10.6581   22.1917   15.2726 N   0  0  0  0  0  0  0  0  0  0  0  0
   10.4390   22.7502   16.6367 C   0  0  2  0  0  0  0  0  0  0  0  0
    9.5710   21.8273   17.4805 C   0  0  0  0  0  0  0  0  0  0  0  0
    9.9167   21.4410   18.5980 O   0  0  0  0  0  0  0  0  0  0  0  0
    9.8315   24.1492   16.5607 C   0  0  0  0  0  0  0  0  0  0  0  0
   10.7831   25.1744   15.9884 C   0  0  0  0  0  0  0  0  0  0  0  0
   10.3133   26.5803   16.2507 C   0  0  0  0  0  0  0  0  0  0  0  0
   11.2062   27.5872   15.5472 C   0  0  0  0  0  0  0  0  0  0  0  0
   12.6030   27.5453   16.0530 N   0  0  0  0  0  0  0  0  0  0  0  0
    8.4662   21.4625   17.0755 O   0  0  0  0  0  0  0  0  0  0  0  0
  2  1  1  6  0  0  0
  2  3  1  0  0  0  0
  2  5  1  0  0  0  0
  3  4  1  0  0  0  0
  3 10  1  0  0  0  0
  5  6  1  0  0  0  0
  6  7  1  0  0  0  0
  7  8  1  0  0  0  0
  8  9  1  0  0  0  0
M  END
>  <CHROM.1>
127.29766858,-67.89079518,-165.10846898,-174.21773310,-62.94286144,10.35636953
24.03894785,16.56866669,-2.56030089,1.16666082,0.68705276

>  <Name>
ligand

>  <RI>
0

>  <Rbt.Current_Directory>
/home/itssahil/PROJECTS/Mol_Feturizer/New_Systems/rnas/3DIX

>  <Rbt.Executable>
rbdock ($Id: //depot/dev/client3/rdock/2013.1/src/exe/rbdock.cxx#4 $)

>  <Rbt.Library>
libRbt.so (2013.1, Build901 2013/11/27)

>  <Rbt.Parameter_File>
/export/apps/rDock/src/rDock_2013.1_src/data/scripts/dock_solv.prm

>  <Rbt.Receptor>
prm/blind_docking_40.prm

>  <SCORE>
-0.516862

>  <SCORE.INTER>
-0.285806

>  <SCORE.INTER.CONST>
1

>  <SCORE.INTER.POLAR>
0

>  <SCORE.INTER.ROT>
5

>  <SCORE.INTER.SOLV>
4.59074

>  <SCORE.INTER.VDW>
-8.65412

>  <SCORE.INTER.norm>
-0.0285806

>  <SCORE.INTRA>
-0.231055

>  <SCORE.INTRA.DIHEDRAL>
-0.495357

>  <SCORE.INTRA.DIHEDRAL.0>
3.281

>  <SCORE.INTRA.POLAR>
0

>  <SCORE.INTRA.POLAR.0>
0

>  <SCORE.INTRA.REPUL>
0

>  <SCORE.INTRA.REPUL.0>
0

>  <SCORE.INTRA.SOLV>
0.112028

>  <SCORE.INTRA.SOLV.lig_0>
-31.9458

>  <SCORE.INTRA.VDW>
-0.0393908

>  <SCORE.INTRA.VDW.0>
-0.672612

>  <SCORE.INTRA.norm>
-0.0231055

>  <SCORE.RESTR>
0

>  <SCORE.RESTR.CAVITY>
0

>  <SCORE.RESTR.norm>
0

>  <SCORE.SYSTEM>
0

>  <SCORE.SYSTEM.CONST>
0

>  <SCORE.SYSTEM.DIHEDRAL>
0

>  <SCORE.SYSTEM.SOLV>
0

>  <SCORE.SYSTEM.norm>
0

>  <SCORE.heavy>
10

>  <SCORE.norm>
-0.0516862

>  <RMSD>
22.418

$$$$
ligand
 OpenBabel11021811473D
libRbt.so/2013.1/901 2013/11/27
 10  9  0  0  0  0  0  0  0  0999 V2000
   13.0984   30.1729   14.2622 N   0  0  0  0  0  0  0  0  0  0  0  0
   12.2896   29.0743   14.8616 C   0  0  2  0  0  0  0  0  0  0  0  0
   10.9056   29.5622   15.2661 C   0  0  0  0  0  0  0  0  0  0  0  0
    9.8817   29.1747   14.7011 O   0  0  0  0  0  0  0  0  0  0  0  0
   13.0158   28.4510   16.0515 C   0  0  0  0  0  0  0  0  0  0  0  0
   12.3403   27.2003   16.5648 C   0  0  0  0  0  0  0  0  0  0  0  0
   13.0147   26.6683   17.8010 C   0  0  0  0  0  0  0  0  0  0  0  0
   12.2709   25.4607   18.3438 C   0  0  0  0  0  0  0  0  0  0  0  0
   12.8854   24.9405   19.5929 N   0  0  0  0  0  0  0  0  0  0  0  0
   10.7674   30.3455   16.2069 O   0  0  0  0  0  0  0  0  0  0  0  0
  2  1  1  1  0  0  0
  2  3  1  0  0  0  0
  2  5  1  0  0  0  0
  3  4  1  0  0  0  0
  3 10  1  0  0  0  0
  5  6  1  0  0  0  0
  6  7  1  0  0  0  0
  7  8  1  0  0  0  0
  8  9  1  0  0  0  0
M  END
>  <CHROM.1>
112.72994403,-171.27120010,-175.56924225,176.68888917,-177.99284928,12.01312823
28.12372479,16.36600913,-1.81165361,-0.13933751,2.38734604

>  <Name>
ligand

>  <RI>
0

>  <Rbt.Current_Directory>
/home/itssahil/PROJECTS/Mol_Feturizer/New_Systems/rnas/3DIX

>  <Rbt.Executable>
rbdock ($Id: //depot/dev/client3/rdock/2013.1/src/exe/rbdock.cxx#4 $)

>  <Rbt.Library>
libRbt.so (2013.1, Build901 2013/11/27)

>  <Rbt.Parameter_File>
/export/apps/rDock/src/rDock_2013.1_src/data/scripts/dock_solv.prm

>  <Rbt.Receptor>
prm/blind_docking_40.prm

>  <SCORE>
-0.0867022

>  <SCORE.INTER>
1.45611

>  <SCORE.INTER.CONST>
1

>  <SCORE.INTER.POLAR>
0

>  <SCORE.INTER.ROT>
5

>  <SCORE.INTER.SOLV>
2.48408

>  <SCORE.INTER.VDW>
-6.79062

>  <SCORE.INTER.norm>
0.145611

>  <SCORE.INTRA>
-1.54282

>  <SCORE.INTRA.DIHEDRAL>
-1.33728

>  <SCORE.INTRA.DIHEDRAL.0>
3.281

>  <SCORE.INTRA.POLAR>
0

>  <SCORE.INTRA.POLAR.0>
0

>  <SCORE.INTRA.REPUL>
0

>  <SCORE.INTRA.REPUL.0>
0

>  <SCORE.INTRA.SOLV>
-1.58961

>  <SCORE.INTRA.SOLV.lig_0>
-31.9458

>  <SCORE.INTRA.VDW>
-0.0793726

>  <SCORE.INTRA.VDW.0>
-0.672612

>  <SCORE.INTRA.norm>
-0.154282

>  <SCORE.RESTR>
0

>  <SCORE.RESTR.CAVITY>
0

>  <SCORE.RESTR.norm>
0

>  <SCORE.SYSTEM>
0

>  <SCORE.SYSTEM.CONST>
0

>  <SCORE.SYSTEM.DIHEDRAL>
0

>  <SCORE.SYSTEM.SOLV>
0

>  <SCORE.SYSTEM.norm>
0

>  <SCORE.heavy>
10

>  <SCORE.norm>
-0.00867022

>  <RMSD>
22.645

$$$$
ligand
 OpenBabel11021811473D
libRbt.so/2013.1/901 2013/11/27
 10  9  0  0  0  0  0  0  0  0999 V2000
   13.6308   29.0633   16.8170 N   0  0  0  0  0  0  0  0  0  0  0  0
   12.9154   29.4613   15.5718 C   0  0  2  0  0  0  0  0  0  0  0  0
   11.4057   29.3911   15.7535 C   0  0  0  0  0  0  0  0  0  0  0  0
   10.7001   30.4005   15.7812 O   0  0  0  0  0  0  0  0  0  0  0  0
   13.3615   28.6031   14.3901 C   0  0  0  0  0  0  0  0  0  0  0  0
   14.8147   28.8074   14.0290 C   0  0  0  0  0  0  0  0  0  0  0  0
   15.0655   30.1867   13.4805 C   0  0  0  0  0  0  0  0  0  0  0  0
   16.5289   30.3643   13.1161 C   0  0  0  0  0  0  0  0  0  0  0  0
   16.8129   31.7246   12.5894 N   0  0  0  0  0  0  0  0  0  0  0  0
   10.8356   28.3029   15.8459 O   0  0  0  0  0  0  0  0  0  0  0  0
  2  1  1  1  0  0  0
  2  3  1  0  0  0  0
  2  5  1  0  0  0  0
  3  4  1  0  0  0  0
  3 10  1  0  0  0  0
  5  6  1  0  0  0  0
  6  7  1  0  0  0  0
  7  8  1  0  0  0  0
  8  9  1  0  0  0  0
M  END
>  <CHROM.1>
110.88389722,-64.92148983,-67.37323142,-179.59219536,-179.16128451,13.56367849
29.62714090,14.74705933,-2.70170637,0.38894211,-0.41943959

>  <Name>
ligand

>  <RI>
0

>  <Rbt.Current_Directory>
/home/itssahil/PROJECTS/Mol_Feturizer/New_Systems/rnas/3DIX

>  <Rbt.Executable>
rbdock ($Id: //depot/dev/client3/rdock/2013.1/src/exe/rbdock.cxx#4 $)

>  <Rbt.Library>
libRbt.so (2013.1, Build901 2013/11/27)

>  <Rbt.Parameter_File>
/export/apps/rDock/src/rDock_2013.1_src/data/scripts/dock_solv.prm

>  <Rbt.Receptor>
prm/blind_docking_40.prm

>  <SCORE>
-0.545488

>  <SCORE.INTER>
0.0456018

>  <SCORE.INTER.CONST>
1

>  <SCORE.INTER.POLAR>
0

>  <SCORE.INTER.ROT>
5

>  <SCORE.INTER.SOLV>
3.42725

>  <SCORE.INTER.VDW>
-8.04535

>  <SCORE.INTER.norm>
0.00456018

>  <SCORE.INTRA>
-0.591089

>  <SCORE.INTRA.DIHEDRAL>
-1.41971

>  <SCORE.INTRA.DIHEDRAL.0>
3.281

>  <SCORE.INTRA.POLAR>
0

>  <SCORE.INTRA.POLAR.0>
0

>  <SCORE.INTRA.REPUL>
0

>  <SCORE.INTRA.REPUL.0>
0

>  <SCORE.INTRA.SOLV>
-0.249697

>  <SCORE.INTRA.SOLV.lig_0>
-31.9458

>  <SCORE.INTRA.VDW>
0.243615

>  <SCORE.INTRA.VDW.0>
-0.672612

>  <SCORE.INTRA.norm>
-0.0591089

>  <SCORE.RESTR>
0

>  <SCORE.RESTR.CAVITY>
0

>  <SCORE.RESTR.norm>
0

>  <SCORE.SYSTEM>
0

>  <SCORE.SYSTEM.CONST>
0

>  <SCORE.SYSTEM.DIHEDRAL>
0

>  <SCORE.SYSTEM.SOLV>
0

>  <SCORE.SYSTEM.norm>
0

>  <SCORE.heavy>
10

>  <SCORE.norm>
-0.0545488

>  <RMSD>
22.839

$$$$
ligand
 OpenBabel11021811473D
libRbt.so/2013.1/901 2013/11/27
 10  9  0  0  0  0  0  0  0  0999 V2000
   16.7356   31.4497   30.6492 N   0  0  0  0  0  0  0  0  0  0  0  0
   15.2865   31.7282   30.4414 C   0  0  2  0  0  0  0  0  0  0  0  0
   14.4565   30.4569   30.5517 C   0  0  0  0  0  0  0  0  0  0  0  0
   13.2850   30.4029   30.1746 O   0  0  0  0  0  0  0  0  0  0  0  0
   15.0519   32.4162   29.0985 C   0  0  0  0  0  0  0  0  0  0  0  0
   15.5480   31.6031   27.9253 C   0  0  0  0  0  0  0  0  0  0  0  0
   15.3220   32.3137   26.6176 C   0  0  0  0  0  0  0  0  0  0  0  0
   15.8394   31.4833   25.4562 C   0  0  0  0  0  0  0  0  0  0  0  0
   15.6086   32.1479   24.1471 N   0  0  0  0  0  0  0  0  0  0  0  0
   14.9526   29.4214   30.9981 O   0  0  0  0  0  0  0  0  0  0  0  0
  2  1  1  6  0  0  0
  2  3  1  0  0  0  0
  2  5  1  0  0  0  0
  3  4  1  0  0  0  0
  3 10  1  0  0  0  0
  5  6  1  0  0  0  0
  6  7  1  0  0  0  0
  7  8  1  0  0  0  0
  8  9  1  0  0  0  0
M  END
>  <CHROM.1>
-166.17067369,58.43444921,-179.17105236,179.49170831,178.97502506,15.18804232
31.31210811,28.62077650,-1.74193180,-0.60408674,-1.40135557

>  <Name>
ligand

>  <RI>
0

>  <Rbt.Current_Directory>
/home/itssahil/PROJECTS/Mol_Feturizer/New_Systems/rnas/3DIX

>  <Rbt.Executable>
rbdock ($Id: //depot/dev/client3/rdock/2013.1/src/exe/rbdock.cxx#4 $)

>  <Rbt.Library>
libRbt.so (2013.1, Build901 2013/11/27)

>  <Rbt.Parameter_File>
/export/apps/rDock/src/rDock_2013.1_src/data/scripts/dock_solv.prm

>  <Rbt.Receptor>
prm/blind_docking_100.prm

>  <SCORE>
-0.736033

>  <SCORE.INTER>
0.0920678

>  <SCORE.INTER.CONST>
1

>  <SCORE.INTER.POLAR>
0

>  <SCORE.INTER.ROT>
5

>  <SCORE.INTER.SOLV>
3.95373

>  <SCORE.INTER.VDW>
-8.18987

>  <SCORE.INTER.norm>
0.00920678

>  <SCORE.INTRA>
-0.828101

>  <SCORE.INTRA.DIHEDRAL>
-1.72829

>  <SCORE.INTRA.DIHEDRAL.0>
3.281

>  <SCORE.INTRA.POLAR>
0

>  <SCORE.INTRA.POLAR.0>
0

>  <SCORE.INTRA.REPUL>
0

>  <SCORE.INTRA.REPUL.0>
0

>  <SCORE.INTRA.SOLV>
-0.608151

>  <SCORE.INTRA.SOLV.lig_0>
-31.9458

>  <SCORE.INTRA.VDW>
0.340119

>  <SCORE.INTRA.VDW.0>
-0.672612

>  <SCORE.INTRA.norm>
-0.0828101

>  <SCORE.RESTR>
0

>  <SCORE.RESTR.CAVITY>
0

>  <SCORE.RESTR.norm>
0

>  <SCORE.SYSTEM>
0

>  <SCORE.SYSTEM.CONST>
0

>  <SCORE.SYSTEM.DIHEDRAL>
0

>  <SCORE.SYSTEM.SOLV>
0

>  <SCORE.SYSTEM.norm>
0

>  <SCORE.heavy>
10

>  <SCORE.norm>
-0.0736033

>  <RMSD>
23.202

$$$$
ligand
 OpenBabel11021811473D
libRbt.so/2013.1/901 2013/11/27
 10  9  0  0  0  0  0  0  0  0999 V2000
   15.3135   36.3500   20.5787 N   0  0  0  0  0  0  0  0  0  0  0  0
   16.0512   37.3441   19.7491 C   0  0  2  0  0  0  0  0  0  0  0  0
   15.5640   38.7609   20.0181 C   0  0  0  0  0  0  0  0  0  0  0  0
   16.3407   39.6925   20.2335 O   0  0  0  0  0  0  0  0  0  0  0  0
   15.9401   37.0033   18.2647 C   0  0  0  0  0  0  0  0  0  0  0  0
   16.6303   35.7081   17.9043 C   0  0  0  0  0  0  0  0  0  0  0  0
   16.4164   35.3442   16.4593 C   0  0  0  0  0  0  0  0  0  0  0  0
   17.0500   34.0012   16.1418 C   0  0  0  0  0  0  0  0  0  0  0  0
   16.7489   33.5543   14.7569 N   0  0  0  0  0  0  0  0  0  0  0  0
   14.3609   39.0249   19.9944 O   0  0  0  0  0  0  0  0  0  0  0  0
  2  1  1  1  0  0  0
  2  3  1  0  0  0  0
  2  5  1  0  0  0  0
  3  4  1  0  0  0  0
  3 10  1  0  0  0  0
  5  6  1  0  0  0  0
  6  7  1  0  0  0  0
  7  8  1  0  0  0  0
  8  9  1  0  0  0  0
M  END
>  <CHROM.1>
131.79472339,-65.87286455,175.66838347,-176.70062160,174.69720328,16.02905422
36.71927148,18.42538871,2.25692407,1.24444176,0.10677088

>  <Name>
ligand

>  <RI>
0

>  <Rbt.Current_Directory>
/home/itssahil/PROJECTS/Mol_Feturizer/New_Systems/rnas/3DIX

>  <Rbt.Executable>
rbdock ($Id: //depot/dev/client3/rdock/2013.1/src/exe/rbdock.cxx#4 $)

>  <Rbt.Library>
libRbt.so (2013.1, Build901 2013/11/27)

>  <Rbt.Parameter_File>
/export/apps/rDock/src/rDock_2013.1_src/data/scripts/dock_solv.prm

>  <Rbt.Receptor>
prm/blind_docking_60.prm

>  <SCORE>
-2.10766

>  <SCORE.INTER>
-0.845437

>  <SCORE.INTER.CONST>
1

>  <SCORE.INTER.POLAR>
0

>  <SCORE.INTER.ROT>
5

>  <SCORE.INTER.SOLV>
5.87519

>  <SCORE.INTER.VDW>
-9.45535

>  <SCORE.INTER.norm>
-0.0845437

>  <SCORE.INTRA>
-1.26222

>  <SCORE.INTRA.DIHEDRAL>
-1.44776

>  <SCORE.INTRA.DIHEDRAL.0>
3.281

>  <SCORE.INTRA.POLAR>
0

>  <SCORE.INTRA.POLAR.0>
0

>  <SCORE.INTRA.REPUL>
0

>  <SCORE.INTRA.REPUL.0>
0

>  <SCORE.INTRA.SOLV>
-0.701212

>  <SCORE.INTRA.SOLV.lig_0>
-31.9458

>  <SCORE.INTRA.VDW>
-0.187734

>  <SCORE.INTRA.VDW.0>
-0.672612

>  <SCORE.INTRA.norm>
-0.126222

>  <SCORE.RESTR>
0

>  <SCORE.RESTR.CAVITY>
0

>  <SCORE.RESTR.norm>
0

>  <SCORE.SYSTEM>
0

>  <SCORE.SYSTEM.CONST>
0

>  <SCORE.SYSTEM.DIHEDRAL>
0

>  <SCORE.SYSTEM.SOLV>
0

>  <SCORE.SYSTEM.norm>
0

>  <SCORE.heavy>
10

>  <SCORE.norm>
-0.210766

>  <RMSD>
25.343

$$$$
ligand
 OpenBabel11021811473D
libRbt.so/2013.1/901 2013/11/27
 10  9  0  0  0  0  0  0  0  0999 V2000
   12.8476   34.7147   30.4561 N   0  0  0  0  0  0  0  0  0  0  0  0
   12.8846   35.9775   29.6658 C   0  0  2  0  0  0  0  0  0  0  0  0
   14.2728   36.2348   29.0968 C   0  0  0  0  0  0  0  0  0  0  0  0
   15.2992   35.9671   29.7233 O   0  0  0  0  0  0  0  0  0  0  0  0
   12.4144   37.1608   30.5088 C   0  0  0  0  0  0  0  0  0  0  0  0
   12.1360   38.3971   29.6854 C   0  0  0  0  0  0  0  0  0  0  0  0
   11.7818   39.5768   30.5510 C   0  0  0  0  0  0  0  0  0  0  0  0
   11.4273   40.7831   29.6995 C   0  0  0  0  0  0  0  0  0  0  0  0
   11.1518   41.9882   30.5245 N   0  0  0  0  0  0  0  0  0  0  0  0
   14.4096   36.6945   27.9620 O   0  0  0  0  0  0  0  0  0  0  0  0
  2  1  1  1  0  0  0
  2  3  1  0  0  0  0
  2  5  1  0  0  0  0
  3  4  1  0  0  0  0
  3 10  1  0  0  0  0
  5  6  1  0  0  0  0
  6  7  1  0  0  0  0
  7  8  1  0  0  0  0
  8  9  1  0  0  0  0
M  END
>  <CHROM.1>
-37.26186312,-167.09704836,-175.41829319,-176.66489548,-176.56322112,12.89814861
37.74392849,29.77143189,0.94926339,-0.66061420,2.87762676

>  <Name>
ligand

>  <RI>
0

>  <Rbt.Current_Directory>
/home/itssahil/PROJECTS/Mol_Feturizer/New_Systems/rnas/3DIX

>  <Rbt.Executable>
rbdock ($Id: //depot/dev/client3/rdock/2013.1/src/exe/rbdock.cxx#4 $)

>  <Rbt.Library>
libRbt.so (2013.1, Build901 2013/11/27)

>  <Rbt.Parameter_File>
/export/apps/rDock/src/rDock_2013.1_src/data/scripts/dock_solv.prm

>  <Rbt.Receptor>
prm/blind_docking_100.prm

>  <SCORE>
-4.41393

>  <SCORE.INTER>
-2.88712

>  <SCORE.INTER.CONST>
1

>  <SCORE.INTER.POLAR>
0

>  <SCORE.INTER.ROT>
5

>  <SCORE.INTER.SOLV>
5.60829

>  <SCORE.INTER.VDW>
-10.7275

>  <SCORE.INTER.norm>
-0.288712

>  <SCORE.INTRA>
-1.52682

>  <SCORE.INTRA.DIHEDRAL>
-0.940202

>  <SCORE.INTRA.DIHEDRAL.0>
3.281

>  <SCORE.INTRA.POLAR>
0

>  <SCORE.INTRA.POLAR.0>
0

>  <SCORE.INTRA.REPUL>
0

>  <SCORE.INTRA.REPUL.0>
0

>  <SCORE.INTRA.SOLV>
-1.56209

>  <SCORE.INTRA.SOLV.lig_0>
-31.9458

>  <SCORE.INTRA.VDW>
-0.275672

>  <SCORE.INTRA.VDW.0>
-0.672612

>  <SCORE.INTRA.norm>
-0.152682

>  <SCORE.RESTR>
0

>  <SCORE.RESTR.CAVITY>
0

>  <SCORE.RESTR.norm>
0

>  <SCORE.SYSTEM>
0

>  <SCORE.SYSTEM.CONST>
0

>  <SCORE.SYSTEM.DIHEDRAL>
0

>  <SCORE.SYSTEM.SOLV>
0

>  <SCORE.SYSTEM.norm>
0

>  <SCORE.heavy>
10

>  <SCORE.norm>
-0.441393

>  <RMSD>
29.469

$$$$
ligand
 OpenBabel11021811473D
libRbt.so/2013.1/901 2013/11/27
 10  9  0  0  0  0  0  0  0  0999 V2000
   11.1405   40.5829   32.6759 N   0  0  0  0  0  0  0  0  0  0  0  0
   11.8394   40.2825   31.3945 C   0  0  2  0  0  0  0  0  0  0  0  0
   11.1373   40.9377   30.2134 C   0  0  0  0  0  0  0  0  0  0  0  0
    9.9673   41.3186   30.2740 O   0  0  0  0  0  0  0  0  0  0  0  0
   11.9658   38.7753   31.1841 C   0  0  0  0  0  0  0  0  0  0  0  0
   12.9421   38.4131   30.0889 C   0  0  0  0  0  0  0  0  0  0  0  0
   13.0412   36.9230   29.8991 C   0  0  0  0  0  0  0  0  0  0  0  0
   14.1310   36.5780   28.8994 C   0  0  0  0  0  0  0  0  0  0  0  0
   14.3236   35.1105   28.7664 N   0  0  0  0  0  0  0  0  0  0  0  0
   11.7408   41.1382   29.1582 O   0  0  0  0  0  0  0  0  0  0  0  0
  2  1  1  1  0  0  0
  2  3  1  0  0  0  0
  2  5  1  0  0  0  0
  3  4  1  0  0  0  0
  3 10  1  0  0  0  0
  5  6  1  0  0  0  0
  6  7  1  0  0  0  0
  7  8  1  0  0  0  0
  8  9  1  0  0  0  0
M  END
>  <CHROM.1>
-19.24040248,-166.19137538,-179.71700542,-174.03643247,175.69220468,12.20272865
39.03172836,30.23265256,-3.09947243,1.04110133,-1.28698398

>  <Name>
ligand

>  <RI>
0

>  <Rbt.Current_Directory>
/home/itssahil/PROJECTS/Mol_Feturizer/New_Systems/rnas/3DIX

>  <Rbt.Executable>
rbdock ($Id: //depot/dev/client3/rdock/2013.1/src/exe/rbdock.cxx#4 $)

>  <Rbt.Library>
libRbt.so (2013.1, Build901 2013/11/27)

>  <Rbt.Parameter_File>
/export/apps/rDock/src/rDock_2013.1_src/data/scripts/dock_solv.prm

>  <Rbt.Receptor>
prm/blind_docking_100.prm

>  <SCORE>
-3.56564

>  <SCORE.INTER>
-2.26564

>  <SCORE.INTER.CONST>
1

>  <SCORE.INTER.POLAR>
0

>  <SCORE.INTER.ROT>
5

>  <SCORE.INTER.SOLV>
5.99662

>  <SCORE.INTER.VDW>
-10.4426

>  <SCORE.INTER.norm>
-0.226564

>  <SCORE.INTRA>
-1.30001

>  <SCORE.INTRA.DIHEDRAL>
-0.814517

>  <SCORE.INTRA.DIHEDRAL.0>
3.281

>  <SCORE.INTRA.POLAR>
0

>  <SCORE.INTRA.POLAR.0>
0

>  <SCORE.INTRA.REPUL>
0

>  <SCORE.INTRA.REPUL.0>
0

>  <SCORE.INTRA.SOLV>
-1.55586

>  <SCORE.INTRA.SOLV.lig_0>
-31.9458

>  <SCORE.INTRA.VDW>
-0.114818

>  <SCORE.INTRA.VDW.0>
-0.672612

>  <SCORE.INTRA.norm>
-0.130001

>  <SCORE.RESTR>
0

>  <SCORE.RESTR.CAVITY>
0

>  <SCORE.RESTR.norm>
0

>  <SCORE.SYSTEM>
0

>  <SCORE.SYSTEM.CONST>
0

>  <SCORE.SYSTEM.DIHEDRAL>
0

>  <SCORE.SYSTEM.SOLV>
0

>  <SCORE.SYSTEM.norm>
0

>  <SCORE.heavy>
10

>  <SCORE.norm>
-0.356564

>  <RMSD>
30.957

$$$$
ligand
 OpenBabel11021811473D
libRbt.so/2013.1/901 2013/11/27
 10  9  0  0  0  0  0  0  0  0999 V2000
   10.6818   40.2896   31.6733 N   0  0  0  0  0  0  0  0  0  0  0  0
   11.4030   40.7028   30.4364 C   0  0  2  0  0  0  0  0  0  0  0  0
   10.5789   41.6856   29.6166 C   0  0  0  0  0  0  0  0  0  0  0  0
    9.3724   41.5293   29.4228 O   0  0  0  0  0  0  0  0  0  0  0  0
   11.7887   39.4854   29.5992 C   0  0  0  0  0  0  0  0  0  0  0  0
   12.7523   38.5632   30.3097 C   0  0  0  0  0  0  0  0  0  0  0  0
   13.0600   37.3381   29.4906 C   0  0  0  0  0  0  0  0  0  0  0  0
   14.0417   36.4360   30.2175 C   0  0  0  0  0  0  0  0  0  0  0  0
   14.3584   35.2112   29.4377 N   0  0  0  0  0  0  0  0  0  0  0  0
   11.0984   42.6982   29.1448 O   0  0  0  0  0  0  0  0  0  0  0  0
  2  1  1  1  0  0  0
  2  3  1  0  0  0  0
  2  5  1  0  0  0  0
  3  4  1  0  0  0  0
  3 10  1  0  0  0  0
  5  6  1  0  0  0  0
  6  7  1  0  0  0  0
  7  8  1  0  0  0  0
  8  9  1  0  0  0  0
M  END
>  <CHROM.1>
-43.40023552,-63.07048302,177.08936624,179.33357153,179.58182960,11.88917122
39.42836801,29.91745605,2.62014744,0.90881401,-0.94849164

>  <Name>
ligand

>  <RI>
0

>  <Rbt.Current_Directory>
/home/itssahil/PROJECTS/Mol_Feturizer/New_Systems/rnas/3DIX

>  <Rbt.Executable>
rbdock ($Id: //depot/dev/client3/rdock/2013.1/src/exe/rbdock.cxx#4 $)

>  <Rbt.Library>
libRbt.so (2013.1, Build901 2013/11/27)

>  <Rbt.Parameter_File>
/export/apps/rDock/src/rDock_2013.1_src/data/scripts/dock_solv.prm

>  <Rbt.Receptor>
prm/blind_docking_100.prm

>  <SCORE>
-6.07945

>  <SCORE.INTER>
-4.72659

>  <SCORE.INTER.CONST>
1

>  <SCORE.INTER.POLAR>
0

>  <SCORE.INTER.ROT>
5

>  <SCORE.INTER.SOLV>
6.35623

>  <SCORE.INTER.VDW>
-12.2031

>  <SCORE.INTER.norm>
-0.472659

>  <SCORE.INTRA>
-1.35287

>  <SCORE.INTRA.DIHEDRAL>
-1.66012

>  <SCORE.INTRA.DIHEDRAL.0>
3.281

>  <SCORE.INTRA.POLAR>
0

>  <SCORE.INTRA.POLAR.0>
0

>  <SCORE.INTRA.REPUL>
0

>  <SCORE.INTRA.REPUL.0>
0

>  <SCORE.INTRA.SOLV>
-0.667557

>  <SCORE.INTRA.SOLV.lig_0>
-31.9458

>  <SCORE.INTRA.VDW>
-0.18903

>  <SCORE.INTRA.VDW.0>
-0.672612

>  <SCORE.INTRA.norm>
-0.135287

>  <SCORE.RESTR>
0

>  <SCORE.RESTR.CAVITY>
0

>  <SCORE.RESTR.norm>
0

>  <SCORE.SYSTEM>
0

>  <SCORE.SYSTEM.CONST>
0

>  <SCORE.SYSTEM.DIHEDRAL>
0

>  <SCORE.SYSTEM.SOLV>
0

>  <SCORE.SYSTEM.norm>
0

>  <SCORE.heavy>
10

>  <SCORE.norm>
-0.607945

>  <RMSD>
31.362

$$$$
ligand
 OpenBabel11021811473D
libRbt.so/2013.1/901 2013/11/27
 10  9  0  0  0  0  0  0  0  0999 V2000
   -3.8914   41.1016   13.2522 N   0  0  0  0  0  0  0  0  0  0  0  0
   -3.9255   40.6844   11.8220 C   0  0  2  0  0  0  0  0  0  0  0  0
   -2.5769   40.8995   11.1496 C   0  0  0  0  0  0  0  0  0  0  0  0
   -2.1923   40.2007   10.2108 O   0  0  0  0  0  0  0  0  0  0  0  0
   -5.0325   41.4175   11.0677 C   0  0  0  0  0  0  0  0  0  0  0  0
   -5.2490   40.8812    9.6715 C   0  0  0  0  0  0  0  0  0  0  0  0
   -5.8476   39.5001    9.6901 C   0  0  0  0  0  0  0  0  0  0  0  0
   -6.0557   38.9835    8.2774 C   0  0  0  0  0  0  0  0  0  0  0  0
   -4.7687   38.6998    7.5905 N   0  0  0  0  0  0  0  0  0  0  0  0
   -1.8356   41.8149   11.5107 O   0  0  0  0  0  0  0  0  0  0  0  0
  2  1  1  1  0  0  0
  2  3  1  0  0  0  0
  2  5  1  0  0  0  0
  3  4  1  0  0  0  0
  3 10  1  0  0  0  0
  5  6  1  0  0  0  0
  6  7  1  0  0  0  0
  7  8  1  0  0  0  0
  8  9  1  0  0  0  0
M  END
>  <CHROM.1>
150.96625173,-171.23728328,69.24546700,179.99035125,69.12951007,-4.10190277
40.42617350,10.41609275,0.97897034,0.09221019,1.09519881

>  <Name>
ligand

>  <RI>
0

>  <Rbt.Current_Directory>
/home/itssahil/PROJECTS/Mol_Feturizer/New_Systems/rnas/3DIX

>  <Rbt.Executable>
rbdock ($Id: //depot/dev/client3/rdock/2013.1/src/exe/rbdock.cxx#4 $)

>  <Rbt.Library>
libRbt.so (2013.1, Build901 2013/11/27)

>  <Rbt.Parameter_File>
/export/apps/rDock/src/rDock_2013.1_src/data/scripts/dock_solv.prm

>  <Rbt.Receptor>
prm/blind_docking_100.prm

>  <SCORE>
-2.72015

>  <SCORE.INTER>
-2.08576

>  <SCORE.INTER.CONST>
1

>  <SCORE.INTER.POLAR>
0

>  <SCORE.INTER.ROT>
5

>  <SCORE.INTER.SOLV>
5.65647

>  <SCORE.INTER.VDW>
-10.2093

>  <SCORE.INTER.norm>
-0.208576

>  <SCORE.INTRA>
-0.634393

>  <SCORE.INTRA.DIHEDRAL>
-0.915983

>  <SCORE.INTRA.DIHEDRAL.0>
3.281

>  <SCORE.INTRA.POLAR>
0

>  <SCORE.INTRA.POLAR.0>
0

>  <SCORE.INTRA.REPUL>
0

>  <SCORE.INTRA.REPUL.0>
0

>  <SCORE.INTRA.SOLV>
-0.401608

>  <SCORE.INTRA.SOLV.lig_0>
-31.9458

>  <SCORE.INTRA.VDW>
0.0244023

>  <SCORE.INTRA.VDW.0>
-0.672612

>  <SCORE.INTRA.norm>
-0.0634393

>  <SCORE.RESTR>
0

>  <SCORE.RESTR.CAVITY>
0

>  <SCORE.RESTR.norm>
0

>  <SCORE.SYSTEM>
0

>  <SCORE.SYSTEM.CONST>
0

>  <SCORE.SYSTEM.DIHEDRAL>
0

>  <SCORE.SYSTEM.SOLV>
0

>  <SCORE.SYSTEM.norm>
0

>  <SCORE.heavy>
10

>  <SCORE.norm>
-0.272015

>  <RMSD>
43.465

$$$$
ligand
 OpenBabel11021811473D
libRbt.so/2013.1/901 2013/11/27
 10  9  0  0  0  0  0  0  0  0999 V2000
   -5.6721   38.0747   10.0355 N   0  0  0  0  0  0  0  0  0  0  0  0
   -6.1025   39.2981    9.3016 C   0  0  2  0  0  0  0  0  0  0  0  0
   -6.0409   39.0909    7.7948 C   0  0  0  0  0  0  0  0  0  0  0  0
   -4.9740   38.9578    7.1934 O   0  0  0  0  0  0  0  0  0  0  0  0
   -5.2662   40.5056    9.7192 C   0  0  0  0  0  0  0  0  0  0  0  0
   -5.4801   40.8996   11.1624 C   0  0  0  0  0  0  0  0  0  0  0  0
   -4.6485   42.0950   11.5443 C   0  0  0  0  0  0  0  0  0  0  0  0
   -4.9343   42.5157   12.9752 C   0  0  0  0  0  0  0  0  0  0  0  0
   -4.6341   41.4323   13.9471 N   0  0  0  0  0  0  0  0  0  0  0  0
   -7.0753   39.0164    7.1297 O   0  0  0  0  0  0  0  0  0  0  0  0
  2  1  1  1  0  0  0
  2  3  1  0  0  0  0
  2  5  1  0  0  0  0
  3  4  1  0  0  0  0
  3 10  1  0  0  0  0
  5  6  1  0  0  0  0
  6  7  1  0  0  0  0
  7  8  1  0  0  0  0
  8  9  1  0  0  0  0
M  END
>  <CHROM.1>
-68.21494218,-65.68709505,-179.74892731,177.04644211,59.84932171,-5.48564713
40.17718667,10.03637786,2.64441897,-1.33650007,-1.02919297

>  <Name>
ligand

>  <RI>
0

>  <Rbt.Current_Directory>
/home/itssahil/PROJECTS/Mol_Feturizer/New_Systems/rnas/3DIX

>  <Rbt.Executable>
rbdock ($Id: //depot/dev/client3/rdock/2013.1/src/exe/rbdock.cxx#4 $)

>  <Rbt.Library>
libRbt.so (2013.1, Build901 2013/11/27)

>  <Rbt.Parameter_File>
/export/apps/rDock/src/rDock_2013.1_src/data/scripts/dock_solv.prm

>  <Rbt.Receptor>
prm/blind_docking_100.prm

>  <SCORE>
-3.30443

>  <SCORE.INTER>
-2.69437

>  <SCORE.INTER.CONST>
1

>  <SCORE.INTER.POLAR>
0

>  <SCORE.INTER.ROT>
5

>  <SCORE.INTER.SOLV>
4.05382

>  <SCORE.INTER.VDW>
-10.0809

>  <SCORE.INTER.norm>
-0.269437

>  <SCORE.INTRA>
-0.610053

>  <SCORE.INTRA.DIHEDRAL>
-1.64796

>  <SCORE.INTRA.DIHEDRAL.0>
3.281

>  <SCORE.INTRA.POLAR>
0

>  <SCORE.INTRA.POLAR.0>
0

>  <SCORE.INTRA.REPUL>
0

>  <SCORE.INTRA.REPUL.0>
0

>  <SCORE.INTRA.SOLV>
0.257186

>  <SCORE.INTRA.SOLV.lig_0>
-31.9458

>  <SCORE.INTRA.VDW>
0.0853355

>  <SCORE.INTRA.VDW.0>
-0.672612

>  <SCORE.INTRA.norm>
-0.0610053

>  <SCORE.RESTR>
0

>  <SCORE.RESTR.CAVITY>
0

>  <SCORE.RESTR.norm>
0

>  <SCORE.SYSTEM>
0

>  <SCORE.SYSTEM.CONST>
0

>  <SCORE.SYSTEM.DIHEDRAL>
0

>  <SCORE.SYSTEM.SOLV>
0

>  <SCORE.SYSTEM.norm>
0

>  <SCORE.heavy>
10

>  <SCORE.norm>
-0.330443

>  <RMSD>
44.698

$$$$
ligand
 OpenBabel11021811473D
libRbt.so/2013.1/901 2013/11/27
 10  9  0  0  0  0  0  0  0  0999 V2000
   -5.8288   41.4619   11.3498 N   0  0  0  0  0  0  0  0  0  0  0  0
   -5.7270   42.0000    9.9639 C   0  0  2  0  0  0  0  0  0  0  0  0
   -6.6728   43.1741    9.7544 C   0  0  0  0  0  0  0  0  0  0  0  0
   -7.8587   43.0175    9.4595 O   0  0  0  0  0  0  0  0  0  0  0  0
   -5.9857   40.9027    8.9339 C   0  0  0  0  0  0  0  0  0  0  0  0
   -4.9150   39.8362    8.9277 C   0  0  0  0  0  0  0  0  0  0  0  0
   -5.1416   38.8233    7.8373 C   0  0  0  0  0  0  0  0  0  0  0  0
   -4.0259   37.7934    7.8176 C   0  0  0  0  0  0  0  0  0  0  0  0
   -4.2111   36.7889    6.7381 N   0  0  0  0  0  0  0  0  0  0  0  0
   -6.2792   44.3312    9.9093 O   0  0  0  0  0  0  0  0  0  0  0  0
  2  1  1  1  0  0  0
  2  3  1  0  0  0  0
  2  5  1  0  0  0  0
  3  4  1  0  0  0  0
  3 10  1  0  0  0  0
  5  6  1  0  0  0  0
  6  7  1  0  0  0  0
  7  8  1  0  0  0  0
  8  9  1  0  0  0  0
M  END
>  <CHROM.1>
-83.95123174,-66.61721170,-175.83008973,177.84699137,-179.20219222,-5.68919060
40.85118547,9.07018424,-2.18753716,0.91019496,-2.20579949

>  <Name>
ligand

>  <RI>
0

>  <Rbt.Current_Directory>
/home/itssahil/PROJECTS/Mol_Feturizer/New_Systems/rnas/3DIX

>  <Rbt.Executable>
rbdock ($Id: //depot/dev/client3/rdock/2013.1/src/exe/rbdock.cxx#4 $)

>  <Rbt.Library>
libRbt.so (2013.1, Build901 2013/11/27)

>  <Rbt.Parameter_File>
/export/apps/rDock/src/rDock_2013.1_src/data/scripts/dock_solv.prm

>  <Rbt.Receptor>
prm/blind_docking_60.prm

>  <SCORE>
-6.90142

>  <SCORE.INTER>
-5.81032

>  <SCORE.INTER.CONST>
1

>  <SCORE.INTER.POLAR>
0

>  <SCORE.INTER.ROT>
5

>  <SCORE.INTER.SOLV>
5.575

>  <SCORE.INTER.VDW>
-12.6652

>  <SCORE.INTER.norm>
-0.581032

>  <SCORE.INTRA>
-1.0911

>  <SCORE.INTRA.DIHEDRAL>
-1.57692

>  <SCORE.INTRA.DIHEDRAL.0>
3.281

>  <SCORE.INTRA.POLAR>
0

>  <SCORE.INTRA.POLAR.0>
0

>  <SCORE.INTRA.REPUL>
0

>  <SCORE.INTRA.REPUL.0>
0

>  <SCORE.INTRA.SOLV>
-0.757058

>  <SCORE.INTRA.SOLV.lig_0>
-31.9458

>  <SCORE.INTRA.VDW>
0.0758865

>  <SCORE.INTRA.VDW.0>
-0.672612

>  <SCORE.INTRA.norm>
-0.10911

>  <SCORE.RESTR>
0

>  <SCORE.RESTR.CAVITY>
0

>  <SCORE.RESTR.norm>
0

>  <SCORE.SYSTEM>
0

>  <SCORE.SYSTEM.CONST>
0

>  <SCORE.SYSTEM.DIHEDRAL>
0

>  <SCORE.SYSTEM.SOLV>
0

>  <SCORE.SYSTEM.norm>
0

>  <SCORE.heavy>
10

>  <SCORE.norm>
-0.690142

>  <RMSD>
45.345

$$$$
ligand
 OpenBabel11021811473D
libRbt.so/2013.1/901 2013/11/27
 10  9  0  0  0  0  0  0  0  0999 V2000
   -5.8578   41.5607   11.4753 N   0  0  0  0  0  0  0  0  0  0  0  0
   -5.7467   42.0934   10.0880 C   0  0  2  0  0  0  0  0  0  0  0  0
   -6.6952   43.2630    9.8658 C   0  0  0  0  0  0  0  0  0  0  0  0
   -7.9009   43.1027    9.6706 O   0  0  0  0  0  0  0  0  0  0  0  0
   -5.9928   40.9908    9.0605 C   0  0  0  0  0  0  0  0  0  0  0  0
   -4.9197   39.9267    9.0698 C   0  0  0  0  0  0  0  0  0  0  0  0
   -5.1403   38.9013    7.9899 C   0  0  0  0  0  0  0  0  0  0  0  0
   -4.0266   37.8691    7.9907 C   0  0  0  0  0  0  0  0  0  0  0  0
   -4.2145   36.8429    6.9323 N   0  0  0  0  0  0  0  0  0  0  0  0
   -6.2811   44.4225    9.9091 O   0  0  0  0  0  0  0  0  0  0  0  0
  2  1  1  1  0  0  0
  2  3  1  0  0  0  0
  2  5  1  0  0  0  0
  3  4  1  0  0  0  0
  3 10  1  0  0  0  0
  5  6  1  0  0  0  0
  6  7  1  0  0  0  0
  7  8  1  0  0  0  0
  8  9  1  0  0  0  0
M  END
>  <CHROM.1>
-77.84134602,-66.48386688,-176.35650692,178.17933154,-179.88001133,-5.70222726
40.93556380,9.20578553,-2.22303224,0.93693502,-2.17701167

>  <Name>
ligand

>  <RI>
0

>  <Rbt.Current_Directory>
/home/itssahil/PROJECTS/Mol_Feturizer/New_Systems/rnas/3DIX

>  <Rbt.Executable>
rbdock ($Id: //depot/dev/client3/rdock/2013.1/src/exe/rbdock.cxx#4 $)

>  <Rbt.Library>
libRbt.so (2013.1, Build901 2013/11/27)

>  <Rbt.Parameter_File>
/export/apps/rDock/src/rDock_2013.1_src/data/scripts/dock_solv.prm

>  <Rbt.Receptor>
prm/blind_docking_100.prm

>  <SCORE>
-6.90299

>  <SCORE.INTER>
-5.72138

>  <SCORE.INTER.CONST>
1

>  <SCORE.INTER.POLAR>
0

>  <SCORE.INTER.ROT>
5

>  <SCORE.INTER.SOLV>
5.42549

>  <SCORE.INTER.VDW>
-12.5561

>  <SCORE.INTER.norm>
-0.572138

>  <SCORE.INTRA>
-1.18161

>  <SCORE.INTRA.DIHEDRAL>
-1.60063

>  <SCORE.INTRA.DIHEDRAL.0>
3.281

>  <SCORE.INTRA.POLAR>
0

>  <SCORE.INTRA.POLAR.0>
0

>  <SCORE.INTRA.REPUL>
0

>  <SCORE.INTRA.REPUL.0>
0

>  <SCORE.INTRA.SOLV>
-0.752862

>  <SCORE.INTRA.SOLV.lig_0>
-31.9458

>  <SCORE.INTRA.VDW>
-0.00486941

>  <SCORE.INTRA.VDW.0>
-0.672612

>  <SCORE.INTRA.norm>
-0.118161

>  <SCORE.RESTR>
0

>  <SCORE.RESTR.CAVITY>
0

>  <SCORE.RESTR.norm>
0

>  <SCORE.SYSTEM>
0

>  <SCORE.SYSTEM.CONST>
0

>  <SCORE.SYSTEM.DIHEDRAL>
0

>  <SCORE.SYSTEM.SOLV>
0

>  <SCORE.SYSTEM.norm>
0

>  <SCORE.heavy>
10

>  <SCORE.norm>
-0.690299

>  <RMSD>
45.367

$$$$
ligand
 OpenBabel11021811473D
libRbt.so/2013.1/901 2013/11/27
 10  9  0  0  0  0  0  0  0  0999 V2000
   -5.8598   41.5548   11.4626 N   0  0  0  0  0  0  0  0  0  0  0  0
   -5.7477   42.0849   10.0744 C   0  0  2  0  0  0  0  0  0  0  0  0
   -6.6855   43.2634    9.8539 C   0  0  0  0  0  0  0  0  0  0  0  0
   -7.8937   43.1146    9.6645 O   0  0  0  0  0  0  0  0  0  0  0  0
   -6.0076   40.9836    9.0489 C   0  0  0  0  0  0  0  0  0  0  0  0
   -4.9422   39.9118    9.0527 C   0  0  0  0  0  0  0  0  0  0  0  0
   -5.1651   38.8987    7.9618 C   0  0  0  0  0  0  0  0  0  0  0  0
   -4.0484   37.8698    7.9450 C   0  0  0  0  0  0  0  0  0  0  0  0
   -4.2048   36.8929    6.8360 N   0  0  0  0  0  0  0  0  0  0  0  0
   -6.2598   44.4188    9.8925 O   0  0  0  0  0  0  0  0  0  0  0  0
  2  1  1  1  0  0  0
  2  3  1  0  0  0  0
  2  5  1  0  0  0  0
  3  4  1  0  0  0  0
  3 10  1  0  0  0  0
  5  6  1  0  0  0  0
  6  7  1  0  0  0  0
  7  8  1  0  0  0  0
  8  9  1  0  0  0  0
M  END
>  <CHROM.1>
-77.72671046,-66.68962891,-175.52173583,177.37772553,-177.22902055,-5.70584528
40.93772792,9.17995438,-2.23492851,0.95358396,-2.15143640

>  <Name>
ligand

>  <RI>
0

>  <Rbt.Current_Directory>
/home/itssahil/PROJECTS/Mol_Feturizer/New_Systems/rnas/3DIX

>  <Rbt.Executable>
rbdock ($Id: //depot/dev/client3/rdock/2013.1/src/exe/rbdock.cxx#4 $)

>  <Rbt.Library>
libRbt.so (2013.1, Build901 2013/11/27)

>  <Rbt.Parameter_File>
/export/apps/rDock/src/rDock_2013.1_src/data/scripts/dock_solv.prm

>  <Rbt.Receptor>
prm/blind_docking_100.prm

>  <SCORE>
-6.87783

>  <SCORE.INTER>
-5.73163

>  <SCORE.INTER.CONST>
1

>  <SCORE.INTER.POLAR>
0

>  <SCORE.INTER.ROT>
5

>  <SCORE.INTER.SOLV>
5.60031

>  <SCORE.INTER.VDW>
-12.6212

>  <SCORE.INTER.norm>
-0.573163

>  <SCORE.INTRA>
-1.14619

>  <SCORE.INTRA.DIHEDRAL>
-1.51742

>  <SCORE.INTRA.DIHEDRAL.0>
3.281

>  <SCORE.INTRA.POLAR>
0

>  <SCORE.INTRA.POLAR.0>
0

>  <SCORE.INTRA.REPUL>
0

>  <SCORE.INTRA.REPUL.0>
0

>  <SCORE.INTRA.SOLV>
-0.758804

>  <SCORE.INTRA.SOLV.lig_0>
-31.9458

>  <SCORE.INTRA.VDW>
-0.00808244

>  <SCORE.INTRA.VDW.0>
-0.672612

>  <SCORE.INTRA.norm>
-0.114619

>  <SCORE.RESTR>
0

>  <SCORE.RESTR.CAVITY>
0

>  <SCORE.RESTR.norm>
0

>  <SCORE.SYSTEM>
0

>  <SCORE.SYSTEM.CONST>
0

>  <SCORE.SYSTEM.DIHEDRAL>
0

>  <SCORE.SYSTEM.SOLV>
0

>  <SCORE.SYSTEM.norm>
0

>  <SCORE.heavy>
10

>  <SCORE.norm>
-0.687783

>  <RMSD>
45.377

$$$$
ligand
 OpenBabel11021811473D
libRbt.so/2013.1/901 2013/11/27
 10  9  0  0  0  0  0  0  0  0999 V2000
   -5.8123   41.5090   11.3970 N   0  0  0  0  0  0  0  0  0  0  0  0
   -5.7501   42.0619   10.0146 C   0  0  2  0  0  0  0  0  0  0  0  0
   -6.6793   43.2567    9.8533 C   0  0  0  0  0  0  0  0  0  0  0  0
   -6.2668   44.4173    9.8774 O   0  0  0  0  0  0  0  0  0  0  0  0
   -6.0677   40.9825    8.9822 C   0  0  0  0  0  0  0  0  0  0  0  0
   -5.0424   39.8726    8.9557 C   0  0  0  0  0  0  0  0  0  0  0  0
   -5.3186   38.8830    7.8554 C   0  0  0  0  0  0  0  0  0  0  0  0
   -4.2436   37.8113    7.8117 C   0  0  0  0  0  0  0  0  0  0  0  0
   -4.4780   36.8283    6.7220 N   0  0  0  0  0  0  0  0  0  0  0  0
   -7.8844   43.0915    9.6579 O   0  0  0  0  0  0  0  0  0  0  0  0
  2  1  1  1  0  0  0
  2  3  1  0  0  0  0
  2  5  1  0  0  0  0
  3  4  1  0  0  0  0
  3 10  1  0  0  0  0
  5  6  1  0  0  0  0
  6  7  1  0  0  0  0
  7  8  1  0  0  0  0
  8  9  1  0  0  0  0
M  END
>  <CHROM.1>
101.07264392,-64.76515850,-175.34229146,177.60205464,-179.20545722,-5.77826796
40.90991377,9.11402765,-2.14755763,0.93976405,-2.22437762

>  <Name>
ligand

>  <RI>
0

>  <Rbt.Current_Directory>
/home/itssahil/PROJECTS/Mol_Feturizer/New_Systems/rnas/3DIX

>  <Rbt.Executable>
rbdock ($Id: //depot/dev/client3/rdock/2013.1/src/exe/rbdock.cxx#4 $)

>  <Rbt.Library>
libRbt.so (2013.1, Build901 2013/11/27)

>  <Rbt.Parameter_File>
/export/apps/rDock/src/rDock_2013.1_src/data/scripts/dock_solv.prm

>  <Rbt.Receptor>
prm/blind_docking_100.prm

>  <SCORE>
-6.78047

>  <SCORE.INTER>
-5.76594

>  <SCORE.INTER.CONST>
1

>  <SCORE.INTER.POLAR>
0

>  <SCORE.INTER.ROT>
5

>  <SCORE.INTER.SOLV>
6.45527

>  <SCORE.INTER.VDW>
-12.929

>  <SCORE.INTER.norm>
-0.576594

>  <SCORE.INTRA>
-1.01453

>  <SCORE.INTRA.DIHEDRAL>
-1.51376

>  <SCORE.INTRA.DIHEDRAL.0>
3.281

>  <SCORE.INTRA.POLAR>
0

>  <SCORE.INTRA.POLAR.0>
0

>  <SCORE.INTRA.REPUL>
0

>  <SCORE.INTRA.REPUL.0>
0

>  <SCORE.INTRA.SOLV>
-0.74894

>  <SCORE.INTRA.SOLV.lig_0>
-31.9458

>  <SCORE.INTRA.VDW>
0.116814

>  <SCORE.INTRA.VDW.0>
-0.672612

>  <SCORE.INTRA.norm>
-0.101453

>  <SCORE.RESTR>
0

>  <SCORE.RESTR.CAVITY>
0

>  <SCORE.RESTR.norm>
0

>  <SCORE.SYSTEM>
0

>  <SCORE.SYSTEM.CONST>
0

>  <SCORE.SYSTEM.DIHEDRAL>
0

>  <SCORE.SYSTEM.SOLV>
0

>  <SCORE.SYSTEM.norm>
0

>  <SCORE.heavy>
10

>  <SCORE.norm>
-0.678047

>  <RMSD>
45.431

$$$$
ligand
 OpenBabel11021811473D
libRbt.so/2013.1/901 2013/11/27
 10  9  0  0  0  0  0  0  0  0999 V2000
   -5.8659   41.5083   11.4753 N   0  0  0  0  0  0  0  0  0  0  0  0
   -5.7675   42.1408   10.1296 C   0  0  2  0  0  0  0  0  0  0  0  0
   -6.6650   43.3659   10.0261 C   0  0  0  0  0  0  0  0  0  0  0  0
   -7.8925   43.2886   10.0978 O   0  0  0  0  0  0  0  0  0  0  0  0
   -6.0938   41.1330    9.0297 C   0  0  0  0  0  0  0  0  0  0  0  0
   -5.1224   39.9762    8.9835 C   0  0  0  0  0  0  0  0  0  0  0  0
   -5.4312   39.0322    7.8523 C   0  0  0  0  0  0  0  0  0  0  0  0
   -4.3941   37.9256    7.7751 C   0  0  0  0  0  0  0  0  0  0  0  0
   -3.0469   38.4453    7.4236 N   0  0  0  0  0  0  0  0  0  0  0  0
   -6.1782   44.4904    9.8989 O   0  0  0  0  0  0  0  0  0  0  0  0
  2  1  1  1  0  0  0
  2  3  1  0  0  0  0
  2  5  1  0  0  0  0
  3  4  1  0  0  0  0
  3 10  1  0  0  0  0
  5  6  1  0  0  0  0
  6  7  1  0  0  0  0
  7  8  1  0  0  0  0
  8  9  1  0  0  0  0
M  END
>  <CHROM.1>
-64.51941347,-62.76637573,-177.43323501,176.58661443,-65.36111636,-5.66950792
41.16897058,9.27259001,2.86705582,1.11817488,-0.80965024

>  <Name>
ligand

>  <RI>
0

>  <Rbt.Current_Directory>
/home/itssahil/PROJECTS/Mol_Feturizer/New_Systems/rnas/3DIX

>  <Rbt.Executable>
rbdock ($Id: //depot/dev/client3/rdock/2013.1/src/exe/rbdock.cxx#4 $)

>  <Rbt.Library>
libRbt.so (2013.1, Build901 2013/11/27)

>  <Rbt.Parameter_File>
/export/apps/rDock/src/rDock_2013.1_src/data/scripts/dock_solv.prm

>  <Rbt.Receptor>
prm/blind_docking_60.prm

>  <SCORE>
-6.5194

>  <SCORE.INTER>
-5.85454

>  <SCORE.INTER.CONST>
1

>  <SCORE.INTER.POLAR>
0

>  <SCORE.INTER.ROT>
5

>  <SCORE.INTER.SOLV>
4.9518

>  <SCORE.INTER.VDW>
-12.487

>  <SCORE.INTER.norm>
-0.585454

>  <SCORE.INTRA>
-0.664853

>  <SCORE.INTRA.DIHEDRAL>
-1.59116

>  <SCORE.INTRA.DIHEDRAL.0>
3.281

>  <SCORE.INTRA.POLAR>
0

>  <SCORE.INTRA.POLAR.0>
0

>  <SCORE.INTRA.REPUL>
0

>  <SCORE.INTRA.REPUL.0>
0

>  <SCORE.INTRA.SOLV>
0.241231

>  <SCORE.INTRA.SOLV.lig_0>
-31.9458

>  <SCORE.INTRA.VDW>
0.0101134

>  <SCORE.INTRA.VDW.0>
-0.672612

>  <SCORE.INTRA.norm>
-0.0664853

>  <SCORE.RESTR>
0

>  <SCORE.RESTR.CAVITY>
0

>  <SCORE.RESTR.norm>
0

>  <SCORE.SYSTEM>
0

>  <SCORE.SYSTEM.CONST>
0

>  <SCORE.SYSTEM.DIHEDRAL>
0

>  <SCORE.SYSTEM.SOLV>
0

>  <SCORE.SYSTEM.norm>
0

>  <SCORE.heavy>
10

>  <SCORE.norm>
-0.65194

>  <RMSD>
45.454

$$$$
ligand
 OpenBabel11021811473D
libRbt.so/2013.1/901 2013/11/27
 10  9  0  0  0  0  0  0  0  0999 V2000
    1.2587   48.8945    2.8664 N   0  0  0  0  0  0  0  0  0  0  0  0
    0.5148   47.7344    2.2997 C   0  0  2  0  0  0  0  0  0  0  0  0
    1.2666   46.4302    2.5255 C   0  0  0  0  0  0  0  0  0  0  0  0
    2.2850   46.1418    1.8952 O   0  0  0  0  0  0  0  0  0  0  0  0
    0.2262   47.9459    0.8151 C   0  0  0  0  0  0  0  0  0  0  0  0
   -0.9857   47.1809    0.3357 C   0  0  0  0  0  0  0  0  0  0  0  0
   -2.2683   47.8205    0.7963 C   0  0  0  0  0  0  0  0  0  0  0  0
   -3.4671   47.1585    0.1400 C   0  0  0  0  0  0  0  0  0  0  0  0
   -4.7398   47.8493    0.4741 N   0  0  0  0  0  0  0  0  0  0  0  0
    0.8891   45.6295    3.3823 O   0  0  0  0  0  0  0  0  0  0  0  0
  2  1  1  6  0  0  0
  2  3  1  0  0  0  0
  2  5  1  0  0  0  0
  3  4  1  0  0  0  0
  3 10  1  0  0  0  0
  5  6  1  0  0  0  0
  6  7  1  0  0  0  0
  7  8  1  0  0  0  0
  8  9  1  0  0  0  0
M  END
>  <CHROM.1>
-73.03610811,-154.43396945,74.93371138,171.74446650,-174.60027620,-0.47580846
47.24815872,1.56412038,-0.21311951,-0.37830952,-0.15526224

>  <Name>
ligand

>  <RI>
0

>  <Rbt.Current_Directory>
/home/itssahil/PROJECTS/Mol_Feturizer/New_Systems/rnas/3DIX

>  <Rbt.Executable>
rbdock ($Id: //depot/dev/client3/rdock/2013.1/src/exe/rbdock.cxx#4 $)

>  <Rbt.Library>
libRbt.so (2013.1, Build901 2013/11/27)

>  <Rbt.Parameter_File>
/export/apps/rDock/src/rDock_2013.1_src/data/scripts/dock_solv.prm

>  <Rbt.Receptor>
prm/blind_docking_100.prm

>  <SCORE>
-5.03766

>  <SCORE.INTER>
-5.19978

>  <SCORE.INTER.CONST>
1

>  <SCORE.INTER.POLAR>
0

>  <SCORE.INTER.ROT>
5

>  <SCORE.INTER.SOLV>
5.60251

>  <SCORE.INTER.VDW>
-12.2674

>  <SCORE.INTER.norm>
-0.519978

>  <SCORE.INTRA>
0.162124

>  <SCORE.INTRA.DIHEDRAL>
1.62839

>  <SCORE.INTRA.DIHEDRAL.0>
3.281

>  <SCORE.INTRA.POLAR>
0

>  <SCORE.INTRA.POLAR.0>
0

>  <SCORE.INTRA.REPUL>
0

>  <SCORE.INTRA.REPUL.0>
0

>  <SCORE.INTRA.SOLV>
-1.15839

>  <SCORE.INTRA.SOLV.lig_0>
-31.9458

>  <SCORE.INTRA.VDW>
-0.0728754

>  <SCORE.INTRA.VDW.0>
-0.672612

>  <SCORE.INTRA.norm>
0.0162124

>  <SCORE.RESTR>
0

>  <SCORE.RESTR.CAVITY>
0

>  <SCORE.RESTR.norm>
0

>  <SCORE.SYSTEM>
0

>  <SCORE.SYSTEM.CONST>
0

>  <SCORE.SYSTEM.DIHEDRAL>
0

>  <SCORE.SYSTEM.SOLV>
0

>  <SCORE.SYSTEM.norm>
0

>  <SCORE.heavy>
10

>  <SCORE.norm>
-0.503766

>  <RMSD>
47.850

$$$$
ligand
 OpenBabel11021811473D
libRbt.so/2013.1/901 2013/11/27
 10  9  0  0  0  0  0  0  0  0999 V2000
    0.4744   48.9142    2.7361 N   0  0  0  0  0  0  0  0  0  0  0  0
    0.2484   47.4424    2.6776 C   0  0  2  0  0  0  0  0  0  0  0  0
    1.5285   46.6730    2.9714 C   0  0  0  0  0  0  0  0  0  0  0  0
    1.6572   45.9719    3.9762 O   0  0  0  0  0  0  0  0  0  0  0  0
   -0.3332   47.0347    1.3258 C   0  0  0  0  0  0  0  0  0  0  0  0
   -1.7740   47.4567    1.1528 C   0  0  0  0  0  0  0  0  0  0  0  0
   -2.3546   46.9459   -0.1388 C   0  0  0  0  0  0  0  0  0  0  0  0
   -3.8263   47.3041   -0.2474 C   0  0  0  0  0  0  0  0  0  0  0  0
   -4.0377   48.7704   -0.3650 N   0  0  0  0  0  0  0  0  0  0  0  0
    2.4740   46.7049    2.1822 O   0  0  0  0  0  0  0  0  0  0  0  0
  2  1  1  6  0  0  0
  2  3  1  0  0  0  0
  2  5  1  0  0  0  0
  3  4  1  0  0  0  0
  3 10  1  0  0  0  0
  5  6  1  0  0  0  0
  6  7  1  0  0  0  0
  7  8  1  0  0  0  0
  8  9  1  0  0  0  0
M  END
>  <CHROM.1>
113.96832153,-72.02457758,-175.36978178,176.27284669,66.47875252,-0.55595905
47.30231925,1.64111121,-0.00345065,-0.58359853,0.31145907

>  <Name>
ligand

>  <RI>
0

>  <Rbt.Current_Directory>
/home/itssahil/PROJECTS/Mol_Feturizer/New_Systems/rnas/3DIX

>  <Rbt.Executable>
rbdock ($Id: //depot/dev/client3/rdock/2013.1/src/exe/rbdock.cxx#4 $)

>  <Rbt.Library>
libRbt.so (2013.1, Build901 2013/11/27)

>  <Rbt.Parameter_File>
/export/apps/rDock/src/rDock_2013.1_src/data/scripts/dock_solv.prm

>  <Rbt.Receptor>
prm/blind_docking_80.prm

>  <SCORE>
-6.48256

>  <SCORE.INTER>
-6.05437

>  <SCORE.INTER.CONST>
1

>  <SCORE.INTER.POLAR>
0

>  <SCORE.INTER.ROT>
5

>  <SCORE.INTER.SOLV>
4.36419

>  <SCORE.INTER.VDW>
-12.4243

>  <SCORE.INTER.norm>
-0.605437

>  <SCORE.INTRA>
-0.430134

>  <SCORE.INTRA.DIHEDRAL>
-0.88149

>  <SCORE.INTRA.DIHEDRAL.0>
3.281

>  <SCORE.INTRA.POLAR>
0

>  <SCORE.INTRA.POLAR.0>
0

>  <SCORE.INTRA.REPUL>
0

>  <SCORE.INTRA.REPUL.0>
0

>  <SCORE.INTRA.SOLV>
0.0423776

>  <SCORE.INTRA.SOLV.lig_0>
-31.9458

>  <SCORE.INTRA.VDW>
-0.0105782

>  <SCORE.INTRA.VDW.0>
-0.672612

>  <SCORE.INTRA.norm>
-0.0430134

>  <SCORE.RESTR>
0.00194314

>  <SCORE.RESTR.CAVITY>
0.00194314

>  <SCORE.RESTR.norm>
0.000194314

>  <SCORE.SYSTEM>
0

>  <SCORE.SYSTEM.CONST>
0

>  <SCORE.SYSTEM.DIHEDRAL>
0

>  <SCORE.SYSTEM.SOLV>
0

>  <SCORE.SYSTEM.norm>
0

>  <SCORE.heavy>
10

>  <SCORE.norm>
-0.648256

>  <RMSD>
47.909

$$$$
ligand
 OpenBabel11021811473D
libRbt.so/2013.1/901 2013/11/27
 10  9  0  0  0  0  0  0  0  0999 V2000
    1.6989   49.1962    2.7502 N   0  0  0  0  0  0  0  0  0  0  0  0
    0.8479   48.0853    3.2624 C   0  0  2  0  0  0  0  0  0  0  0  0
    1.5065   46.7321    3.0339 C   0  0  0  0  0  0  0  0  0  0  0  0
    2.2972   46.5342    2.1102 O   0  0  0  0  0  0  0  0  0  0  0  0
   -0.5412   48.1279    2.6295 C   0  0  0  0  0  0  0  0  0  0  0  0
   -1.3046   49.3873    2.9684 C   0  0  0  0  0  0  0  0  0  0  0  0
   -2.7328   49.3188    2.4974 C   0  0  0  0  0  0  0  0  0  0  0  0
   -3.5105   50.5404    2.9544 C   0  0  0  0  0  0  0  0  0  0  0  0
   -4.9299   50.4958    2.5162 N   0  0  0  0  0  0  0  0  0  0  0  0
    1.2882   45.7917    3.7994 O   0  0  0  0  0  0  0  0  0  0  0  0
  2  1  1  6  0  0  0
  2  3  1  0  0  0  0
  2  5  1  0  0  0  0
  3  4  1  0  0  0  0
  3 10  1  0  0  0  0
  5  6  1  0  0  0  0
  6  7  1  0  0  0  0
  7  8  1  0  0  0  0
  8  9  1  0  0  0  0
M  END
>  <CHROM.1>
-27.56906557,-62.70277016,-171.95877147,175.05244488,-179.41926667,-0.51165362
48.38396032,2.84959981,-0.55247318,0.07225774,-0.19245000

>  <Name>
ligand

>  <RI>
0

>  <Rbt.Current_Directory>
/home/itssahil/PROJECTS/Mol_Feturizer/New_Systems/rnas/3DIX

>  <Rbt.Executable>
rbdock ($Id: //depot/dev/client3/rdock/2013.1/src/exe/rbdock.cxx#4 $)

>  <Rbt.Library>
libRbt.so (2013.1, Build901 2013/11/27)

>  <Rbt.Parameter_File>
/export/apps/rDock/src/rDock_2013.1_src/data/scripts/dock_solv.prm

>  <Rbt.Receptor>
prm/blind_docking_60.prm

>  <SCORE>
-6.81692

>  <SCORE.INTER>
-5.65662

>  <SCORE.INTER.CONST>
1

>  <SCORE.INTER.POLAR>
0

>  <SCORE.INTER.ROT>
5

>  <SCORE.INTER.SOLV>
8.09902

>  <SCORE.INTER.VDW>
-13.4041

>  <SCORE.INTER.norm>
-0.565662

>  <SCORE.INTRA>
-1.1603

>  <SCORE.INTRA.DIHEDRAL>
-1.31671

>  <SCORE.INTRA.DIHEDRAL.0>
3.281

>  <SCORE.INTRA.POLAR>
0

>  <SCORE.INTRA.POLAR.0>
0

>  <SCORE.INTRA.REPUL>
0

>  <SCORE.INTRA.REPUL.0>
0

>  <SCORE.INTRA.SOLV>
-0.707629

>  <SCORE.INTRA.SOLV.lig_0>
-31.9458

>  <SCORE.INTRA.VDW>
-0.148127

>  <SCORE.INTRA.VDW.0>
-0.672612

>  <SCORE.INTRA.norm>
-0.11603

>  <SCORE.RESTR>
0

>  <SCORE.RESTR.CAVITY>
0

>  <SCORE.RESTR.norm>
0

>  <SCORE.SYSTEM>
0

>  <SCORE.SYSTEM.CONST>
0

>  <SCORE.SYSTEM.DIHEDRAL>
0

>  <SCORE.SYSTEM.SOLV>
0

>  <SCORE.SYSTEM.norm>
0

>  <SCORE.heavy>
10

>  <SCORE.norm>
-0.681692

>  <RMSD>
48.156

$$$$
ligand
 OpenBabel11021811473D
libRbt.so/2013.1/901 2013/11/27
 10  9  0  0  0  0  0  0  0  0999 V2000
   -3.6911   47.1765   -1.0849 N   0  0  0  0  0  0  0  0  0  0  0  0
   -3.0959   47.0488    0.2752 C   0  0  2  0  0  0  0  0  0  0  0  0
   -3.6953   48.0624    1.2398 C   0  0  0  0  0  0  0  0  0  0  0  0
   -3.3495   49.2448    1.2483 O   0  0  0  0  0  0  0  0  0  0  0  0
   -1.5760   47.1843    0.2189 C   0  0  0  0  0  0  0  0  0  0  0  0
   -0.9209   47.0394    1.5730 C   0  0  0  0  0  0  0  0  0  0  0  0
    0.5752   47.1828    1.4881 C   0  0  0  0  0  0  0  0  0  0  0  0
    1.2054   47.0842    2.8662 C   0  0  0  0  0  0  0  0  0  0  0  0
    0.8059   48.2134    3.7459 N   0  0  0  0  0  0  0  0  0  0  0  0
   -4.5809   47.7291    2.0288 O   0  0  0  0  0  0  0  0  0  0  0  0
  2  1  1  6  0  0  0
  2  3  1  0  0  0  0
  2  5  1  0  0  0  0
  3  4  1  0  0  0  0
  3 10  1  0  0  0  0
  5  6  1  0  0  0  0
  6  7  1  0  0  0  0
  7  8  1  0  0  0  0
  8  9  1  0  0  0  0
M  END
>  <CHROM.1>
-78.44049390,-179.06003921,-179.76943480,177.92679185,-65.31086739,-1.85641846
47.61870126,1.37718954,-2.78218357,-0.25565883,1.12397780

>  <Name>
ligand

>  <RI>
0

>  <Rbt.Current_Directory>
/home/itssahil/PROJECTS/Mol_Feturizer/New_Systems/rnas/3DIX

>  <Rbt.Executable>
rbdock ($Id: //depot/dev/client3/rdock/2013.1/src/exe/rbdock.cxx#4 $)

>  <Rbt.Library>
libRbt.so (2013.1, Build901 2013/11/27)

>  <Rbt.Parameter_File>
/export/apps/rDock/src/rDock_2013.1_src/data/scripts/dock_solv.prm

>  <Rbt.Receptor>
prm/blind_docking_100.prm

>  <SCORE>
-2.49384

>  <SCORE.INTER>
-1.60893

>  <SCORE.INTER.CONST>
1

>  <SCORE.INTER.POLAR>
0

>  <SCORE.INTER.ROT>
5

>  <SCORE.INTER.SOLV>
10.9156

>  <SCORE.INTER.VDW>
-11.6445

>  <SCORE.INTER.norm>
-0.160893

>  <SCORE.INTRA>
-0.884905

>  <SCORE.INTRA.DIHEDRAL>
-1.72339

>  <SCORE.INTRA.DIHEDRAL.0>
3.281

>  <SCORE.INTRA.POLAR>
0

>  <SCORE.INTRA.POLAR.0>
0

>  <SCORE.INTRA.REPUL>
0

>  <SCORE.INTRA.REPUL.0>
0

>  <SCORE.INTRA.SOLV>
-0.653407

>  <SCORE.INTRA.SOLV.lig_0>
-31.9458

>  <SCORE.INTRA.VDW>
0.303495

>  <SCORE.INTRA.VDW.0>
-0.672612

>  <SCORE.INTRA.norm>
-0.0884905

>  <SCORE.RESTR>
0

>  <SCORE.RESTR.CAVITY>
0

>  <SCORE.RESTR.norm>
0

>  <SCORE.SYSTEM>
0

>  <SCORE.SYSTEM.CONST>
0

>  <SCORE.SYSTEM.DIHEDRAL>
0

>  <SCORE.SYSTEM.SOLV>
0

>  <SCORE.SYSTEM.norm>
0

>  <SCORE.heavy>
10

>  <SCORE.norm>
-0.249384

>  <RMSD>
49.184

$$$$
ligand
 OpenBabel11021811473D
libRbt.so/2013.1/901 2013/11/27
 10  9  0  0  0  0  0  0  0  0999 V2000
   -3.0895   49.0816   -0.0900 N   0  0  0  0  0  0  0  0  0  0  0  0
   -2.8438   47.6681   -0.4927 C   0  0  2  0  0  0  0  0  0  0  0  0
   -4.1359   46.9762   -0.9035 C   0  0  0  0  0  0  0  0  0  0  0  0
   -5.0250   46.7108   -0.0930 O   0  0  0  0  0  0  0  0  0  0  0  0
   -2.1459   46.8973    0.6256 C   0  0  0  0  0  0  0  0  0  0  0  0
   -0.7663   47.4302    0.9364 C   0  0  0  0  0  0  0  0  0  0  0  0
   -0.1823   46.7862    2.1654 C   0  0  0  0  0  0  0  0  0  0  0  0
    1.2065   47.3299    2.4510 C   0  0  0  0  0  0  0  0  0  0  0  0
    1.1799   48.7724    2.8071 N   0  0  0  0  0  0  0  0  0  0  0  0
   -4.3450   46.6881   -2.0830 O   0  0  0  0  0  0  0  0  0  0  0  0
  2  1  1  1  0  0  0
  2  3  1  0  0  0  0
  2  5  1  0  0  0  0
  3  4  1  0  0  0  0
  3 10  1  0  0  0  0
  5  6  1  0  0  0  0
  6  7  1  0  0  0  0
  7  8  1  0  0  0  0
  8  9  1  0  0  0  0
M  END
>  <CHROM.1>
-68.68491033,-63.91155254,171.82782299,179.58321960,65.42925590,-2.05346049
47.41797872,0.51462548,3.09003276,0.59877512,3.02684641

>  <Name>
ligand

>  <RI>
0

>  <Rbt.Current_Directory>
/home/itssahil/PROJECTS/Mol_Feturizer/New_Systems/rnas/3DIX

>  <Rbt.Executable>
rbdock ($Id: //depot/dev/client3/rdock/2013.1/src/exe/rbdock.cxx#4 $)

>  <Rbt.Library>
libRbt.so (2013.1, Build901 2013/11/27)

>  <Rbt.Parameter_File>
/export/apps/rDock/src/rDock_2013.1_src/data/scripts/dock_solv.prm

>  <Rbt.Receptor>
prm/blind_docking_80.prm

>  <SCORE>
-4.73027

>  <SCORE.INTER>
-4.20624

>  <SCORE.INTER.CONST>
1

>  <SCORE.INTER.POLAR>
0

>  <SCORE.INTER.ROT>
5

>  <SCORE.INTER.SOLV>
4.48468

>  <SCORE.INTER.VDW>
-11.2324

>  <SCORE.INTER.norm>
-0.420624

>  <SCORE.INTRA>
-0.524028

>  <SCORE.INTRA.DIHEDRAL>
-1.36921

>  <SCORE.INTRA.DIHEDRAL.0>
3.281

>  <SCORE.INTRA.POLAR>
0

>  <SCORE.INTRA.POLAR.0>
0

>  <SCORE.INTRA.REPUL>
0

>  <SCORE.INTRA.REPUL.0>
0

>  <SCORE.INTRA.SOLV>
0.261373

>  <SCORE.INTRA.SOLV.lig_0>
-31.9458

>  <SCORE.INTRA.VDW>
0.0298911

>  <SCORE.INTRA.VDW.0>
-0.672612

>  <SCORE.INTRA.norm>
-0.0524028

>  <SCORE.RESTR>
0

>  <SCORE.RESTR.CAVITY>
0

>  <SCORE.RESTR.norm>
0

>  <SCORE.SYSTEM>
0

>  <SCORE.SYSTEM.CONST>
0

>  <SCORE.SYSTEM.DIHEDRAL>
0

>  <SCORE.SYSTEM.SOLV>
0

>  <SCORE.SYSTEM.norm>
0

>  <SCORE.heavy>
10

>  <SCORE.norm>
-0.473027

>  <RMSD>
49.576

$$$$
ligand
 OpenBabel11021811473D
libRbt.so/2013.1/901 2013/11/27
 10  9  0  0  0  0  0  0  0  0999 V2000
   -0.7587   51.3101   11.3748 N   0  0  0  0  0  0  0  0  0  0  0  0
   -2.2276   51.5553   11.4270 C   0  0  2  0  0  0  0  0  0  0  0  0
   -2.9136   51.0850   10.1521 C   0  0  0  0  0  0  0  0  0  0  0  0
   -4.0688   50.6569   10.1476 O   0  0  0  0  0  0  0  0  0  0  0  0
   -2.5240   53.0296   11.6920 C   0  0  0  0  0  0  0  0  0  0  0  0
   -1.9494   53.5201   13.0009 C   0  0  0  0  0  0  0  0  0  0  0  0
   -2.2798   54.9677   13.2486 C   0  0  0  0  0  0  0  0  0  0  0  0
   -1.6920   55.4369   14.5678 C   0  0  0  0  0  0  0  0  0  0  0  0
   -2.0600   56.8435   14.8751 N   0  0  0  0  0  0  0  0  0  0  0  0
   -2.3337   51.1519    9.0672 O   0  0  0  0  0  0  0  0  0  0  0  0
  2  1  1  6  0  0  0
  2  3  1  0  0  0  0
  2  5  1  0  0  0  0
  3  4  1  0  0  0  0
  3 10  1  0  0  0  0
  5  6  1  0  0  0  0
  6  7  1  0  0  0  0
  7  8  1  0  0  0  0
  8  9  1  0  0  0  0
M  END
>  <CHROM.1>
148.64969328,-60.01940874,-178.87459887,-179.98508245,-177.05348111,-2.29808088
52.93475152,11.91886071,-1.69892454,-0.27151762,0.69692279

>  <Name>
ligand

>  <RI>
0

>  <Rbt.Current_Directory>
/home/itssahil/PROJECTS/Mol_Feturizer/New_Systems/rnas/3DIX

>  <Rbt.Executable>
rbdock ($Id: //depot/dev/client3/rdock/2013.1/src/exe/rbdock.cxx#4 $)

>  <Rbt.Library>
libRbt.so (2013.1, Build901 2013/11/27)

>  <Rbt.Parameter_File>
/export/apps/rDock/src/rDock_2013.1_src/data/scripts/dock_solv.prm

>  <Rbt.Receptor>
prm/blind_docking_80.prm

>  <SCORE>
-4.94911

>  <SCORE.INTER>
-3.60301

>  <SCORE.INTER.CONST>
1

>  <SCORE.INTER.POLAR>
0

>  <SCORE.INTER.ROT>
5

>  <SCORE.INTER.SOLV>
9.89204

>  <SCORE.INTER.VDW>
-12.6327

>  <SCORE.INTER.norm>
-0.360301

>  <SCORE.INTRA>
-1.34634

>  <SCORE.INTRA.DIHEDRAL>
-1.81938

>  <SCORE.INTRA.DIHEDRAL.0>
3.281

>  <SCORE.INTRA.POLAR>
0

>  <SCORE.INTRA.POLAR.0>
0

>  <SCORE.INTRA.REPUL>
0

>  <SCORE.INTRA.REPUL.0>
0

>  <SCORE.INTRA.SOLV>
-0.643785

>  <SCORE.INTRA.SOLV.lig_0>
-31.9458

>  <SCORE.INTRA.VDW>
-0.114751

>  <SCORE.INTRA.VDW.0>
-0.672612

>  <SCORE.INTRA.norm>
-0.134634

>  <SCORE.RESTR>
0.000227947

>  <SCORE.RESTR.CAVITY>
0.000227947

>  <SCORE.RESTR.norm>
2.27947e-05

>  <SCORE.SYSTEM>
0

>  <SCORE.SYSTEM.CONST>
0

>  <SCORE.SYSTEM.DIHEDRAL>
0

>  <SCORE.SYSTEM.SOLV>
0

>  <SCORE.SYSTEM.norm>
0

>  <SCORE.heavy>
10

>  <SCORE.norm>
-0.494911

>  <RMSD>
50.167

$$$$
ligand
 OpenBabel11021811473D
libRbt.so/2013.1/901 2013/11/27
 10  9  0  0  0  0  0  0  0  0999 V2000
   -0.1757   52.9673   11.0994 N   0  0  0  0  0  0  0  0  0  0  0  0
   -1.5841   52.4936   11.2112 C   0  0  2  0  0  0  0  0  0  0  0  0
   -2.2264   52.3363    9.8401 C   0  0  0  0  0  0  0  0  0  0  0  0
   -2.0952   53.1807    8.9528 O   0  0  0  0  0  0  0  0  0  0  0  0
   -2.4055   53.4322   12.0922 C   0  0  0  0  0  0  0  0  0  0  0  0
   -1.8641   53.5444   13.4986 C   0  0  0  0  0  0  0  0  0  0  0  0
   -2.6548   54.5229   14.3253 C   0  0  0  0  0  0  0  0  0  0  0  0
   -2.0771   54.6369   15.7251 C   0  0  0  0  0  0  0  0  0  0  0  0
   -2.8474   55.5840   16.5725 N   0  0  0  0  0  0  0  0  0  0  0  0
   -2.8783   51.3276    9.5655 O   0  0  0  0  0  0  0  0  0  0  0  0
  2  1  1  6  0  0  0
  2  3  1  0  0  0  0
  2  5  1  0  0  0  0
  3  4  1  0  0  0  0
  3 10  1  0  0  0  0
  5  6  1  0  0  0  0
  6  7  1  0  0  0  0
  7  8  1  0  0  0  0
  8  9  1  0  0  0  0
M  END
>  <CHROM.1>
-44.02111758,-59.91903647,177.39578991,-178.97564975,-179.27141853,-2.09382953
53.39195663,12.24581987,-1.50993781,0.08290341,1.15479001

>  <Name>
ligand

>  <RI>
0

>  <Rbt.Current_Directory>
/home/itssahil/PROJECTS/Mol_Feturizer/New_Systems/rnas/3DIX

>  <Rbt.Executable>
rbdock ($Id: //depot/dev/client3/rdock/2013.1/src/exe/rbdock.cxx#4 $)

>  <Rbt.Library>
libRbt.so (2013.1, Build901 2013/11/27)

>  <Rbt.Parameter_File>
/export/apps/rDock/src/rDock_2013.1_src/data/scripts/dock_solv.prm

>  <Rbt.Receptor>
prm/blind_docking_80.prm

>  <SCORE>
-3.48761

>  <SCORE.INTER>
-2.16648

>  <SCORE.INTER.CONST>
1

>  <SCORE.INTER.POLAR>
0

>  <SCORE.INTER.ROT>
5

>  <SCORE.INTER.SOLV>
4.50595

>  <SCORE.INTER.VDW>
-9.87963

>  <SCORE.INTER.norm>
-0.216648

>  <SCORE.INTRA>
-1.32114

>  <SCORE.INTRA.DIHEDRAL>
-1.7086

>  <SCORE.INTRA.DIHEDRAL.0>
3.281

>  <SCORE.INTRA.POLAR>
0

>  <SCORE.INTRA.POLAR.0>
0

>  <SCORE.INTRA.REPUL>
0

>  <SCORE.INTRA.REPUL.0>
0

>  <SCORE.INTRA.SOLV>
-0.628956

>  <SCORE.INTRA.SOLV.lig_0>
-31.9458

>  <SCORE.INTRA.VDW>
-0.152362

>  <SCORE.INTRA.VDW.0>
-0.672612

>  <SCORE.INTRA.norm>
-0.132114

>  <SCORE.RESTR>
0

>  <SCORE.RESTR.CAVITY>
0

>  <SCORE.RESTR.norm>
0

>  <SCORE.SYSTEM>
0

>  <SCORE.SYSTEM.CONST>
0

>  <SCORE.SYSTEM.DIHEDRAL>
0

>  <SCORE.SYSTEM.SOLV>
0

>  <SCORE.SYSTEM.norm>
0

>  <SCORE.heavy>
10

>  <SCORE.norm>
-0.348761

>  <RMSD>
50.276

$$$$
ligand
 OpenBabel11021811473D
libRbt.so/2013.1/901 2013/11/27
 10  9  0  0  0  0  0  0  0  0999 V2000
   -4.0514   49.2983   -1.0788 N   0  0  0  0  0  0  0  0  0  0  0  0
   -3.8632   47.8461   -1.3555 C   0  0  2  0  0  0  0  0  0  0  0  0
   -5.1859   47.1689   -1.6855 C   0  0  0  0  0  0  0  0  0  0  0  0
   -5.2411   46.0860   -2.2704 O   0  0  0  0  0  0  0  0  0  0  0  0
   -3.1754   47.1533   -0.1813 C   0  0  0  0  0  0  0  0  0  0  0  0
   -1.7470   47.6058    0.0152 C   0  0  0  0  0  0  0  0  0  0  0  0
   -1.1167   46.9592    1.2197 C   0  0  0  0  0  0  0  0  0  0  0  0
    0.3110   47.4419    1.4058 C   0  0  0  0  0  0  0  0  0  0  0  0
    0.9516   46.8435    2.6058 N   0  0  0  0  0  0  0  0  0  0  0  0
   -6.2537   47.6780   -1.3414 O   0  0  0  0  0  0  0  0  0  0  0  0
  2  1  1  1  0  0  0
  2  3  1  0  0  0  0
  2  5  1  0  0  0  0
  3  4  1  0  0  0  0
  3 10  1  0  0  0  0
  5  6  1  0  0  0  0
  6  7  1  0  0  0  0
  7  8  1  0  0  0  0
  8  9  1  0  0  0  0
M  END
>  <CHROM.1>
160.96285854,-67.05819889,177.12271566,-179.30507899,178.74682816,-2.97741164
47.39348791,-0.28193571,-3.12523706,0.55925167,-3.10566214

>  <Name>
ligand

>  <RI>
0

>  <Rbt.Current_Directory>
/home/itssahil/PROJECTS/Mol_Feturizer/New_Systems/rnas/3DIX

>  <Rbt.Executable>
rbdock ($Id: //depot/dev/client3/rdock/2013.1/src/exe/rbdock.cxx#4 $)

>  <Rbt.Library>
libRbt.so (2013.1, Build901 2013/11/27)

>  <Rbt.Parameter_File>
/export/apps/rDock/src/rDock_2013.1_src/data/scripts/dock_solv.prm

>  <Rbt.Receptor>
prm/blind_docking_80.prm

>  <SCORE>
-4.43429

>  <SCORE.INTER>
-3.15225

>  <SCORE.INTER.CONST>
1

>  <SCORE.INTER.POLAR>
0

>  <SCORE.INTER.ROT>
5

>  <SCORE.INTER.SOLV>
6.75313

>  <SCORE.INTER.VDW>
-11.2859

>  <SCORE.INTER.norm>
-0.315225

>  <SCORE.INTRA>
-1.28204

>  <SCORE.INTRA.DIHEDRAL>
-1.59833

>  <SCORE.INTRA.DIHEDRAL.0>
3.281

>  <SCORE.INTRA.POLAR>
0

>  <SCORE.INTRA.POLAR.0>
0

>  <SCORE.INTRA.REPUL>
0

>  <SCORE.INTRA.REPUL.0>
0

>  <SCORE.INTRA.SOLV>
-0.708916

>  <SCORE.INTRA.SOLV.lig_0>
-31.9458

>  <SCORE.INTRA.VDW>
-0.128419

>  <SCORE.INTRA.VDW.0>
-0.672612

>  <SCORE.INTRA.norm>
-0.128204

>  <SCORE.RESTR>
0

>  <SCORE.RESTR.CAVITY>
0

>  <SCORE.RESTR.norm>
0

>  <SCORE.SYSTEM>
0

>  <SCORE.SYSTEM.CONST>
0

>  <SCORE.SYSTEM.DIHEDRAL>
0

>  <SCORE.SYSTEM.SOLV>
0

>  <SCORE.SYSTEM.norm>
0

>  <SCORE.heavy>
10

>  <SCORE.norm>
-0.443429

>  <RMSD>
50.499

$$$$
ligand
 OpenBabel11021811473D
libRbt.so/2013.1/901 2013/11/27
 10  9  0  0  0  0  0  0  0  0999 V2000
    2.7690   57.2820   15.4183 N   0  0  0  0  0  0  0  0  0  0  0  0
    1.8103   58.4208   15.3494 C   0  0  2  0  0  0  0  0  0  0  0  0
    0.3749   57.9486   15.5335 C   0  0  0  0  0  0  0  0  0  0  0  0
   -0.0371   56.8946   15.0467 O   0  0  0  0  0  0  0  0  0  0  0  0
    1.9672   59.1854   14.0369 C   0  0  0  0  0  0  0  0  0  0  0  0
    1.4793   60.6130   14.1247 C   0  0  0  0  0  0  0  0  0  0  0  0
   -0.0237   60.6926   14.0947 C   0  0  0  0  0  0  0  0  0  0  0  0
   -0.4907   62.1295   14.2466 C   0  0  0  0  0  0  0  0  0  0  0  0
   -0.1759   62.6808   15.5903 N   0  0  0  0  0  0  0  0  0  0  0  0
   -0.4175   58.6025   16.2134 O   0  0  0  0  0  0  0  0  0  0  0  0
  2  1  1  6  0  0  0
  2  3  1  0  0  0  0
  2  5  1  0  0  0  0
  3  4  1  0  0  0  0
  3 10  1  0  0  0  0
  5  6  1  0  0  0  0
  6  7  1  0  0  0  0
  7  8  1  0  0  0  0
  8  9  1  0  0  0  0
M  END
>  <CHROM.1>
-38.77810182,-156.31845178,-76.21694039,177.46969069,-66.63450305,0.69604660
59.42607060,14.97301918,-1.26395152,0.37179339,-0.25590519

>  <Name>
ligand

>  <RI>
0

>  <Rbt.Current_Directory>
/home/itssahil/PROJECTS/Mol_Feturizer/New_Systems/rnas/3DIX

>  <Rbt.Executable>
rbdock ($Id: //depot/dev/client3/rdock/2013.1/src/exe/rbdock.cxx#4 $)

>  <Rbt.Library>
libRbt.so (2013.1, Build901 2013/11/27)

>  <Rbt.Parameter_File>
/export/apps/rDock/src/rDock_2013.1_src/data/scripts/dock_solv.prm

>  <Rbt.Receptor>
prm/blind_docking_80.prm

>  <SCORE>
1.56593

>  <SCORE.INTER>
1.24331

>  <SCORE.INTER.CONST>
1

>  <SCORE.INTER.POLAR>
0

>  <SCORE.INTER.ROT>
5

>  <SCORE.INTER.SOLV>
3.25883

>  <SCORE.INTER.VDW>
-7.19073

>  <SCORE.INTER.norm>
0.124331

>  <SCORE.INTRA>
0.322615

>  <SCORE.INTRA.DIHEDRAL>
1.41188

>  <SCORE.INTRA.DIHEDRAL.0>
3.281

>  <SCORE.INTRA.POLAR>
0

>  <SCORE.INTRA.POLAR.0>
0

>  <SCORE.INTRA.REPUL>
0

>  <SCORE.INTRA.REPUL.0>
0

>  <SCORE.INTRA.SOLV>
-0.525923

>  <SCORE.INTRA.SOLV.lig_0>
-31.9458

>  <SCORE.INTRA.VDW>
-0.120362

>  <SCORE.INTRA.VDW.0>
-0.672612

>  <SCORE.INTRA.norm>
0.0322615

>  <SCORE.RESTR>
0

>  <SCORE.RESTR.CAVITY>
0

>  <SCORE.RESTR.norm>
0

>  <SCORE.SYSTEM>
0

>  <SCORE.SYSTEM.CONST>
0

>  <SCORE.SYSTEM.DIHEDRAL>
0

>  <SCORE.SYSTEM.SOLV>
0

>  <SCORE.SYSTEM.norm>
0

>  <SCORE.heavy>
10

>  <SCORE.norm>
0.156593

>  <RMSD>
52.870

$$$$
