@<TRIPOS>MOLECULE
3DIX_rdock.pdb
 3728 4173 0 0 0
SMALL
GASTEIGER

@<TRIPOS>ATOM
      1  P         38.2840   -8.3310   15.7170 P.3     1  G1          0.1280
      2  C5'       38.6790   -8.1360   13.1050 C.3     1  G1          0.1795
      3  O5'       37.7760   -8.3810   14.1940 O.3     1  G1         -0.3259
      4  C4'       38.1280   -8.6050   11.7670 C.3     1  G1          0.1772
      5  O4'       38.0170  -10.0530   11.7230 O.3     1  G1         -0.3307
      6  C3'       36.7210   -8.1420   11.4180 C.3     1  G1          0.1860
      7  O3'       36.6820   -6.7660   11.0260 O.3     1  G1         -0.3112
      8  C2'       36.4020   -9.1040   10.2790 C.3     1  G1          0.2309
      9  O2'       37.0250   -8.7520    9.0550 O.3     1  G1         -0.2156
     10  C1'       36.9640  -10.4150   10.8420 C.3     1  G1          0.2408
     11  N1        32.5860  -13.0960   10.6550 N.ar    1  G1         -0.1709
     12  C2        33.2610  -12.4620    9.6360 C.ar    1  G1          0.2606
     13  N2        32.7140  -12.5460    8.4160 N.pl3   1  G1         -0.0859
     14  N3        34.3990  -11.7920    9.7960 N.ar    1  G1         -0.1918
     15  C4        34.8240  -11.7990   11.0860 C.ar    1  G1          0.1723
     16  C5        34.2180  -12.4010   12.1690 C.ar    1  G1          0.1748
     17  C6        33.0070  -13.1120   11.9840 C.ar    1  G1          0.3023
     18  O6        32.3330  -13.7040   12.8350 O.2     1  G1         -0.2633
     19  N7        34.9520  -12.1870   13.3240 N.ar    1  G1         -0.2173
     20  C8        35.9670  -11.4720   12.9260 C.ar    1  G1          0.1817
     21  N9        35.9650  -11.1970   11.5790 N.ar    1  G1         -0.2693
     22  OP1       38.3340   -6.9010   16.1350 O.3     1  G1         -0.1955
     23  OP2       37.4440   -9.3130   16.4530 O.co2   1  G1         -0.7863
     24  P         35.3210   -5.9260   11.1990 P.3     2  G2          0.2141
     25  C5'       34.4020   -5.9350    8.7110 C.3     2  G2          0.1812
     26  O5'       34.4260   -6.5090   10.0130 O.3     2  G2         -0.3114
     27  C4'       33.3360   -6.6460    7.9030 C.3     2  G2          0.1773
     28  O4'       33.3980   -8.0810    8.1380 O.3     2  G2         -0.3307
     29  C3'       31.9130   -6.2970    8.2990 C.3     2  G2          0.1860
     30  O3'       31.5370   -5.0390    7.7760 O.3     2  G2         -0.3112
     31  C2'       31.1650   -7.4790    7.6920 C.3     2  G2          0.2309
     32  O2'       31.0510   -7.4400    6.2820 O.3     2  G2         -0.2156
     33  C1'       32.0880   -8.6270    8.1020 C.3     2  G2          0.2408
     34  N1        28.6890  -11.4000   10.7110 N.ar    2  G2         -0.1709
     35  C2        28.7090  -11.0550    9.3800 C.ar    2  G2          0.2606
     36  N2        27.6970  -11.5050    8.6330 N.pl3   2  G2         -0.0859
     37  N3        29.6560  -10.3280    8.8100 N.ar    2  G2         -0.1918
     38  C4        30.6120   -9.9520    9.6930 C.ar    2  G2          0.1723
     39  C5        30.6850  -10.2360   11.0400 C.ar    2  G2          0.1748
     40  C6        29.6610  -11.0230   11.6380 C.ar    2  G2          0.3023
     41  O6        29.5510  -11.3810   12.8230 O.2     2  G2         -0.2633
     42  N7        31.8210   -9.6620   11.5980 N.ar    2  G2         -0.2173
     43  C8        32.4000   -9.0570   10.5970 C.ar    2  G2          0.1817
     44  N9        31.7260   -9.1910    9.4060 N.ar    2  G2         -0.2693
     45  OP1       35.6000   -4.4870   10.9720 O.2     2  G2         -0.5172
     46  OP2       34.6590   -6.3600   12.4530 O.co2   2  G2         -0.4373
     47  P         30.7520   -4.0020    8.7140 P.3     3  C3          0.2141
     48  C5'       28.5710   -4.8010    7.5320 C.3     3  C3          0.1812
     49  O5'       29.2750   -4.6030    8.7450 O.3     3  C3         -0.3114
     50  C4'       27.3710   -5.6930    7.7520 C.3     3  C3          0.1773
     51  O4'       27.7900   -6.9920    8.2280 O.3     3  C3         -0.3307
     52  C3'       26.4220   -5.2170    8.8340 C.3     3  C3          0.1860
     53  O3'       25.5810   -4.2070    8.3360 O.3     3  C3         -0.3112
     54  C2'       25.6670   -6.4990    9.1500 C.3     3  C3          0.2309
     55  O2'       24.6590   -6.7910    8.2100 O.3     3  C3         -0.2156
     56  C1'       26.7940   -7.5250    9.0810 C.3     3  C3          0.2420
     57  N1        27.3800   -7.7970   10.4340 N.ar    3  C3         -0.2535
     58  C2        26.7250   -8.6840   11.2910 C.ar    3  C3          0.3532
     59  O2        25.6860   -9.2330   10.9230 O.2     3  C3         -0.2443
     60  N3        27.2500   -8.9270   12.5110 N.ar    3  C3         -0.1739
     61  C4        28.3760   -8.3250   12.8950 C.ar    3  C3          0.1759
     62  N4        28.8390   -8.6120   14.1150 N.pl3   3  C3         -0.1070
     63  C5        29.0650   -7.4090   12.0460 C.ar    3  C3          0.0566
     64  C6        28.5340   -7.1810   10.8390 C.ar    3  C3          0.0850
     65  OP1       30.7030   -2.6940    8.0310 O.2     3  C3         -0.5172
     66  OP2       31.3010   -4.0790   10.0850 O.co2   3  C3         -0.4373
     67  P         25.1350   -3.0280    9.3090 P.3     4  C4          0.2141
     68  C5'       22.7910   -4.1650    9.7230 C.3     4  C4          0.1812
     69  O5'       24.0640   -3.7620   10.2500 O.3     4  C4         -0.3114
     70  C4'       21.9630   -4.9490   10.7300 C.3     4  C4          0.1773
     71  O4'       22.6000   -6.2270   11.0210 O.3     4  C4         -0.3307
     72  C3'       21.8030   -4.3060   12.1040 C.3     4  C4          0.1860
     73  O3'       20.8060   -3.2980   12.1310 O.3     4  C4         -0.3112
     74  C2'       21.4330   -5.5180   12.9510 C.3     4  C4          0.2309
     75  O2'       20.0970   -5.9510   12.7820 O.3     4  C4         -0.2156
     76  C1'       22.4110   -6.5470   12.3920 C.3     4  C4          0.2420
     77  N1        23.7050   -6.5300   13.1550 N.ar    4  C4         -0.2535
     78  C2        23.7750   -7.1870   14.3970 C.ar    4  C4          0.3532
     79  O2        22.7850   -7.7800   14.8420 O.2     4  C4         -0.2443
     80  N3        24.9460   -7.1650   15.0830 N.ar    4  C4         -0.1739
     81  C4        26.0070   -6.5150   14.5870 C.ar    4  C4          0.1759
     82  N4        27.1290   -6.5260   15.3090 N.pl3   4  C4         -0.1070
     83  C5        25.9630   -5.8310   13.3330 C.ar    4  C4          0.0566
     84  C6        24.8030   -5.8670   12.6640 C.ar    4  C4          0.0850
     85  OP1       24.4440   -2.0250    8.4660 O.2     4  C4         -0.5172
     86  OP2       26.2930   -2.6330   10.1490 O.co2   4  C4         -0.4373
     87  P         20.9950   -2.0270   13.0940 P.3     5  G5          0.2141
     88  C5'       19.5300   -3.0980   15.0080 C.3     5  G5          0.1812
     89  O5'       20.8080   -2.6300   14.5680 O.3     5  G5         -0.3114
     90  C4'       19.6230   -3.8560   16.3190 C.3     5  G5          0.1773
     91  O4'       20.5840   -4.9370   16.2030 O.3     5  G5         -0.3307
     92  C3'       20.1440   -3.0930   17.5300 C.3     5  G5          0.1860
     93  O3'       19.1790   -2.2080   18.0810 O.3     5  G5         -0.3112
     94  C2'       20.4100   -4.2760   18.4540 C.3     5  G5          0.2309
     95  O2'       19.2210   -4.8760   18.9450 O.3     5  G5         -0.2156
     96  C1'       21.1260   -5.2130   17.4870 C.3     5  G5          0.2408
     97  N1        25.4940   -6.1920   19.9150 N.ar    5  G5         -0.1709
     98  C2        24.2120   -6.5610   20.2430 C.ar    5  G5          0.2606
     99  N2        24.0690   -7.2850   21.3580 N.pl3   5  G5         -0.0859
    100  N3        23.1440   -6.2420   19.5200 N.ar    5  G5         -0.1918
    101  C4        23.4620   -5.5070   18.4230 C.ar    5  G5          0.1723
    102  C5        24.7100   -5.0840   18.0130 C.ar    5  G5          0.1748
    103  C6        25.8440   -5.4370   18.7940 C.ar    5  G5          0.3023
    104  O6        27.0350   -5.1580   18.5970 O.2     5  G5         -0.2633
    105  N7        24.6160   -4.3460   16.8390 N.ar    5  G5         -0.2173
    106  C8        23.3390   -4.3400   16.5700 C.ar    5  G5          0.1817
    107  N9        22.5780   -5.0270   17.4850 N.ar    5  G5         -0.2693
    108  OP1       19.8780   -1.1030   12.8060 O.2     5  G5         -0.5172
    109  OP2       22.3880   -1.5340   12.9950 O.co2   5  G5         -0.4373
    110  P         19.6480   -0.9470   18.9610 P.3     6  A6          0.2141
    111  C5'       18.9630   -2.1410   21.1810 C.3     6  A6          0.1812
    112  O5'       19.9830   -1.5670   20.3940 O.3     6  A6         -0.3114
    113  C4'       19.5890   -2.9050   22.3260 C.3     6  A6          0.1773
    114  O4'       20.5420   -3.8760   21.8260 O.3     6  A6         -0.3307
    115  C3'       20.4120   -2.0650   23.2860 C.3     6  A6          0.1860
    116  O3'       19.5520   -1.3180   24.1460 O.3     6  A6         -0.3112
    117  C2'       21.1940   -3.1820   23.9750 C.3     6  A6          0.2309
    118  O2'       20.4160   -3.9720   24.8550 O.3     6  A6         -0.2156
    119  C1'       21.5860   -4.0230   22.7670 C.3     6  A6          0.2408
    120  N1        26.7320   -4.0810   23.0570 N.ar    6  A6         -0.2040
    121  C2        25.7870   -4.5820   23.8650 C.ar    6  A6          0.2016
    122  N3        24.4600   -4.5340   23.7330 N.ar    6  A6         -0.2048
    123  C4        24.1140   -3.8740   22.6130 C.ar    6  A6          0.1692
    124  C5        24.9690   -3.3040   21.6890 C.ar    6  A6          0.1518
    125  C6        26.3470   -3.4270   21.9420 C.ar    6  A6          0.1919
    126  N6        27.2770   -2.9270   21.1320 N.pl3   6  A6         -0.1054
    127  N7        24.2620   -2.7050   20.6620 N.ar    6  A6         -0.2193
    128  C8        23.0080   -2.9220   20.9790 C.ar    6  A6          0.1816
    129  N9        22.8460   -3.6210   22.1450 N.ar    6  A6         -0.2693
    130  OP1       18.4820   -0.0350   19.0740 O.3     6  A6         -0.4373
    131  OP2       20.9460   -0.4410   18.4450 O.co2   6  A6         -0.5172
    132  P         19.9580    0.1440   24.6620 P.3     7  C7          0.2141
    133  C5'       20.8460   -0.8920   26.9180 C.3     7  C7          0.1812
    134  O5'       21.1210   -0.1880   25.7060 O.3     7  C7         -0.3114
    135  C4'       22.1400   -1.4030   27.5110 C.3     7  C7          0.1773
    136  O4'       22.8280   -2.2190   26.5300 O.3     7  C7         -0.3307
    137  C3'       23.1730   -0.3290   27.8070 C.3     7  C7          0.1860
    138  O3'       22.8740    0.3850   28.9960 O.3     7  C7         -0.3112
    139  C2'       24.4440   -1.1740   27.8820 C.3     7  C7          0.2309
    140  O2'       24.5600   -1.9700   29.0440 O.3     7  C7         -0.2156
    141  C1'       24.2330   -2.0590   26.6600 C.3     7  C7          0.2420
    142  N1        24.8610   -1.4560   25.4240 N.ar    7  C7         -0.2535
    143  C2        26.2540   -1.5400   25.2620 C.ar    7  C7          0.3532
    144  O2        26.9380   -2.1160   26.1150 O.2     7  C7         -0.2443
    145  N3        26.8320   -0.9980   24.1650 N.ar    7  C7         -0.1739
    146  C4        26.0890   -0.3840   23.2550 C.ar    7  C7          0.1759
    147  N4        26.7280    0.1260   22.2060 N.pl3   7  C7         -0.1070
    148  C5        24.6720   -0.2740   23.3860 C.ar    7  C7          0.0566
    149  C6        24.1040   -0.8180   24.4740 C.ar    7  C7          0.0850
    150  OP1       18.7910    0.6880   25.3920 O.3     7  C7         -0.4373
    151  OP2       20.5630    0.9320   23.5630 O.co2   7  C7         -0.5172
    152  P         23.4100    1.8830   29.1830 P.3     8  G8          0.2141
    153  C5'       25.4940    0.9870   30.5190 C.3     8  G8          0.1812
    154  O5'       24.9850    1.6670   29.3760 O.3     8  G8         -0.3114
    155  C4'       27.0010    1.1000   30.5880 C.3     8  G8          0.1773
    156  O4'       27.5790    0.3970   29.4630 O.3     8  G8         -0.3307
    157  C3'       27.5330    2.5170   30.4670 C.3     8  G8          0.1860
    158  O3'       27.4810    3.1760   31.7240 O.3     8  G8         -0.3112
    159  C2'       28.9560    2.2420   30.0030 C.3     8  G8          0.2309
    160  O2'       29.7870    1.8400   31.0680 O.3     8  G8         -0.2156
    161  C1'       28.7470    1.0800   29.0400 C.3     8  G8          0.2408
    162  N1        31.2200    2.4700   24.8090 N.ar    8  G8         -0.1709
    163  C2        31.7120    2.1360   26.0470 C.ar    8  G8          0.2606
    164  N2        33.0390    2.1710   26.1760 N.pl3   8  G8         -0.0859
    165  N3        30.9610    1.7880   27.0830 N.ar    8  G8         -0.1918
    166  C4        29.6390    1.8080   26.7790 C.ar    8  G8          0.1723
    167  C5        29.0440    2.1320   25.5780 C.ar    8  G8          0.1748
    168  C6        29.8690    2.4960   24.4770 C.ar    8  G8          0.3023
    169  O6        29.5440    2.8240   23.3260 O.2     8  G8         -0.2633
    170  N7        27.6630    2.0260   25.6780 N.ar    8  G8         -0.2173
    171  C8        27.4570    1.6480   26.9090 C.ar    8  G8          0.1817
    172  N9        28.6130    1.4930   27.6390 N.ar    8  G8         -0.2693
    173  OP1       22.8000    2.4000   30.4250 O.3     8  G8         -0.4373
    174  OP2       23.2610    2.6520   27.9320 O.co2   8  G8         -0.5172
    175  P         27.6490    4.7720   31.8380 P.3     9  G9          0.2141
    176  C5'       29.5540    6.0050   30.5870 C.3     9  G9          0.1812
    177  O5'       29.1800    4.9400   31.4190 O.3     9  G9         -0.3114
    178  C4'       30.9860    5.8380   30.1470 C.3     9  G9          0.1773
    179  O4'       31.1180    4.8020   29.1390 O.3     9  G9         -0.3307
    180  C3'       31.4960    7.0970   29.4960 C.3     9  G9          0.1860
    181  O3'       31.9860    7.9120   30.5410 O.3     9  G9         -0.3112
    182  C2'       32.5710    6.5410   28.5640 C.3     9  G9          0.2309
    183  O2'       33.7550    6.1660   29.2330 O.3     9  G9         -0.2156
    184  C1'       31.8990    5.2750   28.0500 C.3     9  G9          0.2408
    185  N1        31.7100    6.2910   22.9950 N.ar    9  G9         -0.1709
    186  C2        32.8110    6.2130   23.8140 C.ar    9  G9          0.2606
    187  N2        33.9860    6.4300   23.2250 N.pl3   9  G9         -0.0859
    188  N3        32.7570    5.9420   25.1150 N.ar    9  G9         -0.1918
    189  C4        31.4780    5.7520   25.5540 C.ar    9  G9          0.1723
    190  C5        30.3150    5.8130   24.8060 C.ar    9  G9          0.1748
    191  C6        30.3910    6.1000   23.4160 C.ar    9  G9          0.3023
    192  O6        29.4580    6.1900   22.6010 O.2     9  G9         -0.2633
    193  N7        29.2040    5.5640   25.5990 N.ar    9  G9         -0.2173
    194  C8        29.6950    5.3620   26.7870 C.ar    9  G9          0.1817
    195  N9        31.0660    5.4590   26.8480 N.ar    9  G9         -0.2693
    196  OP1       27.5400    5.1460   33.2690 O.3     9  G9         -0.4373
    197  OP2       26.7710    5.4440   30.8480 O.co2   9  G9         -0.5172
    198  P         32.0050    9.5050   30.4040 P.3    10  A10         0.2141
    199  C5'       34.5350    9.4030   29.6800 C.3    10  A10         0.1812
    200  O5'       33.1910    9.7350   29.3560 O.3    10  A10        -0.3114
    201  C4'       35.4590    9.9630   28.6210 C.3    10  A10         0.1773
    202  O4'       35.3460    9.1810   27.4100 O.3    10  A10        -0.3307
    203  C3'       35.1140   11.3870   28.2280 C.3    10  A10         0.1860
    204  O3'       35.8320   12.2390   29.1130 O.3    10  A10        -0.3112
    205  C2'       35.5670   11.4380   26.7700 C.3    10  A10         0.2309
    206  O2'       36.9500   11.7070   26.6320 O.3    10  A10        -0.2156
    207  C1'       35.2930   10.0200   26.2760 C.3    10  A10         0.2408
    208  N1        33.0290    9.8730   21.6440 N.ar   10  A10        -0.2040
    209  C2        34.3050   10.0490   22.0010 C.ar   10  A10         0.2016
    210  N3        34.8080   10.0740   23.2320 N.ar   10  A10        -0.2048
    211  C4        33.8570    9.8960   24.1740 C.ar   10  A10         0.1692
    212  C5        32.5060    9.7070   23.9510 C.ar   10  A10         0.1518
    213  C6        32.0970    9.6970   22.6030 C.ar   10  A10         0.1919
    214  N6        30.8380    9.5220   22.2230 N.pl3  10  A10        -0.1054
    215  N7        31.8250    9.5550   25.1450 N.ar   10  A10        -0.2193
    216  C8        32.7690    9.6490   26.0550 C.ar   10  A10         0.1816
    217  N9        34.0220    9.8590   25.5460 N.ar   10  A10        -0.2693
    218  OP1       32.4130   10.0550   31.7170 O.3    10  A10        -0.4373
    219  OP2       30.7440    9.9590   29.7740 O.co2  10  A10        -0.5172
    220  P         35.7000   13.8340   29.1080 P.3    11  G11         0.2141
    221  C5'       36.2860   15.4220   27.1320 C.3    11  G11         0.1812
    222  O5'       36.4810   14.1900   27.7590 O.3    11  G11        -0.3114
    223  C4'       37.0070   15.4720   25.8010 C.3    11  G11         0.1773
    224  O4'       36.4710   14.5030   24.8640 O.3    11  G11        -0.3307
    225  C3'       36.8520   16.8350   25.1480 C.3    11  G11         0.1860
    226  O3'       38.0740   17.2480   24.5200 O.3    11  G11        -0.3112
    227  C2'       35.6810   16.5930   24.1950 C.3    11  G11         0.2309
    228  O2'       35.6090   17.5260   23.1290 O.3    11  G11        -0.2156
    229  C1'       35.9560   15.1650   23.7290 C.3    11  G11         0.2408
    230  N1        31.5040   12.9380   24.9810 N.ar   11  G11        -0.1709
    231  C2        32.4510   13.4890   25.8050 C.ar   11  G11         0.2606
    232  N2        32.1840   13.4500   27.1150 N.pl3  11  G11        -0.0859
    233  N3        33.5800   14.0410   25.3750 N.ar   11  G11        -0.1918
    234  C4        33.6970   14.0010   24.0260 C.ar   11  G11         0.1723
    235  C5        32.8060   13.4720   23.1220 C.ar   11  G11         0.1748
    236  C6        31.6140   12.8900   23.5970 C.ar   11  G11         0.3023
    237  O6        30.7180   12.3750   22.9310 O.2    11  G11        -0.2633
    238  N7        33.2570   13.6170   21.8240 N.ar   11  G11        -0.2173
    239  C8        34.4020   14.2170   21.9690 C.ar   11  G11         0.1817
    240  N9        34.7430   14.4860   23.2730 N.ar   11  G11        -0.2693
    241  OP1       36.5030   14.3530   30.2400 O.3    11  G11        -0.4373
    242  OP2       34.2670   14.2080   28.9970 O.co2  11  G11        -0.5172
    243  P         39.2610   17.9120   25.3680 P.3    12  G12         0.2141
    244  C5'       38.2260   20.2270   24.8020 C.3    12  G12         0.1812
    245  O5'       38.7180   19.3420   25.7620 O.3    12  G12        -0.3114
    246  C4'       37.0510   20.9390   25.4330 C.3    12  G12         0.1773
    247  O4'       36.1220   19.9380   25.9400 O.3    12  G12        -0.3307
    248  C3'       37.3970   21.8570   26.6030 C.3    12  G12         0.1860
    249  O3'       36.8840   23.1670   26.3500 O.3    12  G12        -0.3112
    250  C2'       36.7070   21.2020   27.7970 C.3    12  G12         0.2309
    251  O2'       36.1780   22.1700   28.6770 O.3    12  G12        -0.2156
    252  C1'       35.5530   20.4740   27.1150 C.3    12  G12         0.2408
    253  N1        32.0020   16.7520   27.1680 N.ar   12  G12        -0.1709
    254  C2        32.4490   17.5080   26.1190 C.ar   12  G12         0.2606
    255  N2        31.8860   17.2570   24.9360 N.pl3  12  G12        -0.0859
    256  N3        33.3820   18.4510   26.2140 N.ar   12  G12        -0.1918
    257  C4        33.8550   18.5850   27.4790 C.ar   12  G12         0.1723
    258  C5        33.4700   17.8700   28.5920 C.ar   12  G12         0.1748
    259  C6        32.4710   16.8710   28.4690 C.ar   12  G12         0.3023
    260  O6        32.0060   16.1320   29.3460 O.2    12  G12        -0.2633
    261  N7        34.1790   18.2830   29.7070 N.ar   12  G12        -0.2173
    262  C8        34.9580   19.2210   29.2530 C.ar   12  G12         0.1817
    263  N9        34.8310   19.4620   27.9050 N.ar   12  G12        -0.2693
    264  OP1       40.4190   18.0940   24.4820 O.2    12  G12        -0.5172
    265  OP2       39.4440   17.1830   26.6360 O.co2  12  G12        -0.4373
    266  P         37.8220   24.3660   25.8310 P.3    13  C13         0.2141
    267  C5'       37.2640   25.5910   28.0960 C.3    13  C13         0.1812
    268  O5'       37.3310   25.6360   26.6710 O.3    13  C13        -0.3114
    269  C4'       35.9340   26.1270   28.6100 C.3    13  C13         0.1773
    270  O4'       35.8870   27.5810   28.5190 O.3    13  C13        -0.3307
    271  C3'       34.7050   25.6190   27.8650 C.3    13  C13         0.1860
    272  O3'       33.6720   25.3120   28.7800 O.3    13  C13        -0.3112
    273  C2'       34.3000   26.7950   26.9880 C.3    13  C13         0.2309
    274  O2'       32.9120   26.8120   26.7570 O.3    13  C13        -0.2156
    275  C1'       34.7050   27.9810   27.8530 C.3    13  C13         0.2420
    276  N1        34.9470   29.2340   27.0620 N.ar   13  C13        -0.2535
    277  C2        34.0370   30.3060   27.1710 C.ar   13  C13         0.3532
    278  O2        33.0530   30.2080   27.9180 O.2    13  C13        -0.2443
    279  N3        34.2640   31.4400   26.4460 N.ar   13  C13        -0.1739
    280  C4        35.3350   31.5250   25.6420 C.ar   13  C13         0.1759
    281  N4        35.4950   32.6580   24.9550 N.pl3  13  C13        -0.1070
    282  C5        36.2750   30.4500   25.5100 C.ar   13  C13         0.0566
    283  C6        36.0410   29.3380   26.2300 C.ar   13  C13         0.0850
    284  OP1       37.4370   24.5800   24.4210 O.2    13  C13        -0.5172
    285  OP2       39.2420   24.1060   26.1810 O.co2  13  C13        -0.4373
    286  P         32.8600   23.9460   28.6710 P.3    14  G14         0.2141
    287  C5'       32.6780   23.6230   26.0250 C.3    14  G14         0.1812
    288  O5'       32.0850   24.0480   27.2640 O.3    14  G14        -0.3114
    289  C4'       31.7900   22.7250   25.1810 C.3    14  G14         0.1773
    290  O4'       32.0240   21.3180   25.4810 O.3    14  G14        -0.3307
    291  C3'       30.2960   22.8990   25.3540 C.3    14  G14         0.1860
    292  O3'       29.8510   23.9810   24.5640 O.3    14  G14        -0.3112
    293  C2'       29.7970   21.5510   24.8440 C.3    14  G14         0.2309
    294  O2'       29.8840   21.4400   23.4410 O.3    14  G14        -0.2156
    295  C1'       30.7980   20.6080   25.4970 C.3    14  G14         0.2408
    296  N1        27.4640   18.2510   28.5660 N.ar   14  G14        -0.1709
    297  C2        27.4690   18.3480   27.1930 C.ar   14  G14         0.2606
    298  N2        26.4640   17.7450   26.5440 N.pl3  14  G14        -0.0859
    299  N3        28.4010   18.9890   26.5000 N.ar   14  G14        -0.1918
    300  C4        29.3520   19.5410   27.2930 C.ar   14  G14         0.1723
    301  C5        29.4330   19.5000   28.6670 C.ar   14  G14         0.1748
    302  C6        28.4300   18.8150   29.3970 C.ar   14  G14         0.3023
    303  O6        28.3370   18.6710   30.6190 O.2    14  G14        -0.2633
    304  N7        30.5510   20.1880   29.1110 N.ar   14  G14        -0.2173
    305  C8        31.1130   20.6230   28.0170 C.ar   14  G14         0.1817
    306  N9        30.4430   20.2680   26.8720 N.ar   14  G14        -0.2693
    307  OP1       31.8330   24.0000   29.7320 O.3    14  G14        -0.4373
    308  OP2       33.8330   22.8270   28.6510 O.co2  14  G14        -0.5172
    309  P         28.7120   24.9540   25.1280 P.3    15  C15         0.2141
    310  C5'       27.2610   23.6160   23.4150 C.3    15  C15         0.1812
    311  O5'       27.3840   24.1600   24.7230 O.3    15  C15        -0.3114
    312  C4'       26.0420   22.7330   23.2770 C.3    15  C15         0.1773
    313  O4'       26.2690   21.4720   23.9560 O.3    15  C15        -0.3307
    314  C3'       24.7900   23.3010   23.9110 C.3    15  C15         0.1860
    315  O3'       24.1430   24.1780   23.0170 O.3    15  C15        -0.3112
    316  C2'       23.9860   22.0350   24.1680 C.3    15  C15         0.2309
    317  O2'       23.2880   21.5960   23.0200 O.3    15  C15        -0.2156
    318  C1'       25.0720   21.0350   24.5710 C.3    15  C15         0.2420
    319  N1        25.2500   20.9470   26.0700 N.ar   15  C15        -0.2535
    320  C2        24.3840   20.1540   26.8480 C.ar   15  C15         0.3532
    321  O2        23.4760   19.5120   26.3100 O.2    15  C15        -0.2443
    322  N3        24.5590   20.1020   28.1930 N.ar   15  C15        -0.1739
    323  C4        25.5400   20.8020   28.7650 C.ar   15  C15         0.1759
    324  N4        25.6760   20.7180   30.0880 N.pl3  15  C15        -0.1070
    325  C5        26.4270   21.6160   28.0070 C.ar   15  C15         0.0566
    326  C6        26.2470   21.6550   26.6830 C.ar   15  C15         0.0850
    327  OP1       28.8070   26.2230   24.3690 O.2    15  C15        -0.5172
    328  OP2       28.7580   24.9820   26.6080 O.co2  15  C15        -0.4373
    329  P         23.3670   25.4530   23.5920 P.3    16  G16         0.2141
    330  C5'       20.9290   24.5710   23.3680 C.3    16  G16         0.1812
    331  O5'       22.0270   24.8480   24.2130 O.3    16  G16        -0.3114
    332  C4'       19.9420   23.6090   24.0130 C.3    16  G16         0.1773
    333  O4'       20.6080   22.4830   24.6520 O.3    16  G16        -0.3307
    334  C3'       19.0630   24.2000   25.0990 C.3    16  G16         0.1860
    335  O3'       17.9670   24.8810   24.5160 O.3    16  G16        -0.3112
    336  C2'       18.6100   22.9370   25.8090 C.3    16  G16         0.2309
    337  O2'       17.5920   22.2620   25.1010 O.3    16  G16        -0.2156
    338  C1'       19.8940   22.1130   25.8160 C.3    16  G16         0.2408
    339  N1        20.3760   21.4000   30.8530 N.ar   16  G16        -0.1709
    340  C2        19.3570   21.0210   30.0110 C.ar   16  G16         0.2606
    341  N2        18.3400   20.3660   30.5790 N.pl3  16  G16        -0.0859
    342  N3        19.3370   21.2580   28.7060 N.ar   16  G16        -0.1918
    343  C4        20.4450   21.9320   28.2940 C.ar   16  G16         0.1723
    344  C5        21.5140   22.3620   29.0550 C.ar   16  G16         0.1748
    345  C6        21.5170   22.0900   30.4460 C.ar   16  G16         0.3023
    346  O6        22.3790   22.3910   31.2780 O.2    16  G16        -0.2633
    347  N7        22.4520   23.0190   28.2690 N.ar   16  G16        -0.2173
    348  C8        21.9410   22.9770   27.0720 C.ar   16  G16         0.1817
    349  N9        20.7260   22.3330   27.0050 N.ar   16  G16        -0.2693
    350  OP1       22.9990   26.3220   22.4510 O.2    16  G16        -0.5172
    351  OP2       24.1730   26.0040   24.7070 O.co2  16  G16        -0.4373
    352  P         17.3300   26.1460   25.2630 P.3    17  C17         0.2141
    353  C5'       15.2940   24.7420   26.1740 C.3    17  C17         0.1812
    354  O5'       16.5110   25.4280   26.4370 O.3    17  C17        -0.3114
    355  C4'       14.7380   24.1830   27.4690 C.3    17  C17         0.1773
    356  O4'       15.7100   23.2720   28.0380 O.3    17  C17        -0.3307
    357  C3'       14.5240   25.1870   28.5930 C.3    17  C17         0.1860
    358  O3'       13.2980   25.8920   28.4580 O.3    17  C17        -0.3112
    359  C2'       14.5260   24.2680   29.8070 C.3    17  C17         0.2309
    360  O2'       13.3230   23.5340   29.9470 O.3    17  C17        -0.2156
    361  C1'       15.6840   23.3370   29.4560 C.3    17  C17         0.2420
    362  N1        17.0180   23.7950   29.9870 N.ar   17  C17        -0.2535
    363  C2        17.3500   23.6220   31.3430 C.ar   17  C17         0.3532
    364  O2        16.5460   23.0870   32.1160 O.2    17  C17        -0.2443
    365  N3        18.5660   24.0560   31.7790 N.ar   17  C17        -0.1739
    366  C4        19.4290   24.6400   30.9370 C.ar   17  C17         0.1759
    367  N4        20.6100   25.0460   31.4080 N.pl3  17  C17        -0.1070
    368  C5        19.1120   24.8300   29.5600 C.ar   17  C17         0.0566
    369  C6        17.9160   24.3950   29.1430 C.ar   17  C17         0.0850
    370  OP1       16.3470   26.8200   24.3750 O.2    17  C17        -0.5172
    371  OP2       18.4640   26.9130   25.8410 O.co2  17  C17        -0.4373
    372  P         13.2140   27.4410   28.8770 P.3    18  C18         0.2141
    373  C5'       12.1160   26.7340   31.1670 C.3    18  C18         0.1812
    374  O5'       13.2110   27.3480   30.4790 O.3    18  C18        -0.3114
    375  C4'       12.4300   26.5170   32.6370 C.3    18  C18         0.1773
    376  O4'       13.5530   25.6080   32.7970 O.3    18  C18        -0.3307
    377  C3'       12.8700   27.7550   33.3950 C.3    18  C18         0.1860
    378  O3'       11.7480   28.5280   33.7420 O.3    18  C18        -0.3112
    379  C2'       13.5310   27.1050   34.6040 C.3    18  C18         0.2309
    380  O2'       12.6130   26.5770   35.5410 O.3    18  C18        -0.2156
    381  C1'       14.3240   25.9880   33.9250 C.3    18  C18         0.2420
    382  N1        15.7050   26.4520   33.5150 N.ar   18  C18        -0.2535
    383  C2        16.7140   26.6210   34.4860 C.ar   18  C18         0.3532
    384  O2        16.4760   26.3720   35.6740 O.2    18  C18        -0.2443
    385  N3        17.9420   27.0550   34.0950 N.ar   18  C18        -0.1739
    386  C4        18.1770   27.3230   32.8070 C.ar   18  C18         0.1759
    387  N4        19.3920   27.7450   32.4660 N.pl3  18  C18        -0.1070
    388  C5        17.1760   27.1710   31.8040 C.ar   18  C18         0.0566
    389  C6        15.9720   26.7410   32.2010 C.ar   18  C18         0.0850
    390  OP1       11.8850   27.9220   28.4400 O.3    18  C18        -0.4373
    391  OP2       14.4400   28.1590   28.4350 O.co2  18  C18        -0.5172
    392  P         11.8830   30.1100   33.9390 P.3    19  C19         0.2141
    393  C5'       11.8390   29.7360   36.5910 C.3    19  C19         0.1812
    394  O5'       12.5120   30.2200   35.4120 O.3    19  C19        -0.3114
    395  C4'       12.7640   29.7830   37.7990 C.3    19  C19         0.1773
    396  O4'       13.9710   29.0180   37.5480 O.3    19  C19        -0.3307
    397  C3'       13.2610   31.1750   38.1500 C.3    19  C19         0.1860
    398  O3'       12.3320   31.7900   39.0200 O.3    19  C19        -0.3112
    399  C2'       14.6000   30.9040   38.8310 C.3    19  C19         0.2309
    400  O2'       14.4800   30.6260   40.2130 O.3    19  C19        -0.2156
    401  C1'       15.1060   29.6580   38.1120 C.3    19  C19         0.2420
    402  N1        16.1700   29.9300   37.0620 N.ar   19  C19        -0.2535
    403  C2        17.5010   30.2150   37.4410 C.ar   19  C19         0.3532
    404  O2        17.8110   30.2520   38.6370 O.2    19  C19        -0.2443
    405  N3        18.4380   30.4520   36.4820 N.ar   19  C19        -0.1739
    406  C4        18.0970   30.4120   35.1960 C.ar   19  C19         0.1759
    407  N4        19.0460   30.6520   34.2970 N.pl3  19  C19        -0.1070
    408  C5        16.7630   30.1300   34.7800 C.ar   19  C19         0.0566
    409  C6        15.8460   29.8990   35.7320 C.ar   19  C19         0.0850
    410  OP1       10.5240   30.7040   33.9470 O.3    19  C19        -0.4373
    411  OP2       12.8930   30.5980   32.9770 O.co2  19  C19        -0.5172
    412  P         11.7610   33.2450   38.6910 P.3    20  G20         0.2141
    413  C5'       13.3980   34.3620   40.4050 C.3    20  G20         0.1812
    414  O5'       12.9980   34.1770   39.0580 O.3    20  G20        -0.3114
    415  C4'       14.8170   34.8840   40.4230 C.3    20  G20         0.1773
    416  O4'       15.6640   33.9640   39.6930 O.3    20  G20        -0.3307
    417  C3'       14.9920   36.2150   39.7200 C.3    20  G20         0.1860
    418  O3'       14.7620   37.2820   40.6250 O.3    20  G20        -0.3112
    419  C2'       16.4440   36.1590   39.2840 C.3    20  G20         0.2309
    420  O2'       17.3100   36.5070   40.3420 O.3    20  G20        -0.2156
    421  C1'       16.6340   34.6850   38.9580 C.3    20  G20         0.2408
    422  N1        19.3030   33.9390   34.6700 N.ar   20  G20        -0.1709
    423  C2        19.7390   34.3190   35.9140 C.ar   20  G20         0.2606
    424  N2        21.0480   34.5350   36.0630 N.pl3  20  G20        -0.0859
    425  N3        18.9370   34.4820   36.9520 N.ar   20  G20        -0.1918
    426  C4        17.6280   34.2380   36.6640 C.ar   20  G20         0.1723
    427  C5        17.0950   33.8540   35.4580 C.ar   20  G20         0.1748
    428  C6        17.9660   33.6830   34.3560 C.ar   20  G20         0.3023
    429  O6        17.6580   33.3500   33.2040 O.2    20  G20        -0.2633
    430  N7        15.7220   33.6980   35.5530 N.ar   20  G20        -0.2173
    431  C8        15.4550   33.9850   36.7990 C.ar   20  G20         0.1817
    432  N9        16.5620   34.3280   37.5370 N.ar   20  G20        -0.2693
    433  OP1       10.6780   33.5500   39.6510 O.3    20  G20        -0.4373
    434  OP2       11.5310   33.3790   37.2320 O.co2  20  G20        -0.5172
    435  P         13.4050   38.1130   40.4680 P.3    21  A21         0.2141
    436  C5'       13.7190   39.8900   42.4640 C.3    21  A21         0.1812
    437  O5'       13.6990   39.5810   41.0660 O.3    21  A21        -0.3114
    438  C4'       14.9500   40.6990   42.8620 C.3    21  A21         0.1773
    439  O4'       16.1480   39.9100   42.6500 O.3    21  A21        -0.3307
    440  C3'       15.2280   41.9660   42.0700 C.3    21  A21         0.1860
    441  O3'       14.4540   43.0540   42.5530 O.3    21  A21        -0.3112
    442  C2'       16.7290   42.1600   42.3030 C.3    21  A21         0.2309
    443  O2'       17.0600   42.7620   43.5360 O.3    21  A21        -0.2156
    444  C1'       17.2470   40.7300   42.2900 C.3    21  A21         0.2408
    445  N1        21.1570   40.7910   38.8850 N.ar   21  A21        -0.2040
    446  C2        21.0620   41.2670   40.1370 C.ar   21  A21         0.2016
    447  N3        20.0190   41.2140   40.9770 N.ar   21  A21        -0.2048
    448  C4        18.9660   40.5950   40.4160 C.ar   21  A21         0.1692
    449  C5        18.9160   40.0560   39.1410 C.ar   21  A21         0.1518
    450  C6        20.0810   40.1680   38.3530 C.ar   21  A21         0.1919
    451  N6        20.1520   39.6900   37.1130 N.pl3  21  A21        -0.1054
    452  N7        17.6790   39.4930   38.8900 N.ar   21  A21        -0.2193
    453  C8        17.0130   39.6970   39.9960 C.ar   21  A21         0.1816
    454  N9        17.7280   40.3510   40.9640 N.ar   21  A21        -0.2693
    455  OP1       12.3890   37.4200   41.2970 O.3    21  A21        -0.4373
    456  OP2       13.2110   38.3000   39.0070 O.co2  21  A21        -0.5172
    457  P         13.8030   44.1130   41.5370 P.3    22  G22         0.2141
    458  C5'       16.0080   45.5160   41.0520 C.3    22  G22         0.1812
    459  O5'       15.0430   44.5510   40.6190 O.3    22  G22        -0.3114
    460  C4'       17.2460   45.4820   40.1690 C.3    22  G22         0.1773
    461  O4'       17.7030   44.1230   39.9260 O.3    22  G22        -0.3307
    462  C3'       17.0620   46.0560   38.7750 C.3    22  G22         0.1860
    463  O3'       17.0730   47.4810   38.8330 O.3    22  G22        -0.3112
    464  C2'       18.2660   45.4340   38.0680 C.3    22  G22         0.2309
    465  O2'       19.5130   46.0210   38.3970 O.3    22  G22        -0.2156
    466  C1'       18.2070   44.0060   38.6020 C.3    22  G22         0.2408
    467  N1        17.4560   41.3830   34.2210 N.ar   22  G22        -0.1709
    468  C2        18.5660   42.0810   34.6130 C.ar   22  G22         0.2606
    469  N2        19.5690   42.0700   33.7340 N.pl3  22  G22        -0.0859
    470  N3        18.6730   42.7360   35.7720 N.ar   22  G22        -0.1918
    471  C4        17.5490   42.6300   36.5340 C.ar   22  G22         0.1723
    472  C5        16.3910   41.9580   36.2140 C.ar   22  G22         0.1748
    473  C6        16.2970   41.2810   34.9810 C.ar   22  G22         0.3023
    474  O6        15.3400   40.6380   34.5500 O.2    22  G22        -0.2633
    475  N7        15.4550   42.0620   37.2240 N.ar   22  G22        -0.2173
    476  C8        16.0430   42.7890   38.1240 C.ar   22  G22         0.1817
    477  N9        17.3200   43.1680   37.7900 N.ar   22  G22        -0.2693
    478  OP1       13.3300   45.2970   42.2930 O.3    22  G22        -0.4373
    479  OP2       12.8430   43.3620   40.6910 O.co2  22  G22        -0.5172
    480  P         16.2700   48.3840   37.7750 P.3    23  A23         0.2141
    481  C5'       18.5620   48.8780   36.5890 C.3    23  A23         0.1812
    482  O5'       17.2580   48.3030   36.5160 O.3    23  A23        -0.3114
    483  C4'       19.4290   48.4780   35.4080 C.3    23  A23         0.1773
    484  O4'       19.5870   47.0320   35.3700 O.3    23  A23        -0.3307
    485  C3'       18.8680   48.8260   34.0390 C.3    23  A23         0.1860
    486  O3'       19.1840   50.1520   33.6800 O.3    23  A23        -0.3112
    487  C2'       19.6280   47.8440   33.1720 C.3    23  A23         0.2309
    488  O2'       20.9420   48.3120   32.9640 O.3    23  A23        -0.2156
    489  C1'       19.5850   46.5780   34.0300 C.3    23  A23         0.2408
    490  N1        17.1780   43.2110   30.9500 N.ar   23  A23        -0.2040
    491  C2        18.4050   43.7460   30.8950 C.ar   23  A23         0.2016
    492  N3        18.9680   44.6130   31.7350 N.ar   23  A23        -0.2048
    493  C4        18.1300   44.9460   32.7350 C.ar   23  A23         0.1692
    494  C5        16.8410   44.4820   32.9200 C.ar   23  A23         0.1518
    495  C6        16.3540   43.5660   31.9680 C.ar   23  A23         0.1919
    496  N6        15.1270   43.0390   32.0360 N.pl3  23  A23        -0.1054
    497  N7        16.2780   45.0270   34.0520 N.ar   23  A23        -0.2193
    498  C8        17.2180   45.8080   34.5210 C.ar   23  A23         0.1816
    499  N9        18.3680   45.8050   33.7830 N.ar   23  A23        -0.2693
    500  OP1       16.2070   49.7850   38.2630 O.3    23  A23        -0.4373
    501  OP2       15.0090   47.6950   37.4180 O.co2  23  A23        -0.5172
    502  P         18.0600   51.0650   32.9910 P.3    24  U24         0.2141
    503  C5'       19.1230   50.5460   30.6500 C.3    24  U24         0.1812
    504  O5'       18.0020   50.4290   31.5230 O.3    24  U24        -0.3114
    505  C4'       19.1240   49.4630   29.5900 C.3    24  U24         0.1773
    506  O4'       18.8490   48.1730   30.1890 O.3    24  U24        -0.3307
    507  C3'       18.0420   49.6090   28.5340 C.3    24  U24         0.1860
    508  O3'       18.4160   50.5440   27.5370 O.3    24  U24        -0.3112
    509  C2'       17.9310   48.1850   28.0050 C.3    24  U24         0.2309
    510  O2'       18.9580   47.8400   27.0950 O.3    24  U24        -0.2156
    511  C1'       18.0760   47.3840   29.2960 C.3    24  U24         0.2420
    512  N1        16.7580   46.9930   29.9290 N.ar   24  U24        -0.2534
    513  C2        16.1060   45.8600   29.4780 C.ar   24  U24         0.3546
    514  O2        16.5490   45.1600   28.5890 O.2    24  U24        -0.2443
    515  N3        14.9130   45.5660   30.1050 N.ar   24  U24        -0.1530
    516  C4        14.3150   46.2920   31.1250 C.ar   24  U24         0.2846
    517  O4        13.2430   45.9300   31.6050 O.2    24  U24        -0.2650
    518  C5        15.0500   47.4640   31.5400 C.ar   24  U24         0.0814
    519  C6        16.2120   47.7640   30.9450 C.ar   24  U24         0.0870
    520  OP1       18.5570   52.4640   32.9420 O.2    24  U24        -0.5172
    521  OP2       16.7570   50.7810   33.6350 O.co2  24  U24        -0.4373
    522  P         17.4190   51.7580   27.2500 P.3    25  G25         0.2141
    523  C5'       16.1730   50.3230   25.4530 C.3    25  G25         0.1812
    524  O5'       16.1200   50.9880   26.7100 O.3    25  G25        -0.3114
    525  C4'       15.0650   49.3040   25.2630 C.3    25  G25         0.1773
    526  O4'       14.9220   48.4390   26.4160 O.3    25  G25        -0.3307
    527  C3'       13.6870   49.8940   25.0440 C.3    25  G25         0.1860
    528  O3'       13.5440   50.2460   23.6880 O.3    25  G25        -0.3112
    529  C2'       12.7820   48.7310   25.4340 C.3    25  G25         0.2309
    530  O2'       12.6440   47.7640   24.4130 O.3    25  G25        -0.2156
    531  C1'       13.5480   48.1410   26.6140 C.3    25  G25         0.2408
    532  N1        10.5830   47.4090   30.7380 N.ar   25  G25        -0.1709
    533  C2        10.6890   46.6350   29.6130 C.ar   25  G25         0.2606
    534  N2         9.9090   45.5460   29.6060 N.pl3  25  G25        -0.0859
    535  N3        11.4940   46.9190   28.5890 N.ar   25  G25        -0.1918
    536  C4        12.2010   48.0670   28.7840 C.ar   25  G25         0.1723
    537  C5        12.1580   48.9060   29.8780 C.ar   25  G25         0.1748
    538  C6        11.2960   48.5830   30.9570 C.ar   25  G25         0.3023
    539  O6        11.1160   49.2080   32.0110 O.2    25  G25        -0.2633
    540  N7        13.0190   49.9820   29.7180 N.ar   25  G25        -0.2173
    541  C8        13.5660   49.7780   28.5550 C.ar   25  G25         0.1817
    542  N9        13.1210   48.6390   27.9270 N.ar   25  G25        -0.2693
    543  OP1       17.9950   52.6040   26.1780 O.2    25  G25        -0.5172
    544  OP2       17.0710   52.3920   28.5450 O.co2  25  G25        -0.4373
    545  P         13.0420   51.7140   23.3120 P.3    26  A26         0.2141
    546  C5'       13.7740   54.1030   24.0440 C.3    26  A26         0.1812
    547  O5'       13.9440   52.6990   24.1820 O.3    26  A26        -0.3114
    548  C4'       13.4130   54.7340   25.3760 C.3    26  A26         0.1773
    549  O4'       12.2220   54.0990   25.9030 O.3    26  A26        -0.3307
    550  C3'       14.4730   54.6260   26.4730 C.3    26  A26         0.1860
    551  O3'       14.6340   55.8800   27.1300 O.3    26  A26        -0.3112
    552  C2'       13.8580   53.5870   27.4060 C.3    26  A26         0.2309
    553  O2'       14.3270   53.6980   28.7340 O.3    26  A26        -0.2156
    554  C1'       12.3830   53.9590   27.2920 C.3    26  A26         0.2408
    555  N1         9.5500   52.1930   31.2600 N.ar   26  A26        -0.2040
    556  C2        10.3170   53.2870   31.1270 C.ar   26  A26         0.2016
    557  N3        11.0250   53.7000   30.0680 N.ar   26  A26        -0.2048
    558  C4        10.8980   52.8430   29.0340 C.ar   26  A26         0.1692
    559  C5        10.1450   51.6790   29.0220 C.ar   26  A26         0.1518
    560  C6         9.4380   51.3560   30.2050 C.ar   26  A26         0.1919
    561  N6         8.6660   50.2710   30.3240 N.pl3  26  A26        -0.1054
    562  N7        10.2460   51.0490   27.7940 N.ar   26  A26        -0.2193
    563  C8        11.0450   51.8260   27.1020 C.ar   26  A26         0.1816
    564  N9        11.4770   52.9260   27.7840 N.ar   26  A26        -0.2693
    565  OP1       11.6370   51.8000   23.7660 O.3    26  A26        -0.4373
    566  OP2       13.3990   51.9650   21.8990 O.co2  26  A26        -0.5172
    567  P         15.6800   56.9820   26.6260 P.3    27  G27         0.2141
    568  C5'       14.2760   59.2420   26.9410 C.3    27  G27         0.1812
    569  O5'       15.2250   58.2910   27.4400 O.3    27  G27        -0.3114
    570  C4'       12.8260   58.7590   26.9710 C.3    27  G27         0.1773
    571  O4'       12.3030   58.6200   28.3300 O.3    27  G27        -0.3307
    572  C3'       11.8470   59.6980   26.2550 C.3    27  G27         0.1860
    573  O3'       10.8870   58.9190   25.5070 O.3    27  G27        -0.3112
    574  C2'       11.2520   60.4650   27.4410 C.3    27  G27         0.2309
    575  O2'       10.0350   61.1300   27.1760 O.3    27  G27        -0.2156
    576  C1'       11.0490   59.2890   28.3900 C.3    27  G27         0.2408
    577  N1         8.4370   57.9290   32.5750 N.ar   27  G27        -0.1709
    578  C2         8.5320   57.2810   31.3640 C.ar   27  G27         0.2606
    579  N2         7.8550   56.1280   31.2490 N.pl3  27  G27        -0.0859
    580  N3         9.2480   57.7370   30.3390 N.ar   27  G27        -0.1918
    581  C4         9.8740   58.9120   30.6190 C.ar   27  G27         0.1723
    582  C5         9.8370   59.6330   31.7960 C.ar   27  G27         0.1748
    583  C6         9.0720   59.1360   32.8820 C.ar   27  G27         0.3023
    584  O6         8.9270   59.6480   34.0020 O.2    27  G27        -0.2633
    585  N7        10.6010   60.7900   31.6990 N.ar   27  G27        -0.2173
    586  C8        11.0810   60.7470   30.4860 C.ar   27  G27         0.1817
    587  N9        10.6880   59.6360   29.7690 N.ar   27  G27        -0.2693
    588  OP1       15.4880   57.2080   25.1750 O.2    27  G27        -0.5172
    589  OP2       17.0090   56.5690   27.1260 O.co2  27  G27        -0.4373
    590  P          9.8390   59.5920   24.4910 P.3    28  U28         0.2141
    591  C5'       10.7250   57.7960   22.7850 C.3    28  U28         0.1812
    592  O5'        9.6210   58.4520   23.3900 O.3    28  U28        -0.3114
    593  C4'       10.3810   56.3550   22.4480 C.3    28  U28         0.1773
    594  O4'       10.7150   55.5050   23.5710 O.3    28  U28        -0.3307
    595  C3'        8.9090   56.0650   22.2020 C.3    28  U28         0.1860
    596  O3'        8.5840   56.3300   20.8530 O.3    28  U28        -0.3112
    597  C2'        8.8050   54.5810   22.5300 C.3    28  U28         0.2309
    598  O2'        9.2670   53.7470   21.4840 O.3    28  U28        -0.2156
    599  C1'        9.7530   54.4750   23.7180 C.3    28  U28         0.2420
    600  N1         9.1480   54.5570   25.1000 N.ar   28  U28        -0.2534
    601  C2         8.3400   53.5380   25.5790 C.ar   28  U28         0.3546
    602  O2         8.0430   52.5470   24.9400 O.2    28  U28        -0.2443
    603  N3         7.8660   53.7130   26.8550 N.ar   28  U28        -0.1530
    604  C4         8.1130   54.7780   27.6950 C.ar   28  U28         0.2846
    605  O4         7.6170   54.7980   28.8150 O.2    28  U28        -0.2650
    606  C5         8.9650   55.7980   27.1390 C.ar   28  U28         0.0814
    607  C6         9.4390   55.6520   25.8940 C.ar   28  U28         0.0870
    608  OP1       10.4820   60.7640   23.8590 O.2    28  U28        -0.5172
    609  OP2        8.5550   59.7570   25.2090 O.co2  28  U28        -0.4373
    610  P          7.1510   56.9300   20.4880 P.3    29  A29         0.2141
    611  C5'        6.0500   54.6930   19.6310 C.3    29  A29         0.1812
    612  O5'        6.1820   55.6680   20.6620 O.3    29  A29        -0.3114
    613  C4'        5.2890   53.4730   20.1270 C.3    29  A29         0.1773
    614  O4'        5.8270   53.0500   21.4030 O.3    29  A29        -0.3307
    615  C3'        3.8160   53.6960   20.4360 C.3    29  A29         0.1860
    616  O3'        3.0180   53.5850   19.2760 O.3    29  A29        -0.3112
    617  C2'        3.5070   52.5800   21.4230 C.3    29  A29         0.2309
    618  O2'        3.3710   51.3160   20.8060 O.3    29  A29        -0.2156
    619  C1'        4.7770   52.6080   22.2550 C.3    29  A29         0.2408
    620  N1         2.8410   53.0320   27.0190 N.ar   29  A29        -0.2040
    621  C2         2.6640   52.1120   26.0580 C.ar   29  A29         0.2016
    622  N3         3.2020   52.0670   24.8370 N.ar   29  A29        -0.2048
    623  C4         4.0060   53.1250   24.6210 C.ar   29  A29         0.1692
    624  C5         4.2830   54.1500   25.5080 C.ar   29  A29         0.1518
    625  C6         3.6570   54.0820   26.7710 C.ar   29  A29         0.1919
    626  N6         3.8290   55.0050   27.7220 N.pl3  29  A29        -0.1054
    627  N7         5.1520   55.0670   24.9470 N.ar   29  A29        -0.2193
    628  C8         5.3790   54.5820   23.7500 C.ar   29  A29         0.1816
    629  N9         4.7170   53.4160   23.4810 N.ar   29  A29        -0.2693
    630  OP1        7.1960   57.3210   19.0590 O.2    29  A29        -0.5172
    631  OP2        6.7980   57.9470   21.5070 O.co2  29  A29        -0.4373
    632  P          1.8280   54.6290   19.0570 P.3    30  G30         0.2141
    633  C5'        0.0770   53.2570   20.5230 C.3    30  G30         0.1812
    634  O5'        0.8840   54.4350   20.3440 O.3    30  G30        -0.3114
    635  C4'       -0.5220   53.1670   21.9230 C.3    30  G30         0.1773
    636  O4'        0.5150   53.1610   22.9430 O.3    30  G30        -0.3307
    637  C3'       -1.4220   54.3220   22.3360 C.3    30  G30         0.1860
    638  O3'       -2.7290   54.1520   21.8110 O.3    30  G30        -0.3112
    639  C2'       -1.3900   54.2000   23.8570 C.3    30  G30         0.2309
    640  O2'       -2.2110   53.1550   24.3460 O.3    30  G30        -0.2156
    641  C1'        0.0830   53.8770   24.0920 C.3    30  G30         0.2408
    642  N1         1.4240   57.6710   27.2740 N.ar   30  G30        -0.1709
    643  C2         0.5300   56.6400   27.4750 C.ar   30  G30         0.2606
    644  N2        -0.0850   56.6100   28.6650 N.pl3  30  G30        -0.0859
    645  N3         0.2600   55.7020   26.5700 N.ar   30  G30        -0.1918
    646  C4         0.9670   55.8760   25.4210 C.ar   30  G30         0.1723
    647  C5         1.8800   56.8730   25.1290 C.ar   30  G30         0.1748
    648  C6         2.1610   57.8690   26.1040 C.ar   30  G30         0.3023
    649  O6         2.9420   58.8310   26.0210 O.2    30  G30        -0.2633
    650  N7         2.3890   56.7110   23.8490 N.ar   30  G30        -0.2173
    651  C8         1.7890   55.6420   23.4000 C.ar   30  G30         0.1817
    652  N9         0.9100   55.0750   24.2960 N.ar   30  G30        -0.2693
    653  OP1        1.1070   54.1720   17.8450 O.2    30  G30        -0.5172
    654  OP2        2.4000   55.9980   19.1160 O.co2  30  G30        -0.4373
    655  P         -3.6220   55.4240   21.4170 P.3    31  G31         0.2141
    656  C5'       -4.8730   55.4090   23.7610 C.3    31  G31         0.1812
    657  O5'       -4.0160   56.0840   22.8290 O.3    31  G31        -0.3114
    658  C4'       -5.2340   56.2810   24.9550 C.3    31  G31         0.1773
    659  O4'       -4.1170   56.3620   25.8790 O.3    31  G31        -0.3307
    660  C3'       -5.5700   57.7250   24.6160 C.3    31  G31         0.1860
    661  O3'       -6.9500   57.8450   24.2830 O.3    31  G31        -0.3112
    662  C2'       -5.1940   58.4680   25.8990 C.3    31  G31         0.2309
    663  O2'       -6.2200   58.4800   26.8780 O.3    31  G31        -0.2156
    664  C1'       -3.9660   57.6860   26.3650 C.3    31  G31         0.2408
    665  N1        -0.4170   61.3680   26.8040 N.ar   31  G31        -0.1709
    666  C2        -1.5330   61.1460   27.5780 C.ar   31  G31         0.2606
    667  N2        -1.7240   62.0060   28.5850 N.pl3  31  G31        -0.0859
    668  N3        -2.3960   60.1510   27.3760 N.ar   31  G31        -0.1918
    669  C4        -2.0470   59.3710   26.3160 C.ar   31  G31         0.1723
    670  C5        -0.9540   59.5130   25.4860 C.ar   31  G31         0.1748
    671  C6        -0.0480   60.5780   25.7140 C.ar   31  G31         0.3023
    672  O6         0.9750   60.8490   25.0730 O.2    31  G31        -0.2633
    673  N7        -0.9330   58.5280   24.5120 N.ar   31  G31        -0.2173
    674  C8        -1.9950   57.8180   24.7630 C.ar   31  G31         0.1817
    675  N9        -2.7220   58.2620   25.8450 N.ar   31  G31        -0.2693
    676  OP1       -4.8380   54.9020   20.7520 O.3    31  G31        -0.4373
    677  OP2       -2.7510   56.3870   20.7050 O.co2  31  G31        -0.5172
    678  P         -7.4250   58.9020   23.1760 P.3    32  C32         0.2141
    679  C5'       -8.0650   60.7360   24.9300 C.3    32  C32         0.1812
    680  O5'       -7.1710   60.3120   23.9020 O.3    32  C32        -0.3114
    681  C4'       -7.5510   61.9270   25.7240 C.3    32  C32         0.1773
    682  O4'       -6.2310   61.6520   26.2630 O.3    32  C32        -0.3307
    683  C3'       -7.3560   63.2200   24.9420 C.3    32  C32         0.1860
    684  O3'       -8.5840   63.9190   24.7110 O.3    32  C32        -0.3112
    685  C2'       -6.4130   63.9730   25.8780 C.3    32  C32         0.2309
    686  O2'       -7.0520   64.5420   27.0070 O.3    32  C32        -0.2156
    687  C1'       -5.4690   62.8500   26.2990 C.3    32  C32         0.2420
    688  N1        -4.2650   62.7560   25.3930 N.ar   32  C32        -0.2535
    689  C2        -3.2130   63.6850   25.5340 C.ar   32  C32         0.3532
    690  O2        -3.2760   64.5640   26.4060 O.2    32  C32        -0.2443
    691  N3        -2.1390   63.5890   24.7020 N.ar   32  C32        -0.1739
    692  C4        -2.0890   62.6300   23.7660 C.ar   32  C32         0.1759
    693  N4        -1.0120   62.5840   22.9780 N.pl3  32  C32        -0.1070
    694  C5        -3.1420   61.6780   23.5980 C.ar   32  C32         0.0566
    695  C6        -4.1940   61.7810   24.4240 C.ar   32  C32         0.0850
    696  OP1       -8.8800   58.7150   22.9740 O.3    32  C32        -0.4373
    697  OP2       -6.5260   58.7680   22.0060 O.co2  32  C32        -0.5172
    698  P         -8.8680   64.5830   23.2740 P.3    33  U33         0.2141
    699  C5'       -7.8190   66.9500   23.9010 C.3    33  U33         0.1812
    700  O5'       -7.7500   65.7330   23.1450 O.3    33  U33        -0.3114
    701  C4'       -6.4900   67.6950   23.9400 C.3    33  U33         0.1773
    702  O4'       -5.3810   66.7880   24.1920 O.3    33  U33        -0.3307
    703  C3'       -6.0640   68.4020   22.6570 C.3    33  U33         0.1860
    704  O3'       -6.7620   69.6290   22.4400 O.3    33  U33        -0.3112
    705  C2'       -4.5780   68.6250   22.9380 C.3    33  U33         0.2309
    706  O2'       -4.3170   69.7010   23.8230 O.3    33  U33        -0.2156
    707  C1'       -4.2010   67.2880   23.5730 C.3    33  U33         0.2420
    708  N1        -3.6450   66.3060   22.5640 N.ar   33  U33        -0.2534
    709  C2        -2.3360   66.4440   22.1220 C.ar   33  U33         0.3546
    710  O2        -1.5780   67.3220   22.5030 O.2    33  U33        -0.2443
    711  N3        -1.9330   65.5020   21.2000 N.ar   33  U33        -0.1530
    712  C4        -2.6840   64.4570   20.6810 C.ar   33  U33         0.2846
    713  O4        -2.1880   63.6880   19.8610 O.2    33  U33        -0.2650
    714  C5        -4.0340   64.3790   21.1830 C.ar   33  U33         0.0814
    715  C6        -4.4490   65.2830   22.0810 C.ar   33  U33         0.0870
    716  OP1      -10.2050   65.2230   23.3200 O.3    33  U33        -0.4373
    717  OP2       -8.5850   63.5470   22.2500 O.co2  33  U33        -0.5172
    718  P         -6.8480   70.2780   20.9710 P.3    34  G34         0.2141
    719  C5'       -5.2680   72.3350   21.5090 C.3    34  G34         0.1812
    720  O5'       -5.4650   71.0800   20.8520 O.3    34  G34        -0.3114
    721  C4'       -3.9950   73.0030   21.0220 C.3    34  G34         0.1773
    722  O4'       -2.8490   72.1850   21.3800 O.3    34  G34        -0.3307
    723  C3'       -3.8890   73.1760   19.5110 C.3    34  G34         0.1860
    724  O3'       -4.5220   74.3870   19.0920 O.3    34  G34        -0.3112
    725  C2'       -2.3780   73.2080   19.2980 C.3    34  G34         0.2309
    726  O2'       -1.8250   74.4970   19.4890 O.3    34  G34        -0.2156
    727  C1'       -1.8710   72.2230   20.3530 C.3    34  G34         0.2408
    728  N1         1.1190   69.1860   17.5200 N.ar   34  G34        -0.1709
    729  C2         1.2870   70.5120   17.8520 C.ar   34  G34         0.2606
    730  N2         2.3840   71.1110   17.3700 N.pl3  34  G34        -0.0859
    731  N3         0.4340   71.2030   18.6040 N.ar   34  G34        -0.1918
    732  C4        -0.6230   70.4530   19.0110 C.ar   34  G34         0.1723
    733  C5        -0.8780   69.1260   18.7310 C.ar   34  G34         0.1748
    734  C6         0.0420   68.3990   17.9270 C.ar   34  G34         0.3023
    735  O6        -0.0150   67.2150   17.5710 O.2    34  G34        -0.2633
    736  N7        -2.0650   68.7200   19.3290 N.ar   34  G34        -0.2173
    737  C8        -2.4920   69.7870   19.9450 C.ar   34  G34         0.1817
    738  N9        -1.6690   70.8790   19.8020 N.ar   34  G34        -0.2693
    739  OP1       -7.9670   71.2530   20.9810 O.3    34  G34        -0.4373
    740  OP2       -6.8320   69.1870   19.9650 O.co2  34  G34        -0.5172
    741  P         -5.2050   74.5170   17.6440 P.3    35  U35         0.2141
    742  C5'       -3.1430   75.7570   16.5550 C.3    35  U35         0.1812
    743  O5'       -3.9430   74.5760   16.6590 O.3    35  U35        -0.3114
    744  C4'       -1.8600   75.4850   15.7890 C.3    35  U35         0.1773
    745  O4'       -1.1560   74.3700   16.4010 O.3    35  U35        -0.3307
    746  C3'       -2.0280   75.0400   14.3400 C.3    35  U35         0.1860
    747  O3'       -2.2850   76.1380   13.4570 O.3    35  U35        -0.3112
    748  C2'       -0.6740   74.3810   14.0890 C.3    35  U35         0.2309
    749  O2'        0.3670   75.3070   13.8350 O.3    35  U35        -0.2156
    750  C1'       -0.4370   73.6500   15.4120 C.3    35  U35         0.2420
    751  N1        -0.8630   72.1970   15.3720 N.ar   35  U35        -0.2534
    752  C2        -0.0070   71.2470   14.8300 C.ar   35  U35         0.3546
    753  O2         1.0970   71.4970   14.3780 O.2    35  U35        -0.2443
    754  N3        -0.4880   69.9590   14.8340 N.ar   35  U35        -0.1530
    755  C4        -1.7140   69.5260   15.3080 C.ar   35  U35         0.2846
    756  O4        -1.9980   68.3350   15.2410 O.2    35  U35        -0.2650
    757  C5        -2.5550   70.5610   15.8560 C.ar   35  U35         0.0814
    758  C6        -2.1070   71.8250   15.8640 C.ar   35  U35         0.0870
    759  OP1       -5.9240   75.8140   17.6040 O.3    35  U35        -0.4373
    760  OP2       -5.9440   73.2670   17.3480 O.co2  35  U35        -0.5172
    761  P         -3.1780   75.9470   12.1350 P.3    36  C36         0.2141
    762  C5'       -1.1200   75.6900   10.5290 C.3    36  C36         0.1812
    763  O5'       -2.2380   75.0830   11.1700 O.3    36  C36        -0.3114
    764  C4'       -0.0910   74.6600   10.1050 C.3    36  C36         0.1773
    765  O4'        0.1320   73.7080   11.1730 O.3    36  C36        -0.3307
    766  C3'       -0.4880   73.7740    8.9370 C.3    36  C36         0.1860
    767  O3'       -0.3250   74.4450    7.6940 O.3    36  C36        -0.3112
    768  C2'        0.5120   72.6400    9.1080 C.3    36  C36         0.2309
    769  O2'        1.8120   72.9890    8.6720 O.3    36  C36        -0.2156
    770  C1'        0.4860   72.4490   10.6230 C.3    36  C36         0.2420
    771  N1        -0.4680   71.3630   11.0780 N.ar   36  C36        -0.2535
    772  C2        -0.1340   70.0060   10.8980 C.ar   36  C36         0.3532
    773  O2         0.9420   69.7010   10.3690 O.2    36  C36        -0.2443
    774  N3        -1.0080   69.0480   11.3100 N.ar   36  C36        -0.1739
    775  C4        -2.1670   69.3920   11.8780 C.ar   36  C36         0.1759
    776  N4        -2.9910   68.4150   12.2660 N.pl3  36  C36        -0.1070
    777  C5        -2.5310   70.7580   12.0710 C.ar   36  C36         0.0566
    778  C6        -1.6640   71.6960   11.6610 C.ar   36  C36         0.0850
    779  OP1       -3.3860   77.2950   11.5560 O.2    36  C36        -0.5172
    780  OP2       -4.3450   75.0940   12.4580 O.co2  36  C36        -0.4373
    781  P         -1.2750   74.0870    6.4530 P.3    37  C37         0.2141
    782  C5'        0.4740   72.3700    5.5030 C.3    37  C37         0.1812
    783  O5'       -0.8140   72.5980    6.0720 O.3    37  C37        -0.3114
    784  C4'        0.7940   70.8920    5.3740 C.3    37  C37         0.1773
    785  O4'        0.6600   70.2100    6.6460 O.3    37  C37        -0.3307
    786  C3'       -0.1360   70.0900    4.4810 C.3    37  C37         0.1860
    787  O3'        0.1090   70.3500    3.1080 O.3    37  C37        -0.3112
    788  C2'        0.2530   68.6740    4.8880 C.3    37  C37         0.2309
    789  O2'        1.4590   68.2230    4.2980 O.3    37  C37        -0.2156
    790  C1'        0.4180   68.8310    6.3990 C.3    37  C37         0.2420
    791  N1        -0.7890   68.3370    7.1550 N.ar   37  C37        -0.2535
    792  C2        -1.0050   66.9540    7.2960 C.ar   37  C37         0.3532
    793  O2        -0.2010   66.1470    6.8150 O.2    37  C37        -0.2443
    794  N3        -2.0980   66.5260    7.9770 N.ar   37  C37        -0.1739
    795  C4        -2.9560   67.4080    8.4960 C.ar   37  C37         0.1759
    796  N4        -4.0140   66.9270    9.1530 N.pl3  37  C37        -0.1070
    797  C5        -2.7670   68.8170    8.3600 C.ar   37  C37         0.0566
    798  C6        -1.6840   69.2300    7.6870 C.ar   37  C37         0.0850
    799  OP1       -0.9330   75.0230    5.3560 O.2    37  C37        -0.5172
    800  OP2       -2.6760   74.0200    6.9330 O.co2  37  C37        -0.4373
    801  P         -1.0800   70.1770    2.0480 P.3    38  C38         0.2141
    802  C5'       -0.1520   67.7870    1.3960 C.3    38  C38         0.1812
    803  O5'       -1.2200   68.5840    1.9220 O.3    38  C38        -0.3114
    804  C4'       -0.4570   66.3000    1.4840 C.3    38  C38         0.1773
    805  O4'       -0.7230   65.9210    2.8560 O.3    38  C38        -0.3307
    806  C3'       -1.6860   65.8530    0.7060 C.3    38  C38         0.1860
    807  O3'       -1.3180   65.5580   -0.6390 O.3    38  C38        -0.3112
    808  C2'       -2.1340   64.5990    1.4510 C.3    38  C38         0.2309
    809  O2'       -1.5960   63.4160    0.8880 O.3    38  C38        -0.2156
    810  C1'       -1.6090   64.8150    2.8740 C.3    38  C38         0.2420
    811  N1        -2.7000   65.0570    3.8830 N.ar   38  C38        -0.2535
    812  C2        -3.3380   63.9660    4.5020 C.ar   38  C38         0.3532
    813  O2        -3.0030   62.8080    4.2190 O.2    38  C38        -0.2443
    814  N3        -4.3220   64.2080    5.4080 N.ar   38  C38        -0.1739
    815  C4        -4.6730   65.4620    5.7030 C.ar   38  C38         0.1759
    816  N4        -5.6460   65.6380    6.6010 N.pl3  38  C38        -0.1070
    817  C5        -4.0410   66.5850    5.0880 C.ar   38  C38         0.0566
    818  C6        -3.0750   66.3380    4.1940 C.ar   38  C38         0.0850
    819  OP1       -0.6180   70.7340    0.7580 O.2    38  C38        -0.5172
    820  OP2       -2.3270   70.6990    2.6510 O.co2  38  C38        -0.4373
    821  P         -2.1160   66.1830   -1.8820 P.3    39  A39         0.2141
    822  C5'       -3.9380   64.2520   -1.8240 C.3    39  A39         0.1812
    823  O5'       -3.6070   65.6370   -1.6810 O.3    39  A39        -0.3114
    824  C4'       -5.3560   64.0230   -1.3300 C.3    39  A39         0.1773
    825  O4'       -5.4690   64.5110    0.0310 O.3    39  A39        -0.3307
    826  C3'       -6.4400   64.7380   -2.1360 C.3    39  A39         0.1860
    827  O3'       -7.4940   63.8190   -2.4350 O.3    39  A39        -0.3112
    828  C2'       -6.8830   65.8890   -1.2300 C.3    39  A39         0.2309
    829  O2'       -8.2410   66.2530   -1.3950 O.3    39  A39        -0.2156
    830  C1'       -6.6290   65.3060    0.1590 C.3    39  A39         0.2408
    831  N1        -8.2930   67.5240    4.5340 N.ar   39  A39        -0.2040
    832  C2        -8.8020   66.5250    3.7950 C.ar   39  A39         0.2016
    833  N3        -8.3190   65.9940    2.6670 N.ar   39  A39        -0.2048
    834  C4        -7.1710   66.5940    2.2890 C.ar   39  A39         0.1692
    835  C5        -6.5310   67.6340    2.9470 C.ar   39  A39         0.1518
    836  C6        -7.1400   68.1120    4.1330 C.ar   39  A39         0.1919
    837  N6        -6.6320   69.1080    4.8690 N.pl3  39  A39        -0.1054
    838  N7        -5.3760   68.0020    2.2760 N.ar   39  A39        -0.2193
    839  C8        -5.3380   67.1940    1.2440 C.ar   39  A39         0.1816
    840  N9        -6.3890   66.3180    1.1860 N.ar   39  A39        -0.2693
    841  OP1       -1.5610   65.5680   -3.1100 O.2    39  A39        -0.5172
    842  OP2       -2.1410   67.6590   -1.7400 O.co2  39  A39        -0.4373
    843  P         -7.6770   63.2420   -3.9200 P.3    40  U40         0.2141
    844  C5'       -6.6500   60.9090   -3.1680 C.3    40  U40         0.1812
    845  O5'       -7.7430   61.6560   -3.7140 O.3    40  U40        -0.3114
    846  C4'       -7.1270   59.9020   -2.1250 C.3    40  U40         0.1773
    847  O4'       -7.5200   60.5970   -0.9080 O.3    40  U40        -0.3307
    848  C3'       -8.3300   59.0310   -2.5030 C.3    40  U40         0.1860
    849  O3'       -8.1980   57.7340   -1.9080 O.3    40  U40        -0.3112
    850  C2'       -9.4890   59.8110   -1.8780 C.3    40  U40         0.2309
    851  O2'      -10.6540   59.0280   -1.6990 O.3    40  U40        -0.2156
    852  C1'       -8.8310   60.1900   -0.5490 C.3    40  U40         0.2420
    853  N1        -9.5130   61.2480    0.2950 N.ar   40  U40        -0.2534
    854  C2       -10.3210   60.8560    1.3540 C.ar   40  U40         0.3546
    855  O2       -10.5320   59.6950    1.6540 O.2    40  U40        -0.2443
    856  N3       -10.8900   61.8810    2.0720 N.ar   40  U40        -0.1530
    857  C4       -10.7360   63.2370    1.8450 C.ar   40  U40         0.2846
    858  O4       -11.3120   64.0410    2.5720 O.2    40  U40        -0.2650
    859  C5        -9.8810   63.5750    0.7320 C.ar   40  U40         0.0814
    860  C6        -9.3130   62.5910    0.0170 C.ar   40  U40         0.0870
    861  OP1       -6.4670   63.5680   -4.7100 O.2    40  U40        -0.5172
    862  OP2       -9.0060   63.6840   -4.3970 O.co2  40  U40        -0.4373
    863  P         -7.5660   56.4630   -2.6600 P.3    41  C41         0.2141
    864  C5'       -6.5710   55.9080   -0.2980 C.3    41  C41         0.1812
    865  O5'       -6.3620   56.0170   -1.7030 O.3    41  C41        -0.3114
    866  C4'       -5.6490   56.8480    0.4560 C.3    41  C41         0.1773
    867  O4'       -6.3100   58.0960    0.7440 O.3    41  C41        -0.3307
    868  C3'       -5.2260   56.3760    1.8360 C.3    41  C41         0.1860
    869  O3'       -4.0720   55.5610    1.7070 O.3    41  C41        -0.3112
    870  C2'       -4.9590   57.6700    2.6120 C.3    41  C41         0.2309
    871  O2'       -3.5980   57.9010    2.9010 O.3    41  C41        -0.2156
    872  C1'       -5.4650   58.7500    1.6610 C.3    41  C41         0.2420
    873  N1        -6.2190   59.8400    2.3350 N.ar   41  C41        -0.2535
    874  C2        -7.4350   59.5940    3.0060 C.ar   41  C41         0.3532
    875  O2        -7.9160   58.4510    3.0560 O.2    41  C41        -0.2443
    876  N3        -8.0640   60.6420    3.6000 N.ar   41  C41        -0.1739
    877  C4        -7.5410   61.8710    3.5410 C.ar   41  C41         0.1759
    878  N4        -8.2090   62.8580    4.1420 N.pl3  41  C41        -0.1070
    879  C5        -6.3120   62.1370    2.8670 C.ar   41  C41         0.0566
    880  C6        -5.6950   61.1030    2.2840 C.ar   41  C41         0.0850
    881  OP1       -6.9710   56.9100   -3.9420 O.2    41  C41        -0.5172
    882  OP2       -8.5990   55.4020   -2.6430 O.co2  41  C41        -0.4373
    883  P         -3.9610   54.1940    2.5280 P.3    42  A42         0.2141
    884  C5'       -2.7280   54.7090    4.8080 C.3    42  A42         0.1812
    885  O5'       -3.9300   54.7230    4.0420 O.3    42  A42        -0.3114
    886  C4'       -2.9070   53.8690    6.0560 C.3    42  A42         0.1773
    887  O4'       -4.2340   54.0650    6.6020 O.3    42  A42        -0.3307
    888  C3'       -2.7640   52.3640    5.8390 C.3    42  A42         0.1860
    889  O3'       -1.6330   51.8490    6.5620 O.3    42  A42        -0.3112
    890  C2'       -4.0830   51.7900    6.3660 C.3    42  A42         0.2309
    891  O2'       -3.9300   50.5920    7.1010 O.3    42  A42        -0.2156
    892  C1'       -4.5440   52.8890    7.3090 C.3    42  A42         0.2408
    893  N1        -8.0910   52.6740   11.0840 N.ar   42  A42        -0.2040
    894  C2        -6.7540   52.7520   11.1270 C.ar   42  A42         0.2016
    895  N3        -5.8850   52.8050   10.1120 N.ar   42  A42        -0.2048
    896  C4        -6.5180   52.7780    8.9210 C.ar   42  A42         0.1692
    897  C5        -7.8840   52.7010    8.7260 C.ar   42  A42         0.1518
    898  C6        -8.6960   52.6460    9.8770 C.ar   42  A42         0.1919
    899  N6       -10.0270   52.5710    9.8190 N.pl3  42  A42        -0.1054
    900  N7        -8.1850   52.6930    7.3780 N.ar   42  A42        -0.2193
    901  C8        -7.0170   52.7620    6.7890 C.ar   42  A42         0.1816
    902  N9        -5.9650   52.8170    7.6550 N.ar   42  A42        -0.2693
    903  OP1       -2.6550   53.5770    2.1930 O.2    42  A42        -0.5172
    904  OP2       -5.2150   53.4280    2.3270 O.co2  42  A42        -0.4373
    905  P         -0.1290   52.2270    6.1540 P.3    43  G43         0.2141
    906  C5'        0.6950   51.3000    8.4840 C.3    43  G43         0.1812
    907  O5'        0.7850   51.2810    7.0610 O.3    43  G43        -0.3114
    908  C4'        0.9030   49.9120    9.0920 C.3    43  G43         0.1773
    909  O4'       -0.2610   49.0890    8.8140 O.3    43  G43        -0.3307
    910  C3'        2.1180   49.1100    8.6120 C.3    43  G43         0.1860
    911  O3'        2.6810   48.3530    9.6770 O.3    43  G43        -0.3112
    912  C2'        1.5190   48.1840    7.5630 C.3    43  G43         0.2309
    913  O2'        2.2290   46.9690    7.4200 O.3    43  G43        -0.2156
    914  C1'        0.1200   47.9190    8.1130 C.3    43  G43         0.2408
    915  N1        -1.6250   44.6060    4.6820 N.ar   43  G43        -0.1709
    916  C2        -0.6820   44.4260    5.6710 C.ar   43  G43         0.2606
    917  N2        -0.1230   43.2120    5.7590 N.pl3  43  G43        -0.0859
    918  N3        -0.3110   45.3740    6.5200 N.ar   43  G43        -0.1918
    919  C4        -0.9700   46.5380    6.3010 C.ar   43  G43         0.1723
    920  C5        -1.9220   46.8220    5.3470 C.ar   43  G43         0.1748
    921  C6        -2.3110   45.8010    4.4430 C.ar   43  G43         0.3023
    922  O6        -3.1480   45.8690    3.5290 O.2    43  G43        -0.2633
    923  N7        -2.3500   48.1400    5.4490 N.ar   43  G43        -0.2173
    924  C8        -1.6580   48.6170    6.4430 C.ar   43  G43         0.1817
    925  N9        -0.8070   47.7000    7.0110 N.ar   43  G43        -0.2693
    926  OP1        0.0990   53.6370    6.5520 O.3    43  G43        -0.4373
    927  OP2        0.0430   51.8200    4.7410 O.co2  43  G43        -0.5172
    928  P          4.2680   48.1930    9.8740 P.3    44  G44         0.2141
    929  C5'        6.2170   48.2020    8.0960 C.3    44  G44         0.1812
    930  O5'        4.8540   47.8970    8.4080 O.3    44  G44        -0.3114
    931  C4'        6.8330   47.1980    7.1330 C.3    44  G44         0.1773
    932  O4'        6.8940   45.8700    7.7260 O.3    44  G44        -0.3307
    933  C3'        6.0840   46.9760    5.8240 C.3    44  G44         0.1860
    934  O3'        6.3160   48.0260    4.8870 O.3    44  G44        -0.3112
    935  C2'        6.6990   45.6530    5.3780 C.3    44  G44         0.2309
    936  O2'        7.9900   45.7910    4.8190 O.3    44  G44        -0.2156
    937  C1'        6.7650   44.8930    6.7010 C.3    44  G44         0.2408
    938  N1         3.9660   40.9120    5.1340 N.ar   44  G44        -0.1709
    939  C2         5.1510   41.3900    4.6330 C.ar   44  G44         0.2606
    940  N2         5.6650   40.7330    3.5900 N.pl3  44  G44        -0.0859
    941  N3         5.7960   42.4370    5.1270 N.ar   44  G44        -0.1918
    942  C4         5.1500   42.9890    6.1840 C.ar   44  G44         0.1723
    943  C5         3.9660   42.5850    6.7550 C.ar   44  G44         0.1748
    944  C6         3.2880   41.4620    6.2220 C.ar   44  G44         0.3023
    945  O6         2.2240   40.9590    6.6080 O.2    44  G44        -0.2633
    946  N7         3.6280   43.4050    7.8200 N.ar   44  G44        -0.2173
    947  C8         4.5960   44.2760    7.8690 C.ar   44  G44         0.1817
    948  N9         5.5610   44.0850    6.9130 N.ar   44  G44        -0.2693
    949  OP1        4.4760   46.9720   10.6860 O.3    44  G44        -0.4373
    950  OP2        4.7810   49.5050   10.3410 O.co2  44  G44        -0.5172
    951  P          5.2960   48.2710    3.6710 P.3    45  G45         0.2141
    952  C5'        6.5670   46.9670    1.7130 C.3    45  G45         0.1812
    953  O5'        5.5450   46.9910    2.7250 O.3    45  G45        -0.3114
    954  C4'        6.3240   45.9250    0.6230 C.3    45  G45         0.1773
    955  O4'        6.3600   44.5720    1.1700 O.3    45  G45        -0.3307
    956  C3'        4.9810   45.9900   -0.1000 C.3    45  G45         0.1860
    957  O3'        4.9290   46.9890   -1.1260 O.3    45  G45        -0.3112
    958  C2'        4.8800   44.5700   -0.6600 C.3    45  G45         0.2309
    959  O2'        5.6720   44.3720   -1.8190 O.3    45  G45        -0.2156
    960  C1'        5.4000   43.7500    0.5210 C.3    45  G45         0.2408
    961  N1         1.3930   40.7200    1.5900 N.ar   45  G45        -0.1709
    962  C2         2.2130   40.7100    0.4890 C.ar   45  G45         0.2606
    963  N2         1.9340   39.7830   -0.4320 N.pl3  45  G45        -0.0859
    964  N3         3.2340   41.5440    0.3080 N.ar   45  G45        -0.1918
    965  C4         3.3770   42.4170    1.3410 C.ar   45  G45         0.1723
    966  C5         2.6050   42.5010    2.4810 C.ar   45  G45         0.1748
    967  C6         1.5240   41.6020    2.6580 C.ar   45  G45         0.3023
    968  O6         0.7260   41.5320    3.6010 O.2    45  G45        -0.2633
    969  N7         3.0550   43.5180    3.3040 N.ar   45  G45        -0.2173
    970  C8         4.0700   44.0190    2.6620 C.ar   45  G45         0.1817
    971  N9         4.3340   43.4030    1.4630 N.ar   45  G45        -0.2693
    972  OP1        5.7230   49.5040    2.9680 O.2    45  G45        -0.5172
    973  OP2        3.9080   48.1960    4.1960 O.co2  45  G45        -0.4373
    974  P          3.5550   47.7980   -1.3480 P.3    46  G46         0.2141
    975  C5'        2.4050   46.3020   -3.1570 C.3    46  G46         0.1812
    976  O5'        2.4870   46.6920   -1.7980 O.3    46  G46        -0.3114
    977  C4'        1.6910   44.9750   -3.3370 C.3    46  G46         0.1773
    978  O4'        1.9910   44.0450   -2.2640 O.3    46  G46        -0.3307
    979  C3'        0.1760   45.0410   -3.3030 C.3    46  G46         0.1860
    980  O3'       -0.3470   45.6050   -4.4830 O.3    46  G46        -0.3112
    981  C2'       -0.1310   43.5540   -3.1870 C.3    46  G46         0.2309
    982  O2'        0.0370   42.8060   -4.3780 O.3    46  G46        -0.2156
    983  C1'        0.9020   43.1430   -2.1380 C.3    46  G46         0.2408
    984  N1        -2.6290   41.2360    1.0020 N.ar   46  G46        -0.1709
    985  C2        -2.3150   40.8690   -0.2880 C.ar   46  G46         0.2606
    986  N2        -3.0210   39.8670   -0.8300 N.pl3  46  G46        -0.0859
    987  N3        -1.3620   41.4470   -1.0030 N.ar   46  G46        -0.1918
    988  C4        -0.7290   42.4450   -0.3290 C.ar   46  G46         0.1723
    989  C5        -0.9710   42.8880    0.9510 C.ar   46  G46         0.1748
    990  C6        -1.9940   42.2570    1.7170 C.ar   46  G46         0.3023
    991  O6        -2.3570   42.5070    2.8780 O.2    46  G46        -0.2633
    992  N7        -0.1030   43.9290    1.2690 N.ar   46  G46        -0.2173
    993  C8         0.6230   44.0940    0.2010 C.ar   46  G46         0.1817
    994  N9         0.3060   43.2220   -0.8070 N.ar   46  G46        -0.2693
    995  OP1        3.7790   48.7640   -2.4470 O.2    46  G46        -0.5172
    996  OP2        3.0980   48.2750   -0.0230 O.co2  46  G46        -0.4373
    997  P         -1.6740   46.4960   -4.4380 P.3    47  A47         0.2141
    998  C5'       -2.8940   44.3810   -5.3620 C.3    47  A47         0.1812
    999  O5'       -2.8520   45.4230   -4.3890 O.3    47  A47        -0.3114
   1000  C4'       -4.0680   43.4410   -5.1600 C.3    47  A47         0.1773
   1001  O4'       -3.7550   42.4610   -4.1340 O.3    47  A47        -0.3307
   1002  C3'       -5.3410   44.1230   -4.6880 C.3    47  A47         0.1860
   1003  O3'       -6.0730   44.6350   -5.7870 O.3    47  A47        -0.3112
   1004  C2'       -6.0510   42.9760   -3.9830 C.3    47  A47         0.2309
   1005  O2'       -6.7220   42.1180   -4.8810 O.3    47  A47        -0.2156
   1006  C1'       -4.8790   42.2820   -3.2900 C.3    47  A47         0.2408
   1007  N1        -6.5220   42.6130    1.5670 N.ar   47  A47        -0.2040
   1008  C2        -6.9700   41.9160    0.5150 C.ar   47  A47         0.2016
   1009  N3        -6.4800   41.8800   -0.7250 N.ar   47  A47        -0.2048
   1010  C4        -5.4000   42.6730   -0.8460 C.ar   47  A47         0.1692
   1011  C5        -4.8210   43.4500    0.1420 C.ar   47  A47         0.1518
   1012  C6        -5.4300   43.4000    1.4140 C.ar   47  A47         0.1919
   1013  N6        -4.9770   44.0900    2.4660 N.pl3  47  A47        -0.1054
   1014  N7        -3.7180   44.1330   -0.3410 N.ar   47  A47        -0.2193
   1015  C8        -3.6610   43.7590   -1.5960 C.ar   47  A47         0.1816
   1016  N9        -4.6400   42.8750   -1.9700 N.ar   47  A47        -0.2693
   1017  OP1       -1.7610   47.2180   -5.7240 O.2    47  A47        -0.5172
   1018  OP2       -1.6840   47.2520   -3.1680 O.co2  47  A47        -0.4373
   1019  P         -6.9500   45.9570   -5.5970 P.3    48  G48         0.2141
   1020  C5'       -9.0790   44.4500   -5.2270 C.3    48  G48         0.1812
   1021  O5'       -8.1820   45.4440   -4.7130 O.3    48  G48        -0.3114
   1022  C4'      -10.0450   43.9250   -4.1750 C.3    48  G48         0.1773
   1023  O4'       -9.3500   43.2610   -3.0830 O.3    48  G48        -0.3307
   1024  C3'      -10.8830   44.9800   -3.4750 C.3    48  G48         0.1860
   1025  O3'      -11.9550   45.4150   -4.2930 O.3    48  G48        -0.3112
   1026  C2'      -11.3460   44.2050   -2.2460 C.3    48  G48         0.2309
   1027  O2'      -12.3720   43.2770   -2.5310 O.3    48  G48        -0.2156
   1028  C1'      -10.0550   43.4870   -1.8660 C.3    48  G48         0.2408
   1029  N1        -9.3840   44.9570    3.0030 N.ar   48  G48        -0.1709
   1030  C2       -10.3480   44.1350    2.4670 C.ar   48  G48         0.2606
   1031  N2       -11.2490   43.6410    3.3250 N.pl3  48  G48        -0.0859
   1032  N3       -10.4240   43.8240    1.1750 N.ar   48  G48        -0.1918
   1033  C4        -9.4400   44.4060    0.4380 C.ar   48  G48         0.1723
   1034  C5        -8.4350   45.2390    0.8840 C.ar   48  G48         0.1748
   1035  C6        -8.3710   45.5630    2.2630 C.ar   48  G48         0.3023
   1036  O6        -7.5540   46.2880    2.8410 O.2    48  G48        -0.2633
   1037  N7        -7.6190   45.6310   -0.1680 N.ar   48  G48        -0.2173
   1038  C8        -8.1360   45.0400   -1.2080 C.ar   48  G48         0.1817
   1039  N9        -9.2440   44.2720   -0.9240 N.ar   48  G48        -0.2693
   1040  OP1       -7.4610   46.3690   -6.9260 O.2    48  G48        -0.5172
   1041  OP2       -6.1590   46.9080   -4.7860 O.co2  48  G48        -0.4373
   1042  P        -12.6370   46.8330   -3.9870 P.3    49  G49         0.2141
   1043  C5'      -13.8280   47.3780   -1.7510 C.3    49  G49         0.1812
   1044  O5'      -13.6830   46.4740   -2.8340 O.3    49  G49        -0.3114
   1045  C4'      -14.3130   46.6730   -0.5060 C.3    49  G49         0.1773
   1046  O4'      -13.2280   45.9490    0.1240 O.3    49  G49        -0.3307
   1047  C3'      -14.7570   47.6490    0.5620 C.3    49  G49         0.1860
   1048  O3'      -16.0870   48.0980    0.3100 O.3    49  G49        -0.3112
   1049  C2'      -14.5850   46.8130    1.8250 C.3    49  G49         0.2309
   1050  O2'      -15.5820   45.8180    1.9750 O.3    49  G49        -0.2156
   1051  C1'      -13.2250   46.1860    1.5220 C.3    49  G49         0.2408
   1052  N1       -10.3780   48.3850    5.2060 N.ar   49  G49        -0.1709
   1053  C2       -11.5040   47.6040    5.3340 C.ar   49  G49         0.2606
   1054  N2       -11.9220   47.3820    6.5880 N.pl3  49  G49        -0.0859
   1055  N3       -12.1710   47.0800    4.3060 N.ar   49  G49        -0.1918
   1056  C4       -11.6150   47.4040    3.1080 C.ar   49  G49         0.1723
   1057  C5       -10.4920   48.1790    2.8830 C.ar   49  G49         0.1748
   1058  C6        -9.7930   48.7290    3.9890 C.ar   49  G49         0.3023
   1059  O6        -8.7800   49.4380    3.9780 O.2    49  G49        -0.2633
   1060  N7       -10.2300   48.2860    1.5260 N.ar   49  G49        -0.2173
   1061  C8       -11.1800   47.5910    0.9650 C.ar   49  G49         0.1817
   1062  N9       -12.0640   47.0230    1.8560 N.ar   49  G49        -0.2693
   1063  OP1      -13.4020   47.2660   -5.1790 O.2    49  G49        -0.5172
   1064  OP2      -11.6010   47.7260   -3.4120 O.co2  49  G49        -0.4373
   1065  P        -16.4310   49.6600    0.4520 P.3    50  A50         0.2141
   1066  C5'      -17.6140   48.9950    2.6710 C.3    50  A50         0.1812
   1067  O5'      -16.6030   49.7700    2.0370 O.3    50  A50        -0.3114
   1068  C4'      -17.4510   49.0190    4.1740 C.3    50  A50         0.1773
   1069  O4'      -16.1250   48.5660    4.5300 O.3    50  A50        -0.3307
   1070  C3'      -17.5230   50.3980    4.7990 C.3    50  A50         0.1860
   1071  O3'      -18.8660   50.8190    4.9520 O.3    50  A50        -0.3112
   1072  C2'      -16.8050   50.1760    6.1230 C.3    50  A50         0.2309
   1073  O2'      -17.5780   49.4560    7.0610 O.3    50  A50        -0.2156
   1074  C1'      -15.6560   49.2960    5.6540 C.3    50  A50         0.2408
   1075  N1       -11.5080   51.8390    7.3930 N.ar   50  A50        -0.2040
   1076  C2       -12.5570   51.2990    8.0290 C.ar   50  A50         0.2016
   1077  N3       -13.6040   50.6540    7.5120 N.ar   50  A50        -0.2048
   1078  C4       -13.5190   50.5800    6.1720 C.ar   50  A50         0.1692
   1079  C5       -12.5050   51.0870    5.3780 C.ar   50  A50         0.1518
   1080  C6       -11.4500   51.7480    6.0430 C.ar   50  A50         0.1919
   1081  N6       -10.4070   52.2830    5.4020 N.pl3  50  A50        -0.1054
   1082  N7       -12.7460   50.8270    4.0400 N.ar   50  A50        -0.2193
   1083  C8       -13.8860   50.1800    4.0540 C.ar   50  A50         0.1816
   1084  N9       -14.4140   49.9960    5.3050 N.ar   50  A50        -0.2693
   1085  OP1      -17.7350   49.9190   -0.2020 O.2    50  A50        -0.5172
   1086  OP2      -15.2610   50.4690    0.0410 O.co2  50  A50        -0.4373
   1087  P        -19.2070   52.3110    4.4940 P.3    51  A51         0.2141
   1088  C5'      -18.8600   53.2740    6.9070 C.3    51  A51         0.1812
   1089  O5'      -18.3910   53.1770    5.5620 O.3    51  A51        -0.3114
   1090  C4'      -17.8460   53.9700    7.7890 C.3    51  A51         0.1773
   1091  O4'      -16.5820   53.2640    7.7160 O.3    51  A51        -0.3307
   1092  C3'      -17.5100   55.3960    7.3850 C.3    51  A51         0.1860
   1093  O3'      -18.4960   56.3130    7.8690 O.3    51  A51        -0.3112
   1094  C2'      -16.1430   55.5490    8.0480 C.3    51  A51         0.2309
   1095  O2'      -16.2120   55.7720    9.4420 O.3    51  A51        -0.2156
   1096  C1'      -15.5070   54.1840    7.7770 C.3    51  A51         0.2408
   1097  N1       -11.0270   55.2720    5.4290 N.ar   51  A51        -0.2040
   1098  C2       -11.4190   55.3900    6.7060 C.ar   51  A51         0.2016
   1099  N3       -12.6000   55.0850    7.2510 N.ar   51  A51        -0.2048
   1100  C4       -13.4500   54.5980    6.3320 C.ar   51  A51         0.1692
   1101  C5       -13.1910   54.4200    4.9840 C.ar   51  A51         0.1518
   1102  C6       -11.9070   54.7830    4.5280 C.ar   51  A51         0.1919
   1103  N6       -11.5240   54.6580    3.2550 N.pl3  51  A51        -0.1054
   1104  N7       -14.2940   53.9020    4.3330 N.ar   51  A51        -0.2193
   1105  C8       -15.1850   53.7820    5.2880 C.ar   51  A51         0.1816
   1106  N9       -14.7460   54.1760    6.5230 N.ar   51  A51        -0.2693
   1107  OP1      -20.6590   52.5510    4.6820 O.3    51  A51        -0.4373
   1108  OP2      -18.5920   52.5470    3.1690 O.co2  51  A51        -0.5172
   1109  P        -19.1790   57.3890    6.8820 P.3    52  U52         0.2141
   1110  C5'      -17.5090   59.2470    7.6360 C.3    52  U52         0.1812
   1111  O5'      -17.9520   58.3740    6.6070 O.3    52  U52        -0.3114
   1112  C4'      -16.9280   60.5110    7.0390 C.3    52  U52         0.1773
   1113  O4'      -15.6210   60.1810    6.5190 O.3    52  U52        -0.3307
   1114  C3'      -17.7300   61.1270    5.8860 C.3    52  U52         0.1860
   1115  O3'      -18.3010   62.4520    6.1590 O.3    52  U52        -0.3112
   1116  C2'      -16.8130   61.0130    4.6550 C.3    52  U52         0.2309
   1117  O2'      -16.7600   62.1710    3.8470 O.3    52  U52        -0.2156
   1118  C1'      -15.4310   60.7340    5.2340 C.3    52  U52         0.2420
   1119  N1       -14.6010   59.7920    4.3860 N.ar   52  U52        -0.2534
   1120  C2       -13.5070   60.2900    3.6920 C.ar   52  U52         0.3546
   1121  O2       -13.1530   61.4580    3.7190 O.2    52  U52        -0.2443
   1122  N3       -12.8250   59.3560    2.9480 N.ar   52  U52        -0.1530
   1123  C4       -13.1140   58.0090    2.8200 C.ar   52  U52         0.2846
   1124  O4       -12.4020   57.3090    2.1080 O.2    52  U52        -0.2650
   1125  C5       -14.2630   57.5590    3.5660 C.ar   52  U52         0.0814
   1126  C6       -14.9440   58.4470    4.3040 C.ar   52  U52         0.0870
   1127  OP1      -20.2320   58.1250    7.6220 O.3    52  U52        -0.4373
   1128  OP2      -19.5450   56.7260    5.6100 O.co2  52  U52        -0.5172
   1129  P        -17.5760   63.7300    6.8160 P.3    53  C53         0.2141
   1130  C5'      -17.3060   64.2460    9.3850 C.3    53  C53         0.1812
   1131  O5'      -18.1210   63.7360    8.3220 O.3    53  C53        -0.3114
   1132  C4'      -17.6660   63.6190   10.7230 C.3    53  C53         0.1773
   1133  O4'      -19.1070   63.4850   10.8450 O.3    53  C53        -0.3307
   1134  C3'      -17.0940   62.2280   10.9600 C.3    53  C53         0.1860
   1135  O3'      -16.6200   62.1380   12.2940 O.3    53  C53        -0.3112
   1136  C2'      -18.2940   61.3110   10.7530 C.3    53  C53         0.2309
   1137  O2'      -18.2390   60.1220   11.5110 O.3    53  C53        -0.2156
   1138  C1'      -19.4160   62.1810   11.2840 C.3    53  C53         0.2420
   1139  N1       -20.7410   61.7550   10.7610 N.ar   53  C53        -0.2535
   1140  C2       -21.6560   61.1340   11.6270 C.ar   53  C53         0.3532
   1141  O2       -21.3580   60.9540   12.8160 O.2    53  C53        -0.2443
   1142  N3       -22.8590   60.7490   11.1250 N.ar   53  C53        -0.1739
   1143  C4       -23.1480   60.9560    9.8340 C.ar   53  C53         0.1759
   1144  N4       -24.3440   60.5590    9.3890 N.pl3  53  C53        -0.1070
   1145  C5       -22.2300   61.5800    8.9360 C.ar   53  C53         0.0566
   1146  C6       -21.0510   61.9600    9.4400 C.ar   53  C53         0.0850
   1147  OP1      -18.1410   64.9210    6.1430 O.2    53  C53        -0.5172
   1148  OP2      -16.1060   63.5200    6.8400 O.co2  53  C53        -0.4373
   1149  P        -15.0580   62.1530   12.6280 P.3    54  G54         0.2141
   1150  C5'      -14.7540   59.5760   12.1660 C.3    54  G54         0.1812
   1151  O5'      -14.4630   60.9190   11.7990 O.3    54  G54        -0.3114
   1152  C4'      -14.2940   58.6000   11.0970 C.3    54  G54         0.1773
   1153  O4'      -14.6870   59.0490    9.7690 O.3    54  G54        -0.3307
   1154  C3'      -12.7910   58.4000   10.9780 C.3    54  G54         0.1860
   1155  O3'      -12.3050   57.5310   12.0000 O.3    54  G54        -0.3112
   1156  C2'      -12.7380   57.7570    9.5960 C.3    54  G54         0.2309
   1157  O2'      -13.2070   56.4230    9.5970 O.3    54  G54        -0.2156
   1158  C1'      -13.7050   58.6510    8.8210 C.3    54  G54         0.2408
   1159  N1       -10.2840   60.5910    5.4750 N.ar   54  G54        -0.1709
   1160  C2       -10.5780   59.2720    5.7270 C.ar   54  G54         0.2606
   1161  N2        -9.8910   58.3630    5.0180 N.pl3  54  G54        -0.0859
   1162  N3       -11.4890   58.8780    6.6170 N.ar   54  G54        -0.1918
   1163  C4       -12.1000   59.9170    7.2530 C.ar   54  G54         0.1723
   1164  C5       -11.8630   61.2640    7.0640 C.ar   54  G54         0.1748
   1165  C6       -10.8940   61.6730    6.1120 C.ar   54  G54         0.3023
   1166  O6       -10.5590   62.8270    5.8130 O.2    54  G54        -0.2633
   1167  N7       -12.6720   62.0280    7.8910 N.ar   54  G54        -0.2173
   1168  C8       -13.3670   61.1490    8.5550 C.ar   54  G54         0.1817
   1169  N9       -13.0820   59.8440    8.2300 N.ar   54  G54        -0.2693
   1170  OP1      -14.9310   61.8800   14.0790 O.3    54  G54        -0.4373
   1171  OP2      -14.4890   63.3960   12.0550 O.co2  54  G54        -0.5172
   1172  P        -10.9040   57.7810   12.7510 P.3    55  G55         0.2141
   1173  C5'       -9.7200   56.2560   10.9870 C.3    55  G55         0.1812
   1174  O5'       -9.8030   57.5150   11.6310 O.3    55  G55        -0.3114
   1175  C4'       -8.7660   56.3410    9.8150 C.3    55  G55         0.1773
   1176  O4'       -9.2750   57.2380    8.7990 O.3    55  G55        -0.3307
   1177  C3'       -7.4270   56.9630   10.1420 C.3    55  G55         0.1860
   1178  O3'       -6.6330   56.0730   10.8910 O.3    55  G55        -0.3112
   1179  C2'       -6.9180   57.2500    8.7340 C.3    55  G55         0.2309
   1180  O2'       -6.5090   56.1040    8.0150 O.3    55  G55        -0.2156
   1181  C1'       -8.1860   57.8310    8.1080 C.3    55  G55         0.2408
   1182  N1        -6.3040   62.3770    6.6440 N.ar   55  G55        -0.1709
   1183  C2        -5.8740   61.1090    6.3190 C.ar   55  G55         0.2606
   1184  N2        -4.8140   61.0240    5.5060 N.pl3  55  G55        -0.0859
   1185  N3        -6.4430   59.9930    6.7590 N.ar   55  G55        -0.1918
   1186  C4        -7.5000   60.2360    7.5740 C.ar   55  G55         0.1723
   1187  C5        -8.0030   61.4610    7.9600 C.ar   55  G55         0.1748
   1188  C6        -7.3880   62.6490    7.4820 C.ar   55  G55         0.3023
   1189  O6        -7.7030   63.8240    7.7220 O.2    55  G55        -0.2633
   1190  N7        -9.0940   61.2970    8.8020 N.ar   55  G55        -0.2173
   1191  C8        -9.2230   60.0040    8.9070 C.ar   55  G55         0.1817
   1192  N9        -8.2940   59.2910    8.1910 N.ar   55  G55        -0.2693
   1193  OP1      -10.7650   56.7340   13.7850 O.3    55  G55        -0.4373
   1194  OP2      -10.8200   59.2100   13.1320 O.co2  55  G55        -0.5172
   1195  P         -5.6590   56.6430   12.0290 P.3    56  G56         0.2141
   1196  C5'       -3.7160   56.0210   10.3650 C.3    56  G56         0.1812
   1197  O5'       -4.3670   57.0060   11.1660 O.3    56  G56        -0.3114
   1198  C4'       -2.8550   56.7000    9.3180 C.3    56  G56         0.1773
   1199  O4'       -3.6610   57.5470    8.4590 O.3    56  G56        -0.3307
   1200  C3'       -1.8160   57.6590    9.8740 C.3    56  G56         0.1860
   1201  O3'       -0.6880   56.9520   10.3650 O.3    56  G56        -0.3112
   1202  C2'       -1.5110   58.4840    8.6330 C.3    56  G56         0.2309
   1203  O2'       -0.7410   57.7820    7.6770 O.3    56  G56        -0.2156
   1204  C1'       -2.9200   58.7020    8.1030 C.3    56  G56         0.2408
   1205  N1        -2.9560   63.8110    8.4440 N.ar   56  G56        -0.1709
   1206  C2        -2.0850   62.9930    7.7570 C.ar   56  G56         0.2606
   1207  N2        -1.1070   63.5990    7.0750 N.pl3  56  G56        -0.0859
   1208  N3        -2.1710   61.6690    7.7340 N.ar   56  G56        -0.1918
   1209  C4        -3.2120   61.2080    8.4750 C.ar   56  G56         0.1723
   1210  C5        -4.1320   61.9440    9.1950 C.ar   56  G56         0.1748
   1211  C6        -4.0340   63.3590    9.2090 C.ar   56  G56         0.3023
   1212  O6        -4.7670   64.1710    9.7950 O.2    56  G56        -0.2633
   1213  N7        -5.0500   61.1110    9.8180 N.ar   56  G56        -0.2173
   1214  C8        -4.6730   59.9120    9.4740 C.ar   56  G56         0.1817
   1215  N9        -3.5700   59.8880    8.6580 N.ar   56  G56        -0.2693
   1216  OP1       -5.3140   55.5260   12.9410 O.3    56  G56        -0.4373
   1217  OP2       -6.2050   57.9060   12.5780 O.co2  56  G56        -0.5172
   1218  P          0.1750   57.5340   11.5820 P.3    57  G57         0.2141
   1219  C5'        1.8850   58.5370    9.8910 C.3    57  G57         0.1812
   1220  O5'        0.9170   58.7780   10.9060 O.3    57  G57        -0.3114
   1221  C4'        2.3510   59.8400    9.2810 C.3    57  G57         0.1773
   1222  O4'        1.2190   60.6190    8.8350 O.3    57  G57        -0.3307
   1223  C3'        3.0910   60.7510   10.2440 C.3    57  G57         0.1860
   1224  O3'        4.4460   60.3240   10.3150 O.3    57  G57        -0.3112
   1225  C2'        2.9370   62.0920    9.5430 C.3    57  G57         0.2309
   1226  O2'        3.8720   62.2630    8.4970 O.3    57  G57        -0.2156
   1227  C1'        1.5150   61.9970    8.9860 C.3    57  G57         0.2408
   1228  N1        -0.3970   66.3580   10.8230 N.ar   57  G57        -0.1709
   1229  C2         0.6390   66.1610    9.9330 C.ar   57  G57         0.2606
   1230  N2         1.2450   67.2610    9.4650 N.pl3  57  G57        -0.0859
   1231  N3         1.0490   64.9660    9.5210 N.ar   57  G57        -0.1918
   1232  C4         0.3310   63.9610   10.0820 C.ar   57  G57         0.1723
   1233  C5        -0.7140   64.0540   10.9790 C.ar   57  G57         0.1748
   1234  C6        -1.1420   65.3350   11.4090 C.ar   57  G57         0.3023
   1235  O6        -2.0530   65.6110   12.1980 O.2    57  G57        -0.2633
   1236  N7        -1.1840   62.7950   11.3210 N.ar   57  G57        -0.2173
   1237  C8        -0.4280   61.9810   10.6380 C.ar   57  G57         0.1817
   1238  N9         0.5150   62.6160    9.8600 N.ar   57  G57        -0.2693
   1239  OP1        1.1800   56.4990   11.9300 O.2    57  G57        -0.5172
   1240  OP2       -0.7360   58.0680   12.6230 O.co2  57  G57        -0.4373
   1241  P          5.3200   60.4910   11.6460 P.3    58  A58         0.2141
   1242  C5'        6.4850   62.5760   10.5450 C.3    58  A58         0.1812
   1243  O5'        5.6530   62.0630   11.5920 O.3    58  A58        -0.3114
   1244  C4'        6.6990   64.0800   10.6170 C.3    58  A58         0.1773
   1245  O4'        5.4910   64.7830   10.2190 O.3    58  A58        -0.3307
   1246  C3'        7.0400   64.6560   11.9860 C.3    58  A58         0.1860
   1247  O3'        8.4310   64.4940   12.2770 O.3    58  A58        -0.3112
   1248  C2'        6.6250   66.1160   11.7980 C.3    58  A58         0.2309
   1249  O2'        7.5890   66.8980   11.1160 O.3    58  A58        -0.2156
   1250  C1'        5.3460   65.9780   10.9700 C.3    58  A58         0.2408
   1251  N1         1.6250   68.5630   13.4880 N.ar   58  A58        -0.2040
   1252  C2         2.6910   68.9910   12.7930 C.ar   58  A58         0.2016
   1253  N3         3.6200   68.2670   12.1590 N.ar   58  A58        -0.2048
   1254  C4         3.3840   66.9460   12.2890 C.ar   58  A58         0.1692
   1255  C5         2.3310   66.3600   12.9770 C.ar   58  A58         0.1518
   1256  C6         1.4130   67.2310   13.6030 C.ar   58  A58         0.1919
   1257  N6         0.3560   66.8000   14.2980 N.pl3  58  A58        -0.1054
   1258  N7         2.4010   64.9830   12.9080 N.ar   58  A58        -0.2193
   1259  C8         3.4750   64.7650   12.1890 C.ar   58  A58         0.1816
   1260  N9         4.1220   65.9000   11.7770 N.ar   58  A58        -0.2693
   1261  OP1        6.5600   59.7010   11.4650 O.2    58  A58        -0.5172
   1262  OP2        4.4720   60.2160   12.8300 O.co2  58  A58        -0.4373
   1263  P          8.9380   64.1500   13.7650 P.3    59  C59         0.2141
   1264  C5'        9.5740   66.6850   14.0370 C.3    59  C59         0.1812
   1265  O5'        8.8170   65.5700   14.4960 O.3    59  C59        -0.3114
   1266  C4'        9.0020   67.9940   14.5500 C.3    59  C59         0.1773
   1267  O4'        7.6880   68.2260   13.9770 O.3    59  C59        -0.3307
   1268  C3'        8.7360   68.0540   16.0480 C.3    59  C59         0.1860
   1269  O3'        9.9140   68.2730   16.8140 O.3    59  C59        -0.3112
   1270  C2'        7.7560   69.2190   16.1100 C.3    59  C59         0.2309
   1271  O2'        8.3670   70.4750   15.8800 O.3    59  C59        -0.2156
   1272  C1'        6.8480   68.8460   14.9420 C.3    59  C59         0.2420
   1273  N1         5.6870   67.9450   15.3370 N.ar   59  C59        -0.2535
   1274  C2         4.5070   68.5110   15.8610 C.ar   59  C59         0.3532
   1275  O2         4.4130   69.7380   15.9960 O.2    59  C59        -0.2443
   1276  N3         3.4780   67.6880   16.2090 N.ar   59  C59        -0.1739
   1277  C4         3.5890   66.3630   16.0580 C.ar   59  C59         0.1759
   1278  N4         2.5500   65.6040   16.4130 N.pl3  59  C59        -0.1070
   1279  C5         4.7720   65.7620   15.5320 C.ar   59  C59         0.0566
   1280  C6         5.7780   66.5820   15.1940 C.ar   59  C59         0.0850
   1281  OP1       10.3600   63.7490   13.6780 O.2    59  C59        -0.5172
   1282  OP2        7.9870   63.2190   14.4160 O.co2  59  C59        -0.4373
   1283  P         10.0560   67.5300   18.2290 P.3    60  G60         0.2141
   1284  C5'        8.6150   68.2370   20.3500 C.3    60  G60         0.1812
   1285  O5'        8.6780   67.8980   18.9650 O.3    60  G60        -0.3114
   1286  C4'        7.8400   69.5260   20.5850 C.3    60  G60         0.1773
   1287  O4'        6.8410   69.7390   19.5460 O.3    60  G60        -0.3307
   1288  C3'        7.0580   69.5490   21.8930 C.3    60  G60         0.1860
   1289  O3'        7.8600   70.0450   22.9720 O.3    60  G60        -0.3112
   1290  C2'        5.8950   70.4790   21.5530 C.3    60  G60         0.2309
   1291  O2'        6.2400   71.8500   21.5990 O.3    60  G60        -0.2156
   1292  C1'        5.5800   70.0500   20.1200 C.3    60  G60         0.2408
   1293  N1         1.0230   67.8540   21.2250 N.ar   60  G60        -0.1709
   1294  C2         1.4740   69.1040   21.5730 C.ar   60  G60         0.2606
   1295  N2         0.6240   69.8510   22.2920 N.pl3  60  G60        -0.0859
   1296  N3         2.6730   69.5800   21.2360 N.ar   60  G60        -0.1918
   1297  C4         3.4120   68.6970   20.5060 C.ar   60  G60         0.1723
   1298  C5         3.0400   67.4250   20.1140 C.ar   60  G60         0.1748
   1299  C6         1.7580   66.9290   20.4800 C.ar   60  G60         0.3023
   1300  O6         1.2640   65.8220   20.2160 O.2    60  G60        -0.2633
   1301  N7         4.0510   66.8140   19.3830 N.ar   60  G60        -0.2173
   1302  C8         4.9960   67.7090   19.3460 C.ar   60  G60         0.1817
   1303  N9         4.6940   68.8800   20.0030 N.ar   60  G60        -0.2693
   1304  OP1       11.1910   68.1630   18.9380 O.3    60  G60        -0.4373
   1305  OP2       10.0600   66.0650   18.0000 O.co2  60  G60        -0.5172
   1306  P          7.8630   69.3200   24.4040 P.3    61  G61         0.2141
   1307  C5'        6.0680   70.8900   25.5190 C.3    61  G61         0.1812
   1308  O5'        6.3920   69.6110   24.9730 O.3    61  G61        -0.3114
   1309  C4'        4.6980   70.9050   26.1790 C.3    61  G61         0.1773
   1310  O4'        3.6540   70.6670   25.1980 O.3    61  G61        -0.3307
   1311  C3'        4.4570   69.8400   27.2410 C.3    61  G61         0.1860
   1312  O3'        5.0330   70.2300   28.4840 O.3    61  G61        -0.3112
   1313  C2'        2.9300   69.7950   27.2690 C.3    61  G61         0.2309
   1314  O2'        2.3470   70.8900   27.9590 O.3    61  G61        -0.2156
   1315  C1'        2.6170   69.8860   25.7740 C.3    61  G61         0.2408
   1316  N1        -0.1800   65.7050   24.7060 N.ar   61  G61        -0.1709
   1317  C2        -0.5000   66.7850   25.4980 C.ar   61  G61         0.2606
   1318  N2        -1.7100   66.7550   26.0740 N.pl3  61  G61        -0.0859
   1319  N3         0.3080   67.8220   25.7080 N.ar   61  G61        -0.1918
   1320  C4         1.4920   67.7000   25.0520 C.ar   61  G61         0.1723
   1321  C5         1.9010   66.6610   24.2400 C.ar   61  G61         0.1748
   1322  C6         1.0280   65.5600   24.0230 C.ar   61  G61         0.3023
   1323  O6         1.2260   64.5470   23.3350 O.2    61  G61        -0.2633
   1324  N7         3.1770   66.8940   23.7500 N.ar   61  G61        -0.2173
   1325  C8         3.5080   68.0450   24.2620 C.ar   61  G61         0.1817
   1326  N9         2.5390   68.6000   25.0670 N.ar   61  G61        -0.2693
   1327  OP1        8.8550   70.0250   25.2500 O.3    61  G61        -0.4373
   1328  OP2        7.9880   67.8580   24.1820 O.co2  61  G61        -0.5172
   1329  P          5.7390   69.1470   29.4340 P.3    62  C62         0.2141
   1330  C5'        3.6690   68.9160   31.0430 C.3    62  C62         0.1812
   1331  O5'        4.5010   68.3370   30.0430 O.3    62  C62        -0.3114
   1332  C4'        2.3870   68.1230   31.1970 C.3    62  C62         0.1773
   1333  O4'        1.7440   67.9550   29.9040 O.3    62  C62        -0.3307
   1334  C3'        2.5560   66.6900   31.6790 C.3    62  C62         0.1860
   1335  O3'        2.8040   66.6200   33.0800 O.3    62  C62        -0.3112
   1336  C2'        1.2040   66.1090   31.2750 C.3    62  C62         0.2309
   1337  O2'        0.1480   66.5020   32.1340 O.3    62  C62        -0.2156
   1338  C1'        1.0310   66.7270   29.8850 C.3    62  C62         0.2420
   1339  N1         1.5170   65.8300   28.7640 N.ar   62  C62        -0.2535
   1340  C2         0.7040   64.7790   28.2910 C.ar   62  C62         0.3532
   1341  O2        -0.4150   64.5900   28.7820 O.2    62  C62        -0.2443
   1342  N3         1.1650   63.9800   27.2890 N.ar   62  C62        -0.1739
   1343  C4         2.3760   64.1900   26.7620 C.ar   62  C62         0.1759
   1344  N4         2.7790   63.3830   25.7770 N.pl3  62  C62        -0.1070
   1345  C5         3.2230   65.2470   27.2210 C.ar   62  C62         0.0566
   1346  C6         2.7580   66.0270   28.2100 C.ar   62  C62         0.0850
   1347  OP1        6.4140   69.8970   30.5160 O.3    62  C62        -0.4373
   1348  OP2        6.5220   68.1980   28.6080 O.co2  62  C62        -0.5172
   1349  P          3.9130   65.6080   33.6500 P.3    63  U63         0.2141
   1350  C5'        2.1890   63.6640   34.0260 C.3    63  U63         0.1812
   1351  O5'        3.3190   64.1600   33.3120 O.3    63  U63        -0.3114
   1352  C4'        1.4950   62.5380   33.2790 C.3    63  U63         0.1773
   1353  O4'        1.3680   62.8400   31.8640 O.3    63  U63        -0.3307
   1354  C3'        2.2260   61.2050   33.2830 C.3    63  U63         0.1860
   1355  O3'        2.0950   60.5340   34.5370 O.3    63  U63        -0.3112
   1356  C2'        1.4910   60.4950   32.1500 C.3    63  U63         0.2309
   1357  O2'        0.2250   59.9930   32.5320 O.3    63  U63        -0.2156
   1358  C1'        1.3280   61.6230   31.1310 C.3    63  U63         0.2420
   1359  N1         2.3730   61.6020   30.0290 N.ar   63  U63        -0.2534
   1360  C2         2.2770   60.6610   29.0070 C.ar   63  U63         0.3546
   1361  O2         1.3930   59.8260   28.9250 O.2    63  U63        -0.2443
   1362  N3         3.2700   60.7210   28.0570 N.ar   63  U63        -0.1530
   1363  C4         4.3320   61.6080   28.0180 C.ar   63  U63         0.2846
   1364  O4         5.1410   61.5360   27.0980 O.2    63  U63        -0.2650
   1365  C5         4.3760   62.5560   29.1090 C.ar   63  U63         0.0814
   1366  C6         3.4170   62.5180   30.0480 C.ar   63  U63         0.0870
   1367  OP1        3.9520   65.7900   35.1180 O.3    63  U63        -0.4373
   1368  OP2        5.1620   65.7640   32.8700 O.co2  63  U63        -0.5172
   1369  P          3.3150   59.6770   35.1280 P.3    64  G64         0.2141
   1370  C5'        2.4090   57.4610   34.0290 C.3    64  G64         0.1812
   1371  O5'        3.4220   58.4490   34.1200 O.3    64  G64        -0.3114
   1372  C4'        2.6520   56.6470   32.7760 C.3    64  G64         0.1773
   1373  O4'        2.5780   57.5150   31.6120 O.3    64  G64        -0.3307
   1374  C3'        4.0500   56.0610   32.6460 C.3    64  G64         0.1860
   1375  O3'        4.2750   54.9170   33.4620 O.3    64  G64        -0.3112
   1376  C2'        4.0840   55.7900   31.1440 C.3    64  G64         0.2309
   1377  O2'        3.2100   54.7560   30.7400 O.3    64  G64        -0.2156
   1378  C1'        3.5480   57.1260   30.6490 C.3    64  G64         0.2408
   1379  N1         7.0690   59.1510   27.5440 N.ar   64  G64        -0.1709
   1380  C2         6.1900   58.1190   27.3110 C.ar   64  G64         0.2606
   1381  N2         6.2530   57.5450   26.0990 N.pl3  64  G64        -0.0859
   1382  N3         5.3120   57.6810   28.2100 N.ar   64  G64        -0.1918
   1383  C4         5.3770   58.3620   29.3820 C.ar   64  G64         0.1723
   1384  C5         6.2180   59.4020   29.7070 C.ar   64  G64         0.1748
   1385  C6         7.1510   59.8590   28.7410 C.ar   64  G64         0.3023
   1386  O6         7.9790   60.7720   28.8470 O.2    64  G64        -0.2633
   1387  N7         5.9820   59.8410   31.0010 N.ar   64  G64        -0.2173
   1388  C8         5.0230   59.0670   31.4230 C.ar   64  G64         0.1817
   1389  N9         4.5970   58.1430   30.4960 N.ar   64  G64        -0.2693
   1390  OP1        2.9170   59.1570   36.4550 O.3    64  G64        -0.4373
   1391  OP2        4.5650   60.4580   34.9740 O.co2  64  G64        -0.5172
   1392  P          5.7900   54.5580   33.8630 P.3    65  A65         0.2141
   1393  C5'        6.4190   52.2970   32.6590 C.3    65  A65         0.1812
   1394  O5'        6.2900   53.7120   32.5960 O.3    65  A65        -0.3114
   1395  C4'        5.1030   51.5910   32.3880 C.3    65  A65         0.1773
   1396  O4'        4.4110   52.1830   31.2550 O.3    65  A65        -0.3307
   1397  C3'        5.2830   50.1250   32.0210 C.3    65  A65         0.1860
   1398  O3'        5.3220   49.3220   33.1900 O.3    65  A65        -0.3112
   1399  C2'        4.0520   49.8500   31.1630 C.3    65  A65         0.2309
   1400  O2'        2.8850   49.6140   31.9230 O.3    65  A65        -0.2156
   1401  C1'        3.9440   51.1620   30.3840 C.3    65  A65         0.2408
   1402  N1         4.6730   49.0270   25.6940 N.ar   65  A65        -0.2040
   1403  C2         3.8020   48.7500   26.6760 C.ar   65  A65         0.2016
   1404  N3         3.6680   49.3380   27.8680 N.ar   65  A65        -0.2048
   1405  C4         4.5600   50.3340   28.0310 C.ar   65  A65         0.1692
   1406  C5         5.5150   50.7320   27.1070 C.ar   65  A65         0.1518
   1407  C6         5.5540   50.0310   25.8790 C.ar   65  A65         0.1919
   1408  N6         6.4120   50.2990   24.8930 N.pl3  65  A65        -0.1054
   1409  N7         6.2550   51.7870   27.6040 N.ar   65  A65        -0.2193
   1410  C8         5.7450   52.0030   28.7930 C.ar   65  A65         0.1816
   1411  N9         4.7130   51.1680   29.1260 N.ar   65  A65        -0.2693
   1412  OP1        5.7590   53.6720   35.0530 O.3    65  A65        -0.4373
   1413  OP2        6.5710   55.8190   33.9020 O.co2  65  A65        -0.5172
   1414  P          6.4620   48.2160   33.3900 P.3    66  A66         0.2141
   1415  C5'        4.8190   46.3670   32.4800 C.3    66  A66         0.1812
   1416  O5'        6.0380   47.0910   32.3330 O.3    66  A66        -0.3114
   1417  C4'        4.4860   45.6170   31.2050 C.3    66  A66         0.1773
   1418  O4'        4.3350   46.5670   30.1200 O.3    66  A66        -0.3307
   1419  C3'        5.5530   44.6520   30.7090 C.3    66  A66         0.1860
   1420  O3'        5.4490   43.3960   31.3740 O.3    66  A66        -0.3112
   1421  C2'        5.1900   44.5650   29.2310 C.3    66  A66         0.2309
   1422  O2'        4.0570   43.7520   28.9940 O.3    66  A66        -0.2156
   1423  C1'        4.8330   46.0090   28.9180 C.3    66  A66         0.2408
   1424  N1         7.9540   47.1090   24.9510 N.ar   66  A66        -0.2040
   1425  C2         6.9730   46.2080   25.0790 C.ar   66  A66         0.2016
   1426  N3         6.2050   45.9720   26.1440 N.ar   66  A66        -0.2048
   1427  C4         6.5190   46.7850   27.1710 C.ar   66  A66         0.1692
   1428  C5         7.5020   47.7590   27.1820 C.ar   66  A66         0.1518
   1429  C6         8.2510   47.9150   25.9970 C.ar   66  A66         0.1919
   1430  N6         9.2290   48.8180   25.8680 N.pl3  66  A66        -0.1054
   1431  N7         7.5430   48.4090   28.4030 N.ar   66  A66        -0.2193
   1432  C8         6.5980   47.8220   29.0980 C.ar   66  A66         0.1816
   1433  N9         5.9390   46.8310   28.4210 N.ar   66  A66        -0.2693
   1434  OP1        6.2970   47.6840   34.7630 O.3    66  A66        -0.4373
   1435  OP2        7.7770   48.7550   32.9650 O.co2  66  A66        -0.5172
   1436  P          6.6860   42.3730   31.4280 P.3    67  A67         0.2141
   1437  C5'        5.5440   40.9720   29.5160 C.3    67  A67         0.1812
   1438  O5'        6.6820   41.7000   29.9780 O.3    67  A67        -0.3114
   1439  C4'        5.7150   40.6080   28.0540 C.3    67  A67         0.1773
   1440  O4'        5.7670   41.7980   27.2190 O.3    67  A67        -0.3307
   1441  C3'        7.0230   39.9100   27.7520 C.3    67  A67         0.1860
   1442  O3'        6.9760   38.5350   28.1110 O.3    67  A67        -0.3112
   1443  C2'        7.1260   40.1560   26.2520 C.3    67  A67         0.2309
   1444  O2'        6.2610   39.3170   25.5130 O.3    67  A67        -0.2156
   1445  C1'        6.6710   41.6050   26.1450 C.3    67  A67         0.2408
   1446  N1        10.2350   44.4950   23.6740 N.ar   67  A67        -0.2040
   1447  C2         9.3780   43.5700   23.2150 C.ar   67  A67         0.2016
   1448  N3         8.4810   42.8500   23.9040 N.ar   67  A67        -0.2048
   1449  C4         8.5010   43.1530   25.2190 C.ar   67  A67         0.1692
   1450  C5         9.3310   44.0820   25.8260 C.ar   67  A67         0.1518
   1451  C6        10.2320   44.7790   24.9980 C.ar   67  A67         0.1919
   1452  N6        11.0820   45.6960   25.4690 N.pl3  67  A67        -0.1054
   1453  N7         9.0910   44.1420   27.1820 N.ar   67  A67        -0.2193
   1454  C8         8.1380   43.2630   27.3720 C.ar   67  A67         0.1816
   1455  N9         7.7260   42.6200   26.2350 N.ar   67  A67        -0.2693
   1456  OP1        6.3660   41.3150   32.4120 O.3    67  A67        -0.4373
   1457  OP2        7.9470   43.1480   31.5390 O.co2  67  A67        -0.5172
   1458  P          8.3380   37.8300   28.5910 P.3    68  G68         0.2141
   1459  C5'        8.7570   36.8540   26.1900 C.3    68  G68         0.1812
   1460  O5'        9.1810   37.7300   27.2360 O.3    68  G68        -0.3114
   1461  C4'        9.3670   37.2910   24.8740 C.3    68  G68         0.1773
   1462  O4'        9.1420   38.7100   24.6810 O.3    68  G68        -0.3307
   1463  C3'       10.8810   37.1740   24.7980 C.3    68  G68         0.1860
   1464  O3'       11.2910   35.8400   24.5540 O.3    68  G68        -0.3112
   1465  C2'       11.1710   38.1260   23.6410 C.3    68  G68         0.2309
   1466  O2'       10.8340   37.6020   22.3750 O.3    68  G68        -0.2156
   1467  C1'       10.2200   39.2760   23.9590 C.3    68  G68         0.2408
   1468  N1        13.3600   43.3050   23.9120 N.ar   68  G68        -0.1709
   1469  C2        12.8990   42.5490   22.8510 C.ar   68  G68         0.2606
   1470  N2        13.3280   42.9120   21.6320 N.pl3  68  G68        -0.0859
   1471  N3        12.0750   41.5110   22.9810 N.ar   68  G68        -0.1918
   1472  C4        11.7380   41.2850   24.2810 C.ar   68  G68         0.1723
   1473  C5        12.1460   41.9820   25.4020 C.ar   68  G68         0.1748
   1474  C6        13.0290   43.0830   25.2510 C.ar   68  G68         0.3023
   1475  O6        13.4890   43.8190   26.1330 O.2    68  G68        -0.2633
   1476  N7        11.5760   41.4460   26.5480 N.ar   68  G68        -0.2173
   1477  C8        10.8550   40.4490   26.1120 C.ar   68  G68         0.1817
   1478  N9        10.8950   40.2990   24.7500 N.ar   68  G68        -0.2693
   1479  OP1        8.1020   36.4260   29.0090 O.2    68  G68        -0.5172
   1480  OP2        8.9920   38.7900   29.5130 O.co2  68  G68        -0.4373
   1481  P         12.3350   35.1430   25.5490 P.3    69  G69         0.2141
   1482  C5'       14.3610   35.8090   23.9840 C.3    69  G69         0.1812
   1483  O5'       13.6980   35.9300   25.2450 O.3    69  G69        -0.3114
   1484  C4'       15.4560   36.8490   23.8370 C.3    69  G69         0.1773
   1485  O4'       14.8880   38.1930   23.7740 O.3    69  G69        -0.3307
   1486  C3'       16.4200   36.9470   25.0080 C.3    69  G69         0.1860
   1487  O3'       17.3760   35.8970   25.0270 O.3    69  G69        -0.3112
   1488  C2'       17.0220   38.3180   24.7280 C.3    69  G69         0.2309
   1489  O2'       17.9280   38.2640   23.6500 O.3    69  G69        -0.2156
   1490  C1'       15.7490   39.1190   24.4170 C.3    69  G69         0.2408
   1491  N1        16.0930   42.2510   28.4350 N.ar   69  G69        -0.1709
   1492  C2        16.9020   42.1490   27.3340 C.ar   69  G69         0.2606
   1493  N2        17.9470   42.9760   27.2810 N.pl3  69  G69        -0.0859
   1494  N3        16.7070   41.2950   26.3450 N.ar   69  G69        -0.1918
   1495  C4        15.6080   40.5250   26.5350 C.ar   69  G69         0.1723
   1496  C5        14.7390   40.5480   27.5990 C.ar   69  G69         0.1748
   1497  C6        14.9650   41.4700   28.6510 C.ar   69  G69         0.3023
   1498  O6        14.3010   41.6420   29.6790 O.2    69  G69        -0.2633
   1499  N7        13.7410   39.6040   27.4310 N.ar   69  G69        -0.2173
   1500  C8        14.0190   39.0430   26.2880 C.ar   69  G69         0.1817
   1501  N9        15.1370   39.5560   25.6750 N.ar   69  G69        -0.2693
   1502  OP1       12.4930   33.7180   25.1660 O.2    69  G69        -0.5172
   1503  OP2       11.9410   35.4930   26.9320 O.co2  69  G69        -0.4373
   1504  P         17.9360   35.3770   26.4440 P.3    70  C70         0.2141
   1505  C5'       20.1940   36.7120   26.6410 C.3    70  C70         0.1812
   1506  O5'       18.7970   36.6420   26.9200 O.3    70  C70        -0.3114
   1507  C4'       20.8140   37.9270   27.2970 C.3    70  C70         0.1773
   1508  O4'       19.8310   38.9860   27.4290 O.3    70  C70        -0.3307
   1509  C3'       21.2820   37.7080   28.7200 C.3    70  C70         0.1860
   1510  O3'       22.5570   37.1060   28.7260 O.3    70  C70        -0.3112
   1511  C2'       21.3280   39.1390   29.2390 C.3    70  C70         0.2309
   1512  O2'       22.4310   39.8810   28.7500 O.3    70  C70        -0.2156
   1513  C1'       20.0410   39.6890   28.6430 C.3    70  C70         0.2420
   1514  N1        18.8290   39.5430   29.5180 N.ar   70  C70        -0.2535
   1515  C2        18.7140   40.2960   30.7020 C.ar   70  C70         0.3532
   1516  O2        19.6160   41.0700   31.0350 O.2    70  C70        -0.2443
   1517  N3        17.6020   40.1580   31.4670 N.ar   70  C70        -0.1739
   1518  C4        16.6350   39.3180   31.0880 C.ar   70  C70         0.1759
   1519  N4        15.5690   39.2160   31.8740 N.pl3  70  C70        -0.1070
   1520  C5        16.7230   38.5430   29.8930 C.ar   70  C70         0.0566
   1521  C6        17.8230   38.6880   29.1460 C.ar   70  C70         0.0850
   1522  OP1       18.8310   34.2100   26.2160 O.2    70  C70        -0.5172
   1523  OP2       16.7880   35.2540   27.3770 O.co2  70  C70        -0.4373
   1524  P         22.8210   35.8630   29.6990 P.3    71  G71         0.2141
   1525  C5'       23.5560   37.4990   31.6250 C.3    71  G71         0.1812
   1526  O5'       22.6020   36.5660   31.1230 O.3    71  G71        -0.3114
   1527  C4'       23.0510   38.1220   32.9110 C.3    71  G71         0.1773
   1528  O4'       21.7390   38.6730   32.6720 O.3    71  G71        -0.3307
   1529  C3'       22.8740   37.1560   34.0750 C.3    71  G71         0.1860
   1530  O3'       24.0670   37.0950   34.8750 O.3    71  G71        -0.3112
   1531  C2'       21.7400   37.7970   34.8560 C.3    71  G71         0.2309
   1532  O2'       22.2270   38.8380   35.6750 O.3    71  G71        -0.2156
   1533  C1'       20.8830   38.4200   33.7650 C.3    71  G71         0.2408
   1534  N1        16.0270   37.1150   34.6630 N.ar   71  G71        -0.1709
   1535  C2        16.8590   37.9200   35.3900 C.ar   71  G71         0.2606
   1536  N2        16.3380   38.4510   36.4930 N.pl3  71  G71        -0.0859
   1537  N3        18.1090   38.1930   35.0600 N.ar   71  G71        -0.1918
   1538  C4        18.4850   37.5690   33.9140 C.ar   71  G71         0.1723
   1539  C5        17.7240   36.7430   33.1180 C.ar   71  G71         0.1748
   1540  C6        16.3860   36.4720   33.4850 C.ar   71  G71         0.3023
   1541  O6        15.5590   35.7520   32.9020 O.2    71  G71        -0.2633
   1542  N7        18.4530   36.3000   32.0290 N.ar   71  G71        -0.2173
   1543  C8        19.6250   36.8570   32.1860 C.ar   71  G71         0.1817
   1544  N9        19.7250   37.6420   33.3100 N.ar   71  G71        -0.2693
   1545  OP1       24.2400   35.4550   29.5540 O.3    71  G71        -0.4373
   1546  OP2       21.7520   34.8530   29.5100 O.co2  71  G71        -0.5172
   1547  P         25.2940   36.1290   34.4930 P.3    72  A72         0.2141
   1548  C5'       27.1330   36.7590   36.3200 C.3    72  A72         0.1812
   1549  O5'       26.0380   35.9250   35.9000 O.3    72  A72        -0.3114
   1550  C4'       27.2750   36.7410   37.8330 C.3    72  A72         0.1773
   1551  O4'       26.1560   37.4700   38.3860 O.3    72  A72        -0.3307
   1552  C3'       27.2240   35.3620   38.4820 C.3    72  A72         0.1860
   1553  O3'       28.5290   34.8510   38.7140 O.3    72  A72        -0.3112
   1554  C2'       26.5240   35.6030   39.8160 C.3    72  A72         0.2309
   1555  O2'       27.4030   35.9250   40.8800 O.3    72  A72        -0.2156
   1556  C1'       25.6420   36.8050   39.5210 C.3    72  A72         0.2408
   1557  N1        20.7370   37.6010   40.8120 N.ar   72  A72        -0.2040
   1558  C2        21.8720   38.1130   41.2940 C.ar   72  A72         0.2016
   1559  N3        23.1190   37.8590   40.9090 N.ar   72  A72        -0.2048
   1560  C4        23.1490   36.9620   39.9100 C.ar   72  A72         0.1692
   1561  C5        22.0680   36.3530   39.3180 C.ar   72  A72         0.1518
   1562  C6        20.8040   36.7020   39.8110 C.ar   72  A72         0.1919
   1563  N6        19.6790   36.1830   39.3300 N.pl3  72  A72        -0.1054
   1564  N7        22.4680   35.4860   38.3220 N.ar   72  A72        -0.2193
   1565  C8        23.7740   35.5840   38.3280 C.ar   72  A72         0.1816
   1566  N9        24.2500   36.4590   39.2620 N.ar   72  A72        -0.2693
   1567  OP1       26.1940   36.9290   33.6160 O.2    72  A72        -0.5172
   1568  OP2       24.7280   34.8150   34.0710 O.co2  72  A72        -0.4373
   1569  P         29.3640   34.0130   37.6370 P.3    73  G73         0.2141
   1570  C5'       29.0250   31.4830   38.3830 C.3    73  G73         0.1812
   1571  O5'       29.7910   32.6810   38.4350 O.3    73  G73        -0.3114
   1572  C4'       28.0230   31.3790   39.5230 C.3    73  G73         0.1773
   1573  O4'       26.9540   32.3540   39.3560 O.3    73  G73        -0.3307
   1574  C3'       27.2990   30.0440   39.5760 C.3    73  G73         0.1860
   1575  O3'       28.0000   29.1450   40.3970 O.3    73  G73        -0.3112
   1576  C2'       25.9380   30.3950   40.1670 C.3    73  G73         0.2309
   1577  O2'       25.9810   30.5050   41.5720 O.3    73  G73        -0.2156
   1578  C1'       25.6760   31.7610   39.5480 C.3    73  G73         0.2408
   1579  N1        21.1440   30.9940   37.2120 N.ar   73  G73        -0.1709
   1580  C2        21.4370   30.9630   38.5540 C.ar   73  G73         0.2606
   1581  N2        20.4130   30.7000   39.3730 N.pl3  73  G73        -0.0859
   1582  N3        22.6520   31.1780   39.0530 N.ar   73  G73        -0.1918
   1583  C4        23.5840   31.4350   38.0950 C.ar   73  G73         0.1723
   1584  C5        23.3830   31.4870   36.7340 C.ar   73  G73         0.1748
   1585  C6        22.0820   31.2540   36.2130 C.ar   73  G73         0.3023
   1586  O6        21.7240   31.2620   35.0280 O.2    73  G73        -0.2633
   1587  N7        24.5700   31.7760   36.0740 N.ar   73  G73        -0.2173
   1588  C8        25.4500   31.8890   37.0250 C.ar   73  G73         0.1817
   1589  N9        24.9320   31.6970   38.2830 N.ar   73  G73        -0.2693
   1590  OP1       30.5780   34.8340   37.3810 O.3    73  G73        -0.4373
   1591  OP2       28.4600   33.6240   36.5230 O.co2  73  G73        -0.5172
   1592  P         28.0160   27.5900   40.0100 P.3    74  G74         0.2141
   1593  C5'       26.0780   26.8070   41.6050 C.3    74  G74         0.1812
   1594  O5'       26.5260   27.0780   40.2890 O.3    74  G74        -0.3114
   1595  C4'       24.5580   26.7420   41.6830 C.3    74  G74         0.1773
   1596  O4'       23.9250   27.8850   41.0400 O.3    74  G74        -0.3307
   1597  C3'       23.9120   25.5330   41.0190 C.3    74  G74         0.1860
   1598  O3'       24.0360   24.3640   41.8250 O.3    74  G74        -0.3112
   1599  C2'       22.4760   26.0310   40.9050 C.3    74  G74         0.2309
   1600  O2'       21.7870   26.0140   42.1320 O.3    74  G74        -0.2156
   1601  C1'       22.6960   27.4760   40.4630 C.3    74  G74         0.2408
   1602  N1        20.0620   27.3610   36.0800 N.ar   74  G74        -0.1709
   1603  C2        19.6190   27.1870   37.3750 C.ar   74  G74         0.2606
   1604  N2        18.3110   26.9520   37.5480 N.pl3  74  G74        -0.0859
   1605  N3        20.4060   27.2410   38.4400 N.ar   74  G74        -0.1918
   1606  C4        21.6980   27.4900   38.1170 C.ar   74  G74         0.1723
   1607  C5        22.2340   27.6810   36.8650 C.ar   74  G74         0.1748
   1608  C6        21.3870   27.6220   35.7260 C.ar   74  G74         0.3023
   1609  O6        21.6930   27.7670   34.5310 O.2    74  G74        -0.2633
   1610  N7        23.6000   27.9080   36.9530 N.ar   74  G74        -0.2173
   1611  C8        23.8540   27.8490   38.2280 C.ar   74  G74         0.1817
   1612  N9        22.7480   27.6050   39.0030 N.ar   74  G74        -0.2693
   1613  OP1       28.9490   26.9450   40.9630 O.3    74  G74        -0.4373
   1614  OP2       28.2300   27.4710   38.5480 O.co2  74  G74        -0.5172
   1615  P         24.1760   22.9120   41.1510 P.3    75  G75         0.2141
   1616  C5'       21.7310   22.2370   41.8330 C.3    75  G75         0.1812
   1617  O5'       22.6500   22.5820   40.7910 O.3    75  G75        -0.3114
   1618  C4'       20.2820   22.2730   41.3800 C.3    75  G75         0.1773
   1619  O4'       19.9920   23.5340   40.7180 O.3    75  G75        -0.3307
   1620  C3'       19.8970   21.2220   40.3550 C.3    75  G75         0.1860
   1621  O3'       19.5900   19.9980   40.9890 O.3    75  G75        -0.3112
   1622  C2'       18.6780   21.8680   39.7080 C.3    75  G75         0.2309
   1623  O2'       17.5190   21.8050   40.5120 O.3    75  G75        -0.2156
   1624  C1'       19.1520   23.3150   39.5960 C.3    75  G75         0.2408
   1625  N1        18.9390   23.7010   34.5170 N.ar   75  G75        -0.1709
   1626  C2        17.9370   23.3890   35.4080 C.ar   75  G75         0.2606
   1627  N2        16.7230   23.1510   34.8910 N.pl3  75  G75        -0.0859
   1628  N3        18.1160   23.3150   36.7200 N.ar   75  G75        -0.1918
   1629  C4        19.3970   23.5900   37.0800 C.ar   75  G75         0.1723
   1630  C5        20.4670   23.9100   36.2670 C.ar   75  G75         0.1748
   1631  C6        20.2610   23.9830   34.8660 C.ar   75  G75         0.3023
   1632  O6        21.0910   24.2520   33.9850 O.2    75  G75        -0.2633
   1633  N7        21.6220   24.1130   37.0140 N.ar   75  G75        -0.2173
   1634  C8        21.2290   23.9190   38.2400 C.ar   75  G75         0.1817
   1635  N9        19.8940   23.5990   38.3630 N.ar   75  G75        -0.2693
   1636  OP1       24.6150   21.9450   42.1830 O.3    75  G75        -0.4373
   1637  OP2       24.9690   23.0250   39.9070 O.co2  75  G75        -0.5172
   1638  P         20.2250   18.6500   40.4010 P.3    76  C76         0.2141
   1639  C5'       17.9200   18.1290   39.2000 C.3    76  C76         0.1812
   1640  O5'       19.3350   18.3700   39.0950 O.3    76  C76        -0.3114
   1641  C4'       17.2200   18.1980   37.8490 C.3    76  C76         0.1773
   1642  O4'       17.3310   19.5300   37.2790 O.3    76  C76        -0.3307
   1643  C3'       17.8060   17.3230   36.7540 C.3    76  C76         0.1860
   1644  O3'       17.3770   15.9920   36.8950 O.3    76  C76        -0.3112
   1645  C2'       17.2390   17.9950   35.5090 C.3    76  C76         0.2309
   1646  O2'       15.8530   17.8290   35.3450 O.3    76  C76        -0.2156
   1647  C1'       17.4760   19.4450   35.8690 C.3    76  C76         0.2420
   1648  N1        18.8150   19.9330   35.4000 N.ar   76  C76        -0.2535
   1649  C2        18.9220   20.4390   34.0880 C.ar   76  C76         0.3532
   1650  O2        17.9140   20.4780   33.3580 O.2    76  C76        -0.2443
   1651  N3        20.1330   20.8820   33.6540 N.ar   76  C76        -0.1739
   1652  C4        21.1910   20.8250   34.4660 C.ar   76  C76         0.1759
   1653  N4        22.3560   21.2710   33.9960 N.pl3  76  C76        -0.1070
   1654  C5        21.1060   20.3090   35.7970 C.ar   76  C76         0.0566
   1655  C6        19.9130   19.8770   36.2190 C.ar   76  C76         0.0850
   1656  OP1       19.9790   17.5400   41.3530 O.3    76  C76        -0.4373
   1657  OP2       21.6110   18.9820   39.9860 O.co2  76  C76        -0.5172
   1658  P         18.3570   14.8040   36.4710 P.3    77  G77         0.2141
   1659  C5'       17.1180   14.4550   34.1820 C.3    77  G77         0.1812
   1660  O5'       18.3020   14.8320   34.8740 O.3    77  G77        -0.3114
   1661  C4'       17.1790   14.9270   32.7440 C.3    77  G77         0.1773
   1662  O4'       17.5650   16.3230   32.6940 O.3    77  G77        -0.3307
   1663  C3'       18.2260   14.2440   31.8780 C.3    77  G77         0.1860
   1664  O3'       17.8070   12.9620   31.4550 O.3    77  G77        -0.3112
   1665  C2'       18.3320   15.2280   30.7220 C.3    77  G77         0.2309
   1666  O2'       17.2790   15.1330   29.7750 O.3    77  G77        -0.2156
   1667  C1'       18.2650   16.5510   31.4870 C.3    77  G77         0.2408
   1668  N1        22.3540   18.8330   29.5320 N.ar   77  G77        -0.1709
   1669  C2        21.1760   18.4610   28.9250 C.ar   77  G77         0.2606
   1670  N2        21.0490   18.7280   27.6220 N.pl3  77  G77        -0.0859
   1671  N3        20.1740   17.8660   29.5540 N.ar   77  G77        -0.1918
   1672  C4        20.4400   17.6620   30.8710 C.ar   77  G77         0.1723
   1673  C5        21.5760   17.9900   31.5750 C.ar   77  G77         0.1748
   1674  C6        22.6420   18.6300   30.8830 C.ar   77  G77         0.3023
   1675  O6        23.7320   19.0070   31.3360 O.2    77  G77        -0.2633
   1676  N7        21.4490   17.6070   32.9060 N.ar   77  G77        -0.2173
   1677  C8        20.2660   17.0680   32.9770 C.ar   77  G77         0.1817
   1678  N9        19.5950   17.0710   31.7810 N.ar   77  G77        -0.2693
   1679  OP1       17.7500   13.5330   36.9290 O.3    77  G77        -0.4373
   1680  OP2       19.7270   15.1790   36.8880 O.co2  77  G77        -0.5172
   1681  P         18.8580   11.7590   31.5280 P.3    78  C78         0.2141
   1682  C5'       20.8940   11.8440   29.8430 C.3    78  C78         0.1812
   1683  O5'       19.4880   11.7580   30.0570 O.3    78  C78        -0.3114
   1684  C4'       21.1770   12.8800   28.7740 C.3    78  C78         0.1773
   1685  O4'       21.3740   14.1650   29.4040 O.3    78  C78        -0.3307
   1686  C3'       22.4610   12.6620   27.9990 C.3    78  C78         0.1860
   1687  O3'       22.2680   11.7140   26.9430 O.3    78  C78        -0.3112
   1688  C2'       22.7440   14.0680   27.4820 C.3    78  C78         0.2309
   1689  O2'       22.0070   14.3810   26.3180 O.3    78  C78        -0.2156
   1690  C1'       22.2850   14.9440   28.6440 C.3    78  C78         0.2420
   1691  N1        23.4240   15.4670   29.4970 N.ar   78  C78        -0.2535
   1692  C2        24.3600   16.3630   28.9560 C.ar   78  C78         0.3532
   1693  O2        24.2540   16.7290   27.7840 O.2    78  C78        -0.2443
   1694  N3        25.3760   16.8180   29.7310 N.ar   78  C78        -0.1739
   1695  C4        25.4830   16.4170   30.9940 C.ar   78  C78         0.1759
   1696  N4        26.5020   16.8940   31.7000 N.pl3  78  C78        -0.1070
   1697  C5        24.5530   15.5150   31.5800 C.ar   78  C78         0.0566
   1698  C6        23.5550   15.0720   30.8010 C.ar   78  C78         0.0850
   1699  OP1       18.1060   10.4950   31.6910 O.2    78  C78        -0.5172
   1700  OP2       19.9170   12.1190   32.5010 O.co2  78  C78        -0.4373
   1701  P         23.5280   10.9190   26.3460 P.3    79  C79         0.2141
   1702  C5'       24.0280   12.5600   24.2870 C.3    79  C79         0.1812
   1703  O5'       24.3090   12.1160   25.6200 O.3    79  C79        -0.3114
   1704  C4'       25.3240   12.9850   23.6090 C.3    79  C79         0.1773
   1705  O4'       25.9300   14.0590   24.3710 O.3    79  C79        -0.3307
   1706  C3'       26.3920   11.8950   23.5000 C.3    79  C79         0.1860
   1707  O3'       27.1020   11.9570   22.2720 O.3    79  C79        -0.3112
   1708  C2'       27.3200   12.2240   24.6560 C.3    79  C79         0.2309
   1709  O2'       28.6450   11.8190   24.4340 O.3    79  C79        -0.2156
   1710  C1'       27.2770   13.7350   24.6350 C.3    79  C79         0.2420
   1711  N1        27.7500   14.2900   25.9360 N.ar   79  C79        -0.2535
   1712  C2        28.8710   15.1290   25.9570 C.ar   79  C79         0.3532
   1713  O2        29.4330   15.4110   24.8900 O.2    79  C79        -0.2443
   1714  N3        29.3020   15.6160   27.1520 N.ar   79  C79        -0.1739
   1715  C4        28.6710   15.2840   28.2760 C.ar   79  C79         0.1759
   1716  N4        29.1290   15.7770   29.4230 N.pl3  79  C79        -0.1070
   1717  C5        27.5340   14.4320   28.2770 C.ar   79  C79         0.0566
   1718  C6        27.1160   13.9600   27.0990 C.ar   79  C79         0.0850
   1719  OP1       23.0550    9.9040   25.3680 O.2    79  C79        -0.5172
   1720  OP2       24.3790   10.4810   27.4760 O.co2  79  C79        -0.4373
   1721  P         26.5480   11.2800   20.9360 P.3    80  G80         0.2141
   1722  C5'       24.3290   11.8810   19.6380 C.3    80  G80         0.1812
   1723  O5'       25.3350   12.2480   20.5590 O.3    80  G80        -0.3114
   1724  C4'       23.4820   13.1060   19.3400 C.3    80  G80         0.1773
   1725  O4'       24.2460   14.0160   18.5070 O.3    80  G80        -0.3307
   1726  C3'       22.1580   12.8520   18.6200 C.3    80  G80         0.1860
   1727  O3'       21.0840   13.5620   19.2550 O.3    80  G80        -0.3112
   1728  C2'       22.3930   13.4260   17.2220 C.3    80  G80         0.2309
   1729  O2'       21.2300   13.9970   16.6470 O.3    80  G80        -0.2156
   1730  C1'       23.4080   14.5290   17.4970 C.3    80  G80         0.2408
   1731  N1        26.6420   17.9330   15.5490 N.ar   80  G80        -0.1709
   1732  C2        26.0370   17.9110   16.7800 C.ar   80  G80         0.2606
   1733  N2        26.3200   18.9260   17.6000 N.pl3  80  G80        -0.0859
   1734  N3        25.2040   16.9640   17.1740 N.ar   80  G80        -0.1918
   1735  C4        25.0240   16.0130   16.2240 C.ar   80  G80         0.1723
   1736  C5        25.5840   15.9430   14.9680 C.ar   80  G80         0.1748
   1737  C6        26.4680   16.9680   14.5620 C.ar   80  G80         0.3023
   1738  O6        27.0630   17.0910   13.4880 O.2    80  G80        -0.2633
   1739  N7        25.1490   14.8080   14.2940 N.ar   80  G80        -0.2173
   1740  C8        24.3510   14.2230   15.1430 C.ar   80  G80         0.1817
   1741  N9        24.2210   14.9000   16.3380 N.ar   80  G80        -0.2693
   1742  OP1       26.0490    9.9150   21.2360 O.3    80  G80        -0.4373
   1743  OP2       27.6100   11.4820   19.9350 O.co2  80  G80        -0.5172
   1744  P         20.3170   13.0390   20.5660 P.3    81  A81         0.2141
   1745  C5'       21.0350   15.1350   21.9320 C.3    81  A81         0.1812
   1746  O5'       21.1990   13.7350   21.7080 O.3    81  A81        -0.3114
   1747  C4'       22.0810   15.6100   22.9090 C.3    81  A81         0.1773
   1748  O4'       23.3480   15.7270   22.2250 O.3    81  A81        -0.3307
   1749  C3'       21.8730   16.9990   23.4770 C.3    81  A81         0.1860
   1750  O3'       20.8980   16.9660   24.5270 O.3    81  A81        -0.3112
   1751  C2'       23.2880   17.2780   23.9860 C.3    81  A81         0.2309
   1752  O2'       23.5160   16.7770   25.2840 O.3    81  A81        -0.2156
   1753  C1'       24.1910   16.5540   22.9880 C.3    81  A81         0.2408
   1754  N1        28.1660   19.7280   22.2430 N.ar   81  A81        -0.2040
   1755  C2        27.8980   18.8610   23.2270 C.ar   81  A81         0.2016
   1756  N3        26.8420   18.0570   23.3620 N.ar   81  A81        -0.2048
   1757  C4        25.9960   18.1950   22.3250 C.ar   81  A81         0.1692
   1758  C5        26.1460   19.0410   21.2430 C.ar   81  A81         0.1518
   1759  C6        27.2990   19.8470   21.2170 C.ar   81  A81         0.1919
   1760  N6        27.5800   20.7100   20.2400 N.pl3  81  A81        -0.1054
   1761  N7        25.0770   18.9070   20.3790 N.ar   81  A81        -0.2193
   1762  C8        24.3140   18.0030   20.9420 C.ar   81  A81         0.1816
   1763  N9        24.8120   17.5270   22.1140 N.ar   81  A81        -0.2693
   1764  OP1       20.4650   11.5620   20.6970 O.3    81  A81        -0.4373
   1765  OP2       18.9740   13.6900   20.5500 O.co2  81  A81        -0.5172
   1766  P         19.4680   17.6920   24.4180 P.3    82  A82         0.2141
   1767  C5'       19.3320   19.4770   22.4330 C.3    82  A82         0.1812
   1768  O5'       19.7820   19.1170   23.7540 O.3    82  A82        -0.3114
   1769  C4'       20.3180   20.4540   21.8120 C.3    82  A82         0.1773
   1770  O4'       21.4880   19.7240   21.3570 O.3    82  A82        -0.3307
   1771  C3'       19.8580   21.2240   20.5790 C.3    82  A82         0.1860
   1772  O3'       19.0890   22.3750   20.9160 O.3    82  A82        -0.3112
   1773  C2'       21.2050   21.6060   19.9890 C.3    82  A82         0.2309
   1774  O2'       21.8340   22.6400   20.7200 O.3    82  A82        -0.2156
   1775  C1'       21.9700   20.2990   20.1630 C.3    82  A82         0.2408
   1776  N1        23.1950   18.9680   15.3400 N.ar   82  A82        -0.2040
   1777  C2        23.5900   19.9870   16.1110 C.ar   82  A82         0.2016
   1778  N3        23.2340   20.2720   17.3610 N.ar   82  A82        -0.2048
   1779  C4        22.3580   19.3690   17.8290 C.ar   82  A82         0.1692
   1780  C5        21.8630   18.2670   17.1550 C.ar   82  A82         0.1518
   1781  C6        22.3200   18.0700   15.8370 C.ar   82  A82         0.1919
   1782  N6        21.9420   17.0510   15.0600 N.pl3  82  A82        -0.1054
   1783  N7        20.9860   17.5590   17.9570 N.ar   82  A82        -0.2193
   1784  C8        20.9660   18.2370   19.0800 C.ar   82  A82         0.1816
   1785  N9        21.7730   19.3410   19.0760 N.ar   82  A82        -0.2693
   1786  OP1       19.0150   17.9380   25.8030 O.3    82  A82        -0.4373
   1787  OP2       18.6080   16.9220   23.4960 O.co2  82  A82        -0.5172
   1788  P         17.9620   22.9150   19.9100 P.3    83  G83         0.2141
   1789  C5'       19.6590   24.7790   19.1020 C.3    83  G83         0.1812
   1790  O5'       18.8480   23.6540   18.8100 O.3    83  G83        -0.3114
   1791  C4'       20.5410   25.0490   17.8940 C.3    83  G83         0.1773
   1792  O4'       21.4180   23.9120   17.6270 O.3    83  G83        -0.3307
   1793  C3'       19.8030   25.2170   16.5750 C.3    83  G83         0.1860
   1794  O3'       19.2370   26.4940   16.4690 O.3    83  G83        -0.3112
   1795  C2'       20.9610   25.0330   15.6120 C.3    83  G83         0.2309
   1796  O2'       21.8070   26.1650   15.5890 O.3    83  G83        -0.2156
   1797  C1'       21.6660   23.8290   16.2350 C.3    83  G83         0.2408
   1798  N1        21.7540   20.6050   12.3100 N.ar   83  G83        -0.1709
   1799  C2        22.4480   21.7700   12.5220 C.ar   83  G83         0.2606
   1800  N2        23.2890   22.1440   11.5570 N.pl3  83  G83        -0.0859
   1801  N3        22.3380   22.5270   13.6000 N.ar   83  G83        -0.1918
   1802  C4        21.4520   22.0240   14.4840 C.ar   83  G83         0.1723
   1803  C5        20.7050   20.8700   14.3760 C.ar   83  G83         0.1748
   1804  C6        20.8390   20.0690   13.2100 C.ar   83  G83         0.3023
   1805  O6        20.2630   19.0130   12.9250 O.2    83  G83        -0.2633
   1806  N7        19.9160   20.7000   15.5040 N.ar   83  G83        -0.2173
   1807  C8        20.2060   21.7370   16.2500 C.ar   83  G83         0.1817
   1808  N9        21.1350   22.5820   15.6950 N.ar   83  G83        -0.2693
   1809  OP1       17.1460   23.9310   20.6080 O.3    83  G83        -0.4373
   1810  OP2       17.3110   21.7510   19.2500 O.co2  83  G83        -0.5172
   1811  P         17.8040   26.6450   15.7690 P.3    84  G84         0.2141
   1812  C5'       18.9160   27.6440   13.6000 C.3    84  G84         0.1812
   1813  O5'       18.1820   26.5860   14.2120 O.3    84  G84        -0.3114
   1814  C4'       19.5740   27.1830   12.3140 C.3    84  G84         0.1773
   1815  O4'       20.3350   25.9570   12.4970 O.3    84  G84        -0.3307
   1816  C3'       18.6110   26.8170   11.2110 C.3    84  G84         0.1860
   1817  O3'       18.0930   27.9680   10.6090 O.3    84  G84        -0.3112
   1818  C2'       19.5610   26.0760   10.2840 C.3    84  G84         0.2309
   1819  O2'       20.3490   26.9480    9.5030 O.3    84  G84        -0.2156
   1820  C1'       20.3840   25.2440   11.2740 C.3    84  G84         0.2408
   1821  N1        19.1750   20.7960    9.0580 N.ar   84  G84        -0.1709
   1822  C2        19.8970   21.8500    8.5470 C.ar   84  G84         0.2606
   1823  N2        20.3480   21.7110    7.2990 N.pl3  84  G84        -0.0859
   1824  N3        20.1610   22.9630    9.2190 N.ar   84  G84        -0.1918
   1825  C4        19.6380   22.9460   10.4780 C.ar   84  G84         0.1723
   1826  C5        18.9020   21.9430   11.0700 C.ar   84  G84         0.1748
   1827  C6        18.6310   20.7610   10.3420 C.ar   84  G84         0.3023
   1828  O6        17.9970   19.7690   10.7180 O.2    84  G84        -0.2633
   1829  N7        18.5380   22.2930   12.3560 N.ar   84  G84        -0.2173
   1830  C8        19.0460   23.4830   12.5150 C.ar   84  G84         0.1817
   1831  N9        19.7370   23.9430   11.4260 N.ar   84  G84        -0.2693
   1832  OP1       17.2860   27.9900   16.1110 O.3    84  G84        -0.4373
   1833  OP2       16.9750   25.4490   16.0560 O.co2  84  G84        -0.5172
   1834  P         16.6120   27.9310    9.9850 P.3    85  G85         0.2141
   1835  C5'       17.6750   27.5720    7.5710 C.3    85  G85         0.1812
   1836  O5'       16.8710   27.0570    8.6550 O.3    85  G85        -0.3114
   1837  C4'       17.8730   26.5510    6.4650 C.3    85  G85         0.1773
   1838  O4'       18.4750   25.3500    7.0120 O.3    85  G85        -0.3307
   1839  C3'       16.5930   26.0470    5.8160 C.3    85  G85         0.1860
   1840  O3'       16.1490   26.9210    4.7830 O.3    85  G85        -0.3112
   1841  C2'       17.0140   24.6770    5.2890 C.3    85  G85         0.2309
   1842  O2'       17.7620   24.7240    4.0940 O.3    85  G85        -0.2156
   1843  C1'       17.9020   24.1910    6.4240 C.3    85  G85         0.2408
   1844  N1        15.2860   19.9270    7.5460 N.ar   85  G85        -0.1709
   1845  C2        15.8480   20.3040    6.3500 C.ar   85  G85         0.2606
   1846  N2        15.7050   19.4480    5.3340 N.pl3  85  G85        -0.0859
   1847  N3        16.5070   21.4420    6.1620 N.ar   85  G85        -0.1918
   1848  C4        16.5690   22.1950    7.2950 C.ar   85  G85         0.1723
   1849  C5        16.0360   21.8990    8.5360 C.ar   85  G85         0.1748
   1850  C6        15.3370   20.6840    8.7120 C.ar   85  G85         0.3023
   1851  O6        14.8000   20.2670    9.7410 O.2    85  G85        -0.2633
   1852  N7        16.2950   22.9150    9.4440 N.ar   85  G85        -0.2173
   1853  C8        16.9710   23.7930    8.7510 C.ar   85  G85         0.1817
   1854  N9        17.1820   23.4270    7.4410 N.ar   85  G85        -0.2693
   1855  OP1       16.2140   29.3030    9.5870 O.2    85  G85        -0.5172
   1856  OP2       15.7240   27.2090   10.9260 O.co2  85  G85        -0.4373
   1857  P         14.6090   27.3680    4.7080 P.3    86  U86         0.2141
   1858  C5'       14.3170   25.4900    2.8610 C.3    86  U86         0.1812
   1859  O5'       13.8610   26.1040    4.0600 O.3    86  U86        -0.3114
   1860  C4'       13.7670   24.0810    2.7120 C.3    86  U86         0.1773
   1861  O4'       14.3860   23.1800    3.6630 O.3    86  U86        -0.3307
   1862  C3'       12.2880   23.9170    3.0100 C.3    86  U86         0.1860
   1863  O3'       11.5000   24.3180    1.9250 O.3    86  U86        -0.3112
   1864  C2'       12.1920   22.4180    3.2410 C.3    86  U86         0.2309
   1865  O2'       12.2010   21.6550    2.0500 O.3    86  U86        -0.2156
   1866  C1'       13.4560   22.1860    4.0610 C.3    86  U86         0.2420
   1867  N1        13.1710   22.2600    5.5430 N.ar   86  U86        -0.2534
   1868  C2        12.5560   21.1780    6.1680 C.ar   86  U86         0.3546
   1869  O2        12.2310   20.1430    5.6020 O.2    86  U86        -0.2443
   1870  N3        12.3330   21.3480    7.5150 N.ar   86  U86        -0.1530
   1871  C4        12.6430   22.4550    8.2860 C.ar   86  U86         0.2846
   1872  O4        12.3770   22.4440    9.4840 O.2    86  U86        -0.2650
   1873  C5        13.2720   23.5410    7.5700 C.ar   86  U86         0.0814
   1874  C6        13.5040   23.4050    6.2570 C.ar   86  U86         0.0870
   1875  OP1       14.5500   28.5100    3.7700 O.2    86  U86        -0.5172
   1876  OP2       14.0990   27.5160    6.0950 O.co2  86  U86        -0.4373
   1877  P         10.1120   25.0580    2.2080 P.3    87  G87         0.2141
   1878  C5'        8.9730   22.7760    1.5710 C.3    87  G87         0.1812
   1879  O5'        9.1130   23.8410    2.5090 O.3    87  G87        -0.3114
   1880  C4'        8.2560   21.5880    2.1840 C.3    87  G87         0.1773
   1881  O4'        9.1080   20.9020    3.1440 O.3    87  G87        -0.3307
   1882  C3'        7.0020   21.9240    2.9720 C.3    87  G87         0.1860
   1883  O3'        5.9090   22.0500    2.1070 O.3    87  G87        -0.3112
   1884  C2'        6.8630   20.6770    3.8250 C.3    87  G87         0.2309
   1885  O2'        6.3400   19.6010    3.0750 O.3    87  G87        -0.2156
   1886  C1'        8.3150   20.4260    4.2240 C.3    87  G87         0.2408
   1887  N1         8.0270   20.4310    9.3350 N.ar   87  G87        -0.1709
   1888  C2         7.5090   19.5250    8.4390 C.ar   87  G87         0.2606
   1889  N2         6.8390   18.4900    8.9550 N.pl3  87  G87        -0.0859
   1890  N3         7.6500   19.6240    7.1210 N.ar   87  G87        -0.1918
   1891  C4         8.3570   20.7300    6.7600 C.ar   87  G87         0.1723
   1892  C5         8.9060   21.6920    7.5810 C.ar   87  G87         0.1748
   1893  C6         8.7540   21.5690    8.9820 C.ar   87  G87         0.3023
   1894  O6         9.1750   22.3360    9.8610 O.2    87  G87        -0.2633
   1895  N7         9.5550   22.6660    6.8410 N.ar   87  G87        -0.2173
   1896  C8         9.3890   22.2840    5.6070 C.ar   87  G87         0.1817
   1897  N9         8.6770   21.1150    5.4730 N.ar   87  G87        -0.2693
   1898  OP1        9.7440   25.7150    0.9290 O.2    87  G87        -0.5172
   1899  OP2       10.2030   25.8730    3.4440 O.co2  87  G87        -0.4373
   1900  P          4.7230   23.0550    2.4740 P.3    88  C88         0.2141
   1901  C5'        3.2780   21.0590    3.3820 C.3    88  C88         0.1812
   1902  O5'        3.9770   22.2800    3.6570 O.3    88  C88        -0.3114
   1903  C4'        2.6570   20.4880    4.6420 C.3    88  C88         0.1773
   1904  O4'        3.7050   20.0010    5.5140 O.3    88  C88        -0.3307
   1905  C3'        1.9160   21.4740    5.5290 C.3    88  C88         0.1860
   1906  O3'        0.6270   21.7330    5.0400 O.3    88  C88        -0.3112
   1907  C2'        1.8780   20.6730    6.8210 C.3    88  C88         0.2309
   1908  O2'        0.9540   19.6070    6.7870 O.3    88  C88        -0.2156
   1909  C1'        3.3020   20.1380    6.8600 C.3    88  C88         0.2420
   1910  N1         4.1830   21.0940    7.5940 N.ar   88  C88        -0.2535
   1911  C2         4.2320   21.0090    8.9920 C.ar   88  C88         0.3532
   1912  O2         3.5700   20.1410    9.5750 O.2    88  C88        -0.2443
   1913  N3         5.0140   21.8760    9.6740 N.ar   88  C88        -0.1739
   1914  C4         5.7130   22.8000    9.0190 C.ar   88  C88         0.1759
   1915  N4         6.4620   23.6280    9.7480 N.pl3  88  C88        -0.1070
   1916  C5         5.6760   22.9140    7.5980 C.ar   88  C88         0.0566
   1917  C6         4.9040   22.0510    6.9300 C.ar   88  C88         0.0850
   1918  OP1        3.8270   23.1100    1.3010 O.2    88  C88        -0.5172
   1919  OP2        5.2780   24.3170    3.0150 O.co2  88  C88        -0.4373
   1920  P         -0.0970   23.1200    5.3530 P.3    89  A89         0.2141
   1921  C5'       -1.2270   22.1740    7.5450 C.3    89  A89         0.1812
   1922  O5'       -0.3200   23.0830    6.9320 O.3    89  A89        -0.3114
   1923  C4'       -1.1620   22.3180    9.0530 C.3    89  A89         0.1773
   1924  O4'        0.1630   21.9690    9.5410 O.3    89  A89        -0.3307
   1925  C3'       -1.3420   23.7210    9.6070 C.3    89  A89         0.1860
   1926  O3'       -2.6790   24.1680    9.5490 O.3    89  A89        -0.3112
   1927  C2'       -0.8680   23.4740   11.0340 C.3    89  A89         0.2309
   1928  O2'       -1.7920   22.7360   11.8100 O.3    89  A89        -0.2156
   1929  C1'        0.3960   22.6700   10.7510 C.3    89  A89         0.2408
   1930  N1         3.9170   25.4130   13.2620 N.ar   89  A89        -0.2040
   1931  C2         2.9300   24.6100   13.6840 C.ar   89  A89         0.2016
   1932  N3         2.0450   23.9220   12.9590 N.ar   89  A89        -0.2048
   1933  C4         2.2490   24.1180   11.6440 C.ar   89  A89         0.1692
   1934  C5         3.2220   24.9110   11.0560 C.ar   89  A89         0.1518
   1935  C6         4.0990   25.5870   11.9370 C.ar   89  A89         0.1919
   1936  N6         5.0940   26.3870   11.5430 N.pl3  89  A89        -0.1054
   1937  N7         3.1160   24.8600    9.6750 N.ar   89  A89        -0.2193
   1938  C8         2.1000   24.0550    9.4660 C.ar   89  A89         0.1816
   1939  N9         1.5370   23.5640   10.6110 N.ar   89  A89        -0.2693
   1940  OP1       -1.4210   23.0950    4.6870 O.2    89  A89        -0.5172
   1941  OP2        0.8520   24.2270    5.1100 O.co2  89  A89        -0.4373
   1942  P         -2.9960   25.7250    9.7600 P.3    90  G90         0.2141
   1943  C5'       -3.6980   25.7880   12.2890 C.3    90  G90         0.1812
   1944  O5'       -2.6870   25.9710   11.3080 O.3    90  G90        -0.3114
   1945  C4'       -3.1630   26.1230   13.6620 C.3    90  G90         0.1773
   1946  O4'       -1.8390   25.5510   13.8030 O.3    90  G90        -0.3307
   1947  C3'       -2.9570   27.6070   13.9110 C.3    90  G90         0.1860
   1948  O3'       -4.1580   28.2300   14.3210 O.3    90  G90        -0.3112
   1949  C2'       -1.9380   27.5680   15.0370 C.3    90  G90         0.2309
   1950  O2'       -2.5250   27.3020   16.2930 O.3    90  G90        -0.2156
   1951  C1'       -1.0360   26.4170   14.5880 C.3    90  G90         0.2408
   1952  N1         3.2170   29.1690   14.7200 N.ar   90  G90        -0.1709
   1953  C2         2.3780   28.8060   15.7470 C.ar   90  G90         0.2606
   1954  N2         2.7080   29.2350   16.9710 N.pl3  90  G90        -0.0859
   1955  N3         1.2880   28.0710   15.5840 N.ar   90  G90        -0.1918
   1956  C4         1.1020   27.7200   14.2850 C.ar   90  G90         0.1723
   1957  C5         1.8770   28.0320   13.1910 C.ar   90  G90         0.1748
   1958  C6         3.0400   28.8190   13.3800 C.ar   90  G90         0.3023
   1959  O6         3.8600   29.2030   12.5320 O.2    90  G90        -0.2633
   1960  N7         1.3390   27.4820   12.0340 N.ar   90  G90        -0.2173
   1961  C8         0.2680   26.8610   12.4450 C.ar   90  G90         0.1817
   1962  N9         0.0670   26.9570   13.8000 N.ar   90  G90        -0.2693
   1963  OP1       -4.4490   25.9000    9.5310 O.3    90  G90        -0.4373
   1964  OP2       -2.0270   26.5440    8.9920 O.co2  90  G90        -0.5172
   1965  P         -4.4730   29.7260   13.8470 P.3    91  A91         0.2141
   1966  C5'       -3.8860   30.5210   16.2990 C.3    91  A91         0.1812
   1967  O5'       -3.6630   30.6220   14.8910 O.3    91  A91        -0.3114
   1968  C4'       -2.7850   31.2360   17.0620 C.3    91  A91         0.1773
   1969  O4'       -1.5070   30.5580   16.8710 O.3    91  A91        -0.3307
   1970  C3'       -2.5240   32.6630   16.6070 C.3    91  A91         0.1860
   1971  O3'       -3.4560   33.5620   17.1840 O.3    91  A91        -0.3112
   1972  C2'       -1.0870   32.8740   17.0840 C.3    91  A91         0.2309
   1973  O2'       -0.9730   33.2100   18.4520 O.3    91  A91        -0.2156
   1974  C1'       -0.4590   31.5110   16.8060 C.3    91  A91         0.2408
   1975  N1         3.6010   32.8870   13.9780 N.ar   91  A91        -0.2040
   1976  C2         3.3260   33.0340   15.2810 C.ar   91  A91         0.2016
   1977  N3         2.2450   32.6440   15.9550 N.ar   91  A91        -0.2048
   1978  C4         1.3660   32.0410   15.1380 C.ar   91  A91         0.1692
   1979  C5         1.5050   31.8230   13.7780 C.ar   91  A91         0.1518
   1980  C6         2.6990   32.2770   13.1840 C.ar   91  A91         0.1919
   1981  N6         2.9780   32.1400   11.8880 N.pl3  91  A91        -0.1054
   1982  N7         0.3970   31.1740   13.2660 N.ar   91  A91        -0.2193
   1983  C8        -0.3760   31.0180   14.3150 C.ar   91  A91         0.1816
   1984  N9         0.1490   31.5090   15.4800 N.ar   91  A91        -0.2693
   1985  OP1       -5.9140   29.9910   14.0470 O.3    91  A91        -0.4373
   1986  OP2       -3.8800   29.9130   12.5010 O.co2  91  A91        -0.5172
   1987  P         -3.7790   34.9710   16.4720 P.3    92  G92         0.2141
   1988  C5'       -2.0060   36.2730   17.9430 C.3    92  G92         0.1812
   1989  O5'       -2.4160   35.7830   16.6760 O.3    92  G92        -0.3114
   1990  C4'       -0.6100   36.8410   17.7990 C.3    92  G92         0.1773
   1991  O4'        0.2660   35.8670   17.1830 O.3    92  G92        -0.3307
   1992  C3'       -0.5110   38.0110   16.8400 C.3    92  G92         0.1860
   1993  O3'       -0.9740   39.2000   17.4570 O.3    92  G92        -0.3112
   1994  C2'        0.9800   38.0200   16.5180 C.3    92  G92         0.2309
   1995  O2'        1.7830   38.5690   17.5340 O.3    92  G92        -0.2156
   1996  C1'        1.2720   36.5310   16.4350 C.3    92  G92         0.2408
   1997  N1         3.7950   36.3690   12.0080 N.ar   92  G92        -0.1709
   1998  C2         4.1570   36.9830   13.1880 C.ar   92  G92         0.2606
   1999  N2         5.3320   37.6290   13.1910 N.pl3  92  G92        -0.0859
   2000  N3         3.4090   36.9560   14.2870 N.ar   92  G92        -0.1918
   2001  C4         2.2540   36.2570   14.1120 C.ar   92  G92         0.1723
   2002  C5         1.8110   35.6160   12.9770 C.ar   92  G92         0.1748
   2003  C6         2.6170   35.6450   11.8100 C.ar   92  G92         0.3023
   2004  O6         2.3850   35.1340   10.7050 O.2    92  G92        -0.2633
   2005  N7         0.5820   35.0190   13.1970 N.ar   92  G92        -0.2173
   2006  C8         0.3070   35.3020   14.4380 C.ar   92  G92         0.1817
   2007  N9         1.2750   36.0480   15.0570 N.ar   92  G92        -0.2693
   2008  OP1       -4.8800   35.6480   17.2040 O.3    92  G92        -0.4373
   2009  OP2       -3.9280   34.7420   15.0170 O.co2  92  G92        -0.5172
   2010  P         -1.9340   40.1710   16.6240 P.3    93  U93         0.2141
   2011  C5'        0.2330   41.5780   16.1380 C.3    93  U93         0.1812
   2012  O5'       -0.8800   40.8410   15.6260 O.3    93  U93        -0.3114
   2013  C4'        1.1950   41.9150   15.0210 C.3    93  U93         0.1773
   2014  O4'        1.7510   40.6900   14.4960 O.3    93  U93        -0.3307
   2015  C3'        0.5510   42.5750   13.8080 C.3    93  U93         0.1860
   2016  O3'        0.3580   43.9690   14.0220 O.3    93  U93        -0.3112
   2017  C2'        1.5530   42.2590   12.7030 C.3    93  U93         0.2309
   2018  O2'        2.6670   43.1340   12.6690 O.3    93  U93        -0.2156
   2019  C1'        2.0070   40.8600   13.1120 C.3    93  U93         0.2420
   2020  N1         1.3580   39.7640   12.3300 N.ar   93  U93        -0.2534
   2021  C2         2.0750   39.2170   11.2900 C.ar   93  U93         0.3546
   2022  O2         3.1930   39.5930   10.9920 O.2    93  U93        -0.2443
   2023  N3         1.4320   38.2120   10.6070 N.ar   93  U93        -0.1530
   2024  C4         0.1660   37.7060   10.8570 C.ar   93  U93         0.2846
   2025  O4        -0.2740   36.7950   10.1580 O.2    93  U93        -0.2650
   2026  C5        -0.5250   38.3260   11.9620 C.ar   93  U93         0.0814
   2027  C6         0.0850   39.3100   12.6410 C.ar   93  U93         0.0870
   2028  OP1       -2.4820   41.2250   17.5100 O.3    93  U93        -0.4373
   2029  OP2       -2.8600   39.3320   15.8340 O.co2  93  U93        -0.5172
   2030  P         -1.1210   44.5730   13.9340 P.3    94  U94         0.2141
   2031  C5'       -0.7720   46.7270   12.4250 C.3    94  U94         0.1812
   2032  O5'       -1.0860   45.3430   12.5300 O.3    94  U94        -0.3114
   2033  C4'       -1.8200   47.4420   11.5860 C.3    94  U94         0.1773
   2034  O4'       -1.9730   46.7820   10.3020 O.3    94  U94        -0.3307
   2035  C3'       -3.2190   47.4980   12.1940 C.3    94  U94         0.1860
   2036  O3'       -3.7150   48.8240   12.1110 O.3    94  U94        -0.3112
   2037  C2'       -4.0340   46.5170   11.3520 C.3    94  U94         0.2309
   2038  O2'       -5.3940   46.8690   11.2320 O.3    94  U94        -0.2156
   2039  C1'       -3.3460   46.6240   10.0010 C.3    94  U94         0.2420
   2040  N1        -3.5230   45.3950    9.1630 N.ar   94  U94        -0.2534
   2041  C2        -4.3860   45.4150    8.0810 C.ar   94  U94         0.3546
   2042  O2        -5.0330   46.3870    7.7450 O.2    94  U94        -0.2443
   2043  N3        -4.4680   44.2310    7.3890 N.ar   94  U94        -0.1530
   2044  C4        -3.7890   43.0610    7.6680 C.ar   94  U94         0.2846
   2045  O4        -3.9680   42.0870    6.9600 O.2    94  U94        -0.2650
   2046  C5        -2.9050   43.1020    8.8020 C.ar   94  U94         0.0814
   2047  C6        -2.8100   44.2470    9.4900 C.ar   94  U94         0.0870
   2048  OP1       -1.2800   45.5240   15.0560 O.3    94  U94        -0.4373
   2049  OP2       -2.0840   43.4620   13.7750 O.co2  94  U94        -0.5172
   2050  P         -4.5400   49.4260   13.3380 P.3    95  C95         0.2141
   2051  C5'       -7.0640   49.0610   13.9920 C.3    95  C95         0.1812
   2052  O5'       -6.0300   48.9340   13.0180 O.3    95  C95        -0.3114
   2053  C4'       -8.4150   48.6890   13.4100 C.3    95  C95         0.1773
   2054  O4'       -8.7710   49.6520   12.3840 O.3    95  C95        -0.3307
   2055  C3'       -8.4830   47.3540   12.6830 C.3    95  C95         0.1860
   2056  O3'       -8.6600   46.2630   13.5750 O.3    95  C95        -0.3112
   2057  C2'       -9.7010   47.5730   11.7950 C.3    95  C95         0.2309
   2058  O2'      -10.9180   47.4940   12.5090 O.3    95  C95        -0.2156
   2059  C1'       -9.4720   49.0040   11.3330 C.3    95  C95         0.2420
   2060  N1        -8.7290   49.1160   10.0180 N.ar   95  C95        -0.2535
   2061  C2        -9.4380   49.0720    8.8010 C.ar   95  C95         0.3532
   2062  O2       -10.6680   48.9380    8.8010 O.2    95  C95        -0.2443
   2063  N3        -8.7480   49.1810    7.6350 N.ar   95  C95        -0.1739
   2064  C4        -7.4190   49.3290    7.6500 C.ar   95  C95         0.1759
   2065  N4        -6.7830   49.4310    6.4820 N.pl3  95  C95        -0.1070
   2066  C5        -6.6780   49.3750    8.8650 C.ar   95  C95         0.0566
   2067  C6        -7.3670   49.2680   10.0070 C.ar   95  C95         0.0850
   2068  OP1       -4.5040   50.9030   13.2430 O.2    95  C95        -0.5172
   2069  OP2       -4.0630   48.7470   14.5680 O.co2  95  C95        -0.4373
   2070  P         -8.2210   44.7870   13.1210 P.3    96  C96         0.2141
   2071  C5'      -10.6500   44.1120   12.3370 C.3    96  C96         0.1812
   2072  O5'       -9.3170   44.4710   12.0000 O.3    96  C96        -0.3114
   2073  C4'      -11.3730   43.5970   11.1060 C.3    96  C96         0.1773
   2074  O4'      -11.4780   44.6690   10.1290 O.3    96  C96        -0.3307
   2075  C3'      -10.6630   42.4820   10.3460 C.3    96  C96         0.1860
   2076  O3'      -10.8480   41.1790   10.9200 O.3    96  C96        -0.3112
   2077  C2'      -11.2970   42.6200    8.9640 C.3    96  C96         0.2309
   2078  O2'      -12.5630   42.0030    8.8700 O.3    96  C96        -0.2156
   2079  C1'      -11.4450   44.1330    8.8160 C.3    96  C96         0.2420
   2080  N1       -10.3280   44.7310    7.9960 N.ar   96  C96        -0.2535
   2081  C2       -10.3510   44.6270    6.5900 C.ar   96  C96         0.3532
   2082  O2       -11.2920   44.0610    6.0220 O.2    96  C96        -0.2443
   2083  N3        -9.3350   45.1630    5.8680 N.ar   96  C96        -0.1739
   2084  C4        -8.3240   45.7710    6.4910 C.ar   96  C96         0.1759
   2085  N4        -7.3480   46.2800    5.7370 N.pl3  96  C96        -0.1070
   2086  C5        -8.2710   45.8820    7.9130 C.ar   96  C96         0.0566
   2087  C6        -9.2800   45.3560    8.6160 C.ar   96  C96         0.0850
   2088  OP1       -8.4020   43.8680   14.2690 O.3    96  C96        -0.4373
   2089  OP2       -6.8830   44.8440   12.4780 O.co2  96  C96        -0.5172
   2090  P         -9.7280   40.0560   10.6510 P.3    97  U97         0.2141
   2091  C5'      -11.1130   38.8140    8.7690 C.3    97  U97         0.1812
   2092  O5'       -9.9910   39.6180    9.1330 O.3    97  U97        -0.3114
   2093  C4'      -11.2080   38.6270    7.2630 C.3    97  U97         0.1773
   2094  O4'      -11.2290   39.9260    6.6170 O.3    97  U97        -0.3307
   2095  C3'      -10.0310   37.9230    6.6040 C.3    97  U97         0.1860
   2096  O3'      -10.0770   36.4990    6.7250 O.3    97  U97        -0.3112
   2097  C2'      -10.1390   38.4160    5.1620 C.3    97  U97         0.2309
   2098  O2'      -11.0960   37.7150    4.3960 O.3    97  U97        -0.2156
   2099  C1'      -10.5810   39.8620    5.3580 C.3    97  U97         0.2420
   2100  N1        -9.4360   40.8480    5.2970 N.ar   97  U97        -0.2534
   2101  C2        -9.0000   41.3220    4.0660 C.ar   97  U97         0.3546
   2102  O2        -9.4880   40.9950    3.0000 O.2    97  U97        -0.2443
   2103  N3        -7.9520   42.2130    4.1200 N.ar   97  U97        -0.1530
   2104  C4        -7.3030   42.6660    5.2550 C.ar   97  U97         0.2846
   2105  O4        -6.3790   43.4610    5.1510 O.2    97  U97        -0.2650
   2106  C5        -7.8040   42.1360    6.4970 C.ar   97  U97         0.0814
   2107  C6        -8.8270   41.2700    6.4700 C.ar   97  U97         0.0870
   2108  OP1       -9.9710   38.8870   11.5220 O.3    97  U97        -0.4373
   2109  OP2       -8.4070   40.7260   10.7110 O.co2  97  U97        -0.5172
   2110  P         -8.6710   35.7180    6.8090 P.3    98  C98         0.2141
   2111  C5'       -8.6320   35.0040    4.2750 C.3    98  C98         0.1812
   2112  O5'       -8.1280   35.8580    5.3070 O.3    98  C98        -0.3114
   2113  C4'       -7.9660   35.2440    2.9280 C.3    98  C98         0.1773
   2114  O4'       -8.1210   36.6340    2.5460 O.3    98  C98        -0.3307
   2115  C3'       -6.4610   35.0190    2.8480 C.3    98  C98         0.1860
   2116  O3'       -6.1330   33.6430    2.7310 O.3    98  C98        -0.3112
   2117  C2'       -6.1400   35.8090    1.5840 C.3    98  C98         0.2309
   2118  O2'       -6.5560   35.1740    0.3920 O.3    98  C98        -0.2156
   2119  C1'       -7.0040   37.0500    1.7780 C.3    98  C98         0.2420
   2120  N1        -6.2890   38.1770    2.4660 N.ar   98  C98        -0.2535
   2121  C2        -5.2780   38.8820    1.7870 C.ar   98  C98         0.3532
   2122  O2        -4.9740   38.5790    0.6270 O.2    98  C98        -0.2443
   2123  N3        -4.6450   39.8940    2.4310 N.ar   98  C98        -0.1739
   2124  C4        -4.9790   40.2100    3.6860 C.ar   98  C98         0.1759
   2125  N4        -4.3200   41.2170    4.2620 N.pl3  98  C98        -0.1070
   2126  C5        -6.0010   39.5110    4.4000 C.ar   98  C98         0.0566
   2127  C6        -6.6210   38.5150    3.7560 C.ar   98  C98         0.0850
   2128  OP1       -8.9000   34.2800    7.0950 O.2    98  C98        -0.5172
   2129  OP2       -7.7720   36.4980    7.6940 O.co2  98  C98        -0.4373
   2130  P         -4.8200   33.0790    3.4540 P.3    99  C99         0.2141
   2131  C5'       -3.5300   32.8340    1.1650 C.3    99  C99         0.1812
   2132  O5'       -3.6430   33.4610    2.4390 O.3    99  C99        -0.3114
   2133  C4'       -2.5890   33.6130    0.2630 C.3    99  C99         0.1773
   2134  O4'       -3.0120   34.9980    0.1510 O.3    99  C99        -0.3307
   2135  C3'       -1.1540   33.7390    0.7480 C.3    99  C99         0.1860
   2136  O3'       -0.4070   32.5490    0.5410 O.3    99  C99        -0.3112
   2137  C2'       -0.6780   34.8870   -0.1380 C.3    99  C99         0.2309
   2138  O2'       -0.4040   34.5080   -1.4720 O.3    99  C99        -0.2156
   2139  C1'       -1.8860   35.8190   -0.1010 C.3    99  C99         0.2420
   2140  N1        -1.7330   36.8440    0.9760 N.ar   99  C99        -0.2535
   2141  C2        -0.8380   37.9170    0.8000 C.ar   99  C99         0.3532
   2142  O2        -0.1910   38.0240   -0.2500 O.2    99  C99        -0.2443
   2143  N3        -0.7050   38.8300    1.7960 N.ar   99  C99        -0.1739
   2144  C4        -1.4070   38.6990    2.9230 C.ar   99  C99         0.1759
   2145  N4        -1.2340   39.6220    3.8660 N.pl3  99  C99        -0.1070
   2146  C5        -2.3160   37.6190    3.1340 C.ar   99  C99         0.0566
   2147  C6        -2.4450   36.7260    2.1430 C.ar   99  C99         0.0850
   2148  OP1       -4.9150   31.6050    3.5380 O.2    99  C99        -0.5172
   2149  OP2       -4.6050   33.8610    4.6890 O.co2  99  C99        -0.4373
   2150  P          0.6850   32.0880    1.6180 P.3   100  C100        0.2141
   2151  C5'        2.7270   33.0970    0.3010 C.3   100  C100        0.1812
   2152  O5'        1.8400   33.1660    1.4010 O.3   100  C100       -0.3114
   2153  C4'        3.5600   34.3620    0.2370 C.3   100  C100        0.1773
   2154  O4'        2.7060   35.5400    0.3200 O.3   100  C100       -0.3307
   2155  C3'        4.5420   34.5590    1.3800 C.3   100  C100        0.1860
   2156  O3'        5.6930   33.7360    1.2390 O.3   100  C100       -0.3112
   2157  C2'        4.8370   36.0460    1.1960 C.3   100  C100        0.2309
   2158  O2'        5.7000   36.3400    0.1150 O.3   100  C100       -0.2156
   2159  C1'        3.4340   36.5950    0.9230 C.3   100  C100        0.2420
   2160  N1         2.7710   37.0500    2.1960 N.ar  100  C100       -0.2535
   2161  C2         3.1390   38.2800    2.7670 C.ar  100  C100        0.3532
   2162  O2         3.9840   38.9860    2.2120 O.2   100  C100       -0.2443
   2163  N3         2.5570   38.6780    3.9180 N.ar  100  C100       -0.1739
   2164  C4         1.6470   37.9010    4.4990 C.ar  100  C100        0.1759
   2165  N4         1.0960   38.3390    5.6300 N.pl3 100  C100       -0.1070
   2166  C5         1.2560   36.6430    3.9540 C.ar  100  C100        0.0566
   2167  C6         1.8400   36.2600    2.8140 C.ar  100  C100        0.0850
   2168  OP1        1.1850   30.7480    1.2400 O.2   100  C100       -0.5172
   2169  OP2        0.1610   32.3090    2.9820 O.co2 100  C100       -0.4373
   2170  P          6.4310   33.1340    2.5370 P.3   101  G101        0.2141
   2171  C5'        8.2360   35.0400    2.4760 C.3   101  G101        0.1812
   2172  O5'        7.1510   34.4210    3.1620 O.3   101  G101       -0.3114
   2173  C4'        8.5810   36.3780    3.1030 C.3   101  G101        0.1773
   2174  O4'        7.3980   37.2150    3.1580 O.3   101  G101       -0.3307
   2175  C3'        9.0550   36.3040    4.5490 C.3   101  G101        0.1860
   2176  O3'       10.4450   36.0070    4.6230 O.3   101  G101       -0.3112
   2177  C2'        8.7260   37.6980    5.0690 C.3   101  G101        0.2309
   2178  O2'        9.6740   38.6710    4.6850 O.3   101  G101       -0.2156
   2179  C1'        7.4000   37.9570    4.3650 C.3   101  G101        0.2408
   2180  N1         4.4270   39.0950    8.3330 N.ar  101  G101       -0.1709
   2181  C2         5.5480   39.7480    7.8700 C.ar  101  G101        0.2606
   2182  N2         5.9310   40.8490    8.5320 N.pl3 101  G101       -0.0859
   2183  N3         6.2470   39.3480    6.8180 N.ar  101  G101       -0.1918
   2184  C4         5.7320   38.2260    6.2530 C.ar  101  G101        0.1723
   2185  C5         4.6260   37.5040    6.6420 C.ar  101  G101        0.1748
   2186  C6         3.8840   37.9410    7.7690 C.ar  101  G101        0.3023
   2187  O6         2.8720   37.4260    8.2690 O.2   101  G101       -0.2633
   2188  N7         4.4330   36.4120    5.8010 N.ar  101  G101       -0.2173
   2189  C8         5.4060   36.4970    4.9380 C.ar  101  G101        0.1817
   2190  N9         6.2320   37.5720    5.1500 N.ar  101  G101       -0.2693
   2191  OP1        7.4940   32.1970    2.0930 O.2   101  G101       -0.5172
   2192  OP2        5.3800   32.6650    3.4730 O.co2 101  G101       -0.4373
   2193  P         10.9420   34.8280    5.5900 P.3   102  C102        0.2141
   2194  C5'       11.7300   36.7800    7.2340 C.3   102  C102        0.1812
   2195  O5'       11.0460   35.5330    7.0310 O.3   102  C102       -0.3114
   2196  C4'       11.2120   37.5480    8.4460 C.3   102  C102        0.1773
   2197  O4'        9.8840   38.0970    8.2000 O.3   102  C102       -0.3307
   2198  C3'       11.0240   36.7730    9.7460 C.3   102  C102        0.1860
   2199  O3'       12.2360   36.5680   10.4160 O.3   102  C102       -0.3112
   2200  C2'       10.1090   37.7200   10.5150 C.3   102  C102        0.2309
   2201  O2'       10.7700   38.8720   11.0030 O.3   102  C102       -0.2156
   2202  C1'        9.1380   38.1080    9.4090 C.3   102  C102        0.2420
   2203  N1         7.9610   37.1750    9.3390 N.ar  102  C102       -0.2535
   2204  C2         6.8170   37.4750   10.0910 C.ar  102  C102        0.3532
   2205  O2         6.8000   38.4970   10.7810 O.2   102  C102       -0.2443
   2206  N3         5.7490   36.6370   10.0380 N.ar  102  C102       -0.1739
   2207  C4         5.7910   35.5390    9.2820 C.ar  102  C102        0.1759
   2208  N4         4.7150   34.7560    9.2700 N.pl3 102  C102       -0.1070
   2209  C5         6.9420   35.2010    8.5100 C.ar  102  C102        0.0566
   2210  C6         7.9890   36.0370    8.5690 C.ar  102  C102        0.0850
   2211  OP1       12.3010   34.4760    5.1400 O.2   102  C102       -0.5172
   2212  OP2        9.8930   33.7800    5.6790 O.co2 102  C102       -0.4373
   2213  P         12.4270   35.2250   11.2550 P.3   103  U103        0.2141
   2214  C5'       11.9010   36.4870   13.5060 C.3   103  U103        0.1812
   2215  O5'       11.5610   35.4590   12.5790 O.3   103  U103       -0.3114
   2216  C4'       10.9010   36.5440   14.6420 C.3   103  U103        0.1773
   2217  O4'        9.5990   36.9420   14.1450 O.3   103  U103       -0.3307
   2218  C3'       10.6370   35.2070   15.3100 C.3   103  U103        0.1860
   2219  O3'       11.6290   34.9410   16.2750 O.3   103  U103       -0.3112
   2220  C2'        9.2730   35.4450   15.9440 C.3   103  U103        0.2309
   2221  O2'        9.3390   36.2110   17.1310 O.3   103  U103       -0.2156
   2222  C1'        8.5830   36.2220   14.8290 C.3   103  U103        0.2420
   2223  N1         7.8130   35.3290   13.8780 N.ar  103  U103       -0.2534
   2224  C2         6.5440   34.8940   14.2330 C.ar  103  U103        0.3546
   2225  O2         5.9830   35.1920   15.2770 O.2   103  U103       -0.2443
   2226  N3         5.9370   34.0900   13.3010 N.ar  103  U103       -0.1530
   2227  C4         6.4440   33.6810   12.0800 C.ar  103  U103        0.2846
   2228  O4         5.7700   32.9580   11.3590 O.2   103  U103       -0.2650
   2229  C5         7.7630   34.1640   11.7740 C.ar  103  U103        0.0814
   2230  C6         8.3770   34.9490   12.6670 C.ar  103  U103        0.0870
   2231  OP1       13.8580   35.1160   11.6150 O.3   103  U103       -0.4373
   2232  OP2       11.7790   34.1250   10.5120 O.co2 103  U103       -0.5172
   2233  P         12.0870   33.4310   16.5010 P.3   104  C104        0.2141
   2234  C5'       10.6450   33.0740   18.6690 C.3   104  C104        0.1812
   2235  O5'       10.8340   32.7970   17.2800 O.3   104  C104       -0.3114
   2236  C4'        9.2790   32.6400   19.1670 C.3   104  C104        0.1773
   2237  O4'        8.2390   33.2340   18.3420 O.3   104  C104       -0.3307
   2238  C3'        8.9980   31.1460   19.0970 C.3   104  C104        0.1860
   2239  O3'        9.5680   30.4180   20.1890 O.3   104  C104       -0.3112
   2240  C2'        7.4670   31.1510   19.0900 C.3   104  C104        0.2309
   2241  O2'        6.8610   31.4210   20.3350 O.3   104  C104       -0.2156
   2242  C1'        7.1800   32.3090   18.1440 C.3   104  C104        0.2420
   2243  N1         7.0590   31.8480   16.6990 N.ar  104  C104       -0.2535
   2244  C2         5.8960   31.1770   16.2850 C.ar  104  C104        0.3532
   2245  O2         4.9860   30.9830   17.0960 O.2   104  C104       -0.2443
   2246  N3         5.7820   30.7560   15.0010 N.ar  104  C104       -0.1739
   2247  C4         6.7700   30.9760   14.1380 C.ar  104  C104        0.1759
   2248  N4         6.6100   30.5420   12.8850 N.pl3 104  C104       -0.1070
   2249  C5         7.9670   31.6490   14.5290 C.ar  104  C104        0.0566
   2250  C6         8.0700   32.0580   15.7990 C.ar  104  C104        0.0850
   2251  OP1       13.2670   33.4380   17.3940 O.3   104  C104       -0.4373
   2252  OP2       12.2250   32.8100   15.1660 O.co2 104  C104       -0.5172
   2253  P         10.1780   28.9470   19.9580 P.3   105  U105        0.2141
   2254  C5'        7.9850   27.9560   20.9850 C.3   105  U105        0.1812
   2255  O5'        8.8900   27.9990   19.8870 O.3   105  U105       -0.3114
   2256  C4'        6.7270   27.1720   20.6620 C.3   105  U105        0.1773
   2257  O4'        5.8840   27.9170   19.7440 O.3   105  U105       -0.3307
   2258  C3'        6.9390   25.8320   19.9740 C.3   105  U105        0.1860
   2259  O3'        7.3240   24.8340   20.9070 O.3   105  U105       -0.3112
   2260  C2'        5.5370   25.6190   19.4250 C.3   105  U105        0.2309
   2261  O2'        4.5940   25.3020   20.4240 O.3   105  U105       -0.2156
   2262  C1'        5.2430   27.0090   18.8620 C.3   105  U105        0.2420
   2263  N1         5.7480   27.1330   17.4410 N.ar  105  U105       -0.2534
   2264  C2         5.0110   26.5580   16.4140 C.ar  105  U105        0.3546
   2265  O2         3.9550   25.9680   16.5780 O.2   105  U105       -0.2443
   2266  N3         5.5590   26.7020   15.1610 N.ar  105  U105       -0.1530
   2267  C4         6.7450   27.3360   14.8370 C.ar  105  U105        0.2846
   2268  O4         7.1040   27.3790   13.6680 O.2   105  U105       -0.2650
   2269  C5         7.4620   27.9050   15.9490 C.ar  105  U105        0.0814
   2270  C6         6.9460   27.7840   17.1770 C.ar  105  U105        0.0870
   2271  OP1       10.9570   28.5790   21.1630 O.3   105  U105       -0.4373
   2272  OP2       10.8250   28.9070   18.6310 O.co2 105  U105       -0.5172
   2273  P          8.3140   23.6390   20.4980 P.3   106  G106        0.2141
   2274  C5'        6.2210   22.0450   20.6630 C.3   106  G106        0.1812
   2275  O5'        7.3060   22.5470   19.8960 O.3   106  G106       -0.3114
   2276  C4'        5.2400   21.3130   19.7690 C.3   106  G106        0.1773
   2277  O4'        4.5850   22.2600   18.8850 O.3   106  G106       -0.3307
   2278  C3'        5.8260   20.2820   18.8090 C.3   106  G106        0.1860
   2279  O3'        6.0610   19.0300   19.4300 O.3   106  G106       -0.3112
   2280  C2'        4.6840   20.1760   17.8100 C.3   106  G106        0.2309
   2281  O2'        3.5780   19.4630   18.3310 O.3   106  G106       -0.2156
   2282  C1'        4.3380   21.6490   17.6250 C.3   106  G106        0.2408
   2283  N1         5.2160   22.1120   12.5930 N.ar  106  G106       -0.1709
   2284  C2         4.2730   21.3530   13.2430 C.ar  106  G106        0.2606
   2285  N2         3.4650   20.6230   12.4640 N.pl3 106  G106       -0.0859
   2286  N3         4.1340   21.3120   14.5660 N.ar  106  G106       -0.1918
   2287  C4         5.0320   22.1040   15.2080 C.ar  106  G106        0.1723
   2288  C5         6.0120   22.8960   14.6430 C.ar  106  G106        0.1748
   2289  C6         6.1470   22.9320   13.2270 C.ar  106  G106        0.3023
   2290  O6         6.9570   23.5740   12.5390 O.2   106  G106       -0.2633
   2291  N7         6.7320   23.5600   15.6320 N.ar  106  G106       -0.2173
   2292  C8         6.1840   23.1630   16.7460 C.ar  106  G106        0.1817
   2293  N9         5.1440   22.2790   16.5730 N.ar  106  G106       -0.2693
   2294  OP1        8.9450   23.1000   21.7250 O.3   106  G106       -0.4373
   2295  OP2        9.1860   24.0990   19.3960 O.co2 106  G106       -0.5172
   2296  P          7.3600   18.1730   19.0560 P.3   107  C107        0.2141
   2297  C5'        5.8680   16.5990   17.5910 C.3   107  C107        0.1812
   2298  O5'        6.9770   17.4840   17.6680 O.3   107  C107       -0.3114
   2299  C4'        5.4990   16.3330   16.1450 C.3   107  C107        0.1773
   2300  O4'        5.0910   17.5610   15.4820 O.3   107  C107       -0.3307
   2301  C3'        6.6340   15.8370   15.2660 C.3   107  C107        0.1860
   2302  O3'        6.8740   14.4770   15.5090 O.3   107  C107       -0.3112
   2303  C2'        6.0160   16.0940   13.9000 C.3   107  C107        0.2309
   2304  O2'        4.9490   15.2220   13.5900 O.3   107  C107       -0.2156
   2305  C1'        5.4750   17.5020   14.1190 C.3   107  C107        0.2420
   2306  N1         6.4950   18.5590   13.8040 N.ar  107  C107       -0.2535
   2307  C2         6.7620   18.8830   12.4610 C.ar  107  C107        0.3532
   2308  O2         6.1510   18.3030   11.5520 O.2   107  C107       -0.2443
   2309  N3         7.6920   19.8360   12.1920 N.ar  107  C107       -0.1739
   2310  C4         8.3330   20.4480   13.1890 C.ar  107  C107        0.1759
   2311  N4         9.2290   21.3780   12.8720 N.pl3 107  C107       -0.1070
   2312  C5         8.0850   20.1390   14.5580 C.ar  107  C107        0.0566
   2313  C6         7.1710   19.1960   14.8130 C.ar  107  C107        0.0850
   2314  OP1        7.5020   17.0890   20.0540 O.3   107  C107       -0.4373
   2315  OP2        8.4650   19.1260   18.8140 O.co2 107  C107       -0.5172
   2316  P          8.3290   13.8260   15.3610 P.3   108  A108        0.2141
   2317  C5'        7.8410   12.9130   12.9510 C.3   108  A108        0.1812
   2318  O5'        8.5190   13.8510   13.7720 O.3   108  A108       -0.3114
   2319  C4'        7.9960   13.2770   11.4890 C.3   108  A108        0.1773
   2320  O4'        7.6890   14.6770   11.3000 O.3   108  A108       -0.3307
   2321  C3'        9.3990   13.1600   10.9230 C.3   108  A108        0.1860
   2322  O3'        9.6880   11.8200   10.5900 O.3   108  A108       -0.3112
   2323  C2'        9.2850   14.0440    9.6860 C.3   108  A108        0.2309
   2324  O2'        8.5840   13.4280    8.6230 O.3   108  A108       -0.2156
   2325  C1'        8.4450   15.1920   10.2190 C.3   108  A108        0.2408
   2326  N1        11.2650   19.2830    8.8700 N.ar  108  A108       -0.2040
   2327  C2        10.6100   18.3680    8.1430 C.ar  108  A108        0.2016
   2328  N3         9.8900   17.3220    8.5580 N.ar  108  A108       -0.2048
   2329  C4         9.8760   17.2540    9.8990 C.ar  108  A108        0.1692
   2330  C5        10.5030   18.1200   10.7800 C.ar  108  A108        0.1518
   2331  C6        11.2340   19.1860   10.2120 C.ar  108  A108        0.1919
   2332  N6        11.8900   20.0970   10.9280 N.pl3 108  A108       -0.1054
   2333  N7        10.2680   17.7380   12.0900 N.ar  108  A108       -0.2193
   2334  C8         9.5170   16.6670   11.9740 C.ar  108  A108        0.1816
   2335  N9         9.2470   16.3180   10.6810 N.ar  108  A108       -0.2693
   2336  OP1        8.1770   12.4320   15.8390 O.2   108  A108       -0.5172
   2337  OP2        9.3800   14.6780   15.9670 O.co2 108  A108       -0.4373
   2338  P         11.1470   11.2430   10.9020 P.3   109  U109        0.2141
   2339  C5'       11.5760   11.5840    8.2880 C.3   109  U109        0.1812
   2340  O5'       12.0210   11.7330    9.6510 O.3   109  U109       -0.3114
   2341  C4'       12.4190   12.4490    7.3620 C.3   109  U109        0.1773
   2342  O4'       12.0530   13.8450    7.5210 O.3   109  U109       -0.3307
   2343  C3'       13.9180   12.3960    7.6400 C.3   109  U109        0.1860
   2344  O3'       14.5110   11.3580    6.8770 O.3   109  U109       -0.3112
   2345  C2'       14.4100   13.7690    7.1960 C.3   109  U109        0.2309
   2346  O2'       14.7850   13.7980    5.8330 O.3   109  U109       -0.2156
   2347  C1'       13.2020   14.6710    7.4490 C.3   109  U109        0.2420
   2348  N1        13.3670   15.4700    8.7090 N.ar  109  U109       -0.2534
   2349  C2        13.9130   16.7380    8.6400 C.ar  109  U109        0.3546
   2350  O2        14.2600   17.2620    7.6010 O.2   109  U109       -0.2443
   2351  N3        14.0350   17.3830    9.8480 N.ar  109  U109       -0.1530
   2352  C4        13.6800   16.8960   11.0950 C.ar  109  U109        0.2846
   2353  O4        13.8480   17.5840   12.0910 O.2   109  U109       -0.2650
   2354  C5        13.1220   15.5730   11.0980 C.ar  109  U109        0.0814
   2355  C6        12.9930   14.9270    9.9310 C.ar  109  U109        0.0870
   2356  OP1       11.0670    9.7640   10.8520 O.2   109  U109       -0.5172
   2357  OP2       11.6710   11.9320   12.1080 O.co2 109  U109       -0.4373
   2358  P         15.2250   10.1130    7.5900 P.3   110  G110        0.2141
   2359  C5'       17.7380   10.6450    7.2580 C.3   110  G110        0.1812
   2360  O5'       16.6070   10.7390    8.0900 O.3   110  G110       -0.3114
   2361  C4'       18.7560   11.7060    7.6120 C.3   110  G110        0.1773
   2362  O4'       19.4190   11.2980    8.8390 O.3   110  G110       -0.3307
   2363  C3'       19.8350   11.8810    6.5460 C.3   110  G110        0.1860
   2364  O3'       19.5130   12.9960    5.6690 O.3   110  G110       -0.3112
   2365  C2'       21.1320   12.0270    7.3650 C.3   110  G110        0.2309
   2366  O2'       21.4940   13.3700    7.6600 O.3   110  G110       -0.2156
   2367  C1'       20.8290   11.2670    8.6700 C.3   110  G110        0.2408
   2368  N1        21.0470    6.5480    6.5830 N.ar  110  G110       -0.1709
   2369  C2        20.4400    7.6870    6.0880 C.ar  110  G110        0.2606
   2370  N2        19.8060    7.5950    4.9050 N.pl3 110  G110       -0.0859
   2371  N3        20.4530    8.8530    6.7190 N.ar  110  G110       -0.1918
   2372  C4        21.1200    8.8120    7.9040 C.ar  110  G110        0.1723
   2373  C5        21.7530    7.7250    8.4770 C.ar  110  G110        0.1748
   2374  C6        21.7370    6.4810    7.7970 C.ar  110  G110        0.3023
   2375  O6        22.2470    5.4130    8.1520 O.2   110  G110       -0.2633
   2376  N7        22.3280    8.0720    9.6920 N.ar  110  G110       -0.2173
   2377  C8        22.0340    9.3410    9.8280 C.ar  110  G110        0.1817
   2378  N9        21.3030    9.8700    8.7820 N.ar  110  G110       -0.2693
   2379  OP1       15.4730    9.0960    6.5370 O.2   110  G110       -0.5172
   2380  OP2       14.4570    9.7510    8.8060 O.co2 110  G110       -0.4373
   2381  P         18.6460   12.7770    4.3240 P.3   111  C111        0.2141
   2382  C5'       19.7360   14.3980    2.5010 C.3   111  C111        0.1812
   2383  O5'       18.7660   14.1580    3.5190 O.3   111  C111       -0.3114
   2384  C4'       20.1400   15.8660    2.4900 C.3   111  C111        0.1773
   2385  O4'       19.0360   16.7130    2.9210 O.3   111  C111       -0.3307
   2386  C3'       21.2770   16.2360    3.4300 C.3   111  C111        0.1860
   2387  O3'       22.5370   15.9710    2.8440 O.3   111  C111       -0.3112
   2388  C2'       21.0480   17.7320    3.6090 C.3   111  C111        0.2309
   2389  O2'       21.5520   18.5130    2.5440 O.3   111  C111       -0.2156
   2390  C1'       19.5240   17.8090    3.6720 C.3   111  C111        0.2420
   2391  N1        19.0070   17.7580    5.0860 N.ar  111  C111       -0.2535
   2392  C2        19.0970   18.8980    5.9080 C.ar  111  C111        0.3532
   2393  O2        19.5920   19.9390    5.4640 O.2   111  C111       -0.2443
   2394  N3        18.6320   18.8320    7.1830 N.ar  111  C111       -0.1739
   2395  C4        18.1040   17.6980    7.6470 C.ar  111  C111        0.1759
   2396  N4        17.6630   17.6810    8.9030 N.pl3 111  C111       -0.1070
   2397  C5        18.0060   16.5260    6.8380 C.ar  111  C111        0.0566
   2398  C6        18.4670   16.6020    5.5830 C.ar  111  C111        0.0850
   2399  OP1       17.2240   12.6620    4.7260 O.3   111  C111       -0.4373
   2400  OP2       19.3040   11.7010    3.5420 O.co2 111  C111       -0.5172
   2401  P         23.7700   15.5290    3.7650 P.3   112  C112        0.2141
   2402  C5'       24.7800   17.9730    3.7360 C.3   112  C112        0.1812
   2403  O5'       24.1810   16.9050    4.4740 O.3   112  C112       -0.3114
   2404  C4'       25.0190   19.1800    4.6280 C.3   112  C112        0.1773
   2405  O4'       23.7610   19.6900    5.1440 O.3   112  C112       -0.3307
   2406  C3'       25.8440   18.9150    5.8790 C.3   112  C112        0.1860
   2407  O3'       27.2270   18.9360    5.5860 O.3   112  C112       -0.3112
   2408  C2'       25.4400   20.0880    6.7600 C.3   112  C112        0.2309
   2409  O2'       26.1110   21.2820    6.4250 O.3   112  C112       -0.2156
   2410  C1'       23.9540   20.2120    6.4500 C.3   112  C112        0.2420
   2411  N1        23.0770   19.5070    7.4680 N.ar  112  C112       -0.2535
   2412  C2        22.8790   20.0860    8.7360 C.ar  112  C112        0.3532
   2413  O2        23.4190   21.1630    9.0040 O.2   112  C112       -0.2443
   2414  N3        22.0950   19.4510    9.6440 N.ar  112  C112       -0.1739
   2415  C4        21.5170   18.2870    9.3310 C.ar  112  C112        0.1759
   2416  N4        20.7490   17.7010   10.2530 N.pl3 112  C112       -0.1070
   2417  C5        21.6990   17.6760    8.0530 C.ar  112  C112        0.0566
   2418  C6        22.4790   18.3110    7.1660 C.ar  112  C112        0.0850
   2419  OP1       24.8890   15.0770    2.9020 O.2   112  C112       -0.5172
   2420  OP2       23.2470   14.6260    4.8140 O.co2 112  C112       -0.4373
   2421  P         28.2180   18.0470    6.4660 P.3   113  U113        0.2141
   2422  C5'       28.9150   20.0160    8.0680 C.3   113  U113        0.1812
   2423  O5'       28.1790   18.8140    7.8690 O.3   113  U113       -0.3114
   2424  C4'       28.7440   20.5180    9.4890 C.3   113  U113        0.1773
   2425  O4'       27.3420   20.7170    9.7990 O.3   113  U113       -0.3307
   2426  C3'       29.2100   19.5560   10.5630 C.3   113  U113        0.1860
   2427  O3'       30.6140   19.6390   10.6770 O.3   113  U113       -0.3112
   2428  C2'       28.4950   20.1350   11.7790 C.3   113  U113        0.2309
   2429  O2'       29.1640   21.2540   12.3210 O.3   113  U113       -0.2156
   2430  C1'       27.1510   20.5680   11.1930 C.3   113  U113        0.2420
   2431  N1        26.0510   19.5870   11.4820 N.ar  113  U113       -0.2534
   2432  C2        25.2940   19.7710   12.6250 C.ar  113  U113        0.3546
   2433  O2        25.4740   20.6970   13.3930 O.2   113  U113       -0.2443
   2434  N3        24.3060   18.8310   12.8330 N.ar  113  U113       -0.1530
   2435  C4        24.0080   17.7390   12.0290 C.ar  113  U113        0.2846
   2436  O4        23.0990   16.9810   12.3430 O.2   113  U113       -0.2650
   2437  C5        24.8390   17.6080   10.8550 C.ar  113  U113        0.0814
   2438  C6        25.8080   18.5130   10.6330 C.ar  113  U113        0.0870
   2439  OP1       29.5800   18.1460    5.8870 O.2   113  U113       -0.5172
   2440  OP2       27.5970   16.7160    6.6790 O.co2 113  U113       -0.4373
   2441  P         31.5310   18.3440   10.8880 P.3   114  G114        0.2141
   2442  C5'       30.5710   16.7560   12.7960 C.3   114  G114        0.1812
   2443  O5'       31.1780   17.9760   12.4030 O.3   114  G114       -0.3114
   2444  C4'       30.7380   16.5700   14.2910 C.3   114  G114        0.1773
   2445  O4'       31.9430   15.7940   14.5120 O.3   114  G114       -0.3307
   2446  C3'       30.9520   17.8340   15.1250 C.3   114  G114        0.1860
   2447  O3'       29.7240   18.4510   15.4610 O.3   114  G114       -0.3112
   2448  C2'       31.6330   17.2330   16.3450 C.3   114  G114        0.2309
   2449  O2'       30.7360   16.5280   17.1850 O.3   114  G114       -0.2156
   2450  C1'       32.6100   16.2720   15.6670 C.3   114  G114        0.2408
   2451  N1        36.9020   18.5800   17.2150 N.ar  114  G114       -0.1709
   2452  C2        35.8890   18.0460   17.9790 C.ar  114  G114        0.2606
   2453  N2        36.0260   18.1320   19.3120 N.pl3 114  G114       -0.0859
   2454  N3        34.8120   17.4620   17.4650 N.ar  114  G114       -0.1918
   2455  C4        34.8260   17.4520   16.1020 C.ar  114  G114        0.1723
   2456  C5        35.7900   17.9600   15.2620 C.ar  114  G114        0.1748
   2457  C6        36.9300   18.5780   15.8200 C.ar  114  G114        0.3023
   2458  O6        37.8850   19.0810   15.2150 O.2   114  G114       -0.2633
   2459  N7        35.4500   17.7590   13.9330 N.ar  114  G114       -0.2173
   2460  C8        34.3050   17.1440   13.9900 C.ar  114  G114        0.1817
   2461  N9        33.8610   16.9200   15.2700 N.ar  114  G114       -0.2693
   2462  OP1       32.9400   18.8100   10.8750 O.3   114  G114       -0.4373
   2463  OP2       31.0840   17.2540    9.9810 O.co2 114  G114       -0.5172
   2464  P         29.5880   20.0280   15.7210 P.3   115  G115        0.2141
   2465  C5'       30.0310   19.8850   18.2960 C.3   115  G115        0.1812
   2466  O5'       30.4680   20.2950   17.0150 O.3   115  G115       -0.3114
   2467  C4'       31.0300   20.3510   19.3340 C.3   115  G115        0.1773
   2468  O4'       32.3420   19.7780   19.0810 O.3   115  G115       -0.3307
   2469  C3'       31.2700   21.8470   19.3370 C.3   115  G115        0.1860
   2470  O3'       30.2530   22.4580   20.0980 O.3   115  G115       -0.3112
   2471  C2'       32.6110   21.8930   20.0370 C.3   115  G115        0.2309
   2472  O2'       32.4500   21.6100   21.4150 O.3   115  G115       -0.2156
   2473  C1'       33.3470   20.7230   19.3960 C.3   115  G115        0.2408
   2474  N1        37.6830   22.6360   17.3900 N.ar  115  G115       -0.1709
   2475  C2        37.2880   22.5820   18.7000 C.ar  115  G115        0.2606
   2476  N2        38.1540   23.0950   19.5750 N.pl3 115  G115       -0.0859
   2477  N3        36.1410   22.0590   19.1230 N.ar  115  G115       -0.1918
   2478  C4        35.3860   21.5850   18.1010 C.ar  115  G115        0.1723
   2479  C5        35.6970   21.5970   16.7540 C.ar  115  G115        0.1748
   2480  C6        36.9330   22.1560   16.3260 C.ar  115  G115        0.3023
   2481  O6        37.3870   22.2550   15.1770 O.2   115  G115       -0.2633
   2482  N7        34.6750   21.0180   16.0100 N.ar  115  G115       -0.2173
   2483  C8        33.7880   20.6820   16.9030 C.ar  115  G115        0.1817
   2484  N9        34.1390   20.9980   18.1950 N.ar  115  G115       -0.2693
   2485  OP1       28.1750   20.3010   16.0430 O.3   115  G115       -0.4373
   2486  OP2       30.2620   20.7570   14.6270 O.co2 115  G115       -0.5172
   2487  P         29.7390   23.9190   19.7180 P.3   116  G116        0.2141
   2488  C5'       30.8550   25.2140   21.7020 C.3   116  G116        0.1812
   2489  O5'       30.8770   24.8510   20.3330 O.3   116  G116       -0.3114
   2490  C4'       32.2210   25.7290   22.1280 C.3   116  G116        0.1773
   2491  O4'       33.2710   24.7740   21.7950 O.3   116  G116       -0.3307
   2492  C3'       32.6710   27.0140   21.4490 C.3   116  G116        0.1860
   2493  O3'       32.0240   28.1610   21.9970 O.3   116  G116       -0.3112
   2494  C2'       34.1650   26.9400   21.7460 C.3   116  G116        0.2309
   2495  O2'       34.4970   27.2510   23.0850 O.3   116  G116       -0.2156
   2496  C1'       34.4470   25.4710   21.4300 C.3   116  G116        0.2408
   2497  N1        37.7980   26.1890   17.6520 N.ar  116  G116       -0.1709
   2498  C2        37.9280   26.4270   19.0010 C.ar  116  G116        0.2606
   2499  N2        39.0890   26.9270   19.4070 N.pl3 116  G116       -0.0859
   2500  N3        36.9890   26.1890   19.9020 N.ar  116  G116       -0.1918
   2501  C4        35.8640   25.6870   19.3350 C.ar  116  G116        0.1723
   2502  C5        35.6290   25.4160   18.0070 C.ar  116  G116        0.1748
   2503  C6        36.6450   25.6680   17.0570 C.ar  116  G116        0.3023
   2504  O6        36.5980   25.4770   15.8310 O.2   116  G116       -0.2633
   2505  N7        34.3570   24.9080   17.8250 N.ar  116  G116       -0.2173
   2506  C8        33.8490   24.8890   19.0230 C.ar  116  G116        0.1817
   2507  N9        34.7080   25.3370   19.9970 N.ar  116  G116       -0.2693
   2508  OP1       28.4560   24.1670   20.4130 O.3   116  G116       -0.4373
   2509  OP2       29.8110   24.0720   18.2470 O.co2 116  G116       -0.5172
   2510  P         31.8070   29.4840   21.1130 P.3   117  G117        0.2141
   2511  C5'       34.1020   30.5490   21.8580 C.3   117  G117        0.1812
   2512  O5'       33.3180   29.9480   20.8210 O.3   117  G117       -0.3114
   2513  C4'       35.5380   30.8020   21.4400 C.3   117  G117        0.1773
   2514  O4'       36.0930   29.6510   20.7670 O.3   117  G117       -0.3307
   2515  C3'       35.7210   31.9280   20.4450 C.3   117  G117        0.1860
   2516  O3'       35.7520   33.1510   21.1360 O.3   117  G117       -0.3112
   2517  C2'       37.0880   31.5940   19.8740 C.3   117  G117        0.2309
   2518  O2'       38.1560   31.9540   20.7300 O.3   117  G117       -0.2156
   2519  C1'       37.0040   30.0800   19.7690 C.3   117  G117        0.2408
   2520  N1        38.0500   29.5590   14.7830 N.ar  117  G117       -0.1709
   2521  C2        38.8110   30.1390   15.7730 C.ar  117  G117        0.2606
   2522  N2        39.9970   30.6320   15.3960 N.pl3 117  G117       -0.0859
   2523  N3        38.4360   30.2220   17.0440 N.ar  117  G117       -0.1918
   2524  C4        37.2180   29.6710   17.2570 C.ar  117  G117        0.1723
   2525  C5        36.3880   29.0710   16.3360 C.ar  117  G117        0.1748
   2526  C6        36.7950   28.9820   14.9780 C.ar  117  G117        0.3023
   2527  O6        36.1890   28.4800   14.0150 O.2   117  G117       -0.2633
   2528  N7        35.2250   28.6300   16.9450 N.ar  117  G117       -0.2173
   2529  C8        35.3680   28.9650   18.1930 C.ar  117  G117        0.1817
   2530  N9        36.5540   29.5990   18.4610 N.ar  117  G117       -0.2693
   2531  OP1       31.1410   30.5080   21.9450 O.3   117  G117       -0.4373
   2532  OP2       31.1980   29.0890   19.8270 O.co2 117  G117       -0.5172
   2533  P         35.0670   34.4600   20.5200 P.3   118  G118        0.2141
   2534  C5'       37.5530   35.2220   20.0650 C.3   118  G118        0.1812
   2535  O5'       36.2320   34.9940   19.5620 O.3   118  G118       -0.3114
   2536  C4'       38.5440   35.4390   18.9340 C.3   118  G118        0.1773
   2537  O4'       38.8350   34.1920   18.2530 O.3   118  G118       -0.3307
   2538  C3'       38.0620   36.3620   17.8260 C.3   118  G118        0.1860
   2539  O3'       38.2800   37.7150   18.1780 O.3   118  G118       -0.3112
   2540  C2'       38.9290   35.9250   16.6510 C.3   118  G118        0.2309
   2541  O2'       40.2340   36.4750   16.6780 O.3   118  G118       -0.2156
   2542  C1'       38.9840   34.4200   16.8640 C.3   118  G118        0.2408
   2543  N1        37.4400   32.5150   12.3800 N.ar  118  G118       -0.1709
   2544  C2        38.5900   33.2130   12.6770 C.ar  118  G118        0.2606
   2545  N2        39.4330   33.4240   11.6590 N.pl3 118  G118       -0.0859
   2546  N3        38.8900   33.6650   13.8920 N.ar  118  G118       -0.1918
   2547  C4        37.9270   33.3620   14.8080 C.ar  118  G118        0.1723
   2548  C5        36.7480   32.6740   14.6060 C.ar  118  G118        0.1748
   2549  C6        36.4430   32.1970   13.3030 C.ar  118  G118        0.3023
   2550  O6        35.4410   31.5720   12.9240 O.2   118  G118       -0.2633
   2551  N7        36.0320   32.5760   15.7910 N.ar  118  G118       -0.2173
   2552  C8        36.7730   33.1890   16.6680 C.ar  118  G118        0.1817
   2553  N9        37.9390   33.6930   16.1480 N.ar  118  G118       -0.2693
   2554  OP1       34.8920   35.4360   21.6180 O.3   118  G118       -0.4373
   2555  OP2       33.8890   34.0640   19.7070 O.co2 118  G118       -0.5172
   2556  P         37.1680   38.8010   17.8080 P.3   119  U119        0.2141
   2557  C5'       38.3330   39.5390   15.5950 C.3   119  U119        0.1812
   2558  O5'       37.2270   38.8760   16.2070 O.3   119  U119       -0.3114
   2559  C4'       38.4510   39.2780   14.1050 C.3   119  U119        0.1773
   2560  O4'       38.5610   37.8570   13.8440 O.3   119  U119       -0.3307
   2561  C3'       37.2750   39.7090   13.2440 C.3   119  U119        0.1860
   2562  O3'       37.2620   41.1150   13.0450 O.3   119  U119       -0.3112
   2563  C2'       37.6060   38.9270   11.9750 C.3   119  U119        0.2309
   2564  O2'       38.6780   39.4680   11.2240 O.3   119  U119       -0.2156
   2565  C1'       38.0080   37.5780   12.5700 C.3   119  U119        0.2420
   2566  N1        36.8530   36.6280   12.7110 N.ar  119  U119       -0.2534
   2567  C2        36.3910   35.9470   11.5980 C.ar  119  U119        0.3546
   2568  O2        36.8670   36.0580   10.4820 O.2   119  U119       -0.2443
   2569  N3        35.3280   35.1100   11.8370 N.ar  119  U119       -0.1530
   2570  C4        34.6890   34.8880   13.0460 C.ar  119  U119        0.2846
   2571  O4        33.7480   34.1010   13.0990 O.2   119  U119       -0.2650
   2572  C5        35.2220   35.6300   14.1600 C.ar  119  U119        0.0814
   2573  C6        36.2580   36.4500   13.9500 C.ar  119  U119        0.0870
   2574  OP1       37.6270   40.1000   18.3530 O.3   119  U119       -0.4373
   2575  OP2       35.8470   38.2650   18.1960 O.co2 119  U119       -0.5172
   2576  P         35.8720   41.8870   12.8320 P.3   120  A120        0.2141
   2577  C5'       36.0870   41.9070   10.1860 C.3   120  A120        0.1812
   2578  O5'       35.3980   41.4440   11.3600 O.3   120  A120       -0.3114
   2579  C4'       35.6140   41.2150    8.9190 C.3   120  A120        0.1773
   2580  O4'       35.7810   39.7760    9.0240 O.3   120  A120       -0.3307
   2581  C3'       34.1350   41.3750    8.6100 C.3   120  A120        0.1860
   2582  O3'       33.8550   42.6100    7.9880 O.3   120  A120       -0.3112
   2583  C2'       33.8800   40.1890    7.6840 C.3   120  A120        0.2309
   2584  O2'       34.2720   40.4190    6.3420 O.3   120  A120       -0.2156
   2585  C1'       34.7220   39.1050    8.3550 C.3   120  A120        0.2408
   2586  N1        31.3930   35.1980    9.0320 N.ar  120  A120       -0.2040
   2587  C2        31.9530   35.7150    7.9240 C.ar  120  A120        0.2016
   2588  N3        32.8150   36.7350    7.8250 N.ar  120  A120       -0.2048
   2589  C4        33.1040   37.2610    9.0350 C.ar  120  A120        0.1692
   2590  C5        32.6050   36.8390   10.2590 C.ar  120  A120        0.1518
   2591  C6        31.7020   35.7450   10.2340 C.ar  120  A120        0.1919
   2592  N6        31.1380   35.2300   11.3280 N.pl3 120  A120       -0.1054
   2593  N7        33.1210   37.6070   11.2880 N.ar  120  A120       -0.2193
   2594  C8        33.9060   38.4610   10.6750 C.ar  120  A120        0.1816
   2595  N9        33.9500   38.3110    9.3170 N.ar  120  A120       -0.2693
   2596  OP1       36.1670   43.3410   12.8400 O.2   120  A120       -0.5172
   2597  OP2       34.8820   41.3350   13.7800 O.co2 120  A120       -0.4373
   2598  P         32.4710   43.3340    8.3330 P.3   121  U121        0.2141
   2599  C5'       31.4810   42.5710    5.9940 C.3   121  U121        0.1812
   2600  O5'       31.4040   42.5680    7.4200 O.3   121  U121       -0.3114
   2601  C4'       30.7500   41.3660    5.4250 C.3   121  U121        0.1773
   2602  O4'       31.2140   40.1350    6.0480 O.3   121  U121       -0.3307
   2603  C3'       29.2540   41.3410    5.6890 C.3   121  U121        0.1860
   2604  O3'       28.5670   42.1800    4.7900 O.3   121  U121       -0.3112
   2605  C2'       28.9480   39.8670    5.4700 C.3   121  U121        0.2309
   2606  O2'       28.9710   39.4970    4.1060 O.3   121  U121       -0.2156
   2607  C1'       30.1310   39.2290    6.1900 C.3   121  U121        0.2420
   2608  N1        29.8600   38.9050    7.6430 N.ar  121  U121       -0.2534
   2609  C2        29.0480   37.8240    7.9430 C.ar  121  U121        0.3546
   2610  O2        28.5330   37.1110    7.0970 O.2   121  U121       -0.2443
   2611  N3        28.8510   37.5970    9.2860 N.ar  121  U121       -0.1530
   2612  C4        29.3700   38.3190   10.3450 C.ar  121  U121        0.2846
   2613  O4        29.1000   37.9860   11.4960 O.2   121  U121       -0.2650
   2614  C5        30.2040   39.4300    9.9590 C.ar  121  U121        0.0814
   2615  C6        30.4110   39.6720    8.6560 C.ar  121  U121        0.0870
   2616  OP1       32.5830   44.7370    7.8770 O.2   121  U121       -0.5172
   2617  OP2       32.0920   43.0150    9.7330 O.co2 121  U121       -0.4373
   2618  P         27.5240   43.2220    5.4080 P.3   122  G122        0.2141
   2619  C5'       25.3470   41.8780    4.6950 C.3   122  G122        0.1812
   2620  O5'       26.2240   42.3320    5.7270 O.3   122  G122       -0.3114
   2621  C4'       24.6920   40.5540    5.0560 C.3   122  G122        0.1773
   2622  O4'       25.6390   39.6900    5.7330 O.3   122  G122       -0.3307
   2623  C3'       23.5390   40.6200    6.0470 C.3   122  G122        0.1860
   2624  O3'       22.3170   41.0080    5.4470 O.3   122  G122       -0.3112
   2625  C2'       23.4600   39.1730    6.5100 C.3   122  G122        0.2309
   2626  O2'       22.7430   38.3160    5.6420 O.3   122  G122       -0.2156
   2627  C1'       24.9350   38.7800    6.5690 C.3   122  G122        0.2408
   2628  N1        24.5380   36.5610   11.1060 N.ar  122  G122       -0.1709
   2629  C2        23.9660   36.2140    9.9050 C.ar  122  G122        0.2606
   2630  N2        23.1850   35.1310    9.8920 N.pl3 122  G122       -0.0859
   2631  N3        24.1570   36.8820    8.7810 N.ar  122  G122       -0.1918
   2632  C4        24.9800   37.9490    8.9510 C.ar  122  G122        0.1723
   2633  C5        25.5940   38.3830   10.1000 C.ar  122  G122        0.1748
   2634  C6        25.3810   37.6560   11.2960 C.ar  122  G122        0.3023
   2635  O6        25.8440   37.8920   12.4190 O.2   122  G122       -0.2633
   2636  N7        26.3520   39.5190    9.8590 N.ar  122  G122       -0.2173
   2637  C8        26.1820   39.7480    8.5890 C.ar  122  G122        0.1817
   2638  N9        25.3700   38.8300    7.9690 N.ar  122  G122       -0.2693
   2639  OP1       27.2160   44.2260    4.3620 O.2   122  G122       -0.5172
   2640  OP2       28.0630   43.6660    6.7160 O.co2 122  G122       -0.4373
   2641  P         21.2270   41.7450    6.3650 P.3   123  G123        0.2141
   2642  C5'       19.4570   39.7720    6.5090 C.3   123  G123        0.1812
   2643  O5'       20.5050   40.5270    7.1190 O.3   123  G123       -0.3114
   2644  C4'       18.9520   38.6910    7.4510 C.3   123  G123        0.1773
   2645  O4'       20.0440   37.8600    7.9230 O.3   123  G123       -0.3307
   2646  C3'       18.3220   39.1860    8.7390 C.3   123  G123        0.1860
   2647  O3'       16.9980   39.6440    8.5070 O.3   123  G123       -0.3112
   2648  C2'       18.3720   37.9010    9.5570 C.3   123  G123        0.2309
   2649  O2'       17.4260   36.9350    9.1490 O.3   123  G123       -0.2156
   2650  C1'       19.7780   37.4160    9.2390 C.3   123  G123        0.2408
   2651  N1        21.5990   37.1940   13.9840 N.ar  123  G123       -0.1709
   2652  C2        20.5990   36.4580   13.3920 C.ar  123  G123        0.2606
   2653  N2        20.0040   35.5300   14.1490 N.pl3 123  G123       -0.0859
   2654  N3        20.2170   36.6080   12.1330 N.ar  123  G123       -0.1918
   2655  C4        20.9200   37.5780   11.4950 C.ar  123  G123        0.1723
   2656  C5        21.9300   38.3690   11.9950 C.ar  123  G123        0.1748
   2657  C6        22.3300   38.1900   13.3430 C.ar  123  G123        0.3023
   2658  O6        23.2090   38.7980   13.9640 O.2   123  G123       -0.2633
   2659  N7        22.3970   39.2470   11.0250 N.ar  123  G123       -0.2173
   2660  C8        21.6730   38.9690    9.9760 C.ar  123  G123        0.1817
   2661  N9        20.7570   37.9630   10.1830 N.ar  123  G123       -0.2693
   2662  OP1       20.2630   42.4510    5.4830 O.2   123  G123       -0.5172
   2663  OP2       21.9520   42.5140    7.4070 O.co2 123  G123       -0.4373
   2664  P         16.3650   40.7820    9.4350 P.3   124  G124        0.2141
   2665  C5'       15.1420   39.1040   11.0450 C.3   124  G124        0.1812
   2666  O5'       16.2140   40.0300   10.8400 O.3   124  G124       -0.3114
   2667  C4'       15.2020   38.4530   12.4140 C.3   124  G124        0.1773
   2668  O4'       16.5350   37.9320   12.6370 O.3   124  G124       -0.3307
   2669  C3'       14.9770   39.3730   13.6050 C.3   124  G124        0.1860
   2670  O3'       13.5960   39.6240   13.8120 O.3   124  G124       -0.3112
   2671  C2'       15.5740   38.5230   14.7160 C.3   124  G124        0.2309
   2672  O2'       14.7130   37.4870   15.1480 O.3   124  G124       -0.2156
   2673  C1'       16.8130   37.9390   14.0280 C.3   124  G124        0.2408
   2674  N1        20.3150   39.3150   17.4920 N.ar  124  G124       -0.1709
   2675  C2        19.2240   38.4860   17.6260 C.ar  124  G124        0.2606
   2676  N2        19.0220   37.9460   18.8300 N.pl3 124  G124       -0.0859
   2677  N3        18.3800   38.2000   16.6430 N.ar  124  G124       -0.1918
   2678  C4        18.7060   38.8180   15.4780 C.ar  124  G124        0.1723
   2679  C5        19.7660   39.6680   15.2420 C.ar  124  G124        0.1748
   2680  C6        20.6660   39.9640   16.3040 C.ar  124  G124        0.3023
   2681  O6        21.6660   40.6950   16.2810 O.2   124  G124       -0.2633
   2682  N7        19.7570   40.0960   13.9240 N.ar  124  G124       -0.2173
   2683  C8        18.7150   39.5090   13.4040 C.ar  124  G124        0.1817
   2684  N9        18.0270   38.7160   14.2860 N.ar  124  G124       -0.2693
   2685  OP1       15.0180   41.1130    8.9210 O.2   124  G124       -0.5172
   2686  OP2       17.3760   41.8460    9.5850 O.co2 124  G124       -0.4373
   2687  P         13.0700   41.1140   14.1170 P.3   125  G125        0.2141
   2688  C5'       13.3520   40.9610   16.7340 C.3   125  G125        0.1812
   2689  O5'       13.8210   41.4610   15.4860 O.3   125  G125       -0.3114
   2690  C4'       14.2970   41.3680   17.8460 C.3   125  G125        0.1773
   2691  O4'       15.6190   40.8400   17.5640 O.3   125  G125       -0.3307
   2692  C3'       14.5130   42.8640   18.0040 C.3   125  G125        0.1860
   2693  O3'       13.4600   43.4440   18.7640 O.3   125  G125       -0.3112
   2694  C2'       15.8620   42.8870   18.7130 C.3   125  G125        0.2309
   2695  O2'       15.7920   42.6310   20.1030 O.3   125  G125       -0.2156
   2696  C1'       16.6070   41.7470   18.0130 C.3   125  G125        0.2408
   2697  N1        21.0740   43.7430   16.5770 N.ar  125  G125       -0.1709
   2698  C2        20.6650   43.3270   17.8210 C.ar  125  G125        0.2606
   2699  N2        21.5420   43.4570   18.8200 N.pl3 125  G125       -0.0859
   2700  N3        19.4710   42.8130   18.0690 N.ar  125  G125       -0.1918
   2701  C4        18.6910   42.7440   16.9590 C.ar  125  G125        0.1723
   2702  C5        19.0070   43.1300   15.6770 C.ar  125  G125        0.1748
   2703  C6        20.2910   43.6750   15.4250 C.ar  125  G125        0.3023
   2704  O6        20.7500   44.0720   14.3460 O.2   125  G125       -0.2633
   2705  N7        17.9420   42.8980   14.8150 N.ar  125  G125       -0.2173
   2706  C8        17.0210   42.3860   15.5800 C.ar  125  G125        0.1817
   2707  N9        17.4040   42.2550   16.8940 N.ar  125  G125       -0.2693
   2708  OP1       11.6120   41.0700   14.3900 O.3   125  G125       -0.4373
   2709  OP2       13.5830   42.0230   13.0620 O.co2 125  G125       -0.5172
   2710  P         12.5340   44.5930   18.1230 P.3   126  A126        0.2141
   2711  C5'       13.1680   47.1360   17.8570 C.3   126  A126        0.1812
   2712  O5'       13.5850   45.7800   17.9250 O.3   126  A126       -0.3114
   2713  C4'       14.2380   48.0720   18.3990 C.3   126  A126        0.1773
   2714  O4'       13.9940   48.2920   19.8090 O.3   126  A126       -0.3307
   2715  C3'       15.6820   47.5800   18.3280 C.3   126  A126        0.1860
   2716  O3'       16.2730   47.9200   17.0830 O.3   126  A126       -0.3112
   2717  C2'       16.3420   48.3570   19.4530 C.3   126  A126        0.2309
   2718  O2'       16.6890   49.6700   19.0750 O.3   126  A126       -0.2156
   2719  C1'       15.2300   48.4340   20.4840 C.3   126  A126        0.2408
   2720  N1        17.8410   46.9690   24.6690 N.ar  126  A126       -0.2040
   2721  C2        18.0380   47.9810   23.8110 C.ar  126  A126        0.2016
   2722  N3        17.3160   48.3010   22.7360 N.ar  126  A126       -0.2048
   2723  C4        16.2850   47.4450   22.5650 C.ar  126  A126        0.1692
   2724  C5        15.9580   46.3660   23.3640 C.ar  126  A126        0.1518
   2725  C6        16.7940   46.1320   24.4780 C.ar  126  A126        0.1919
   2726  N6        16.6050   45.1210   25.3340 N.pl3 126  A126       -0.1054
   2727  N7        14.8340   45.7160   22.8820 N.ar  126  A126       -0.2193
   2728  C8        14.5030   46.4050   21.8210 C.ar  126  A126        0.1816
   2729  N9        15.3340   47.4600   21.5700 N.ar  126  A126       -0.2693
   2730  OP1       11.5340   45.0120   19.1240 O.3   126  A126       -0.4373
   2731  OP2       12.0660   44.1390   16.7910 O.co2 126  A126       -0.5172
   2732  P         17.3960   46.9870   16.4210 P.3   127  A127        0.2141
   2733  C5'       19.3870   48.3160   17.5040 C.3   127  A127        0.1812
   2734  O5'       18.6280   47.1140   17.4260 O.3   127  A127       -0.3114
   2735  C4'       20.3540   48.2400   18.6680 C.3   127  A127        0.1773
   2736  O4'       19.6190   47.9240   19.8690 O.3   127  A127       -0.3307
   2737  C3'       21.3930   47.1450   18.5310 C.3   127  A127        0.1860
   2738  O3'       22.4930   47.7020   17.8150 O.3   127  A127       -0.3112
   2739  C2'       21.7000   46.8020   19.9910 C.3   127  A127        0.2309
   2740  O2'       22.6920   47.6400   20.5460 O.3   127  A127       -0.2156
   2741  C1'       20.3910   47.0980   20.7180 C.3   127  A127        0.2408
   2742  N1        19.1600   43.7140   24.4600 N.ar  127  A127       -0.2040
   2743  C2        20.0950   44.6700   24.3960 C.ar  127  A127        0.2016
   2744  N3        20.3670   45.5140   23.4000 N.ar  127  A127       -0.2048
   2745  C4        19.5540   45.3080   22.3490 C.ar  127  A127        0.1692
   2746  C5        18.5490   44.3590   22.2700 C.ar  127  A127        0.1518
   2747  C6        18.3560   43.5290   23.3970 C.ar  127  A127        0.1919
   2748  N6        17.4230   42.5750   23.4650 N.pl3 127  A127       -0.1054
   2749  N7        17.9080   44.4290   21.0480 N.ar  127  A127       -0.2193
   2750  C8        18.5310   45.4020   20.4260 C.ar  127  A127        0.1816
   2751  N9        19.5440   45.9760   21.1410 N.ar  127  A127       -0.2693
   2752  OP1       17.7680   47.5950   15.1220 O.2   127  A127       -0.5172
   2753  OP2       16.9350   45.5810   16.4770 O.co2 127  A127       -0.4373
   2754  P         23.7050   46.8440   17.2080 P.3   128  U128        0.2141
   2755  C5'       26.0260   46.4180   18.4070 C.3   128  U128        0.1812
   2756  O5'       24.9290   47.2910   18.1420 O.3   128  U128       -0.3114
   2757  C4'       26.6480   46.6320   19.7840 C.3   128  U128        0.1773
   2758  O4'       26.0080   47.6900   20.5530 O.3   128  U128       -0.3307
   2759  C3'       26.5400   45.4400   20.7170 C.3   128  U128        0.1860
   2760  O3'       27.4770   44.4320   20.3600 O.3   128  U128       -0.3112
   2761  C2'       26.8570   46.0700   22.0740 C.3   128  U128        0.2309
   2762  O2'       28.2470   46.1260   22.3340 O.3   128  U128       -0.2156
   2763  C1'       26.2660   47.4780   21.9370 C.3   128  U128        0.2420
   2764  N1        25.0050   47.7680   22.7370 N.ar  128  U128       -0.2534
   2765  C2        23.9810   46.8330   22.9080 C.ar  128  U128        0.3546
   2766  O2        23.9850   45.7080   22.4500 O.2   128  U128       -0.2443
   2767  N3        22.9040   47.2630   23.6490 N.ar  128  U128       -0.1530
   2768  C4        22.7370   48.5050   24.2340 C.ar  128  U128        0.2846
   2769  O4        21.7170   48.7360   24.8710 O.2   128  U128       -0.2650
   2770  C5        23.8270   49.4300   24.0230 C.ar  128  U128        0.0814
   2771  C6        24.8890   49.0330   23.3000 C.ar  128  U128        0.0870
   2772  OP1       23.9560   47.3710   15.8530 O.2   128  U128       -0.5172
   2773  OP2       23.4580   45.3950   17.4030 O.co2 128  U128       -0.4373
   2774  P         26.9930   42.9120   20.1960 P.3   129  A129        0.2141
   2775  C5'       27.2210   42.5430   22.8300 C.3   129  A129        0.1812
   2776  O5'       26.4020   42.5410   21.6440 O.3   129  A129       -0.3114
   2777  C4'       26.3720   42.4100   24.0830 C.3   129  A129        0.1773
   2778  O4'       25.2190   43.3080   24.0430 O.3   129  A129       -0.3307
   2779  C3'       25.7720   41.0270   24.2860 C.3   129  A129        0.1860
   2780  O3'       26.7030   40.1460   24.9000 O.3   129  A129       -0.3112
   2781  C2'       24.5870   41.3570   25.1930 C.3   129  A129        0.2309
   2782  O2'       24.9480   41.5410   26.5490 O.3   129  A129       -0.2156
   2783  C1'       24.0730   42.6750   24.6000 C.3   129  A129        0.2408
   2784  N1        19.5520   40.4670   23.3140 N.ar  129  A129       -0.2040
   2785  C2        20.2280   40.4850   24.4680 C.ar  129  A129        0.2016
   2786  N3        21.3910   41.0800   24.7360 N.ar  129  A129       -0.2048
   2787  C4        21.8830   41.7240   23.6600 C.ar  129  A129        0.1692
   2788  C5        21.2910   41.7900   22.4120 C.ar  129  A129        0.1518
   2789  C6        20.0620   41.1160   22.2460 C.ar  129  A129        0.1919
   2790  N6        19.3770   41.0940   21.0980 N.pl3 129  A129       -0.1054
   2791  N7        22.0680   42.5280   21.5450 N.ar  129  A129       -0.2193
   2792  C8        23.0980   42.8850   22.2720 C.ar  129  A129        0.1816
   2793  N9        23.0590   42.4460   23.5630 N.ar  129  A129       -0.2693
   2794  OP1       28.2070   42.0920   19.9740 O.3   129  A129       -0.4373
   2795  OP2       25.8810   42.8790   19.2150 O.co2 129  A129       -0.5172
   2796  P         27.2430   38.8310   24.1480 P.3   130  C130        0.2141
   2797  C5'       25.3120   37.3350   25.0810 C.3   130  C130        0.1812
   2798  O5'       25.9450   37.9250   23.9560 O.3   130  C130       -0.3114
   2799  C4'       23.9270   36.8670   24.7040 C.3   130  C130        0.1773
   2800  O4'       23.1290   38.0180   24.3270 O.3   130  C130       -0.3307
   2801  C3'       23.9060   35.9920   23.4690 C.3   130  C130        0.1860
   2802  O3'       24.1960   34.6500   23.7900 O.3   130  C130       -0.3112
   2803  C2'       22.4790   36.1990   22.9760 C.3   130  C130        0.2309
   2804  O2'       21.5090   35.4430   23.6730 O.3   130  C130       -0.2156
   2805  C1'       22.2970   37.6930   23.2270 C.3   130  C130        0.2420
   2806  N1        22.6340   38.5050   22.0040 N.ar  130  C130       -0.2535
   2807  C2        21.7290   38.5080   20.9420 C.ar  130  C130        0.3532
   2808  O2        20.6850   37.8600   21.0460 O.2   130  C130       -0.2443
   2809  N3        22.0120   39.2230   19.8260 N.ar  130  C130       -0.1739
   2810  C4        23.1470   39.9130   19.7390 C.ar  130  C130        0.1759
   2811  N4        23.3630   40.5980   18.6150 N.pl3 130  C130       -0.1070
   2812  C5        24.0940   39.9250   20.8030 C.ar  130  C130        0.0566
   2813  C6        23.7960   39.2150   21.8990 C.ar  130  C130        0.0850
   2814  OP1       28.1640   38.1170   25.0600 O.3   130  C130       -0.4373
   2815  OP2       27.7080   39.2110   22.7960 O.co2 130  C130       -0.5172
   2816  P         24.9200   33.7370   22.6900 P.3   131  C131        0.2141
   2817  C5'       22.5780   32.6610   22.1420 C.3   131  C131        0.1812
   2818  O5'       23.7120   33.3750   21.7120 O.3   131  C131       -0.3114
   2819  C4'       21.5570   32.6790   21.0210 C.3   131  C131        0.1773
   2820  O4'       21.1810   34.0450   20.7030 O.3   131  C131       -0.3307
   2821  C3'       22.0480   32.1670   19.6800 C.3   131  C131        0.1860
   2822  O3'       22.0910   30.7680   19.6480 O.3   131  C131       -0.3112
   2823  C2'       20.9750   32.7260   18.7570 C.3   131  C131        0.2309
   2824  O2'       19.7500   32.0230   18.8110 O.3   131  C131       -0.2156
   2825  C1'       20.7910   34.1190   19.3430 C.3   131  C131        0.2420
   2826  N1        21.6030   35.1510   18.6410 N.ar  131  C131       -0.2535
   2827  C2        21.1890   35.6050   17.3820 C.ar  131  C131        0.3532
   2828  O2        20.1600   35.1310   16.8860 O.2   131  C131       -0.2443
   2829  N3        21.9320   36.5530   16.7480 N.ar  131  C131       -0.1739
   2830  C4        23.0390   37.0360   17.3250 C.ar  131  C131        0.1759
   2831  N4        23.7420   37.9660   16.6760 N.pl3 131  C131       -0.1070
   2832  C5        23.4780   36.5800   18.6040 C.ar  131  C131        0.0566
   2833  C6        22.7370   35.6490   19.2180 C.ar  131  C131        0.0850
   2834  OP1       25.4210   32.4980   23.3360 O.3   131  C131       -0.4373
   2835  OP2       25.8310   34.6130   21.9070 O.co2 131  C131       -0.5172
   2836  P         23.2530   30.0840   18.7950 P.3   132  C132        0.2141
   2837  C5'       21.5480   29.8260   16.8360 C.3   132  C132        0.1812
   2838  O5'       22.7700   30.3880   17.3050 O.3   132  C132       -0.3114
   2839  C4'       21.2650   30.3180   15.4390 C.3   132  C132        0.1773
   2840  O4'       21.1690   31.7580   15.4680 O.3   132  C132       -0.3307
   2841  C3'       22.3700   30.1000   14.4200 C.3   132  C132        0.1860
   2842  O3'       22.4210   28.7640   14.0040 O.3   132  C132       -0.3112
   2843  C2'       21.8830   31.0360   13.3240 C.3   132  C132        0.2309
   2844  O2'       20.7540   30.5670   12.6140 O.3   132  C132       -0.2156
   2845  C1'       21.4830   32.2400   14.1720 C.3   132  C132        0.2420
   2846  N1        22.5610   33.2580   14.2550 N.ar  132  C132       -0.2535
   2847  C2        22.7790   34.0760   13.1410 C.ar  132  C132        0.3532
   2848  O2        22.0660   33.9270   12.1400 O.2   132  C132       -0.2443
   2849  N3        23.7610   35.0130   13.2060 N.ar  132  C132       -0.1739
   2850  C4        24.4970   35.1310   14.3130 C.ar  132  C132        0.1759
   2851  N4        25.4430   36.0620   14.3180 N.pl3 132  C132       -0.1070
   2852  C5        24.3020   34.3030   15.4600 C.ar  132  C132        0.0566
   2853  C6        23.3290   33.3850   15.3840 C.ar  132  C132        0.0850
   2854  OP1       23.2000   28.6170   19.0060 O.2   132  C132       -0.5172
   2855  OP2       24.5050   30.8490   19.0190 O.co2 132  C132       -0.4373
   2856  P         23.7970   28.1550   13.4940 P.3   133  A133        0.2141
   2857  C5'       23.0620   28.2840   10.9990 C.3   133  A133        0.1812
   2858  O5'       23.9110   28.7770   12.0260 O.3   133  A133       -0.3114
   2859  C4'       23.2180   29.0630    9.7100 C.3   133  A133        0.1773
   2860  O4'       23.0180   30.4710    9.9600 O.3   133  A133       -0.3307
   2861  C3'       24.5920   28.9680    9.0670 C.3   133  A133        0.1860
   2862  O3'       24.6280   27.8410    8.2250 O.3   133  A133       -0.3112
   2863  C2'       24.6590   30.2600    8.2680 C.3   133  A133        0.2309
   2864  O2'       23.9360   30.1970    7.0580 O.3   133  A133       -0.2156
   2865  C1'       23.9500   31.2240    9.2050 C.3   133  A133        0.2408
   2866  N1        27.2950   35.1040    9.5640 N.ar  133  A133       -0.2040
   2867  C2        26.6060   34.6080    8.5280 C.ar  133  A133        0.2016
   2868  N3        25.7510   33.5880    8.5190 N.ar  133  A133       -0.2048
   2869  C4        25.6270   33.0420    9.7430 C.ar  133  A133        0.1692
   2870  C5        26.2720   33.4390   10.9000 C.ar  133  A133        0.1518
   2871  C6        27.1570   34.5380   10.7840 C.ar  133  A133        0.1919
   2872  N6        27.8620   35.0540   11.7970 N.pl3 133  A133       -0.1054
   2873  N7        25.8900   32.6400   11.9640 N.ar  133  A133       -0.2193
   2874  C8        25.0430   31.7900   11.4330 C.ar  133  A133        0.1816
   2875  N9        24.8380   31.9750   10.0960 N.ar  133  A133       -0.2693
   2876  OP1       23.6350   26.6880   13.4150 O.2   133  A133       -0.5172
   2877  OP2       24.9030   28.7060   14.2950 O.co2 133  A133       -0.4373
   2878  P         25.9670   26.9880    8.0970 P.3   134  U134        0.2141
   2879  C5'       26.5280   28.0390    5.7510 C.3   134  U134        0.1812
   2880  O5'       26.8810   27.8730    7.1280 O.3   134  U134       -0.3114
   2881  C4'       27.3080   29.1730    5.1090 C.3   134  U134        0.1773
   2882  O4'       27.0360   30.4310    5.7840 O.3   134  U134       -0.3307
   2883  C3'       28.8180   29.0520    5.2310 C.3   134  U134        0.1860
   2884  O3'       29.3480   28.1340    4.2910 O.3   134  U134       -0.3112
   2885  C2'       29.2430   30.4920    4.9670 C.3   134  U134        0.2309
   2886  O2'       29.1050   30.8740    3.6100 O.3   134  U134       -0.2156
   2887  C1'       28.2140   31.2310    5.8110 C.3   134  U134        0.2420
   2888  N1        28.6610   31.5310    7.2320 N.ar  134  U134       -0.2534
   2889  C2        29.4720   32.6310    7.4810 C.ar  134  U134        0.3546
   2890  O2        29.8700   33.3860    6.6100 O.2   134  U134       -0.2443
   2891  N3        29.8170   32.8270    8.8020 N.ar  134  U134       -0.1530
   2892  C4        29.4460   32.0470    9.8850 C.ar  134  U134        0.2846
   2893  O4        29.8270   32.3360   11.0150 O.2   134  U134       -0.2650
   2894  C5        28.6060   30.9200    9.5530 C.ar  134  U134        0.0814
   2895  C6        28.2540   30.7120    8.2750 C.ar  134  U134        0.0870
   2896  OP1       25.6160   25.7300    7.3930 O.2   134  U134       -0.5172
   2897  OP2       26.6070   26.9430    9.4330 O.co2 134  U134       -0.4373
   2898  P         30.6210   27.2650    4.7150 P.3   135  A135        0.2141
   2899  C5'       32.0080   28.9450    3.2240 C.3   135  A135        0.1812
   2900  O5'       31.8420   28.2700    4.4750 O.3   135  A135       -0.3114
   2901  C4'       32.9930   30.0960    3.3570 C.3   135  A135        0.1773
   2902  O4'       32.4230   31.1710    4.1530 O.3   135  A135       -0.3307
   2903  C3'       34.3100   29.7610    4.0500 C.3   135  A135        0.1860
   2904  O3'       35.2050   29.1300    3.1470 O.3   135  A135       -0.3112
   2905  C2'       34.7630   31.1570    4.4700 C.3   135  A135        0.2309
   2906  O2'       35.3410   31.9030    3.4180 O.3   135  A135       -0.2156
   2907  C1'       33.4450   31.7900    4.9170 C.3   135  A135        0.2408
   2908  N1        34.3190   33.6350    9.6730 N.ar  135  A135       -0.2040
   2909  C2        34.6980   34.0670    8.4670 C.ar  135  A135        0.2016
   2910  N3        34.4240   33.5350    7.2740 N.ar  135  A135       -0.2048
   2911  C4        33.6780   32.4190    7.3780 C.ar  135  A135        0.1692
   2912  C5        33.2150   31.8520    8.5510 C.ar  135  A135        0.1518
   2913  C6        33.5690   32.5140    9.7540 C.ar  135  A135        0.1919
   2914  N6        33.1990   32.0890   10.9660 N.pl3 135  A135       -0.1054
   2915  N7        32.4730   30.7110    8.2820 N.ar  135  A135       -0.2193
   2916  C8        32.5060   30.6120    6.9730 C.ar  135  A135        0.1816
   2917  N9        33.2120   31.6120    6.3580 N.ar  135  A135       -0.2693
   2918  OP1       30.7620   26.1300    3.7720 O.2   135  A135       -0.5172
   2919  OP2       30.5030   27.0350    6.1750 O.co2 135  A135       -0.4373
   2920  P         36.3710   28.1390    3.6420 P.3   136  C136        0.2141
   2921  C5'       38.2050   30.0270    3.5760 C.3   136  C136        0.1812
   2922  O5'       37.4200   29.1210    4.3440 O.3   136  C136       -0.3114
   2923  C4'       38.9650   30.9910    4.4710 C.3   136  C136        0.1773
   2924  O4'       38.0380   31.8380    5.2100 O.3   136  C136       -0.3307
   2925  C3'       39.8270   30.3320    5.5390 C.3   136  C136        0.1860
   2926  O3'       41.0750   29.9230    4.9990 O.3   136  C136       -0.3112
   2927  C2'       39.9520   31.4810    6.5350 C.3   136  C136        0.2309
   2928  O2'       40.8930   32.4540    6.1260 O.3   136  C136       -0.2156
   2929  C1'       38.5290   32.0420    6.5250 C.3   136  C136        0.2420
   2930  N1        37.6480   31.3670    7.5540 N.ar  136  C136       -0.2535
   2931  C2        37.6690   31.7880    8.8980 C.ar  136  C136        0.3532
   2932  O2        38.3990   32.7250    9.2410 O.2   136  C136       -0.2443
   2933  N3        36.8710   31.1510    9.8020 N.ar  136  C136       -0.1739
   2934  C4        36.0900   30.1330    9.4170 C.ar  136  C136        0.1759
   2935  N4        35.3280   29.5290   10.3350 N.pl3 136  C136       -0.1070
   2936  C5        36.0540   29.6830    8.0630 C.ar  136  C136        0.0566
   2937  C6        36.8370   30.3220    7.1890 C.ar  136  C136        0.0850
   2938  OP1       37.0180   27.5740    2.4340 O.2   136  C136       -0.5172
   2939  OP2       35.8300   27.2050    4.6570 O.co2 136  C136       -0.4373
   2940  P         41.9020   28.7060    5.6340 P.3   137  C137        0.2141
   2941  C5'       43.3940   30.2590    7.1850 C.3   137  C137        0.1812
   2942  O5'       42.3520   29.2790    7.0600 O.3   137  C137       -0.3114
   2943  C4'       43.5290   30.7670    8.6170 C.3   137  C137        0.1773
   2944  O4'       42.2780   31.3660    9.0480 O.3   137  C137       -0.3307
   2945  C3'       43.7820   29.7340    9.7120 C.3   137  C137        0.1860
   2946  O3'       45.1350   29.2720    9.7620 O.3   137  C137       -0.3112
   2947  C2'       43.3830   30.5330   10.9430 C.3   137  C137        0.2309
   2948  O2'       44.3000   31.5630   11.2440 O.3   137  C137       -0.2156
   2949  C1'       42.0910   31.1490   10.4370 C.3   137  C137        0.2420
   2950  N1        40.8910   30.2870   10.7000 N.ar  137  C137       -0.2535
   2951  C2        40.3360   30.2560   11.9940 C.ar  137  C137        0.3532
   2952  O2        40.8350   30.9390   12.8980 O.2   137  C137       -0.2443
   2953  N3        39.2490   29.4780   12.2330 N.ar  137  C137       -0.1739
   2954  C4        38.7180   28.7520   11.2510 C.ar  137  C137        0.1759
   2955  N4        37.6520   28.0070   11.5440 N.pl3 137  C137       -0.1070
   2956  C5        39.2620   28.7660    9.9290 C.ar  137  C137        0.0566
   2957  C6        40.3330   29.5400    9.7000 C.ar  137  C137        0.0850
   2958  OP1       43.1260   28.5030    4.8300 O.2   137  C137       -0.5172
   2959  OP2       40.9740   27.5730    5.8500 O.co2 137  C137       -0.4373
   2960  P         45.4480   27.8260    9.1560 P.3   138  A138        0.2141
   2961  C5'       46.1680   26.3720   11.2540 C.3   138  A138        0.1812
   2962  O5'       46.5340   27.1860   10.1390 O.3   138  A138       -0.3114
   2963  C4'       46.2830   27.1720   12.5380 C.3   138  A138        0.1773
   2964  O4'       45.2790   28.2240   12.5280 O.3   138  A138       -0.3307
   2965  C3'       46.0120   26.3890   13.8130 C.3   138  A138        0.1860
   2966  O3'       47.1980   25.7900   14.3160 O.3   138  A138       -0.3112
   2967  C2'       45.4870   27.4930   14.7260 C.3   138  A138        0.2309
   2968  O2'       46.5170   28.3270   15.2140 O.3   138  A138       -0.2156
   2969  C1'       44.5840   28.2620   13.7620 C.3   138  A138        0.2408
   2970  N1        40.0770   27.1370   16.0510 N.ar  138  A138       -0.2040
   2971  C2        41.1920   27.7260   16.5110 C.ar  138  A138        0.2016
   2972  N3        42.3240   27.9840   15.8560 N.ar  138  A138       -0.2048
   2973  C4        42.2590   27.5730   14.5710 C.ar  138  A138        0.1692
   2974  C5        41.1800   26.9560   13.9550 C.ar  138  A138        0.1518
   2975  C6        40.0350   26.7340   14.7610 C.ar  138  A138        0.1919
   2976  N6        38.9140   26.1520   14.3270 N.pl3 138  A138       -0.1054
   2977  N7        41.4710   26.6750   12.6290 N.ar  138  A138       -0.2193
   2978  C8        42.6950   27.1210   12.4750 C.ar  138  A138        0.1816
   2979  N9        43.2390   27.6800   13.6030 N.ar  138  A138       -0.2693
   2980  OP1       46.1040   28.0840    7.8540 O.2   138  A138       -0.5172
   2981  OP2       44.2050   27.0170    9.2160 O.co2 138  A138       -0.4373
   2982  P         47.1750   24.2920   14.9020 P.3   139  C139        0.2141
   2983  C5'       46.6840   25.0930   17.3620 C.3   139  C139        0.1812
   2984  O5'       46.2490   24.3980   16.1980 O.3   139  C139       -0.3114
   2985  C4'       45.5510   25.1830   18.3670 C.3   139  C139        0.1773
   2986  O4'       44.3910   25.8220   17.7730 O.3   139  C139       -0.3307
   2987  C3'       45.0060   23.8470   18.8370 C.3   139  C139        0.1860
   2988  O3'       45.8720   23.2560   19.8070 O.3   139  C139       -0.3112
   2989  C2'       43.6570   24.2890   19.3940 C.3   139  C139        0.2309
   2990  O2'       43.7500   24.9320   20.6480 O.3   139  C139       -0.2156
   2991  C1'       43.2020   25.2930   18.3370 C.3   139  C139        0.2420
   2992  N1        42.3440   24.6490   17.2760 N.ar  139  C139       -0.2535
   2993  C2        41.0070   24.2940   17.5500 C.ar  139  C139        0.3532
   2994  O2        40.5230   24.5250   18.6660 O.2   139  C139       -0.2443
   2995  N3        40.2720   23.6980   16.5680 N.ar  139  C139       -0.1739
   2996  C4        40.8110   23.4500   15.3680 C.ar  139  C139        0.1759
   2997  N4        40.0570   22.8640   14.4420 N.pl3 139  C139       -0.1070
   2998  C5        42.1590   23.7930   15.0660 C.ar  139  C139        0.0566
   2999  C6        42.8720   24.3810   16.0370 C.ar  139  C139        0.0850
   3000  OP1       48.5530   23.9690   15.3350 O.3   139  C139       -0.4373
   3001  OP2       46.4720   23.4130   13.9460 O.co2 139  C139       -0.5172
   3002  P         46.1710   21.6830   19.7370 P.3   140  U140        0.2141
   3003  C5'       44.2360   21.3250   21.5230 C.3   140  U140        0.1812
   3004  O5'       44.7810   21.0480   20.2250 O.3   140  U140       -0.3114
   3005  C4'       42.7960   20.8590   21.6340 C.3   140  U140        0.1773
   3006  O4'       41.9820   21.5790   20.6810 O.3   140  U140       -0.3307
   3007  C3'       42.5610   19.4140   21.2400 C.3   140  U140        0.1860
   3008  O3'       42.9450   18.5260   22.2830 O.3   140  U140       -0.3112
   3009  C2'       41.0680   19.4270   20.9310 C.3   140  U140        0.2309
   3010  O2'       40.2310   19.4300   22.0670 O.3   140  U140       -0.2156
   3011  C1'       40.9410   20.7530   20.1880 C.3   140  U140        0.2420
   3012  N1        41.0540   20.5500   18.7010 N.ar  140  U140       -0.2534
   3013  C2        39.9740   20.0270   18.0180 C.ar  140  U140        0.3546
   3014  O2        38.9190   19.7330   18.5420 O.2   140  U140       -0.2443
   3015  N3        40.1620   19.8550   16.6710 N.ar  140  U140       -0.1530
   3016  C4        41.3030   20.1340   15.9410 C.ar  140  U140        0.2846
   3017  O4        41.3120   19.9150   14.7320 O.2   140  U140       -0.2650
   3018  C5        42.3980   20.6700   16.7150 C.ar  140  U140        0.0814
   3019  C6        42.2340   20.8520   18.0340 C.ar  140  U140        0.0870
   3020  OP1       47.2320   21.3410   20.7060 O.3   140  U140       -0.4373
   3021  OP2       46.3320   21.3180   18.3130 O.co2 140  U140       -0.5172
   3022  P         43.7950   17.2050   21.9580 P.3   141  G141        0.2141
   3023  C5'       41.7520   15.8220   22.8220 C.3   141  G141        0.1812
   3024  O5'       42.6160   16.1530   21.7400 O.3   141  G141       -0.3114
   3025  C4'       40.4390   15.2610   22.3220 C.3   141  G141        0.1773
   3026  O4'       39.8080   16.2250   21.4440 O.3   141  G141       -0.3307
   3027  C3'       40.5620   14.0240   21.4500 C.3   141  G141        0.1860
   3028  O3'       40.8100   12.8600   22.2190 O.3   141  G141       -0.3112
   3029  C2'       39.2060   14.0330   20.7500 C.3   141  G141        0.2309
   3030  O2'       38.1280   13.5310   21.5230 O.3   141  G141       -0.2156
   3031  C1'       39.0360   15.5320   20.4770 C.3   141  G141        0.2408
   3032  N1        37.9420   15.4280   15.5030 N.ar  141  G141       -0.1709
   3033  C2        37.1930   14.9810   16.5630 C.ar  141  G141        0.2606
   3034  N2        36.0080   14.4360   16.2590 N.pl3 141  G141       -0.0859
   3035  N3        37.5820   15.0670   17.8300 N.ar  141  G141       -0.1918
   3036  C4        38.8080   15.6450   17.9530 C.ar  141  G141        0.1723
   3037  C5        39.6290   16.1220   16.9530 C.ar  141  G141        0.1748
   3038  C6        39.1950   16.0240   15.6060 C.ar  141  G141        0.3023
   3039  O6        39.7780   16.3910   14.5760 O.2   141  G141       -0.2633
   3040  N7        40.8050   16.6380   17.4860 N.ar  141  G141       -0.2173
   3041  C8        40.6730   16.4690   18.7690 C.ar  141  G141        0.1817
   3042  N9        39.4870   15.8780   19.1300 N.ar  141  G141       -0.2693
   3043  OP1       44.5530   16.8380   23.1690 O.3   141  G141       -0.4373
   3044  OP2       44.5260   17.3570   20.6810 O.co2 141  G141       -0.5172
   3045  P         41.8490   11.7800   21.6540 P.3   142  U142        0.2141
   3046  C5'       39.9030   10.2810   20.7670 C.3   142  U142        0.1812
   3047  O5'       41.0040   11.1290   20.4730 O.3   142  U142       -0.3114
   3048  C4'       39.2080    9.9270   19.4740 C.3   142  U142        0.1773
   3049  O4'       38.8520   11.1640   18.8160 O.3   142  U142       -0.3307
   3050  C3'       40.0810    9.2430   18.4400 C.3   142  U142        0.1860
   3051  O3'       40.1640    7.8640   18.6760 O.3   142  U142       -0.3112
   3052  C2'       39.2940    9.5350   17.1770 C.3   142  U142        0.2309
   3053  O2'       38.1400    8.7330   17.0470 O.3   142  U142       -0.2156
   3054  C1'       38.8970   10.9810   17.4130 C.3   142  U142        0.2420
   3055  N1        39.8270   11.9560   16.7730 N.ar  142  U142       -0.2534
   3056  C2        39.7390   12.1440   15.4060 C.ar  142  U142        0.3546
   3057  O2        38.9520   11.5540   14.6960 O.2   142  U142       -0.2443
   3058  N3        40.6170   13.0500   14.8740 N.ar  142  U142       -0.1530
   3059  C4        41.5600   13.7780   15.5640 C.ar  142  U142        0.2846
   3060  O4        42.2660   14.5570   14.9400 O.2   142  U142       -0.2650
   3061  C5        41.6040   13.5380   16.9880 C.ar  142  U142        0.0814
   3062  C6        40.7520   12.6550   17.5310 C.ar  142  U142        0.0870
   3063  OP1       42.1080   10.7260   22.6630 O.3   142  U142       -0.4373
   3064  OP2       42.9920   12.5130   21.0720 O.co2 142  U142       -0.5172
   3065  P         41.5840    7.1420   18.8020 P.3   143  C143        0.2141
   3066  C5'       40.7380    5.3580   17.0340 C.3   143  C143        0.1812
   3067  O5'       41.7150    6.3260   17.4340 O.3   143  C143       -0.3114
   3068  C4'       40.3470    5.5010   15.5650 C.3   143  C143        0.1773
   3069  O4'       39.8770    6.8460   15.3100 O.3   143  C143       -0.3307
   3070  C3'       41.4410    5.2880   14.5210 C.3   143  C143        0.1860
   3071  O3'       41.6190    3.9160   14.2250 O.3   143  C143       -0.3112
   3072  C2'       40.8570    6.0250   13.3250 C.3   143  C143        0.2309
   3073  O2'       39.8650    5.3020   12.6330 O.3   143  C143       -0.2156
   3074  C1'       40.1960    7.2220   13.9840 C.3   143  C143        0.2420
   3075  N1        41.0550    8.4450   13.9550 N.ar  143  C143       -0.2535
   3076  C2        41.1530    9.1960   12.7650 C.ar  143  C143        0.3532
   3077  O2        40.5330    8.8500   11.7470 O.2   143  C143       -0.2443
   3078  N3        41.9390   10.3040   12.7520 N.ar  143  C143       -0.1739
   3079  C4        42.5990   10.6710   13.8480 C.ar  143  C143        0.1759
   3080  N4        43.3470   11.7700   13.7750 N.pl3 143  C143       -0.1070
   3081  C5        42.5160    9.9220   15.0610 C.ar  143  C143        0.0566
   3082  C6        41.7470    8.8270   15.0690 C.ar  143  C143        0.0850
   3083  OP1       41.4630    6.1810   19.9240 O.3   143  C143       -0.4373
   3084  OP2       42.6490    8.1660   18.7860 O.co2 143  C143       -0.5172
   3085  P         43.0460    3.3610   13.7370 P.3   144  A144        0.2141
   3086  C5'       42.2850    3.3530   11.1800 C.3   144  A144        0.1812
   3087  O5'       43.1630    3.8420   12.2080 O.3   144  A144       -0.3114
   3088  C4'       42.4680    4.1140    9.8750 C.3   144  A144        0.1773
   3089  O4'       42.0620    5.4980   10.0220 O.3   144  A144       -0.3307
   3090  C3'       43.9040    4.2190    9.3860 C.3   144  A144        0.1860
   3091  O3'       44.3170    3.0300    8.7290 O.3   144  A144       -0.3112
   3092  C2'       43.8360    5.4200    8.4500 C.3   144  A144        0.2309
   3093  O2'       43.2530    5.1420    7.1960 O.3   144  A144       -0.2156
   3094  C1'       42.8990    6.3240    9.2300 C.3   144  A144        0.2408
   3095  N1        45.6540   10.6830    9.3650 N.ar  144  A144       -0.2040
   3096  C2        45.1430    9.9900    8.3380 C.ar  144  A144        0.2016
   3097  N3        44.4390    8.8610    8.3700 N.ar  144  A144       -0.2048
   3098  C4        44.2670    8.4300    9.6380 C.ar  144  A144        0.1692
   3099  C5        44.7330    9.0380   10.7900 C.ar  144  A144        0.1518
   3100  C6        45.4630   10.2270   10.6240 C.ar  144  A144        0.1919
   3101  N6        45.9690   10.9060   11.6570 N.pl3 144  A144       -0.1054
   3102  N7        44.3710    8.3230   11.9140 N.ar  144  A144       -0.2193
   3103  C8        43.6980    7.3060   11.4300 C.ar  144  A144        0.1816
   3104  N9        43.5950    7.3020   10.0670 N.ar  144  A144       -0.2693
   3105  OP1       42.9680    1.8730   13.7840 O.2   144  A144       -0.5172
   3106  OP2       44.0900    4.0890   14.5020 O.co2 144  A144       -0.4373
   3107  P         45.8570    2.5920    8.8200 P.3   145  C145        0.2141
   3108  C5'       46.4070    3.5430    6.4320 C.3   145  C145        0.1812
   3109  O5'       46.6010    3.6060    7.8370 O.3   145  C145       -0.3114
   3110  C4'       47.0540    4.7470    5.7900 C.3   145  C145        0.1773
   3111  O4'       46.4550    5.9500    6.3260 O.3   145  C145       -0.3307
   3112  C3'       48.5140    4.9320    6.1580 C.3   145  C145        0.1860
   3113  O3'       49.3620    4.0280    5.4760 O.3   145  C145       -0.3112
   3114  C2'       48.7050    6.4030    5.7900 C.3   145  C145        0.2309
   3115  O2'       48.6990    6.6770    4.4030 O.3   145  C145       -0.2156
   3116  C1'       47.4380    6.9770    6.4120 C.3   145  C145        0.2420
   3117  N1        47.6460    7.4350    7.8330 N.ar  145  C145       -0.2535
   3118  C2        48.2450    8.6800    8.0760 C.ar  145  C145        0.3532
   3119  O2        48.5880    9.3810    7.1230 O.2   145  C145       -0.2443
   3120  N3        48.4280    9.0880    9.3590 N.ar  145  C145       -0.1739
   3121  C4        48.0460    8.3030   10.3720 C.ar  145  C145        0.1759
   3122  N4        48.2460    8.7370   11.6160 N.pl3 145  C145       -0.1070
   3123  C5        47.4340    7.0320   10.1560 C.ar  145  C145        0.0566
   3124  C6        47.2600    6.6460    8.8850 C.ar  145  C145        0.0850
   3125  OP1       45.9350    1.2140    8.2840 O.2   145  C145       -0.5172
   3126  OP2       46.3670    2.9050   10.1770 O.co2 145  C145       -0.4373
   3127  P         50.6670    3.4950    6.2370 P.3   146  G146        0.2141
   3128  C5'       52.2260    5.1510    4.9240 C.3   146  G146        0.1812
   3129  O5'       51.6280    4.7660    6.1580 O.3   146  G146       -0.3114
   3130  C4'       53.0210    6.4320    5.1040 C.3   146  G146        0.1773
   3131  O4'       52.1560    7.4940    5.5880 O.3   146  G146       -0.3307
   3132  C3'       54.1270    6.3770    6.1490 C.3   146  G146        0.1860
   3133  O3'       55.2920    5.7000    5.6720 O.3   146  G146       -0.3112
   3134  C2'       54.3520    7.8700    6.3600 C.3   146  G146        0.2309
   3135  O2'       55.0910    8.4770    5.3210 O.3   146  G146       -0.2156
   3136  C1'       52.9150    8.3880    6.3850 C.3   146  G146        0.2408
   3137  N1        53.0630   10.7870   10.8750 N.ar  146  G146       -0.1709
   3138  C2        53.7130   11.0880    9.6990 C.ar  146  G146        0.2606
   3139  N2        54.5070   12.1650    9.7100 N.pl3 146  G146       -0.0859
   3140  N3        53.5850   10.3790    8.5820 N.ar  146  G146       -0.1918
   3141  C4        52.7490    9.3200    8.7330 C.ar  146  G146        0.1723
   3142  C5        52.0600    8.9320    9.8630 C.ar  146  G146        0.1748
   3143  C6        52.2040    9.6990   11.0480 C.ar  146  G146        0.3023
   3144  O6        51.6700    9.5110   12.1490 O.2   146  G146       -0.2633
   3145  N7        51.3050    7.7920    9.6150 N.ar  146  G146       -0.2173
   3146  C8        51.5510    7.5200    8.3620 C.ar  146  G146        0.1817
   3147  N9        52.4140    8.4080    7.7590 N.ar  146  G146       -0.2693
   3148  OP1       51.2760    2.4060    5.4350 O.2   146  G146       -0.5172
   3149  OP2       50.3330    3.2740    7.6640 O.co2 146  G146       -0.4373
   3150  P         56.2130    4.8230    6.6570 P.3   147  G147        0.2141
   3151  C5'       57.8400    6.8030    7.1340 C.3   147  G147        0.1812
   3152  O5'       56.8140    5.9510    7.6250 O.3   147  G147       -0.3114
   3153  C4'       58.1850    7.9180    8.1030 C.3   147  G147        0.1773
   3154  O4'       56.9840    8.6190    8.5040 O.3   147  G147       -0.3307
   3155  C3'       58.7950    7.5130    9.4380 C.3   147  G147        0.1860
   3156  O3'       60.1710    7.1080    9.3300 O.3   147  G147       -0.3112
   3157  C2'       58.6090    8.8160   10.2110 C.3   147  G147        0.2309
   3158  O2'       59.5160    9.8430    9.8530 O.3   147  G147       -0.2156
   3159  C1'       57.1870    9.1740    9.7900 C.3   147  G147        0.2408
   3160  N1        55.1850    9.5290   14.4310 N.ar  147  G147       -0.1709
   3161  C2        56.1740   10.2790   13.8410 C.ar  147  G147        0.2606
   3162  N2        56.7110   11.2600   14.5770 N.pl3 147  G147       -0.0859
   3163  N3        56.6130   10.0830   12.6080 N.ar  147  G147       -0.1918
   3164  C4        55.9700    9.0610   11.9950 C.ar  147  G147        0.1723
   3165  C5        54.9740    8.2530   12.4900 C.ar  147  G147        0.1748
   3166  C6        54.5170    8.4760   13.8090 C.ar  147  G147        0.3023
   3167  O6        53.6380    7.8650   14.4220 O.2   147  G147       -0.2633
   3168  N7        54.5790    7.3160   11.5470 N.ar  147  G147       -0.2173
   3169  C8        55.3370    7.5730   10.5160 C.ar  147  G147        0.1817
   3170  N9        56.2020    8.6240   10.7150 N.ar  147  G147       -0.2693
   3171  OP1       57.3020    4.2230    5.8520 O.2   147  G147       -0.5172
   3172  OP2       55.3500    3.9050    7.4410 O.co2 147  G147       -0.4373
   3173  P         60.7990    6.1280   10.4330 P.3   148  A148        0.2141
   3174  C5'       62.1770    8.0710   11.5260 C.3   148  A148        0.1812
   3175  O5'       61.1170    7.1330   11.6310 O.3   148  A148       -0.3114
   3176  C4'       62.2920    8.8700   12.8080 C.3   148  A148        0.1773
   3177  O4'       61.0560    9.5900   13.0590 O.3   148  A148       -0.3307
   3178  C3'       62.4670    8.0440   14.0730 C.3   148  A148        0.1860
   3179  O3'       63.8040    7.6100   14.2530 O.3   148  A148       -0.3112
   3180  C2'       62.0430    9.0600   15.1220 C.3   148  A148        0.2309
   3181  O2'       63.0190   10.0640   15.3100 O.3   148  A148       -0.2156
   3182  C1'       60.7960    9.6250   14.4540 C.3   148  A148        0.2408
   3183  N1        57.1530    8.5770   17.9680 N.ar  148  A148       -0.2040
   3184  C2        58.2240    9.3810   18.0030 C.ar  148  A148        0.2016
   3185  N3        59.1310    9.6040   17.0510 N.ar  148  A148       -0.2048
   3186  C4        58.8600    8.8900   15.9410 C.ar  148  A148        0.1692
   3187  C5        57.7950    8.0220   15.7590 C.ar  148  A148        0.1518
   3188  C6        56.9020    7.8730   16.8470 C.ar  148  A148        0.1919
   3189  N6        55.8300    7.0760   16.8380 N.pl3 148  A148       -0.1054
   3190  N7        57.8390    7.4650   14.4900 N.ar  148  A148       -0.2193
   3191  C8        58.9090    7.9920   13.9460 C.ar  148  A148        0.1816
   3192  N9        59.5770    8.8660   14.7620 N.ar  148  A148       -0.2693
   3193  OP1       62.0690    5.5770    9.9130 O.2   148  A148       -0.5172
   3194  OP2       59.7350    5.2050   10.8890 O.co2 148  A148       -0.4373
   3195  P         64.0750    6.2280   15.0100 P.3   149  G149        0.2141
   3196  C5'       64.5350    7.3810   17.3350 C.3   149  G149        0.1812
   3197  O5'       63.6940    6.5460   16.5350 O.3   149  G149       -0.3114
   3198  C4'       63.8760    7.8060   18.6390 C.3   149  G149        0.1773
   3199  O4'       62.5560    8.3710   18.3930 O.3   149  G149       -0.3307
   3200  C3'       63.6440    6.7150   19.6820 C.3   149  G149        0.1860
   3201  O3'       64.8280    6.4510   20.4340 O.3   149  G149       -0.3112
   3202  C2'       62.5670    7.3880   20.5350 C.3   149  G149        0.2309
   3203  O2'       63.0840    8.3370   21.4530 O.3   149  G149       -0.2156
   3204  C1'       61.6900    8.0610   19.4740 C.3   149  G149        0.2408
   3205  N1        57.3280    5.6330   20.6420 N.ar  149  G149       -0.1709
   3206  C2        58.0840    6.4780   21.4240 C.ar  149  G149        0.2606
   3207  N2        57.6270    6.7010   22.6640 N.pl3 149  G149       -0.0859
   3208  N3        59.2110    7.0610   21.0150 N.ar  149  G149       -0.1918
   3209  C4        59.5290    6.7280   19.7340 C.ar  149  G149        0.1723
   3210  C5        58.8400    5.8930   18.8770 C.ar  149  G149        0.1748
   3211  C6        57.6440    5.2830   19.3270 C.ar  149  G149        0.3023
   3212  O6        56.9100    4.5100   18.6980 O.2   149  G149       -0.2633
   3213  N7        59.4730    5.7980   17.6480 N.ar  149  G149       -0.2173
   3214  C8        60.5180    6.5620   17.7820 C.ar  149  G149        0.1817
   3215  N9        60.6210    7.1690   19.0140 N.ar  149  G149       -0.2693
   3216  OP1       65.5310    5.9600   14.9230 O.3   149  G149       -0.4373
   3217  OP2       63.0980    5.2410   14.4990 O.co2 149  G149       -0.5172
   3218  P         65.1510    4.9860   21.0070 P.3   150  G150        0.2141
   3219  C5'       63.8400    5.0160   23.3060 C.3   150  G150        0.1812
   3220  O5'       63.8710    4.6780   21.9180 O.3   150  G150       -0.3114
   3221  C4'       62.5080    4.6270   23.9200 C.3   150  G150        0.1773
   3222  O4'       61.4260    5.0810   23.0640 O.3   150  G150       -0.3307
   3223  C3'       62.2770    3.1300   24.0550 C.3   150  G150        0.1860
   3224  O3'       62.8340    2.6250   25.2640 O.3   150  G150       -0.3112
   3225  C2'       60.7520    3.0370   24.0280 C.3   150  G150        0.2309
   3226  O2'       60.1430    3.3650   25.2650 O.3   150  G150       -0.2156
   3227  C1'       60.4050    4.0990   22.9960 C.3   150  G150        0.2408
   3228  N1        57.4970    1.5670   19.6170 N.ar  150  G150       -0.1709
   3229  C2        57.2510    1.8450   20.9470 C.ar  150  G150        0.2606
   3230  N2        56.0890    1.3910   21.4340 N.pl3 150  G150       -0.0859
   3231  N3        58.0860    2.5160   21.7400 N.ar  150  G150       -0.1918
   3232  C4        59.2210    2.8970   21.0870 C.ar  150  G150        0.1723
   3233  C5        59.5590    2.6660   19.7640 C.ar  150  G150        0.1748
   3234  C6        58.6520    1.9540   18.9280 C.ar  150  G150        0.3023
   3235  O6        58.7790    1.6550   17.7290 O.2   150  G150       -0.2633
   3236  N7        60.8030    3.2140   19.4720 N.ar  150  G150       -0.2173
   3237  C8        61.1840    3.7540   20.5960 C.ar  150  G150        0.1817
   3238  N9        60.2800    3.6020   21.6230 N.ar  150  G150       -0.2693
   3239  OP1       66.3520    5.0560   21.8750 O.3   150  G150       -0.4373
   3240  OP2       65.1440    4.0370   19.8680 O.co2 150  G150       -0.5172
   3241  P         63.4450    1.1430   25.2870 P.3   151  U151        0.2141
   3242  C5'       61.0620    0.1920   26.0460 C.3   151  U151        0.1812
   3243  O5'       62.1600    0.1990   25.1190 O.3   151  U151       -0.3114
   3244  C4'       59.9300   -0.6920   25.5320 C.3   151  U151        0.1773
   3245  O4'       59.5840   -0.3420   24.1650 O.3   151  U151       -0.3307
   3246  C3'       60.2450   -2.1910   25.5260 C.3   151  U151        0.1860
   3247  O3'       59.1220   -2.9790   25.9480 O.3   151  U151       -0.3112
   3248  C2'       60.6090   -2.4690   24.0670 C.3   151  U151        0.2309
   3249  O2'       60.3440   -3.8000   23.6660 O.3   151  U151       -0.2156
   3250  C1'       59.7170   -1.4740   23.3200 C.3   151  U151        0.2420
   3251  N1        60.2630   -1.0320   21.9860 N.ar  151  U151       -0.2534
   3252  C2        59.4150   -0.9720   20.8840 C.ar  151  U151        0.3546
   3253  O2        58.2260   -1.2600   20.9150 O.2   151  U151       -0.2443
   3254  N3        60.0200   -0.5590   19.7160 N.ar  151  U151       -0.1530
   3255  C4        61.3560   -0.2000   19.5360 C.ar  151  U151        0.2846
   3256  O4        61.7500    0.1580   18.4260 O.2   151  U151       -0.2650
   3257  C5        62.1780   -0.2890   20.7260 C.ar  151  U151        0.0814
   3258  C6        61.6110   -0.6900   21.8750 C.ar  151  U151        0.0870
   3259  OP1       64.0480    0.9000   26.6170 O.3   151  U151       -0.4373
   3260  OP2       64.2730    0.9830   24.0700 O.co2 151  U151       -0.5172
   3261  P         58.6170   -3.0270   27.4680 P.3   152  C152        0.2141
   3262  C5'       56.3270   -1.8810   28.1880 C.3   152  C152        0.1812
   3263  O5'       57.5610   -1.8140   27.4710 O.3   152  C152       -0.3114
   3264  C4'       55.0990   -1.9010   27.2770 C.3   152  C152        0.1773
   3265  O4'       55.4150   -2.3950   25.9410 O.3   152  C152       -0.3307
   3266  C3'       53.9540   -2.7990   27.7500 C.3   152  C152        0.1860
   3267  O3'       52.7100   -2.2670   27.2590 O.3   152  C152       -0.3112
   3268  C2'       54.3520   -4.1130   27.0770 C.3   152  C152        0.2309
   3269  O2'       53.3300   -5.0910   27.0650 O.3   152  C152       -0.2156
   3270  C1'       54.6410   -3.5620   25.6800 C.3   152  C152        0.2420
   3271  N1        55.3540   -4.4960   24.7220 N.ar  152  C152       -0.2535
   3272  C2        54.7150   -5.6400   24.1850 C.ar  152  C152        0.3532
   3273  O2        53.5460   -5.9200   24.4850 O.2   152  C152       -0.2443
   3274  N3        55.4050   -6.4340   23.3260 N.ar  152  C152       -0.1739
   3275  C4        56.6660   -6.1360   22.9980 C.ar  152  C152        0.1759
   3276  N4        57.3010   -6.9490   22.1530 N.pl3 152  C152       -0.1070
   3277  C5        57.3350   -4.9890   23.5230 C.ar  152  C152        0.0566
   3278  C6        56.6470   -4.2090   24.3670 C.ar  152  C152        0.0850
   3279  OP1       59.7540   -2.6920   28.3620 O.3   152  C152       -0.4373
   3280  OP2       57.9200   -4.3210   27.6670 O.co2 152  C152       -0.5172
   3281  P         51.2880   -2.6100   27.9210 P.3   153  U153        0.2141
   3282  C5'       50.2620   -0.3040   27.0610 C.3   153  U153        0.1812
   3283  O5'       50.2610   -1.7360   27.0430 O.3   153  U153       -0.3114
   3284  C4'       50.7580    0.2860   25.7480 C.3   153  U153        0.1773
   3285  O4'       51.9210   -0.4380   25.2500 O.3   153  U153       -0.3307
   3286  C3'       49.7540    0.3190   24.5880 C.3   153  U153        0.1860
   3287  O3'       49.7420    1.6350   24.0150 O.3   153  U153       -0.3112
   3288  C2'       50.3490   -0.6760   23.5970 C.3   153  U153        0.2309
   3289  O2'       50.0020   -0.4000   22.2540 O.3   153  U153       -0.2156
   3290  C1'       51.8250   -0.3750   23.8420 C.3   153  U153        0.2420
   3291  N1        52.8540   -1.2440   23.1540 N.ar  153  U153       -0.2534
   3292  C2        54.1200   -0.7240   22.9260 C.ar  153  U153        0.3546
   3293  O2        54.4620    0.3960   23.2600 O.2   153  U153       -0.2443
   3294  N3        54.9950   -1.5700   22.2860 N.ar  153  U153       -0.1530
   3295  C4        54.7410   -2.8630   21.8550 C.ar  153  U153        0.2846
   3296  O4        55.6260   -3.5070   21.2960 O.2   153  U153       -0.2650
   3297  C5        53.4020   -3.3330   22.1240 C.ar  153  U153        0.0814
   3298  C6        52.5290   -2.5280   22.7460 C.ar  153  U153        0.0870
   3299  OP1       51.3040   -2.1270   29.3210 O.3   153  U153       -0.4373
   3300  OP2       50.9900   -4.0330   27.6500 O.co2 153  U153       -0.5172
   3301  P         48.4410    2.5760   23.9490 P.3   154  C154        0.2141
   3302  C5'       49.4800    4.0730   25.8440 C.3   154  C154        0.1812
   3303  O5'       49.0250    3.9670   24.4920 O.3   154  C154       -0.3114
   3304  C4'       50.8410    4.7370   25.9440 C.3   154  C154        0.1773
   3305  O4'       51.8770    3.8690   25.4230 O.3   154  C154       -0.3307
   3306  C3'       51.0370    5.9920   25.1130 C.3   154  C154        0.1860
   3307  O3'       50.3680    7.1030   25.6740 O.3   154  C154       -0.3112
   3308  C2'       52.5510    6.1290   25.1980 C.3   154  C154        0.2309
   3309  O2'       52.9990    6.6550   26.4350 O.3   154  C154       -0.2156
   3310  C1'       52.9800    4.6720   25.0250 C.3   154  C154        0.2420
   3311  N1        53.3870    4.3580   23.6070 N.ar  154  C154       -0.2535
   3312  C2        54.6690    4.7220   23.1340 C.ar  154  C154        0.3532
   3313  O2        55.4760    5.2960   23.8810 O.2   154  C154       -0.2443
   3314  N3        54.9990    4.4260   21.8460 N.ar  154  C154       -0.1739
   3315  C4        54.1190    3.8060   21.0460 C.ar  154  C154        0.1759
   3316  N4        54.4940    3.5350   19.7920 N.pl3 154  C154       -0.1070
   3317  C5        52.8170    3.4310   21.5010 C.ar  154  C154        0.0566
   3318  C6        52.5000    3.7240   22.7710 C.ar  154  C154        0.0850
   3319  OP1       47.4170    2.0620   24.8940 O.3   154  C154       -0.4373
   3320  OP2       48.0930    2.7730   22.5240 O.co2 154  C154       -0.5172
   3321  P         49.9050    8.3080   24.7270 P.3   155  U155        0.2141
   3322  C5'       51.8630    9.8880   25.4830 C.3   155  U155        0.1812
   3323  O5'       51.2590    9.1120   24.4530 O.3   155  U155       -0.3114
   3324  C4'       53.2070   10.4340   25.0360 C.3   155  U155        0.1773
   3325  O4'       54.0840    9.3470   24.6350 O.3   155  U155       -0.3307
   3326  C3'       53.1750   11.3420   23.8150 C.3   155  U155        0.1860
   3327  O3'       52.7790   12.6690   24.1450 O.3   155  U155       -0.3112
   3328  C2'       54.6310   11.2610   23.3790 C.3   155  U155        0.2309
   3329  O2'       55.4900   12.0230   24.2060 O.3   155  U155       -0.2156
   3330  C1'       54.9040    9.7720   23.5580 C.3   155  U155        0.2420
   3331  N1        54.6500    8.9430   22.3180 N.ar  155  U155       -0.2534
   3332  C2        55.5950    8.9310   21.3050 C.ar  155  U155        0.3546
   3333  O2        56.6340    9.5570   21.3450 O.2   155  U155       -0.2443
   3334  N3        55.2910    8.1490   20.2200 N.ar  155  U155       -0.1530
   3335  C4        54.1510    7.3910   20.0400 C.ar  155  U155        0.2846
   3336  O4        54.0160    6.7420   19.0090 O.2   155  U155       -0.2650
   3337  C5        53.2050    7.4460   21.1290 C.ar  155  U155        0.0814
   3338  C6        53.4860    8.2010   22.2010 C.ar  155  U155        0.0870
   3339  OP1       48.9910    9.1580   25.5200 O.3   155  U155       -0.4373
   3340  OP2       49.4570    7.7560   23.4280 O.co2 155  U155       -0.5172
   3341  P         51.8210   13.4840   23.1470 P.3   156  C156        0.2141
   3342  C5'       53.9040   14.7850   22.2020 C.3   156  C156        0.1812
   3343  O5'       52.7880   13.9430   21.9610 O.3   156  C156       -0.3114
   3344  C4'       54.9100   14.6410   21.0740 C.3   156  C156        0.1773
   3345  O4'       55.3280   13.2580   20.9080 O.3   156  C156       -0.3307
   3346  C3'       54.4150   15.0140   19.6820 C.3   156  C156        0.1860
   3347  O3'       54.3220   16.4300   19.5330 O.3   156  C156       -0.3112
   3348  C2'       55.5540   14.4050   18.8700 C.3   156  C156        0.2309
   3349  O2'       56.7740   15.1190   18.9760 O.3   156  C156       -0.2156
   3350  C1'       55.7000   13.0480   19.5550 C.3   156  C156        0.2420
   3351  N1        54.8740   11.9680   18.8940 N.ar  156  C156       -0.2535
   3352  C2        55.2990   11.4330   17.6630 C.ar  156  C156        0.3532
   3353  O2        56.3370   11.8430   17.1380 O.2   156  C156       -0.2443
   3354  N3        54.5630   10.4680   17.0620 N.ar  156  C156       -0.1739
   3355  C4        53.4410   10.0340   17.6350 C.ar  156  C156        0.1759
   3356  N4        52.7570    9.0810   16.9970 N.pl3 156  C156       -0.1070
   3357  C5        52.9800   10.5610   18.8840 C.ar  156  C156        0.0566
   3358  C6        53.7180   11.5150   19.4710 C.ar  156  C156        0.0850
   3359  OP1       51.3600   14.6860   23.8760 O.3   156  C156       -0.4373
   3360  OP2       50.8370   12.5420   22.5580 O.co2 156  C156       -0.5172
   3361  P         53.3430   17.1130   18.4650 P.3   157  C157        0.2141
   3362  C5'       55.2890   17.4350   16.7750 C.3   157  C157        0.1812
   3363  O5'       54.0640   16.7800   17.0830 O.3   157  C157       -0.3114
   3364  C4'       55.7270   17.1530   15.3510 C.3   157  C157        0.1773
   3365  O4'       56.1370   15.7660   15.2300 O.3   157  C157       -0.3307
   3366  C3'       54.6520   17.3060   14.2890 C.3   157  C157        0.1860
   3367  O3'       54.5340   18.6470   13.9120 O.3   157  C157       -0.3112
   3368  C2'       55.2620   16.4870   13.1710 C.3   157  C157        0.2309
   3369  O2'       56.3140   17.1910   12.5350 O.3   157  C157       -0.2156
   3370  C1'       55.7720   15.2730   13.9520 C.3   157  C157        0.2420
   3371  N1        54.7370   14.1860   14.0870 N.ar  157  C157       -0.2535
   3372  C2        54.4650   13.3400   13.0000 C.ar  157  C157        0.3532
   3373  O2        55.0860   13.4860   11.9430 O.2   157  C157       -0.2443
   3374  N3        53.5180   12.3760   13.1340 N.ar  157  C157       -0.1739
   3375  C4        52.8530   12.2460   14.2860 C.ar  157  C157        0.1759
   3376  N4        51.9320   11.2870   14.3770 N.pl3 157  C157       -0.1070
   3377  C5        53.1070   13.0920   15.4040 C.ar  157  C157        0.0566
   3378  C6        54.0450   14.0350   15.2600 C.ar  157  C157        0.0850
   3379  OP1       53.4080   18.5730   18.6910 O.3   157  C157       -0.4373
   3380  OP2       52.0300   16.4370   18.4910 O.co2 157  C157       -0.5172
   3381  P         53.1130   19.2410   13.4920 P.3   158  G158        0.2141
   3382  C5'       53.4820   18.9690   10.9140 C.3   158  G158        0.1812
   3383  O5'       52.8180   18.5230   12.0910 O.3   158  G158       -0.3114
   3384  C4'       53.3300   17.9820    9.7760 C.3   158  G158        0.1773
   3385  O4'       53.6100   16.6330   10.2270 O.3   158  G158       -0.3307
   3386  C3'       51.9320   17.8580    9.1980 C.3   158  G158        0.1860
   3387  O3'       51.6030   18.9490    8.3460 O.3   158  G158       -0.3112
   3388  C2'       52.0720   16.5450    8.4360 C.3   158  G158        0.2309
   3389  O2'       52.7970   16.6950    7.2320 O.3   158  G158       -0.2156
   3390  C1'       52.8780   15.7170    9.4300 C.3   158  G158        0.2408
   3391  N1        49.9580   11.5310    9.7010 N.ar  158  G158       -0.1709
   3392  C2        50.6350   12.0530    8.6220 C.ar  158  G158        0.2606
   3393  N2        50.5240   11.3820    7.4680 N.pl3 158  G158       -0.0859
   3394  N3        51.3700   13.1620    8.6730 N.ar  158  G158       -0.1918
   3395  C4        51.3770   13.7250    9.9110 C.ar  158  G158        0.1723
   3396  C5        50.7360   13.2810   11.0470 C.ar  158  G158        0.1748
   3397  C6        49.9570   12.0980   10.9740 C.ar  158  G158        0.3023
   3398  O6        49.3140   11.5540   11.8750 O.2   158  G158       -0.2633
   3399  N7        50.9850   14.1320   12.1170 N.ar  158  G158       -0.2173
   3400  C8        51.7600   15.0550   11.6180 C.ar  158  G158        0.1817
   3401  N9        52.0420   14.8730   10.2840 N.ar  158  G158       -0.2693
   3402  OP1       53.3040   20.6930   13.2800 O.2   158  G158       -0.5172
   3403  OP2       52.0970   18.7710   14.4580 O.co2 158  G158       -0.4373
   3404  P         50.0580   19.3110    8.1380 P.3   159  U159        0.2141
   3405  C5'       49.8580   17.8480    5.9270 C.3   159  U159        0.1812
   3406  O5'       49.4770   18.0790    7.2900 O.3   159  U159       -0.3114
   3407  C4'       49.1040   16.6730    5.3260 C.3   159  U159        0.1773
   3408  O4'       49.4870   15.4220    5.9660 O.3   159  U159       -0.3307
   3409  C3'       47.5920   16.7100    5.4930 C.3   159  U159        0.1860
   3410  O3'       46.9930   17.5810    4.5520 O.3   159  U159       -0.3112
   3411  C2'       47.2560   15.2400    5.2550 C.3   159  U159        0.2309
   3412  O2'       47.3200   14.8460    3.8990 O.3   159  U159       -0.2156
   3413  C1'       48.3620   14.5570    6.0510 C.3   159  U159        0.2420
   3414  N1        47.9590   14.3120    7.4850 N.ar  159  U159       -0.2534
   3415  C2        47.1260   13.2500    7.7980 C.ar  159  U159        0.3546
   3416  O2        46.6790   12.4690    6.9800 O.2   159  U159       -0.2443
   3417  N3        46.8200   13.1240    9.1290 N.ar  159  U159       -0.1530
   3418  C4        47.2450   13.9360   10.1630 C.ar  159  U159        0.2846
   3419  O4        46.8870   13.7040   11.3120 O.2   159  U159       -0.2650
   3420  C5        48.1010   15.0210    9.7700 C.ar  159  U159        0.0814
   3421  C6        48.4160   15.1590    8.4790 C.ar  159  U159        0.0870
   3422  OP1       49.9710   20.5290    7.3040 O.2   159  U159       -0.5172
   3423  OP2       49.4020   19.2400    9.4640 O.co2 159  U159       -0.4373
   3424  P         45.6080   18.3110    4.8900 P.3   160  G160        0.2141
   3425  C5'       44.1040   16.4560    3.8000 C.3   160  G160        0.1812
   3426  O5'       44.5380   17.1180    4.9810 O.3   160  G160       -0.3114
   3427  C4'       43.4390   15.1250    4.0910 C.3   160  G160        0.1773
   3428  O4'       44.2290   14.3050    4.9900 O.3   160  G160       -0.3307
   3429  C3'       42.0960   15.2200    4.7880 C.3   160  G160        0.1860
   3430  O3'       41.0940   15.6370    3.8670 O.3   160  G160       -0.3112
   3431  C2'       41.9500   13.7780    5.2830 C.3   160  G160        0.2309
   3432  O2'       41.5950   12.8280    4.2990 O.3   160  G160       -0.2156
   3433  C1'       43.3630   13.4900    5.7690 C.3   160  G160        0.2408
   3434  N1        42.4390   12.0340   10.5800 N.ar  160  G160       -0.1709
   3435  C2        42.1380   11.3790    9.4070 C.ar  160  G160        0.2606
   3436  N2        41.5180   10.2020    9.5270 N.pl3 160  G160       -0.0859
   3437  N3        42.4290   11.8520    8.2000 N.ar  160  G160       -0.1918
   3438  C4        43.0560   13.0580    8.2570 C.ar  160  G160        0.1723
   3439  C5        43.3930   13.7860    9.3790 C.ar  160  G160        0.1748
   3440  C6        43.0790   13.2700   10.6580 C.ar  160  G160        0.3023
   3441  O6        43.3080   13.7850   11.7600 O.2   160  G160       -0.2633
   3442  N7        44.0230   14.9720    9.0310 N.ar  160  G160       -0.2173
   3443  C8        44.0560   14.9410    7.7300 C.ar  160  G160        0.1817
   3444  N9        43.4940   13.8100    7.1880 N.ar  160  G160       -0.2693
   3445  OP1       45.2950   19.1940    3.7440 O.2   160  G160       -0.5172
   3446  OP2       45.7000   18.9080    6.2410 O.co2 160  G160       -0.4373
   3447  P         39.7820   16.4370    4.3260 P.3   161  G161        0.2141
   3448  C5'       38.5380   14.1640    3.9520 C.3   161  G161        0.1812
   3449  O5'       38.7850   15.2830    4.8020 O.3   161  G161       -0.3114
   3450  C4'       37.8380   13.0440    4.6950 C.3   161  G161        0.1773
   3451  O4'       38.7460   12.4140    5.6310 O.3   161  G161       -0.3307
   3452  C3'       36.6610   13.5030    5.5360 C.3   161  G161        0.1860
   3453  O3'       35.5010   13.5560    4.7310 O.3   161  G161       -0.3112
   3454  C2'       36.5860   12.4280    6.6170 C.3   161  G161        0.2309
   3455  O2'       35.8500   11.2840    6.2250 O.3   161  G161       -0.2156
   3456  C1'       38.0560   12.0690    6.8240 C.3   161  G161        0.2408
   3457  N1        38.8490   12.1000   11.9110 N.ar  161  G161       -0.1709
   3458  C2        38.1120   11.2110   11.1580 C.ar  161  G161        0.2606
   3459  N2        37.5220   10.2150   11.8260 N.pl3 161  G161       -0.0859
   3460  N3        37.9700   11.2940    9.8380 N.ar  161  G161       -0.1918
   3461  C4        38.6340   12.3610    9.3050 C.ar  161  G161        0.1723
   3462  C5        39.3920   13.2990    9.9800 C.ar  161  G161        0.1748
   3463  C6        39.5380   13.1970   11.3900 C.ar  161  G161        0.3023
   3464  O6        40.1740   13.9460   12.1450 O.2   161  G161       -0.2633
   3465  N7        39.9100   14.2360    9.1000 N.ar  161  G161       -0.2173
   3466  C8        39.4630   13.8600    7.9370 C.ar  161  G161        0.1817
   3467  N9        38.6840   12.7330    7.9730 N.ar  161  G161       -0.2693
   3468  OP1       39.2060   17.0680    3.1170 O.2   161  G161       -0.5172
   3469  OP2       40.1110   17.2710    5.5040 O.co2 161  G161       -0.4373
   3470  P         34.3580   14.6210    5.0720 P.3   162  A162        0.2141
   3471  C5'       32.9640   12.6470    6.1310 C.3   162  A162        0.1812
   3472  O5'       33.5830   13.9270    6.2830 O.3   162  A162       -0.3114
   3473  C4'       32.7620   11.9800    7.4870 C.3   162  A162        0.1773
   3474  O4'       33.9040   12.2000    8.3640 O.3   162  A162       -0.3307
   3475  C3'       31.5440   12.4490    8.2810 C.3   162  A162        0.1860
   3476  O3'       31.0920   11.3540    9.0700 O.3   162  A162       -0.3112
   3477  C2'       32.1540   13.5690    9.1240 C.3   162  A162        0.2309
   3478  O2'       31.3860   13.9200   10.2560 O.3   162  A162       -0.2156
   3479  C1'       33.4860   12.9210    9.5100 C.3   162  A162        0.2408
   3480  N1        36.9430   14.3770   13.0360 N.ar  162  A162       -0.2040
   3481  C2        36.0590   13.3680   13.0190 C.ar  162  A162        0.2016
   3482  N3        35.1910   13.0420   12.0640 N.ar  162  A162       -0.2048
   3483  C4        35.2760   13.8940   11.0280 C.ar  162  A162        0.1692
   3484  C5        36.1340   14.9780   10.9060 C.ar  162  A162        0.1518
   3485  C6        37.0100   15.2210   11.9860 C.ar  162  A162        0.1919
   3486  N6        37.8960   16.2220   12.0260 N.pl3 162  A162       -0.1054
   3487  N7        35.9360   15.6240    9.6970 N.ar  162  A162       -0.2193
   3488  C8        34.9810   14.9330    9.1230 C.ar  162  A162        0.1816
   3489  N9        34.5340   13.8740    9.8680 N.ar  162  A162       -0.2693
   3490  OP1       33.4160   14.6880    3.9270 O.2   162  A162       -0.5172
   3491  OP2       35.0130   15.8500    5.5830 O.co2 162  A162       -0.4373
   3492  P         29.5670   10.8780    9.0950 P.3   163  G163        0.2141
   3493  C5'       30.0660   10.9230   11.6490 C.3   163  G163        0.1812
   3494  O5'       29.4320   10.2840   10.5630 O.3   163  G163       -0.3114
   3495  C4'       29.2580   10.6830   12.9040 C.3   163  G163        0.1773
   3496  O4'       30.1400   10.7020   14.0430 O.3   163  G163       -0.3307
   3497  C3'       28.2260   11.7510   13.1990 C.3   163  G163        0.1860
   3498  O3'       27.1810   11.1550   13.9450 O.3   163  G163       -0.3112
   3499  C2'       29.0450   12.7340   14.0320 C.3   163  G163        0.2309
   3500  O2'       28.2590   13.6360   14.7870 O.3   163  G163       -0.2156
   3501  C1'       29.7750   11.7400   14.9230 C.3   163  G163        0.2408
   3502  N1        32.2740   12.7680   19.2520 N.ar  163  G163       -0.1709
   3503  C2        31.0090   12.2720   19.0820 C.ar  163  G163        0.2606
   3504  N2        30.3200   12.0170   20.1990 N.pl3 163  G163       -0.0859
   3505  N3        30.4530   12.0390   17.8990 N.ar  163  G163       -0.1918
   3506  C4        31.2790   12.3490   16.8720 C.ar  163  G163        0.1723
   3507  C5        32.5560   12.8500   16.9420 C.ar  163  G163        0.1748
   3508  C6        33.1310   13.0920   18.2080 C.ar  163  G163        0.3023
   3509  O6        34.2560   13.5330   18.4560 O.2   163  G163       -0.2633
   3510  N7        33.0810   13.0380   15.6730 N.ar  163  G163       -0.2173
   3511  C8        32.1260   12.6610   14.8700 C.ar  163  G163        0.1817
   3512  N9        31.0020   12.2330   15.5290 N.ar  163  G163       -0.2693
   3513  OP1       29.4360    9.7100    8.2020 O.2   163  G163       -0.5172
   3514  OP2       28.6790   12.0570    8.9700 O.co2 163  G163       -0.4373
   3515  P         25.7560   10.8450   13.2930 P.3   164  A164        0.2141
   3516  C5'       25.8590    8.1980   13.3280 C.3   164  A164        0.1812
   3517  O5'       26.0630    9.4300   12.6300 O.3   164  A164       -0.3114
   3518  C4'       26.0330    7.0250   12.3680 C.3   164  A164        0.1773
   3519  O4'       25.1980    7.1920   11.1830 O.3   164  A164       -0.3307
   3520  C3'       27.4480    6.8560   11.8350 C.3   164  A164        0.1860
   3521  O3'       27.7260    5.4900   11.6060 O.3   164  A164       -0.3112
   3522  C2'       27.3970    7.6570   10.5380 C.3   164  A164        0.2309
   3523  O2'       28.4080    7.3530    9.5980 O.3   164  A164       -0.2156
   3524  C1'       26.0070    7.2970   10.0270 C.3   164  A164        0.2408
   3525  N1        24.1320    8.6280    5.3950 N.ar  164  A164       -0.2040
   3526  C2        24.4830    7.4250    5.8870 C.ar  164  A164        0.2016
   3527  N3        24.9620    7.1330    7.1060 N.ar  164  A164       -0.2048
   3528  C4        25.0760    8.2520    7.8640 C.ar  164  A164        0.1692
   3529  C5        24.7530    9.5530    7.4870 C.ar  164  A164        0.1518
   3530  C6        24.2600    9.7300    6.1780 C.ar  164  A164        0.1919
   3531  N6        23.9190   10.9320    5.7030 N.pl3 164  A164       -0.1054
   3532  N7        24.9910   10.4530    8.5140 N.ar  164  A164       -0.2193
   3533  C8        25.4500    9.6940    9.4790 C.ar  164  A164        0.1816
   3534  N9        25.5190    8.3610    9.1640 N.ar  164  A164       -0.2693
   3535  OP1       25.4440   11.8680   12.2620 O.2   164  A164       -0.5172
   3536  OP2       24.7910   10.6440   14.4020 O.co2 164  A164       -0.4373
   3537  P         28.6430    4.6950   12.6450 P.3   165  G165        0.2141
   3538  C5'       30.8830    5.8040   11.7720 C.3   165  G165        0.1812
   3539  O5'       29.9230    5.6430   12.8130 O.3   165  G165       -0.3114
   3540  C4'       31.9600    6.7620   12.2340 C.3   165  G165        0.1773
   3541  O4'       31.3720    7.9540   12.8210 O.3   165  G165       -0.3307
   3542  C3'       32.8370    6.2060   13.3350 C.3   165  G165        0.1860
   3543  O3'       33.8450    5.4040   12.7830 O.3   165  G165       -0.3112
   3544  C2'       33.3960    7.4820   13.9480 C.3   165  G165        0.2309
   3545  O2'       34.4660    8.0430   13.2190 O.3   165  G165       -0.2156
   3546  C1'       32.1850    8.4050   13.8900 C.3   165  G165        0.2408
   3547  N1        32.1790    9.3100   18.9280 N.ar  165  G165       -0.1709
   3548  C2        33.2060    9.4510   18.0270 C.ar  165  G165        0.2606
   3549  N2        34.3770    9.8830   18.5180 N.pl3 165  G165       -0.0859
   3550  N3        33.0900    9.1850   16.7310 N.ar  165  G165       -0.1918
   3551  C4        31.8440    8.7580   16.3950 C.ar  165  G165        0.1723
   3552  C5        30.7560    8.5930   17.2260 C.ar  165  G165        0.1748
   3553  C6        30.8950    8.8830   18.6040 C.ar  165  G165        0.3023
   3554  O6        30.0430    8.7960   19.4920 O.2   165  G165       -0.2633
   3555  N7        29.6540    8.1440   16.5130 N.ar  165  G165       -0.2173
   3556  C8        30.0890    8.0400   15.2870 C.ar  165  G165        0.1817
   3557  N9        31.4080    8.4010   15.1320 N.ar  165  G165       -0.2693
   3558  OP1       29.0660    3.4160   12.0240 O.2   165  G165       -0.5172
   3559  OP2       27.9270    4.7050   13.9450 O.co2 165  G165       -0.4373
   3560  P         34.1850    3.9970   13.4610 P.3   166  C166        0.2141
   3561  C5'       36.2190    5.1900   14.6440 C.3   166  C166        0.1812
   3562  O5'       35.0500    4.3750   14.7440 O.3   166  C166       -0.3114
   3563  C4'       36.5870    5.7410   16.0120 C.3   166  C166        0.1773
   3564  O4'       35.5980    6.6980   16.4690 O.3   166  C166       -0.3307
   3565  C3'       36.6080    4.7180   17.1360 C.3   166  C166        0.1860
   3566  O3'       37.7870    3.9400   17.0820 O.3   166  C166       -0.3112
   3567  C2'       36.5970    5.6530   18.3290 C.3   166  C166        0.2309
   3568  O2'       37.8450    6.2820   18.5120 O.3   166  C166       -0.2156
   3569  C1'       35.5660    6.6840   17.8830 C.3   166  C166        0.2420
   3570  N1        34.1930    6.3560   18.3810 N.ar  166  C166       -0.2535
   3571  C2        33.8670    6.5700   19.7350 C.ar  166  C166        0.3532
   3572  O2        34.7070    7.0430   20.5160 O.2   166  C166       -0.2443
   3573  N3        32.6170    6.2570   20.1640 N.ar  166  C166       -0.1739
   3574  C4        31.7170    5.7520   19.3160 C.ar  166  C166        0.1759
   3575  N4        30.5020    5.4620   19.7910 N.pl3 166  C166       -0.1070
   3576  C5        32.0280    5.5300   17.9420 C.ar  166  C166        0.0566
   3577  C6        33.2600    5.8390   17.5250 C.ar  166  C166        0.0850
   3578  OP1       35.0490    3.2370   12.5310 O.2   166  C166       -0.5172
   3579  OP2       32.9410    3.4020   13.9870 O.co2 166  C166       -0.4373
   3580  P         37.7610    2.4010   17.5190 P.3   167  C167        0.2141
   3581  C5'       38.8820    2.9430   19.8170 C.3   167  C167        0.1812
   3582  O5'       37.7210    2.4960   19.1150 O.3   167  C167       -0.3114
   3583  C4'       38.6140    3.0810   21.3020 C.3   167  C167        0.1773
   3584  O4'       37.5310    4.0150   21.5540 O.3   167  C167       -0.3307
   3585  C3'       38.1320    1.8090   21.9550 C.3   167  C167        0.1860
   3586  O3'       39.2270    0.9980   22.2500 O.3   167  C167       -0.3112
   3587  C2'       37.4660    2.3430   23.2130 C.3   167  C167        0.2309
   3588  O2'       38.3800    2.7370   24.2140 O.3   167  C167       -0.2156
   3589  C1'       36.7630    3.5690   22.6600 C.3   167  C167        0.2420
   3590  N1        35.3430    3.3100   22.2540 N.ar  167  C167       -0.2535
   3591  C2        34.3470    3.2230   23.2380 C.ar  167  C167        0.3532
   3592  O2        34.6490    3.3550   24.4300 O.2   167  C167       -0.2443
   3593  N3        33.0600    3.0040   22.8630 N.ar  167  C167       -0.1739
   3594  C4        32.7540    2.8690   21.5740 C.ar  167  C167        0.1759
   3595  N4        31.4810    2.6520   21.2620 N.pl3 167  C167       -0.1070
   3596  C5        33.7440    2.9490   20.5530 C.ar  167  C167        0.0566
   3597  C6        35.0100    3.1680   20.9360 C.ar  167  C167        0.0850
   3598  OP1       39.0540    1.7930   17.1370 O.3   167  C167       -0.4373
   3599  OP2       36.4830    1.8100   17.0600 O.co2 167  C167       -0.5172
   3600  P         39.1080   -0.5720   21.9650 P.3   168  G168        0.2141
   3601  C5'       38.1590   -1.1770   24.3230 C.3   168  G168        0.1812
   3602  O5'       37.9100   -1.0060   22.9390 O.3   168  G168       -0.3114
   3603  C4'       36.8790   -1.2150   25.1330 C.3   168  G168        0.1773
   3604  O4'       35.9030   -0.2560   24.6650 O.3   168  G168       -0.3307
   3605  C3'       36.0780   -2.5010   25.1180 C.3   168  G168        0.1860
   3606  O3'       36.7470   -3.4860   25.8560 O.3   168  G168       -0.3112
   3607  C2'       34.8530   -2.0010   25.8600 C.3   168  G168        0.2309
   3608  O2'       35.1240   -1.8210   27.2330 O.3   168  G168       -0.2156
   3609  C1'       34.6600   -0.6260   25.2310 C.3   168  G168        0.2408
   3610  N1        29.6780   -1.0330   24.2040 N.ar  168  G168       -0.1709
   3611  C2        30.3210   -1.1700   25.4120 C.ar  168  G168        0.2606
   3612  N2        29.5600   -1.4490   26.4750 N.pl3 168  G168       -0.0859
   3613  N3        31.6320   -1.0390   25.5630 N.ar  168  G168       -0.1918
   3614  C4        32.2650   -0.7610   24.3900 C.ar  168  G168        0.1723
   3615  C5        31.7050   -0.6050   23.1410 C.ar  168  G168        0.1748
   3616  C6        30.3090   -0.7420   22.9950 C.ar  168  G168        0.3023
   3617  O6        29.6470   -0.6410   21.9600 O.2   168  G168       -0.2633
   3618  N7        32.6750   -0.3280   22.1930 N.ar  168  G168       -0.2173
   3619  C8        33.7870   -0.3190   22.8730 C.ar  168  G168        0.1817
   3620  N9        33.6190   -0.5780   24.2090 N.ar  168  G168       -0.2693
   3621  OP1       40.3940   -1.1880   22.3980 O.3   168  G168       -0.4373
   3622  OP2       38.6080   -0.7770   20.5820 O.co2 168  G168       -0.5172
   3623  P         36.5520   -5.0360   25.5140 P.3   169  U169        0.2141
   3624  C5'       34.9520   -5.2900   27.5670 C.3   169  U169        0.1812
   3625  O5'       35.1450   -5.3930   26.1720 O.3   169  U169       -0.3114
   3626  C4'       33.5090   -5.6040   27.8870 C.3   169  U169        0.1773
   3627  O4'       32.6610   -4.5430   27.3860 O.3   169  U169       -0.3307
   3628  C3'       32.9640   -6.8320   27.1820 C.3   169  U169        0.1860
   3629  O3'       33.4000   -8.0340   27.7960 O.3   169  U169       -0.3112
   3630  C2'       31.4670   -6.5880   27.3100 C.3   169  U169        0.2309
   3631  O2'       30.9780   -6.9130   28.5890 O.3   169  U169       -0.2156
   3632  C1'       31.3830   -5.0800   27.1030 C.3   169  U169        0.2420
   3633  N1        30.9660   -4.7190   25.7170 N.ar  169  U169       -0.2534
   3634  C2        29.6140   -4.6000   25.4370 C.ar  169  U169        0.3546
   3635  O2        28.7310   -4.7720   26.2670 O.2   169  U169       -0.2443
   3636  N3        29.3290   -4.2690   24.1300 N.ar  169  U169       -0.1530
   3637  C4        30.2390   -4.0530   23.1080 C.ar  169  U169        0.2846
   3638  O4        29.8360   -3.7620   21.9940 O.2   169  U169       -0.2650
   3639  C5        31.6260   -4.1960   23.4710 C.ar  169  U169        0.0814
   3640  C6        31.9270   -4.5170   24.7360 C.ar  169  U169        0.0870
   3641  OP1       37.6240   -5.7690   26.2350 O.3   169  U169       -0.4373
   3642  OP2       36.3850   -5.1890   24.0470 O.co2 169  U169       -0.5172
   3643  P         33.4100   -9.3580   26.9020 P.3   170  C170        0.2141
   3644  C5'       31.1870  -10.2960   25.7460 C.3   170  C170        0.1812
   3645  O5'       31.8680   -9.8040   26.9210 O.3   170  C170       -0.3114
   3646  C4'       29.6940  -10.0040   25.8190 C.3   170  C170        0.1773
   3647  O4'       29.4460   -8.5880   25.6120 O.3   170  C170       -0.3307
   3648  C3'       28.8080  -10.6890   24.7890 C.3   170  C170        0.1860
   3649  O3'       28.5070  -12.0230   25.1640 O.3   170  C170       -0.3112
   3650  C2'       27.5740   -9.7960   24.8590 C.3   170  C170        0.2309
   3651  O2'       26.7590  -10.0240   25.9910 O.3   170  C170       -0.2156
   3652  C1'       28.2150   -8.4110   24.9360 C.3   170  C170        0.2420
   3653  N1        28.4790   -7.8070   23.5810 N.ar  170  C170       -0.2535
   3654  C2        27.4160   -7.4190   22.7400 C.ar  170  C170        0.3532
   3655  O2        26.2440   -7.5600   23.1070 O.2   170  C170       -0.2443
   3656  N3        27.7070   -6.8830   21.5220 N.ar  170  C170       -0.1739
   3657  C4        28.9760   -6.7300   21.1220 C.ar  170  C170        0.1759
   3658  N4        29.2040   -6.1980   19.9170 N.pl3 170  C170       -0.1070
   3659  C5        30.0670   -7.1250   21.9510 C.ar  170  C170        0.0566
   3660  C6        29.7740   -7.6460   23.1530 C.ar  170  C170        0.0850
   3661  OP1       34.2130  -10.3940   27.5850 O.3   170  C170       -0.4373
   3662  OP2       33.7720   -8.9750   25.5200 O.co2 170  C170       -0.5172
   3663  P         28.3040  -13.1790   24.0720 P.3   171  G171        0.2141
   3664  C5'       25.6760  -13.1650   24.3080 C.3   171  G171        0.1812
   3665  O5'       26.8350  -12.8880   23.5220 O.3   171  G171       -0.3114
   3666  C4'       24.4080  -12.7880   23.5560 C.3   171  G171        0.1773
   3667  O4'       24.3900  -11.3550   23.3090 O.3   171  G171       -0.3307
   3668  C3'       24.2730  -13.3960   22.1660 C.3   171  G171        0.1860
   3669  O3'       23.7620  -14.7160   22.1990 O.3   171  G171       -0.3112
   3670  C2'       23.3190  -12.4200   21.4940 C.3   171  G171        0.2309
   3671  O2'       21.9750  -12.5940   21.8960 O.3   171  G171       -0.2156
   3672  C1'       23.8790  -11.0970   22.0100 C.3   171  G171        0.2408
   3673  N1        25.0200   -8.7850   17.6030 N.ar  171  G171       -0.1709
   3674  C2        23.7970   -9.1780   18.0870 C.ar  171  G171        0.2606
   3675  N2        22.7430   -8.9210   17.3090 N.pl3 171  G171       -0.0859
   3676  N3        23.6210   -9.7770   19.2560 N.ar  171  G171       -0.1918
   3677  C4        24.7910   -9.9600   19.9210 C.ar  171  G171        0.1723
   3678  C5        26.0620   -9.6020   19.5210 C.ar  171  G171        0.1748
   3679  C6        26.2320   -8.9610   18.2690 C.ar  171  G171        0.3023
   3680  O6        27.2810   -8.5700   17.7400 O.2   171  G171       -0.2633
   3681  N7        26.9990   -9.9550   20.4820 N.ar  171  G171       -0.2173
   3682  C8        26.2910  -10.5090   21.4260 C.ar  171  G171        0.1817
   3683  N9        24.9400  -10.5470   21.1610 N.ar  171  G171       -0.2693
   3684  OP1       28.3090  -14.4830   24.7680 O.3   171  G171       -0.4373
   3685  OP2       29.2510  -12.9400   22.9580 O.co2 171  G171       -0.5172
   3686  P         24.3900  -15.7580   21.1620 P.3   172  G172        0.2141
   3687  C5'       22.2280  -15.4470   19.6640 C.3   172  G172        0.1812
   3688  O5'       23.6530  -15.4000   19.7850 O.3   172  G172       -0.3114
   3689  C4'       21.7310  -14.6970   18.4350 C.3   172  G172        0.1773
   3690  O4'       22.1260  -13.3000   18.4790 O.3   172  G172       -0.3307
   3691  C3'       22.2670  -15.1820   17.0950 C.3   172  G172        0.1860
   3692  O3'       21.5850  -16.3510   16.6610 O.3   172  G172       -0.3112
   3693  C2'       21.9870  -13.9650   16.2200 C.3   172  G172        0.2309
   3694  O2'       20.6270  -13.8330   15.8470 O.3   172  G172       -0.2156
   3695  C1'       22.3980  -12.8370   17.1650 C.3   172  G172        0.2408
   3696  N1        25.9840  -10.4320   14.4380 N.ar  172  G172       -0.1709
   3697  C2        24.6350  -10.5340   14.2000 C.ar  172  G172        0.2606
   3698  N2        24.1930   -9.9180   13.1010 N.pl3 172  G172       -0.0859
   3699  N3        23.7870  -11.1910   14.9820 N.ar  172  G172       -0.1918
   3700  C4        24.4120  -11.7480   16.0480 C.ar  172  G172        0.1723
   3701  C5        25.7520  -11.7010   16.3700 C.ar  172  G172        0.1748
   3702  C6        26.6440  -10.9970   15.5260 C.ar  172  G172        0.3023
   3703  O6        27.8700  -10.8520   15.6470 O.2   172  G172       -0.2633
   3704  N7        26.0070  -12.3950   17.5400 N.ar  172  G172       -0.2173
   3705  C8        24.8370  -12.8400   17.8950 C.ar  172  G172        0.1817
   3706  N9        23.8160  -12.4850   17.0440 N.ar  172  G172       -0.2693
   3707  OP1       24.0250  -17.1360   21.5610 O.3   172  G172       -0.4373
   3708  OP2       25.8140  -15.3750   21.0090 O.co2 172  G172       -0.5172
   3709  P         22.4100  -17.5580   16.0060 P.3   173  U173        0.2141
   3710  C5'       21.9670  -16.8400   13.4970 C.3   173  U173        0.1813
   3711  O5'       22.8770  -16.9520   14.5960 O.3   173  U173       -0.3114
   3712  C4'       22.3770  -15.7490   12.5210 C.3   173  U173        0.1801
   3713  O4'       22.9090  -14.6040   13.2330 O.3   173  U173       -0.3306
   3714  C3'       23.4930  -16.1180   11.5580 C.3   173  U173        0.2161
   3715  O3'       22.9910  -16.8490   10.4490 O.3   173  U173       -0.2175
   3716  C2'       23.9980  -14.7410   11.1520 C.3   173  U173        0.2338
   3717  O2'       23.1370  -14.0930   10.2360 O.3   173  U173       -0.2155
   3718  C1'       23.9620  -14.0110   12.4900 C.3   173  U173        0.2421
   3719  N1        25.2570  -14.0400   13.2830 N.ar  173  U173       -0.2534
   3720  C2        26.3610  -13.3070   12.8550 C.ar  173  U173        0.3546
   3721  O2        26.3860  -12.6190   11.8510 O.2   173  U173       -0.2443
   3722  N3        27.4720  -13.4100   13.6580 N.ar  173  U173       -0.1530
   3723  C4        27.5950  -14.1460   14.8260 C.ar  173  U173        0.2846
   3724  O4        28.6560  -14.1320   15.4380 O.2   173  U173       -0.2650
   3725  C5        26.4170  -14.8780   15.2170 C.ar  173  U173        0.0814
   3726  C6        25.3230  -14.7950   14.4470 C.ar  173  U173        0.0870
   3727  OP1       21.4700  -18.6760   15.7680 O.2   173  U173       -0.5172
   3728  OP2       23.6290  -17.7750   16.8170 O.co2 173  U173       -0.4373
@<TRIPOS>BOND
     1  1040  1019    2
     2  1003  1019    1
     3  1003  1002    1
     4  1017   997    2
     5  1019  1041    1
     6  1019  1021    1
     7   998  1000    1
     8   998   999    1
     9  1020  1021    1
    10  1020  1022    1
    11  1063  1042    2
    12  1000  1002    1
    13  1000  1001    1
    14  1005  1004    1
    15   861   843    2
    16  1002  1004    1
    17   980   997    1
    18   980   979    1
    19   997   999    1
    20   997  1018    1
    21   862   843    1
    22   982   981    1
    23  1025  1042    1
    24  1025  1024    1
    25  1022  1024    1
    26  1022  1023    1
    27  1001  1006    1
    28  1042  1064    1
    29  1042  1044    1
    30  1004  1006    1
    31   881   863    2
    32   843   845    1
    33   843   827    1
    34   845   844    1
    35  1024  1026    1
    36   977   979    1
    37   977   975    1
    38   977   978    1
    39   979   981    1
    40  1006  1016    1
    41   981   983    1
    42   844   846    1
    43   975   976    1
    44   841   821    2
    45  1023  1028    1
    46  1044  1043    1
    47   863   882    1
    48   863   849    1
    49   863   865    1
    50  1027  1026    1
    51   848   846    1
    52   848   849    1
    53   848   850    1
    54   995   974    2
    55   827   826    1
    56   978   983    1
    57  1026  1028    1
    58   983   994    1
    59   826   824    1
    60   826   828    1
    61   846   847    1
    62  1016  1015   ar
    63  1016  1010   ar
    64   821   842    1
    65   821   823    1
    66   821   807    1
    67   850   851    1
    68   850   852    1
    69  1028  1039    1
    70   822   823    1
    71   822   824    1
    72   959   958    1
    73   976   974    1
    74  1043  1045    1
    75   865   864    1
    76  1015  1014   ar
    77  2138  2137    1
    78   829   828    1
    79   974   957    1
    80   974   996    1
    81   824   825    1
    82   828   830    1
    83  1038  1039   ar
    84  1038  1037   ar
    85   957   956    1
    86   987   988   ar
    87   987   985   ar
    88  1039  1033   ar
    89   847   852    1
    90  1010  1009   ar
    91  1010  1011   ar
    92   986   985    1
    93   994   988   ar
    94   994   993   ar
    95  1009  1008   ar
    96   958   956    1
    97   958   960    1
    98   807   806    1
    99   852   853    1
   100  1045  1046    1
   101  1045  1047    1
   102   963   962    1
   103  1014  1011   ar
   104   988   989   ar
   105   864   866    1
   106   985   984   ar
   107  2142  2141    2
   108  1085  1065    2
   109  1037  1034   ar
   110  2137  2139    1
   111  2137  2135    1
   112  2139  2134    1
   113  2139  2140    1
   114   956   954    1
   115   860   853   ar
   116   860   859   ar
   117   825   830    1
   118  1086  1065    1
   119  2158  2157    1
   120  1046  1051    1
   121  1011  1012   ar
   122  2134  2133    1
   123   830   840    1
   124   993   992   ar
   125  2153  2151    1
   126  2153  2154    1
   127  2153  2155    1
   128  2133  2135    1
   129  2133  2131    1
   130   853   854   ar
   131  2151  2152    1
   132   964   962   ar
   133   964   965   ar
   134  1048  1065    1
   135  1048  1047    1
   136  2154  2159    1
   137  2118  2117    1
   138  1033  1034   ar
   139  1033  1032   ar
   140  1065  1067    1
   141   866   867    1
   142   866   868    1
   143   962   961   ar
   144  1008  1007   ar
   145   960   955    1
   146   960   971    1
   147  2136  2135    1
   148  2136  2150    1
   149  1047  1049    1
   150   954   955    1
   151   954   952    1
   152  2122  2121    2
   153   806   808    1
   154   806   804    1
   155   859   857   ar
   156   867   872    1
   157   819   801    2
   158  2141  2140   ar
   159  2141  2143   ar
   160  1034  1035   ar
   161   809   808    1
   162  2159  2157    1
   163  2159  2160    1
   164  1898  1877    2
   165   989   992   ar
   166   989   990   ar
   167  1061  1060   ar
   168  1061  1062   ar
   169  2140  2147   ar
   170   984   990   ar
   171  2131  2132    1
   172  1032  1030   ar
   173   840   839   ar
   174   840   834   ar
   175  2157  2155    1
   176  2156  2155    1
   177  2156  2170    1
   178  2168  2150    2
   179   839   838   ar
   180  1918  1900    2
   181   965   971   ar
   182   965   966   ar
   183   854   855    2
   184   854   856   ar
   185   802   804    1
   186   802   803    1
   187  2152  2150    1
   188  1012  1007   ar
   189  1012  1013    1
   190   808   810    1
   191   971   970   ar
   192   804   805    1
   193  1051  1049    1
   194  1051  1062    1
   195  1060  1057   ar
   196  1878  1880    1
   197  1878  1879    1
   198  2117  2119    1
   199  2117  2115    1
   200   961   967   ar
   201  2150  2169    1
   202   872   873    1
   203   872   870    1
   204   869   868    1
   205   869   883    1
   206   952   953    1
   207   990   991    2
   208  2119  2120    1
   209  2119  2114    1
   210  2121  2123   ar
   211  2121  2120   ar
   212  2143  2144   ar
   213  1049  1050    1
   214   868   870    1
   215   857   856   ar
   216   857   858    2
   217  1062  1056   ar
   218   803   801    1
   219  1863  1877    1
   220  1863  1862    1
   221  1067  1066    1
   222   801   820    1
   223   801   787    1
   224  1865  1864    1
   225  2191  2170    2
   226  1883  1900    1
   227  1883  1882    1
   228  1124  1123    2
   229  2147  2146   ar
   230  1880  1882    1
   231  1880  1881    1
   232   903   883    2
   233  2160  2161   ar
   234  2160  2167   ar
   235  1877  1879    1
   236  1877  1899    1
   237  2162  2161    2
   238  1035  1036    2
   239  1035  1029   ar
   240   838   835   ar
   241   880   873   ar
   242   880   879   ar
   243   834   833   ar
   244   834   835   ar
   245   904   883    1
   246   873   874   ar
   247  2123  2124   ar
   248  2938  2920    2
   249  2132  2130    1
   250  2120  2127   ar
   251  1030  1029   ar
   252  1030  1031    1
   253  1900  1919    1
   254  1900  1902    1
   255  2171  2173    1
   256  2171  2172    1
   257   966   967   ar
   258   966   969   ar
   259  2384  2382    1
   260  2384  2385    1
   261  2384  2386    1
   262  2382  2383    1
   263   883   885    1
   264  2170  2172    1
   265  2170  2192    1
   266  2389  2388    1
   267  2114  2113    1
   268   870   871    1
   269   967   968    2
   270   970   969   ar
   271   833   832   ar
   272  1066  1068    1
   273  1860  1858    1
   274  1860  1862    1
   275  1860  1861    1
   276   953   951    1
   277  2116  2115    1
   278  2116  2130    1
   279  2161  2163   ar
   280  2167  2166   ar
   281  1123  1122   ar
   282  1123  1125   ar
   283  2387  2386    1
   284  2387  2401    1
   285  2115  2113    1
   286   805   810    1
   287  1858  1859    1
   288   879   877   ar
   289   810   811    1
   290  1057  1056   ar
   291  1057  1058   ar
   292  2419  2401    2
   293  2385  2390    1
   294  2144  2146   ar
   295  2144  2145    1
   296  2113  2111    1
   297   835   836   ar
   298  1122  1120   ar
   299   972   951    2
   300  1882  1884    1
   301  2102  2101    2
   302   874   875    2
   303   874   876   ar
   304  1862  1864    1
   305  1885  1884    1
   306  2173  2174    1
   307  2173  2175    1
   308  1056  1055   ar
   309   787   786    1
   310  3468  3447    2
   311  1881  1886    1
   312  2904  2920    1
   313  2904  2903    1
   314  2174  2179    1
   315  1108  1087    2
   316  2899  2901    1
   317  2899  2900    1
   318  1864  1866    1
   319  1103  1102    1
   320  2901  2903    1
   321  2901  2902    1
   322  1901  1902    1
   323  1901  1903    1
   324  2906  2905    1
   325  2386  2388    1
   326  2130  2148    2
   327  2130  2149    1
   328  2383  2381    1
   329   922   921    2
   330   877   876   ar
   331   877   878    1
   332  2400  2381    2
   333  1125  1126   ar
   334  2921  2922    1
   335  2921  2923    1
   336   940   939    1
   337  2388  2390    1
   338  2886  2885    1
   339  2920  2922    1
   340  2920  2939    1
   341  1861  1866    1
   342   951   973    1
   343   951   934    1
   344  2390  2391    1
   345  2124  2125    1
   346  2124  2126   ar
   347  1120  1121    2
   348  1120  1119   ar
   349  2402  2403    1
   350  2402  2404    1
   351  3445  3424    2
   352  2127  2126   ar
   353  2401  2403    1
   354  2401  2420    1
   355  1875  1857    2
   356  2918  2898    2
   357   832   831   ar
   358  3425  3427    1
   359  3425  3426    1
   360  1884  1886    1
   361  1117  1116    1
   362  3430  3447    1
   363  3430  3429    1
   364   811   818   ar
   365   811   812   ar
   366  3412  3411    1
   367  2163  2164   ar
   368  3490  3470    2
   369  3448  3450    1
   370  3448  3449    1
   371  2166  2164   ar
   372  1059  1058    2
   373  1058  1052   ar
   374  1082  1083   ar
   375  1082  1079   ar
   376   885   884    1
   377  2903  2905    1
   378  1083  1084   ar
   379  1859  1857    1
   380  1866  1867    1
   381  2101  2103   ar
   382  2101  2100   ar
   383  3427  3429    1
   384  3427  3428    1
   385  1842  1841    1
   386  2606  2605    1
   387  2103  2104   ar
   388   836   831   ar
   389   836   837    1
   390  2902  2907    1
   391  1068  1069    1
   392  1068  1070    1
   393   818   817   ar
   394   813   812    2
   395  1886  1897    1
   396  2111  2112    1
   397  2884  2898    1
   398  2884  2883    1
   399   789   788    1
   400  3432  3431    1
   401  1126  1119   ar
   402  1055  1053   ar
   403  2381  2399    1
   404  2381  2364    1
   405  3447  3449    1
   406  3447  3469    1
   407  1104  1101   ar
   408  1104  1105   ar
   409  2639  2618    2
   410  2179  2177    1
   411  2179  2190    1
   412  1119  1118    1
   413  2098  2097    1
   414  3115  3114    1
   415   921   915   ar
   416   921   920   ar
   417  2905  2907    1
   418  2923  2924    1
   419  2923  2925    1
   420  2900  2898    1
   421   786   788    1
   422   786   784    1
   423  1087  1107    1
   424  1087  1071    1
   425  1087  1089    1
   426  2164  2165    1
   427   812   814   ar
   428  1102  1101   ar
   429  1102  1097   ar
   430  1069  1074    1
   431  2175  2176    1
   432  2175  2177    1
   433  3410  3424    1
   434  3410  3409    1
   435  2176  2193    1
   436  2404  2405    1
   437  2404  2406    1
   438   939   941   ar
   439   939   938   ar
   440  1903  1904    1
   441  1903  1905    1
   442  1116  1118    1
   443  1116  1114    1
   444   915   916   ar
   445  2178  2177    1
   446  1940  1920    2
   447  3450  3452    1
   448  3450  3451    1
   449  2619  2621    1
   450  2619  2620    1
   451  1857  1840    1
   452  1857  1876    1
   453  2898  2919    1
   454  3453  3470    1
   455  3453  3452    1
   456   927   905    2
   457  1840  1839    1
   458  3429  3431    1
   459  2604  2618    1
   460  2604  2603    1
   461  1070  1071    1
   462  1070  1072    1
   463   884   886    1
   464   936   935    1
   465  2958  2940    2
   466   934   933    1
   467   788   790    1
   468  3424  3426    1
   469  3424  3446    1
   470  2370  2369    1
   471  2907  2917    1
   472  3128  3130    1
   473  3128  3129    1
   474  2189  2190   ar
   475  2189  2188   ar
   476  2885  2883    1
   477  2885  2887    1
   478  1101  1100   ar
   479  3428  3433    1
   480  2926  2925    1
   481  2926  2940    1
   482  1161  1160    1
   483  1906  1920    1
   484  1906  1905    1
   485  2621  2622    1
   486  2621  2623    1
   487  3470  3491    1
   488  3470  3472    1
   489  2391  2398   ar
   490  2391  2392   ar
   491   817   815   ar
   492  3130  3131    1
   493  3130  3132    1
   494  2881  2883    1
   495  2881  2879    1
   496  2881  2882    1
   497  1941  1920    1
   498   941   942   ar
   499   938   944   ar
   500  2211  2193    2
   501  2405  2410    1
   502  2190  2184   ar
   503  2105  2104    2
   504  2097  2099    1
   505  2097  2095    1
   506  1052  1053   ar
   507  2924  2929    1
   508  1118  1113    1
   509  2104  2106   ar
   510  3411  3409    1
   511  3411  3413    1
   512  3431  3433    1
   513  1105  1106   ar
   514  1841  1839    1
   515  1841  1843    1
   516  2100  2099    1
   517  2100  2107   ar
   518  1084  1074    1
   519  1084  1078   ar
   520  2112  2110    1
   521  3135  3134    1
   522  3407  3409    1
   523  3407  3405    1
   524  3407  3408    1
   525  1053  1054    1
   526  1846  1845    1
   527   920   923   ar
   528   920   919   ar
   529  1920  1922    1
   530   799   781    2
   531  2099  2094    1
   532   784   782    1
   533   784   785    1
   534   935   933    1
   535   935   937    1
   536  1079  1080   ar
   537  1079  1078   ar
   538  3525  3526   ar
   539  3525  3530   ar
   540  1081  1080    1
   541   814   815   ar
   542  2618  2620    1
   543  2618  2640    1
   544  2601  2603    1
   545  2601  2599    1
   546  2601  2602    1
   547  1097  1098   ar
   548  3148  3127    2
   549  2624  2623    1
   550  2624  2641    1
   551   923   924   ar
   552  2393  2392    2
   553  2605  2603    1
   554  2605  2607    1
   555  1897  1896   ar
   556  1897  1891   ar
   557  1159  1160   ar
   558  1159  1165   ar
   559  3113  3112    1
   560  3113  3127    1
   561  2662  2641    2
   562   782   783    1
   563  1184  1183    1
   564  1904  1909    1
   565  1905  1907    1
   566  3452  3454    1
   567  2925  2927    1
   568  1867  1868   ar
   569  1867  1874   ar
   570  1089  1088    1
   571  2398  2397   ar
   572  2407  2406    1
   573  2407  2421    1
   574  3131  3136    1
   575  2193  2212    1
   576  2193  2195    1
   577  1869  1868    2
   578  1896  1895   ar
   579  1128  1109    2
   580  3451  3456    1
   581  2940  2959    1
   582  2940  2942    1
   583  2626  2625    1
   584  1074  1072    1
   585  2364  2363    1
   586   916   917    1
   587   916   918   ar
   588  3133  3132    1
   589  3133  3150    1
   590   815   816    1
   591  3531  3530    1
   592  1160  1162   ar
   593  2622  2627    1
   594  2085  2084    1
   595  2879  2880    1
   596  3433  3444    1
   597  2882  2887    1
   598  3110  3112    1
   599  3110  3111    1
   600  3110  3108    1
   601  3114  3112    1
   602  3114  3116    1
   603  2188  2185   ar
   604  2887  2888    1
   605  1166  1165    2
   606  1839  1837    1
   607   933   931    1
   608  2346  2345    1
   609   888   886    1
   610   888   890    1
   611   888   889    1
   612  3171  3150    2
   613  2083  2084   ar
   614  2083  2081   ar
   615  2406  2408    1
   616  1114  1115    1
   617  1114  1112    1
   618  2439  2421    2
   619  3526  3527   ar
   620  2392  2394   ar
   621  3405  3406    1
   622  3408  3413    1
   623  2599  2600    1
   624  2082  2081    2
   625  1080  1075   ar
   626  2623  2625    1
   627  2602  2607    1
   628  3413  3414    1
   629   886   887    1
   630   783   781    1
   631  2369  2368   ar
   632  2369  2371   ar
   633  1165  1164   ar
   634  1072  1073    1
   635  2928  2927    1
   636  3471  3472    1
   637  3471  3473    1
   638  1147  1129    2
   639  3132  3134    1
   640   905   926    1
   641   905   889    1
   642   905   907    1
   643  3129  3127    1
   644  1115  1129    1
   645  1847  1845   ar
   646  1847  1848   ar
   647  1868  1870   ar
   648  1078  1077   ar
   649  3530  3529   ar
   650   942   943   ar
   651   942   948   ar
   652  2607  2608    1
   653   944   945    2
   654   944   943   ar
   655  3455  3454    1
   656  3127  3149    1
   657  2184  2185   ar
   658  2184  2183   ar
   659  1874  1873   ar
   660    32    31    1
   661   919   918   ar
   662   919   925   ar
   663  1183  1182   ar
   664  1183  1185   ar
   665  3111  3116    1
   666  1100  1106   ar
   667  1100  1099   ar
   668  2584  2583    1
   669  1845  1844   ar
   670  2917  2916   ar
   671  2917  2911   ar
   672  3134  3136    1
   673  2641  2643    1
   674  2641  2663    1
   675   890   891    1
   676   890   892    1
   677  3136  3147    1
   678   790   785    1
   679   790   791    1
   680  3116  3117    1
   681  1843  1838    1
   682  1843  1854    1
   683  2409  2408    1
   684  3108  3109    1
   685   924   925   ar
   686  2410  2408    1
   687  2410  2411    1
   688   781   800    1
   689   781   767    1
   690  1837  1838    1
   691  1837  1835    1
   692  2421  2440    1
   693  2421  2423    1
   694  2107  2106   ar
   695  2065  2064    1
   696  2084  2086   ar
   697  2642  2643    1
   698  2642  2644    1
   699  2625  2627    1
   700  1113  1112    1
   701  1106  1096    1
   702  2929  2927    1
   703  2929  2930    1
   704  2379  2358    2
   705  2363  2365    1
   706  2363  2361    1
   707  2627  2638    1
   708  2368  2374   ar
   709  2081  2080   ar
   710   887   892    1
   711  2095  2096    1
   712  2095  2093    1
   713  1111  1109    1
   714  1111  1110    1
   715  2890  2889    2
   716  2094  2093    1
   717  3454  3456    1
   718  1162  1163   ar
   719  2185  2186   ar
   720  1182  1188   ar
   721  3150  3172    1
   722  3150  3152    1
   723   937   948    1
   724   937   932    1
   725  1098  1099   ar
   726  2371  2372   ar
   727  2096  2110    1
   728   943   946   ar
   729  1185  1186   ar
   730  1891  1890   ar
   731  1891  1892   ar
   732  1908  1907    1
   733   901   900   ar
   734   901   902   ar
   735  2110  2128    2
   736  2110  2129    1
   737   793   792    2
   738  1129  1148    1
   739  1129  1131    1
   740  2183  2181   ar
   741  1907  1909    1
   742  3456  3467    1
   743  2397  2395   ar
   744  1895  1892   ar
   745  1909  1910    1
   746  2344  2358    1
   747  2344  2343    1
   748  1109  1127    1
   749  1109  1093    1
   750  1088  1090    1
   751   948   947   ar
   752  1917  1910   ar
   753  1917  1916   ar
   754  1922  1921    1
   755  2045  2044    2
   756  2916  2915   ar
   757  3416  3415    2
   758   925   914    1
   759  2195  2194    1
   760  1112  1110    1
   761  2864  2863    1
   762  2942  2941    1
   763   907   906    1
   764  1164  1163   ar
   765  1164  1167   ar
   766  1207  1206    1
   767  2610  2609    2
   768  3527  3528   ar
   769  1890  1888   ar
   770  3119  3118    2
   771  2880  2878    1
   772   931   932    1
   773   931   929    1
   774  3151  3152    1
   775  3151  3153    1
   776   791   792   ar
   777   791   798   ar
   778  2418  2411   ar
   779  2418  2417   ar
   780  2394  2395   ar
   781  2941  2943    1
   782  3444  3443   ar
   783  3444  3438   ar
   784  2937  2930   ar
   785  2937  2936   ar
   786  2345  2347    1
   787  2345  2343    1
   788  3093  3092    1
   789  2888  2889   ar
   790  2888  2895   ar
   791  3389  3388    1
   792  2194  2196    1
   793  1163  1169   ar
   794  2359  2361    1
   795  2359  2360    1
   796  2093  2091    1
   797  2910  2911   ar
   798  2910  2909   ar
   799  3406  3404    1
   800  1848  1854   ar
   801  1848  1849   ar
   802   792   794   ar
   803  1823  1822    1
   804  3422  3404    2
   805   892   902    1
   806  2341  2342    1
   807  2341  2343    1
   808  2341  2339    1
   809  2365  2366    1
   810  2365  2367    1
   811  2911  2912   ar
   812   900   897   ar
   813  1092  1090    1
   814  1092  1093    1
   815  1092  1094    1
   816  2043  2044   ar
   817  2043  2041   ar
   818  2896  2878    2
   819  1075  1076   ar
   820   913   912    1
   821  2600  2598    1
   822  1854  1853   ar
   823  2347  2342    1
   824  2347  2348    1
   825  2644  2645    1
   826  2644  2646    1
   827  3393  3392    1
   828  2411  2412   ar
   829  2889  2891   ar
   830  1188  1189    2
   831  1188  1187   ar
   832  3414  3415   ar
   833  3414  3421   ar
   834  3529  3528   ar
   835  3529  3532   ar
   836  3473  3475    1
   837  3473  3474    1
   838  1077  1076   ar
   839  1870  1871   ar
   840    48    50    1
   841    48    49    1
   842  1921  1923    1
   843  1844  1850   ar
   844  2930  2931   ar
   845   912   914    1
   846   912   910    1
   847  1873  1871   ar
   848  1835  1836    1
   849  1186  1187   ar
   850  1186  1192   ar
   851  1892  1893   ar
   852  2358  2360    1
   853  2358  2380    1
   854  1910  1911   ar
   855  1916  1914   ar
   856  2350  2349    2
   857  2361  2362    1
   858  2063  2064   ar
   859  2063  2061   ar
   860  2608  2609   ar
   861  2608  2615   ar
   862  2395  2396    1
   863  2064  2066   ar
   864   902   896   ar
   865  2044  2046   ar
   866  1203  1202    1
   867  2583  2585    1
   868  2583  2581    1
   869   798   797   ar
   870    31    33    1
   871    31    29    1
   872   767   766    1
   873  1091  1096    1
   874  1091  1090    1
   875  3443  3442   ar
   876  1208  1206   ar
   877  1208  1209   ar
   878  2042  2041    2
   879    50    51    1
   880    50    52    1
   881  1206  1205   ar
   882  3147  3146   ar
   883  3147  3141   ar
   884  2186  2187    2
   885  2186  2180   ar
   886    30    29    1
   887    30    47    1
   888  1096  1094    1
   889  2374  2375    2
   890  2374  2373   ar
   891  3415  3417   ar
   892   946   947   ar
   893  2588  2587   ar
   894  2588  2589   ar
   895  3117  3118   ar
   896  3117  3124   ar
   897  3109  3107    1
   898  2980  2960    2
   899  3528  3534   ar
   900  2423  2422    1
   901  2181  2180   ar
   902  2181  2182    1
   903  2616  2598    2
   904  1167  1168   ar
   905    27    28    1
   906    27    29    1
   907    27    25    1
   908  2372  2373   ar
   909  2372  2378   ar
   910  2086  2087   ar
   911  2645  2650    1
   912  2587  2586   ar
   913  3466  3467   ar
   914  3466  3465   ar
   915  2609  2611   ar
   916  1187  1190   ar
   917  2638  2637   ar
   918  2638  2632   ar
   919  3467  3461   ar
   920   794   795   ar
   921  2582  2598    1
   922  2582  2581    1
   923  2080  2087   ar
   924  2080  2079    1
   925  1180  1179    1
   926    65    47    2
   927  1094  1095    1
   928  2417  2415   ar
   929  2936  2934   ar
   930  2422  2424    1
   931  3118  3120   ar
   932  2041  2040   ar
   933   929   930    1
   934  2878  2862    1
   935  2878  2897    1
   936    33    28    1
   937    33    44    1
   938  1204  1199    1
   939  1204  1202    1
   940  1204  1215    1
   941  3153  3154    1
   942  3153  3155    1
   943  1181  1192    1
   944  1181  1179    1
   945  1181  1176    1
   946   914   909    1
   947  3404  3387    1
   948  3404  3423    1
   949  2327  2328   ar
   950  2327  2326   ar
   951  1192  1191   ar
   952  3437  3438   ar
   953  3437  3435   ar
   954  2197  2196    1
   955  2197  2202    1
   956  3513  3492    2
   957    55    54    1
   958  2862  2861    1
   959    51    56    1
   960  1169  1168   ar
   961  1169  1158    1
   962  3438  3439   ar
   963  2863  2861    1
   964  2863  2865    1
   965  2895  2894   ar
   966  3475  3476    1
   967  3475  3477    1
   968  2915  2912   ar
   969  3125  3107    2
   970  1871  1872    2
   971  2339  2340    1
   972  1131  1130    1
   973  2598  2617    1
   974    53    52    1
   975    53    67    1
   976  3096  3097   ar
   977  3096  3095   ar
   978  3387  3386    1
   979  2585  2580    1
   980  2585  2595    1
   981   797   795   ar
   982  3146  3145   ar
   983  3474  3479    1
   984  3097  3098   ar
   985   930   928    1
   986    13    12    1
   987  3388  3386    1
   988  3388  3390    1
   989  1888  1889    1
   990  1888  1887   ar
   991  1205  1211   ar
   992  2196  2198    1
   993  3092  3094    1
   994  3092  3090    1
   995  1199  1198    1
   996    85    67    2
   997  2909  2908   ar
   998  1209  1215   ar
   999  1209  1210   ar
  1000  2373  2376   ar
  1001  3421  3420   ar
  1002   906   908    1
  1003   795   796    1
  1004  1226  1225    1
  1005  3154  3159    1
  1006  2647  2646    1
  1007  2647  2664    1
  1008  2209  2210   ar
  1009  2209  2207   ar
  1010  3532  3533   ar
  1011  2868  2867   ar
  1012  2868  2869   ar
  1013  2867  2866   ar
  1014  1849  1850   ar
  1015  1849  1852   ar
  1016  1822  1821   ar
  1017  1822  1824   ar
  1018  2912  2913   ar
  1019  2328  2329   ar
  1020  2210  2203   ar
  1021  3140  3141   ar
  1022  3140  3138   ar
  1023  2637  2636   ar
  1024  2581  2579    1
  1025   910   908    1
  1026   910   911    1
  1027  2943  2944    1
  1028  2943  2945    1
  1029  3392  3394   ar
  1030  3392  3391   ar
  1031  2324  2323    1
  1032    36    35    1
  1033  1202  1200    1
  1034  2349  2348   ar
  1035  2349  2351   ar
  1036  1836  1834    1
  1037  2615  2614   ar
  1038  1215  1214   ar
  1039  2367  2378    1
  1040  2367  2362    1
  1041   769   768    1
  1042  3394  3395   ar
  1043  2348  2355   ar
  1044    25    26    1
  1045  1850  1851    2
  1046    47    49    1
  1047    47    66    1
  1048   897   896   ar
  1049   897   898   ar
  1050  3091  3107    1
  1051  3091  3090    1
  1052  3141  3142   ar
  1053  1179  1177    1
  1054  2412  2413    2
  1055  2412  2414   ar
  1056  2646  2648    1
  1057  1853  1852   ar
  1058  2091  2092    1
  1059  2631  2632   ar
  1060  2631  2629   ar
  1061  2378  2377   ar
  1062  1176  1175    1
  1063  2061  2062    2
  1064  2061  2060   ar
  1065  2046  2047   ar
  1066  2891  2892   ar
  1067  1190  1191   ar
  1068    37    35   ar
  1069    37    38   ar
  1070   909   908    1
  1071  2079  2077    1
  1072  2079  2074    1
  1073  3107  3126    1
  1074  1158  1156    1
  1075  1158  1153    1
  1076    52    54    1
  1077  1222  1227    1
  1078  1222  1221    1
  1079  2066  2067   ar
  1080  2326  2331   ar
  1081  2078  2077    1
  1082  3124  3123   ar
  1083  2931  2932    2
  1084  2931  2933   ar
  1085  2579  2580    1
  1086  2579  2577    1
  1087   896   895   ar
  1088  2685  2664    2
  1089  1145  1146   ar
  1090  1145  1143   ar
  1091   766   768    1
  1092   766   764    1
  1093  2632  2633   ar
  1094  2077  2075    1
  1095  3514  3492    1
  1096  1893  1887   ar
  1097  1893  1894    2
  1098  1227  1225    1
  1099  1227  1238    1
  1100  1964  1942    2
  1101  1911  1912    2
  1102  1911  1913   ar
  1103  1914  1913   ar
  1104  1914  1915    1
  1105  3442  3439   ar
  1106  2586  2591   ar
  1107  2589  2595   ar
  1108  2589  2590   ar
  1109  2944  2949    1
  1110  1923  1924    1
  1111  1923  1925    1
  1112     9     8    1
  1113  1821  1827   ar
  1114  2861  2859    1
  1115  3476  3492    1
  1116    56    54    1
  1117    56    57    1
  1118  3492  3494    1
  1119  3465  3462   ar
  1120   768   770    1
  1121  3488  3487   ar
  1122  3488  3489   ar
  1123  3477  3479    1
  1124  3477  3478    1
  1125  3417  3418   ar
  1126  2092  2090    1
  1127  2649  2648    1
  1128  2960  2981    1
  1129  2960  2946    1
  1130  2960  2962    1
  1131  2040  2047   ar
  1132  2040  2039    1
  1133  3534  3533   ar
  1134  3534  3524    1
  1135  1210  1211   ar
  1136  1210  1213   ar
  1137  3386  3384    1
  1138  2865  2860    1
  1139  2865  2875    1
  1140  1211  1212    2
  1141  1824  1825   ar
  1142  3094  3089    1
  1143  3094  3104    1
  1144  2650  2648    1
  1145  2650  2661    1
  1146  2208  2207    1
  1147  1221  1219    1
  1148  1221  1223    1
  1149  2207  2206   ar
  1150  2611  2612   ar
  1151  3461  3460   ar
  1152  3461  3462   ar
  1153    67    86    1
  1154    67    69    1
  1155  2595  2594   ar
  1156  1198  1200    1
  1157  1198  1196    1
  1158  3156  3155    1
  1159  3156  3173    1
  1160  2415  2414   ar
  1161  2415  2416    1
  1162  2203  2202    1
  1163  2203  2204   ar
  1164  3120  3121   ar
  1165  3095  3100   ar
  1166  3439  3440   ar
  1167    35    34   ar
  1168  1130  1132    1
  1169  3090  3088    1
  1170  1144  1143    1
  1171    44    38   ar
  1172    44    43   ar
  1173  3435  3436    1
  1174  3435  3434   ar
  1175  2202  2200    1
  1176  2934  2933   ar
  1177  2934  2935    1
  1178  3390  3385    1
  1179  3390  3401    1
  1180  2664  2686    1
  1181  2664  2666    1
  1182  3155  3157    1
  1183  1146  1139   ar
  1184  1230  1229    1
  1185  1938  1937   ar
  1186  1938  1939   ar
  1187  1214  1213   ar
  1188  2424  2425    1
  1189  2424  2426    1
  1190  1819  1818    1
  1191  3479  3489    1
  1192  1231  1229   ar
  1193  1231  1232   ar
  1194  1963  1942    1
  1195  1924  1929    1
  1196  1225  1223    1
  1197  1926  1925    1
  1198  1926  1942    1
  1199  2894  2892   ar
  1200  2866  2871   ar
  1201  1855  1834    2
  1202  1156  1157    1
  1203  1156  1154    1
  1204  3523  3522    1
  1205  1925  1927    1
  1206  3145  3142   ar
  1207    12    14   ar
  1208    12    11   ar
  1209  3098  3104   ar
  1210  3098  3099   ar
  1211  2340  2338    1
  1212  2908  2913   ar
  1213  1937  1934   ar
  1214   911   928    1
  1215  2323  2325    1
  1216  2323  2321    1
  1217  2376  2377   ar
  1218    38    39   ar
  1219  3487  3484   ar
  1220  3138  3139    1
  1221  3138  3137   ar
  1222  2957  2956   ar
  1223  2957  2950   ar
  1224  3391  3397   ar
  1225  2859  2860    1
  1226  2859  2857    1
  1227  2945  2946    1
  1228  2945  2947    1
  1229    68    69    1
  1230    68    70    1
  1231  2869  2875   ar
  1232  2869  2870   ar
  1233  2198  2199    1
  1234  2198  2200    1
  1235  2913  2914    1
  1236  1942  1944    1
  1237  1153  1152    1
  1238  3420  3418   ar
  1239  3384  3385    1
  1240  3384  3382    1
  1241  3159  3157    1
  1242  3159  3170    1
  1243    14    15   ar
  1244  2425  2430    1
  1245  1175  1177    1
  1246  1175  1173    1
  1247   899   898    1
  1248  1143  1142   ar
  1249  3460  3458   ar
  1250  2351  2352   ar
  1251  3158  3157    1
  1252  2636  2633   ar
  1253  1238  1232   ar
  1254  1238  1237   ar
  1255  3142  3143   ar
  1256  3489  3483   ar
  1257   928   950    2
  1258   928   949    1
  1259  1200  1201    1
  1260  3088  3089    1
  1261  3088  3086    1
  1262   898   893   ar
  1263  2892  2893    2
  1264  1219  1220    1
  1265  2630  2629    1
  1266  2329  2335   ar
  1267  2329  2330   ar
  1268  2629  2628   ar
  1269  3395  3401   ar
  1270  3395  3396   ar
  1271  3193  3173    2
  1272  2956  2954   ar
  1273  2355  2354   ar
  1274  1229  1228   ar
  1275  2614  2612   ar
  1276  2660  2661   ar
  1277  2660  2659   ar
  1278  3462  3463   ar
  1279  2463  2441    2
  1280  1834  1817    1
  1281  1834  1856    1
  1282  2039  2034    1
  1283  2039  2037    1
  1284  2067  2060   ar
  1285    26    24    1
  1286  2060  2059    1
  1287  3524  3522    1
  1288  3524  3519    1
  1289  2206  2204   ar
  1290  3104  3103   ar
  1291  1232  1233   ar
  1292  2204  2205    2
  1293  2875  2874   ar
  1294  2633  2634   ar
  1295   764   762    1
  1296   764   765    1
  1297   895   894   ar
  1298  2074  2073    1
  1299  2962  2961    1
  1300  1177  1178    1
  1301  3123  3121   ar
  1302  2025  2024    2
  1303  3418  3419    2
  1304  2661  2655   ar
  1305  2577  2578    1
  1306  2331  2330   ar
  1307  2331  2332    1
  1308  2325  2335    1
  1309  2325  2320    1
  1310  1245  1244    1
  1311  1245  1250    1
  1312  2591  2590   ar
  1313  2591  2592    1
  1314  3717  3716    1
  1315  1223  1224    1
  1316  2590  2593   ar
  1317     8    10    1
  1318     8     6    1
  1319  3401  3400   ar
  1320  1818  1816    1
  1321  1818  1820    1
  1322  2034  2033    1
  1323  1224  1241    1
  1324  1827  1828    2
  1325  1827  1826   ar
  1326  2612  2613    2
  1327  2075  2076    1
  1328  2075  2073    1
  1329  1196  1197    1
  1330  1201  1218    1
  1331   773   772    2
  1332  3121  3122    1
  1333  2199  2213    1
  1334  3173  3194    1
  1335  3173  3175    1
  1336    57    64   ar
  1337    57    58   ar
  1338  2949  2950    1
  1339  2949  2947    1
  1340  3715  3714    1
  1341  1825  1826   ar
  1342  1825  1831   ar
  1343  2568  2567    2
  1344  2232  2213    2
  1345  2200  2201    1
  1346  3169  3170   ar
  1347  3169  3168   ar
  1348   762   763    1
  1349  3522  3520    1
  1350  1242  1244    1
  1351  1242  1243    1
  1352  3494  3493    1
  1353  2426  2427    1
  1354  2426  2428    1
  1355  3434  3440   ar
  1356  2322  2338    1
  1357  2322  2321    1
  1358    43    42   ar
  1359  2023  2024   ar
  1360  2023  2021   ar
  1361  1817  1816    1
  1362  1939  1929    1
  1363  1939  1933   ar
  1364  1244  1246    1
  1365   770   771    1
  1366   770   765    1
  1367  3100  3099   ar
  1368  3100  3101    1
  1369  2438  2437   ar
  1370  2438  2431   ar
  1371  1237  1236   ar
  1372  2090  2109    2
  1373  2090  2076    1
  1374  2090  2108    1
  1375    11    17   ar
  1376  3440  3441    2
  1377  2594  2593   ar
  1378  2427  2441    1
  1379  2335  2334   ar
  1380  2950  2951   ar
  1381  2004  2003    2
  1382    34    40   ar
  1383  3170  3164   ar
  1384  1132  1133    1
  1385  1132  1134    1
  1386    70    71    1
  1387    70    72    1
  1388  1929  1927    1
  1389  1136  1134    1
  1390  1136  1138    1
  1391  1136  1137    1
  1392  1139  1138    1
  1393  1139  1140   ar
  1394  2330  2333   ar
  1395  2871  2870   ar
  1396  2871  2872    1
  1397  3099  3102   ar
  1398  1228  1234   ar
  1399    64    63   ar
  1400  2666  2665    1
  1401    10    21    1
  1402    10     5    1
  1403  1133  1138    1
  1404  2356  2338    2
  1405  2437  2435   ar
  1406  2024  2026   ar
  1407  2462  2441    1
  1408  3137  3143   ar
  1409  2441  2443    1
  1410  1178  1195    1
  1411   772   771   ar
  1412   772   774   ar
  1413  2870  2873   ar
  1414  2338  2357    1
  1415  1220  1218    1
  1416  3484  3483   ar
  1417  3484  3485   ar
  1418  3382  3383    1
  1419  2321  2319    1
  1420    59    58    2
  1421  2947  2948    1
  1422  1134  1135    1
  1423  1250  1260    1
  1424  1250  1248    1
  1425    45    24    2
  1426  3397  3396   ar
  1427  3397  3398    2
  1428  1154  1152    1
  1429  1154  1155    1
  1430  1233  1236   ar
  1431  1233  1234   ar
  1432  1173  1174    1
  1433  2022  2021    2
  1434  2857  2858    1
  1435    71    76    1
  1436  2659  2656   ar
  1437     7    24    1
  1438     7     6    1
  1439  3483  3482   ar
  1440  1927  1928    1
  1441    39    42   ar
  1442    39    40   ar
  1443  2665  2667    1
  1444  3396  3399   ar
  1445  3143  3144    2
  1446  1934  1933   ar
  1447  1934  1935   ar
  1448  1826  1829   ar
  1449   771   778   ar
  1450   893   894   ar
  1451    15    21   ar
  1452    15    16   ar
  1453  2352  2354   ar
  1454  2352  2353    2
  1455  1152  1150    1
  1456  2628  2634   ar
  1457  2073  2071    1
  1458  1249  1248    1
  1459  1142  1140   ar
  1460  3716  3714    1
  1461  3716  3718    1
  1462  3458  3459    1
  1463  3458  3457   ar
  1464  1197  1195    1
  1465   763   761    1
  1466  3086  3087    1
  1467  3519  3518    1
  1468  2430  2431    1
  1469  2430  2428    1
  1470    24    46    1
  1471  1816  1814    1
  1472  2564  2563    1
  1473  2038  2037    1
  1474  2954  2955    1
  1475  2954  2953   ar
  1476  2961  2963    1
  1477  2213  2231    1
  1478  2213  2215    1
  1479  1820  1831    1
  1480  1820  1815    1
  1481  2021  2020   ar
  1482    58    60   ar
  1483  2634  2635    2
  1484  2320  2319    1
  1485  1944  1943    1
  1486   774   775   ar
  1487  2059  2057    1
  1488  2059  2054    1
  1489  2037  2035    1
  1490  2228  2227    2
  1491  2578  2576    1
  1492  3463  3457   ar
  1493  3463  3464    2
  1494  1234  1235    2
  1495     6     4    1
  1496  1831  1830   ar
  1497  3103  3102   ar
  1498  2874  2873   ar
  1499  1261  1241    2
  1500  2431  2432   ar
  1501  2319  2317    1
  1502  2655  2656   ar
  1503  2655  2654   ar
  1504  3174  3175    1
  1505  3174  3176    1
  1506  1936  1935    1
  1507  3168  3165   ar
  1508  2308  2307    2
  1509   779   761    2
  1510  1800  1799    1
  1511  3714  3712    1
  1512    21    20   ar
  1513  1218  1239    2
  1514  1218  1240    1
  1515  2033  2035    1
  1516  2033  2031    1
  1517  1243  1241    1
  1518  2567  2569   ar
  1519  2567  2566   ar
  1520  3521  3520    1
  1521  3521  3537    1
  1522  3400  3399   ar
  1523  1140  1141    2
  1524  1174  1172    1
  1525    40    41    2
  1526  1933  1932   ar
  1527  1241  1262    1
  1528  3493  3495    1
  1529  2545  2544    1
  1530   778   777   ar
  1531     5     4    1
  1532  3077  3076    2
  1533     4     2    1
  1534  3538  3540    1
  1535  3538  3539    1
  1536  2229  2227   ar
  1537  2229  2230   ar
  1538  1260  1259   ar
  1539  1260  1254   ar
  1540  2428  2429    1
  1541  2057  2058    1
  1542  2057  2055    1
  1543  1248  1246    1
  1544  1151  1150    1
  1545  1151  1149    1
  1546  2003  1997   ar
  1547  2003  2002   ar
  1548  3520  3518    1
  1549  2569  2570   ar
  1550  3721  3720    2
  1551   775   777   ar
  1552   775   776    1
  1553  1981  1980    1
  1554  1935  1930   ar
  1555  3373  3372    2
  1556  2026  2027   ar
  1557  2334  2333   ar
  1558  2563  2565    1
  1559  2563  2561    1
  1560    17    16   ar
  1561    17    18    2
  1562  1246  1247    1
  1563  3485  3486    1
  1564  3485  3480   ar
  1565  2951  2953   ar
  1566  2951  2952    2
  1567  3164  3165   ar
  1568  3164  3163   ar
  1569  2656  2657   ar
  1570  1155  1172    1
  1571  2072  2071    1
  1572  2072  2070    1
  1573  1997  1998   ar
  1574  3558  3537    2
  1575  2858  2856    1
  1576  2435  2436    2
  1577  2435  2434   ar
  1578  1195  1217    2
  1579  1195  1216    1
  1580  1960  1961   ar
  1581  1960  1957   ar
  1582    63    61   ar
  1583  1171  1149    2
  1584  3482  3481   ar
  1585  2227  2226   ar
  1586  3383  3381    1
  1587    72    73    1
  1588    72    74    1
  1589  2036  2035    1
  1590  2036  2050    1
  1591    73    87    1
  1592  2654  2652   ar
  1593   761   780    1
  1594   761   747    1
  1595  2848  2847    2
  1596  1253  1254   ar
  1597  1253  1252   ar
  1598    16    19   ar
  1599  1259  1258   ar
  1600  2309  2307   ar
  1601  2309  2310   ar
  1602  3087  3085    1
  1603  3540  3541    1
  1604  3540  3542    1
  1605  3535  3515    2
  1606  1247  1263    1
  1607  1254  1255   ar
  1608  1943  1945    1
  1609  1135  1149    1
  1610  1798  1799   ar
  1611  1798  1804   ar
  1612  1814  1815    1
  1613  1814  1812    1
  1614  2020  2027   ar
  1615  2020  2019    1
  1616  1829  1830   ar
  1617  3518  3516    1
  1618  2543  2544   ar
  1619  2543  2549   ar
  1620  2054  2053    1
  1621    76    74    1
  1622    76    77    1
  1623  2443  2442    1
  1624  2667  2668    1
  1625  2667  2669    1
  1626  2031  2032    1
  1627  1961  1962   ar
  1628  2307  2306   ar
  1629  2285  2284    1
  1630  2978  2977   ar
  1631  2978  2979   ar
  1632  2089  2070    2
  1633  3718  3713    1
  1634  3718  3719    1
  1635  3165  3166   ar
  1636  1986  1965    2
  1637    60    61   ar
  1638  3712  3713    1
  1639  3712  3710    1
  1640  1799  1801   ar
  1641  2964  2963    1
  1642  2964  2969    1
  1643  2032  2030    1
  1644  3578  3560    2
  1645  1959  1958    2
  1646  3369  3368    1
  1647  2963  2965    1
  1648  2290  2289    2
  1649  2565  2566    1
  1650  2565  2560    1
  1651  2215  2214    1
  1652  2283  2289   ar
  1653  2283  2284   ar
  1654  3163  3161   ar
  1655  2844  2843    1
  1656  2432  2434   ar
  1657  2432  2433    2
  1658  1149  1170    1
  1659  2977  2974   ar
  1660  3517  3515    1
  1661  3517  3516    1
  1662  3073  3072    1
  1663  2668  2673    1
  1664  3537  3539    1
  1665  3537  3559    1
  1666    84    77   ar
  1667    84    83   ar
  1668  2230  2223   ar
  1669  2018  2017    1
  1670  2544  2546   ar
  1671  2055  2053    1
  1672  2055  2056    1
  1673  2017  2019    1
  1674  2017  2015    1
  1675  2566  2573   ar
  1676  1172  1194    2
  1677  1172  1193    1
  1678  3078  3076   ar
  1679  3078  3079   ar
  1680  3076  3075   ar
  1681    75    74    1
  1682  3543  3542    1
  1683  3543  3560    1
  1684  1252  1251   ar
  1685  2442  2444    1
  1686   108    87    2
  1687  3176  3177    1
  1688  3176  3178    1
  1689  3541  3546    1
  1690  2576  2596    2
  1691  2576  2562    1
  1692  2576  2597    1
  1693  3720  3719   ar
  1694  3720  3722   ar
  1695  2311  2310    1
  1696  2248  2247    1
  1697    61    62    1
  1698  3495  3497    1
  1699  3495  3496    1
  1700  1258  1255   ar
  1701  2550  2549    2
  1702  1805  1804    2
  1703    20    19   ar
  1704  2317  2318    1
  1705  1932  1931   ar
  1706  2002  2005   ar
  1707  2002  2001   ar
  1708  1255  1256   ar
  1709   109    87    1
  1710  3372  3374   ar
  1711  3372  3371   ar
  1712  2052  2050    1
  1713  2052  2051    1
  1714  3481  3480   ar
  1715  2562  2561    1
  1716  2570  2571    2
  1717  2570  2572   ar
  1718  3177  3182    1
  1719  2709  2687    2
  1720    87    89    1
  1721  3698  3697    1
  1722     2     3    1
  1723  2019  2014    1
  1724  2070  2056    1
  1725  2070  2088    1
  1726  3374  3375   ar
  1727  2847  2849   ar
  1728  2847  2846   ar
  1729    77    78   ar
  1730  3368  3370    1
  1731  3368  3366    1
  1732  1980  1979   ar
  1733  1980  1975   ar
  1734  1998  1999    1
  1735  1998  2000   ar
  1736  2310  2312   ar
  1737  1957  1958   ar
  1738  1957  1956   ar
  1739  2005  2006   ar
  1740  3497  3498    1
  1741  3497  3499    1
  1742  2849  2850   ar
  1743  1804  1803   ar
  1744  3545  3544    1
  1745  2289  2288   ar
  1746  2284  2286   ar
  1747  2068  2050    2
  1748  2561  2559    1
  1749  1930  1931   ar
  1750  1982  1979   ar
  1751  1982  1983   ar
  1752  3402  3381    2
  1753  3719  3726   ar
  1754  3515  3498    1
  1755  3515  3536    1
  1756  2226  2224   ar
  1757  2549  2548   ar
  1758  2843  2845    1
  1759  2843  2841    1
  1760  3072  3074    1
  1761  3072  3070    1
  1762    83    81   ar
  1763  3542  3544    1
  1764  2050  2069    1
  1765  2657  2658    2
  1766  2657  2651   ar
  1767  1958  1952   ar
  1768  2652  2651   ar
  1769  2652  2653    1
  1770  2683  2682   ar
  1771  2683  2684   ar
  1772  2053  2051    1
  1773  2876  2856    2
  1774   747   746    1
  1775  3560  3579    1
  1776  3560  3562    1
  1777  1251  1256   ar
  1778  1738  1737    2
  1779  3381  3367    1
  1780  3381  3403    1
  1781  2856  2842    1
  1782  2856  2877    1
  1783  3710  3711    1
  1784  2214  2216    1
  1785  2304  2303    1
  1786  1812  1813    1
  1787  1801  1802   ar
  1788  1256  1257    1
  1789  2979  2969    1
  1790  2979  2973   ar
  1791  2669  2670    1
  1792  2669  2671    1
  1793  3722  3723   ar
  1794  1945  1946    1
  1795  1945  1947    1
  1796  2268  2267    2
  1797  1281  1263    2
  1798  3085  3105    2
  1799  3085  3071    1
  1800  3085  3106    1
  1801  2969  2967    1
  1802  1263  1282    1
  1803  1263  1265    1
  1804  2318  2316    1
  1805  2049  2030    2
  1806  3080  3079    1
  1807  1979  1978   ar
  1808  1962  1956   ar
  1809  1962  1951    1
  1810  1946  1951    1
  1811  2306  2305    1
  1812  2306  2313   ar
  1813  2015  2016    1
  1814  2015  2013    1
  1815  3166  3167    2
  1816  3166  3160   ar
  1817  2670  2687    1
  1818  2965  2966    1
  1819  2965  2967    1
  1820   749   748    1
  1821  3161  3160   ar
  1822  3161  3162    1
  1823  2560  2559    1
  1824  1965  1985    1
  1825  1965  1948    1
  1826  1965  1967    1
  1827  3079  3081   ar
  1828  2223  2224   ar
  1829  2223  2222    1
  1830  3546  3544    1
  1831  3546  3557    1
  1832  2546  2547   ar
  1833  2303  2305    1
  1834  2303  2301    1
  1835  1947  1948    1
  1836  1947  1949    1
  1837  3367  3366    1
  1838  2682  2679   ar
  1839  2459  2460   ar
  1840  2459  2456   ar
  1841  2030  2016    1
  1842  2030  2048    1
  1843  3191  3190   ar
  1844  3191  3192   ar
  1845  3001  2982    2
  1846  2573  2572   ar
  1847  3370  3371    1
  1848  3370  3365    1
  1849  3075  3074    1
  1850  3075  3082   ar
  1851  2974  2973   ar
  1852  2974  2975   ar
  1853  1267  1266    1
  1854  1267  1272    1
  1855  1975  1976   ar
  1856  3074  3069    1
  1857  2460  2461   ar
  1858  2842  2841    1
  1859  2527  2526    2
  1860  2673  2684    1
  1861  2673  2671    1
  1862  3499  3500    1
  1863  3499  3501    1
  1864  1264  1265    1
  1865  1264  1266    1
  1866  3496  3501    1
  1867  3178  3179    1
  1868  3178  3180    1
  1869  3371  3378   ar
  1870   748   746    1
  1871   748   750    1
  1872  2559  2557    1
  1873  2001  2000   ar
  1874  2001  2007   ar
  1875  2687  2708    1
  1876  2687  2689    1
  1877  2305  2300    1
  1878  2247  2249   ar
  1879  2247  2246   ar
  1880  2217  2216    1
  1881  2217  2222    1
  1882  2845  2846    1
  1883  2845  2840    1
  1884     3     1    1
  1885  3697  3696   ar
  1886  3697  3699   ar
  1887  1813  1811    1
  1888  3071  3070    1
  1889  2224  2225    2
  1890  3179  3195    1
  1891  2846  2853   ar
  1892  1956  1955   ar
  1893  2684  2678   ar
  1894  3375  3376    1
  1895  3375  3377   ar
  1896  3366  3364    1
  1897  2444  2445    1
  1898  2444  2446    1
  1899  1739  1736   ar
  1900  1739  1740   ar
  1901  2850  2851    1
  1902  2850  2852   ar
  1903  1983  1984   ar
  1904  2966  2982    1
  1905  2976  2975    1
  1906   746   744    1
  1907  2704  2703    2
  1908  1803  1802   ar
  1909  1803  1806   ar
  1910   753   752    2
  1911    78    79    2
  1912    78    80   ar
  1913  2841  2839    1
  1914  3696  3702   ar
  1915  2006  2007   ar
  1916  2997  2996    1
  1917  3726  3725   ar
  1918  3182  3192    1
  1919  3182  3180    1
  1920  1802  1808   ar
  1921  3190  3187   ar
  1922  2014  2013    1
  1923  3217  3195    2
  1924  2445  2450    1
  1925  3070  3068    1
  1926  2249  2250   ar
  1927  1266  1268    1
  1928  2312  2313   ar
  1929  1737  1736   ar
  1930  1737  1731   ar
  1931  2286  2287   ar
  1932    89    88    1
  1933  2973  2972   ar
  1934  3039  3038    2
  1935    81    80   ar
  1936    81    82    1
  1937  1951  1949    1
  1938  3711  3709    1
  1939  2548  2547   ar
  1940  2548  2551   ar
  1941  2486  2464    2
  1942  2216  2218    1
  1943  2288  2287   ar
  1944  2288  2291   ar
  1945  3561  3562    1
  1946  3561  3563    1
  1947  3057  3056    2
  1948  2671  2672    1
  1949  1952  1953   ar
  1950  2967  2968    1
  1951  3017  3016    2
  1952  2975  2970   ar
  1953  3192  3186   ar
  1954  2520  2526   ar
  1955  2520  2521   ar
  1956  2547  2553   ar
  1957  2705  2706   ar
  1958  2705  2702   ar
  1959  3723  3725   ar
  1960  3723  3724    2
  1961  2222  2220    1
  1962   752   754   ar
  1963   752   751   ar
  1964   754   755   ar
  1965  2267  2266   ar
  1966  2267  2269   ar
  1967  3511  3512   ar
  1968  3511  3510   ar
  1969  3058  3056   ar
  1970  3058  3059   ar
  1971  1967  1966    1
  1972  2982  3000    1
  1973  2982  2984    1
  1974  3501  3512    1
  1975  3216  3195    1
  1976  3060  3059    2
  1977  1272  1273    1
  1978  1272  1270    1
  1979  1736  1735   ar
  1980  2526  2525   ar
  1981  3699  3700   ar
  1982  2246  2244   ar
  1983    88    90    1
  1984  3195  3197    1
  1985  2009  1987    2
  1986  2013  2011    1
  1987  1949  1950    1
  1988  2007  1996    1
  1989  1782  1781    1
  1990  3081  3082   ar
  1991  2998  2996   ar
  1992  2998  2999   ar
  1993  3180  3181    1
  1994  2752  2732    2
  1995  2446  2447    1
  1996  2446  2448    1
  1997  3557  3556   ar
  1998  3557  3551   ar
  1999  1978  1984   ar
  2000  1978  1977   ar
  2001  1740  1741   ar
  2002  2266  2264   ar
  2003  2252  2233    2
  2004  2481  2480    2
  2005  1280  1273   ar
  2006  1280  1279   ar
  2007  2287  2293   ar
  2008  2458  2457    2
  2009  3365  3364    1
  2010   756   755    2
  2011  2679  2678   ar
  2012  2679  2680   ar
  2013  3378  3377   ar
  2014  2456  2457   ar
  2015  2456  2455   ar
  2016  2301  2302    1
  2017  2301  2299    1
  2018  2461  2450    1
  2019  2461  2455   ar
  2020  1976  1977   ar
  2021  3556  3555   ar
  2022   755   757   ar
  2023  2218  2220    1
  2024  2218  2219    1
  2025  3069  3068    1
  2026  1273  1274   ar
  2027  1776  1781   ar
  2028  1776  1777   ar
  2029  3364  3362    1
  2030  2316  2302    1
  2031  2316  2336    2
  2032  2316  2337    1
  2033  2996  2995   ar
  2034   751   750    1
  2035   751   758   ar
  2036  2853  2852   ar
  2037  2522  2521    1
  2038  3056  3055   ar
  2039   750   745    1
  2040  2703  2702   ar
  2041  2703  2697   ar
  2042  2839  2840    1
  2043  2839  2837    1
  2044  2447  2464    1
  2045  2678  2677   ar
  2046  1984  1974    1
  2047  2300  2299    1
  2048  2689  2688    1
  2049  3032  3038   ar
  2050  3032  3033   ar
  2051  1806  1807   ar
  2052  3702  3703    2
  2053  3702  3701   ar
  2054  3512  3506   ar
  2055  1279  1277   ar
  2056  1731  1732   ar
  2057  3059  3061   ar
  2058  3068  3066    1
  2059  2706  2707   ar
  2060  1955  1953   ar
  2061  1796  1795    1
  2062  2557  2558    1
  2063  3038  3037   ar
  2064  1795  1797    1
  2065  1795  1793    1
  2066  2012  2011    1
  2067  2012  2010    1
  2068  2291  2292   ar
  2069  2450  2448    1
  2070  3510  3507   ar
  2071  2702  2701   ar
  2072  1808  1797    1
  2073  1808  1807   ar
  2074     1    22    1
  2075     1    23    1
  2076  2464  2485    1
  2077  2464  2466    1
  2078  1953  1954    1
  2079  3187  3186   ar
  2080  3187  3188   ar
  2081  3727  3709    2
  2082  1811  1833    2
  2083  1811  1832    1
  2084  1811  1794    1
  2085  2521  2523   ar
  2086   744   745    1
  2087   744   742    1
  2088  2551  2552   ar
  2089  2250  2243   ar
  2090  2457  2451   ar
  2091  2504  2503    2
  2092  2029  2010    2
  2093  1781  1780   ar
  2094  3694  3693    1
  2095  2772  2754    2
  2096   757   758   ar
  2097  2972  2971   ar
  2098  1274  1275    2
  2099  1274  1276   ar
  2100  1271  1270    1
  2101  3186  3185   ar
  2102  3016  3015   ar
  2103  3016  3018   ar
  2104  2220  2221    1
  2105  2269  2270   ar
  2106  3709  3692    1
  2107  3709  3728    1
  2108  2482  2479   ar
  2109  2482  2483   ar
  2110  3563  3564    1
  2111  3563  3565    1
  2112  2999  2992   ar
  2113  1268  1270    1
  2114  1268  1269    1
  2115  3700  3701   ar
  2116  3700  3706   ar
  2117  2970  2971   ar
  2118  1277  1276   ar
  2119  1277  1278    1
  2120  2455  2454   ar
  2121  1777  1778   ar
  2122  2299  2297    1
  2123  2553  2552   ar
  2124  2553  2542    1
  2125  2984  2983    1
  2126    91    90    1
  2127    91    96    1
  2128  2558  2556    1
  2129  3693  3691    1
  2130  3693  3695    1
  2131  1735  1741   ar
  2132  1735  1734   ar
  2133  1797  1792    1
  2134  3034  3033    1
  2135  2219  2233    1
  2136  2681  2680    2
  2137  2244  2243   ar
  2138  2244  2245    2
  2139  1966  1968    1
  2140  2680  2674   ar
  2141    90    92    1
  2142  2480  2479   ar
  2143  2480  2474   ar
  2144  2525  2528   ar
  2145  2525  2524   ar
  2146  1741  1730    1
  2147  2448  2449    1
  2148  3701  3704   ar
  2149  3551  3550   ar
  2150  3551  3552   ar
  2151  2264  2265    2
  2152  2264  2263   ar
  2153  2732  2753    1
  2154  2732  2716    1
  2155  2732  2734    1
  2156  1996  1994    1
  2157  1996  1991    1
  2158  1794  1793    1
  2159  3564  3569    1
  2160  1987  1989    1
  2161  1987  1971    1
  2162  1987  2008    1
  2163  2233  2235    1
  2164  2233  2251    1
  2165  3555  3552   ar
  2166  1994  1992    1
  2167  1994  1995    1
  2168  3197  3196    1
  2169   742   743    1
  2170  3033  3035   ar
  2171  2995  2993   ar
  2172   106   105   ar
  2173   106   107   ar
  2174  2293  2292   ar
  2175  2293  2282    1
  2176  1793  1791    1
  2177  2697  2698   ar
  2178  1970  1968    1
  2179  1970  1972    1
  2180  1970  1971    1
  2181  2010  1993    1
  2182  2010  2028    1
  2183  2677  2675   ar
  2184  1729  1728    1
  2185  2540  2541    1
  2186  2540  2542    1
  2187  2540  2538    1
  2188   743   741    1
  2189  3692  3691    1
  2190  3015  3013   ar
  2191  1989  1988    1
  2192  2831  2830    1
  2193  2243  2242    1
  2194  3018  3019   ar
  2195  3550  3548   ar
  2196  2688  2690    1
  2197  2829  2830   ar
  2198  2829  2827   ar
  2199  2479  2478   ar
  2200  3055  3054    1
  2201  3055  3062   ar
  2202  3362  3363    1
  2203  1732  1734   ar
  2204  1732  1733    1
  2205  2731  2710    2
  2206  1974  1969    1
  2207  1974  1972    1
  2208  1269  1283    1
  2209  2837  2838    1
  2210  3189  3188    1
  2211   105   102   ar
  2212  1992  1993    1
  2213  1992  1990    1
  2214  3188  3183   ar
  2215  2542  2537    1
  2216  1969  1968    1
  2217  3506  3507   ar
  2218  3506  3505   ar
  2219  2828  2827    2
  2220  2707  2701   ar
  2221  2707  2696    1
  2222  2483  2484   ar
  2223  3507  3508   ar
  2224  2528  2529   ar
  2225  3037  3040   ar
  2226  3037  3036   ar
  2227  2701  2700   ar
  2228  3061  3062   ar
  2229  3356  3355    1
  2230  2466  2465    1
  2231  3066  3067    1
  2232  3706  3695    1
  2233  3706  3705   ar
  2234  2523  2524   ar
  2235  3053  3052    1
  2236  3185  3184   ar
  2237  2503  2497   ar
  2238  2503  2502   ar
  2239  3599  3580    2
  2240  3354  3355   ar
  2241  3354  3352   ar
  2242  3566  3565    1
  2243  3566  3580    1
  2244  2716  2715    1
  2245  3363  3361    1
  2246  1972  1973    1
  2247  3691  3689    1
  2248  3565  3567    1
  2249  3598  3580    1
  2250  3353  3352    2
  2251  1780  1779   ar
  2252  1780  1783   ar
  2253  3695  3690    1
  2254  2270  2263   ar
  2255  3052  3054    1
  2256  3052  3050    1
  2257  1991  1990    1
  2258  2754  2773    1
  2259  2754  2738    1
  2260  2754  2756    1
  2261  2451  2452   ar
  2262  1728  1730    1
  2263  1728  1726    1
  2264  3552  3553   ar
  2265  2524  2530   ar
  2266  2992  2993   ar
  2267  2992  2991    1
  2268  2235  2234    1
  2269  2838  2836    1
  2270  3675  3674    1
  2271  2830  2832   ar
  2272  3196  3198    1
  2273   760   741    2
  2274  1778  1779   ar
  2275  2983  2985    1
  2276   730   729    1
  2277  2827  2826   ar
  2278  2474  2475   ar
  2279  3054  3049    1
  2280  2734  2733    1
  2281  3067  3065    1
  2282  2263  2262    1
  2283  2454  2452   ar
  2284   107    96    1
  2285   107   101   ar
  2286  3040  3041   ar
  2287    96    94    1
  2288  2674  2675   ar
  2289  1730  1725    1
  2290  2733  2735    1
  2291  3580  3582    1
  2292   728   729   ar
  2293   728   734   ar
  2294  3577  3576   ar
  2295  3577  3570   ar
  2296    92    93    1
  2297    92    94    1
  2298  3704  3705   ar
  2299  2993  2994    2
  2300  2691  2690    1
  2301  2691  2696    1
  2302   735   734    2
  2303  2297  2298    1
  2304  3673  3674   ar
  2305  3673  3679   ar
  2306   759   741    1
  2307  2282  2280    1
  2308  2282  2277    1
  2309  2675  2676    1
  2310  1792  1791    1
  2311  3355  3357   ar
  2312   741   724    1
  2313  3213  3214   ar
  2314  3213  3210   ar
  2315  2497  2498   ar
  2316  3352  3351   ar
  2317  2298  2296    1
  2318  3235  3234    2
  2319  3680  3679    2
  2320  2986  2991    1
  2321  2986  2985    1
  2322  3214  3215   ar
  2323  1990  1988    1
  2324  2556  2539    1
  2325  2556  2575    2
  2326  2556  2574    1
  2327  2280  2281    1
  2328  2280  2278    1
  2329  2738  2737    1
  2330  2698  2700   ar
  2331  2698  2699    1
  2332  2505  2502   ar
  2333  2505  2506   ar
  2334  2538  2539    1
  2335  2538  2536    1
  2336  1779  1785   ar
  2337  3035  3036   ar
  2338   653   632    2
  2339  2690  2692    1
  2340   729   731   ar
  2341  2711  2712    1
  2342  2711  2713    1
  2343  3569  3567    1
  2344  3569  3570    1
  2345  1791  1789    1
  2346  3505  3503   ar
  2347  2712  2710    1
  2348   734   733   ar
  2349  3576  3574   ar
  2350  3036  3042   ar
  2351  1783  1784   ar
  2352  3183  3184   ar
  2353  2452  2453    1
  2354  1305  1283    2
  2355  2692  2694    1
  2356  2692  2693    1
  2357  2502  2501   ar
  2358   102   101   ar
  2359   102   103   ar
  2360  2696  2694    1
  2361  3013  3014    2
  2362  3013  3012   ar
  2363  3548  3549    1
  2364  3548  3547   ar
  2365  3019  3012   ar
  2366    93   110    1
  2367  3674  3676   ar
  2368  2478  2484   ar
  2369  2478  2477   ar
  2370  2710  2693    1
  2371  2710  2730    1
  2372  2756  2755    1
  2373  2242  2237    1
  2374  2242  2240    1
  2375  2529  2530   ar
  2376  2484  2473    1
  2377  3508  3509    2
  2378  3508  3502   ar
  2379  1283  1304    1
  2380  1283  1285    1
  2381  2509  2487    2
  2382  2537  2536    1
  2383  3679  3678   ar
  2384  2465  2467    1
  2385  3021  3002    2
  2386  2715  2713    1
  2387  2715  2717    1
  2388  3567  3568    1
  2389  2991  2989    1
  2390  2237  2236    1
  2391  2985  2987    1
  2392  3570  3571   ar
  2393  3199  3198    1
  2394  3199  3204    1
  2395  2713  2714    1
  2396  2755  2757    1
  2397   101   100   ar
  2398  3256  3255    2
  2399  3689  3690    1
  2400  3689  3687    1
  2401  3050  3051    1
  2402  3050  3048    1
  2403   131   110    2
  2404    94    95    1
  2405  2530  2519    1
  2406  3361  3380    2
  2407  3361  3379    1
  2408  3361  3347    1
  2409  1725  1724    1
  2410  2737  2735    1
  2411  2737  2739    1
  2412   104   103    2
  2413  3553  3547   ar
  2414  3553  3554    2
  2415   731   732   ar
  2416  2832  2833   ar
  2417  2811  2810    1
  2418  1726  1727    1
  2419  1726  1724    1
  2420  2272  2253    2
  2421  3198  3200    1
  2422  2826  2833   ar
  2423  2826  2825    1
  2424  2735  2736    1
  2425  2234  2236    1
  2426  3051  3065    1
  2427  3212  3211    2
  2428  2475  2477   ar
  2429  2475  2476    1
  2430  3012  3011    1
  2431  2694  2695    1
  2432   733   732   ar
  2433   733   736   ar
  2434  2823  2824    1
  2435  2823  2825    1
  2436  2823  2821    1
  2437  3041  3042   ar
  2438  3084  3065    2
  2439   103    97   ar
  2440  2836  2854    2
  2441  2836  2855    1
  2442  2836  2822    1
  2443  3065  3083    1
  2444  2278  2279    1
  2445  2278  2276    1
  2446  1790  1789    1
  2447  1790  1788    1
  2448  2315  2296    2
  2449  3049  3048    1
  2450  2987  2989    1
  2451  2987  2988    1
  2452  2262  2260    1
  2453  2262  2257    1
  2454  3348  3349    1
  2455  3348  3350    1
  2456  3348  3346    1
  2457  3210  3211   ar
  2458  3210  3209   ar
  2459  3357  3358   ar
  2460  2277  2276    1
  2461  3351  3358   ar
  2462  3351  3350    1
  2463  3234  3228   ar
  2464  3234  3233   ar
  2465  2536  2534    1
  2466   110   130    1
  2467   110   112    1
  2468  1285  1284    1
  2469  2498  2499    1
  2470  2498  2500   ar
  2471  3336  3335    2
  2472   732   738   ar
  2473  3215  3204    1
  2474  3215  3209   ar
  2475  2506  2507   ar
  2476  2296  2279    1
  2477  2296  2314    1
  2478   632   654    1
  2479   632   616    1
  2480   632   634    1
  2481   630   610    2
  2482  2718  2717    1
  2483  1785  1784   ar
  2484  1785  1775    1
  2485  2468  2467    1
  2486  2468  2473    1
  2487  3503  3502   ar
  2488  3503  3504    1
  2489  2240  2238    1
  2490  2240  2241    1
  2491   724   723    1
  2492  2238  2236    1
  2493  2238  2239    1
  2494  3582  3581    1
  2495  3042  3031    1
  2496  2795  2774    2
  2497  1810  1788    2
  2498  1727  1744    1
  2499  3676  3677   ar
  2500   616   615    1
  2501   725   726    1
  2502   725   723    1
  2503   725   727    1
  2504  3574  3575    1
  2505  3574  3573   ar
  2506  3211  3205   ar
  2507   736   737   ar
  2508  2467  2469    1
  2509  2501  2500   ar
  2510  2501  2507   ar
  2511  2469  2471    1
  2512  2469  2470    1
  2513  1724  1722    1
  2514  2825  2820    1
  2515  1302  1301   ar
  2516  1302  1303   ar
  2517  1301  1298   ar
  2518  2989  2990    1
  2519  2295  2273    2
  2520  2473  2471    1
  2521  2260  2258    1
  2522  2260  2261    1
  2523  2717  2719    1
  2524  3236  3233   ar
  2525  3236  3237   ar
  2526  3048  3046    1
  2527  3204  3202    1
  2528   723   721    1
  2529   100    98   ar
  2530  3678  3677   ar
  2531  3678  3681   ar
  2532  3347  3346    1
  2533  3255  3254   ar
  2534  3255  3257   ar
  2535  1287  1292    1
  2536  1287  1286    1
  2537  3350  3345    1
  2538  2535  2534    1
  2539  2535  2533    1
  2540  3228  3229   ar
  2541   611   613    1
  2542   611   612    1
  2543  1722  1723    1
  2544  2822  2821    1
  2545  3687  3688    1
  2546  2821  2819    1
  2547  3200  3201    1
  2548  3200  3202    1
  2549  3346  3344    1
  2550  2555  2533    2
  2551  3254  3252   ar
  2552  2487  2470    1
  2553  2487  2489    1
  2554  2487  2508    1
  2555  3209  3208   ar
  2556  3571  3573   ar
  2557  3571  3572    2
  2558  3002  2988    1
  2559  3002  3004    1
  2560  3002  3020    1
  2561  2810  2809   ar
  2562  2810  2812   ar
  2563  2257  2256    1
  2564  3233  3232   ar
  2565  2519  2517    1
  2566  2519  2514    1
  2567  2276  2274    1
  2568  2757  2758    1
  2569  2757  2759    1
  2570  3688  3686    1
  2571  3316  3315    1
  2572   738   737   ar
  2573   738   727    1
  2574  2714  2719    1
  2575  3581  3583    1
  2576  2809  2807   ar
  2577  2532  2510    2
  2578   713   712    2
  2579  3240  3218    2
  2580  2736  2741    1
  2581  2517  2515    1
  2582  2517  2518    1
  2583  2255  2253    1
  2584  2255  2254    1
  2585  2275  2273    1
  2586  2275  2274    1
  2587  1788  1809    1
  2588  1788  1772    1
  2589    97    98   ar
  2590  3658  3657    1
  2591  3677  3683   ar
  2592  1743  1721    2
  2593  2253  2239    1
  2594  2253  2271    1
  2595   740   718    2
  2596  2794  2774    1
  2597  2258  2256    1
  2598  2258  2259    1
  2599  1773  1775    1
  2600  1773  1771    1
  2601  1773  1774    1
  2602  2739  2740    1
  2603  2739  2741    1
  2604  2507  2496    1
  2605  1303  1292    1
  2606  1303  1297   ar
  2607  2471  2472    1
  2608  3335  3334   ar
  2609  3335  3337   ar
  2610  1298  1299   ar
  2611  1298  1297   ar
  2612  1292  1290    1
  2613   613   615    1
  2614   613   614    1
  2615  1775  1770    1
  2616  3011  3006    1
  2617  3011  3009    1
  2618  2774  2760    1
  2619  2774  2776    1
  2620  1300  1299    2
  2621  3334  3332   ar
  2622  3004  3003    1
  2623  1760  1759    1
  2624    98    99    1
  2625  2489  2488    1
  2626   634   633    1
  2627  1284  1286    1
  2628   727   722    1
  2629  2760  2759    1
  2630  1761  1762   ar
  2631  1761  1758   ar
  2632   112   111    1
  2633  2750  2749   ar
  2634  2750  2751   ar
  2635  3201  3218    1
  2636   615   617    1
  2637  2515  2516    1
  2638  2515  2513    1
  2639  3047  3046    1
  2640  3047  3045    1
  2641  3031  3029    1
  2642  3031  3026    1
  2643  1299  1293   ar
  2644  3681  3682   ar
  2645  2719  2729    1
  2646   610   612    1
  2647   610   596    1
  2648   610   631    1
  2649  2273  2259    1
  2650  2273  2294    1
  2651  1297  1296   ar
  2652  2533  2516    1
  2653  2533  2554    1
  2654   633   635    1
  2655  3202  3203    1
  2656  1765  1744    2
  2657  3596  3597   ar
  2658  3596  3594   ar
  2659  2758  2763    1
  2660  1723  1721    1
  2661  1744  1764    1
  2662  1744  1746    1
  2663  1771  1772    1
  2664  1771  1769    1
  2665  3622  3600    2
  2666  1286  1288    1
  2667  3237  3238   ar
  2668  3205  3206   ar
  2669   127   128   ar
  2670   127   124   ar
  2671  2256  2254    1
  2672   712   714   ar
  2673   712   711   ar
  2674  3044  3022    2
  2675  3006  3005    1
  2676  2820  2819    1
  2677   677   655    2
  2678  2759  2761    1
  2679  2741  2751    1
  2680  3257  3258   ar
  2681  3029  3027    1
  2682  3029  3030    1
  2683   676   655    1
  2684  2514  2513    1
  2685  2812  2813   ar
  2686   618   617    1
  2687  2512  2510    1
  2688  2512  2511    1
  2689   720   718    1
  2690   720   719    1
  2691   596   595    1
  2692  3252  3253    2
  2693  3252  3251   ar
  2694  3345  3344    1
  2695  3009  3007    1
  2696  3009  3010    1
  2697  1721  1742    1
  2698  1721  1707    1
  2699  3597  3590   ar
  2700  2807  2808    2
  2701  2807  2806   ar
  2702  1762  1763   ar
  2703  3229  3230    1
  2704  3229  3231   ar
  2705   718   739    1
  2706   718   704    1
  2707   128   129   ar
  2708  3218  3239    1
  2709  3218  3220    1
  2710  3708  3686    2
  2711  3208  3206   ar
  2712  2819  2817    1
  2713   721   722    1
  2714   721   719    1
  2715  3315  3317   ar
  2716  3315  3314   ar
  2717  2749  2746   ar
  2718  3064  3045    2
  2719  3344  3342    1
  2720  3232  3238   ar
  2721  3232  3231   ar
  2722  2790  2789    1
  2723  2510  2531    1
  2724  2510  2493    1
  2725  3657  3656   ar
  2726  3657  3659   ar
  2727  3337  3338   ar
  2728   126   125    1
  2729  2751  2745   ar
  2730  3683  3682   ar
  2731  3683  3672    1
  2732  3686  3707    1
  2733  3686  3669    1
  2734   111   113    1
  2735   714   715   ar
  2736   711   709   ar
  2737  1759  1758   ar
  2738  1759  1754   ar
  2739  1293  1294   ar
  2740  1296  1294   ar
  2741  3007  3005    1
  2742  3007  3008    1
  2743  1758  1757   ar
  2744  3595  3594    1
  2745  3296  3295    2
  2746  3583  3584    1
  2747  3583  3585    1
  2748  3332  3333    2
  2749  3332  3331   ar
  2750  1770  1769    1
  2751   614   619    1
  2752   655   638    1
  2753   655   657    1
  2754   617   619    1
  2755  3206  3207    1
  2756  2496  2494    1
  2757  2496  2491    1
  2758  2513  2511    1
  2759  3026  3025    1
  2760  2492  2494    1
  2761  2492  2493    1
  2762  2492  2490    1
  2763  3027  3028    1
  2764  3027  3025    1
  2765   598   597    1
  2766  3670  3671    1
  2767  3670  3672    1
  2768  3670  3668    1
  2769  3317  3318   ar
  2770  3656  3654   ar
  2771  3003  3005    1
  2772  2791  2792   ar
  2773  2791  2788   ar
  2774  1290  1291    1
  2775  1290  1288    1
  2776  3584  3589    1
  2777  2729  2728   ar
  2778  2729  2723   ar
  2779  1294  1295    1
  2780  3594  3593   ar
  2781  3238  3227    1
  2782  1470  1469    1
  2783   208   209   ar
  2784   208   213   ar
  2785  2776  2775    1
  2786  3045  3028    1
  2787  3045  3063    1
  2788   124   125   ar
  2789   124   123   ar
  2790  2488  2490    1
  2791  1746  1745    1
  2792  2818  2817    1
  2793  2818  2816    1
  2794  3024  3022    1
  2795  3024  3023    1
  2796  2494  2495    1
  2797  2491  2490    1
  2798   638   637    1
  2799  1769  1767    1
  2800  2728  2727   ar
  2801   238   239   ar
  2802   238   235   ar
  2803   114   113    1
  2804   114   119    1
  2805  3314  3312   ar
  2806  3295  3297   ar
  2807  3295  3294   ar
  2808  3258  3251   ar
  2809  1288  1289    1
  2810   566   545    2
  2811  2813  2806   ar
  2812  2835  2816    2
  2813  3220  3219    1
  2814   635   637    1
  2815   635   636    1
  2816  1745  1747    1
  2817  2763  2761    1
  2818  2763  2764    1
  2819   125   120   ar
  2820  3659  3660   ar
  2821  3585  3586    1
  2822  3585  3587    1
  2823  3022  3008    1
  2824  3022  3043    1
  2825  3617  3616    2
  2826  3343  3342    1
  2827  3343  3341    1
  2828  3600  3586    1
  2829  3600  3621    1
  2830  3600  3602    1
  2831   239   240   ar
  2832  3251  3250    1
  2833  3638  3637    2
  2834   209   210   ar
  2835  2806  2805    1
  2836   697   678    2
  2837  3672  3667    1
  2838  2761  2762    1
  2839   715   708   ar
  2840  1763  1757   ar
  2841  1763  1753    1
  2842   709   710    2
  2843   709   708   ar
  2844  3297  3298   ar
  2845   129   123   ar
  2846   129   119    1
  2847  3276  3275    1
  2848  3668  3669    1
  2849  3668  3666    1
  2850  3618  3619   ar
  2851  3618  3615   ar
  2852  3338  3331   ar
  2853   595   593    1
  2854   595   597    1
  2855   147   146    1
  2856   214   213    1
  2857  1748  1747    1
  2858  1748  1753    1
  2859  1754  1755   ar
  2860  2789  2788   ar
  2861  2789  2784   ar
  2862   717   698    2
  2863  3289  3288    1
  2864  3590  3589    1
  2865  3590  3591   ar
  2866   619   629    1
  2867  2746  2745   ar
  2868  2746  2747   ar
  2869  1707  1706    1
  2870  2792  2793   ar
  2871  3294  3292   ar
  2872  3331  3330    1
  2873  3025  3023    1
  2874  1757  1756   ar
  2875   113   115    1
  2876   637   639    1
  2877  2745  2744   ar
  2878  1466  1465    1
  2879  2788  2787   ar
  2880  1767  1768    1
  2881   704   703    1
  2882   593   591    1
  2883   593   594    1
  2884  2766  2765    2
  2885   350   329    2
  2886  3320  3301    2
  2887   597   599    1
  2888  3360  3341    2
  2889   708   707    1
  2890  2723  2722   ar
  2891  2723  2724   ar
  2892   192   191    2
  2893   213   212   ar
  2894   123   122   ar
  2895   703   705    1
  2896   703   701    1
  2897  3589  3587    1
  2898  2816  2834    1
  2899  2816  2802    1
  2900  2722  2721   ar
  2901  2764  2765   ar
  2902  2764  2771   ar
  2903  3654  3655    2
  2904  3654  3653   ar
  2905  3298  3291   ar
  2906   119   117    1
  2907  3318  3311   ar
  2908   591   592    1
  2909  2815  2796    2
  2910   657   656    1
  2911  2775  2777    1
  2912  1469  1471   ar
  2913  1469  1468   ar
  2914  3593  3591   ar
  2915  3619  3620   ar
  2916  2727  2724   ar
  2917  2765  2767   ar
  2918  1747  1749    1
  2919  3292  3291   ar
  2920  3292  3293    2
  2921   237   236    2
  2922   705   707    1
  2923   705   706    1
  2924  3602  3601    1
  2925   636   641    1
  2926  3685  3663    2
  2927  1289  1306    1
  2928   696   678    1
  2929  2803  2805    1
  2930  2803  2801    1
  2931  2803  2804    1
  2932   693   692    1
  2933  1471  1472   ar
  2934  1753  1751    1
  2935   185   191   ar
  2936   185   186   ar
  2937  3616  3615   ar
  2938  3616  3610   ar
  2939  3227  3222    1
  2940  3227  3225    1
  2941  3275  3274   ar
  2942  3275  3277   ar
  2943   315   329    1
  2944   315   314    1
  2945   317   316    1
  2946   120   121   ar
  2947  3222  3221    1
  2948  3637  3639   ar
  2949  3637  3636   ar
  2950   235   236   ar
  2951   235   234   ar
  2952   228   227    1
  2953  3312  3311   ar
  2954  3312  3313    2
  2955  3615  3614   ar
  2956   700   698    1
  2957   700   699    1
  2958  3341  3359    1
  2959  3341  3327    1
  2960  3660  3653   ar
  2961  3291  3290    1
  2962   678   680    1
  2963   678   661    1
  2964  3587  3588    1
  2965  1447  1446   ar
  2966  1447  1448   ar
  2967   187   186    1
  2968  2805  2800    1
  2969  1755  1756   ar
  2970   210   211   ar
  2971  3591  3592    2
  2972   146   148   ar
  2973   146   145   ar
  2974   240   229    1
  2975   240   234   ar
  2976   698   716    1
  2977   698   684    1
  2978   312   310    1
  2979   312   314    1
  2980   312   313    1
  2981   115   117    1
  2982   115   116    1
  2983  2771  2770   ar
  2984  3219  3221    1
  2985  3667  3666    1
  2986   545   528    1
  2987   545   565    1
  2988   545   547    1
  2989  2784  2785   ar
  2990  3250  3248    1
  2991  3250  3245    1
  2992   169   168    2
  2993  3274  3272   ar
  2994  1323  1322    2
  2995  2724  2725   ar
  2996   330   332    1
  2997   330   331    1
  2998  3328  3330    1
  2999  3328  3326    1
  3000  3328  3329    1
  3001   148   149   ar
  3002   592   590    1
  3003  2747  2748    1
  3004  2747  2742   ar
  3005   651   650   ar
  3006   651   652   ar
  3007  2744  2743   ar
  3008   310   311    1
  3009   191   190   ar
  3010  3340  3321    2
  3011   294   293    1
  3012  2801  2802    1
  3013  2801  2799    1
  3014  3639  3640   ar
  3015  1749  1751    1
  3016  1749  1750    1
  3017   629   628   ar
  3018   629   623   ar
  3019  1787  1766    2
  3020  1706  1704    1
  3021  1706  1708    1
  3022  3665  3663    1
  3023  3665  3664    1
  3024  3277  3278   ar
  3025  3666  3664    1
  3026  3330  3325    1
  3027  2793  2787   ar
  3028  2793  2783    1
  3029   151   132    2
  3030   594   599    1
  3031   707   702    1
  3032  3653  3652    1
  3033   329   331    1
  3034   329   351    1
  3035   236   230   ar
  3036  3288  3290    1
  3037  3288  3286    1
  3038   694   692   ar
  3039   694   695   ar
  3040  3311  3310    1
  3041  1704  1702    1
  3042  1704  1705    1
  3043  1465  1467    1
  3044  1465  1463    1
  3045  2767  2768   ar
  3046  1489  1488    1
  3047  2787  2786   ar
  3048  3249  3248    1
  3049  1446  1451   ar
  3050   528   527    1
  3051   599   600    1
  3052   229   227    1
  3053   229   224    1
  3054   122   121   ar
  3055   628   627   ar
  3056  1324  1321   ar
  3057  1324  1325   ar
  3058  1768  1766    1
  3059   656   658    1
  3060   692   691   ar
  3061  1485  1484    1
  3062  1485  1490    1
  3063  2721  2720   ar
  3064   186   188   ar
  3065  3326  3327    1
  3066  3326  3324    1
  3067  1484  1482    1
  3068  1484  1486    1
  3069  3290  3285    1
  3070   650   647   ar
  3071   639   641    1
  3072   639   640    1
  3073   608   590    2
  3074   699   701    1
  3075   680   679    1
  3076  1448  1449   ar
  3077   314   316    1
  3078  1468  1474   ar
  3079  3221  3223    1
  3080   701   702    1
  3081  3301  3287    1
  3082  3301  3303    1
  3083  3301  3319    1
  3084   212   211   ar
  3085   212   215   ar
  3086   313   318    1
  3087  2798  2796    1
  3088  2798  2797    1
  3089  1467  1462    1
  3090  1467  1478    1
  3091   117   118    1
  3092  1482  1483    1
  3093  1751  1752    1
  3094   332   333    1
  3095   332   334    1
  3096  3287  3286    1
  3097  2770  2768   ar
  3098  1322  1321   ar
  3099  1322  1316   ar
  3100   234   233   ar
  3101  3225  3223    1
  3102  3225  3226    1
  3103  2778  2777    1
  3104  2778  2783    1
  3105   546   547    1
  3106   546   548    1
  3107  3642  3623    2
  3108  3223  3224    1
  3109  3248  3246    1
  3110  3260  3241    2
  3111  3663  3684    1
  3112  3663  3649    1
  3113  2777  2779    1
  3114   641   652    1
  3115  3636  3634   ar
  3116   116   132    1
  3117  2796  2780    1
  3118  2796  2814    1
  3119  3245  3244    1
  3120   145   143   ar
  3121   316   318    1
  3122   211   217   ar
  3123  1328  1306    2
  3124  3272  3273    2
  3125  3272  3271   ar
  3126   227   225    1
  3127  3610  3611   ar
  3128  3620  3614   ar
  3129  3620  3609    1
  3130  2768  2769    2
  3131  1321  1320   ar
  3132  1325  1326   ar
  3133  1472  1478   ar
  3134  1472  1473   ar
  3135   661   660    1
  3136  2779  2780    1
  3137  2779  2781    1
  3138  1702  1703    1
  3139   652   646   ar
  3140  3601  3603    1
  3141  2800  2799    1
  3142  3278  3271   ar
  3143   327   309    2
  3144  1705  1710    1
  3145   370   352    2
  3146  3614  3613   ar
  3147  2743  2742   ar
  3148  1306  1308    1
  3149  1306  1327    1
  3150   530   529    1
  3151  1490  1488    1
  3152  1490  1501    1
  3153  1766  1750    1
  3154  1766  1786    1
  3155   284   266    2
  3156   695   688   ar
  3157  1709  1708    1
  3158  3323  3321    1
  3159  3323  3322    1
  3160  2785  2786   ar
  3161   149   142   ar
  3162   168   162   ar
  3163   168   167   ar
  3164  2725  2720   ar
  3165  2725  2726    1
  3166   264   243    2
  3167   590   609    1
  3168   590   573    1
  3169  3303  3302    1
  3170   673   674   ar
  3171   673   670   ar
  3172   335   334    1
  3173   335   352    1
  3174   226   225    1
  3175   226   243    1
  3176  1464  1463    1
  3177  1464  1481    1
  3178   292   309    1
  3179   292   291    1
  3180   318   319    1
  3181  3286  3284    1
  3182  2783  2781    1
  3183   660   658    1
  3184   660   662    1
  3185   623   622   ar
  3186   623   624   ar
  3187  1710  1708    1
  3188  1710  1711    1
  3189  3325  3324    1
  3190   333   338    1
  3191   132   150    1
  3192   132   134    1
  3193  3604  3603    1
  3194  3604  3609    1
  3195  1462  1461    1
  3196   691   689   ar
  3197  2799  2797    1
  3198  1316  1317   ar
  3199   684   683    1
  3200  3271  3270    1
  3201   311   309    1
  3202  3321  3339    1
  3203  3321  3307    1
  3204  1488  1486    1
  3205  3640  3633   ar
  3206  1478  1477   ar
  3207   674   675   ar
  3208  3648  3650    1
  3209  3648  3649    1
  3210  3648  3646    1
  3211  1463  1461    1
  3212   244   246    1
  3213   244   245    1
  3214   190   189   ar
  3215   190   193   ar
  3216   162   163   ar
  3217   622   621   ar
  3218   293   291    1
  3219   293   295    1
  3220  3650  3652    1
  3221  3650  3651    1
  3222   224   223    1
  3223  1461  1459    1
  3224  1713  1712    2
  3225  1408  1407    1
  3226   679   681    1
  3227  3652  3647    1
  3228   255   254    1
  3229   602   601    2
  3230   683   681    1
  3231   683   685    1
  3232   627   624   ar
  3233  1424  1425   ar
  3234  1424  1429   ar
  3235   281   280    1
  3236   658   659    1
  3237  1308  1307    1
  3238   230   231   ar
  3239  1451  1452    1
  3240  1451  1450   ar
  3241  1486  1487    1
  3242  3310  3308    1
  3243  3310  3305    1
  3244  1487  1504    1
  3245  3324  3322    1
  3246   527   525    1
  3247   527   529    1
  3248  1320  1326   ar
  3249  1320  1319   ar
  3250  1326  1315    1
  3251   672   671    2
  3252  1425  1426   ar
  3253   334   336    1
  3254   600   601   ar
  3255   600   607   ar
  3256   337   336    1
  3257  3306  3308    1
  3258  3306  3307    1
  3259  3306  3304    1
  3260   188   189   ar
  3261  3605  3603    1
  3262  3605  3606    1
  3263  3605  3607    1
  3264  3243  3241    1
  3265  3243  3242    1
  3266   309   328    1
  3267   647   646   ar
  3268   647   648   ar
  3269   215   216   ar
  3270   225   223    1
  3271  1502  1481    2
  3272   588   567    2
  3273   289   291    1
  3274   289   290    1
  3275   289   287    1
  3276  2781  2782    1
  3277  3308  3309    1
  3278  1310  1315    1
  3279  1310  1309    1
  3280  1449  1450   ar
  3281  1449  1455   ar
  3282  3609  3607    1
  3283  1483  1481    1
  3284  3285  3284    1
  3285  1474  1473   ar
  3286  1474  1475    2
  3287   143   142   ar
  3288   143   144    2
  3289   525   523    1
  3290   525   526    1
  3291   352   371    1
  3292   352   354    1
  3293  3224  3241    1
  3294  3241  3259    1
  3295   243   245    1
  3296   243   265    1
  3297  1719  1701    2
  3298   233   231   ar
  3299   548   549    1
  3300   548   550    1
  3301   688   689   ar
  3302   688   687    1
  3303  1473  1476   ar
  3304  3611  3613   ar
  3305  3611  3612    1
  3306   646   645   ar
  3307  3305  3304    1
  3308   142   141    1
  3309   246   247    1
  3310   246   248    1
  3311   529   531    1
  3312  3634  3633   ar
  3313  3634  3635    2
  3314   523   524    1
  3315   290   295    1
  3316   670   671   ar
  3317   670   669   ar
  3318   295   306    1
  3319  1317  1319   ar
  3320  1317  1318    1
  3321   573   572    1
  3322   624   625   ar
  3323   282   280   ar
  3324   282   283   ar
  3325  1444  1443    1
  3326  3623  3606    1
  3327  3623  3625    1
  3328  3623  3641    1
  3329  1307  1309    1
  3330  3662  3643    2
  3331  3246  3244    1
  3332  3246  3247    1
  3333  3244  3242    1
  3334   689   690    2
  3335   217   216   ar
  3336   217   207    1
  3337  1481  1503    1
  3338   189   195   ar
  3339   167   170   ar
  3340   167   166   ar
  3341   601   603   ar
  3342   193   194   ar
  3343  3647  3646    1
  3344  1703  1701    1
  3345   280   279   ar
  3346  1501  1500   ar
  3347  1501  1495   ar
  3348   170   171   ar
  3349  3270  3265    1
  3350  3270  3268    1
  3351  1402  1407   ar
  3352  1402  1403   ar
  3353   134   133    1
  3354   671   665   ar
  3355  3633  3632    1
  3356   681   682    1
  3357  3644  3646    1
  3358  3644  3645    1
  3359  3284  3282    1
  3360  1315  1313    1
  3361  1344  1343    1
  3362   223   221    1
  3363   231   232    1
  3364   336   338    1
  3365   338   349    1
  3366  1450  1453   ar
  3367   266   285    1
  3368   266   249    1
  3369   266   268    1
  3370  3302  3304    1
  3371   675   669   ar
  3372   675   664    1
  3373  3607  3608    1
  3374  1430  1429    1
  3375   685   687    1
  3376   685   686    1
  3377  1407  1406   ar
  3378   659   664    1
  3379   607   606   ar
  3380   662   664    1
  3381   662   663    1
  3382   549   554    1
  3383  1711  1712   ar
  3384  1711  1718   ar
  3385   247   252    1
  3386  3265  3264    1
  3387  3247  3261    1
  3388  1712  1714   ar
  3389  1429  1428   ar
  3390   649   648    2
  3391   287   288    1
  3392   163   164    1
  3393   163   165   ar
  3394   621   620   ar
  3395   319   326   ar
  3396   319   320   ar
  3397  1381  1380    1
  3398   648   642   ar
  3399  1477  1476   ar
  3400   254   256   ar
  3401   254   253   ar
  3402  1426  1427   ar
  3403  1445  1455    1
  3404  1445  1443    1
  3405  1445  1440    1
  3406  3625  3624    1
  3407   353   354    1
  3408   353   355    1
  3409   543   522    2
  3410  1309  1311    1
  3411  1459  1460    1
  3412   256   257   ar
  3413  1522  1504    2
  3414   283   276   ar
  3415  1455  1454   ar
  3416  1443  1441    1
  3417   572   570    1
  3418   572   574    1
  3419   682   687    1
  3420   207   205    1
  3421   207   202    1
  3422  1500  1499   ar
  3423   321   320    2
  3424   669   668   ar
  3425  1689  1688    1
  3426  1494  1495   ar
  3427  1494  1492   ar
  3428  1701  1687    1
  3429  1701  1720    1
  3430   249   248    1
  3431   526   531    1
  3432  1504  1506    1
  3433  1504  1523    1
  3434   279   277   ar
  3435   550   551    1
  3436   550   552    1
  3437   299   297   ar
  3438   299   300   ar
  3439   136   141    1
  3440   136   135    1
  3441  1495  1496   ar
  3442   298   297    1
  3443   645   643   ar
  3444   248   250    1
  3445   531   542    1
  3446   567   589    1
  3447   567   551    1
  3448   567   569    1
  3449   206   205    1
  3450  1505  1506    1
  3451  1505  1507    1
  3452   141   139    1
  3453   268   267    1
  3454  1403  1404   ar
  3455   326   325   ar
  3456   524   522    1
  3457   274   273    1
  3458  1343  1345   ar
  3459  1343  1342   ar
  3460   205   203    1
  3461   625   620   ar
  3462   625   626    1
  3463   166   165   ar
  3464   166   172   ar
  3465   194   195   ar
  3466   665   666   ar
  3467   320   322   ar
  3468   195   184    1
  3469   603   604   ar
  3470   306   300   ar
  3471   306   305   ar
  3472  3643  3645    1
  3473  3643  3661    1
  3474  3643  3629    1
  3475   171   172   ar
  3476   133   135    1
  3477   568   570    1
  3478   568   569    1
  3479  1687  1686    1
  3480   570   571    1
  3481   273   275    1
  3482   273   271    1
  3483   349   348   ar
  3484   349   343   ar
  3485  3283  3282    1
  3486  3283  3281    1
  3487   276   277   ar
  3488   276   275    1
  3489  3269  3268    1
  3490   348   347   ar
  3491  3268  3266    1
  3492   510   509    1
  3493  1364  1363    2
  3494  1718  1717   ar
  3495   563   564   ar
  3496   563   562   ar
  3497  3632  3630    1
  3498  3632  3627    1
  3499  1406  1409   ar
  3500  1406  1405   ar
  3501   252   250    1
  3502   252   263    1
  3503   221   222    1
  3504   606   604   ar
  3505  1714  1715   ar
  3506   253   259   ar
  3507   277   278    2
  3508  1427  1428   ar
  3509  1427  1433   ar
  3510   575   574    1
  3511  3628  3630    1
  3512  3628  3629    1
  3513  3628  3626    1
  3514  1428  1431   ar
  3515  1453  1454   ar
  3516   297   296   ar
  3517  1440  1439    1
  3518  1345  1346   ar
  3519  1460  1458    1
  3520  1311  1313    1
  3521  1311  1312    1
  3522   522   508    1
  3523   522   544    1
  3524  3267  3266    1
  3525  3267  3281    1
  3526   288   286    1
  3527  1313  1314    1
  3528   642   643   ar
  3529  3264  3266    1
  3530  3264  3262    1
  3531  1493  1492    1
  3532  1342  1340   ar
  3533   554   552    1
  3534   554   564    1
  3535   300   301   ar
  3536  1507  1508    1
  3537  1507  1509    1
  3538  3630  3631    1
  3539  1380  1379   ar
  3540  1380  1382   ar
  3541  1492  1491   ar
  3542   668   666   ar
  3543  3627  3626    1
  3544   552   553    1
  3545   202   201    1
  3546  1508  1513    1
  3547  1499  1496   ar
  3548   574   576    1
  3549  3261  3263    1
  3550  3261  3280    2
  3551  3261  3279    1
  3552   355   356    1
  3553   355   357    1
  3554  3263  3262    1
  3555   643   644    1
  3556   257   263   ar
  3557   257   258   ar
  3558  1688  1686    1
  3559  1688  1690    1
  3560   135   137    1
  3561   508   507    1
  3562  1379  1385   ar
  3563  3624  3626    1
  3564   666   667    1
  3565  1496  1497   ar
  3566  1409  1410   ar
  3567  1670  1669    1
  3568   172   161    1
  3569  3300  3281    2
  3570   604   605    2
  3571  1441  1439    1
  3572  1441  1442    1
  3573   222   220    1
  3574  1693  1692    2
  3575   564   558   ar
  3576   562   559   ar
  3577   250   251    1
  3578   137   139    1
  3579   137   138    1
  3580   275   270    1
  3581   271   269    1
  3582   271   272    1
  3583  1404  1405   ar
  3584   139   140    1
  3585   263   262   ar
  3586  3281  3299    1
  3587   542   541   ar
  3588   542   536   ar
  3589   174   152    2
  3590  1686  1684    1
  3591   509   507    1
  3592   509   511    1
  3593   325   323   ar
  3594   305   304   ar
  3595  1363  1362   ar
  3596  1363  1365   ar
  3597  1405  1411   ar
  3598   356   361    1
  3599   184   182    1
  3600   184   179    1
  3601  1439  1437    1
  3602  1362  1360   ar
  3603   267   269    1
  3604  1442  1458    1
  3605   322   323   ar
  3606  1346  1339   ar
  3607  1382  1383   ar
  3608   203   201    1
  3609   203   204    1
  3610   347   344   ar
  3611  1715  1717   ar
  3612  1715  1716    1
  3613  1340  1339   ar
  3614  1340  1341    2
  3615   343   342   ar
  3616   343   344   ar
  3617   571   576    1
  3618   576   587    1
  3619  1431  1432   ar
  3620  1433  1423    1
  3621  1433  1432   ar
  3622  1491  1497   ar
  3623   391   372    2
  3624   390   372    1
  3625   358   357    1
  3626   358   372    1
  3627   259   258   ar
  3628   259   260    2
  3629  1312  1329    1
  3630   270   269    1
  3631   507   505    1
  3632   541   540   ar
  3633   182   183    1
  3634   182   180    1
  3635   296   302   ar
  3636   514   513    2
  3637   535   536   ar
  3638   535   533   ar
  3639  1458  1479    2
  3640  1458  1480    1
  3641   258   261   ar
  3642   357   359    1
  3643  1348  1329    2
  3644   201   199    1
  3645  1513  1511    1
  3646  1513  1514    1
  3647  1690  1685    1
  3648  1690  1691    1
  3649  1497  1498    2
  3650   308   286    2
  3651   301   304   ar
  3652   301   302   ar
  3653   286   272    1
  3654   286   307    1
  3655   342   340   ar
  3656  1509  1510    1
  3657  1509  1511    1
  3658  1510  1524    1
  3659  1385  1386    2
  3660  1385  1384   ar
  3661  1512  1511    1
  3662  1339  1338    1
  3663   323   324    1
  3664  1684  1685    1
  3665  1684  1682    1
  3666   536   537   ar
  3667  1410  1411   ar
  3668   372   374    1
  3669  1423  1421    1
  3670  1423  1418    1
  3671  1669  1668   ar
  3672  1669  1671   ar
  3673  1361  1360    2
  3674  1692  1691   ar
  3675  1692  1694   ar
  3676  1422  1421    1
  3677   138   152    1
  3678   242   220    2
  3679  1360  1359   ar
  3680   559   558   ar
  3681   559   560   ar
  3682   558   557   ar
  3683   161   156    1
  3684   161   159    1
  3685   344   345   ar
  3686   220   204    1
  3687   220   241    1
  3688  1365  1366   ar
  3689  1411  1401    1
  3690   179   178    1
  3691   369   368   ar
  3692   369   362   ar
  3693  1521  1514   ar
  3694  1521  1520   ar
  3695   152   154    1
  3696   152   173    1
  3697  1421  1419    1
  3698   262   261   ar
  3699   511   512    1
  3700   511   506    1
  3701   200   199    1
  3702   200   198    1
  3703   154   153    1
  3704  1383  1384   ar
  3705  1383  1389   ar
  3706   302   303    2
  3707  1329  1331    1
  3708  1329  1347    1
  3709   361   359    1
  3710   361   362    1
  3711   156   155    1
  3712   513   512   ar
  3713   513   515   ar
  3714   180   178    1
  3715   180   181    1
  3716  1691  1698   ar
  3717  1546  1524    2
  3718  1437  1438    1
  3719  1514  1515   ar
  3720  1668  1674   ar
  3721  1671  1672   ar
  3722  1545  1524    1
  3723   368   366   ar
  3724   505   506    1
  3725   505   503    1
  3726   534   533    1
  3727   533   532   ar
  3728  1524  1526    1
  3729  1384  1387   ar
  3730   540   537   ar
  3731  1694  1695   ar
  3732   587   586   ar
  3733   587   581   ar
  3734   219   198    2
  3735  1666  1665    1
  3736   359   360    1
  3737  1682  1683    1
  3738   537   538   ar
  3739  1338  1333    1
  3740  1338  1336    1
  3741  1520  1518   ar
  3742  1333  1332    1
  3743   512   519   ar
  3744  1438  1436    1
  3745   362   363   ar
  3746   159   157    1
  3747   159   160    1
  3748   340   341    1
  3749   340   339   ar
  3750  1359  1366   ar
  3751  1359  1358    1
  3752  1331  1330    1
  3753  1683  1681    1
  3754   557   556   ar
  3755   515   516   ar
  3756  1418  1417    1
  3757   178   176    1
  3758   560   561    1
  3759   560   555   ar
  3760   580   581   ar
  3761   580   578   ar
  3762  1401  1399    1
  3763  1401  1396    1
  3764   198   181    1
  3765   198   218    1
  3766   345   339   ar
  3767   345   346    2
  3768   157   155    1
  3769   157   158    1
  3770   374   373    1
  3771   586   585   ar
  3772  1389  1378    1
  3773  1389  1388   ar
  3774   153   155    1
  3775   176   177    1
  3776   581   582   ar
  3777  1378  1376    1
  3778  1378  1373    1
  3779   503   504    1
  3780  1515  1516    2
  3781  1515  1517   ar
  3782  1419  1417    1
  3783  1419  1420    1
  3784  1665  1667    1
  3785  1665  1663    1
  3786   532   538   ar
  3787  1377  1376    1
  3788  1698  1697   ar
  3789   197   175    2
  3790  1672  1673   ar
  3791  1672  1678   ar
  3792  1674  1675    2
  3793  1674  1673   ar
  3794   491   490   ar
  3795   491   492   ar
  3796   366   367    1
  3797   366   365   ar
  3798   519   518   ar
  3799   490   495   ar
  3800   538   539    2
  3801  1695  1697   ar
  3802  1695  1696    1
  3803  1387  1388   ar
  3804  1330  1332    1
  3805  1518  1517   ar
  3806  1518  1519    1
  3807  1526  1525    1
  3808   516   518   ar
  3809   516   517    2
  3810   556   555   ar
  3811  1358  1353    1
  3812  1358  1356    1
  3813  1376  1374    1
  3814  1399  1400    1
  3815  1399  1397    1
  3816   373   375    1
  3817  1332  1334    1
  3818  1417  1415    1
  3819   579   578    1
  3820  1396  1395    1
  3821  1336  1334    1
  3822  1336  1337    1
  3823   363   365   ar
  3824   363   364    2
  3825   578   577   ar
  3826  1420  1436    1
  3827   177   175    1
  3828  1436  1457    2
  3829  1436  1456    1
  3830  1664  1681    1
  3831  1664  1663    1
  3832  1667  1678    1
  3833  1667  1662    1
  3834   504   502    1
  3835  1681  1699    2
  3836  1681  1700    1
  3837  1673  1676   ar
  3838  1373  1372    1
  3839  1525  1527    1
  3840  1334  1335    1
  3841   585   582   ar
  3842   158   175    1
  3843   492   493   ar
  3844  1678  1677   ar
  3845   582   583   ar
  3846   388   389   ar
  3847   388   386   ar
  3848   175   196    1
  3849  1353  1352    1
  3850  1663  1661    1
  3851   495   496    1
  3852   495   494   ar
  3853  1397  1395    1
  3854  1397  1398    1
  3855  1542  1543   ar
  3856  1542  1539   ar
  3857  1356  1357    1
  3858  1356  1354    1
  3859  1543  1544   ar
  3860   389   382   ar
  3861  1416  1415    1
  3862  1416  1414    1
  3863  1395  1393    1
  3864   387   386    1
  3865   577   583   ar
  3866  1394  1393    1
  3867  1394  1392    1
  3868   375   376    1
  3869   375   377    1
  3870  1374  1372    1
  3871  1374  1375    1
  3872  1528  1527    1
  3873  1528  1533    1
  3874  1662  1661    1
  3875   493   494   ar
  3876   493   499   ar
  3877  1661  1659    1
  3878  1372  1370    1
  3879   376   381    1
  3880   386   385   ar
  3881  1368  1349    2
  3882   583   584    2
  3883  1541  1540    2
  3884  1676  1677   ar
  3885  1527  1529    1
  3886   494   497   ar
  3887   520   502    2
  3888   488   487    1
  3889  1435  1414    2
  3890   411   392    2
  3891   502   521    1
  3892   502   486    1
  3893  1335  1349    1
  3894  1539  1540   ar
  3895  1539  1538   ar
  3896   487   489    1
  3897   487   485    1
  3898  1398  1414    1
  3899   429   428    2
  3900  1352  1354    1
  3901  1352  1350    1
  3902  1354  1355    1
  3903  1544  1533    1
  3904  1544  1538   ar
  3905  1351  1349    1
  3906  1351  1350    1
  3907  1650  1649    2
  3908  1414  1434    1
  3909   377   378    1
  3910   377   379    1
  3911  1375  1392    1
  3912  1540  1534   ar
  3913   382   381    1
  3914   382   383   ar
  3915  1567  1547    2
  3916  1349  1367    1
  3917  1651  1649   ar
  3918  1651  1652   ar
  3919   486   485    1
  3920   469   468    1
  3921   378   392    1
  3922  1533  1531    1
  3923   499   489    1
  3924   499   498   ar
  3925  1392  1413    2
  3926  1392  1412    1
  3927  1538  1537   ar
  3928   381   379    1
  3929   392   410    1
  3930   392   394    1
  3931  1632  1631    2
  3932  1653  1652    1
  3933  1370  1371    1
  3934   489   484    1
  3935   485   483    1
  3936   497   498   ar
  3937  1568  1547    1
  3938  1529  1531    1
  3939  1529  1530    1
  3940  1649  1648   ar
  3941   385   383   ar
  3942  1371  1369    1
  3943  1659  1660    1
  3944   467   468   ar
  3945   467   473   ar
  3946   407   406    1
  3947   428   422   ar
  3948   428   427   ar
  3949  1652  1654   ar
  3950   383   384    2
  3951  1547  1530    1
  3952  1547  1549    1
  3953  1625  1631   ar
  3954  1625  1626   ar
  3955  1609  1608    2
  3956  1355  1369    1
  3957   474   473    2
  3958   379   380    1
  3959   468   470   ar
  3960  1534  1535   ar
  3961   422   423   ar
  3962   408   406   ar
  3963   408   409   ar
  3964  1531  1532    1
  3965  1631  1630   ar
  3966  1660  1658    1
  3967  1627  1626    1
  3968  1391  1369    2
  3969   473   472   ar
  3970  1586  1585    2
  3971  1537  1535   ar
  3972  1369  1390    1
  3973   406   405   ar
  3974  1646  1645    1
  3975   484   483    1
  3976  1535  1536    1
  3977  1648  1647    1
  3978  1648  1655   ar
  3979  1626  1628   ar
  3980   483   481    1
  3981   394   393    1
  3982   427   430   ar
  3983   427   426   ar
  3984  1645  1647    1
  3985  1645  1643    1
  3986   430   431   ar
  3987  1608  1602   ar
  3988  1608  1607   ar
  3989   409   402   ar
  3990   470   471   ar
  3991  1654  1655   ar
  3992  1647  1642    1
  3993  1549  1548    1
  3994   423   424    1
  3995   423   425   ar
  3996  1587  1584   ar
  3997  1587  1588   ar
  3998  1602  1603   ar
  3999  1585  1584   ar
  4000  1585  1579   ar
  4001   472   471   ar
  4002   472   475   ar
  4003  1630  1633   ar
  4004  1630  1629   ar
  4005  1548  1550    1
  4006  1658  1680    2
  4007  1658  1644    1
  4008  1658  1679    1
  4009   405   403   ar
  4010   482   481    1
  4011   482   480    1
  4012  1591  1569    2
  4013   471   477   ar
  4014   393   395    1
  4015   426   425   ar
  4016   426   432   ar
  4017  1628  1629   ar
  4018  1584  1583   ar
  4019  1643  1644    1
  4020  1643  1641    1
  4021   431   432   ar
  4022  1607  1610   ar
  4023  1607  1606   ar
  4024  1610  1611   ar
  4025  1633  1634   ar
  4026  1588  1589   ar
  4027   402   403   ar
  4028   402   401    1
  4029  1629  1635   ar
  4030   451   450    1
  4031  1579  1580   ar
  4032   475   476   ar
  4033   434   412    2
  4034  1642  1641    1
  4035  1603  1604    1
  4036  1603  1605   ar
  4037  1590  1569    1
  4038   501   480    2
  4039   403   404    2
  4040   432   421    1
  4041   396   395    1
  4042   396   401    1
  4043  1569  1571    1
  4044  1569  1553    1
  4045   480   500    1
  4046   480   463    1
  4047   477   476   ar
  4048   477   466    1
  4049   395   397    1
  4050  1550  1551    1
  4051  1550  1552    1
  4052  1641  1639    1
  4053   464   465    1
  4054   464   466    1
  4055   464   462    1
  4056  1583  1589   ar
  4057  1583  1582   ar
  4058   401   399    1
  4059  1606  1605   ar
  4060  1606  1612   ar
  4061   397   399    1
  4062   397   398    1
  4063  1611  1612   ar
  4064  1634  1635   ar
  4065  1589  1578    1
  4066  1564  1565   ar
  4067  1564  1561   ar
  4068  1565  1566   ar
  4069   450   445   ar
  4070   450   449   ar
  4071  1635  1624    1
  4072  1570  1571    1
  4073  1570  1572    1
  4074  1551  1556    1
  4075  1552  1553    1
  4076  1552  1554    1
  4077  1614  1592    2
  4078  1580  1582   ar
  4079  1580  1581    1
  4080   466   461    1
  4081   412   398    1
  4082   412   414    1
  4083   412   433    1
  4084   462   463    1
  4085   462   460    1
  4086   399   400    1
  4087   445   446   ar
  4088   452   449   ar
  4089   452   453   ar
  4090   421   419    1
  4091   421   416    1
  4092  1612  1601    1
  4093   456   435    2
  4094   414   413    1
  4095  1640  1639    1
  4096  1640  1638    1
  4097   449   448   ar
  4098  1566  1556    1
  4099  1566  1560   ar
  4100   419   417    1
  4101   419   420    1
  4102  1561  1562   ar
  4103  1561  1560   ar
  4104  1563  1562    1
  4105  1573  1572    1
  4106  1573  1578    1
  4107  1556  1554    1
  4108  1572  1574    1
  4109  1578  1576    1
  4110  1574  1576    1
  4111  1574  1575    1
  4112  1624  1622    1
  4113  1624  1619    1
  4114   416   415    1
  4115  1622  1620    1
  4116  1622  1623    1
  4117   417   415    1
  4118   417   418    1
  4119  1562  1557   ar
  4120  1554  1555    1
  4121  1637  1615    2
  4122  1560  1559   ar
  4123   461   460    1
  4124  1657  1638    2
  4125   453   454   ar
  4126  1592  1594    1
  4127  1592  1575    1
  4128  1592  1613    1
  4129   446   447   ar
  4130  1576  1577    1
  4131   460   458    1
  4132  1594  1593    1
  4133  1620  1621    1
  4134  1620  1618    1
  4135  1638  1621    1
  4136  1638  1656    1
  4137   413   415    1
  4138   448   454   ar
  4139   448   447   ar
  4140  1601  1599    1
  4141  1601  1596    1
  4142   435   418    1
  4143   435   437    1
  4144   435   455    1
  4145   459   458    1
  4146   459   457    1
  4147   479   457    2
  4148  1619  1618    1
  4149  1617  1615    1
  4150  1617  1616    1
  4151  1557  1558   ar
  4152  1599  1597    1
  4153  1599  1600    1
  4154  1559  1558   ar
  4155   454   444    1
  4156  1597  1595    1
  4157  1597  1598    1
  4158  1596  1595    1
  4159   437   436    1
  4160  1615  1598    1
  4161  1615  1636    1
  4162  1618  1616    1
  4163   457   478    1
  4164   457   441    1
  4165  1593  1595    1
  4166   440   442    1
  4167   440   441    1
  4168   440   438    1
  4169   444   442    1
  4170   444   439    1
  4171   442   443    1
  4172   436   438    1
  4173   439   438    1
