2o3v_lig
 OpenBabel02141814113D
libRbt.so/2013.1/901 2013/11/27
 35 37  0  0  0  0  0  0  0  0999 V2000
    2.1413   -8.9994   44.8436 C   0  0  2  0  0  0  0  0  0  0  0  0
    2.5455   -7.7659   44.1744 O   0  0  0  0  0  0  0  0  0  0  0  0
    6.2034   -6.3692   42.2780 C   0  0  2  0  0  0  0  0  0  0  0  0
    7.6050   -5.8834   42.0998 N   0  0  0  0  0  0  0  0  0  0  0  0
   -5.3517   -8.9809   48.8817 C   0  0  2  0  0  0  0  0  0  0  0  0
   -4.4604   -8.0924   49.5900 O   0  0  0  0  0  0  0  0  0  0  0  0
    0.5846   -8.9739   44.7235 C   0  0  2  0  0  0  0  0  0  0  0  0
    0.1573   -8.9216   43.3054 N   0  0  0  0  0  0  0  0  0  0  0  0
    5.3760   -5.3388   43.1606 C   0  0  0  0  0  0  0  0  0  0  0  0
   -4.5882   -9.5031   47.6157 C   0  0  2  0  0  0  0  0  0  0  0  0
   -3.3250  -10.1834   47.9985 N   0  0  0  0  0  0  0  0  0  0  0  0
   -0.0423   -7.7473   45.5185 C   0  0  1  0  0  0  0  0  0  0  0  0
   -1.5190   -7.7155   45.3551 O   0  0  0  0  0  0  0  0  0  0  0  0
    3.8938   -5.8844   43.3445 C   0  0  2  0  0  0  0  0  0  0  0  0
    3.1089   -4.9448   44.1737 N   0  0  0  0  0  0  0  0  0  0  0  0
   -4.2928   -8.3273   46.5838 C   0  0  1  0  0  0  0  0  0  0  0  0
   -3.6158   -8.7885   45.3864 O   0  0  0  0  0  0  0  0  0  0  0  0
    0.4442   -7.8606   47.0298 C   0  0  2  0  0  0  0  0  0  0  0  0
   -0.0480   -6.7893   47.8147 O   0  0  0  0  0  0  0  0  0  0  0  0
    3.9252   -7.3125   44.0292 C   0  0  2  0  0  0  0  0  0  0  0  0
   -5.6479   -7.6525   46.2005 C   0  0  2  0  0  0  0  0  0  0  0  0
   -5.4455   -6.5893   45.2904 O   0  0  0  0  0  0  0  0  0  0  0  0
    2.0180   -7.8984   47.1032 C   0  0  2  0  0  0  0  0  0  0  0  0
    2.5303   -9.0144   46.2806 O   0  0  0  0  0  0  0  0  0  0  0  0
    4.7415   -8.3122   43.1627 C   0  0  2  0  0  0  0  0  0  0  0  0
    4.7610   -9.5852   43.8698 O   0  0  0  0  0  0  0  0  0  0  0  0
   -6.3857   -7.1453   47.5034 C   0  0  2  0  0  0  0  0  0  0  0  0
   -6.5836   -8.2661   48.4509 O   0  0  0  0  0  0  0  0  0  0  0  0
    2.5111   -8.0446   48.5421 C   0  0  0  0  0  0  0  0  0  0  0  0
    3.9160   -8.0049   48.6029 O   0  0  0  0  0  0  0  0  0  0  0  0
    6.1832   -7.7835   42.9782 C   0  0  1  0  0  0  0  0  0  0  0  0
    6.9005   -8.7053   42.1846 O   0  0  0  0  0  0  0  0  0  0  0  0
   -7.7341   -6.5182   47.1831 C   0  0  0  0  0  0  0  0  0  0  0  0
   -8.3775   -6.1068   48.3649 O   0  0  0  0  0  0  0  0  0  0  0  0
   -2.2047   -9.0255   45.6652 C   0  0  0  0  0  0  0  0  0  0  0  0
  1  2  1  1  0  0  0
  1  7  1  0  0  0  0
  1 24  1  0  0  0  0
  3  4  1  1  0  0  0
  3  9  1  0  0  0  0
  3 31  1  0  0  0  0
  5  6  1  6  0  0  0
  5 10  1  0  0  0  0
  5 28  1  0  0  0  0
  7  8  1  6  0  0  0
  7 12  1  0  0  0  0
  9 14  1  0  0  0  0
 10 11  1  1  0  0  0
 10 16  1  0  0  0  0
 12 13  1  1  0  0  0
 12 18  1  0  0  0  0
 13 35  1  0  0  0  0
 14 15  1  1  0  0  0
 14 20  1  0  0  0  0
 16 17  1  6  0  0  0
 16 21  1  0  0  0  0
 17 35  1  0  0  0  0
 18 19  1  1  0  0  0
 18 23  1  0  0  0  0
 20  2  1  6  0  0  0
 20 25  1  0  0  0  0
 21 22  1  6  0  0  0
 21 27  1  0  0  0  0
 23 24  1  0  0  0  0
 23 29  1  1  0  0  0
 25 26  1  1  0  0  0
 25 31  1  0  0  0  0
 27 28  1  0  0  0  0
 27 33  1  6  0  0  0
 29 30  1  0  0  0  0
 31 32  1  6  0  0  0
 33 34  1  0  0  0  0
M  END
>  <CHROM.1>
179.28796724,51.43150217,-177.56978450,-76.77214392,-91.01205036,-175.68216038
-176.82707209,178.60830380,-0.04727043,-7.80469242,45.72928650,-0.33671603
-0.10730678,1.97217755

>  <Name>
2o3v_lig

>  <RI>
0

>  <Rbt.Current_Directory>
/home/afrankz/demos/rdock_decoys_rna/rnas/2o3v

>  <Rbt.Executable>
rbdock ($Id: //depot/dev/client3/rdock/2013.1/src/exe/rbdock.cxx#4 $)

>  <Rbt.Library>
libRbt.so (2013.1, Build901 2013/11/27)

>  <Rbt.Parameter_File>
/export/apps/rDock/src/rDock_2013.1_src/data/scripts/dock_solv.prm

>  <Rbt.Receptor>
prm/pocket_docking_2.prm

>  <SCORE>
-8.76332

>  <SCORE.INTER>
-4.33627

>  <SCORE.INTER.CONST>
1

>  <SCORE.INTER.POLAR>
0

>  <SCORE.INTER.ROT>
8

>  <SCORE.INTER.SOLV>
16.4549

>  <SCORE.INTER.VDW>
-17.3091

>  <SCORE.INTER.norm>
-0.123893

>  <SCORE.INTRA>
-4.44678

>  <SCORE.INTRA.DIHEDRAL>
-7.45759

>  <SCORE.INTRA.DIHEDRAL.0>
13.1227

>  <SCORE.INTRA.POLAR>
0

>  <SCORE.INTRA.POLAR.0>
0

>  <SCORE.INTRA.REPUL>
0

>  <SCORE.INTRA.REPUL.0>
0

>  <SCORE.INTRA.SOLV>
-0.173965

>  <SCORE.INTRA.SOLV.lig_0>
-89.1587

>  <SCORE.INTRA.VDW>
-0.631004

>  <SCORE.INTRA.VDW.0>
-0.838383

>  <SCORE.INTRA.norm>
-0.127051

>  <SCORE.RESTR>
0.0197306

>  <SCORE.RESTR.CAVITY>
0.0197306

>  <SCORE.RESTR.norm>
0.000563732

>  <SCORE.SYSTEM>
0

>  <SCORE.SYSTEM.CONST>
0

>  <SCORE.SYSTEM.DIHEDRAL>
0

>  <SCORE.SYSTEM.SOLV>
0

>  <SCORE.SYSTEM.norm>
0

>  <SCORE.heavy>
35

>  <SCORE.norm>
-0.25038

>  <RMSD>
0.819

$$$$
2o3v_lig
 OpenBabel02141814113D
libRbt.so/2013.1/901 2013/11/27
 35 37  0  0  0  0  0  0  0  0999 V2000
    1.9782   -8.7175   45.0555 C   0  0  2  0  0  0  0  0  0  0  0  0
    2.4689   -7.6705   44.1633 O   0  0  0  0  0  0  0  0  0  0  0  0
    6.2042   -6.4560   42.2926 C   0  0  2  0  0  0  0  0  0  0  0  0
    7.6283   -6.0366   42.1244 N   0  0  0  0  0  0  0  0  0  0  0  0
   -5.8126  -10.5529   47.6846 C   0  0  2  0  0  0  0  0  0  0  0  0
   -5.2958  -10.1746   48.9789 O   0  0  0  0  0  0  0  0  0  0  0  0
    0.4329   -8.6757   44.8345 C   0  0  2  0  0  0  0  0  0  0  0  0
    0.0879   -8.9212   43.4143 N   0  0  0  0  0  0  0  0  0  0  0  0
    5.4176   -5.3832   43.1619 C   0  0  0  0  0  0  0  0  0  0  0  0
   -4.8016  -10.0348   46.6040 C   0  0  2  0  0  0  0  0  0  0  0  0
   -3.4436  -10.5889   46.8360 N   0  0  0  0  0  0  0  0  0  0  0  0
   -0.1870   -7.2889   45.3056 C   0  0  1  0  0  0  0  0  0  0  0  0
   -1.6498   -7.2527   45.0461 O   0  0  0  0  0  0  0  0  0  0  0  0
    3.9101   -5.8584   43.3354 C   0  0  2  0  0  0  0  0  0  0  0  0
    3.1624   -4.8786   44.1523 N   0  0  0  0  0  0  0  0  0  0  0  0
   -4.7508   -8.4440   46.5647 C   0  0  1  0  0  0  0  0  0  0  0  0
   -3.8470   -7.9363   45.5498 O   0  0  0  0  0  0  0  0  0  0  0  0
    0.2096   -7.0844   46.8335 C   0  0  2  0  0  0  0  0  0  0  0  0
   -0.2817   -5.8550   47.3366 O   0  0  0  0  0  0  0  0  0  0  0  0
    3.8693   -7.2824   44.0281 C   0  0  2  0  0  0  0  0  0  0  0  0
   -6.1946   -7.9086   46.3051 C   0  0  2  0  0  0  0  0  0  0  0  0
   -6.2128   -6.4951   46.2704 O   0  0  0  0  0  0  0  0  0  0  0  0
    1.7740   -7.1488   47.0127 C   0  0  2  0  0  0  0  0  0  0  0  0
    2.2856   -8.4305   46.4837 O   0  0  0  0  0  0  0  0  0  0  0  0
    4.6460   -8.3238   43.1746 C   0  0  2  0  0  0  0  0  0  0  0  0
    4.6003   -9.5922   43.8889 O   0  0  0  0  0  0  0  0  0  0  0  0
   -7.1808   -8.4572   47.4122 C   0  0  2  0  0  0  0  0  0  0  0  0
   -7.1457   -9.9373   47.4436 O   0  0  0  0  0  0  0  0  0  0  0  0
    2.1798   -6.9923   48.4775 C   0  0  0  0  0  0  0  0  0  0  0  0
    3.5692   -7.1435   48.6375 O   0  0  0  0  0  0  0  0  0  0  0  0
    6.1122   -7.8636   43.0003 C   0  0  1  0  0  0  0  0  0  0  0  0
    6.7930   -8.8223   42.2183 O   0  0  0  0  0  0  0  0  0  0  0  0
   -8.6111   -7.9966   47.1753 C   0  0  0  0  0  0  0  0  0  0  0  0
   -8.7303   -6.6169   47.4248 O   0  0  0  0  0  0  0  0  0  0  0  0
   -2.4632   -8.1373   45.9617 C   0  0  0  0  0  0  0  0  0  0  0  0
  1  2  1  6  0  0  0
  1  7  1  0  0  0  0
  1 24  1  0  0  0  0
  3  4  1  1  0  0  0
  3  9  1  0  0  0  0
  3 31  1  0  0  0  0
  5  6  1  1  0  0  0
  5 10  1  0  0  0  0
  5 28  1  0  0  0  0
  7  8  1  6  0  0  0
  7 12  1  0  0  0  0
  9 14  1  0  0  0  0
 10 11  1  1  0  0  0
 10 16  1  0  0  0  0
 12 13  1  1  0  0  0
 12 18  1  0  0  0  0
 13 35  1  0  0  0  0
 14 15  1  1  0  0  0
 14 20  1  0  0  0  0
 16 17  1  6  0  0  0
 16 21  1  0  0  0  0
 17 35  1  0  0  0  0
 18 19  1  6  0  0  0
 18 23  1  0  0  0  0
 20  2  1  6  0  0  0
 20 25  1  0  0  0  0
 21 22  1  1  0  0  0
 21 27  1  0  0  0  0
 23 24  1  0  0  0  0
 23 29  1  1  0  0  0
 25 26  1  1  0  0  0
 25 31  1  0  0  0  0
 27 28  1  0  0  0  0
 27 33  1  6  0  0  0
 29 30  1  0  0  0  0
 31 32  1  6  0  0  0
 33 34  1  0  0  0  0
M  END
>  <CHROM.1>
178.19686585,71.83540562,179.24095030,-73.33874046,-164.82594973,-162.55363418
175.91936796,-70.29633623,-0.31446145,-7.85798199,45.58321207,-0.31552407
-0.03900450,2.05348726

>  <Name>
2o3v_lig

>  <RI>
0

>  <Rbt.Current_Directory>
/home/afrankz/demos/rdock_decoys_rna/rnas/2o3v

>  <Rbt.Executable>
rbdock ($Id: //depot/dev/client3/rdock/2013.1/src/exe/rbdock.cxx#4 $)

>  <Rbt.Library>
libRbt.so (2013.1, Build901 2013/11/27)

>  <Rbt.Parameter_File>
/export/apps/rDock/src/rDock_2013.1_src/data/scripts/dock_solv.prm

>  <Rbt.Receptor>
prm/pocket_docking_2.prm

>  <SCORE>
-8.50037

>  <SCORE.INTER>
-3.54631

>  <SCORE.INTER.CONST>
1

>  <SCORE.INTER.POLAR>
0

>  <SCORE.INTER.ROT>
8

>  <SCORE.INTER.SOLV>
15.9739

>  <SCORE.INTER.VDW>
-16.6222

>  <SCORE.INTER.norm>
-0.101323

>  <SCORE.INTRA>
-4.95406

>  <SCORE.INTRA.DIHEDRAL>
-8.64259

>  <SCORE.INTRA.DIHEDRAL.0>
13.1227

>  <SCORE.INTRA.POLAR>
0

>  <SCORE.INTRA.POLAR.0>
0

>  <SCORE.INTRA.REPUL>
0

>  <SCORE.INTRA.REPUL.0>
0

>  <SCORE.INTRA.SOLV>
0.0633763

>  <SCORE.INTRA.SOLV.lig_0>
-89.1587

>  <SCORE.INTRA.VDW>
-0.664454

>  <SCORE.INTRA.VDW.0>
-0.838383

>  <SCORE.INTRA.norm>
-0.141545

>  <SCORE.RESTR>
0

>  <SCORE.RESTR.CAVITY>
0

>  <SCORE.RESTR.norm>
0

>  <SCORE.SYSTEM>
0

>  <SCORE.SYSTEM.CONST>
0

>  <SCORE.SYSTEM.DIHEDRAL>
0

>  <SCORE.SYSTEM.SOLV>
0

>  <SCORE.SYSTEM.norm>
0

>  <SCORE.heavy>
35

>  <SCORE.norm>
-0.242868

>  <RMSD>
0.866

$$$$
2o3v_lig
 OpenBabel02141814113D
libRbt.so/2013.1/901 2013/11/27
 35 37  0  0  0  0  0  0  0  0999 V2000
    1.9368   -8.6890   44.9654 C   0  0  2  0  0  0  0  0  0  0  0  0
    2.4328   -7.5925   44.1381 O   0  0  0  0  0  0  0  0  0  0  0  0
    6.1960   -6.3970   42.3114 C   0  0  2  0  0  0  0  0  0  0  0  0
    7.6235   -5.9828   42.1602 N   0  0  0  0  0  0  0  0  0  0  0  0
   -5.8915  -10.4744   47.6650 C   0  0  2  0  0  0  0  0  0  0  0  0
   -5.2111  -10.2262   48.9144 O   0  0  0  0  0  0  0  0  0  0  0  0
    0.3898   -8.6095   44.7688 C   0  0  2  0  0  0  0  0  0  0  0  0
    0.0230   -8.7548   43.3403 N   0  0  0  0  0  0  0  0  0  0  0  0
    5.4016   -5.3184   43.1664 C   0  0  0  0  0  0  0  0  0  0  0  0
   -4.9367  -10.0148   46.5094 C   0  0  2  0  0  0  0  0  0  0  0  0
   -3.6362  -10.7284   46.5774 N   0  0  0  0  0  0  0  0  0  0  0  0
   -0.2021   -7.2480   45.3391 C   0  0  1  0  0  0  0  0  0  0  0  0
   -1.6673   -7.1726   45.1026 O   0  0  0  0  0  0  0  0  0  0  0  0
    3.8905   -5.7882   43.3221 C   0  0  2  0  0  0  0  0  0  0  0  0
    3.1354   -4.8028   44.1254 N   0  0  0  0  0  0  0  0  0  0  0  0
   -4.7055   -8.4398   46.5325 C   0  0  1  0  0  0  0  0  0  0  0  0
   -3.8516   -7.9821   45.4527 O   0  0  0  0  0  0  0  0  0  0  0  0
    0.2168   -7.1515   46.8717 C   0  0  2  0  0  0  0  0  0  0  0  0
   -0.2485   -5.9511   47.4619 O   0  0  0  0  0  0  0  0  0  0  0  0
    3.8361   -7.2094   44.0196 C   0  0  2  0  0  0  0  0  0  0  0  0
   -6.0957   -7.7338   46.4451 C   0  0  2  0  0  0  0  0  0  0  0  0
   -5.9528   -6.3272   46.4723 O   0  0  0  0  0  0  0  0  0  0  0  0
    1.7822   -7.2511   47.0249 C   0  0  2  0  0  0  0  0  0  0  0  0
    2.2667   -8.5024   46.4052 O   0  0  0  0  0  0  0  0  0  0  0  0
    4.6204   -8.2566   43.1802 C   0  0  2  0  0  0  0  0  0  0  0  0
    4.5614   -9.5220   43.8987 O   0  0  0  0  0  0  0  0  0  0  0  0
   -7.0269   -8.2279   47.6232 C   0  0  2  0  0  0  0  0  0  0  0  0
   -7.1611   -9.7022   47.5882 O   0  0  0  0  0  0  0  0  0  0  0  0
    2.2088   -7.1985   48.4912 C   0  0  0  0  0  0  0  0  0  0  0  0
    3.6097   -7.1511   48.6102 O   0  0  0  0  0  0  0  0  0  0  0  0
    6.0903   -7.8017   43.0233 C   0  0  1  0  0  0  0  0  0  0  0  0
    6.7781   -8.7655   42.2538 O   0  0  0  0  0  0  0  0  0  0  0  0
   -8.4102   -7.5988   47.5539 C   0  0  0  0  0  0  0  0  0  0  0  0
   -8.3192   -6.1991   47.6661 O   0  0  0  0  0  0  0  0  0  0  0  0
   -2.4571   -8.2858   45.7501 C   0  0  0  0  0  0  0  0  0  0  0  0
  1  2  1  6  0  0  0
  1  7  1  0  0  0  0
  1 24  1  0  0  0  0
  3  4  1  1  0  0  0
  3  9  1  0  0  0  0
  3 31  1  0  0  0  0
  5  6  1  1  0  0  0
  5 10  1  0  0  0  0
  5 28  1  0  0  0  0
  7  8  1  6  0  0  0
  7 12  1  0  0  0  0
  9 14  1  0  0  0  0
 10 11  1  1  0  0  0
 10 16  1  0  0  0  0
 12 13  1  1  0  0  0
 12 18  1  0  0  0  0
 13 35  1  0  0  0  0
 14 15  1  1  0  0  0
 14 20  1  0  0  0  0
 16 17  1  6  0  0  0
 16 21  1  0  0  0  0
 17 35  1  0  0  0  0
 18 19  1  6  0  0  0
 18 23  1  0  0  0  0
 20  2  1  6  0  0  0
 20 25  1  0  0  0  0
 21 22  1  1  0  0  0
 21 27  1  0  0  0  0
 23 24  1  0  0  0  0
 23 29  1  1  0  0  0
 25 26  1  1  0  0  0
 25 31  1  0  0  0  0
 27 28  1  0  0  0  0
 27 33  1  6  0  0  0
 29 30  1  0  0  0  0
 31 32  1  6  0  0  0
 33 34  1  0  0  0  0
M  END
>  <CHROM.1>
177.59263481,59.94755783,177.18990395,-76.77861884,-148.12698975,-166.53363992
-174.00904560,-61.16139094,-0.29732528,-7.80291395,45.60020621,-0.09042884
-0.31428105,-3.09450244

>  <Name>
2o3v_lig

>  <RI>
0

>  <Rbt.Current_Directory>
/home/afrankz/demos/rdock_decoys_rna/rnas/2o3v

>  <Rbt.Executable>
rbdock ($Id: //depot/dev/client3/rdock/2013.1/src/exe/rbdock.cxx#4 $)

>  <Rbt.Library>
libRbt.so (2013.1, Build901 2013/11/27)

>  <Rbt.Parameter_File>
/export/apps/rDock/src/rDock_2013.1_src/data/scripts/dock_solv.prm

>  <Rbt.Receptor>
prm/pocket_docking_2.prm

>  <SCORE>
-7.61435

>  <SCORE.INTER>
-3.52828

>  <SCORE.INTER.CONST>
1

>  <SCORE.INTER.POLAR>
0

>  <SCORE.INTER.ROT>
8

>  <SCORE.INTER.SOLV>
15.7639

>  <SCORE.INTER.VDW>
-16.5401

>  <SCORE.INTER.norm>
-0.100808

>  <SCORE.INTRA>
-4.08607

>  <SCORE.INTRA.DIHEDRAL>
-6.7564

>  <SCORE.INTRA.DIHEDRAL.0>
13.1227

>  <SCORE.INTRA.POLAR>
0

>  <SCORE.INTRA.POLAR.0>
0

>  <SCORE.INTRA.REPUL>
0

>  <SCORE.INTRA.REPUL.0>
0

>  <SCORE.INTRA.SOLV>
-0.0316704

>  <SCORE.INTRA.SOLV.lig_0>
-89.1587

>  <SCORE.INTRA.VDW>
-0.692035

>  <SCORE.INTRA.VDW.0>
-0.838383

>  <SCORE.INTRA.norm>
-0.116745

>  <SCORE.RESTR>
0

>  <SCORE.RESTR.CAVITY>
0

>  <SCORE.RESTR.norm>
0

>  <SCORE.SYSTEM>
0

>  <SCORE.SYSTEM.CONST>
0

>  <SCORE.SYSTEM.DIHEDRAL>
0

>  <SCORE.SYSTEM.SOLV>
0

>  <SCORE.SYSTEM.norm>
0

>  <SCORE.heavy>
35

>  <SCORE.norm>
-0.217553

>  <RMSD>
0.884

$$$$
2o3v_lig
 OpenBabel02141814113D
libRbt.so/2013.1/901 2013/11/27
 35 37  0  0  0  0  0  0  0  0999 V2000
    2.2646   -9.1193   44.6772 C   0  0  2  0  0  0  0  0  0  0  0  0
    2.6409   -7.8589   44.0427 O   0  0  0  0  0  0  0  0  0  0  0  0
    6.2800   -6.2475   42.2857 C   0  0  2  0  0  0  0  0  0  0  0  0
    7.6666   -5.7058   42.1578 N   0  0  0  0  0  0  0  0  0  0  0  0
   -5.7021   -8.8440   49.2445 C   0  0  2  0  0  0  0  0  0  0  0  0
   -4.8897   -8.0577   50.1431 O   0  0  0  0  0  0  0  0  0  0  0  0
    0.7331   -9.2177   44.3889 C   0  0  2  0  0  0  0  0  0  0  0  0
    0.4599   -9.2022   42.9324 N   0  0  0  0  0  0  0  0  0  0  0  0
    5.4016   -5.2900   43.2006 C   0  0  0  0  0  0  0  0  0  0  0  0
   -4.7803   -9.3159   48.0673 C   0  0  2  0  0  0  0  0  0  0  0  0
   -3.6196  -10.0893   48.5767 N   0  0  0  0  0  0  0  0  0  0  0  0
   -0.0712   -8.0432   45.0983 C   0  0  1  0  0  0  0  0  0  0  0  0
   -1.5193   -8.1291   44.7756 O   0  0  0  0  0  0  0  0  0  0  0  0
    3.9365   -5.8943   43.3298 C   0  0  2  0  0  0  0  0  0  0  0  0
    3.1048   -5.0234   44.1878 N   0  0  0  0  0  0  0  0  0  0  0  0
   -4.2827   -8.0878   47.1848 C   0  0  1  0  0  0  0  0  0  0  0  0
   -3.4541   -8.4991   46.0673 O   0  0  0  0  0  0  0  0  0  0  0  0
    0.2554   -8.1146   46.6545 C   0  0  2  0  0  0  0  0  0  0  0  0
   -0.4021   -7.0843   47.3701 O   0  0  0  0  0  0  0  0  0  0  0  0
    4.0061   -7.3521   43.9457 C   0  0  2  0  0  0  0  0  0  0  0  0
   -5.5344   -7.3148   46.6610 C   0  0  2  0  0  0  0  0  0  0  0  0
   -5.1518   -6.2025   45.8763 O   0  0  0  0  0  0  0  0  0  0  0  0
    1.8099   -8.0273   46.8984 C   0  0  2  0  0  0  0  0  0  0  0  0
    2.4949   -9.1006   46.1480 O   0  0  0  0  0  0  0  0  0  0  0  0
    4.8720   -8.2799   43.0482 C   0  0  2  0  0  0  0  0  0  0  0  0
    4.9239   -9.5844   43.6938 O   0  0  0  0  0  0  0  0  0  0  0  0
   -6.4370   -6.8619   47.8773 C   0  0  2  0  0  0  0  0  0  0  0  0
   -6.8233   -8.0346   48.6950 O   0  0  0  0  0  0  0  0  0  0  0  0
    2.1535   -8.1311   48.3837 C   0  0  0  0  0  0  0  0  0  0  0  0
    1.7176   -6.9925   49.0855 O   0  0  0  0  0  0  0  0  0  0  0  0
    6.2973   -7.6939   42.9169 C   0  0  1  0  0  0  0  0  0  0  0  0
    7.0602   -8.5510   42.0939 O   0  0  0  0  0  0  0  0  0  0  0  0
   -7.6936   -6.1413   47.4128 C   0  0  0  0  0  0  0  0  0  0  0  0
   -8.5507   -5.8974   48.5017 O   0  0  0  0  0  0  0  0  0  0  0  0
   -2.4227   -7.5012   45.8109 C   0  0  0  0  0  0  0  0  0  0  0  0
  1  2  1  6  0  0  0
  1  7  1  0  0  0  0
  1 24  1  0  0  0  0
  3  4  1  1  0  0  0
  3  9  1  0  0  0  0
  3 31  1  0  0  0  0
  5  6  1  1  0  0  0
  5 10  1  0  0  0  0
  5 28  1  0  0  0  0
  7  8  1  6  0  0  0
  7 12  1  0  0  0  0
  9 14  1  0  0  0  0
 10 11  1  1  0  0  0
 10 16  1  0  0  0  0
 12 13  1  1  0  0  0
 12 18  1  0  0  0  0
 13 35  1  0  0  0  0
 14 15  1  1  0  0  0
 14 20  1  0  0  0  0
 16 17  1  6  0  0  0
 16 21  1  0  0  0  0
 17 35  1  0  0  0  0
 18 19  1  1  0  0  0
 18 23  1  0  0  0  0
 20  2  1  6  0  0  0
 20 25  1  0  0  0  0
 21 22  1  1  0  0  0
 21 27  1  0  0  0  0
 23 24  1  0  0  0  0
 23 29  1  1  0  0  0
 25 26  1  1  0  0  0
 25 31  1  0  0  0  0
 27 28  1  0  0  0  0
 27 33  1  6  0  0  0
 29 30  1  0  0  0  0
 31 32  1  6  0  0  0
 33 34  1  0  0  0  0
M  END
>  <CHROM.1>
-175.32118201,154.50222650,-131.56522766,-145.48383249,172.10112537,-173.89916661
-68.60842079,172.81882009,-0.14633077,-7.70017733,45.79298929,-0.34611296
-0.20906023,2.13713786

>  <Name>
2o3v_lig

>  <RI>
0

>  <Rbt.Current_Directory>
/home/afrankz/demos/rdock_decoys_rna/rnas/2o3v

>  <Rbt.Executable>
rbdock ($Id: //depot/dev/client3/rdock/2013.1/src/exe/rbdock.cxx#4 $)

>  <Rbt.Library>
libRbt.so (2013.1, Build901 2013/11/27)

>  <Rbt.Parameter_File>
/export/apps/rDock/src/rDock_2013.1_src/data/scripts/dock_solv.prm

>  <Rbt.Receptor>
prm/pocket_docking_2.prm

>  <SCORE>
-4.25895

>  <SCORE.INTER>
-5.85086

>  <SCORE.INTER.CONST>
1

>  <SCORE.INTER.POLAR>
0

>  <SCORE.INTER.ROT>
8

>  <SCORE.INTER.SOLV>
19.4022

>  <SCORE.INTER.VDW>
-19.3013

>  <SCORE.INTER.norm>
-0.167167

>  <SCORE.INTRA>
1.53849

>  <SCORE.INTRA.DIHEDRAL>
1.70932

>  <SCORE.INTRA.DIHEDRAL.0>
13.1227

>  <SCORE.INTRA.POLAR>
0

>  <SCORE.INTRA.POLAR.0>
0

>  <SCORE.INTRA.REPUL>
0

>  <SCORE.INTRA.REPUL.0>
0

>  <SCORE.INTRA.SOLV>
-1.14213

>  <SCORE.INTRA.SOLV.lig_0>
-89.1587

>  <SCORE.INTRA.VDW>
1.25489

>  <SCORE.INTRA.VDW.0>
-0.838383

>  <SCORE.INTRA.norm>
0.0439567

>  <SCORE.RESTR>
0.0534212

>  <SCORE.RESTR.CAVITY>
0.0534212

>  <SCORE.RESTR.norm>
0.00152632

>  <SCORE.SYSTEM>
0

>  <SCORE.SYSTEM.CONST>
0

>  <SCORE.SYSTEM.DIHEDRAL>
0

>  <SCORE.SYSTEM.SOLV>
0

>  <SCORE.SYSTEM.norm>
0

>  <SCORE.heavy>
35

>  <SCORE.norm>
-0.121684

>  <RMSD>
0.905

$$$$
2o3v_lig
 OpenBabel02141814113D
libRbt.so/2013.1/901 2013/11/27
 35 37  0  0  0  0  0  0  0  0999 V2000
    2.1013   -8.8586   45.0468 C   0  0  2  0  0  0  0  0  0  0  0  0
    2.5263   -7.8428   44.0874 O   0  0  0  0  0  0  0  0  0  0  0  0
    6.1787   -6.3826   42.2286 C   0  0  2  0  0  0  0  0  0  0  0  0
    7.5642   -5.8476   42.0662 N   0  0  0  0  0  0  0  0  0  0  0  0
   -5.0270   -8.7597   48.1220 C   0  0  2  0  0  0  0  0  0  0  0  0
   -4.4119   -7.9375   49.1375 O   0  0  0  0  0  0  0  0  0  0  0  0
    0.5601   -8.9459   44.8108 C   0  0  2  0  0  0  0  0  0  0  0  0
    0.2528   -9.3140   43.4085 N   0  0  0  0  0  0  0  0  0  0  0  0
    5.2853   -5.3487   43.0399 C   0  0  0  0  0  0  0  0  0  0  0  0
   -4.2593   -8.5027   46.7792 C   0  0  2  0  0  0  0  0  0  0  0  0
   -2.8127   -8.8032   46.9268 N   0  0  0  0  0  0  0  0  0  0  0  0
   -0.1652   -7.5791   45.1783 C   0  0  1  0  0  0  0  0  0  0  0  0
   -1.6232   -7.6685   44.9050 O   0  0  0  0  0  0  0  0  0  0  0  0
    3.8215   -5.9463   43.2085 C   0  0  2  0  0  0  0  0  0  0  0  0
    2.9758   -5.0036   43.9719 N   0  0  0  0  0  0  0  0  0  0  0  0
   -4.4647   -7.0104   46.2638 C   0  0  1  0  0  0  0  0  0  0  0  0
   -3.7918   -6.7542   45.0043 O   0  0  0  0  0  0  0  0  0  0  0  0
    0.1951   -7.2405   46.6913 C   0  0  2  0  0  0  0  0  0  0  0  0
   -0.3910   -6.0186   47.1029 O   0  0  0  0  0  0  0  0  0  0  0  0
    3.8903   -7.3397   43.9589 C   0  0  2  0  0  0  0  0  0  0  0  0
   -5.9960   -6.7456   46.1106 C   0  0  2  0  0  0  0  0  0  0  0  0
   -6.2404   -5.4265   45.6636 O   0  0  0  0  0  0  0  0  0  0  0  0
    1.7575   -7.1771   46.8874 C   0  0  2  0  0  0  0  0  0  0  0  0
    2.3680   -8.4514   46.4538 O   0  0  0  0  0  0  0  0  0  0  0  0
    4.7708   -8.3426   43.1619 C   0  0  2  0  0  0  0  0  0  0  0  0
    4.8210   -9.5807   43.9273 O   0  0  0  0  0  0  0  0  0  0  0  0
   -6.7312   -7.0203   47.4829 C   0  0  2  0  0  0  0  0  0  0  0  0
   -6.4602   -8.4014   47.9435 O   0  0  0  0  0  0  0  0  0  0  0  0
    2.1313   -6.8900   48.3409 C   0  0  0  0  0  0  0  0  0  0  0  0
    1.9691   -8.0351   49.1416 O   0  0  0  0  0  0  0  0  0  0  0  0
    6.1949   -7.7635   42.9925 C   0  0  1  0  0  0  0  0  0  0  0  0
    6.9713   -8.6896   42.2619 O   0  0  0  0  0  0  0  0  0  0  0  0
   -8.2346   -6.8173   47.3709 C   0  0  0  0  0  0  0  0  0  0  0  0
   -8.7991   -7.7872   46.5220 O   0  0  0  0  0  0  0  0  0  0  0  0
   -2.3942   -6.4133   45.2402 C   0  0  0  0  0  0  0  0  0  0  0  0
  1  2  1  6  0  0  0
  1  7  1  0  0  0  0
  1 24  1  0  0  0  0
  3  4  1  1  0  0  0
  3  9  1  0  0  0  0
  3 31  1  0  0  0  0
  5  6  1  1  0  0  0
  5 10  1  0  0  0  0
  5 28  1  0  0  0  0
  7  8  1  6  0  0  0
  7 12  1  0  0  0  0
  9 14  1  0  0  0  0
 10 11  1  1  0  0  0
 10 16  1  0  0  0  0
 12 13  1  1  0  0  0
 12 18  1  0  0  0  0
 13 35  1  0  0  0  0
 14 15  1  1  0  0  0
 14 20  1  0  0  0  0
 16 17  1  6  0  0  0
 16 21  1  0  0  0  0
 17 35  1  0  0  0  0
 18 19  1  6  0  0  0
 18 23  1  0  0  0  0
 20  2  1  6  0  0  0
 20 25  1  0  0  0  0
 21 22  1  1  0  0  0
 21 27  1  0  0  0  0
 23 24  1  0  0  0  0
 23 29  1  1  0  0  0
 25 26  1  1  0  0  0
 25 31  1  0  0  0  0
 27 28  1  0  0  0  0
 27 33  1  6  0  0  0
 29 30  1  0  0  0  0
 31 32  1  6  0  0  0
 33 34  1  0  0  0  0
M  END
>  <CHROM.1>
176.62872501,179.41350009,-175.46521313,-83.99454535,102.30058874,-160.27323822
76.05752883,66.46392370,-0.21117938,-7.45595874,45.50196456,-0.29106122,-0.11073118
1.94139889

>  <Name>
2o3v_lig

>  <RI>
0

>  <Rbt.Current_Directory>
/home/afrankz/demos/rdock_decoys_rna/rnas/2o3v

>  <Rbt.Executable>
rbdock ($Id: //depot/dev/client3/rdock/2013.1/src/exe/rbdock.cxx#4 $)

>  <Rbt.Library>
libRbt.so (2013.1, Build901 2013/11/27)

>  <Rbt.Parameter_File>
/export/apps/rDock/src/rDock_2013.1_src/data/scripts/dock_solv.prm

>  <Rbt.Receptor>
prm/pocket_docking_2.prm

>  <SCORE>
-5.47325

>  <SCORE.INTER>
-4.68333

>  <SCORE.INTER.CONST>
1

>  <SCORE.INTER.POLAR>
0

>  <SCORE.INTER.ROT>
8

>  <SCORE.INTER.SOLV>
18.1495

>  <SCORE.INTER.VDW>
-18.1054

>  <SCORE.INTER.norm>
-0.13381

>  <SCORE.INTRA>
-0.899269

>  <SCORE.INTRA.DIHEDRAL>
-1.87342

>  <SCORE.INTRA.DIHEDRAL.0>
13.1227

>  <SCORE.INTRA.POLAR>
0

>  <SCORE.INTRA.POLAR.0>
0

>  <SCORE.INTRA.REPUL>
0

>  <SCORE.INTRA.REPUL.0>
0

>  <SCORE.INTRA.SOLV>
3.19743

>  <SCORE.INTRA.SOLV.lig_0>
-89.1587

>  <SCORE.INTRA.VDW>
-1.56127

>  <SCORE.INTRA.VDW.0>
-0.838383

>  <SCORE.INTRA.norm>
-0.0256934

>  <SCORE.RESTR>
0.109351

>  <SCORE.RESTR.CAVITY>
0.109351

>  <SCORE.RESTR.norm>
0.00312431

>  <SCORE.SYSTEM>
0

>  <SCORE.SYSTEM.CONST>
0

>  <SCORE.SYSTEM.DIHEDRAL>
0

>  <SCORE.SYSTEM.SOLV>
0

>  <SCORE.SYSTEM.norm>
0

>  <SCORE.heavy>
35

>  <SCORE.norm>
-0.156379

>  <RMSD>
0.917

$$$$
2o3v_lig
 OpenBabel02141814113D
libRbt.so/2013.1/901 2013/11/27
 35 37  0  0  0  0  0  0  0  0999 V2000
    1.9584   -8.5416   45.1793 C   0  0  2  0  0  0  0  0  0  0  0  0
    2.4477   -7.4728   44.3127 O   0  0  0  0  0  0  0  0  0  0  0  0
    6.1449   -6.4548   42.2580 C   0  0  2  0  0  0  0  0  0  0  0  0
    7.5763   -6.0986   42.0202 N   0  0  0  0  0  0  0  0  0  0  0  0
   -5.6126  -10.2344   48.1248 C   0  0  2  0  0  0  0  0  0  0  0  0
   -5.0013  -10.1160   49.4278 O   0  0  0  0  0  0  0  0  0  0  0  0
    0.4099   -8.3426   45.1475 C   0  0  2  0  0  0  0  0  0  0  0  0
   -0.1142   -8.4374   43.7646 N   0  0  0  0  0  0  0  0  0  0  0  0
    5.4407   -5.3318   43.1346 C   0  0  0  0  0  0  0  0  0  0  0  0
   -4.6487   -9.5586   47.0892 C   0  0  2  0  0  0  0  0  0  0  0  0
   -3.3040  -10.1876   47.1238 N   0  0  0  0  0  0  0  0  0  0  0  0
   -0.0130   -6.9494   45.7875 C   0  0  1  0  0  0  0  0  0  0  0  0
   -1.4847   -6.7601   45.7074 O   0  0  0  0  0  0  0  0  0  0  0  0
    3.9241   -5.7403   43.3826 C   0  0  2  0  0  0  0  0  0  0  0  0
    3.2527   -4.7128   44.2073 N   0  0  0  0  0  0  0  0  0  0  0  0
   -4.5323   -7.9899   47.3349 C   0  0  1  0  0  0  0  0  0  0  0  0
   -3.6717   -7.3330   46.3692 O   0  0  0  0  0  0  0  0  0  0  0  0
    0.5701   -6.9088   47.2681 C   0  0  2  0  0  0  0  0  0  0  0  0
    0.2623   -5.6861   47.9132 O   0  0  0  0  0  0  0  0  0  0  0  0
    3.8556   -7.1461   44.1094 C   0  0  2  0  0  0  0  0  0  0  0  0
   -5.9650   -7.3715   47.2757 C   0  0  2  0  0  0  0  0  0  0  0  0
   -5.9246   -5.9757   47.4986 O   0  0  0  0  0  0  0  0  0  0  0  0
    2.1306   -7.1285   47.2546 C   0  0  2  0  0  0  0  0  0  0  0  0
    2.4504   -8.4029   46.5777 O   0  0  0  0  0  0  0  0  0  0  0  0
    4.5518   -8.2370   43.2484 C   0  0  2  0  0  0  0  0  0  0  0  0
    4.4856   -9.4867   43.9933 O   0  0  0  0  0  0  0  0  0  0  0  0
   -6.9038   -8.0830   48.3301 C   0  0  2  0  0  0  0  0  0  0  0  0
   -6.9304   -9.5441   48.0908 O   0  0  0  0  0  0  0  0  0  0  0  0
    2.7110   -7.1311   48.6681 C   0  0  0  0  0  0  0  0  0  0  0  0
    4.1110   -7.2656   48.6409 O   0  0  0  0  0  0  0  0  0  0  0  0
    6.0266   -7.8419   43.0017 C   0  0  1  0  0  0  0  0  0  0  0  0
    6.6336   -8.8446   42.2141 O   0  0  0  0  0  0  0  0  0  0  0  0
   -8.3249   -7.5427   48.2788 C   0  0  0  0  0  0  0  0  0  0  0  0
   -8.8921   -7.7722   47.0117 O   0  0  0  0  0  0  0  0  0  0  0  0
   -2.2741   -7.6361   46.6518 C   0  0  0  0  0  0  0  0  0  0  0  0
  1  2  1  6  0  0  0
  1  7  1  0  0  0  0
  1 24  1  0  0  0  0
  3  4  1  1  0  0  0
  3  9  1  0  0  0  0
  3 31  1  0  0  0  0
  5  6  1  1  0  0  0
  5 10  1  0  0  0  0
  5 28  1  0  0  0  0
  7  8  1  6  0  0  0
  7 12  1  0  0  0  0
  9 14  1  0  0  0  0
 10 11  1  1  0  0  0
 10 16  1  0  0  0  0
 12 13  1  1  0  0  0
 12 18  1  0  0  0  0
 13 35  1  0  0  0  0
 14 15  1  1  0  0  0
 14 20  1  0  0  0  0
 16 17  1  6  0  0  0
 16 21  1  0  0  0  0
 17 35  1  0  0  0  0
 18 19  1  6  0  0  0
 18 23  1  0  0  0  0
 20  2  1  6  0  0  0
 20 25  1  0  0  0  0
 21 22  1  1  0  0  0
 21 27  1  0  0  0  0
 23 24  1  0  0  0  0
 23 29  1  1  0  0  0
 25 26  1  1  0  0  0
 25 31  1  0  0  0  0
 27 28  1  0  0  0  0
 27 33  1  6  0  0  0
 29 30  1  0  0  0  0
 31 32  1  6  0  0  0
 33 34  1  0  0  0  0
M  END
>  <CHROM.1>
173.91772790,72.10214090,-177.65751937,-74.00422711,-172.73028994,-167.02583816
-177.25808869,61.29248424,-0.18032636,-7.67224251,45.93236141,-0.35311577
0.06686404,1.67461778

>  <Name>
2o3v_lig

>  <RI>
0

>  <Rbt.Current_Directory>
/home/afrankz/demos/rdock_decoys_rna/rnas/2o3v

>  <Rbt.Executable>
rbdock ($Id: //depot/dev/client3/rdock/2013.1/src/exe/rbdock.cxx#4 $)

>  <Rbt.Library>
libRbt.so (2013.1, Build901 2013/11/27)

>  <Rbt.Parameter_File>
/export/apps/rDock/src/rDock_2013.1_src/data/scripts/dock_solv.prm

>  <Rbt.Receptor>
prm/pocket_docking_2.prm

>  <SCORE>
-9.21085

>  <SCORE.INTER>
-3.44571

>  <SCORE.INTER.CONST>
1

>  <SCORE.INTER.POLAR>
0

>  <SCORE.INTER.ROT>
8

>  <SCORE.INTER.SOLV>
14.7978

>  <SCORE.INTER.VDW>
-16.1631

>  <SCORE.INTER.norm>
-0.0984488

>  <SCORE.INTRA>
-5.76514

>  <SCORE.INTRA.DIHEDRAL>
-10.1495

>  <SCORE.INTRA.DIHEDRAL.0>
13.1227

>  <SCORE.INTRA.POLAR>
0

>  <SCORE.INTRA.POLAR.0>
0

>  <SCORE.INTRA.REPUL>
0

>  <SCORE.INTRA.REPUL.0>
0

>  <SCORE.INTRA.SOLV>
0.0410123

>  <SCORE.INTRA.SOLV.lig_0>
-89.1587

>  <SCORE.INTRA.VDW>
-0.710873

>  <SCORE.INTRA.VDW.0>
-0.838383

>  <SCORE.INTRA.norm>
-0.164718

>  <SCORE.RESTR>
0

>  <SCORE.RESTR.CAVITY>
0

>  <SCORE.RESTR.norm>
0

>  <SCORE.SYSTEM>
0

>  <SCORE.SYSTEM.CONST>
0

>  <SCORE.SYSTEM.DIHEDRAL>
0

>  <SCORE.SYSTEM.SOLV>
0

>  <SCORE.SYSTEM.norm>
0

>  <SCORE.heavy>
35

>  <SCORE.norm>
-0.263167

>  <RMSD>
0.938

$$$$
2o3v_lig
 OpenBabel02141814113D
libRbt.so/2013.1/901 2013/11/27
 35 37  0  0  0  0  0  0  0  0999 V2000
    1.9538   -8.6587   44.6510 C   0  0  2  0  0  0  0  0  0  0  0  0
    2.5468   -7.5774   43.8688 O   0  0  0  0  0  0  0  0  0  0  0  0
    6.4726   -6.3444   42.4561 C   0  0  2  0  0  0  0  0  0  0  0  0
    7.9114   -5.9420   42.4571 N   0  0  0  0  0  0  0  0  0  0  0  0
   -5.5174  -10.1568   47.4681 C   0  0  2  0  0  0  0  0  0  0  0  0
   -5.4939   -9.9853   48.9018 O   0  0  0  0  0  0  0  0  0  0  0  0
    0.4251   -8.4978   44.3758 C   0  0  2  0  0  0  0  0  0  0  0  0
    0.1271   -8.6042   42.9280 N   0  0  0  0  0  0  0  0  0  0  0  0
    5.6118   -5.2979   43.2863 C   0  0  0  0  0  0  0  0  0  0  0  0
   -4.0988   -9.7697   46.9241 C   0  0  2  0  0  0  0  0  0  0  0  0
   -3.0412  -10.5967   47.5585 N   0  0  0  0  0  0  0  0  0  0  0  0
   -0.1270   -7.1160   44.9373 C   0  0  1  0  0  0  0  0  0  0  0  0
   -1.5721   -6.9629   44.6265 O   0  0  0  0  0  0  0  0  0  0  0  0
    4.0889   -5.7550   43.2794 C   0  0  2  0  0  0  0  0  0  0  0  0
    3.2712   -4.7996   44.0573 N   0  0  0  0  0  0  0  0  0  0  0  0
   -3.7927   -8.2218   47.1365 C   0  0  1  0  0  0  0  0  0  0  0  0
   -2.4986   -7.8285   46.6117 O   0  0  0  0  0  0  0  0  0  0  0  0
    0.2151   -7.0625   46.4909 C   0  0  2  0  0  0  0  0  0  0  0  0
   -0.2199   -5.8483   47.0761 O   0  0  0  0  0  0  0  0  0  0  0  0
    3.9583   -7.2072   43.8986 C   0  0  2  0  0  0  0  0  0  0  0  0
   -4.9205   -7.3941   46.4424 C   0  0  2  0  0  0  0  0  0  0  0  0
   -4.7060   -6.0062   46.6079 O   0  0  0  0  0  0  0  0  0  0  0  0
    1.7633   -7.2437   46.7234 C   0  0  2  0  0  0  0  0  0  0  0  0
    2.2164   -8.5093   46.1088 O   0  0  0  0  0  0  0  0  0  0  0  0
    4.8079   -8.2230   43.0845 C   0  0  2  0  0  0  0  0  0  0  0  0
    4.6720   -9.5206   43.7317 O   0  0  0  0  0  0  0  0  0  0  0  0
   -6.3316   -7.8180   47.0155 C   0  0  2  0  0  0  0  0  0  0  0  0
   -6.5395   -9.2740   46.8436 O   0  0  0  0  0  0  0  0  0  0  0  0
    2.1143   -7.2334   48.2105 C   0  0  0  0  0  0  0  0  0  0  0  0
    1.8823   -5.9670   48.7773 O   0  0  0  0  0  0  0  0  0  0  0  0
    6.2898   -7.7801   43.0857 C   0  0  1  0  0  0  0  0  0  0  0  0
    7.0374   -8.7148   42.3363 O   0  0  0  0  0  0  0  0  0  0  0  0
   -7.4674   -7.0677   46.3365 C   0  0  0  0  0  0  0  0  0  0  0  0
   -8.6960   -7.3788   46.9478 O   0  0  0  0  0  0  0  0  0  0  0  0
   -2.4439   -8.0681   45.1748 C   0  0  0  0  0  0  0  0  0  0  0  0
  1  2  1  6  0  0  0
  1  7  1  0  0  0  0
  1 24  1  0  0  0  0
  3  4  1  1  0  0  0
  3  9  1  0  0  0  0
  3 31  1  0  0  0  0
  5  6  1  1  0  0  0
  5 10  1  0  0  0  0
  5 28  1  0  0  0  0
  7  8  1  6  0  0  0
  7 12  1  0  0  0  0
  9 14  1  0  0  0  0
 10 11  1  1  0  0  0
 10 16  1  0  0  0  0
 12 13  1  1  0  0  0
 12 18  1  0  0  0  0
 13 35  1  0  0  0  0
 14 15  1  1  0  0  0
 14 20  1  0  0  0  0
 16 17  1  6  0  0  0
 16 21  1  0  0  0  0
 17 35  1  0  0  0  0
 18 19  1  6  0  0  0
 18 23  1  0  0  0  0
 20  2  1  6  0  0  0
 20 25  1  0  0  0  0
 21 22  1  1  0  0  0
 21 27  1  0  0  0  0
 23 24  1  0  0  0  0
 23 29  1  1  0  0  0
 25 26  1  1  0  0  0
 25 31  1  0  0  0  0
 27 28  1  0  0  0  0
 27 33  1  6  0  0  0
 29 30  1  0  0  0  0
 31 32  1  6  0  0  0
 33 34  1  0  0  0  0
M  END
>  <CHROM.1>
173.25743402,58.01846295,72.90613207,61.13962062,146.39075637,-162.88906705
-67.00128277,-174.80865289,-0.05856084,-7.67112403,45.47626950,0.00788067
-0.33513582,-2.79782633

>  <Name>
2o3v_lig

>  <RI>
0

>  <Rbt.Current_Directory>
/home/afrankz/demos/rdock_decoys_rna/rnas/2o3v

>  <Rbt.Executable>
rbdock ($Id: //depot/dev/client3/rdock/2013.1/src/exe/rbdock.cxx#4 $)

>  <Rbt.Library>
libRbt.so (2013.1, Build901 2013/11/27)

>  <Rbt.Parameter_File>
/export/apps/rDock/src/rDock_2013.1_src/data/scripts/dock_solv.prm

>  <Rbt.Receptor>
prm/pocket_docking_2.prm

>  <SCORE>
-7.46217

>  <SCORE.INTER>
-4.88341

>  <SCORE.INTER.CONST>
1

>  <SCORE.INTER.POLAR>
0

>  <SCORE.INTER.ROT>
8

>  <SCORE.INTER.SOLV>
17.6911

>  <SCORE.INTER.VDW>
-18.086

>  <SCORE.INTER.norm>
-0.139526

>  <SCORE.INTRA>
-2.62979

>  <SCORE.INTRA.DIHEDRAL>
-6.13618

>  <SCORE.INTRA.DIHEDRAL.0>
13.1227

>  <SCORE.INTRA.POLAR>
0

>  <SCORE.INTRA.POLAR.0>
0

>  <SCORE.INTRA.REPUL>
0

>  <SCORE.INTRA.REPUL.0>
0

>  <SCORE.INTRA.SOLV>
0.44875

>  <SCORE.INTRA.SOLV.lig_0>
-89.1587

>  <SCORE.INTRA.VDW>
0.213932

>  <SCORE.INTRA.VDW.0>
-0.838383

>  <SCORE.INTRA.norm>
-0.0751367

>  <SCORE.RESTR>
0.0510298

>  <SCORE.RESTR.CAVITY>
0.0510298

>  <SCORE.RESTR.norm>
0.00145799

>  <SCORE.SYSTEM>
0

>  <SCORE.SYSTEM.CONST>
0

>  <SCORE.SYSTEM.DIHEDRAL>
0

>  <SCORE.SYSTEM.SOLV>
0

>  <SCORE.SYSTEM.norm>
0

>  <SCORE.heavy>
35

>  <SCORE.norm>
-0.213205

>  <RMSD>
0.943

$$$$
2o3v_lig
 OpenBabel02141814113D
libRbt.so/2013.1/901 2013/11/27
 35 37  0  0  0  0  0  0  0  0999 V2000
    1.8789   -8.7241   44.9107 C   0  0  2  0  0  0  0  0  0  0  0  0
    2.3979   -7.6327   44.0908 O   0  0  0  0  0  0  0  0  0  0  0  0
    6.2040   -6.4202   42.3673 C   0  0  2  0  0  0  0  0  0  0  0  0
    7.6350   -6.0058   42.2546 N   0  0  0  0  0  0  0  0  0  0  0  0
   -5.8941  -10.4352   47.4648 C   0  0  2  0  0  0  0  0  0  0  0  0
   -5.2622  -10.4806   48.7625 O   0  0  0  0  0  0  0  0  0  0  0  0
    0.3319   -8.5347   44.8147 C   0  0  2  0  0  0  0  0  0  0  0  0
   -0.1299   -8.6015   43.4081 N   0  0  0  0  0  0  0  0  0  0  0  0
    5.3905   -5.3506   43.2155 C   0  0  0  0  0  0  0  0  0  0  0  0
   -4.9037   -9.7179   46.4835 C   0  0  2  0  0  0  0  0  0  0  0  0
   -3.5983  -10.4238   46.4340 N   0  0  0  0  0  0  0  0  0  0  0  0
   -0.1295   -7.1591   45.4663 C   0  0  1  0  0  0  0  0  0  0  0  0
   -1.5977   -6.9778   45.3252 O   0  0  0  0  0  0  0  0  0  0  0  0
    3.8758   -5.8206   43.3301 C   0  0  2  0  0  0  0  0  0  0  0  0
    3.1026   -4.8437   44.1266 N   0  0  0  0  0  0  0  0  0  0  0  0
   -4.6920   -8.1901   46.8786 C   0  0  1  0  0  0  0  0  0  0  0  0
   -3.8050   -7.4925   45.9668 O   0  0  0  0  0  0  0  0  0  0  0  0
    0.3872   -7.1483   46.9718 C   0  0  2  0  0  0  0  0  0  0  0  0
    0.0419   -5.9426   47.6299 O   0  0  0  0  0  0  0  0  0  0  0  0
    3.8039   -7.2496   44.0099 C   0  0  2  0  0  0  0  0  0  0  0  0
   -6.0862   -7.4873   46.9042 C   0  0  2  0  0  0  0  0  0  0  0  0
   -5.9609   -6.1248   47.2609 O   0  0  0  0  0  0  0  0  0  0  0  0
    1.9484   -7.3574   47.0227 C   0  0  2  0  0  0  0  0  0  0  0  0
    2.3074   -8.6139   46.3323 O   0  0  0  0  0  0  0  0  0  0  0  0
    4.6070   -8.2879   43.1774 C   0  0  2  0  0  0  0  0  0  0  0  0
    4.5301   -9.5614   43.8797 O   0  0  0  0  0  0  0  0  0  0  0  0
   -7.0535   -8.2434   47.9002 C   0  0  2  0  0  0  0  0  0  0  0  0
   -7.1691   -9.6700   47.5205 O   0  0  0  0  0  0  0  0  0  0  0  0
    2.4657   -7.3883   48.4602 C   0  0  0  0  0  0  0  0  0  0  0  0
    2.2839   -6.1442   49.0911 O   0  0  0  0  0  0  0  0  0  0  0  0
    6.0805   -7.8328   43.0604 C   0  0  1  0  0  0  0  0  0  0  0  0
    6.7855   -8.7885   42.2964 O   0  0  0  0  0  0  0  0  0  0  0  0
   -8.4406   -7.6195   47.9258 C   0  0  0  0  0  0  0  0  0  0  0  0
   -8.3860   -6.3230   48.4698 O   0  0  0  0  0  0  0  0  0  0  0  0
   -2.4212   -7.8762   46.2180 C   0  0  0  0  0  0  0  0  0  0  0  0
  1  2  1  6  0  0  0
  1  7  1  0  0  0  0
  1 24  1  0  0  0  0
  3  4  1  1  0  0  0
  3  9  1  0  0  0  0
  3 31  1  0  0  0  0
  5  6  1  1  0  0  0
  5 10  1  0  0  0  0
  5 28  1  0  0  0  0
  7  8  1  6  0  0  0
  7 12  1  0  0  0  0
  9 14  1  0  0  0  0
 10 11  1  1  0  0  0
 10 16  1  0  0  0  0
 12 13  1  1  0  0  0
 12 18  1  0  0  0  0
 13 35  1  0  0  0  0
 14 15  1  1  0  0  0
 14 20  1  0  0  0  0
 16 17  1  6  0  0  0
 16 21  1  0  0  0  0
 17 35  1  0  0  0  0
 18 19  1  6  0  0  0
 18 23  1  0  0  0  0
 20  2  1  6  0  0  0
 20 25  1  0  0  0  0
 21 22  1  1  0  0  0
 21 27  1  0  0  0  0
 23 24  1  0  0  0  0
 23 29  1  1  0  0  0
 25 26  1  1  0  0  0
 25 31  1  0  0  0  0
 27 28  1  0  0  0  0
 27 33  1  6  0  0  0
 29 30  1  0  0  0  0
 31 32  1  6  0  0  0
 33 34  1  0  0  0  0
M  END
>  <CHROM.1>
170.68024430,72.34119437,177.41306863,-75.46359328,-173.81973770,-165.47296181
-65.21114529,-66.21027233,-0.32169265,-7.72634934,45.74039339,0.09821406
-0.33467487,-2.57394929

>  <Name>
2o3v_lig

>  <RI>
0

>  <Rbt.Current_Directory>
/home/afrankz/demos/rdock_decoys_rna/rnas/2o3v

>  <Rbt.Executable>
rbdock ($Id: //depot/dev/client3/rdock/2013.1/src/exe/rbdock.cxx#4 $)

>  <Rbt.Library>
libRbt.so (2013.1, Build901 2013/11/27)

>  <Rbt.Parameter_File>
/export/apps/rDock/src/rDock_2013.1_src/data/scripts/dock_solv.prm

>  <Rbt.Receptor>
prm/pocket_docking_2.prm

>  <SCORE>
-9.21299

>  <SCORE.INTER>
-4.12132

>  <SCORE.INTER.CONST>
1

>  <SCORE.INTER.POLAR>
0

>  <SCORE.INTER.ROT>
8

>  <SCORE.INTER.SOLV>
15.3992

>  <SCORE.INTER.VDW>
-16.8139

>  <SCORE.INTER.norm>
-0.117752

>  <SCORE.INTRA>
-5.09167

>  <SCORE.INTRA.DIHEDRAL>
-9.37419

>  <SCORE.INTRA.DIHEDRAL.0>
13.1227

>  <SCORE.INTRA.POLAR>
0

>  <SCORE.INTRA.POLAR.0>
0

>  <SCORE.INTRA.REPUL>
0

>  <SCORE.INTRA.REPUL.0>
0

>  <SCORE.INTRA.SOLV>
0.427383

>  <SCORE.INTRA.SOLV.lig_0>
-89.1587

>  <SCORE.INTRA.VDW>
-0.618266

>  <SCORE.INTRA.VDW.0>
-0.838383

>  <SCORE.INTRA.norm>
-0.145476

>  <SCORE.RESTR>
0

>  <SCORE.RESTR.CAVITY>
0

>  <SCORE.RESTR.norm>
0

>  <SCORE.SYSTEM>
0

>  <SCORE.SYSTEM.CONST>
0

>  <SCORE.SYSTEM.DIHEDRAL>
0

>  <SCORE.SYSTEM.SOLV>
0

>  <SCORE.SYSTEM.norm>
0

>  <SCORE.heavy>
35

>  <SCORE.norm>
-0.263228

>  <RMSD>
0.985

$$$$
2o3v_lig
 OpenBabel02141814113D
libRbt.so/2013.1/901 2013/11/27
 35 37  0  0  0  0  0  0  0  0999 V2000
    2.1282   -8.6322   45.3144 C   0  0  2  0  0  0  0  0  0  0  0  0
    2.5660   -7.7218   44.2597 O   0  0  0  0  0  0  0  0  0  0  0  0
    6.1734   -6.5137   42.1493 C   0  0  2  0  0  0  0  0  0  0  0  0
    7.5776   -6.0737   41.8904 N   0  0  0  0  0  0  0  0  0  0  0  0
   -4.9622   -9.5674   47.5347 C   0  0  2  0  0  0  0  0  0  0  0  0
   -4.0308   -9.2304   48.5857 O   0  0  0  0  0  0  0  0  0  0  0  0
    0.6045   -8.8079   45.0209 C   0  0  2  0  0  0  0  0  0  0  0  0
    0.3801   -9.3521   43.6608 N   0  0  0  0  0  0  0  0  0  0  0  0
    5.4090   -5.4209   43.0135 C   0  0  0  0  0  0  0  0  0  0  0  0
   -4.3844   -8.9979   46.1930 C   0  0  2  0  0  0  0  0  0  0  0  0
   -3.0303   -9.5436   45.9221 N   0  0  0  0  0  0  0  0  0  0  0  0
   -0.1840   -7.4367   45.1872 C   0  0  1  0  0  0  0  0  0  0  0  0
   -1.6227   -7.6156   44.8607 O   0  0  0  0  0  0  0  0  0  0  0  0
    3.9231   -5.9181   43.2844 C   0  0  2  0  0  0  0  0  0  0  0  0
    3.1968   -4.9196   44.0980 N   0  0  0  0  0  0  0  0  0  0  0  0
   -4.3483   -7.4062   46.1999 C   0  0  1  0  0  0  0  0  0  0  0  0
   -3.8486   -6.8508   44.9563 O   0  0  0  0  0  0  0  0  0  0  0  0
    0.0887   -6.9065   46.6631 C   0  0  2  0  0  0  0  0  0  0  0  0
   -0.5581   -5.6684   46.8970 O   0  0  0  0  0  0  0  0  0  0  0  0
    3.9488   -7.3122   44.0362 C   0  0  2  0  0  0  0  0  0  0  0  0
   -5.7926   -6.8792   46.4738 C   0  0  2  0  0  0  0  0  0  0  0  0
   -5.8199   -5.4657   46.5019 O   0  0  0  0  0  0  0  0  0  0  0  0
    1.6364   -6.7585   46.9209 C   0  0  2  0  0  0  0  0  0  0  0  0
    2.3104   -8.0502   46.6726 O   0  0  0  0  0  0  0  0  0  0  0  0
    4.7035   -8.3731   43.1870 C   0  0  2  0  0  0  0  0  0  0  0  0
    4.7221   -9.6109   43.9542 O   0  0  0  0  0  0  0  0  0  0  0  0
   -6.3380   -7.4799   47.8307 C   0  0  2  0  0  0  0  0  0  0  0  0
   -6.2960   -8.9596   47.7910 O   0  0  0  0  0  0  0  0  0  0  0  0
    1.9273   -6.2859   48.3445 C   0  0  0  0  0  0  0  0  0  0  0  0
    1.1857   -7.0237   49.2850 O   0  0  0  0  0  0  0  0  0  0  0  0
    6.1486   -7.8918   42.9181 C   0  0  1  0  0  0  0  0  0  0  0  0
    6.8093   -8.8690   42.1418 O   0  0  0  0  0  0  0  0  0  0  0  0
   -7.7618   -7.0282   48.1184 C   0  0  0  0  0  0  0  0  0  0  0  0
   -8.1469   -6.0161   47.2199 O   0  0  0  0  0  0  0  0  0  0  0  0
   -2.4739   -6.3957   45.1245 C   0  0  0  0  0  0  0  0  0  0  0  0
  1  2  1  6  0  0  0
  1  7  1  0  0  0  0
  1 24  1  0  0  0  0
  3  4  1  1  0  0  0
  3  9  1  0  0  0  0
  3 31  1  0  0  0  0
  5  6  1  1  0  0  0
  5 10  1  0  0  0  0
  5 28  1  0  0  0  0
  7  8  1  6  0  0  0
  7 12  1  0  0  0  0
  9 14  1  0  0  0  0
 10 11  1  1  0  0  0
 10 16  1  0  0  0  0
 12 13  1  1  0  0  0
 12 18  1  0  0  0  0
 13 35  1  0  0  0  0
 14 15  1  1  0  0  0
 14 20  1  0  0  0  0
 16 17  1  6  0  0  0
 16 21  1  0  0  0  0
 17 35  1  0  0  0  0
 18 19  1  6  0  0  0
 18 23  1  0  0  0  0
 20  2  1  6  0  0  0
 20 25  1  0  0  0  0
 21 22  1  1  0  0  0
 21 27  1  0  0  0  0
 23 24  1  0  0  0  0
 23 29  1  1  0  0  0
 25 26  1  1  0  0  0
 25 31  1  0  0  0  0
 27 28  1  0  0  0  0
 27 33  1  6  0  0  0
 29 30  1  0  0  0  0
 31 32  1  6  0  0  0
 33 34  1  0  0  0  0
M  END
>  <CHROM.1>
-175.52895438,174.21371265,-170.79580783,-103.38510735,86.52655637,-155.62278989
47.10112797,-9.86477568,-0.17418478,-7.45686895,45.52754425,-0.02456476,-0.33651687
3.11887880

>  <Name>
2o3v_lig

>  <RI>
0

>  <Rbt.Current_Directory>
/home/afrankz/demos/rdock_decoys_rna/rnas/2o3v

>  <Rbt.Executable>
rbdock ($Id: //depot/dev/client3/rdock/2013.1/src/exe/rbdock.cxx#4 $)

>  <Rbt.Library>
libRbt.so (2013.1, Build901 2013/11/27)

>  <Rbt.Parameter_File>
/export/apps/rDock/src/rDock_2013.1_src/data/scripts/dock_solv.prm

>  <Rbt.Receptor>
prm/pocket_docking_2.prm

>  <SCORE>
-0.917347

>  <SCORE.INTER>
-5.22296

>  <SCORE.INTER.CONST>
1

>  <SCORE.INTER.POLAR>
0

>  <SCORE.INTER.ROT>
8

>  <SCORE.INTER.SOLV>
17.3461

>  <SCORE.INTER.VDW>
-18.1973

>  <SCORE.INTER.norm>
-0.149228

>  <SCORE.INTRA>
4.0933

>  <SCORE.INTRA.DIHEDRAL>
4.50441

>  <SCORE.INTRA.DIHEDRAL.0>
13.1227

>  <SCORE.INTRA.POLAR>
0

>  <SCORE.INTRA.POLAR.0>
0

>  <SCORE.INTRA.REPUL>
0

>  <SCORE.INTRA.REPUL.0>
0

>  <SCORE.INTRA.SOLV>
3.09909

>  <SCORE.INTRA.SOLV.lig_0>
-89.1587

>  <SCORE.INTRA.VDW>
0.29155

>  <SCORE.INTRA.VDW.0>
-0.838383

>  <SCORE.INTRA.norm>
0.116951

>  <SCORE.RESTR>
0.21232

>  <SCORE.RESTR.CAVITY>
0.21232

>  <SCORE.RESTR.norm>
0.00606629

>  <SCORE.SYSTEM>
0

>  <SCORE.SYSTEM.CONST>
0

>  <SCORE.SYSTEM.DIHEDRAL>
0

>  <SCORE.SYSTEM.SOLV>
0

>  <SCORE.SYSTEM.norm>
0

>  <SCORE.heavy>
35

>  <SCORE.norm>
-0.0262099

>  <RMSD>
1.011

$$$$
2o3v_lig
 OpenBabel02141814113D
libRbt.so/2013.1/901 2013/11/27
 35 37  0  0  0  0  0  0  0  0999 V2000
    2.3234   -9.2158   44.6767 C   0  0  2  0  0  0  0  0  0  0  0  0
    2.6662   -7.9396   44.0550 O   0  0  0  0  0  0  0  0  0  0  0  0
    6.2631   -6.2333   42.3006 C   0  0  2  0  0  0  0  0  0  0  0  0
    7.6355   -5.6565   42.1736 N   0  0  0  0  0  0  0  0  0  0  0  0
   -5.8938   -8.5169   49.2363 C   0  0  2  0  0  0  0  0  0  0  0  0
   -5.0031   -7.9425   50.2172 O   0  0  0  0  0  0  0  0  0  0  0  0
    0.7831   -9.3213   44.4432 C   0  0  2  0  0  0  0  0  0  0  0  0
    0.4560   -9.2785   42.9984 N   0  0  0  0  0  0  0  0  0  0  0  0
    5.3610   -5.3001   43.2176 C   0  0  0  0  0  0  0  0  0  0  0  0
   -5.0094   -9.0886   48.0747 C   0  0  2  0  0  0  0  0  0  0  0  0
   -4.0387  -10.0887   48.5869 N   0  0  0  0  0  0  0  0  0  0  0  0
   -0.0034   -8.1684   45.2059 C   0  0  1  0  0  0  0  0  0  0  0  0
   -1.4617   -8.2599   44.9352 O   0  0  0  0  0  0  0  0  0  0  0  0
    3.9116   -5.9415   43.3458 C   0  0  2  0  0  0  0  0  0  0  0  0
    3.0584   -5.0936   44.2057 N   0  0  0  0  0  0  0  0  0  0  0  0
   -4.2486   -7.9289   47.2929 C   0  0  1  0  0  0  0  0  0  0  0  0
   -3.4480   -8.4270   46.1904 O   0  0  0  0  0  0  0  0  0  0  0  0
    0.3812   -8.2687   46.7472 C   0  0  2  0  0  0  0  0  0  0  0  0
   -0.2572   -7.2588   47.5078 O   0  0  0  0  0  0  0  0  0  0  0  0
    4.0182   -7.3982   43.9589 C   0  0  2  0  0  0  0  0  0  0  0  0
   -5.3079   -6.9117   46.7622 C   0  0  2  0  0  0  0  0  0  0  0  0
   -4.6866   -5.8495   46.0656 O   0  0  0  0  0  0  0  0  0  0  0  0
    1.9430   -8.1732   46.9354 C   0  0  2  0  0  0  0  0  0  0  0  0
    2.6080   -9.2252   46.1381 O   0  0  0  0  0  0  0  0  0  0  0  0
    4.9071   -8.3022   43.0593 C   0  0  2  0  0  0  0  0  0  0  0  0
    4.9920   -9.6061   43.7024 O   0  0  0  0  0  0  0  0  0  0  0  0
   -6.1792   -6.3643   47.9624 C   0  0  2  0  0  0  0  0  0  0  0  0
   -6.8169   -7.4867   48.6880 O   0  0  0  0  0  0  0  0  0  0  0  0
    2.3421   -8.3043   48.4045 C   0  0  0  0  0  0  0  0  0  0  0  0
    3.6990   -7.9838   48.5916 O   0  0  0  0  0  0  0  0  0  0  0  0
    6.3171   -7.6801   42.9290 C   0  0  1  0  0  0  0  0  0  0  0  0
    7.1012   -8.5160   42.1041 O   0  0  0  0  0  0  0  0  0  0  0  0
   -7.2561   -5.4006   47.4874 C   0  0  0  0  0  0  0  0  0  0  0  0
   -8.0578   -6.0069   46.5027 O   0  0  0  0  0  0  0  0  0  0  0  0
   -2.3248   -7.5323   45.9391 C   0  0  0  0  0  0  0  0  0  0  0  0
  1  2  1  1  0  0  0
  1  7  1  0  0  0  0
  1 24  1  0  0  0  0
  3  4  1  1  0  0  0
  3  9  1  0  0  0  0
  3 31  1  0  0  0  0
  5  6  1  1  0  0  0
  5 10  1  0  0  0  0
  5 28  1  0  0  0  0
  7  8  1  6  0  0  0
  7 12  1  0  0  0  0
  9 14  1  0  0  0  0
 10 11  1  1  0  0  0
 10 16  1  0  0  0  0
 12 13  1  1  0  0  0
 12 18  1  0  0  0  0
 13 35  1  0  0  0  0
 14 15  1  1  0  0  0
 14 20  1  0  0  0  0
 16 17  1  6  0  0  0
 16 21  1  0  0  0  0
 17 35  1  0  0  0  0
 18 19  1  1  0  0  0
 18 23  1  0  0  0  0
 20  2  1  6  0  0  0
 20 25  1  0  0  0  0
 21 22  1  1  0  0  0
 21 27  1  0  0  0  0
 23 24  1  0  0  0  0
 23 29  1  1  0  0  0
 25 26  1  1  0  0  0
 25 31  1  0  0  0  0
 27 28  1  0  0  0  0
 27 33  1  6  0  0  0
 29 30  1  0  0  0  0
 31 32  1  6  0  0  0
 33 34  1  0  0  0  0
M  END
>  <CHROM.1>
-177.51809875,160.74041516,-138.15181738,-152.30383556,171.39261901,-174.45959715
-169.55180242,55.19548326,-0.02127108,-7.68094840,45.76232318,-0.30003697
-0.23667405,2.20457915

>  <Name>
2o3v_lig

>  <RI>
0

>  <Rbt.Current_Directory>
/home/afrankz/demos/rdock_decoys_rna/rnas/2o3v

>  <Rbt.Executable>
rbdock ($Id: //depot/dev/client3/rdock/2013.1/src/exe/rbdock.cxx#4 $)

>  <Rbt.Library>
libRbt.so (2013.1, Build901 2013/11/27)

>  <Rbt.Parameter_File>
/export/apps/rDock/src/rDock_2013.1_src/data/scripts/dock_solv.prm

>  <Rbt.Receptor>
prm/pocket_docking_2.prm

>  <SCORE>
-6.00627

>  <SCORE.INTER>
-5.65489

>  <SCORE.INTER.CONST>
1

>  <SCORE.INTER.POLAR>
0

>  <SCORE.INTER.ROT>
8

>  <SCORE.INTER.SOLV>
18.9681

>  <SCORE.INTER.VDW>
-19.026

>  <SCORE.INTER.norm>
-0.161568

>  <SCORE.INTRA>
-0.372189

>  <SCORE.INTRA.DIHEDRAL>
-1.528

>  <SCORE.INTRA.DIHEDRAL.0>
13.1227

>  <SCORE.INTRA.POLAR>
0

>  <SCORE.INTRA.POLAR.0>
0

>  <SCORE.INTRA.REPUL>
0

>  <SCORE.INTRA.REPUL.0>
0

>  <SCORE.INTRA.SOLV>
-1.19384

>  <SCORE.INTRA.SOLV.lig_0>
-89.1587

>  <SCORE.INTRA.VDW>
0.988734

>  <SCORE.INTRA.VDW.0>
-0.838383

>  <SCORE.INTRA.norm>
-0.010634

>  <SCORE.RESTR>
0.020808

>  <SCORE.RESTR.CAVITY>
0.020808

>  <SCORE.RESTR.norm>
0.000594514

>  <SCORE.SYSTEM>
0

>  <SCORE.SYSTEM.CONST>
0

>  <SCORE.SYSTEM.DIHEDRAL>
0

>  <SCORE.SYSTEM.SOLV>
0

>  <SCORE.SYSTEM.norm>
0

>  <SCORE.heavy>
35

>  <SCORE.norm>
-0.171608

>  <RMSD>
1.019

$$$$
2o3v_lig
 OpenBabel02141814113D
libRbt.so/2013.1/901 2013/11/27
 35 37  0  0  0  0  0  0  0  0999 V2000
    1.9870   -8.6497   44.9962 C   0  0  2  0  0  0  0  0  0  0  0  0
    2.4923   -7.6962   44.0122 O   0  0  0  0  0  0  0  0  0  0  0  0
    6.2355   -6.3950   42.2170 C   0  0  2  0  0  0  0  0  0  0  0  0
    7.6510   -5.9376   42.0779 N   0  0  0  0  0  0  0  0  0  0  0  0
   -5.6758  -10.5747   47.4182 C   0  0  2  0  0  0  0  0  0  0  0  0
   -5.2766  -10.1304   48.7330 O   0  0  0  0  0  0  0  0  0  0  0  0
    0.4423   -8.6055   44.7715 C   0  0  2  0  0  0  0  0  0  0  0  0
    0.0925   -8.9749   43.3796 N   0  0  0  0  0  0  0  0  0  0  0  0
    5.3993   -5.3367   43.0573 C   0  0  0  0  0  0  0  0  0  0  0  0
   -4.6474   -9.9879   46.3904 C   0  0  2  0  0  0  0  0  0  0  0  0
   -3.2638  -10.4162   46.7178 N   0  0  0  0  0  0  0  0  0  0  0  0
   -0.1567   -7.1724   45.1132 C   0  0  1  0  0  0  0  0  0  0  0  0
   -1.6190   -7.1385   44.8507 O   0  0  0  0  0  0  0  0  0  0  0  0
    3.9019   -5.8522   43.2003 C   0  0  2  0  0  0  0  0  0  0  0  0
    3.1084   -4.8862   43.9899 N   0  0  0  0  0  0  0  0  0  0  0  0
   -4.7328   -8.3997   46.3185 C   0  0  1  0  0  0  0  0  0  0  0  0
   -3.8142   -7.8317   45.3499 O   0  0  0  0  0  0  0  0  0  0  0  0
    0.2441   -6.8347   46.6162 C   0  0  2  0  0  0  0  0  0  0  0  0
   -0.2286   -5.5572   47.0043 O   0  0  0  0  0  0  0  0  0  0  0  0
    3.8843   -7.2704   43.9058 C   0  0  2  0  0  0  0  0  0  0  0  0
   -6.1984   -7.9982   45.9588 C   0  0  2  0  0  0  0  0  0  0  0  0
   -6.3371   -6.5926   45.8912 O   0  0  0  0  0  0  0  0  0  0  0  0
    1.8075   -6.9054   46.8014 C   0  0  2  0  0  0  0  0  0  0  0  0
    2.2997   -8.2377   46.3923 O   0  0  0  0  0  0  0  0  0  0  0  0
    4.7094   -8.2975   43.0808 C   0  0  2  0  0  0  0  0  0  0  0  0
    4.6820   -9.5601   43.8062 O   0  0  0  0  0  0  0  0  0  0  0  0
   -7.2011   -8.6128   47.0152 C   0  0  2  0  0  0  0  0  0  0  0  0
   -7.0395  -10.0832   47.0820 O   0  0  0  0  0  0  0  0  0  0  0  0
    2.2167   -6.6215   48.2459 C   0  0  0  0  0  0  0  0  0  0  0  0
    1.5176   -7.4494   49.1429 O   0  0  0  0  0  0  0  0  0  0  0  0
    6.1660   -7.7981   42.9362 C   0  0  1  0  0  0  0  0  0  0  0  0
    6.8912   -8.7446   42.1796 O   0  0  0  0  0  0  0  0  0  0  0  0
   -8.6482   -8.2841   46.6807 C   0  0  0  0  0  0  0  0  0  0  0  0
   -8.8998   -6.9144   46.8819 O   0  0  0  0  0  0  0  0  0  0  0  0
   -2.4435   -7.9339   45.8355 C   0  0  0  0  0  0  0  0  0  0  0  0
  1  2  1  6  0  0  0
  1  7  1  0  0  0  0
  1 24  1  0  0  0  0
  3  4  1  1  0  0  0
  3  9  1  0  0  0  0
  3 31  1  0  0  0  0
  5  6  1  1  0  0  0
  5 10  1  0  0  0  0
  5 28  1  0  0  0  0
  7  8  1  6  0  0  0
  7 12  1  0  0  0  0
  9 14  1  0  0  0  0
 10 11  1  1  0  0  0
 10 16  1  0  0  0  0
 12 13  1  1  0  0  0
 12 18  1  0  0  0  0
 13 35  1  0  0  0  0
 14 15  1  1  0  0  0
 14 20  1  0  0  0  0
 16 17  1  6  0  0  0
 16 21  1  0  0  0  0
 17 35  1  0  0  0  0
 18 19  1  6  0  0  0
 18 23  1  0  0  0  0
 20  2  1  6  0  0  0
 20 25  1  0  0  0  0
 21 22  1  1  0  0  0
 21 27  1  0  0  0  0
 23 24  1  0  0  0  0
 23 29  1  1  0  0  0
 25 26  1  1  0  0  0
 25 31  1  0  0  0  0
 27 28  1  0  0  0  0
 27 33  1  6  0  0  0
 29 30  1  0  0  0  0
 31 32  1  6  0  0  0
 33 34  1  0  0  0  0
M  END
>  <CHROM.1>
173.56109639,71.29525873,-176.64619039,-71.88928392,-171.94259099,-155.97873904
52.78835959,-69.86532323,-0.35602173,-7.82365073,45.40793047,-0.29640397
0.09607637,1.67631190

>  <Name>
2o3v_lig

>  <RI>
0

>  <Rbt.Current_Directory>
/home/afrankz/demos/rdock_decoys_rna/rnas/2o3v

>  <Rbt.Executable>
rbdock ($Id: //depot/dev/client3/rdock/2013.1/src/exe/rbdock.cxx#4 $)

>  <Rbt.Library>
libRbt.so (2013.1, Build901 2013/11/27)

>  <Rbt.Parameter_File>
/export/apps/rDock/src/rDock_2013.1_src/data/scripts/dock_solv.prm

>  <Rbt.Receptor>
prm/pocket_docking_2.prm

>  <SCORE>
-8.04878

>  <SCORE.INTER>
-3.82392

>  <SCORE.INTER.CONST>
1

>  <SCORE.INTER.POLAR>
0

>  <SCORE.INTER.ROT>
8

>  <SCORE.INTER.SOLV>
17.1333

>  <SCORE.INTER.VDW>
-17.1937

>  <SCORE.INTER.norm>
-0.109255

>  <SCORE.INTRA>
-4.30515

>  <SCORE.INTRA.DIHEDRAL>
-8.20735

>  <SCORE.INTRA.DIHEDRAL.0>
13.1227

>  <SCORE.INTRA.POLAR>
0

>  <SCORE.INTRA.POLAR.0>
0

>  <SCORE.INTRA.REPUL>
0

>  <SCORE.INTRA.REPUL.0>
0

>  <SCORE.INTRA.SOLV>
0.964338

>  <SCORE.INTRA.SOLV.lig_0>
-89.1587

>  <SCORE.INTRA.VDW>
-0.683646

>  <SCORE.INTRA.VDW.0>
-0.838383

>  <SCORE.INTRA.norm>
-0.123004

>  <SCORE.RESTR>
0.080288

>  <SCORE.RESTR.CAVITY>
0.080288

>  <SCORE.RESTR.norm>
0.00229394

>  <SCORE.SYSTEM>
0

>  <SCORE.SYSTEM.CONST>
0

>  <SCORE.SYSTEM.DIHEDRAL>
0

>  <SCORE.SYSTEM.SOLV>
0

>  <SCORE.SYSTEM.norm>
0

>  <SCORE.heavy>
35

>  <SCORE.norm>
-0.229965

>  <RMSD>
1.021

$$$$
2o3v_lig
 OpenBabel02141814113D
libRbt.so/2013.1/901 2013/11/27
 35 37  0  0  0  0  0  0  0  0999 V2000
    1.9336   -8.6121   44.9975 C   0  0  2  0  0  0  0  0  0  0  0  0
    2.4359   -7.4794   44.2246 O   0  0  0  0  0  0  0  0  0  0  0  0
    6.1953   -6.4135   42.3120 C   0  0  2  0  0  0  0  0  0  0  0  0
    7.6301   -6.0394   42.1287 N   0  0  0  0  0  0  0  0  0  0  0  0
   -5.6161  -10.5410   47.6996 C   0  0  2  0  0  0  0  0  0  0  0  0
   -5.0317  -10.5461   49.0202 O   0  0  0  0  0  0  0  0  0  0  0  0
    0.3913   -8.3687   45.0214 C   0  0  2  0  0  0  0  0  0  0  0  0
   -0.1644   -8.3167   43.6485 N   0  0  0  0  0  0  0  0  0  0  0  0
    5.4445   -5.3003   43.1619 C   0  0  0  0  0  0  0  0  0  0  0  0
   -4.6313   -9.7730   46.7517 C   0  0  2  0  0  0  0  0  0  0  0  0
   -3.2876  -10.4049   46.7547 N   0  0  0  0  0  0  0  0  0  0  0  0
    0.0233   -7.0317   45.8003 C   0  0  1  0  0  0  0  0  0  0  0  0
   -1.4436   -6.7954   45.7734 O   0  0  0  0  0  0  0  0  0  0  0  0
    3.9248   -5.7278   43.3521 C   0  0  2  0  0  0  0  0  0  0  0  0
    3.2100   -4.7096   44.1514 N   0  0  0  0  0  0  0  0  0  0  0  0
   -4.5202   -8.2343   47.1454 C   0  0  1  0  0  0  0  0  0  0  0  0
   -3.6401   -7.4915   46.2631 O   0  0  0  0  0  0  0  0  0  0  0  0
    0.6382   -7.1485   47.2638 C   0  0  2  0  0  0  0  0  0  0  0  0
    0.3804   -5.9849   48.0290 O   0  0  0  0  0  0  0  0  0  0  0  0
    3.8463   -7.1351   44.0750 C   0  0  2  0  0  0  0  0  0  0  0  0
   -5.9515   -7.6106   47.1151 C   0  0  2  0  0  0  0  0  0  0  0  0
   -5.9159   -6.2419   47.4683 O   0  0  0  0  0  0  0  0  0  0  0  0
    2.1910   -7.4086   47.1926 C   0  0  2  0  0  0  0  0  0  0  0  0
    2.4586   -8.6209   46.3906 O   0  0  0  0  0  0  0  0  0  0  0  0
    4.5881   -8.2164   43.2403 C   0  0  2  0  0  0  0  0  0  0  0  0
    4.5093   -9.4676   43.9814 O   0  0  0  0  0  0  0  0  0  0  0  0
   -6.9116   -8.4160   48.0789 C   0  0  2  0  0  0  0  0  0  0  0  0
   -6.9330   -9.8482   47.7034 O   0  0  0  0  0  0  0  0  0  0  0  0
    2.8006   -7.5620   48.5853 C   0  0  0  0  0  0  0  0  0  0  0  0
    4.2042   -7.6276   48.5198 O   0  0  0  0  0  0  0  0  0  0  0  0
    6.0662   -7.8028   43.0498 C   0  0  1  0  0  0  0  0  0  0  0  0
    6.7149   -8.7971   42.2852 O   0  0  0  0  0  0  0  0  0  0  0  0
   -8.3314   -7.8707   48.0494 C   0  0  0  0  0  0  0  0  0  0  0  0
   -8.3624   -6.5546   48.5464 O   0  0  0  0  0  0  0  0  0  0  0  0
   -2.2476   -7.8019   46.5627 C   0  0  0  0  0  0  0  0  0  0  0  0
  1  2  1  6  0  0  0
  1  7  1  0  0  0  0
  1 24  1  0  0  0  0
  3  4  1  1  0  0  0
  3  9  1  0  0  0  0
  3 31  1  0  0  0  0
  5  6  1  1  0  0  0
  5 10  1  0  0  0  0
  5 28  1  0  0  0  0
  7  8  1  6  0  0  0
  7 12  1  0  0  0  0
  9 14  1  0  0  0  0
 10 11  1  1  0  0  0
 10 16  1  0  0  0  0
 12 13  1  1  0  0  0
 12 18  1  0  0  0  0
 13 35  1  0  0  0  0
 14 15  1  1  0  0  0
 14 20  1  0  0  0  0
 16 17  1  6  0  0  0
 16 21  1  0  0  0  0
 17 35  1  0  0  0  0
 18 19  1  1  0  0  0
 18 23  1  0  0  0  0
 20  2  1  6  0  0  0
 20 25  1  0  0  0  0
 21 22  1  1  0  0  0
 21 27  1  0  0  0  0
 23 24  1  0  0  0  0
 23 29  1  1  0  0  0
 25 26  1  1  0  0  0
 25 31  1  0  0  0  0
 27 28  1  0  0  0  0
 27 33  1  6  0  0  0
 29 30  1  0  0  0  0
 31 32  1  6  0  0  0
 33 34  1  0  0  0  0
M  END
>  <CHROM.1>
170.70643283,67.55600844,-172.92184056,-75.14637134,-169.83528075,-171.49747181
-172.69010511,-64.26636665,-0.14218239,-7.77362303,45.87987517,-0.20680054
-0.29584619,2.81956934

>  <Name>
2o3v_lig

>  <RI>
0

>  <Rbt.Current_Directory>
/home/afrankz/demos/rdock_decoys_rna/rnas/2o3v

>  <Rbt.Executable>
rbdock ($Id: //depot/dev/client3/rdock/2013.1/src/exe/rbdock.cxx#4 $)

>  <Rbt.Library>
libRbt.so (2013.1, Build901 2013/11/27)

>  <Rbt.Parameter_File>
/export/apps/rDock/src/rDock_2013.1_src/data/scripts/dock_solv.prm

>  <Rbt.Receptor>
prm/pocket_docking_2.prm

>  <SCORE>
-9.09938

>  <SCORE.INTER>
-3.49046

>  <SCORE.INTER.CONST>
1

>  <SCORE.INTER.POLAR>
0

>  <SCORE.INTER.ROT>
8

>  <SCORE.INTER.SOLV>
13.9971

>  <SCORE.INTER.VDW>
-15.926

>  <SCORE.INTER.norm>
-0.0997275

>  <SCORE.INTRA>
-5.60892

>  <SCORE.INTRA.DIHEDRAL>
-9.95449

>  <SCORE.INTRA.DIHEDRAL.0>
13.1227

>  <SCORE.INTRA.POLAR>
0

>  <SCORE.INTRA.POLAR.0>
0

>  <SCORE.INTRA.REPUL>
0

>  <SCORE.INTRA.REPUL.0>
0

>  <SCORE.INTRA.SOLV>
-0.0178001

>  <SCORE.INTRA.SOLV.lig_0>
-89.1587

>  <SCORE.INTRA.VDW>
-0.62277

>  <SCORE.INTRA.VDW.0>
-0.838383

>  <SCORE.INTRA.norm>
-0.160255

>  <SCORE.RESTR>
0

>  <SCORE.RESTR.CAVITY>
0

>  <SCORE.RESTR.norm>
0

>  <SCORE.SYSTEM>
0

>  <SCORE.SYSTEM.CONST>
0

>  <SCORE.SYSTEM.DIHEDRAL>
0

>  <SCORE.SYSTEM.SOLV>
0

>  <SCORE.SYSTEM.norm>
0

>  <SCORE.heavy>
35

>  <SCORE.norm>
-0.259982

>  <RMSD>
1.021

$$$$
2o3v_lig
 OpenBabel02141814113D
libRbt.so/2013.1/901 2013/11/27
 35 37  0  0  0  0  0  0  0  0999 V2000
    2.2587   -8.6046   45.1960 C   0  0  2  0  0  0  0  0  0  0  0  0
    2.7003   -7.5979   44.2346 O   0  0  0  0  0  0  0  0  0  0  0  0
    6.3183   -6.4283   42.1204 C   0  0  2  0  0  0  0  0  0  0  0  0
    7.7310   -6.0182   41.8590 N   0  0  0  0  0  0  0  0  0  0  0  0
   -5.4859  -10.0693   48.3599 C   0  0  2  0  0  0  0  0  0  0  0  0
   -4.6555  -10.1851   49.5357 O   0  0  0  0  0  0  0  0  0  0  0  0
    0.7050   -8.4492   45.1833 C   0  0  2  0  0  0  0  0  0  0  0  0
    0.1554   -8.6702   43.8248 N   0  0  0  0  0  0  0  0  0  0  0  0
    5.5907   -5.3393   43.0205 C   0  0  0  0  0  0  0  0  0  0  0  0
   -4.6008   -9.4640   47.2160 C   0  0  2  0  0  0  0  0  0  0  0  0
   -3.4062  -10.3089   46.9632 N   0  0  0  0  0  0  0  0  0  0  0  0
    0.2568   -7.0198   45.7175 C   0  0  1  0  0  0  0  0  0  0  0  0
   -1.2210   -6.8760   45.6557 O   0  0  0  0  0  0  0  0  0  0  0  0
    4.0950   -5.8048   43.2931 C   0  0  2  0  0  0  0  0  0  0  0  0
    3.4026   -4.8097   44.1398 N   0  0  0  0  0  0  0  0  0  0  0  0
   -4.1618   -7.9692   47.5442 C   0  0  1  0  0  0  0  0  0  0  0  0
   -3.3687   -7.3722   46.4862 O   0  0  0  0  0  0  0  0  0  0  0  0
    0.8687   -6.8432   47.1763 C   0  0  2  0  0  0  0  0  0  0  0  0
    0.5405   -5.5803   47.7269 O   0  0  0  0  0  0  0  0  0  0  0  0
    4.0913   -7.2184   44.0080 C   0  0  2  0  0  0  0  0  0  0  0  0
   -5.4478   -7.1175   47.7881 C   0  0  2  0  0  0  0  0  0  0  0  0
   -5.1179   -5.7773   48.0957 O   0  0  0  0  0  0  0  0  0  0  0  0
    2.4342   -7.0227   47.1453 C   0  0  2  0  0  0  0  0  0  0  0  0
    2.7752   -8.3394   46.5669 O   0  0  0  0  0  0  0  0  0  0  0  0
    4.8100   -8.2758   43.1239 C   0  0  2  0  0  0  0  0  0  0  0  0
    4.8034   -9.5334   43.8583 O   0  0  0  0  0  0  0  0  0  0  0  0
   -6.3120   -7.7638   48.9435 C   0  0  2  0  0  0  0  0  0  0  0  0
   -6.6432   -9.1688   48.6128 O   0  0  0  0  0  0  0  0  0  0  0  0
    3.0432   -6.8948   48.5408 C   0  0  0  0  0  0  0  0  0  0  0  0
    2.5859   -7.9193   49.3893 O   0  0  0  0  0  0  0  0  0  0  0  0
    6.2646   -7.8251   42.8532 C   0  0  1  0  0  0  0  0  0  0  0  0
    6.8923   -8.7982   42.0451 O   0  0  0  0  0  0  0  0  0  0  0  0
   -7.5996   -6.9914   49.1877 C   0  0  0  0  0  0  0  0  0  0  0  0
   -8.4647   -7.1178   48.0851 O   0  0  0  0  0  0  0  0  0  0  0  0
   -1.9702   -7.7593   46.6256 C   0  0  0  0  0  0  0  0  0  0  0  0
  1  2  1  6  0  0  0
  1  7  1  0  0  0  0
  1 24  1  0  0  0  0
  3  4  1  1  0  0  0
  3  9  1  0  0  0  0
  3 31  1  0  0  0  0
  5  6  1  1  0  0  0
  5 10  1  0  0  0  0
  5 28  1  0  0  0  0
  7  8  1  6  0  0  0
  7 12  1  0  0  0  0
  9 14  1  0  0  0  0
 10 11  1  1  0  0  0
 10 16  1  0  0  0  0
 12 13  1  1  0  0  0
 12 18  1  0  0  0  0
 13 35  1  0  0  0  0
 14 15  1  1  0  0  0
 14 20  1  0  0  0  0
 16 17  1  6  0  0  0
 16 21  1  0  0  0  0
 17 35  1  0  0  0  0
 18 19  1  6  0  0  0
 18 23  1  0  0  0  0
 20  2  1  6  0  0  0
 20 25  1  0  0  0  0
 21 22  1  1  0  0  0
 21 27  1  0  0  0  0
 23 24  1  0  0  0  0
 23 29  1  1  0  0  0
 25 26  1  1  0  0  0
 25 31  1  0  0  0  0
 27 28  1  0  0  0  0
 27 33  1  6  0  0  0
 29 30  1  0  0  0  0
 31 32  1  6  0  0  0
 33 34  1  0  0  0  0
M  END
>  <CHROM.1>
171.60393424,68.34305628,174.88178022,-83.44451045,-169.21985045,-160.85260009
63.67405884,67.71689528,0.05978873,-7.63455098,46.04523258,0.05143304,-0.41480216
-2.82542975

>  <Name>
2o3v_lig

>  <RI>
0

>  <Rbt.Current_Directory>
/home/afrankz/demos/rdock_decoys_rna/rnas/2o3v

>  <Rbt.Executable>
rbdock ($Id: //depot/dev/client3/rdock/2013.1/src/exe/rbdock.cxx#4 $)

>  <Rbt.Library>
libRbt.so (2013.1, Build901 2013/11/27)

>  <Rbt.Parameter_File>
/export/apps/rDock/src/rDock_2013.1_src/data/scripts/dock_solv.prm

>  <Rbt.Receptor>
prm/pocket_docking_3.prm

>  <SCORE>
-9.76374

>  <SCORE.INTER>
-4.78308

>  <SCORE.INTER.CONST>
1

>  <SCORE.INTER.POLAR>
0

>  <SCORE.INTER.ROT>
8

>  <SCORE.INTER.SOLV>
16.8786

>  <SCORE.INTER.VDW>
-17.7482

>  <SCORE.INTER.norm>
-0.136659

>  <SCORE.INTRA>
-4.98066

>  <SCORE.INTRA.DIHEDRAL>
-7.39021

>  <SCORE.INTRA.DIHEDRAL.0>
13.1227

>  <SCORE.INTRA.POLAR>
0

>  <SCORE.INTRA.POLAR.0>
0

>  <SCORE.INTRA.REPUL>
0

>  <SCORE.INTRA.REPUL.0>
0

>  <SCORE.INTRA.SOLV>
0.471242

>  <SCORE.INTRA.SOLV.lig_0>
-89.1587

>  <SCORE.INTRA.VDW>
-1.52117

>  <SCORE.INTRA.VDW.0>
-0.838383

>  <SCORE.INTRA.norm>
-0.142304

>  <SCORE.RESTR>
0

>  <SCORE.RESTR.CAVITY>
0

>  <SCORE.RESTR.norm>
0

>  <SCORE.SYSTEM>
0

>  <SCORE.SYSTEM.CONST>
0

>  <SCORE.SYSTEM.DIHEDRAL>
0

>  <SCORE.SYSTEM.SOLV>
0

>  <SCORE.SYSTEM.norm>
0

>  <SCORE.heavy>
35

>  <SCORE.norm>
-0.278964

>  <RMSD>
1.035

$$$$
2o3v_lig
 OpenBabel02141814113D
libRbt.so/2013.1/901 2013/11/27
 35 37  0  0  0  0  0  0  0  0999 V2000
    1.8745   -8.8785   45.1960 C   0  0  2  0  0  0  0  0  0  0  0  0
    2.2963   -7.7803   44.3307 O   0  0  0  0  0  0  0  0  0  0  0  0
    5.9310   -6.4109   42.3708 C   0  0  2  0  0  0  0  0  0  0  0  0
    7.3333   -5.9369   42.1681 N   0  0  0  0  0  0  0  0  0  0  0  0
   -5.5906   -9.7871   46.8467 C   0  0  2  0  0  0  0  0  0  0  0  0
   -4.8325   -9.7593   48.0756 O   0  0  0  0  0  0  0  0  0  0  0  0
    0.3312   -8.9387   44.9652 C   0  0  2  0  0  0  0  0  0  0  0  0
    0.0118   -9.1753   43.5376 N   0  0  0  0  0  0  0  0  0  0  0  0
    5.1290   -5.3755   43.2710 C   0  0  0  0  0  0  0  0  0  0  0  0
   -4.7806   -8.9782   45.7753 C   0  0  2  0  0  0  0  0  0  0  0  0
   -3.4209   -9.5468   45.5944 N   0  0  0  0  0  0  0  0  0  0  0  0
   -0.3858   -7.6089   45.4624 C   0  0  1  0  0  0  0  0  0  0  0  0
   -1.8461   -7.6681   45.1936 O   0  0  0  0  0  0  0  0  0  0  0  0
    3.6457   -5.9086   43.4808 C   0  0  2  0  0  0  0  0  0  0  0  0
    2.8845   -4.9642   44.3266 N   0  0  0  0  0  0  0  0  0  0  0  0
   -4.6890   -7.4344   46.1534 C   0  0  1  0  0  0  0  0  0  0  0  0
   -3.9726   -6.6552   45.1613 O   0  0  0  0  0  0  0  0  0  0  0  0
   -0.0128   -7.4120   46.9972 C   0  0  2  0  0  0  0  0  0  0  0  0
   -0.5907   -6.2311   47.5239 O   0  0  0  0  0  0  0  0  0  0  0  0
    3.6771   -7.3387   44.1612 C   0  0  2  0  0  0  0  0  0  0  0  0
   -6.1387   -6.8781   46.3192 C   0  0  2  0  0  0  0  0  0  0  0  0
   -6.1194   -5.5077   46.6671 O   0  0  0  0  0  0  0  0  0  0  0  0
    1.5514   -7.3721   47.1859 C   0  0  2  0  0  0  0  0  0  0  0  0
    2.1534   -8.6032   46.6324 O   0  0  0  0  0  0  0  0  0  0  0  0
    4.4684   -8.3432   43.2774 C   0  0  2  0  0  0  0  0  0  0  0  0
    4.4897   -9.6182   43.9810 O   0  0  0  0  0  0  0  0  0  0  0  0
   -6.9203   -7.7231   47.4029 C   0  0  2  0  0  0  0  0  0  0  0  0
   -6.9256   -9.1564   47.0309 O   0  0  0  0  0  0  0  0  0  0  0  0
    1.9373   -7.2210   48.6567 C   0  0  0  0  0  0  0  0  0  0  0  0
    3.3268   -7.0566   48.8018 O   0  0  0  0  0  0  0  0  0  0  0  0
    5.9111   -7.8267   43.0678 C   0  0  1  0  0  0  0  0  0  0  0  0
    6.6055   -8.7527   42.2588 O   0  0  0  0  0  0  0  0  0  0  0  0
   -8.3548   -7.2446   47.5678 C   0  0  0  0  0  0  0  0  0  0  0  0
   -8.3848   -5.9973   48.2185 O   0  0  0  0  0  0  0  0  0  0  0  0
   -2.6010   -6.4233   45.5973 C   0  0  0  0  0  0  0  0  0  0  0  0
  1  2  1  6  0  0  0
  1  7  1  0  0  0  0
  1 24  1  0  0  0  0
  3  4  1  1  0  0  0
  3  9  1  0  0  0  0
  3 31  1  0  0  0  0
  5  6  1  1  0  0  0
  5 10  1  0  0  0  0
  5 28  1  0  0  0  0
  7  8  1  6  0  0  0
  7 12  1  0  0  0  0
  9 14  1  0  0  0  0
 10 11  1  1  0  0  0
 10 16  1  0  0  0  0
 12 13  1  1  0  0  0
 12 18  1  0  0  0  0
 13 35  1  0  0  0  0
 14 15  1  1  0  0  0
 14 20  1  0  0  0  0
 16 17  1  6  0  0  0
 16 21  1  0  0  0  0
 17 35  1  0  0  0  0
 18 19  1  6  0  0  0
 18 23  1  0  0  0  0
 20  2  1  6  0  0  0
 20 25  1  0  0  0  0
 21 22  1  1  0  0  0
 21 27  1  0  0  0  0
 23 24  1  0  0  0  0
 23 29  1  1  0  0  0
 25 26  1  1  0  0  0
 25 31  1  0  0  0  0
 27 28  1  0  0  0  0
 27 33  1  6  0  0  0
 29 30  1  0  0  0  0
 31 32  1  6  0  0  0
 33 34  1  0  0  0  0
M  END
>  <CHROM.1>
-178.44930937,-178.21470174,175.98217460,-99.70022679,83.50415688,-164.47243042
-174.29013152,-71.48268414,-0.38978897,-7.58688374,45.56038720,0.22374336
-0.18605579,-2.15081570

>  <Name>
2o3v_lig

>  <RI>
0

>  <Rbt.Current_Directory>
/home/afrankz/demos/rdock_decoys_rna/rnas/2o3v

>  <Rbt.Executable>
rbdock ($Id: //depot/dev/client3/rdock/2013.1/src/exe/rbdock.cxx#4 $)

>  <Rbt.Library>
libRbt.so (2013.1, Build901 2013/11/27)

>  <Rbt.Parameter_File>
/export/apps/rDock/src/rDock_2013.1_src/data/scripts/dock_solv.prm

>  <Rbt.Receptor>
prm/pocket_docking_2.prm

>  <SCORE>
-5.90699

>  <SCORE.INTER>
-3.89974

>  <SCORE.INTER.CONST>
1

>  <SCORE.INTER.POLAR>
0

>  <SCORE.INTER.ROT>
8

>  <SCORE.INTER.SOLV>
15.8973

>  <SCORE.INTER.VDW>
-16.8323

>  <SCORE.INTER.norm>
-0.111421

>  <SCORE.INTRA>
-2.03226

>  <SCORE.INTRA.DIHEDRAL>
-3.52301

>  <SCORE.INTRA.DIHEDRAL.0>
13.1227

>  <SCORE.INTRA.POLAR>
0

>  <SCORE.INTRA.POLAR.0>
0

>  <SCORE.INTRA.REPUL>
0

>  <SCORE.INTRA.REPUL.0>
0

>  <SCORE.INTRA.SOLV>
2.11208

>  <SCORE.INTRA.SOLV.lig_0>
-89.1587

>  <SCORE.INTRA.VDW>
-1.3268

>  <SCORE.INTRA.VDW.0>
-0.838383

>  <SCORE.INTRA.norm>
-0.0580646

>  <SCORE.RESTR>
0.0250163

>  <SCORE.RESTR.CAVITY>
0.0250163

>  <SCORE.RESTR.norm>
0.000714752

>  <SCORE.SYSTEM>
0

>  <SCORE.SYSTEM.CONST>
0

>  <SCORE.SYSTEM.DIHEDRAL>
0

>  <SCORE.SYSTEM.SOLV>
0

>  <SCORE.SYSTEM.norm>
0

>  <SCORE.heavy>
35

>  <SCORE.norm>
-0.168771

>  <RMSD>
1.048

$$$$
2o3v_lig
 OpenBabel02141814113D
libRbt.so/2013.1/901 2013/11/27
 35 37  0  0  0  0  0  0  0  0999 V2000
    1.7868   -8.5753   44.8904 C   0  0  2  0  0  0  0  0  0  0  0  0
    2.3358   -7.4108   44.2009 O   0  0  0  0  0  0  0  0  0  0  0  0
    6.1556   -6.4348   42.3614 C   0  0  2  0  0  0  0  0  0  0  0  0
    7.6047   -6.1066   42.2051 N   0  0  0  0  0  0  0  0  0  0  0  0
   -5.8017  -10.3229   47.6270 C   0  0  2  0  0  0  0  0  0  0  0  0
   -5.2166  -10.3977   48.9452 O   0  0  0  0  0  0  0  0  0  0  0  0
    0.2532   -8.2823   44.9146 C   0  0  2  0  0  0  0  0  0  0  0  0
   -0.2831   -8.1198   43.5426 N   0  0  0  0  0  0  0  0  0  0  0  0
    5.4318   -5.3148   43.2258 C   0  0  0  0  0  0  0  0  0  0  0  0
   -4.7996   -9.5387   46.7109 C   0  0  2  0  0  0  0  0  0  0  0  0
   -3.4711  -10.2015   46.6849 N   0  0  0  0  0  0  0  0  0  0  0  0
   -0.0806   -6.9890   45.7780 C   0  0  1  0  0  0  0  0  0  0  0  0
   -1.5385   -6.7022   45.7518 O   0  0  0  0  0  0  0  0  0  0  0  0
    3.8958   -5.6934   43.3867 C   0  0  2  0  0  0  0  0  0  0  0  0
    3.2054   -4.6686   44.1987 N   0  0  0  0  0  0  0  0  0  0  0  0
   -4.6521   -8.0212   47.1694 C   0  0  1  0  0  0  0  0  0  0  0  0
   -3.7553   -7.2624   46.3180 O   0  0  0  0  0  0  0  0  0  0  0  0
    0.5116   -7.2242   47.2366 C   0  0  2  0  0  0  0  0  0  0  0  0
    0.2825   -6.1064   48.0757 O   0  0  0  0  0  0  0  0  0  0  0  0
    3.7591   -7.1124   44.0773 C   0  0  2  0  0  0  0  0  0  0  0  0
   -6.0683   -7.3633   47.1679 C   0  0  2  0  0  0  0  0  0  0  0  0
   -6.0003   -6.0120   47.5788 O   0  0  0  0  0  0  0  0  0  0  0  0
    2.0558   -7.5310   47.1642 C   0  0  2  0  0  0  0  0  0  0  0  0
    2.2936   -8.6951   46.2852 O   0  0  0  0  0  0  0  0  0  0  0  0
    4.4748   -8.2005   43.2287 C   0  0  2  0  0  0  0  0  0  0  0  0
    4.3429   -9.4639   43.9411 O   0  0  0  0  0  0  0  0  0  0  0  0
   -7.0465   -8.1860   48.0982 C   0  0  2  0  0  0  0  0  0  0  0  0
   -7.1019   -9.6002   47.6624 O   0  0  0  0  0  0  0  0  0  0  0  0
    2.6423   -7.7977   48.5497 C   0  0  0  0  0  0  0  0  0  0  0  0
    4.0476   -7.8436   48.5049 O   0  0  0  0  0  0  0  0  0  0  0  0
    5.9687   -7.8343   43.0667 C   0  0  1  0  0  0  0  0  0  0  0  0
    6.5934   -8.8337   42.2890 O   0  0  0  0  0  0  0  0  0  0  0  0
   -8.4531   -7.6068   48.0942 C   0  0  0  0  0  0  0  0  0  0  0  0
   -8.4494   -6.3045   48.6271 O   0  0  0  0  0  0  0  0  0  0  0  0
   -2.3771   -7.6849   46.5350 C   0  0  0  0  0  0  0  0  0  0  0  0
  1  2  1  1  0  0  0
  1  7  1  0  0  0  0
  1 24  1  0  0  0  0
  3  4  1  1  0  0  0
  3  9  1  0  0  0  0
  3 31  1  0  0  0  0
  5  6  1  1  0  0  0
  5 10  1  0  0  0  0
  5 28  1  0  0  0  0
  7  8  1  6  0  0  0
  7 12  1  0  0  0  0
  9 14  1  0  0  0  0
 10 11  1  1  0  0  0
 10 16  1  0  0  0  0
 12 13  1  1  0  0  0
 12 18  1  0  0  0  0
 13 35  1  0  0  0  0
 14 15  1  1  0  0  0
 14 20  1  0  0  0  0
 16 17  1  6  0  0  0
 16 21  1  0  0  0  0
 17 35  1  0  0  0  0
 18 19  1  1  0  0  0
 18 23  1  0  0  0  0
 20  2  1  6  0  0  0
 20 25  1  0  0  0  0
 21 22  1  1  0  0  0
 21 27  1  0  0  0  0
 23 24  1  0  0  0  0
 23 29  1  1  0  0  0
 25 26  1  1  0  0  0
 25 31  1  0  0  0  0
 27 28  1  0  0  0  0
 27 33  1  6  0  0  0
 29 30  1  0  0  0  0
 31 32  1  6  0  0  0
 33 34  1  0  0  0  0
M  END
>  <CHROM.1>
171.39246332,71.14229220,-177.10591096,-71.16992128,-172.21774049,-174.43669532
-169.92611734,-63.33296479,-0.25853748,-7.70362134,45.87320651,-0.22926711
-0.27127676,2.66573293

>  <Name>
2o3v_lig

>  <RI>
0

>  <Rbt.Current_Directory>
/home/afrankz/demos/rdock_decoys_rna/rnas/2o3v

>  <Rbt.Executable>
rbdock ($Id: //depot/dev/client3/rdock/2013.1/src/exe/rbdock.cxx#4 $)

>  <Rbt.Library>
libRbt.so (2013.1, Build901 2013/11/27)

>  <Rbt.Parameter_File>
/export/apps/rDock/src/rDock_2013.1_src/data/scripts/dock_solv.prm

>  <Rbt.Receptor>
prm/pocket_docking_2.prm

>  <SCORE>
-8.84053

>  <SCORE.INTER>
-3.35242

>  <SCORE.INTER.CONST>
1

>  <SCORE.INTER.POLAR>
0

>  <SCORE.INTER.ROT>
8

>  <SCORE.INTER.SOLV>
13.9191

>  <SCORE.INTER.VDW>
-15.808

>  <SCORE.INTER.norm>
-0.0957834

>  <SCORE.INTRA>
-5.48811

>  <SCORE.INTRA.DIHEDRAL>
-10.6322

>  <SCORE.INTRA.DIHEDRAL.0>
13.1227

>  <SCORE.INTRA.POLAR>
0

>  <SCORE.INTRA.POLAR.0>
0

>  <SCORE.INTRA.REPUL>
0

>  <SCORE.INTRA.REPUL.0>
0

>  <SCORE.INTRA.SOLV>
-0.0386185

>  <SCORE.INTRA.SOLV.lig_0>
-89.1587

>  <SCORE.INTRA.VDW>
-0.152702

>  <SCORE.INTRA.VDW.0>
-0.838383

>  <SCORE.INTRA.norm>
-0.156803

>  <SCORE.RESTR>
0

>  <SCORE.RESTR.CAVITY>
0

>  <SCORE.RESTR.norm>
0

>  <SCORE.SYSTEM>
0

>  <SCORE.SYSTEM.CONST>
0

>  <SCORE.SYSTEM.DIHEDRAL>
0

>  <SCORE.SYSTEM.SOLV>
0

>  <SCORE.SYSTEM.norm>
0

>  <SCORE.heavy>
35

>  <SCORE.norm>
-0.252586

>  <RMSD>
1.065

$$$$
2o3v_lig
 OpenBabel02141814113D
libRbt.so/2013.1/901 2013/11/27
 35 37  0  0  0  0  0  0  0  0999 V2000
    1.8374   -8.6116   44.8434 C   0  0  2  0  0  0  0  0  0  0  0  0
    2.3666   -7.4420   44.1473 O   0  0  0  0  0  0  0  0  0  0  0  0
    6.1927   -6.4126   42.3505 C   0  0  2  0  0  0  0  0  0  0  0  0
    7.6353   -6.0494   42.2113 N   0  0  0  0  0  0  0  0  0  0  0  0
   -5.7837  -10.3871   47.6904 C   0  0  2  0  0  0  0  0  0  0  0  0
   -5.1570  -10.4402   48.9904 O   0  0  0  0  0  0  0  0  0  0  0  0
    0.2979   -8.3504   44.8554 C   0  0  2  0  0  0  0  0  0  0  0  0
   -0.2326   -8.2109   43.4786 N   0  0  0  0  0  0  0  0  0  0  0  0
    5.4230   -5.2895   43.1700 C   0  0  0  0  0  0  0  0  0  0  0  0
   -4.8013   -9.6391   46.7242 C   0  0  2  0  0  0  0  0  0  0  0  0
   -3.4837  -10.3219   46.6708 N   0  0  0  0  0  0  0  0  0  0  0  0
   -0.0682   -7.0569   45.7053 C   0  0  1  0  0  0  0  0  0  0  0  0
   -1.5315   -6.8007   45.6674 O   0  0  0  0  0  0  0  0  0  0  0  0
    3.8950   -5.7055   43.3136 C   0  0  2  0  0  0  0  0  0  0  0  0
    3.1621   -4.6780   44.0841 N   0  0  0  0  0  0  0  0  0  0  0  0
   -4.6175   -8.1137   47.1419 C   0  0  1  0  0  0  0  0  0  0  0  0
   -3.7385   -7.3882   46.2443 O   0  0  0  0  0  0  0  0  0  0  0  0
    0.5193   -7.2672   47.1696 C   0  0  2  0  0  0  0  0  0  0  0  0
    0.2615   -6.1473   47.9975 O   0  0  0  0  0  0  0  0  0  0  0  0
    3.7835   -7.1082   44.0411 C   0  0  2  0  0  0  0  0  0  0  0  0
   -6.0237   -7.4352   47.1707 C   0  0  2  0  0  0  0  0  0  0  0  0
   -5.9233   -6.0760   47.5474 O   0  0  0  0  0  0  0  0  0  0  0  0
    2.0699   -7.5424   47.1097 C   0  0  2  0  0  0  0  0  0  0  0  0
    2.3375   -8.7089   46.2423 O   0  0  0  0  0  0  0  0  0  0  0  0
    4.5440   -8.1992   43.2364 C   0  0  2  0  0  0  0  0  0  0  0  0
    4.4327   -9.4457   43.9813 O   0  0  0  0  0  0  0  0  0  0  0  0
   -6.9824   -8.2218   48.1513 C   0  0  2  0  0  0  0  0  0  0  0  0
   -7.0718   -9.6446   47.7508 O   0  0  0  0  0  0  0  0  0  0  0  0
    2.6528   -7.7850   48.5011 C   0  0  0  0  0  0  0  0  0  0  0  0
    4.0401   -8.0089   48.4375 O   0  0  0  0  0  0  0  0  0  0  0  0
    6.0303   -7.7968   43.0912 C   0  0  1  0  0  0  0  0  0  0  0  0
    6.6961   -8.7998   42.3531 O   0  0  0  0  0  0  0  0  0  0  0  0
   -8.3801   -7.6221   48.1791 C   0  0  0  0  0  0  0  0  0  0  0  0
   -8.9897   -7.7387   46.9163 O   0  0  0  0  0  0  0  0  0  0  0  0
   -2.3534   -7.7853   46.4657 C   0  0  0  0  0  0  0  0  0  0  0  0
  1  2  1  1  0  0  0
  1  7  1  0  0  0  0
  1 24  1  0  0  0  0
  3  4  1  1  0  0  0
  3  9  1  0  0  0  0
  3 31  1  0  0  0  0
  5  6  1  1  0  0  0
  5 10  1  0  0  0  0
  5 28  1  0  0  0  0
  7  8  1  6  0  0  0
  7 12  1  0  0  0  0
  9 14  1  0  0  0  0
 10 11  1  1  0  0  0
 10 16  1  0  0  0  0
 12 13  1  1  0  0  0
 12 18  1  0  0  0  0
 13 35  1  0  0  0  0
 14 15  1  1  0  0  0
 14 20  1  0  0  0  0
 16 17  1  6  0  0  0
 16 21  1  0  0  0  0
 17 35  1  0  0  0  0
 18 19  1  1  0  0  0
 18 23  1  0  0  0  0
 20  2  1  6  0  0  0
 20 25  1  0  0  0  0
 21 22  1  1  0  0  0
 21 27  1  0  0  0  0
 23 24  1  0  0  0  0
 23 29  1  1  0  0  0
 25 26  1  1  0  0  0
 25 31  1  0  0  0  0
 27 28  1  0  0  0  0
 27 33  1  6  0  0  0
 29 30  1  0  0  0  0
 31 32  1  6  0  0  0
 33 34  1  0  0  0  0
M  END
>  <CHROM.1>
170.77106531,71.75421254,-177.59870788,-73.54646837,-170.14944107,-175.32478106
-179.08484734,63.89909477,-0.24608786,-7.78876914,45.79707200,-0.32158132
-0.11938865,2.22927720

>  <Name>
2o3v_lig

>  <RI>
0

>  <Rbt.Current_Directory>
/home/afrankz/demos/rdock_decoys_rna/rnas/2o3v

>  <Rbt.Executable>
rbdock ($Id: //depot/dev/client3/rdock/2013.1/src/exe/rbdock.cxx#4 $)

>  <Rbt.Library>
libRbt.so (2013.1, Build901 2013/11/27)

>  <Rbt.Parameter_File>
/export/apps/rDock/src/rDock_2013.1_src/data/scripts/dock_solv.prm

>  <Rbt.Receptor>
prm/pocket_docking_2.prm

>  <SCORE>
-9.22751

>  <SCORE.INTER>
-3.42575

>  <SCORE.INTER.CONST>
1

>  <SCORE.INTER.POLAR>
0

>  <SCORE.INTER.ROT>
8

>  <SCORE.INTER.SOLV>
14.0849

>  <SCORE.INTER.VDW>
-15.9121

>  <SCORE.INTER.norm>
-0.0978786

>  <SCORE.INTRA>
-5.80686

>  <SCORE.INTRA.DIHEDRAL>
-10.4687

>  <SCORE.INTRA.DIHEDRAL.0>
13.1227

>  <SCORE.INTRA.POLAR>
0

>  <SCORE.INTRA.POLAR.0>
0

>  <SCORE.INTRA.REPUL>
0

>  <SCORE.INTRA.REPUL.0>
0

>  <SCORE.INTRA.SOLV>
-0.129056

>  <SCORE.INTRA.SOLV.lig_0>
-89.1587

>  <SCORE.INTRA.VDW>
-0.507962

>  <SCORE.INTRA.VDW.0>
-0.838383

>  <SCORE.INTRA.norm>
-0.16591

>  <SCORE.RESTR>
0.00510243

>  <SCORE.RESTR.CAVITY>
0.00510243

>  <SCORE.RESTR.norm>
0.000145784

>  <SCORE.SYSTEM>
0

>  <SCORE.SYSTEM.CONST>
0

>  <SCORE.SYSTEM.DIHEDRAL>
0

>  <SCORE.SYSTEM.SOLV>
0

>  <SCORE.SYSTEM.norm>
0

>  <SCORE.heavy>
35

>  <SCORE.norm>
-0.263643

>  <RMSD>
1.065

$$$$
2o3v_lig
 OpenBabel02141814113D
libRbt.so/2013.1/901 2013/11/27
 35 37  0  0  0  0  0  0  0  0999 V2000
    1.7565   -8.4115   44.9072 C   0  0  2  0  0  0  0  0  0  0  0  0
    2.3275   -7.4410   43.9773 O   0  0  0  0  0  0  0  0  0  0  0  0
    6.1977   -6.4054   42.2811 C   0  0  2  0  0  0  0  0  0  0  0  0
    7.6384   -6.0228   42.1801 N   0  0  0  0  0  0  0  0  0  0  0  0
   -6.2202   -9.8049   46.9870 C   0  0  2  0  0  0  0  0  0  0  0  0
   -5.5873   -9.9605   48.2757 O   0  0  0  0  0  0  0  0  0  0  0  0
    0.2187   -8.1920   44.7484 C   0  0  2  0  0  0  0  0  0  0  0  0
   -0.2125   -8.4139   43.3480 N   0  0  0  0  0  0  0  0  0  0  0  0
    5.3826   -5.2700   43.0374 C   0  0  0  0  0  0  0  0  0  0  0  0
   -5.1809   -9.1233   46.0311 C   0  0  2  0  0  0  0  0  0  0  0  0
   -3.9360   -9.9273   45.9377 N   0  0  0  0  0  0  0  0  0  0  0  0
   -0.2150   -6.7360   45.2192 C   0  0  1  0  0  0  0  0  0  0  0  0
   -1.6733   -6.5321   45.0186 O   0  0  0  0  0  0  0  0  0  0  0  0
    3.8571   -5.7065   43.1416 C   0  0  2  0  0  0  0  0  0  0  0  0
    3.0820   -4.6676   43.8532 N   0  0  0  0  0  0  0  0  0  0  0  0
   -4.8465   -7.6372   46.4941 C   0  0  1  0  0  0  0  0  0  0  0  0
   -3.9116   -6.9703   45.6077 O   0  0  0  0  0  0  0  0  0  0  0  0
    0.2670   -6.5593   46.7258 C   0  0  2  0  0  0  0  0  0  0  0  0
   -0.0560   -5.2744   47.2262 O   0  0  0  0  0  0  0  0  0  0  0  0
    3.7419   -7.0873   43.9093 C   0  0  2  0  0  0  0  0  0  0  0  0
   -6.1804   -6.8282   46.5642 C   0  0  2  0  0  0  0  0  0  0  0  0
   -5.9454   -5.4979   46.9822 O   0  0  0  0  0  0  0  0  0  0  0  0
    1.8195   -6.8041   46.8426 C   0  0  2  0  0  0  0  0  0  0  0  0
    2.1555   -8.1438   46.3164 O   0  0  0  0  0  0  0  0  0  0  0  0
    4.5468   -8.1903   43.1665 C   0  0  2  0  0  0  0  0  0  0  0  0
    4.4289   -9.4145   43.9466 O   0  0  0  0  0  0  0  0  0  0  0  0
   -7.1996   -7.5509   47.5329 C   0  0  2  0  0  0  0  0  0  0  0  0
   -7.4301   -8.9447   47.0890 O   0  0  0  0  0  0  0  0  0  0  0  0
    2.3024   -6.6770   48.2867 C   0  0  0  0  0  0  0  0  0  0  0  0
    1.8989   -7.7839   49.0554 O   0  0  0  0  0  0  0  0  0  0  0  0
    6.0309   -7.7681   43.0597 C   0  0  1  0  0  0  0  0  0  0  0  0
    6.7375   -8.7826   42.3773 O   0  0  0  0  0  0  0  0  0  0  0  0
   -8.5326   -6.8210   47.5993 C   0  0  0  0  0  0  0  0  0  0  0  0
   -8.9161   -6.6199   48.9382 O   0  0  0  0  0  0  0  0  0  0  0  0
   -2.5460   -7.3731   45.9206 C   0  0  0  0  0  0  0  0  0  0  0  0
  1  2  1  6  0  0  0
  1  7  1  0  0  0  0
  1 24  1  0  0  0  0
  3  4  1  1  0  0  0
  3  9  1  0  0  0  0
  3 31  1  0  0  0  0
  5  6  1  1  0  0  0
  5 10  1  0  0  0  0
  5 28  1  0  0  0  0
  7  8  1  6  0  0  0
  7 12  1  0  0  0  0
  9 14  1  0  0  0  0
 10 11  1  1  0  0  0
 10 16  1  0  0  0  0
 12 13  1  1  0  0  0
 12 18  1  0  0  0  0
 13 35  1  0  0  0  0
 14 15  1  1  0  0  0
 14 20  1  0  0  0  0
 16 17  1  6  0  0  0
 16 21  1  0  0  0  0
 17 35  1  0  0  0  0
 18 19  1  6  0  0  0
 18 23  1  0  0  0  0
 20  2  1  6  0  0  0
 20 25  1  0  0  0  0
 21 22  1  1  0  0  0
 21 27  1  0  0  0  0
 23 24  1  0  0  0  0
 23 29  1  1  0  0  0
 25 26  1  1  0  0  0
 25 31  1  0  0  0  0
 27 28  1  0  0  0  0
 27 33  1  6  0  0  0
 29 30  1  0  0  0  0
 31 32  1  6  0  0  0
 33 34  1  0  0  0  0
M  END
>  <CHROM.1>
169.21268041,67.96584850,177.21579783,-81.20412851,-175.39879635,-161.61662450
73.06517991,-130.37360327,-0.45934104,-7.41616015,45.54730477,0.10212076
-0.30492562,-2.63367424

>  <Name>
2o3v_lig

>  <RI>
0

>  <Rbt.Current_Directory>
/home/afrankz/demos/rdock_decoys_rna/rnas/2o3v

>  <Rbt.Executable>
rbdock ($Id: //depot/dev/client3/rdock/2013.1/src/exe/rbdock.cxx#4 $)

>  <Rbt.Library>
libRbt.so (2013.1, Build901 2013/11/27)

>  <Rbt.Parameter_File>
/export/apps/rDock/src/rDock_2013.1_src/data/scripts/dock_solv.prm

>  <Rbt.Receptor>
prm/pocket_docking_2.prm

>  <SCORE>
-6.35538

>  <SCORE.INTER>
-3.50611

>  <SCORE.INTER.CONST>
1

>  <SCORE.INTER.POLAR>
0

>  <SCORE.INTER.ROT>
8

>  <SCORE.INTER.SOLV>
15.7827

>  <SCORE.INTER.VDW>
-16.5316

>  <SCORE.INTER.norm>
-0.100174

>  <SCORE.INTRA>
-2.85946

>  <SCORE.INTRA.DIHEDRAL>
-3.04237

>  <SCORE.INTRA.DIHEDRAL.0>
13.1227

>  <SCORE.INTRA.POLAR>
0

>  <SCORE.INTRA.POLAR.0>
0

>  <SCORE.INTRA.REPUL>
0

>  <SCORE.INTRA.REPUL.0>
0

>  <SCORE.INTRA.SOLV>
0.226982

>  <SCORE.INTRA.SOLV.lig_0>
-89.1587

>  <SCORE.INTRA.VDW>
-1.45177

>  <SCORE.INTRA.VDW.0>
-0.838383

>  <SCORE.INTRA.norm>
-0.0816989

>  <SCORE.RESTR>
0.0101824

>  <SCORE.RESTR.CAVITY>
0.0101824

>  <SCORE.RESTR.norm>
0.000290925

>  <SCORE.SYSTEM>
0

>  <SCORE.SYSTEM.CONST>
0

>  <SCORE.SYSTEM.DIHEDRAL>
0

>  <SCORE.SYSTEM.SOLV>
0

>  <SCORE.SYSTEM.norm>
0

>  <SCORE.heavy>
35

>  <SCORE.norm>
-0.181582

>  <RMSD>
1.081

$$$$
2o3v_lig
 OpenBabel02141814113D
libRbt.so/2013.1/901 2013/11/27
 35 37  0  0  0  0  0  0  0  0999 V2000
    1.8378   -8.5348   44.9808 C   0  0  2  0  0  0  0  0  0  0  0  0
    2.3709   -7.4093   44.2179 O   0  0  0  0  0  0  0  0  0  0  0  0
    6.1404   -6.4599   42.2643 C   0  0  2  0  0  0  0  0  0  0  0  0
    7.5853   -6.1367   42.0649 N   0  0  0  0  0  0  0  0  0  0  0  0
   -5.6830  -10.4020   47.3855 C   0  0  2  0  0  0  0  0  0  0  0  0
   -5.1412  -10.5405   48.7170 O   0  0  0  0  0  0  0  0  0  0  0  0
    0.3108   -8.2179   45.0596 C   0  0  2  0  0  0  0  0  0  0  0  0
   -0.2838   -8.1062   43.7067 N   0  0  0  0  0  0  0  0  0  0  0  0
    5.4431   -5.3300   43.1375 C   0  0  0  0  0  0  0  0  0  0  0  0
   -4.6632   -9.5555   46.5479 C   0  0  2  0  0  0  0  0  0  0  0  0
   -3.3244  -10.1978   46.5316 N   0  0  0  0  0  0  0  0  0  0  0  0
    0.0329   -6.8839   45.8798 C   0  0  1  0  0  0  0  0  0  0  0  0
   -1.4208   -6.5766   45.9052 O   0  0  0  0  0  0  0  0  0  0  0  0
    3.9114   -5.7034   43.3444 C   0  0  2  0  0  0  0  0  0  0  0  0
    3.2458   -4.6693   44.1654 N   0  0  0  0  0  0  0  0  0  0  0  0
   -4.5544   -8.0633   47.0923 C   0  0  1  0  0  0  0  0  0  0  0  0
   -3.6416   -7.2473   46.3142 O   0  0  0  0  0  0  0  0  0  0  0  0
    0.6863   -7.0654   47.3198 C   0  0  2  0  0  0  0  0  0  0  0  0
    0.5094   -5.9095   48.1189 O   0  0  0  0  0  0  0  0  0  0  0  0
    3.7908   -7.1154   44.0522 C   0  0  2  0  0  0  0  0  0  0  0  0
   -5.9799   -7.4257   47.0778 C   0  0  2  0  0  0  0  0  0  0  0  0
   -5.9465   -6.0980   47.5631 O   0  0  0  0  0  0  0  0  0  0  0  0
    2.2215   -7.3983   47.1931 C   0  0  2  0  0  0  0  0  0  0  0  0
    2.4046   -8.6025   46.3558 O   0  0  0  0  0  0  0  0  0  0  0  0
    4.4805   -8.2133   43.1947 C   0  0  2  0  0  0  0  0  0  0  0  0
    4.3657   -9.4695   43.9225 O   0  0  0  0  0  0  0  0  0  0  0  0
   -6.9758   -8.3111   47.9284 C   0  0  2  0  0  0  0  0  0  0  0  0
   -6.9947   -9.7001   47.4153 O   0  0  0  0  0  0  0  0  0  0  0  0
    2.8655   -7.6143   48.5618 C   0  0  0  0  0  0  0  0  0  0  0  0
    2.9528   -6.4063   49.2772 O   0  0  0  0  0  0  0  0  0  0  0  0
    5.9701   -7.8522   42.9879 C   0  0  1  0  0  0  0  0  0  0  0  0
    6.5710   -8.8605   42.2028 O   0  0  0  0  0  0  0  0  0  0  0  0
   -8.3902   -7.7517   47.9075 C   0  0  0  0  0  0  0  0  0  0  0  0
   -8.8792   -7.7020   46.5890 O   0  0  0  0  0  0  0  0  0  0  0  0
   -2.2620   -7.6188   46.6040 C   0  0  0  0  0  0  0  0  0  0  0  0
  1  2  1  6  0  0  0
  1  7  1  0  0  0  0
  1 24  1  0  0  0  0
  3  4  1  1  0  0  0
  3  9  1  0  0  0  0
  3 31  1  0  0  0  0
  5  6  1  1  0  0  0
  5 10  1  0  0  0  0
  5 28  1  0  0  0  0
  7  8  1  6  0  0  0
  7 12  1  0  0  0  0
  9 14  1  0  0  0  0
 10 11  1  1  0  0  0
 10 16  1  0  0  0  0
 12 13  1  1  0  0  0
 12 18  1  0  0  0  0
 13 35  1  0  0  0  0
 14 15  1  1  0  0  0
 14 20  1  0  0  0  0
 16 17  1  6  0  0  0
 16 21  1  0  0  0  0
 17 35  1  0  0  0  0
 18 19  1  1  0  0  0
 18 23  1  0  0  0  0
 20  2  1  6  0  0  0
 20 25  1  0  0  0  0
 21 22  1  1  0  0  0
 21 27  1  0  0  0  0
 23 24  1  0  0  0  0
 23 29  1  1  0  0  0
 25 26  1  1  0  0  0
 25 31  1  0  0  0  0
 27 28  1  0  0  0  0
 27 33  1  6  0  0  0
 29 30  1  0  0  0  0
 31 32  1  6  0  0  0
 33 34  1  0  0  0  0
M  END
>  <CHROM.1>
169.48214792,62.98398372,-170.47103724,-73.90426532,-171.76102690,-171.73738044
-70.13951806,59.99014694,-0.23512303,-7.69516212,45.79770253,0.24132966,-0.23664264
-1.99053052

>  <Name>
2o3v_lig

>  <RI>
0

>  <Rbt.Current_Directory>
/home/afrankz/demos/rdock_decoys_rna/rnas/2o3v

>  <Rbt.Executable>
rbdock ($Id: //depot/dev/client3/rdock/2013.1/src/exe/rbdock.cxx#4 $)

>  <Rbt.Library>
libRbt.so (2013.1, Build901 2013/11/27)

>  <Rbt.Parameter_File>
/export/apps/rDock/src/rDock_2013.1_src/data/scripts/dock_solv.prm

>  <Rbt.Receptor>
prm/pocket_docking_2.prm

>  <SCORE>
-9.36591

>  <SCORE.INTER>
-3.8793

>  <SCORE.INTER.CONST>
1

>  <SCORE.INTER.POLAR>
0

>  <SCORE.INTER.ROT>
8

>  <SCORE.INTER.SOLV>
14.7504

>  <SCORE.INTER.VDW>
-16.4363

>  <SCORE.INTER.norm>
-0.110837

>  <SCORE.INTRA>
-5.4866

>  <SCORE.INTRA.DIHEDRAL>
-10.13

>  <SCORE.INTRA.DIHEDRAL.0>
13.1227

>  <SCORE.INTRA.POLAR>
0

>  <SCORE.INTRA.POLAR.0>
0

>  <SCORE.INTRA.REPUL>
0

>  <SCORE.INTRA.REPUL.0>
0

>  <SCORE.INTRA.SOLV>
0.487696

>  <SCORE.INTRA.SOLV.lig_0>
-89.1587

>  <SCORE.INTRA.VDW>
-0.665473

>  <SCORE.INTRA.VDW.0>
-0.838383

>  <SCORE.INTRA.norm>
-0.15676

>  <SCORE.RESTR>
0

>  <SCORE.RESTR.CAVITY>
0

>  <SCORE.RESTR.norm>
0

>  <SCORE.SYSTEM>
0

>  <SCORE.SYSTEM.CONST>
0

>  <SCORE.SYSTEM.DIHEDRAL>
0

>  <SCORE.SYSTEM.SOLV>
0

>  <SCORE.SYSTEM.norm>
0

>  <SCORE.heavy>
35

>  <SCORE.norm>
-0.267597

>  <RMSD>
1.094

$$$$
2o3v_lig
 OpenBabel02141814113D
libRbt.so/2013.1/901 2013/11/27
 35 37  0  0  0  0  0  0  0  0999 V2000
    2.1571   -8.9978   44.6569 C   0  0  2  0  0  0  0  0  0  0  0  0
    2.6246   -7.8084   43.9501 O   0  0  0  0  0  0  0  0  0  0  0  0
    6.3814   -6.3108   42.3469 C   0  0  2  0  0  0  0  0  0  0  0  0
    7.7928   -5.8259   42.2753 N   0  0  0  0  0  0  0  0  0  0  0  0
   -5.0067   -8.6821   47.9556 C   0  0  2  0  0  0  0  0  0  0  0  0
   -3.9131   -8.5441   48.8886 O   0  0  0  0  0  0  0  0  0  0  0  0
    0.6093   -8.9430   44.4576 C   0  0  2  0  0  0  0  0  0  0  0  0
    0.2537   -8.9513   43.0189 N   0  0  0  0  0  0  0  0  0  0  0  0
    5.5156   -5.3397   43.2594 C   0  0  0  0  0  0  0  0  0  0  0  0
   -4.4541   -8.3408   46.5285 C   0  0  2  0  0  0  0  0  0  0  0  0
   -3.3147   -9.2241   46.1732 N   0  0  0  0  0  0  0  0  0  0  0  0
   -0.0249   -7.6647   45.1598 C   0  0  1  0  0  0  0  0  0  0  0  0
   -1.4905   -7.6076   44.9210 O   0  0  0  0  0  0  0  0  0  0  0  0
    4.0231   -5.8839   43.3283 C   0  0  2  0  0  0  0  0  0  0  0  0
    3.2021   -4.9998   44.1832 N   0  0  0  0  0  0  0  0  0  0  0  0
   -4.0245   -6.8117   46.4174 C   0  0  1  0  0  0  0  0  0  0  0  0
   -3.5400   -6.4596   45.0960 O   0  0  0  0  0  0  0  0  0  0  0  0
    0.3838   -7.7140   46.6974 C   0  0  2  0  0  0  0  0  0  0  0  0
   -0.1193   -6.5943   47.4039 O   0  0  0  0  0  0  0  0  0  0  0  0
    4.0122   -7.3581   43.9078 C   0  0  2  0  0  0  0  0  0  0  0  0
   -5.2551   -5.9235   46.7853 C   0  0  2  0  0  0  0  0  0  0  0  0
   -4.9283   -4.5496   46.7139 O   0  0  0  0  0  0  0  0  0  0  0  0
    1.9507   -7.7838   46.8517 C   0  0  2  0  0  0  0  0  0  0  0  0
    2.4746   -8.9505   46.1108 O   0  0  0  0  0  0  0  0  0  0  0  0
    4.8662   -8.2996   43.0131 C   0  0  2  0  0  0  0  0  0  0  0  0
    4.8431   -9.6206   43.6257 O   0  0  0  0  0  0  0  0  0  0  0  0
   -5.7826   -6.3025   48.2266 C   0  0  2  0  0  0  0  0  0  0  0  0
   -6.1128   -7.7447   48.2900 O   0  0  0  0  0  0  0  0  0  0  0  0
    2.3686   -7.8697   48.3189 C   0  0  0  0  0  0  0  0  0  0  0  0
    1.8921   -6.7646   49.0472 O   0  0  0  0  0  0  0  0  0  0  0  0
    6.3182   -7.7719   42.9404 C   0  0  1  0  0  0  0  0  0  0  0  0
    7.0700   -8.6402   42.1188 O   0  0  0  0  0  0  0  0  0  0  0  0
   -7.0106   -5.4916   48.6118 C   0  0  0  0  0  0  0  0  0  0  0  0
   -8.0878   -5.7968   47.7595 O   0  0  0  0  0  0  0  0  0  0  0  0
   -2.0992   -6.2407   45.1297 C   0  0  0  0  0  0  0  0  0  0  0  0
  1  2  1  6  0  0  0
  1  7  1  0  0  0  0
  1 24  1  0  0  0  0
  3  4  1  1  0  0  0
  3  9  1  0  0  0  0
  3 31  1  0  0  0  0
  5  6  1  1  0  0  0
  5 10  1  0  0  0  0
  5 28  1  0  0  0  0
  7  8  1  6  0  0  0
  7 12  1  0  0  0  0
  9 14  1  0  0  0  0
 10 11  1  1  0  0  0
 10 16  1  0  0  0  0
 12 13  1  1  0  0  0
 12 18  1  0  0  0  0
 13 35  1  0  0  0  0
 14 15  1  1  0  0  0
 14 20  1  0  0  0  0
 16 17  1  6  0  0  0
 16 21  1  0  0  0  0
 17 35  1  0  0  0  0
 18 19  1  1  0  0  0
 18 23  1  0  0  0  0
 20  2  1  6  0  0  0
 20 25  1  0  0  0  0
 21 22  1  1  0  0  0
 21 27  1  0  0  0  0
 23 24  1  0  0  0  0
 23 29  1  1  0  0  0
 25 26  1  1  0  0  0
 25 31  1  0  0  0  0
 27 28  1  0  0  0  0
 27 33  1  6  0  0  0
 29 30  1  0  0  0  0
 31 32  1  6  0  0  0
 33 34  1  0  0  0  0
M  END
>  <CHROM.1>
176.11412651,-160.43709344,-169.61068755,-108.57518974,86.91624775,-167.33790455
-58.45492570,64.47227630,0.05097486,-7.30799878,45.58495399,-0.21183635,-0.31199615
2.38724301

>  <Name>
2o3v_lig

>  <RI>
0

>  <Rbt.Current_Directory>
/home/afrankz/demos/rdock_decoys_rna/rnas/2o3v

>  <Rbt.Executable>
rbdock ($Id: //depot/dev/client3/rdock/2013.1/src/exe/rbdock.cxx#4 $)

>  <Rbt.Library>
libRbt.so (2013.1, Build901 2013/11/27)

>  <Rbt.Parameter_File>
/export/apps/rDock/src/rDock_2013.1_src/data/scripts/dock_solv.prm

>  <Rbt.Receptor>
prm/pocket_docking_3.prm

>  <SCORE>
-10.1843

>  <SCORE.INTER>
-8.44887

>  <SCORE.INTER.CONST>
1

>  <SCORE.INTER.POLAR>
0

>  <SCORE.INTER.ROT>
8

>  <SCORE.INTER.SOLV>
19.3306

>  <SCORE.INTER.VDW>
-21.0095

>  <SCORE.INTER.norm>
-0.241396

>  <SCORE.INTRA>
-1.74683

>  <SCORE.INTRA.DIHEDRAL>
-0.315966

>  <SCORE.INTRA.DIHEDRAL.0>
13.1227

>  <SCORE.INTRA.POLAR>
0

>  <SCORE.INTRA.POLAR.0>
0

>  <SCORE.INTRA.REPUL>
0

>  <SCORE.INTRA.REPUL.0>
0

>  <SCORE.INTRA.SOLV>
1.75465

>  <SCORE.INTRA.SOLV.lig_0>
-89.1587

>  <SCORE.INTRA.VDW>
-2.46617

>  <SCORE.INTRA.VDW.0>
-0.838383

>  <SCORE.INTRA.norm>
-0.0499094

>  <SCORE.RESTR>
0.0114388

>  <SCORE.RESTR.CAVITY>
0.0114388

>  <SCORE.RESTR.norm>
0.000326823

>  <SCORE.SYSTEM>
0

>  <SCORE.SYSTEM.CONST>
0

>  <SCORE.SYSTEM.DIHEDRAL>
0

>  <SCORE.SYSTEM.SOLV>
0

>  <SCORE.SYSTEM.norm>
0

>  <SCORE.heavy>
35

>  <SCORE.norm>
-0.290979

>  <RMSD>
1.159

$$$$
2o3v_lig
 OpenBabel02141814113D
libRbt.so/2013.1/901 2013/11/27
 35 37  0  0  0  0  0  0  0  0999 V2000
    1.2785   -8.3425   45.2801 C   0  0  2  0  0  0  0  0  0  0  0  0
    1.8780   -7.4261   44.3138 O   0  0  0  0  0  0  0  0  0  0  0  0
    5.7637   -6.6790   42.5055 C   0  0  2  0  0  0  0  0  0  0  0  0
    7.2200   -6.3777   42.3620 N   0  0  0  0  0  0  0  0  0  0  0  0
   -5.4088  -10.2466   48.2654 C   0  0  2  0  0  0  0  0  0  0  0  0
   -5.2331   -9.8780   49.6506 O   0  0  0  0  0  0  0  0  0  0  0  0
   -0.2205   -8.3854   44.8447 C   0  0  2  0  0  0  0  0  0  0  0  0
   -0.3589   -8.8530   43.4452 N   0  0  0  0  0  0  0  0  0  0  0  0
    5.0225   -5.4667   43.2171 C   0  0  0  0  0  0  0  0  0  0  0  0
   -4.2220   -9.6177   47.4565 C   0  0  2  0  0  0  0  0  0  0  0  0
   -2.9134  -10.0790   47.9854 N   0  0  0  0  0  0  0  0  0  0  0  0
   -0.9167   -6.9647   45.0072 C   0  0  1  0  0  0  0  0  0  0  0  0
   -2.3285   -7.0162   44.5464 O   0  0  0  0  0  0  0  0  0  0  0  0
    3.4788   -5.8171   43.3678 C   0  0  2  0  0  0  0  0  0  0  0  0
    2.7717   -4.7054   44.0390 N   0  0  0  0  0  0  0  0  0  0  0  0
   -4.2901   -8.0270   47.4586 C   0  0  1  0  0  0  0  0  0  0  0  0
   -3.2215   -7.4187   46.6887 O   0  0  0  0  0  0  0  0  0  0  0  0
   -0.7421   -6.5196   46.5254 C   0  0  2  0  0  0  0  0  0  0  0  0
   -1.3136   -5.2454   46.7612 O   0  0  0  0  0  0  0  0  0  0  0  0
    3.3072   -7.1507   44.2053 C   0  0  2  0  0  0  0  0  0  0  0  0
   -5.6742   -7.5897   46.8828 C   0  0  2  0  0  0  0  0  0  0  0  0
   -5.7961   -6.1810   46.8702 O   0  0  0  0  0  0  0  0  0  0  0  0
    0.7820   -6.5047   46.9261 C   0  0  2  0  0  0  0  0  0  0  0  0
    1.3779   -7.8339   46.6758 O   0  0  0  0  0  0  0  0  0  0  0  0
    4.0402   -8.3294   43.5056 C   0  0  2  0  0  0  0  0  0  0  0  0
    3.8741   -9.5060   44.3478 O   0  0  0  0  0  0  0  0  0  0  0  0
   -6.8405   -8.2482   47.7226 C   0  0  2  0  0  0  0  0  0  0  0  0
   -6.6962   -9.7219   47.7347 O   0  0  0  0  0  0  0  0  0  0  0  0
    0.9752   -6.1163   48.3912 C   0  0  0  0  0  0  0  0  0  0  0  0
    2.3409   -6.0174   48.7135 O   0  0  0  0  0  0  0  0  0  0  0  0
    5.5417   -7.9912   43.3538 C   0  0  1  0  0  0  0  0  0  0  0  0
    6.1822   -9.0736   42.7117 O   0  0  0  0  0  0  0  0  0  0  0  0
   -8.2108   -7.8851   47.1707 C   0  0  0  0  0  0  0  0  0  0  0  0
   -9.2257   -8.4324   47.9772 O   0  0  0  0  0  0  0  0  0  0  0  0
   -3.2036   -7.9614   45.3358 C   0  0  0  0  0  0  0  0  0  0  0  0
  1  2  1  6  0  0  0
  1  7  1  0  0  0  0
  1 24  1  0  0  0  0
  3  4  1  1  0  0  0
  3  9  1  0  0  0  0
  3 31  1  0  0  0  0
  5  6  1  1  0  0  0
  5 10  1  0  0  0  0
  5 28  1  0  0  0  0
  7  8  1  6  0  0  0
  7 12  1  0  0  0  0
  9 14  1  0  0  0  0
 10 11  1  1  0  0  0
 10 16  1  0  0  0  0
 12 13  1  1  0  0  0
 12 18  1  0  0  0  0
 13 35  1  0  0  0  0
 14 15  1  1  0  0  0
 14 20  1  0  0  0  0
 16 17  1  6  0  0  0
 16 21  1  0  0  0  0
 17 35  1  0  0  0  0
 18 19  1  6  0  0  0
 18 23  1  0  0  0  0
 20  2  1  6  0  0  0
 20 25  1  0  0  0  0
 21 22  1  1  0  0  0
 21 27  1  0  0  0  0
 23 24  1  0  0  0  0
 23 29  1  1  0  0  0
 25 26  1  1  0  0  0
 25 31  1  0  0  0  0
 27 28  1  0  0  0  0
 27 33  1  6  0  0  0
 29 30  1  0  0  0  0
 31 32  1  6  0  0  0
 33 34  1  0  0  0  0
M  END
>  <CHROM.1>
-173.42778930,62.28857350,63.34681756,54.11107890,165.31619239,-163.12163818
-175.98379595,-177.14613665,-0.65300703,-7.65040735,45.81567061,-0.00107191
-0.37440553,-2.82034155

>  <Name>
2o3v_lig

>  <RI>
0

>  <Rbt.Current_Directory>
/home/afrankz/demos/rdock_decoys_rna/rnas/2o3v

>  <Rbt.Executable>
rbdock ($Id: //depot/dev/client3/rdock/2013.1/src/exe/rbdock.cxx#4 $)

>  <Rbt.Library>
libRbt.so (2013.1, Build901 2013/11/27)

>  <Rbt.Parameter_File>
/export/apps/rDock/src/rDock_2013.1_src/data/scripts/dock_solv.prm

>  <Rbt.Receptor>
prm/pocket_docking_2.prm

>  <SCORE>
-8.46712

>  <SCORE.INTER>
-4.21025

>  <SCORE.INTER.CONST>
1

>  <SCORE.INTER.POLAR>
0

>  <SCORE.INTER.ROT>
8

>  <SCORE.INTER.SOLV>
14.904

>  <SCORE.INTER.VDW>
-16.7082

>  <SCORE.INTER.norm>
-0.120293

>  <SCORE.INTRA>
-4.25687

>  <SCORE.INTRA.DIHEDRAL>
-10.1898

>  <SCORE.INTRA.DIHEDRAL.0>
13.1227

>  <SCORE.INTRA.POLAR>
0

>  <SCORE.INTRA.POLAR.0>
0

>  <SCORE.INTRA.REPUL>
0

>  <SCORE.INTRA.REPUL.0>
0

>  <SCORE.INTRA.SOLV>
0.232618

>  <SCORE.INTRA.SOLV.lig_0>
-89.1587

>  <SCORE.INTRA.VDW>
0.721702

>  <SCORE.INTRA.VDW.0>
-0.838383

>  <SCORE.INTRA.norm>
-0.121625

>  <SCORE.RESTR>
0

>  <SCORE.RESTR.CAVITY>
0

>  <SCORE.RESTR.norm>
0

>  <SCORE.SYSTEM>
0

>  <SCORE.SYSTEM.CONST>
0

>  <SCORE.SYSTEM.DIHEDRAL>
0

>  <SCORE.SYSTEM.SOLV>
0

>  <SCORE.SYSTEM.norm>
0

>  <SCORE.heavy>
35

>  <SCORE.norm>
-0.241918

>  <RMSD>
1.256

$$$$
2o3v_lig
 OpenBabel02141814113D
libRbt.so/2013.1/901 2013/11/27
 35 37  0  0  0  0  0  0  0  0999 V2000
    2.0011   -8.6082   45.1239 C   0  0  2  0  0  0  0  0  0  0  0  0
    2.5244   -7.4754   44.3651 O   0  0  0  0  0  0  0  0  0  0  0  0
    6.2116   -6.5301   42.2583 C   0  0  2  0  0  0  0  0  0  0  0  0
    7.6528   -6.2354   41.9969 N   0  0  0  0  0  0  0  0  0  0  0  0
   -5.7255  -10.3972   47.3136 C   0  0  2  0  0  0  0  0  0  0  0  0
   -5.0362  -10.8723   48.4904 O   0  0  0  0  0  0  0  0  0  0  0  0
    0.4710   -8.3063   45.2013 C   0  0  2  0  0  0  0  0  0  0  0  0
   -0.1226   -8.1965   43.8479 N   0  0  0  0  0  0  0  0  0  0  0  0
    5.5940   -5.4266   43.2208 C   0  0  0  0  0  0  0  0  0  0  0  0
   -4.7308   -9.4775   46.5243 C   0  0  2  0  0  0  0  0  0  0  0  0
   -3.4894  -10.2130   46.1738 N   0  0  0  0  0  0  0  0  0  0  0  0
    0.1790   -6.9773   46.0249 C   0  0  1  0  0  0  0  0  0  0  0  0
   -1.2776   -6.6841   46.0489 O   0  0  0  0  0  0  0  0  0  0  0  0
    4.0653   -5.7696   43.4920 C   0  0  2  0  0  0  0  0  0  0  0  0
    3.4738   -4.7599   44.3960 N   0  0  0  0  0  0  0  0  0  0  0  0
   -4.3797   -8.1574   47.3421 C   0  0  1  0  0  0  0  0  0  0  0  0
   -3.4862   -7.2712   46.6203 O   0  0  0  0  0  0  0  0  0  0  0  0
    0.8320   -7.1566   47.4654 C   0  0  2  0  0  0  0  0  0  0  0  0
    0.6428   -6.0047   48.2674 O   0  0  0  0  0  0  0  0  0  0  0  0
    3.9416   -7.2110   44.1372 C   0  0  2  0  0  0  0  0  0  0  0  0
   -5.7111   -7.4122   47.6751 C   0  0  2  0  0  0  0  0  0  0  0  0
   -5.4609   -6.2323   48.4132 O   0  0  0  0  0  0  0  0  0  0  0  0
    2.3705   -7.4743   47.3401 C   0  0  2  0  0  0  0  0  0  0  0  0
    2.5665   -8.6743   46.4997 O   0  0  0  0  0  0  0  0  0  0  0  0
    4.5534   -8.2830   43.1924 C   0  0  2  0  0  0  0  0  0  0  0  0
    4.4410   -9.5701   43.8646 O   0  0  0  0  0  0  0  0  0  0  0  0
   -6.6851   -8.3746   48.4653 C   0  0  2  0  0  0  0  0  0  0  0  0
   -6.9317   -9.6091   47.6855 O   0  0  0  0  0  0  0  0  0  0  0  0
    3.0146   -7.6880   48.7091 C   0  0  0  0  0  0  0  0  0  0  0  0
    2.9548   -6.5167   49.4858 O   0  0  0  0  0  0  0  0  0  0  0  0
    6.0398   -7.9513   42.9230 C   0  0  1  0  0  0  0  0  0  0  0  0
    6.5693   -8.9352   42.0594 O   0  0  0  0  0  0  0  0  0  0  0  0
   -8.0155   -7.7050   48.7743 C   0  0  0  0  0  0  0  0  0  0  0  0
   -8.8196   -8.5502   49.5611 O   0  0  0  0  0  0  0  0  0  0  0  0
   -2.1119   -7.7456   46.7268 C   0  0  0  0  0  0  0  0  0  0  0  0
  1  2  1  6  0  0  0
  1  7  1  0  0  0  0
  1 24  1  0  0  0  0
  3  4  1  1  0  0  0
  3  9  1  0  0  0  0
  3 31  1  0  0  0  0
  5  6  1  1  0  0  0
  5 10  1  0  0  0  0
  5 28  1  0  0  0  0
  7  8  1  6  0  0  0
  7 12  1  0  0  0  0
  9 14  1  0  0  0  0
 10 11  1  1  0  0  0
 10 16  1  0  0  0  0
 12 13  1  1  0  0  0
 12 18  1  0  0  0  0
 13 35  1  0  0  0  0
 14 15  1  1  0  0  0
 14 20  1  0  0  0  0
 16 17  1  6  0  0  0
 16 21  1  0  0  0  0
 17 35  1  0  0  0  0
 18 19  1  1  0  0  0
 18 23  1  0  0  0  0
 20  2  1  6  0  0  0
 20 25  1  0  0  0  0
 21 22  1  1  0  0  0
 21 27  1  0  0  0  0
 23 24  1  0  0  0  0
 23 29  1  1  0  0  0
 25 26  1  1  0  0  0
 25 31  1  0  0  0  0
 27 28  1  0  0  0  0
 27 33  1  6  0  0  0
 29 30  1  0  0  0  0
 31 32  1  6  0  0  0
 33 34  1  0  0  0  0
M  END
>  <CHROM.1>
173.22820469,62.18741544,-179.20285028,-79.47571000,-175.08846807,-170.44349891
-63.56541023,-175.67211451,-0.10484909,-7.79353194,46.03960595,0.22985683
-0.31968670,-2.19858066

>  <Name>
2o3v_lig

>  <RI>
0

>  <Rbt.Current_Directory>
/home/afrankz/demos/rdock_decoys_rna/rnas/2o3v

>  <Rbt.Executable>
rbdock ($Id: //depot/dev/client3/rdock/2013.1/src/exe/rbdock.cxx#4 $)

>  <Rbt.Library>
libRbt.so (2013.1, Build901 2013/11/27)

>  <Rbt.Parameter_File>
/export/apps/rDock/src/rDock_2013.1_src/data/scripts/dock_solv.prm

>  <Rbt.Receptor>
prm/pocket_docking_3.prm

>  <SCORE>
-10.4085

>  <SCORE.INTER>
-4.31571

>  <SCORE.INTER.CONST>
1

>  <SCORE.INTER.POLAR>
0

>  <SCORE.INTER.ROT>
8

>  <SCORE.INTER.SOLV>
15.6539

>  <SCORE.INTER.VDW>
-17.0284

>  <SCORE.INTER.norm>
-0.123306

>  <SCORE.INTRA>
-6.09278

>  <SCORE.INTRA.DIHEDRAL>
-10.435

>  <SCORE.INTRA.DIHEDRAL.0>
13.1227

>  <SCORE.INTRA.POLAR>
0

>  <SCORE.INTRA.POLAR.0>
0

>  <SCORE.INTRA.REPUL>
0

>  <SCORE.INTRA.REPUL.0>
0

>  <SCORE.INTRA.SOLV>
0.0120325

>  <SCORE.INTRA.SOLV.lig_0>
-89.1587

>  <SCORE.INTRA.VDW>
-0.881304

>  <SCORE.INTRA.VDW.0>
-0.838383

>  <SCORE.INTRA.norm>
-0.17408

>  <SCORE.RESTR>
0

>  <SCORE.RESTR.CAVITY>
0

>  <SCORE.RESTR.norm>
0

>  <SCORE.SYSTEM>
0

>  <SCORE.SYSTEM.CONST>
0

>  <SCORE.SYSTEM.DIHEDRAL>
0

>  <SCORE.SYSTEM.SOLV>
0

>  <SCORE.SYSTEM.norm>
0

>  <SCORE.heavy>
35

>  <SCORE.norm>
-0.297386

>  <RMSD>
1.266

$$$$
2o3v_lig
 OpenBabel02141814113D
libRbt.so/2013.1/901 2013/11/27
 35 37  0  0  0  0  0  0  0  0999 V2000
    2.1668   -9.1571   44.5061 C   0  0  2  0  0  0  0  0  0  0  0  0
    2.5892   -7.8193   44.1004 O   0  0  0  0  0  0  0  0  0  0  0  0
    6.2832   -6.3452   42.3372 C   0  0  2  0  0  0  0  0  0  0  0  0
    7.6942   -5.8725   42.2045 N   0  0  0  0  0  0  0  0  0  0  0  0
   -4.8302   -9.1878   49.2418 C   0  0  2  0  0  0  0  0  0  0  0  0
   -3.7168   -8.5268   49.8812 O   0  0  0  0  0  0  0  0  0  0  0  0
    0.6086   -9.0660   44.4599 C   0  0  2  0  0  0  0  0  0  0  0  0
    0.1333   -8.6983   43.1052 N   0  0  0  0  0  0  0  0  0  0  0  0
    5.4686   -5.3722   43.2939 C   0  0  0  0  0  0  0  0  0  0  0  0
   -4.3399   -9.6842   47.8377 C   0  0  2  0  0  0  0  0  0  0  0  0
   -3.1686  -10.5871   47.9711 N   0  0  0  0  0  0  0  0  0  0  0  0
    0.0529   -8.0237   45.5249 C   0  0  1  0  0  0  0  0  0  0  0  0
   -1.4267   -7.9192   45.4344 O   0  0  0  0  0  0  0  0  0  0  0  0
    3.9758   -5.9034   43.4273 C   0  0  2  0  0  0  0  0  0  0  0  0
    3.2027   -5.0175   44.3238 N   0  0  0  0  0  0  0  0  0  0  0  0
   -3.9921   -8.4652   46.8744 C   0  0  1  0  0  0  0  0  0  0  0  0
   -3.5670   -8.8956   45.5558 O   0  0  0  0  0  0  0  0  0  0  0  0
    0.5886   -8.4727   46.9550 C   0  0  2  0  0  0  0  0  0  0  0  0
    0.1617   -7.5833   47.9712 O   0  0  0  0  0  0  0  0  0  0  0  0
    3.9776   -7.3812   43.9979 C   0  0  2  0  0  0  0  0  0  0  0  0
   -5.2542   -7.5535   46.7537 C   0  0  2  0  0  0  0  0  0  0  0  0
   -4.9999   -6.4438   45.9149 O   0  0  0  0  0  0  0  0  0  0  0  0
    2.1618   -8.5662   46.9523 C   0  0  2  0  0  0  0  0  0  0  0  0
    2.6059   -9.4916   45.8888 O   0  0  0  0  0  0  0  0  0  0  0  0
    4.7813   -8.3245   43.0596 C   0  0  2  0  0  0  0  0  0  0  0  0
    4.7738   -9.6492   43.6648 O   0  0  0  0  0  0  0  0  0  0  0  0
   -5.7171   -7.0798   48.1892 C   0  0  2  0  0  0  0  0  0  0  0  0
   -5.9716   -8.2507   49.0592 O   0  0  0  0  0  0  0  0  0  0  0  0
    2.7004   -9.0318   48.3044 C   0  0  0  0  0  0  0  0  0  0  0  0
    4.1058   -9.0932   48.2962 O   0  0  0  0  0  0  0  0  0  0  0  0
    6.2334   -7.8094   42.9242 C   0  0  1  0  0  0  0  0  0  0  0  0
    6.9391   -8.6791   42.0641 O   0  0  0  0  0  0  0  0  0  0  0  0
   -6.9722   -6.2227   48.1255 C   0  0  0  0  0  0  0  0  0  0  0  0
   -7.4142   -5.9022   49.4223 O   0  0  0  0  0  0  0  0  0  0  0  0
   -2.1502   -9.2385   45.5703 C   0  0  0  0  0  0  0  0  0  0  0  0
  1  2  1  1  0  0  0
  1  7  1  0  0  0  0
  1 24  1  0  0  0  0
  3  4  1  1  0  0  0
  3  9  1  0  0  0  0
  3 31  1  0  0  0  0
  5  6  1  6  0  0  0
  5 10  1  0  0  0  0
  5 28  1  0  0  0  0
  7  8  1  6  0  0  0
  7 12  1  0  0  0  0
  9 14  1  0  0  0  0
 10 11  1  1  0  0  0
 10 16  1  0  0  0  0
 12 13  1  1  0  0  0
 12 18  1  0  0  0  0
 13 35  1  0  0  0  0
 14 15  1  1  0  0  0
 14 20  1  0  0  0  0
 16 17  1  6  0  0  0
 16 21  1  0  0  0  0
 17 35  1  0  0  0  0
 18 19  1  1  0  0  0
 18 23  1  0  0  0  0
 20  2  1  6  0  0  0
 20 25  1  0  0  0  0
 21 22  1  6  0  0  0
 21 27  1  0  0  0  0
 23 24  1  0  0  0  0
 23 29  1  1  0  0  0
 25 26  1  1  0  0  0
 25 31  1  0  0  0  0
 27 28  1  0  0  0  0
 27 33  1  6  0  0  0
 29 30  1  0  0  0  0
 31 32  1  6  0  0  0
 33 34  1  0  0  0  0
M  END
>  <CHROM.1>
179.28371026,54.99630131,175.80398648,-82.87164797,-81.97382288,175.96830502
-179.15627821,175.58141872,0.17859507,-7.98767508,45.84387909,-0.33907044
-0.24938536,2.25948954

>  <Name>
2o3v_lig

>  <RI>
0

>  <Rbt.Current_Directory>
/home/afrankz/demos/rdock_decoys_rna/rnas/2o3v

>  <Rbt.Executable>
rbdock ($Id: //depot/dev/client3/rdock/2013.1/src/exe/rbdock.cxx#4 $)

>  <Rbt.Library>
libRbt.so (2013.1, Build901 2013/11/27)

>  <Rbt.Parameter_File>
/export/apps/rDock/src/rDock_2013.1_src/data/scripts/dock_solv.prm

>  <Rbt.Receptor>
prm/pocket_docking_3.prm

>  <SCORE>
-11.3325

>  <SCORE.INTER>
-6.08242

>  <SCORE.INTER.CONST>
1

>  <SCORE.INTER.POLAR>
0

>  <SCORE.INTER.ROT>
8

>  <SCORE.INTER.SOLV>
16.9025

>  <SCORE.INTER.VDW>
-18.6225

>  <SCORE.INTER.norm>
-0.173783

>  <SCORE.INTRA>
-5.25005

>  <SCORE.INTRA.DIHEDRAL>
-8.29388

>  <SCORE.INTRA.DIHEDRAL.0>
13.1227

>  <SCORE.INTRA.POLAR>
0

>  <SCORE.INTRA.POLAR.0>
0

>  <SCORE.INTRA.REPUL>
0

>  <SCORE.INTRA.REPUL.0>
0

>  <SCORE.INTRA.SOLV>
-0.299501

>  <SCORE.INTRA.SOLV.lig_0>
-89.1587

>  <SCORE.INTRA.VDW>
-0.953358

>  <SCORE.INTRA.VDW.0>
-0.838383

>  <SCORE.INTRA.norm>
-0.150001

>  <SCORE.RESTR>
0

>  <SCORE.RESTR.CAVITY>
0

>  <SCORE.RESTR.norm>
0

>  <SCORE.SYSTEM>
0

>  <SCORE.SYSTEM.CONST>
0

>  <SCORE.SYSTEM.DIHEDRAL>
0

>  <SCORE.SYSTEM.SOLV>
0

>  <SCORE.SYSTEM.norm>
0

>  <SCORE.heavy>
35

>  <SCORE.norm>
-0.323785

>  <RMSD>
1.271

$$$$
2o3v_lig
 OpenBabel02141814113D
libRbt.so/2013.1/901 2013/11/27
 35 37  0  0  0  0  0  0  0  0999 V2000
    1.9814   -8.7090   44.7928 C   0  0  2  0  0  0  0  0  0  0  0  0
    2.5055   -7.6232   43.9688 O   0  0  0  0  0  0  0  0  0  0  0  0
    6.3105   -6.4245   42.2330 C   0  0  2  0  0  0  0  0  0  0  0  0
    7.7439   -6.0201   42.1153 N   0  0  0  0  0  0  0  0  0  0  0  0
   -4.0467  -10.7204   48.6787 C   0  0  2  0  0  0  0  0  0  0  0  0
   -3.9540  -10.2039   50.0241 O   0  0  0  0  0  0  0  0  0  0  0  0
    0.4472   -8.6631   44.5055 C   0  0  2  0  0  0  0  0  0  0  0  0
    0.1666   -8.8487   43.0622 N   0  0  0  0  0  0  0  0  0  0  0  0
    5.5103   -5.3563   43.0956 C   0  0  0  0  0  0  0  0  0  0  0  0
   -3.0402   -9.9085   47.7921 C   0  0  2  0  0  0  0  0  0  0  0  0
   -1.6581  -10.0110   48.3253 N   0  0  0  0  0  0  0  0  0  0  0  0
   -0.2003   -7.2998   45.0071 C   0  0  1  0  0  0  0  0  0  0  0  0
   -1.6503   -7.2575   44.6847 O   0  0  0  0  0  0  0  0  0  0  0  0
    3.9927   -5.8158   43.2152 C   0  0  2  0  0  0  0  0  0  0  0  0
    3.2319   -4.8401   44.0249 N   0  0  0  0  0  0  0  0  0  0  0  0
   -3.4723   -8.3814   47.6646 C   0  0  1  0  0  0  0  0  0  0  0  0
   -2.5759   -7.6131   46.8215 O   0  0  0  0  0  0  0  0  0  0  0  0
    0.1272   -7.1595   46.5585 C   0  0  2  0  0  0  0  0  0  0  0  0
   -0.3923   -5.9545   47.0912 O   0  0  0  0  0  0  0  0  0  0  0  0
    3.9139   -7.2501   43.8827 C   0  0  2  0  0  0  0  0  0  0  0  0
   -4.9225   -8.3235   47.0885 C   0  0  2  0  0  0  0  0  0  0  0  0
   -5.3653   -6.9864   46.9627 O   0  0  0  0  0  0  0  0  0  0  0  0
    1.6825   -7.2262   46.8041 C   0  0  2  0  0  0  0  0  0  0  0  0
    2.2238   -8.4824   46.2442 O   0  0  0  0  0  0  0  0  0  0  0  0
    4.7041   -8.2871   43.0362 C   0  0  2  0  0  0  0  0  0  0  0  0
    4.6215   -9.5662   43.7277 O   0  0  0  0  0  0  0  0  0  0  0  0
   -5.9022   -9.1568   48.0078 C   0  0  2  0  0  0  0  0  0  0  0  0
   -5.4226  -10.5517   48.1378 O   0  0  0  0  0  0  0  0  0  0  0  0
    2.0222   -7.1312   48.2908 C   0  0  0  0  0  0  0  0  0  0  0  0
    1.6922   -5.8645   48.8062 O   0  0  0  0  0  0  0  0  0  0  0  0
    6.1803   -7.8422   42.9143 C   0  0  1  0  0  0  0  0  0  0  0  0
    6.8733   -8.7965   42.1377 O   0  0  0  0  0  0  0  0  0  0  0  0
   -7.3218   -9.1656   47.4612 C   0  0  0  0  0  0  0  0  0  0  0  0
   -8.1445   -9.9958   48.2447 O   0  0  0  0  0  0  0  0  0  0  0  0
   -2.4932   -8.2136   45.4957 C   0  0  0  0  0  0  0  0  0  0  0  0
  1  2  1  6  0  0  0
  1  7  1  0  0  0  0
  1 24  1  0  0  0  0
  3  4  1  1  0  0  0
  3  9  1  0  0  0  0
  3 31  1  0  0  0  0
  5  6  1  1  0  0  0
  5 10  1  0  0  0  0
  5 28  1  0  0  0  0
  7  8  1  6  0  0  0
  7 12  1  0  0  0  0
  9 14  1  0  0  0  0
 10 11  1  1  0  0  0
 10 16  1  0  0  0  0
 12 13  1  1  0  0  0
 12 18  1  0  0  0  0
 13 35  1  0  0  0  0
 14 15  1  1  0  0  0
 14 20  1  0  0  0  0
 16 17  1  6  0  0  0
 16 21  1  0  0  0  0
 17 35  1  0  0  0  0
 18 19  1  6  0  0  0
 18 23  1  0  0  0  0
 20  2  1  6  0  0  0
 20 25  1  0  0  0  0
 21 22  1  1  0  0  0
 21 27  1  0  0  0  0
 23 24  1  0  0  0  0
 23 29  1  1  0  0  0
 25 26  1  1  0  0  0
 25 31  1  0  0  0  0
 27 28  1  0  0  0  0
 27 33  1  6  0  0  0
 29 30  1  0  0  0  0
 31 32  1  6  0  0  0
 33 34  1  0  0  0  0
M  END
>  <CHROM.1>
-179.91699073,70.07007290,74.43500757,57.00147973,174.60261802,-164.80716615
-66.54011547,175.58538688,0.09689000,-7.99935106,45.77972416,0.22187419,-0.40951816
-2.20561167

>  <Name>
2o3v_lig

>  <RI>
0

>  <Rbt.Current_Directory>
/home/afrankz/demos/rdock_decoys_rna/rnas/2o3v

>  <Rbt.Executable>
rbdock ($Id: //depot/dev/client3/rdock/2013.1/src/exe/rbdock.cxx#4 $)

>  <Rbt.Library>
libRbt.so (2013.1, Build901 2013/11/27)

>  <Rbt.Parameter_File>
/export/apps/rDock/src/rDock_2013.1_src/data/scripts/dock_solv.prm

>  <Rbt.Receptor>
prm/pocket_docking_3.prm

>  <SCORE>
-10.2803

>  <SCORE.INTER>
-5.85993

>  <SCORE.INTER.CONST>
1

>  <SCORE.INTER.POLAR>
0

>  <SCORE.INTER.ROT>
8

>  <SCORE.INTER.SOLV>
19.1359

>  <SCORE.INTER.VDW>
-19.2186

>  <SCORE.INTER.norm>
-0.167426

>  <SCORE.INTRA>
-4.42034

>  <SCORE.INTRA.DIHEDRAL>
-10.121

>  <SCORE.INTRA.DIHEDRAL.0>
13.1227

>  <SCORE.INTRA.POLAR>
0

>  <SCORE.INTRA.POLAR.0>
0

>  <SCORE.INTRA.REPUL>
0

>  <SCORE.INTRA.REPUL.0>
0

>  <SCORE.INTRA.SOLV>
0.816623

>  <SCORE.INTRA.SOLV.lig_0>
-89.1587

>  <SCORE.INTRA.VDW>
0.231862

>  <SCORE.INTRA.VDW.0>
-0.838383

>  <SCORE.INTRA.norm>
-0.126295

>  <SCORE.RESTR>
0

>  <SCORE.RESTR.CAVITY>
0

>  <SCORE.RESTR.norm>
0

>  <SCORE.SYSTEM>
0

>  <SCORE.SYSTEM.CONST>
0

>  <SCORE.SYSTEM.DIHEDRAL>
0

>  <SCORE.SYSTEM.SOLV>
0

>  <SCORE.SYSTEM.norm>
0

>  <SCORE.heavy>
35

>  <SCORE.norm>
-0.293722

>  <RMSD>
1.420

$$$$
2o3v_lig
 OpenBabel02141814113D
libRbt.so/2013.1/901 2013/11/27
 35 37  0  0  0  0  0  0  0  0999 V2000
    2.1789   -8.6935   44.0209 C   0  0  2  0  0  0  0  0  0  0  0  0
    2.8644   -7.4044   44.0553 O   0  0  0  0  0  0  0  0  0  0  0  0
    6.9002   -6.2744   42.8877 C   0  0  2  0  0  0  0  0  0  0  0  0
    8.3791   -6.0683   42.9375 N   0  0  0  0  0  0  0  0  0  0  0  0
   -4.8168   -8.7894   48.5311 C   0  0  2  0  0  0  0  0  0  0  0  0
   -3.6118   -8.5406   49.2871 O   0  0  0  0  0  0  0  0  0  0  0  0
    0.6709   -8.2915   43.9690 C   0  0  2  0  0  0  0  0  0  0  0  0
    0.3804   -7.4531   42.7820 N   0  0  0  0  0  0  0  0  0  0  0  0
    6.1933   -5.4427   44.0427 C   0  0  0  0  0  0  0  0  0  0  0  0
   -4.4062   -8.9349   47.0249 C   0  0  2  0  0  0  0  0  0  0  0  0
   -3.4119  -10.0233   46.8467 N   0  0  0  0  0  0  0  0  0  0  0  0
    0.2251   -7.5252   45.2894 C   0  0  1  0  0  0  0  0  0  0  0  0
   -1.1999   -7.1129   45.2013 O   0  0  0  0  0  0  0  0  0  0  0  0
    4.6238   -5.6884   43.9748 C   0  0  2  0  0  0  0  0  0  0  0  0
    3.9471   -4.9315   45.0498 N   0  0  0  0  0  0  0  0  0  0  0  0
   -3.8410   -7.5674   46.4374 C   0  0  1  0  0  0  0  0  0  0  0  0
   -3.4840   -7.6643   45.0346 O   0  0  0  0  0  0  0  0  0  0  0  0
    0.5543   -8.4737   46.5246 C   0  0  2  0  0  0  0  0  0  0  0  0
    0.2115   -7.8609   47.7546 O   0  0  0  0  0  0  0  0  0  0  0  0
    4.3124   -7.2344   44.1240 C   0  0  2  0  0  0  0  0  0  0  0  0
   -4.9233   -6.4589   46.6340 C   0  0  2  0  0  0  0  0  0  0  0  0
   -4.4705   -5.2144   46.1383 O   0  0  0  0  0  0  0  0  0  0  0  0
    2.0806   -8.8663   46.5296 C   0  0  2  0  0  0  0  0  0  0  0  0
    2.4376   -9.5020   45.2440 O   0  0  0  0  0  0  0  0  0  0  0  0
    5.0124   -8.0407   42.9944 C   0  0  2  0  0  0  0  0  0  0  0  0
    4.7163   -9.4491   43.2180 O   0  0  0  0  0  0  0  0  0  0  0  0
   -5.3112   -6.3485   48.1626 C   0  0  2  0  0  0  0  0  0  0  0  0
   -5.7752   -7.6597   48.6709 O   0  0  0  0  0  0  0  0  0  0  0  0
    2.4159   -9.8076   47.6856 C   0  0  0  0  0  0  0  0  0  0  0  0
    3.7905  -10.1052   47.7145 O   0  0  0  0  0  0  0  0  0  0  0  0
    6.5393   -7.8018   43.0546 C   0  0  1  0  0  0  0  0  0  0  0  0
    7.1496   -8.5396   42.0166 O   0  0  0  0  0  0  0  0  0  0  0  0
   -6.3967   -5.3092   48.3980 C   0  0  0  0  0  0  0  0  0  0  0  0
   -7.5675   -5.6548   47.6982 O   0  0  0  0  0  0  0  0  0  0  0  0
   -2.1536   -8.2431   44.8923 C   0  0  0  0  0  0  0  0  0  0  0  0
  1  2  1  1  0  0  0
  1  7  1  0  0  0  0
  1 24  1  0  0  0  0
  3  4  1  1  0  0  0
  3  9  1  0  0  0  0
  3 31  1  0  0  0  0
  5  6  1  1  0  0  0
  5 10  1  0  0  0  0
  5 28  1  0  0  0  0
  7  8  1  6  0  0  0
  7 12  1  0  0  0  0
  9 14  1  0  0  0  0
 10 11  1  1  0  0  0
 10 16  1  0  0  0  0
 12 13  1  6  0  0  0
 12 18  1  0  0  0  0
 13 35  1  0  0  0  0
 14 15  1  1  0  0  0
 14 20  1  0  0  0  0
 16 17  1  6  0  0  0
 16 21  1  0  0  0  0
 17 35  1  0  0  0  0
 18 19  1  1  0  0  0
 18 23  1  0  0  0  0
 20  2  1  6  0  0  0
 20 25  1  0  0  0  0
 21 22  1  1  0  0  0
 21 27  1  0  0  0  0
 23 24  1  0  0  0  0
 23 29  1  1  0  0  0
 25 26  1  1  0  0  0
 25 31  1  0  0  0  0
 27 28  1  0  0  0  0
 27 33  1  6  0  0  0
 29 30  1  0  0  0  0
 31 32  1  6  0  0  0
 33 34  1  0  0  0  0
M  END
>  <CHROM.1>
179.29307719,54.29155724,172.40807023,-82.38620772,-78.42319305,173.67985124
-177.45252212,60.83920568,0.35955648,-7.63935642,45.59408763,-0.17831062
-0.30769655,2.53535822

>  <Name>
2o3v_lig

>  <RI>
0

>  <Rbt.Current_Directory>
/home/afrankz/demos/rdock_decoys_rna/rnas/2o3v

>  <Rbt.Executable>
rbdock ($Id: //depot/dev/client3/rdock/2013.1/src/exe/rbdock.cxx#4 $)

>  <Rbt.Library>
libRbt.so (2013.1, Build901 2013/11/27)

>  <Rbt.Parameter_File>
/export/apps/rDock/src/rDock_2013.1_src/data/scripts/dock_solv.prm

>  <Rbt.Receptor>
prm/pocket_docking_3.prm

>  <SCORE>
-12.8074

>  <SCORE.INTER>
-7.65374

>  <SCORE.INTER.CONST>
1

>  <SCORE.INTER.POLAR>
-0.517687

>  <SCORE.INTER.ROT>
8

>  <SCORE.INTER.SOLV>
17.2371

>  <SCORE.INTER.VDW>
-18.0559

>  <SCORE.INTER.norm>
-0.218678

>  <SCORE.INTRA>
-5.15368

>  <SCORE.INTRA.DIHEDRAL>
-8.65609

>  <SCORE.INTRA.DIHEDRAL.0>
13.1227

>  <SCORE.INTRA.POLAR>
0

>  <SCORE.INTRA.POLAR.0>
0

>  <SCORE.INTRA.REPUL>
0

>  <SCORE.INTRA.REPUL.0>
0

>  <SCORE.INTRA.SOLV>
0.17534

>  <SCORE.INTRA.SOLV.lig_0>
-89.1587

>  <SCORE.INTRA.VDW>
-0.913299

>  <SCORE.INTRA.VDW.0>
-0.838383

>  <SCORE.INTRA.norm>
-0.147248

>  <SCORE.RESTR>
0

>  <SCORE.RESTR.CAVITY>
0

>  <SCORE.RESTR.norm>
0

>  <SCORE.SYSTEM>
0

>  <SCORE.SYSTEM.CONST>
0

>  <SCORE.SYSTEM.DIHEDRAL>
0

>  <SCORE.SYSTEM.SOLV>
0

>  <SCORE.SYSTEM.norm>
0

>  <SCORE.heavy>
35

>  <SCORE.norm>
-0.365926

>  <RMSD>
1.538

$$$$
2o3v_lig
 OpenBabel02141814113D
libRbt.so/2013.1/901 2013/11/27
 35 37  0  0  0  0  0  0  0  0999 V2000
    2.5962   -8.6072   45.7030 C   0  0  2  0  0  0  0  0  0  0  0  0
    2.9389   -7.5009   44.8134 O   0  0  0  0  0  0  0  0  0  0  0  0
    6.2135   -6.4917   42.1327 C   0  0  2  0  0  0  0  0  0  0  0  0
    7.5821   -6.1467   41.6426 N   0  0  0  0  0  0  0  0  0  0  0  0
   -4.6251  -11.0721   48.9212 C   0  0  2  0  0  0  0  0  0  0  0  0
   -3.9779  -10.9014   50.2009 O   0  0  0  0  0  0  0  0  0  0  0  0
    1.0381   -8.5338   45.7757 C   0  0  2  0  0  0  0  0  0  0  0  0
    0.4320   -8.6682   44.4300 N   0  0  0  0  0  0  0  0  0  0  0  0
    5.6944   -5.3740   43.1361 C   0  0  0  0  0  0  0  0  0  0  0  0
   -3.7655  -10.3109   47.8535 C   0  0  2  0  0  0  0  0  0  0  0  0
   -2.3696  -10.8169   47.8343 N   0  0  0  0  0  0  0  0  0  0  0  0
    0.5482   -7.1803   46.4522 C   0  0  1  0  0  0  0  0  0  0  0  0
   -0.9360   -7.1103   46.4715 O   0  0  0  0  0  0  0  0  0  0  0  0
    4.2432   -5.7705   43.6510 C   0  0  2  0  0  0  0  0  0  0  0  0
    3.7457   -4.7480   44.5962 N   0  0  0  0  0  0  0  0  0  0  0  0
   -3.7808   -8.7384   48.1024 C   0  0  1  0  0  0  0  0  0  0  0  0
   -3.0198   -8.0055   47.1083 O   0  0  0  0  0  0  0  0  0  0  0  0
    1.2238   -7.0953   47.8910 C   0  0  2  0  0  0  0  0  0  0  0  0
    0.8625   -5.9026   48.5638 O   0  0  0  0  0  0  0  0  0  0  0  0
    4.2904   -7.1856   44.3613 C   0  0  2  0  0  0  0  0  0  0  0  0
   -5.2644   -8.2510   48.1002 C   0  0  2  0  0  0  0  0  0  0  0  0
   -5.3407   -6.8576   48.3284 O   0  0  0  0  0  0  0  0  0  0  0  0
    2.7925   -7.1884   47.7723 C   0  0  2  0  0  0  0  0  0  0  0  0
    3.1678   -8.4316   47.0666 O   0  0  0  0  0  0  0  0  0  0  0  0
    4.8049   -8.2714   43.3750 C   0  0  2  0  0  0  0  0  0  0  0  0
    4.8596   -9.5306   44.1046 O   0  0  0  0  0  0  0  0  0  0  0  0
   -6.0951   -9.0455   49.1856 C   0  0  2  0  0  0  0  0  0  0  0  0
   -5.9997  -10.5027   48.9402 O   0  0  0  0  0  0  0  0  0  0  0  0
    3.4644   -7.1466   49.1440 C   0  0  0  0  0  0  0  0  0  0  0  0
    3.1194   -8.2736   49.9119 O   0  0  0  0  0  0  0  0  0  0  0  0
    6.2151   -7.8877   42.8689 C   0  0  1  0  0  0  0  0  0  0  0  0
    6.6562   -8.8855   41.9721 O   0  0  0  0  0  0  0  0  0  0  0  0
   -7.5597   -8.6347   49.1905 C   0  0  0  0  0  0  0  0  0  0  0  0
   -7.6941   -7.3004   49.6168 O   0  0  0  0  0  0  0  0  0  0  0  0
   -1.5921   -8.1253   47.3780 C   0  0  0  0  0  0  0  0  0  0  0  0
  1  2  1  6  0  0  0
  1  7  1  0  0  0  0
  1 24  1  0  0  0  0
  3  4  1  1  0  0  0
  3  9  1  0  0  0  0
  3 31  1  0  0  0  0
  5  6  1  1  0  0  0
  5 10  1  0  0  0  0
  5 28  1  0  0  0  0
  7  8  1  6  0  0  0
  7 12  1  0  0  0  0
  9 14  1  0  0  0  0
 10 11  1  1  0  0  0
 10 16  1  0  0  0  0
 12 13  1  1  0  0  0
 12 18  1  0  0  0  0
 13 35  1  0  0  0  0
 14 15  1  1  0  0  0
 14 20  1  0  0  0  0
 16 17  1  6  0  0  0
 16 21  1  0  0  0  0
 17 35  1  0  0  0  0
 18 19  1  6  0  0  0
 18 23  1  0  0  0  0
 20  2  1  6  0  0  0
 20 25  1  0  0  0  0
 21 22  1  1  0  0  0
 21 27  1  0  0  0  0
 23 24  1  0  0  0  0
 23 29  1  1  0  0  0
 25 26  1  1  0  0  0
 25 31  1  0  0  0  0
 27 28  1  0  0  0  0
 27 33  1  6  0  0  0
 29 30  1  0  0  0  0
 31 32  1  6  0  0  0
 33 34  1  0  0  0  0
M  END
>  <CHROM.1>
-176.45711141,67.43204638,-172.47754369,-76.96177898,-168.72882669,-169.39744928
64.69471164,-66.39117166,0.36373361,-8.02326504,46.52166924,-0.42010655,0.23666956
1.42537245

>  <Name>
2o3v_lig

>  <RI>
0

>  <Rbt.Current_Directory>
/home/afrankz/demos/rdock_decoys_rna/rnas/2o3v

>  <Rbt.Executable>
rbdock ($Id: //depot/dev/client3/rdock/2013.1/src/exe/rbdock.cxx#4 $)

>  <Rbt.Library>
libRbt.so (2013.1, Build901 2013/11/27)

>  <Rbt.Parameter_File>
/export/apps/rDock/src/rDock_2013.1_src/data/scripts/dock_solv.prm

>  <Rbt.Receptor>
prm/pocket_docking_5.prm

>  <SCORE>
-9.39156

>  <SCORE.INTER>
-3.76203

>  <SCORE.INTER.CONST>
1

>  <SCORE.INTER.POLAR>
0

>  <SCORE.INTER.ROT>
8

>  <SCORE.INTER.SOLV>
15.1221

>  <SCORE.INTER.VDW>
-16.4821

>  <SCORE.INTER.norm>
-0.107487

>  <SCORE.INTRA>
-5.62952

>  <SCORE.INTRA.DIHEDRAL>
-9.76562

>  <SCORE.INTRA.DIHEDRAL.0>
13.1227

>  <SCORE.INTRA.POLAR>
0

>  <SCORE.INTRA.POLAR.0>
0

>  <SCORE.INTRA.REPUL>
0

>  <SCORE.INTRA.REPUL.0>
0

>  <SCORE.INTRA.SOLV>
0.190283

>  <SCORE.INTRA.SOLV.lig_0>
-89.1587

>  <SCORE.INTRA.VDW>
-0.841854

>  <SCORE.INTRA.VDW.0>
-0.838383

>  <SCORE.INTRA.norm>
-0.160844

>  <SCORE.RESTR>
0

>  <SCORE.RESTR.CAVITY>
0

>  <SCORE.RESTR.norm>
0

>  <SCORE.SYSTEM>
0

>  <SCORE.SYSTEM.CONST>
0

>  <SCORE.SYSTEM.DIHEDRAL>
0

>  <SCORE.SYSTEM.SOLV>
0

>  <SCORE.SYSTEM.norm>
0

>  <SCORE.heavy>
35

>  <SCORE.norm>
-0.26833

>  <RMSD>
1.556

$$$$
2o3v_lig
 OpenBabel02141814113D
libRbt.so/2013.1/901 2013/11/27
 35 37  0  0  0  0  0  0  0  0999 V2000
    2.1738   -9.1405   44.3893 C   0  0  2  0  0  0  0  0  0  0  0  0
    2.6094   -7.8337   43.9042 O   0  0  0  0  0  0  0  0  0  0  0  0
    6.3751   -6.2881   42.3687 C   0  0  2  0  0  0  0  0  0  0  0  0
    7.7837   -5.7923   42.3214 N   0  0  0  0  0  0  0  0  0  0  0  0
   -6.1789   -6.8852   47.6439 C   0  0  2  0  0  0  0  0  0  0  0  0
   -5.6093   -5.6753   48.1892 O   0  0  0  0  0  0  0  0  0  0  0  0
    0.6586   -9.1711   44.0130 C   0  0  2  0  0  0  0  0  0  0  0  0
    0.4656   -9.0054   42.5530 N   0  0  0  0  0  0  0  0  0  0  0  0
    5.4910   -5.3355   43.2832 C   0  0  0  0  0  0  0  0  0  0  0  0
   -5.0912   -7.5471   46.7291 C   0  0  2  0  0  0  0  0  0  0  0  0
   -3.8479   -7.8217   47.4931 N   0  0  0  0  0  0  0  0  0  0  0  0
   -0.1594   -8.0522   44.7929 C   0  0  1  0  0  0  0  0  0  0  0  0
   -1.5892   -8.0692   44.3880 O   0  0  0  0  0  0  0  0  0  0  0  0
    4.0017   -5.8911   43.3260 C   0  0  2  0  0  0  0  0  0  0  0  0
    3.1637   -5.0245   44.1823 N   0  0  0  0  0  0  0  0  0  0  0  0
   -4.7707   -6.6470   45.4555 C   0  0  1  0  0  0  0  0  0  0  0  0
   -3.7906   -7.2518   44.5732 O   0  0  0  0  0  0  0  0  0  0  0  0
    0.0803   -8.2848   46.3492 C   0  0  2  0  0  0  0  0  0  0  0  0
   -0.5944   -7.3137   47.1286 O   0  0  0  0  0  0  0  0  0  0  0  0
    3.9942   -7.3731   43.8855 C   0  0  2  0  0  0  0  0  0  0  0  0
   -6.1017   -6.3971   44.6780 C   0  0  2  0  0  0  0  0  0  0  0  0
   -5.8793   -5.5909   43.5377 O   0  0  0  0  0  0  0  0  0  0  0  0
    1.6207   -8.2613   46.6815 C   0  0  2  0  0  0  0  0  0  0  0  0
    2.3240   -9.2726   45.8646 O   0  0  0  0  0  0  0  0  0  0  0  0
    4.8660   -8.2963   42.9889 C   0  0  2  0  0  0  0  0  0  0  0  0
    4.8448   -9.6257   43.5834 O   0  0  0  0  0  0  0  0  0  0  0  0
   -7.1702   -5.7344   45.6362 C   0  0  2  0  0  0  0  0  0  0  0  0
   -7.3873   -6.5841   46.8294 O   0  0  0  0  0  0  0  0  0  0  0  0
    1.8806   -8.5196   48.1649 C   0  0  0  0  0  0  0  0  0  0  0  0
    3.2599   -8.5545   48.4393 O   0  0  0  0  0  0  0  0  0  0  0  0
    6.3150   -7.7575   42.9416 C   0  0  1  0  0  0  0  0  0  0  0  0
    7.0832   -8.6092   42.1180 O   0  0  0  0  0  0  0  0  0  0  0  0
   -8.5007   -5.5115   44.9332 C   0  0  0  0  0  0  0  0  0  0  0  0
   -9.4216   -4.9035   45.8062 O   0  0  0  0  0  0  0  0  0  0  0  0
   -2.4462   -7.0483   45.0990 C   0  0  0  0  0  0  0  0  0  0  0  0
  1  2  1  1  0  0  0
  1  7  1  0  0  0  0
  1 24  1  0  0  0  0
  3  4  1  1  0  0  0
  3  9  1  0  0  0  0
  3 31  1  0  0  0  0
  5  6  1  6  0  0  0
  5 10  1  0  0  0  0
  5 28  1  0  0  0  0
  7  8  1  6  0  0  0
  7 12  1  0  0  0  0
  9 14  1  0  0  0  0
 10 11  1  1  0  0  0
 10 16  1  0  0  0  0
 12 13  1  1  0  0  0
 12 18  1  0  0  0  0
 13 35  1  0  0  0  0
 14 15  1  1  0  0  0
 14 20  1  0  0  0  0
 16 17  1  6  0  0  0
 16 21  1  0  0  0  0
 17 35  1  0  0  0  0
 18 19  1  1  0  0  0
 18 23  1  0  0  0  0
 20  2  1  6  0  0  0
 20 25  1  0  0  0  0
 21 22  1  6  0  0  0
 21 27  1  0  0  0  0
 23 24  1  0  0  0  0
 23 29  1  1  0  0  0
 25 26  1  1  0  0  0
 25 31  1  0  0  0  0
 27 28  1  0  0  0  0
 27 33  1  6  0  0  0
 29 30  1  0  0  0  0
 31 32  1  6  0  0  0
 33 34  1  0  0  0  0
M  END
>  <CHROM.1>
-173.00819692,179.10454987,-179.16524327,-79.50876551,161.92647316,-178.22931663
177.41846150,-179.13589378,-0.32558895,-7.29013367,45.00319201,-0.13370280
-0.19181651,2.02355502

>  <Name>
2o3v_lig

>  <RI>
0

>  <Rbt.Current_Directory>
/home/afrankz/demos/rdock_decoys_rna/rnas/2o3v

>  <Rbt.Executable>
rbdock ($Id: //depot/dev/client3/rdock/2013.1/src/exe/rbdock.cxx#4 $)

>  <Rbt.Library>
libRbt.so (2013.1, Build901 2013/11/27)

>  <Rbt.Parameter_File>
/export/apps/rDock/src/rDock_2013.1_src/data/scripts/dock_solv.prm

>  <Rbt.Receptor>
prm/pocket_docking_3.prm

>  <SCORE>
-10.6036

>  <SCORE.INTER>
-5.31795

>  <SCORE.INTER.CONST>
1

>  <SCORE.INTER.POLAR>
-0.0158035

>  <SCORE.INTER.ROT>
8

>  <SCORE.INTER.SOLV>
21.541

>  <SCORE.INTER.VDW>
-19.6063

>  <SCORE.INTER.norm>
-0.151941

>  <SCORE.INTRA>
-5.31401

>  <SCORE.INTRA.DIHEDRAL>
-9.57143

>  <SCORE.INTRA.DIHEDRAL.0>
13.1227

>  <SCORE.INTRA.POLAR>
0

>  <SCORE.INTRA.POLAR.0>
0

>  <SCORE.INTRA.REPUL>
0

>  <SCORE.INTRA.REPUL.0>
0

>  <SCORE.INTRA.SOLV>
0.129563

>  <SCORE.INTRA.SOLV.lig_0>
-89.1587

>  <SCORE.INTRA.VDW>
-0.593082

>  <SCORE.INTRA.VDW.0>
-0.838383

>  <SCORE.INTRA.norm>
-0.151829

>  <SCORE.RESTR>
0.0283319

>  <SCORE.RESTR.CAVITY>
0.0283319

>  <SCORE.RESTR.norm>
0.000809482

>  <SCORE.SYSTEM>
0

>  <SCORE.SYSTEM.CONST>
0

>  <SCORE.SYSTEM.DIHEDRAL>
0

>  <SCORE.SYSTEM.SOLV>
0

>  <SCORE.SYSTEM.norm>
0

>  <SCORE.heavy>
35

>  <SCORE.norm>
-0.302961

>  <RMSD>
1.625

$$$$
2o3v_lig
 OpenBabel02141814113D
libRbt.so/2013.1/901 2013/11/27
 35 37  0  0  0  0  0  0  0  0999 V2000
    2.1801   -9.4394   45.3306 C   0  0  2  0  0  0  0  0  0  0  0  0
    2.4999   -8.1273   44.7748 O   0  0  0  0  0  0  0  0  0  0  0  0
    5.8712   -6.4909   42.5648 C   0  0  2  0  0  0  0  0  0  0  0  0
    7.2390   -5.9778   42.2514 N   0  0  0  0  0  0  0  0  0  0  0  0
   -4.9437   -8.7518   50.3780 C   0  0  2  0  0  0  0  0  0  0  0  0
   -3.8926   -7.9175   50.9116 O   0  0  0  0  0  0  0  0  0  0  0  0
    0.6241   -9.4010   45.4567 C   0  0  2  0  0  0  0  0  0  0  0  0
   -0.0144   -9.1620   44.1408 N   0  0  0  0  0  0  0  0  0  0  0  0
    5.1850   -5.5779   43.6698 C   0  0  0  0  0  0  0  0  0  0  0  0
   -4.3406   -9.5580   49.1760 C   0  0  2  0  0  0  0  0  0  0  0  0
   -3.1685  -10.3608   49.6078 N   0  0  0  0  0  0  0  0  0  0  0  0
    0.1494   -8.2918   46.4930 C   0  0  1  0  0  0  0  0  0  0  0  0
   -1.3340   -8.2414   46.5651 O   0  0  0  0  0  0  0  0  0  0  0  0
    3.7377   -6.1516   43.9931 C   0  0  2  0  0  0  0  0  0  0  0  0
    3.0853   -5.3221   45.0289 N   0  0  0  0  0  0  0  0  0  0  0  0
   -3.9404   -8.5990   47.9698 C   0  0  1  0  0  0  0  0  0  0  0  0
   -3.4100   -9.3226   46.8298 O   0  0  0  0  0  0  0  0  0  0  0  0
    0.8597   -8.6036   47.8829 C   0  0  2  0  0  0  0  0  0  0  0  0
    0.5137   -7.6468   48.8681 O   0  0  0  0  0  0  0  0  0  0  0  0
    3.8502   -7.6505   44.4930 C   0  0  2  0  0  0  0  0  0  0  0  0
   -5.2042   -7.7876   47.5418 C   0  0  2  0  0  0  0  0  0  0  0  0
   -4.9050   -6.9074   46.4764 O   0  0  0  0  0  0  0  0  0  0  0  0
    2.4252   -8.6479   47.7069 C   0  0  2  0  0  0  0  0  0  0  0  0
    2.7844   -9.6441   46.6758 O   0  0  0  0  0  0  0  0  0  0  0  0
    4.5279   -8.5349   43.4090 C   0  0  2  0  0  0  0  0  0  0  0  0
    4.6334   -9.8825   43.9510 O   0  0  0  0  0  0  0  0  0  0  0  0
   -5.7819   -6.9948   48.7816 C   0  0  2  0  0  0  0  0  0  0  0  0
   -6.0828   -7.9267   49.8924 O   0  0  0  0  0  0  0  0  0  0  0  0
    3.1302   -8.9827   49.0206 C   0  0  0  0  0  0  0  0  0  0  0  0
    4.5282   -8.9354   48.8719 O   0  0  0  0  0  0  0  0  0  0  0  0
    5.9350   -7.9783   43.0889 C   0  0  1  0  0  0  0  0  0  0  0  0
    6.5255   -8.7947   42.0996 O   0  0  0  0  0  0  0  0  0  0  0  0
   -7.0422   -6.2222   48.4227 C   0  0  0  0  0  0  0  0  0  0  0  0
   -7.5037   -5.4921   49.5335 O   0  0  0  0  0  0  0  0  0  0  0  0
   -1.9777   -9.5394   46.9930 C   0  0  0  0  0  0  0  0  0  0  0  0
  1  2  1  1  0  0  0
  1  7  1  0  0  0  0
  1 24  1  0  0  0  0
  3  4  1  1  0  0  0
  3  9  1  0  0  0  0
  3 31  1  0  0  0  0
  5  6  1  6  0  0  0
  5 10  1  0  0  0  0
  5 28  1  0  0  0  0
  7  8  1  6  0  0  0
  7 12  1  0  0  0  0
  9 14  1  0  0  0  0
 10 11  1  1  0  0  0
 10 16  1  0  0  0  0
 12 13  1  1  0  0  0
 12 18  1  0  0  0  0
 13 35  1  0  0  0  0
 14 15  1  1  0  0  0
 14 20  1  0  0  0  0
 16 17  1  6  0  0  0
 16 21  1  0  0  0  0
 17 35  1  0  0  0  0
 18 19  1  1  0  0  0
 18 23  1  0  0  0  0
 20  2  1  6  0  0  0
 20 25  1  0  0  0  0
 21 22  1  6  0  0  0
 21 27  1  0  0  0  0
 23 24  1  0  0  0  0
 23 29  1  1  0  0  0
 25 26  1  1  0  0  0
 25 31  1  0  0  0  0
 27 28  1  0  0  0  0
 27 33  1  6  0  0  0
 29 30  1  0  0  0  0
 31 32  1  6  0  0  0
 33 34  1  0  0  0  0
M  END
>  <CHROM.1>
178.56901960,59.56172451,-172.88644139,-85.95437844,-81.13051761,-176.34244428
-176.21859416,-177.95948201,0.15481464,-8.08589686,46.57410832,-0.38563389
-0.25480386,2.13992919

>  <Name>
2o3v_lig

>  <RI>
0

>  <Rbt.Current_Directory>
/home/afrankz/demos/rdock_decoys_rna/rnas/2o3v

>  <Rbt.Executable>
rbdock ($Id: //depot/dev/client3/rdock/2013.1/src/exe/rbdock.cxx#4 $)

>  <Rbt.Library>
libRbt.so (2013.1, Build901 2013/11/27)

>  <Rbt.Parameter_File>
/export/apps/rDock/src/rDock_2013.1_src/data/scripts/dock_solv.prm

>  <Rbt.Receptor>
prm/pocket_docking_3.prm

>  <SCORE>
-10.8565

>  <SCORE.INTER>
-5.4968

>  <SCORE.INTER.CONST>
1

>  <SCORE.INTER.POLAR>
0

>  <SCORE.INTER.ROT>
8

>  <SCORE.INTER.SOLV>
14.1621

>  <SCORE.INTER.VDW>
-17.3186

>  <SCORE.INTER.norm>
-0.157052

>  <SCORE.INTRA>
-5.37219

>  <SCORE.INTRA.DIHEDRAL>
-7.84964

>  <SCORE.INTRA.DIHEDRAL.0>
13.1227

>  <SCORE.INTRA.POLAR>
0

>  <SCORE.INTRA.POLAR.0>
0

>  <SCORE.INTRA.REPUL>
0

>  <SCORE.INTRA.REPUL.0>
0

>  <SCORE.INTRA.SOLV>
-0.398923

>  <SCORE.INTRA.SOLV.lig_0>
-89.1587

>  <SCORE.INTRA.VDW>
-1.24792

>  <SCORE.INTRA.VDW.0>
-0.838383

>  <SCORE.INTRA.norm>
-0.153491

>  <SCORE.RESTR>
0.0125011

>  <SCORE.RESTR.CAVITY>
0.0125011

>  <SCORE.RESTR.norm>
0.000357173

>  <SCORE.SYSTEM>
0

>  <SCORE.SYSTEM.CONST>
0

>  <SCORE.SYSTEM.DIHEDRAL>
0

>  <SCORE.SYSTEM.SOLV>
0

>  <SCORE.SYSTEM.norm>
0

>  <SCORE.heavy>
35

>  <SCORE.norm>
-0.310186

>  <RMSD>
1.638

$$$$
2o3v_lig
 OpenBabel02141814113D
libRbt.so/2013.1/901 2013/11/27
 35 37  0  0  0  0  0  0  0  0999 V2000
    2.1996   -8.0888   44.3040 C   0  0  2  0  0  0  0  0  0  0  0  0
    3.0940   -6.9723   44.0106 O   0  0  0  0  0  0  0  0  0  0  0  0
    7.3030   -6.3559   43.0984 C   0  0  2  0  0  0  0  0  0  0  0  0
    8.7914   -6.3611   43.2279 N   0  0  0  0  0  0  0  0  0  0  0  0
   -6.0288   -8.3589   45.4636 C   0  0  2  0  0  0  0  0  0  0  0  0
   -5.6666   -9.0537   46.6766 O   0  0  0  0  0  0  0  0  0  0  0  0
    0.7828   -7.4362   44.2317 C   0  0  2  0  0  0  0  0  0  0  0  0
    0.5365   -6.8361   42.8993 N   0  0  0  0  0  0  0  0  0  0  0  0
    6.6557   -5.4965   44.2680 C   0  0  0  0  0  0  0  0  0  0  0  0
   -4.7422   -7.6376   44.9319 C   0  0  2  0  0  0  0  0  0  0  0  0
   -3.6438   -8.6096   44.7005 N   0  0  0  0  0  0  0  0  0  0  0  0
    0.5897   -6.3332   45.3611 C   0  0  1  0  0  0  0  0  0  0  0  0
   -0.7469   -5.6938   45.2474 O   0  0  0  0  0  0  0  0  0  0  0  0
    5.0732   -5.5168   44.1139 C   0  0  2  0  0  0  0  0  0  0  0  0
    4.4498   -4.7314   45.2006 N   0  0  0  0  0  0  0  0  0  0  0  0
   -4.2637   -6.4875   45.9235 C   0  0  1  0  0  0  0  0  0  0  0  0
   -3.0931   -5.7804   45.4394 O   0  0  0  0  0  0  0  0  0  0  0  0
    0.8594   -7.0354   46.7639 C   0  0  2  0  0  0  0  0  0  0  0  0
    0.7337   -6.1182   47.8356 O   0  0  0  0  0  0  0  0  0  0  0  0
    4.5458   -7.0099   44.1554 C   0  0  2  0  0  0  0  0  0  0  0  0
   -5.4436   -5.4846   46.1250 C   0  0  2  0  0  0  0  0  0  0  0  0
   -5.0785   -4.4429   47.0087 O   0  0  0  0  0  0  0  0  0  0  0  0
    2.2917   -7.6926   46.7875 C   0  0  2  0  0  0  0  0  0  0  0  0
    2.4227   -8.6466   45.6662 O   0  0  0  0  0  0  0  0  0  0  0  0
    5.1884   -7.8446   43.0123 C   0  0  2  0  0  0  0  0  0  0  0  0
    4.6910   -9.2078   43.1368 O   0  0  0  0  0  0  0  0  0  0  0  0
   -6.7195   -6.2522   46.6563 C   0  0  2  0  0  0  0  0  0  0  0  0
   -7.0858   -7.3451   45.7267 O   0  0  0  0  0  0  0  0  0  0  0  0
    2.5617   -8.4065   48.1113 C   0  0  0  0  0  0  0  0  0  0  0  0
    2.6902   -7.4855   49.1668 O   0  0  0  0  0  0  0  0  0  0  0  0
    6.7282   -7.8247   43.1563 C   0  0  1  0  0  0  0  0  0  0  0  0
    7.2866   -8.5839   42.1047 O   0  0  0  0  0  0  0  0  0  0  0  0
   -7.9105   -5.3213   46.8267 C   0  0  0  0  0  0  0  0  0  0  0  0
   -9.0282   -6.0350   47.2972 O   0  0  0  0  0  0  0  0  0  0  0  0
   -1.8982   -6.5929   45.6328 C   0  0  0  0  0  0  0  0  0  0  0  0
  1  2  1  1  0  0  0
  1  7  1  0  0  0  0
  1 24  1  0  0  0  0
  3  4  1  1  0  0  0
  3  9  1  0  0  0  0
  3 31  1  0  0  0  0
  5  6  1  1  0  0  0
  5 10  1  0  0  0  0
  5 28  1  0  0  0  0
  7  8  1  6  0  0  0
  7 12  1  0  0  0  0
  9 14  1  0  0  0  0
 10 11  1  1  0  0  0
 10 16  1  0  0  0  0
 12 13  1  1  0  0  0
 12 18  1  0  0  0  0
 13 35  1  0  0  0  0
 14 15  1  1  0  0  0
 14 20  1  0  0  0  0
 16 17  1  6  0  0  0
 16 21  1  0  0  0  0
 17 35  1  0  0  0  0
 18 19  1  1  0  0  0
 18 23  1  0  0  0  0
 20  2  1  6  0  0  0
 20 25  1  0  0  0  0
 21 22  1  1  0  0  0
 21 27  1  0  0  0  0
 23 24  1  0  0  0  0
 23 29  1  1  0  0  0
 25 26  1  1  0  0  0
 25 31  1  0  0  0  0
 27 28  1  0  0  0  0
 27 33  1  6  0  0  0
 29 30  1  0  0  0  0
 31 32  1  6  0  0  0
 33 34  1  0  0  0  0
M  END
>  <CHROM.1>
170.13768925,70.56961790,-179.55972312,-76.14640658,-173.52393246,-165.06199415
-68.94842999,179.87470238,0.17228973,-6.95078935,45.29913483,0.20099129,-0.03780134
-1.97576851

>  <Name>
2o3v_lig

>  <RI>
0

>  <Rbt.Current_Directory>
/home/afrankz/demos/rdock_decoys_rna/rnas/2o3v

>  <Rbt.Executable>
rbdock ($Id: //depot/dev/client3/rdock/2013.1/src/exe/rbdock.cxx#4 $)

>  <Rbt.Library>
libRbt.so (2013.1, Build901 2013/11/27)

>  <Rbt.Parameter_File>
/export/apps/rDock/src/rDock_2013.1_src/data/scripts/dock_solv.prm

>  <Rbt.Receptor>
prm/pocket_docking_3.prm

>  <SCORE>
-11.2249

>  <SCORE.INTER>
-5.74785

>  <SCORE.INTER.CONST>
1

>  <SCORE.INTER.POLAR>
-0.755861

>  <SCORE.INTER.ROT>
8

>  <SCORE.INTER.SOLV>
16.7196

>  <SCORE.INTER.VDW>
-15.8189

>  <SCORE.INTER.norm>
-0.164224

>  <SCORE.INTRA>
-5.47707

>  <SCORE.INTRA.DIHEDRAL>
-9.32769

>  <SCORE.INTRA.DIHEDRAL.0>
13.1227

>  <SCORE.INTRA.POLAR>
0

>  <SCORE.INTRA.POLAR.0>
0

>  <SCORE.INTRA.REPUL>
0

>  <SCORE.INTRA.REPUL.0>
0

>  <SCORE.INTRA.SOLV>
0.123462

>  <SCORE.INTRA.SOLV.lig_0>
-89.1587

>  <SCORE.INTRA.VDW>
-0.874961

>  <SCORE.INTRA.VDW.0>
-0.838383

>  <SCORE.INTRA.norm>
-0.156488

>  <SCORE.RESTR>
0

>  <SCORE.RESTR.CAVITY>
0

>  <SCORE.RESTR.norm>
0

>  <SCORE.SYSTEM>
0

>  <SCORE.SYSTEM.CONST>
0

>  <SCORE.SYSTEM.DIHEDRAL>
0

>  <SCORE.SYSTEM.SOLV>
0

>  <SCORE.SYSTEM.norm>
0

>  <SCORE.heavy>
35

>  <SCORE.norm>
-0.320712

>  <RMSD>
1.692

$$$$
2o3v_lig
 OpenBabel02141814113D
libRbt.so/2013.1/901 2013/11/27
 35 37  0  0  0  0  0  0  0  0999 V2000
    2.2151   -7.6841   46.0965 C   0  0  2  0  0  0  0  0  0  0  0  0
    2.7771   -7.5607   44.7542 O   0  0  0  0  0  0  0  0  0  0  0  0
    6.4390   -6.7946   42.5337 C   0  0  2  0  0  0  0  0  0  0  0  0
    7.8910   -6.6698   42.2048 N   0  0  0  0  0  0  0  0  0  0  0  0
   -5.4563   -8.9870   48.5172 C   0  0  2  0  0  0  0  0  0  0  0  0
   -4.5514   -8.0939   49.2020 O   0  0  0  0  0  0  0  0  0  0  0  0
    1.1880   -8.8505   45.9447 C   0  0  2  0  0  0  0  0  0  0  0  0
    1.8518  -10.0922   45.4822 N   0  0  0  0  0  0  0  0  0  0  0  0
    6.0603   -5.8061   43.7190 C   0  0  0  0  0  0  0  0  0  0  0  0
   -4.5860  -10.0095   47.7075 C   0  0  2  0  0  0  0  0  0  0  0  0
   -3.6599  -10.7474   48.6034 N   0  0  0  0  0  0  0  0  0  0  0  0
    0.0117   -8.4665   44.9455 C   0  0  1  0  0  0  0  0  0  0  0  0
   -0.9296   -9.6045   44.7808 O   0  0  0  0  0  0  0  0  0  0  0  0
    4.5148   -5.9669   44.0567 C   0  0  2  0  0  0  0  0  0  0  0  0
    4.1436   -5.0629   45.1664 N   0  0  0  0  0  0  0  0  0  0  0  0
   -3.7735   -9.2921   46.5413 C   0  0  1  0  0  0  0  0  0  0  0  0
   -2.9844  -10.2206   45.7539 O   0  0  0  0  0  0  0  0  0  0  0  0
   -0.6648   -7.1349   45.4957 C   0  0  2  0  0  0  0  0  0  0  0  0
   -1.7151   -6.6997   44.6510 O   0  0  0  0  0  0  0  0  0  0  0  0
    4.2026   -7.4679   44.4551 C   0  0  2  0  0  0  0  0  0  0  0  0
   -4.7873   -8.5431   45.6195 C   0  0  2  0  0  0  0  0  0  0  0  0
   -4.1188   -7.8757   44.5672 O   0  0  0  0  0  0  0  0  0  0  0  0
    0.4083   -5.9907   45.6476 C   0  0  2  0  0  0  0  0  0  0  0  0
    1.5055   -6.4477   46.5261 O   0  0  0  0  0  0  0  0  0  0  0  0
    4.5816   -8.4282   43.2930 C   0  0  2  0  0  0  0  0  0  0  0  0
    4.3065   -9.7856   43.7433 O   0  0  0  0  0  0  0  0  0  0  0  0
   -5.6458   -7.5276   46.4746 C   0  0  2  0  0  0  0  0  0  0  0  0
   -6.3334   -8.2377   47.5773 O   0  0  0  0  0  0  0  0  0  0  0  0
   -0.2089   -4.7111   46.2100 C   0  0  0  0  0  0  0  0  0  0  0  0
    0.7776   -3.7398   46.4597 O   0  0  0  0  0  0  0  0  0  0  0  0
    6.0837   -8.2725   42.9587 C   0  0  1  0  0  0  0  0  0  0  0  0
    6.4002   -9.1498   41.8984 O   0  0  0  0  0  0  0  0  0  0  0  0
   -6.6798   -6.8044   45.6250 C   0  0  0  0  0  0  0  0  0  0  0  0
   -7.3087   -5.7920   46.3730 O   0  0  0  0  0  0  0  0  0  0  0  0
   -1.5688  -10.0707   46.0678 C   0  0  0  0  0  0  0  0  0  0  0  0
  1  2  1  6  0  0  0
  1  7  1  0  0  0  0
  1 24  1  0  0  0  0
  3  4  1  1  0  0  0
  3  9  1  0  0  0  0
  3 31  1  0  0  0  0
  5  6  1  6  0  0  0
  5 10  1  0  0  0  0
  5 28  1  0  0  0  0
  7  8  1  6  0  0  0
  7 12  1  0  0  0  0
  9 14  1  0  0  0  0
 10 11  1  1  0  0  0
 10 16  1  0  0  0  0
 12 13  1  1  0  0  0
 12 18  1  0  0  0  0
 13 35  1  0  0  0  0
 14 15  1  1  0  0  0
 14 20  1  0  0  0  0
 16 17  1  6  0  0  0
 16 21  1  0  0  0  0
 17 35  1  0  0  0  0
 18 19  1  6  0  0  0
 18 23  1  0  0  0  0
 20  2  1  6  0  0  0
 20 25  1  0  0  0  0
 21 22  1  6  0  0  0
 21 27  1  0  0  0  0
 23 24  1  0  0  0  0
 23 29  1  1  0  0  0
 25 26  1  1  0  0  0
 25 31  1  0  0  0  0
 27 28  1  0  0  0  0
 27 33  1  6  0  0  0
 29 30  1  0  0  0  0
 31 32  1  6  0  0  0
 33 34  1  0  0  0  0
M  END
>  <CHROM.1>
-132.49348539,58.83021449,133.96518002,-106.82927811,-116.57248080,-105.84134554
174.43254278,-172.56517280,-0.04721805,-7.78196017,45.42564882,0.06617159
0.31859097,0.04806811

>  <Name>
2o3v_lig

>  <RI>
0

>  <Rbt.Current_Directory>
/home/afrankz/demos/rdock_decoys_rna/rnas/2o3v

>  <Rbt.Executable>
rbdock ($Id: //depot/dev/client3/rdock/2013.1/src/exe/rbdock.cxx#4 $)

>  <Rbt.Library>
libRbt.so (2013.1, Build901 2013/11/27)

>  <Rbt.Parameter_File>
/export/apps/rDock/src/rDock_2013.1_src/data/scripts/dock_solv.prm

>  <Rbt.Receptor>
prm/pocket_docking_2.prm

>  <SCORE>
12.2114

>  <SCORE.INTER>
-0.0576663

>  <SCORE.INTER.CONST>
1

>  <SCORE.INTER.POLAR>
0

>  <SCORE.INTER.ROT>
8

>  <SCORE.INTER.SOLV>
13.6429

>  <SCORE.INTER.VDW>
-13.5194

>  <SCORE.INTER.norm>
-0.00164761

>  <SCORE.INTRA>
8.90928

>  <SCORE.INTRA.DIHEDRAL>
19.7173

>  <SCORE.INTRA.DIHEDRAL.0>
13.1227

>  <SCORE.INTRA.POLAR>
0

>  <SCORE.INTRA.POLAR.0>
0

>  <SCORE.INTRA.REPUL>
0.0276954

>  <SCORE.INTRA.REPUL.0>
0

>  <SCORE.INTRA.SOLV>
3.23334

>  <SCORE.INTRA.SOLV.lig_0>
-89.1587

>  <SCORE.INTRA.VDW>
-2.70452

>  <SCORE.INTRA.VDW.0>
-0.838383

>  <SCORE.INTRA.norm>
0.254551

>  <SCORE.RESTR>
3.35983

>  <SCORE.RESTR.CAVITY>
3.35983

>  <SCORE.RESTR.norm>
0.095995

>  <SCORE.SYSTEM>
0

>  <SCORE.SYSTEM.CONST>
0

>  <SCORE.SYSTEM.DIHEDRAL>
0

>  <SCORE.SYSTEM.SOLV>
0

>  <SCORE.SYSTEM.norm>
0

>  <SCORE.heavy>
35

>  <SCORE.norm>
0.348898

>  <RMSD>
1.866

$$$$
2o3v_lig
 OpenBabel02141814113D
libRbt.so/2013.1/901 2013/11/27
 35 37  0  0  0  0  0  0  0  0999 V2000
    2.2794   -8.5033   45.6806 C   0  0  2  0  0  0  0  0  0  0  0  0
    2.9517   -7.3681   45.0545 O   0  0  0  0  0  0  0  0  0  0  0  0
    6.6019   -7.4762   42.6899 C   0  0  2  0  0  0  0  0  0  0  0  0
    7.5229   -7.5861   41.5186 N   0  0  0  0  0  0  0  0  0  0  0  0
   -6.3014   -9.3627   47.3394 C   0  0  2  0  0  0  0  0  0  0  0  0
   -5.6187   -9.2832   48.6095 O   0  0  0  0  0  0  0  0  0  0  0  0
    0.8863   -8.5230   44.9753 C   0  0  2  0  0  0  0  0  0  0  0  0
    1.0305   -8.6769   43.5084 N   0  0  0  0  0  0  0  0  0  0  0  0
    5.7870   -8.8281   42.8729 C   0  0  0  0  0  0  0  0  0  0  0  0
   -5.2090   -9.3332   46.2150 C   0  0  2  0  0  0  0  0  0  0  0  0
   -4.2378  -10.4432   46.3866 N   0  0  0  0  0  0  0  0  0  0  0  0
    0.0500   -7.2091   45.2975 C   0  0  1  0  0  0  0  0  0  0  0  0
   -1.2524   -7.2273   44.5822 O   0  0  0  0  0  0  0  0  0  0  0  0
    4.8075   -8.6808   44.1169 C   0  0  2  0  0  0  0  0  0  0  0  0
    4.0303   -9.9255   44.2980 N   0  0  0  0  0  0  0  0  0  0  0  0
   -4.4493   -7.9346   46.1734 C   0  0  1  0  0  0  0  0  0  0  0  0
   -3.4548   -7.8674   45.1194 O   0  0  0  0  0  0  0  0  0  0  0  0
   -0.0769   -7.1017   46.8805 C   0  0  2  0  0  0  0  0  0  0  0  0
   -0.7904   -5.9405   47.2658 O   0  0  0  0  0  0  0  0  0  0  0  0
    3.8255   -7.4589   43.8890 C   0  0  2  0  0  0  0  0  0  0  0  0
   -5.5067   -6.8022   45.9781 C   0  0  2  0  0  0  0  0  0  0  0  0
   -4.8881   -5.5311   45.9441 O   0  0  0  0  0  0  0  0  0  0  0  0
    1.3492   -7.1003   47.5513 C   0  0  2  0  0  0  0  0  0  0  0  0
    2.0940   -8.3106   47.1452 O   0  0  0  0  0  0  0  0  0  0  0  0
    4.6308   -6.1421   43.7048 C   0  0  2  0  0  0  0  0  0  0  0  0
    3.6698   -5.0752   43.4613 O   0  0  0  0  0  0  0  0  0  0  0  0
   -6.5895   -6.8707   47.1279 C   0  0  2  0  0  0  0  0  0  0  0  0
   -7.2231   -8.2088   47.1578 O   0  0  0  0  0  0  0  0  0  0  0  0
    1.2546   -7.0354   49.0750 C   0  0  0  0  0  0  0  0  0  0  0  0
    2.5327   -6.9889   49.6607 O   0  0  0  0  0  0  0  0  0  0  0  0
    5.5876   -6.2824   42.4977 C   0  0  1  0  0  0  0  0  0  0  0  0
    6.3098   -5.0772   42.3558 O   0  0  0  0  0  0  0  0  0  0  0  0
   -7.6675   -5.8115   46.9547 C   0  0  0  0  0  0  0  0  0  0  0  0
   -8.6602   -5.9552   47.9416 O   0  0  0  0  0  0  0  0  0  0  0  0
   -2.4392   -6.8744   45.4477 C   0  0  0  0  0  0  0  0  0  0  0  0
  1  2  1  6  0  0  0
  1  7  1  0  0  0  0
  1 24  1  0  0  0  0
  3  4  1  6  0  0  0
  3  9  1  0  0  0  0
  3 31  1  0  0  0  0
  5  6  1  1  0  0  0
  5 10  1  0  0  0  0
  5 28  1  0  0  0  0
  7  8  1  6  0  0  0
  7 12  1  0  0  0  0
  9 14  1  0  0  0  0
 10 11  1  1  0  0  0
 10 16  1  0  0  0  0
 12 13  1  6  0  0  0
 12 18  1  0  0  0  0
 13 35  1  0  0  0  0
 14 15  1  6  0  0  0
 14 20  1  0  0  0  0
 16 17  1  6  0  0  0
 16 21  1  0  0  0  0
 17 35  1  0  0  0  0
 18 19  1  6  0  0  0
 18 23  1  0  0  0  0
 20  2  1  1  0  0  0
 20 25  1  0  0  0  0
 21 22  1  1  0  0  0
 21 27  1  0  0  0  0
 23 24  1  0  0  0  0
 23 29  1  1  0  0  0
 25 26  1  6  0  0  0
 25 31  1  0  0  0  0
 27 28  1  0  0  0  0
 27 33  1  6  0  0  0
 29 30  1  0  0  0  0
 31 32  1  1  0  0  0
 33 34  1  0  0  0  0
M  END
>  <CHROM.1>
-93.10849184,132.57643502,-134.82501499,-156.11255780,160.52126262,-45.45570225
-177.99610060,176.16013648,-0.26194715,-7.47512608,45.59337125,-0.29796828
-0.04280485,1.78860810

>  <Name>
2o3v_lig

>  <RI>
0

>  <Rbt.Current_Directory>
/home/afrankz/demos/rdock_decoys_rna/rnas/2o3v

>  <Rbt.Executable>
rbdock ($Id: //depot/dev/client3/rdock/2013.1/src/exe/rbdock.cxx#4 $)

>  <Rbt.Library>
libRbt.so (2013.1, Build901 2013/11/27)

>  <Rbt.Parameter_File>
/export/apps/rDock/src/rDock_2013.1_src/data/scripts/dock_solv.prm

>  <Rbt.Receptor>
prm/pocket_docking_2.prm

>  <SCORE>
5.66133

>  <SCORE.INTER>
-3.37348

>  <SCORE.INTER.CONST>
1

>  <SCORE.INTER.POLAR>
0

>  <SCORE.INTER.ROT>
8

>  <SCORE.INTER.SOLV>
20.714

>  <SCORE.INTER.VDW>
-18.087

>  <SCORE.INTER.norm>
-0.096385

>  <SCORE.INTRA>
8.95898

>  <SCORE.INTRA.DIHEDRAL>
8.93933

>  <SCORE.INTRA.DIHEDRAL.0>
13.1227

>  <SCORE.INTRA.POLAR>
0

>  <SCORE.INTRA.POLAR.0>
0

>  <SCORE.INTRA.REPUL>
0

>  <SCORE.INTRA.REPUL.0>
0

>  <SCORE.INTRA.SOLV>
2.16186

>  <SCORE.INTRA.SOLV.lig_0>
-89.1587

>  <SCORE.INTRA.VDW>
3.40838

>  <SCORE.INTRA.VDW.0>
-0.838383

>  <SCORE.INTRA.norm>
0.255971

>  <SCORE.RESTR>
0.0758306

>  <SCORE.RESTR.CAVITY>
0.0758306

>  <SCORE.RESTR.norm>
0.00216659

>  <SCORE.SYSTEM>
0

>  <SCORE.SYSTEM.CONST>
0

>  <SCORE.SYSTEM.DIHEDRAL>
0

>  <SCORE.SYSTEM.SOLV>
0

>  <SCORE.SYSTEM.norm>
0

>  <SCORE.heavy>
35

>  <SCORE.norm>
0.161752

>  <RMSD>
1.867

$$$$
2o3v_lig
 OpenBabel02141814113D
libRbt.so/2013.1/901 2013/11/27
 35 37  0  0  0  0  0  0  0  0999 V2000
    2.0309   -8.3992   45.3270 C   0  0  2  0  0  0  0  0  0  0  0  0
    2.4425   -7.5578   44.2066 O   0  0  0  0  0  0  0  0  0  0  0  0
    6.7541   -7.4230   43.6416 C   0  0  2  0  0  0  0  0  0  0  0  0
    8.0968   -7.5148   42.9927 N   0  0  0  0  0  0  0  0  0  0  0  0
   -5.3008   -9.1807   49.2973 C   0  0  2  0  0  0  0  0  0  0  0  0
   -4.7131   -8.4625   50.4038 O   0  0  0  0  0  0  0  0  0  0  0  0
    0.4799   -8.2202   45.3535 C   0  0  2  0  0  0  0  0  0  0  0  0
   -0.1294   -8.6350   44.0678 N   0  0  0  0  0  0  0  0  0  0  0  0
    6.0394   -8.8423   43.6217 C   0  0  0  0  0  0  0  0  0  0  0  0
   -4.3724   -8.9687   48.0518 C   0  0  2  0  0  0  0  0  0  0  0  0
   -2.9896   -9.4307   48.3334 N   0  0  0  0  0  0  0  0  0  0  0  0
    0.0709   -6.7186   45.6815 C   0  0  1  0  0  0  0  0  0  0  0  0
   -1.4064   -6.5599   45.6582 O   0  0  0  0  0  0  0  0  0  0  0  0
    4.6101   -8.7146   44.3065 C   0  0  2  0  0  0  0  0  0  0  0  0
    3.9224  -10.0235   44.2881 N   0  0  0  0  0  0  0  0  0  0  0  0
   -4.3626   -7.4478   47.5810 C   0  0  1  0  0  0  0  0  0  0  0  0
   -3.5368   -7.2287   46.4085 O   0  0  0  0  0  0  0  0  0  0  0  0
    0.7463   -6.3336   47.0705 C   0  0  2  0  0  0  0  0  0  0  0  0
    0.4560   -4.9962   47.4352 O   0  0  0  0  0  0  0  0  0  0  0  0
    3.7389   -7.6357   43.5407 C   0  0  2  0  0  0  0  0  0  0  0  0
   -5.8324   -7.0119   47.2836 C   0  0  2  0  0  0  0  0  0  0  0  0
   -5.8868   -5.6609   46.8697 O   0  0  0  0  0  0  0  0  0  0  0  0
    2.3069   -6.5432   47.0041 C   0  0  2  0  0  0  0  0  0  0  0  0
    2.6081   -7.9382   46.6197 O   0  0  0  0  0  0  0  0  0  0  0  0
    4.4480   -6.2525   43.5596 C   0  0  2  0  0  0  0  0  0  0  0  0
    3.6136   -5.3259   42.8071 O   0  0  0  0  0  0  0  0  0  0  0  0
   -6.7337   -7.2460   48.5612 C   0  0  2  0  0  0  0  0  0  0  0  0
   -6.6609   -8.6619   48.9888 O   0  0  0  0  0  0  0  0  0  0  0  0
    2.9761   -6.2159   48.3382 C   0  0  0  0  0  0  0  0  0  0  0  0
    2.4949   -7.0489   49.3645 O   0  0  0  0  0  0  0  0  0  0  0  0
    5.8405   -6.3730   42.8975 C   0  0  1  0  0  0  0  0  0  0  0  0
    6.4645   -5.1067   42.9326 O   0  0  0  0  0  0  0  0  0  0  0  0
   -8.1867   -6.8757   48.3050 C   0  0  0  0  0  0  0  0  0  0  0  0
   -8.7132   -7.6509   47.2553 O   0  0  0  0  0  0  0  0  0  0  0  0
   -2.1254   -7.2906   46.7679 C   0  0  0  0  0  0  0  0  0  0  0  0
  1  2  1  6  0  0  0
  1  7  1  0  0  0  0
  1 24  1  0  0  0  0
  3  4  1  6  0  0  0
  3  9  1  0  0  0  0
  3 31  1  0  0  0  0
  5  6  1  1  0  0  0
  5 10  1  0  0  0  0
  5 28  1  0  0  0  0
  7  8  1  6  0  0  0
  7 12  1  0  0  0  0
  9 14  1  0  0  0  0
 10 11  1  1  0  0  0
 10 16  1  0  0  0  0
 12 13  1  1  0  0  0
 12 18  1  0  0  0  0
 13 35  1  0  0  0  0
 14 15  1  6  0  0  0
 14 20  1  0  0  0  0
 16 17  1  6  0  0  0
 16 21  1  0  0  0  0
 17 35  1  0  0  0  0
 18 19  1  6  0  0  0
 18 23  1  0  0  0  0
 20  2  1  1  0  0  0
 20 25  1  0  0  0  0
 21 22  1  1  0  0  0
 21 27  1  0  0  0  0
 23 24  1  0  0  0  0
 23 29  1  1  0  0  0
 25 26  1  6  0  0  0
 25 31  1  0  0  0  0
 27 28  1  0  0  0  0
 27 33  1  6  0  0  0
 29 30  1  0  0  0  0
 31 32  1  1  0  0  0
 33 34  1  0  0  0  0
M  END
>  <CHROM.1>
-163.34422825,67.42588518,-168.98087661,-73.82028171,-159.34118043,-3.30814729
60.76978219,59.76552380,-0.08274266,-7.38463767,46.16476989,-0.35893811,-0.06481746
1.86169703

>  <Name>
2o3v_lig

>  <RI>
0

>  <Rbt.Current_Directory>
/home/afrankz/demos/rdock_decoys_rna/rnas/2o3v

>  <Rbt.Executable>
rbdock ($Id: //depot/dev/client3/rdock/2013.1/src/exe/rbdock.cxx#4 $)

>  <Rbt.Library>
libRbt.so (2013.1, Build901 2013/11/27)

>  <Rbt.Parameter_File>
/export/apps/rDock/src/rDock_2013.1_src/data/scripts/dock_solv.prm

>  <Rbt.Receptor>
prm/pocket_docking_2.prm

>  <SCORE>
-0.0165344

>  <SCORE.INTER>
-1.34406

>  <SCORE.INTER.CONST>
1

>  <SCORE.INTER.POLAR>
0

>  <SCORE.INTER.ROT>
8

>  <SCORE.INTER.SOLV>
14.4658

>  <SCORE.INTER.VDW>
-14.6513

>  <SCORE.INTER.norm>
-0.0384017

>  <SCORE.INTRA>
1.26323

>  <SCORE.INTRA.DIHEDRAL>
-0.98679

>  <SCORE.INTRA.DIHEDRAL.0>
13.1227

>  <SCORE.INTRA.POLAR>
0

>  <SCORE.INTRA.POLAR.0>
0

>  <SCORE.INTRA.REPUL>
0

>  <SCORE.INTRA.REPUL.0>
0

>  <SCORE.INTRA.SOLV>
1.71774

>  <SCORE.INTRA.SOLV.lig_0>
-89.1587

>  <SCORE.INTRA.VDW>
0.897753

>  <SCORE.INTRA.VDW.0>
-0.838383

>  <SCORE.INTRA.norm>
0.0360923

>  <SCORE.RESTR>
0.064295

>  <SCORE.RESTR.CAVITY>
0.064295

>  <SCORE.RESTR.norm>
0.001837

>  <SCORE.SYSTEM>
0

>  <SCORE.SYSTEM.CONST>
0

>  <SCORE.SYSTEM.DIHEDRAL>
0

>  <SCORE.SYSTEM.SOLV>
0

>  <SCORE.SYSTEM.norm>
0

>  <SCORE.heavy>
35

>  <SCORE.norm>
-0.000472411

>  <RMSD>
1.878

$$$$
2o3v_lig
 OpenBabel02141814113D
libRbt.so/2013.1/901 2013/11/27
 35 37  0  0  0  0  0  0  0  0999 V2000
    2.0559   -8.2368   44.2087 C   0  0  2  0  0  0  0  0  0  0  0  0
    2.8372   -7.0232   43.9860 O   0  0  0  0  0  0  0  0  0  0  0  0
    6.9652   -6.2300   42.8643 C   0  0  2  0  0  0  0  0  0  0  0  0
    8.4527   -6.1146   42.9432 N   0  0  0  0  0  0  0  0  0  0  0  0
   -5.2791   -7.4661   47.0765 C   0  0  2  0  0  0  0  0  0  0  0  0
   -4.5594   -7.5801   48.3233 O   0  0  0  0  0  0  0  0  0  0  0  0
    0.5846   -7.7517   44.0132 C   0  0  2  0  0  0  0  0  0  0  0  0
    0.3845   -7.1782   42.6614 N   0  0  0  0  0  0  0  0  0  0  0  0
    6.2854   -5.2803   43.9419 C   0  0  0  0  0  0  0  0  0  0  0  0
   -4.2947   -6.8577   46.0185 C   0  0  2  0  0  0  0  0  0  0  0  0
   -3.0796   -7.6991   45.8758 N   0  0  0  0  0  0  0  0  0  0  0  0
    0.1706   -6.6832   45.1162 C   0  0  1  0  0  0  0  0  0  0  0  0
   -1.2164   -6.2019   44.8862 O   0  0  0  0  0  0  0  0  0  0  0  0
    4.7055   -5.4306   43.8449 C   0  0  2  0  0  0  0  0  0  0  0  0
    4.0529   -4.5626   44.8485 N   0  0  0  0  0  0  0  0  0  0  0  0
   -3.8919   -5.3618   46.3858 C   0  0  1  0  0  0  0  0  0  0  0  0
   -3.0071   -4.7620   45.4050 O   0  0  0  0  0  0  0  0  0  0  0  0
    0.3997   -7.3558   46.5405 C   0  0  2  0  0  0  0  0  0  0  0  0
    0.0787   -6.4638   47.5928 O   0  0  0  0  0  0  0  0  0  0  0  0
    4.2910   -6.9405   44.0852 C   0  0  2  0  0  0  0  0  0  0  0  0
   -5.1973   -4.5139   46.5113 C   0  0  2  0  0  0  0  0  0  0  0  0
   -4.9007   -3.1730   46.8481 O   0  0  0  0  0  0  0  0  0  0  0  0
    1.8910   -7.8434   46.6889 C   0  0  2  0  0  0  0  0  0  0  0  0
    2.2257   -8.7710   45.5880 O   0  0  0  0  0  0  0  0  0  0  0  0
    4.9650   -7.8629   43.0310 C   0  0  2  0  0  0  0  0  0  0  0  0
    4.5729   -9.2317   43.3370 O   0  0  0  0  0  0  0  0  0  0  0  0
   -6.1617   -5.1633   47.5825 C   0  0  2  0  0  0  0  0  0  0  0  0
   -6.4572   -6.5690   47.2226 O   0  0  0  0  0  0  0  0  0  0  0  0
    2.1285   -8.5271   48.0346 C   0  0  0  0  0  0  0  0  0  0  0  0
    1.2474   -9.6085   48.2162 O   0  0  0  0  0  0  0  0  0  0  0  0
    6.5022   -7.7171   43.1195 C   0  0  1  0  0  0  0  0  0  0  0  0
    7.0888   -8.5595   42.1498 O   0  0  0  0  0  0  0  0  0  0  0  0
   -7.4684   -4.3947   47.7081 C   0  0  0  0  0  0  0  0  0  0  0  0
   -8.1760   -4.4271   46.4923 O   0  0  0  0  0  0  0  0  0  0  0  0
   -1.6164   -5.0296   45.7511 C   0  0  0  0  0  0  0  0  0  0  0  0
  1  2  1  1  0  0  0
  1  7  1  0  0  0  0
  1 24  1  0  0  0  0
  3  4  1  1  0  0  0
  3  9  1  0  0  0  0
  3 31  1  0  0  0  0
  5  6  1  1  0  0  0
  5 10  1  0  0  0  0
  5 28  1  0  0  0  0
  7  8  1  6  0  0  0
  7 12  1  0  0  0  0
  9 14  1  0  0  0  0
 10 11  1  1  0  0  0
 10 16  1  0  0  0  0
 12 13  1  6  0  0  0
 12 18  1  0  0  0  0
 13 35  1  0  0  0  0
 14 15  1  1  0  0  0
 14 20  1  0  0  0  0
 16 17  1  6  0  0  0
 16 21  1  0  0  0  0
 17 35  1  0  0  0  0
 18 19  1  1  0  0  0
 18 23  1  0  0  0  0
 20  2  1  6  0  0  0
 20 25  1  0  0  0  0
 21 22  1  1  0  0  0
 21 27  1  0  0  0  0
 23 24  1  0  0  0  0
 23 29  1  1  0  0  0
 25 26  1  1  0  0  0
 25 31  1  0  0  0  0
 27 28  1  0  0  0  0
 27 33  1  6  0  0  0
 29 30  1  0  0  0  0
 31 32  1  6  0  0  0
 33 34  1  0  0  0  0
M  END
>  <CHROM.1>
178.56382690,-170.84349529,-177.77132357,-89.33864149,98.77117058,-176.96309941
56.75500232,62.67382648,0.12828985,-6.65182823,45.42600746,-0.01461966,-0.32731647
2.62203284

>  <Name>
2o3v_lig

>  <RI>
0

>  <Rbt.Current_Directory>
/home/afrankz/demos/rdock_decoys_rna/rnas/2o3v

>  <Rbt.Executable>
rbdock ($Id: //depot/dev/client3/rdock/2013.1/src/exe/rbdock.cxx#4 $)

>  <Rbt.Library>
libRbt.so (2013.1, Build901 2013/11/27)

>  <Rbt.Parameter_File>
/export/apps/rDock/src/rDock_2013.1_src/data/scripts/dock_solv.prm

>  <Rbt.Receptor>
prm/pocket_docking_4.prm

>  <SCORE>
-10.7399

>  <SCORE.INTER>
-8.27821

>  <SCORE.INTER.CONST>
1

>  <SCORE.INTER.POLAR>
-0.676046

>  <SCORE.INTER.ROT>
8

>  <SCORE.INTER.SOLV>
18.4829

>  <SCORE.INTER.VDW>
-18.3596

>  <SCORE.INTER.norm>
-0.23652

>  <SCORE.INTRA>
-2.46167

>  <SCORE.INTRA.DIHEDRAL>
-3.85527

>  <SCORE.INTRA.DIHEDRAL.0>
13.1227

>  <SCORE.INTRA.POLAR>
0

>  <SCORE.INTRA.POLAR.0>
0

>  <SCORE.INTRA.REPUL>
0

>  <SCORE.INTRA.REPUL.0>
0

>  <SCORE.INTRA.SOLV>
2.46435

>  <SCORE.INTRA.SOLV.lig_0>
-89.1587

>  <SCORE.INTRA.VDW>
-1.7662

>  <SCORE.INTRA.VDW.0>
-0.838383

>  <SCORE.INTRA.norm>
-0.0703333

>  <SCORE.RESTR>
0

>  <SCORE.RESTR.CAVITY>
0

>  <SCORE.RESTR.norm>
0

>  <SCORE.SYSTEM>
0

>  <SCORE.SYSTEM.CONST>
0

>  <SCORE.SYSTEM.DIHEDRAL>
0

>  <SCORE.SYSTEM.SOLV>
0

>  <SCORE.SYSTEM.norm>
0

>  <SCORE.heavy>
35

>  <SCORE.norm>
-0.306854

>  <RMSD>
1.953

$$$$
2o3v_lig
 OpenBabel02141814113D
libRbt.so/2013.1/901 2013/11/27
 35 37  0  0  0  0  0  0  0  0999 V2000
    2.3103   -8.3014   44.0112 C   0  0  2  0  0  0  0  0  0  0  0  0
    2.9608   -7.0805   44.4791 O   0  0  0  0  0  0  0  0  0  0  0  0
    7.1256   -7.3935   43.2611 C   0  0  2  0  0  0  0  0  0  0  0  0
    8.5992   -7.1560   43.1951 N   0  0  0  0  0  0  0  0  0  0  0  0
   -4.7516   -9.1446   48.1135 C   0  0  2  0  0  0  0  0  0  0  0  0
   -3.5813   -8.8729   48.9148 O   0  0  0  0  0  0  0  0  0  0  0  0
    0.8094   -7.8842   43.9034 C   0  0  2  0  0  0  0  0  0  0  0  0
    0.6354   -6.7456   42.9709 N   0  0  0  0  0  0  0  0  0  0  0  0
    6.3405   -6.0570   42.9107 C   0  0  0  0  0  0  0  0  0  0  0  0
   -4.3108   -9.1097   46.6092 C   0  0  2  0  0  0  0  0  0  0  0  0
   -3.2273  -10.0911   46.3488 N   0  0  0  0  0  0  0  0  0  0  0  0
    0.2036   -7.5106   45.3257 C   0  0  1  0  0  0  0  0  0  0  0  0
   -1.2110   -7.0743   45.1955 O   0  0  0  0  0  0  0  0  0  0  0  0
    4.7771   -6.3336   42.9994 C   0  0  2  0  0  0  0  0  0  0  0  0
    4.0271   -5.0980   42.6877 N   0  0  0  0  0  0  0  0  0  0  0  0
   -3.8535   -7.6502   46.1669 C   0  0  1  0  0  0  0  0  0  0  0  0
   -3.4715   -7.5815   44.7690 O   0  0  0  0  0  0  0  0  0  0  0  0
    0.4129   -8.7688   46.2779 C   0  0  2  0  0  0  0  0  0  0  0  0
   -0.0772   -8.5186   47.5829 O   0  0  0  0  0  0  0  0  0  0  0  0
    4.4005   -6.8426   44.4514 C   0  0  2  0  0  0  0  0  0  0  0  0
   -5.0265   -6.6578   46.4457 C   0  0  2  0  0  0  0  0  0  0  0  0
   -4.6723   -5.3385   46.0806 O   0  0  0  0  0  0  0  0  0  0  0  0
    1.9370   -9.1642   46.3456 C   0  0  2  0  0  0  0  0  0  0  0  0
    2.4480   -9.4211   44.9828 O   0  0  0  0  0  0  0  0  0  0  0  0
    5.1773   -8.1462   44.7883 C   0  0  2  0  0  0  0  0  0  0  0  0
    4.8134   -8.5308   46.1451 O   0  0  0  0  0  0  0  0  0  0  0  0
   -5.4421   -6.7279   47.9694 C   0  0  2  0  0  0  0  0  0  0  0  0
   -5.8021   -8.1156   48.3404 O   0  0  0  0  0  0  0  0  0  0  0  0
    2.1611  -10.3936   47.2249 C   0  0  0  0  0  0  0  0  0  0  0  0
    3.5272  -10.5706   47.5100 O   0  0  0  0  0  0  0  0  0  0  0  0
    6.6987   -7.8825   44.6997 C   0  0  1  0  0  0  0  0  0  0  0  0
    7.3798   -9.0815   45.0041 O   0  0  0  0  0  0  0  0  0  0  0  0
   -6.6131   -5.8081   48.2801 C   0  0  0  0  0  0  0  0  0  0  0  0
   -6.2724   -4.4703   48.0078 O   0  0  0  0  0  0  0  0  0  0  0  0
   -2.1257   -8.1119   44.5880 C   0  0  0  0  0  0  0  0  0  0  0  0
  1  2  1  1  0  0  0
  1  7  1  0  0  0  0
  1 24  1  0  0  0  0
  3  4  1  1  0  0  0
  3  9  1  0  0  0  0
  3 31  1  0  0  0  0
  5  6  1  1  0  0  0
  5 10  1  0  0  0  0
  5 28  1  0  0  0  0
  7  8  1  6  0  0  0
  7 12  1  0  0  0  0
  9 14  1  0  0  0  0
 10 11  1  1  0  0  0
 10 16  1  0  0  0  0
 12 13  1  6  0  0  0
 12 18  1  0  0  0  0
 13 35  1  0  0  0  0
 14 15  1  1  0  0  0
 14 20  1  0  0  0  0
 16 17  1  6  0  0  0
 16 21  1  0  0  0  0
 17 35  1  0  0  0  0
 18 19  1  1  0  0  0
 18 23  1  0  0  0  0
 20  2  1  6  0  0  0
 20 25  1  0  0  0  0
 21 22  1  1  0  0  0
 21 27  1  0  0  0  0
 23 24  1  0  0  0  0
 23 29  1  1  0  0  0
 25 26  1  1  0  0  0
 25 31  1  0  0  0  0
 27 28  1  0  0  0  0
 27 33  1  6  0  0  0
 29 30  1  0  0  0  0
 31 32  1  6  0  0  0
 33 34  1  0  0  0  0
M  END
>  <CHROM.1>
-165.23250969,59.34106853,170.34165955,-78.84040203,-71.67105100,83.21724912
-167.50793456,-60.95181924,0.42082370,-7.76487865,45.66084709,0.14477090
0.24718912,-0.68033273

>  <Name>
2o3v_lig

>  <RI>
0

>  <Rbt.Current_Directory>
/home/afrankz/demos/rdock_decoys_rna/rnas/2o3v

>  <Rbt.Executable>
rbdock ($Id: //depot/dev/client3/rdock/2013.1/src/exe/rbdock.cxx#4 $)

>  <Rbt.Library>
libRbt.so (2013.1, Build901 2013/11/27)

>  <Rbt.Parameter_File>
/export/apps/rDock/src/rDock_2013.1_src/data/scripts/dock_solv.prm

>  <Rbt.Receptor>
prm/pocket_docking_3.prm

>  <SCORE>
-5.75587

>  <SCORE.INTER>
-3.15235

>  <SCORE.INTER.CONST>
1

>  <SCORE.INTER.POLAR>
-0.459642

>  <SCORE.INTER.ROT>
8

>  <SCORE.INTER.SOLV>
12.3496

>  <SCORE.INTER.VDW>
-13.6193

>  <SCORE.INTER.norm>
-0.0900672

>  <SCORE.INTRA>
-2.60351

>  <SCORE.INTRA.DIHEDRAL>
-6.43543

>  <SCORE.INTRA.DIHEDRAL.0>
13.1227

>  <SCORE.INTRA.POLAR>
0

>  <SCORE.INTRA.POLAR.0>
0

>  <SCORE.INTRA.REPUL>
0.0390121

>  <SCORE.INTRA.REPUL.0>
0

>  <SCORE.INTRA.SOLV>
3.36446

>  <SCORE.INTRA.SOLV.lig_0>
-89.1587

>  <SCORE.INTRA.VDW>
-1.26309

>  <SCORE.INTRA.VDW.0>
-0.838383

>  <SCORE.INTRA.norm>
-0.0743861

>  <SCORE.RESTR>
0

>  <SCORE.RESTR.CAVITY>
0

>  <SCORE.RESTR.norm>
0

>  <SCORE.SYSTEM>
0

>  <SCORE.SYSTEM.CONST>
0

>  <SCORE.SYSTEM.DIHEDRAL>
0

>  <SCORE.SYSTEM.SOLV>
0

>  <SCORE.SYSTEM.norm>
0

>  <SCORE.heavy>
35

>  <SCORE.norm>
-0.164453

>  <RMSD>
1.957

$$$$
2o3v_lig
 OpenBabel02141814113D
libRbt.so/2013.1/901 2013/11/27
 35 37  0  0  0  0  0  0  0  0999 V2000
    2.7893   -8.1960   44.8791 C   0  0  2  0  0  0  0  0  0  0  0  0
    3.1274   -7.5478   43.6149 O   0  0  0  0  0  0  0  0  0  0  0  0
    7.3937   -6.7451   43.8996 C   0  0  2  0  0  0  0  0  0  0  0  0
    8.7864   -6.3594   43.5203 N   0  0  0  0  0  0  0  0  0  0  0  0
   -4.8344   -9.3621   48.4921 C   0  0  2  0  0  0  0  0  0  0  0  0
   -3.9496   -9.0982   49.6026 O   0  0  0  0  0  0  0  0  0  0  0  0
    1.2300   -8.2673   44.8349 C   0  0  2  0  0  0  0  0  0  0  0  0
    0.7618   -9.0300   43.6536 N   0  0  0  0  0  0  0  0  0  0  0  0
    6.9223   -7.9996   43.0455 C   0  0  0  0  0  0  0  0  0  0  0  0
   -4.0391   -9.0621   47.1747 C   0  0  2  0  0  0  0  0  0  0  0  0
   -2.8040   -9.8829   47.0994 N   0  0  0  0  0  0  0  0  0  0  0  0
    0.5791   -6.8162   44.8294 C   0  0  1  0  0  0  0  0  0  0  0  0
   -0.9017   -6.9055   44.7423 O   0  0  0  0  0  0  0  0  0  0  0  0
    5.4354   -8.3817   43.4597 C   0  0  2  0  0  0  0  0  0  0  0  0
    4.9726   -9.5412   42.6674 N   0  0  0  0  0  0  0  0  0  0  0  0
   -3.6844   -7.5154   47.0443 C   0  0  1  0  0  0  0  0  0  0  0  0
   -2.9766   -7.2036   45.8168 O   0  0  0  0  0  0  0  0  0  0  0  0
    1.1115   -6.0505   46.1193 C   0  0  2  0  0  0  0  0  0  0  0  0
    0.6008   -4.7313   46.1868 O   0  0  0  0  0  0  0  0  0  0  0  0
    4.4739   -7.1457   43.2208 C   0  0  2  0  0  0  0  0  0  0  0  0
   -5.0114   -6.6953   47.1145 C   0  0  2  0  0  0  0  0  0  0  0  0
   -4.7562   -5.3081   47.0141 O   0  0  0  0  0  0  0  0  0  0  0  0
    2.6870   -6.0154   46.1312 C   0  0  2  0  0  0  0  0  0  0  0  0
    3.2185   -7.3926   46.0568 O   0  0  0  0  0  0  0  0  0  0  0  0
    4.9457   -5.9217   44.0548 C   0  0  2  0  0  0  0  0  0  0  0  0
    4.0437   -4.8180   43.7557 O   0  0  0  0  0  0  0  0  0  0  0  0
   -5.7827   -7.0303   48.4532 C   0  0  2  0  0  0  0  0  0  0  0  0
   -6.0359   -8.4862   48.5496 O   0  0  0  0  0  0  0  0  0  0  0  0
    3.2252   -5.3176   47.3795 C   0  0  0  0  0  0  0  0  0  0  0  0
    4.6173   -5.4851   47.4935 O   0  0  0  0  0  0  0  0  0  0  0  0
    6.3932   -5.5487   43.6576 C   0  0  1  0  0  0  0  0  0  0  0  0
    6.7989   -4.4397   44.4321 O   0  0  0  0  0  0  0  0  0  0  0  0
   -7.1061   -6.2861   48.5460 C   0  0  0  0  0  0  0  0  0  0  0  0
   -7.9226   -6.5968   47.4429 O   0  0  0  0  0  0  0  0  0  0  0  0
   -1.5585   -7.5087   45.9618 C   0  0  0  0  0  0  0  0  0  0  0  0
  1  2  1  6  0  0  0
  1  7  1  0  0  0  0
  1 24  1  0  0  0  0
  3  4  1  6  0  0  0
  3  9  1  0  0  0  0
  3 31  1  0  0  0  0
  5  6  1  1  0  0  0
  5 10  1  0  0  0  0
  5 28  1  0  0  0  0
  7  8  1  6  0  0  0
  7 12  1  0  0  0  0
  9 14  1  0  0  0  0
 10 11  1  1  0  0  0
 10 16  1  0  0  0  0
 12 13  1  1  0  0  0
 12 18  1  0  0  0  0
 13 35  1  0  0  0  0
 14 15  1  6  0  0  0
 14 20  1  0  0  0  0
 16 17  1  6  0  0  0
 16 21  1  0  0  0  0
 17 35  1  0  0  0  0
 18 19  1  6  0  0  0
 18 23  1  0  0  0  0
 20  2  1  1  0  0  0
 20 25  1  0  0  0  0
 21 22  1  1  0  0  0
 21 27  1  0  0  0  0
 23 24  1  0  0  0  0
 23 29  1  1  0  0  0
 25 26  1  6  0  0  0
 25 31  1  0  0  0  0
 27 28  1  0  0  0  0
 27 33  1  6  0  0  0
 29 30  1  0  0  0  0
 31 32  1  1  0  0  0
 33 34  1  0  0  0  0
M  END
>  <CHROM.1>
174.61738437,66.96190051,166.43532664,-81.47187464,-169.54471486,49.38274259
170.18100991,57.76602111,0.59454785,-7.07218900,45.74200839,0.05119250,-0.33252437
-2.73932965

>  <Name>
2o3v_lig

>  <RI>
0

>  <Rbt.Current_Directory>
/home/afrankz/demos/rdock_decoys_rna/rnas/2o3v

>  <Rbt.Executable>
rbdock ($Id: //depot/dev/client3/rdock/2013.1/src/exe/rbdock.cxx#4 $)

>  <Rbt.Library>
libRbt.so (2013.1, Build901 2013/11/27)

>  <Rbt.Parameter_File>
/export/apps/rDock/src/rDock_2013.1_src/data/scripts/dock_solv.prm

>  <Rbt.Receptor>
prm/pocket_docking_3.prm

>  <SCORE>
-7.25723

>  <SCORE.INTER>
-1.98615

>  <SCORE.INTER.CONST>
1

>  <SCORE.INTER.POLAR>
0

>  <SCORE.INTER.ROT>
8

>  <SCORE.INTER.SOLV>
21.087

>  <SCORE.INTER.VDW>
-17.2864

>  <SCORE.INTER.norm>
-0.056747

>  <SCORE.INTRA>
-5.29949

>  <SCORE.INTRA.DIHEDRAL>
-8.36216

>  <SCORE.INTRA.DIHEDRAL.0>
13.1227

>  <SCORE.INTRA.POLAR>
0

>  <SCORE.INTRA.POLAR.0>
0

>  <SCORE.INTRA.REPUL>
0

>  <SCORE.INTRA.REPUL.0>
0

>  <SCORE.INTRA.SOLV>
1.00942

>  <SCORE.INTRA.SOLV.lig_0>
-89.1587

>  <SCORE.INTRA.VDW>
-1.62312

>  <SCORE.INTRA.VDW.0>
-0.838383

>  <SCORE.INTRA.norm>
-0.151414

>  <SCORE.RESTR>
0.0284121

>  <SCORE.RESTR.CAVITY>
0.0284121

>  <SCORE.RESTR.norm>
0.000811773

>  <SCORE.SYSTEM>
0

>  <SCORE.SYSTEM.CONST>
0

>  <SCORE.SYSTEM.DIHEDRAL>
0

>  <SCORE.SYSTEM.SOLV>
0

>  <SCORE.SYSTEM.norm>
0

>  <SCORE.heavy>
35

>  <SCORE.norm>
-0.207349

>  <RMSD>
2.004

$$$$
2o3v_lig
 OpenBabel02141814113D
libRbt.so/2013.1/901 2013/11/27
 35 37  0  0  0  0  0  0  0  0999 V2000
    2.0668   -8.6241   45.3874 C   0  0  2  0  0  0  0  0  0  0  0  0
    2.2537   -7.9895   44.0854 O   0  0  0  0  0  0  0  0  0  0  0  0
    6.2439   -6.2568   44.0263 C   0  0  2  0  0  0  0  0  0  0  0  0
    7.5707   -5.7837   43.5282 N   0  0  0  0  0  0  0  0  0  0  0  0
   -6.6237   -8.9351   48.8722 C   0  0  2  0  0  0  0  0  0  0  0  0
   -5.9072   -8.6723   50.0982 O   0  0  0  0  0  0  0  0  0  0  0  0
    0.5212   -8.8347   45.4603 C   0  0  2  0  0  0  0  0  0  0  0  0
    0.0412   -9.6735   44.3368 N   0  0  0  0  0  0  0  0  0  0  0  0
    6.1038   -7.8240   43.8033 C   0  0  0  0  0  0  0  0  0  0  0  0
   -5.5845   -9.4618   47.8229 C   0  0  2  0  0  0  0  0  0  0  0  0
   -4.8901  -10.6750   48.3237 N   0  0  0  0  0  0  0  0  0  0  0  0
   -0.2574   -7.4479   45.4656 C   0  0  1  0  0  0  0  0  0  0  0  0
   -1.7264   -7.6708   45.4904 O   0  0  0  0  0  0  0  0  0  0  0  0
    4.6808   -8.2992   44.3303 C   0  0  2  0  0  0  0  0  0  0  0  0
    4.5250   -9.7547   44.1213 N   0  0  0  0  0  0  0  0  0  0  0  0
   -4.5251   -8.3388   47.4337 C   0  0  1  0  0  0  0  0  0  0  0  0
   -3.5704   -8.7888   46.4383 O   0  0  0  0  0  0  0  0  0  0  0  0
    0.2938   -6.5969   46.6926 C   0  0  2  0  0  0  0  0  0  0  0  0
   -0.3284   -5.3266   46.7638 O   0  0  0  0  0  0  0  0  0  0  0  0
    3.5338   -7.5179   43.5665 C   0  0  2  0  0  0  0  0  0  0  0  0
   -5.2988   -7.0914   46.9009 C   0  0  2  0  0  0  0  0  0  0  0  0
   -4.4058   -6.0533   46.5481 O   0  0  0  0  0  0  0  0  0  0  0  0
    1.8565   -6.4219   46.5872 C   0  0  2  0  0  0  0  0  0  0  0  0
    2.5041   -7.7482   46.5092 O   0  0  0  0  0  0  0  0  0  0  0  0
    3.6820   -5.9861   43.7848 C   0  0  2  0  0  0  0  0  0  0  0  0
    2.6240   -5.3343   43.0253 O   0  0  0  0  0  0  0  0  0  0  0  0
   -6.3371   -6.5965   47.9854 C   0  0  2  0  0  0  0  0  0  0  0  0
   -7.2602   -7.6949   48.3518 O   0  0  0  0  0  0  0  0  0  0  0  0
    2.4167   -5.6393   47.7741 C   0  0  0  0  0  0  0  0  0  0  0  0
    3.8099   -5.4797   47.6638 O   0  0  0  0  0  0  0  0  0  0  0  0
    5.0665   -5.5200   43.2767 C   0  0  1  0  0  0  0  0  0  0  0  0
    5.1776   -4.1287   43.4913 O   0  0  0  0  0  0  0  0  0  0  0  0
   -7.1471   -5.4068   47.4929 C   0  0  0  0  0  0  0  0  0  0  0  0
   -7.9082   -5.7642   46.3646 O   0  0  0  0  0  0  0  0  0  0  0  0
   -2.2355   -8.3026   46.7648 C   0  0  0  0  0  0  0  0  0  0  0  0
  1  2  1  6  0  0  0
  1  7  1  0  0  0  0
  1 24  1  0  0  0  0
  3  4  1  6  0  0  0
  3  9  1  0  0  0  0
  3 31  1  0  0  0  0
  5  6  1  1  0  0  0
  5 10  1  0  0  0  0
  5 28  1  0  0  0  0
  7  8  1  6  0  0  0
  7 12  1  0  0  0  0
  9 14  1  0  0  0  0
 10 11  1  1  0  0  0
 10 16  1  0  0  0  0
 12 13  1  1  0  0  0
 12 18  1  0  0  0  0
 13 35  1  0  0  0  0
 14 15  1  6  0  0  0
 14 20  1  0  0  0  0
 16 17  1  6  0  0  0
 16 21  1  0  0  0  0
 17 35  1  0  0  0  0
 18 19  1  6  0  0  0
 18 23  1  0  0  0  0
 20  2  1  1  0  0  0
 20 25  1  0  0  0  0
 21 22  1  1  0  0  0
 21 27  1  0  0  0  0
 23 24  1  0  0  0  0
 23 29  1  1  0  0  0
 25 26  1  6  0  0  0
 25 31  1  0  0  0  0
 27 28  1  0  0  0  0
 27 33  1  6  0  0  0
 29 30  1  0  0  0  0
 31 32  1  1  0  0  0
 33 34  1  0  0  0  0
M  END
>  <CHROM.1>
176.51232815,66.40175930,-163.64598312,-139.31509858,-129.88937236,22.21892690
-179.50875243,62.29801819,-0.31086701,-7.27131742,45.97596895,-0.12263806
-0.31248680,3.05957952

>  <Name>
2o3v_lig

>  <RI>
0

>  <Rbt.Current_Directory>
/home/afrankz/demos/rdock_decoys_rna/rnas/2o3v

>  <Rbt.Executable>
rbdock ($Id: //depot/dev/client3/rdock/2013.1/src/exe/rbdock.cxx#4 $)

>  <Rbt.Library>
libRbt.so (2013.1, Build901 2013/11/27)

>  <Rbt.Parameter_File>
/export/apps/rDock/src/rDock_2013.1_src/data/scripts/dock_solv.prm

>  <Rbt.Receptor>
prm/pocket_docking_2.prm

>  <SCORE>
-0.241138

>  <SCORE.INTER>
-2.17883

>  <SCORE.INTER.CONST>
1

>  <SCORE.INTER.POLAR>
-0.570751

>  <SCORE.INTER.ROT>
8

>  <SCORE.INTER.SOLV>
13.057

>  <SCORE.INTER.VDW>
-12.8357

>  <SCORE.INTER.norm>
-0.0622522

>  <SCORE.INTRA>
1.41085

>  <SCORE.INTRA.DIHEDRAL>
5.70739

>  <SCORE.INTRA.DIHEDRAL.0>
13.1227

>  <SCORE.INTRA.POLAR>
0

>  <SCORE.INTRA.POLAR.0>
0

>  <SCORE.INTRA.REPUL>
0

>  <SCORE.INTRA.REPUL.0>
0

>  <SCORE.INTRA.SOLV>
0.597634

>  <SCORE.INTRA.SOLV.lig_0>
-89.1587

>  <SCORE.INTRA.VDW>
-1.74167

>  <SCORE.INTRA.VDW.0>
-0.838383

>  <SCORE.INTRA.norm>
0.0403099

>  <SCORE.RESTR>
0.526844

>  <SCORE.RESTR.CAVITY>
0.526844

>  <SCORE.RESTR.norm>
0.0150527

>  <SCORE.SYSTEM>
0

>  <SCORE.SYSTEM.CONST>
0

>  <SCORE.SYSTEM.DIHEDRAL>
0

>  <SCORE.SYSTEM.SOLV>
0

>  <SCORE.SYSTEM.norm>
0

>  <SCORE.heavy>
35

>  <SCORE.norm>
-0.00688966

>  <RMSD>
2.013

$$$$
2o3v_lig
 OpenBabel02141814113D
libRbt.so/2013.1/901 2013/11/27
 35 37  0  0  0  0  0  0  0  0999 V2000
    1.9651   -8.7035   45.0228 C   0  0  2  0  0  0  0  0  0  0  0  0
    2.4487   -7.6204   44.1709 O   0  0  0  0  0  0  0  0  0  0  0  0
    6.1843   -6.4586   42.2675 C   0  0  2  0  0  0  0  0  0  0  0  0
    7.6095   -6.0480   42.0877 N   0  0  0  0  0  0  0  0  0  0  0  0
   -6.6689   -6.4294   46.3552 C   0  0  2  0  0  0  0  0  0  0  0  0
   -6.9252   -6.5375   44.9381 O   0  0  0  0  0  0  0  0  0  0  0  0
    0.4623   -8.8289   44.6175 C   0  0  2  0  0  0  0  0  0  0  0  0
    0.3199   -9.1256   43.1725 N   0  0  0  0  0  0  0  0  0  0  0  0
    5.4034   -5.3650   43.1157 C   0  0  0  0  0  0  0  0  0  0  0  0
   -5.1191   -6.5430   46.5634 C   0  0  2  0  0  0  0  0  0  0  0  0
   -4.4001   -5.4959   45.7942 N   0  0  0  0  0  0  0  0  0  0  0  0
   -0.3515   -7.5107   44.9775 C   0  0  1  0  0  0  0  0  0  0  0  0
   -1.7676   -7.6333   44.5441 O   0  0  0  0  0  0  0  0  0  0  0  0
    3.8946   -5.8312   43.3022 C   0  0  2  0  0  0  0  0  0  0  0  0
    3.1521   -4.8317   44.0999 N   0  0  0  0  0  0  0  0  0  0  0  0
   -4.5797   -7.9880   46.1688 C   0  0  1  0  0  0  0  0  0  0  0  0
   -3.1521   -8.1320   46.3835 O   0  0  0  0  0  0  0  0  0  0  0  0
   -0.1671   -7.2480   46.5366 C   0  0  2  0  0  0  0  0  0  0  0  0
   -0.8414   -6.0723   46.9476 O   0  0  0  0  0  0  0  0  0  0  0  0
    3.8502   -7.2402   44.0247 C   0  0  2  0  0  0  0  0  0  0  0  0
   -5.3527   -9.0522   47.0107 C   0  0  2  0  0  0  0  0  0  0  0  0
   -4.9211  -10.3609   46.6935 O   0  0  0  0  0  0  0  0  0  0  0  0
    1.3621   -7.1436   46.9032 C   0  0  2  0  0  0  0  0  0  0  0  0
    2.0650   -8.3695   46.4702 O   0  0  0  0  0  0  0  0  0  0  0  0
    4.6214   -8.3020   43.1916 C   0  0  2  0  0  0  0  0  0  0  0  0
    4.5727   -9.5550   43.9324 O   0  0  0  0  0  0  0  0  0  0  0  0
   -6.9086   -8.9000   46.7754 C   0  0  2  0  0  0  0  0  0  0  0  0
   -7.3455   -7.5235   47.1030 O   0  0  0  0  0  0  0  0  0  0  0  0
    1.5682   -6.9284   48.4019 C   0  0  0  0  0  0  0  0  0  0  0  0
    2.9346   -6.9579   48.7349 O   0  0  0  0  0  0  0  0  0  0  0  0
    6.0889   -7.8508   43.0048 C   0  0  1  0  0  0  0  0  0  0  0  0
    6.7646   -8.8281   42.2416 O   0  0  0  0  0  0  0  0  0  0  0  0
   -7.7072   -9.8895   47.6104 C   0  0  0  0  0  0  0  0  0  0  0  0
   -7.4614   -9.6863   48.9809 O   0  0  0  0  0  0  0  0  0  0  0  0
   -2.5278   -8.7501   45.2202 C   0  0  0  0  0  0  0  0  0  0  0  0
  1  2  1  6  0  0  0
  1  7  1  0  0  0  0
  1 24  1  0  0  0  0
  3  4  1  1  0  0  0
  3  9  1  0  0  0  0
  3 31  1  0  0  0  0
  5  6  1  6  0  0  0
  5 10  1  0  0  0  0
  5 28  1  0  0  0  0
  7  8  1  6  0  0  0
  7 12  1  0  0  0  0
  9 14  1  0  0  0  0
 10 11  1  6  0  0  0
 10 16  1  0  0  0  0
 12 13  1  1  0  0  0
 12 18  1  0  0  0  0
 13 35  1  0  0  0  0
 14 15  1  1  0  0  0
 14 20  1  0  0  0  0
 16 17  1  1  0  0  0
 16 21  1  0  0  0  0
 17 35  1  0  0  0  0
 18 19  1  6  0  0  0
 18 23  1  0  0  0  0
 20  2  1  6  0  0  0
 20 25  1  0  0  0  0
 21 22  1  6  0  0  0
 21 27  1  0  0  0  0
 23 24  1  0  0  0  0
 23 29  1  1  0  0  0
 25 26  1  1  0  0  0
 25 31  1  0  0  0  0
 27 28  1  0  0  0  0
 27 33  1  1  0  0  0
 29 30  1  0  0  0  0
 31 32  1  6  0  0  0
 33 34  1  0  0  0  0
M  END
>  <CHROM.1>
-170.65413790,62.13776050,92.22643702,-133.35597911,107.06593541,-166.62779206
174.64899022,60.15007004,-0.35962582,-7.67303940,45.38802158,-0.29828022
-0.04090331,1.98379120

>  <Name>
2o3v_lig

>  <RI>
0

>  <Rbt.Current_Directory>
/home/afrankz/demos/rdock_decoys_rna/rnas/2o3v

>  <Rbt.Executable>
rbdock ($Id: //depot/dev/client3/rdock/2013.1/src/exe/rbdock.cxx#4 $)

>  <Rbt.Library>
libRbt.so (2013.1, Build901 2013/11/27)

>  <Rbt.Parameter_File>
/export/apps/rDock/src/rDock_2013.1_src/data/scripts/dock_solv.prm

>  <Rbt.Receptor>
prm/pocket_docking_2.prm

>  <SCORE>
-4.01007

>  <SCORE.INTER>
-4.73307

>  <SCORE.INTER.CONST>
1

>  <SCORE.INTER.POLAR>
0

>  <SCORE.INTER.ROT>
8

>  <SCORE.INTER.SOLV>
17.9658

>  <SCORE.INTER.VDW>
-18.0773

>  <SCORE.INTER.norm>
-0.135231

>  <SCORE.INTRA>
0.701534

>  <SCORE.INTRA.DIHEDRAL>
5.08954

>  <SCORE.INTRA.DIHEDRAL.0>
13.1227

>  <SCORE.INTRA.POLAR>
0

>  <SCORE.INTRA.POLAR.0>
0

>  <SCORE.INTRA.REPUL>
0

>  <SCORE.INTRA.REPUL.0>
0

>  <SCORE.INTRA.SOLV>
0.703989

>  <SCORE.INTRA.SOLV.lig_0>
-89.1587

>  <SCORE.INTRA.VDW>
-2.19523

>  <SCORE.INTRA.VDW.0>
-0.838383

>  <SCORE.INTRA.norm>
0.0200438

>  <SCORE.RESTR>
0.0214641

>  <SCORE.RESTR.CAVITY>
0.0214641

>  <SCORE.RESTR.norm>
0.00061326

>  <SCORE.SYSTEM>
0

>  <SCORE.SYSTEM.CONST>
0

>  <SCORE.SYSTEM.DIHEDRAL>
0

>  <SCORE.SYSTEM.SOLV>
0

>  <SCORE.SYSTEM.norm>
0

>  <SCORE.heavy>
35

>  <SCORE.norm>
-0.114574

>  <RMSD>
2.027

$$$$
2o3v_lig
 OpenBabel02141814113D
libRbt.so/2013.1/901 2013/11/27
 35 37  0  0  0  0  0  0  0  0999 V2000
    2.0289   -8.7095   45.0136 C   0  0  2  0  0  0  0  0  0  0  0  0
    2.5009   -7.5682   44.2343 O   0  0  0  0  0  0  0  0  0  0  0  0
    6.2056   -6.3747   42.2905 C   0  0  2  0  0  0  0  0  0  0  0  0
    7.6305   -5.9710   42.0937 N   0  0  0  0  0  0  0  0  0  0  0  0
   -5.4013   -6.4440   47.7630 C   0  0  2  0  0  0  0  0  0  0  0  0
   -6.7266   -6.3450   47.1978 O   0  0  0  0  0  0  0  0  0  0  0  0
    0.4979   -8.7386   44.7076 C   0  0  2  0  0  0  0  0  0  0  0  0
    0.2445   -8.8889   43.2552 N   0  0  0  0  0  0  0  0  0  0  0  0
    5.4540   -5.3043   43.1932 C   0  0  0  0  0  0  0  0  0  0  0  0
   -4.4121   -6.7668   46.5901 C   0  0  2  0  0  0  0  0  0  0  0  0
   -4.4816   -5.7262   45.5331 N   0  0  0  0  0  0  0  0  0  0  0  0
   -0.2303   -7.4317   45.2471 C   0  0  1  0  0  0  0  0  0  0  0  0
   -1.6767   -7.4585   44.9071 O   0  0  0  0  0  0  0  0  0  0  0  0
    3.9452   -5.7630   43.3966 C   0  0  2  0  0  0  0  0  0  0  0  0
    3.2300   -4.7853   44.2446 N   0  0  0  0  0  0  0  0  0  0  0  0
   -4.6901   -8.2061   45.9690 C   0  0  1  0  0  0  0  0  0  0  0  0
   -3.7668   -8.5449   44.9026 O   0  0  0  0  0  0  0  0  0  0  0  0
    0.0712   -7.3278   46.8066 C   0  0  2  0  0  0  0  0  0  0  0  0
   -0.5208   -6.1727   47.3733 O   0  0  0  0  0  0  0  0  0  0  0  0
    3.9026   -7.1959   44.0706 C   0  0  2  0  0  0  0  0  0  0  0  0
   -4.5928   -9.2659   47.1117 C   0  0  2  0  0  0  0  0  0  0  0  0
   -4.8422  -10.5676   46.6188 O   0  0  0  0  0  0  0  0  0  0  0  0
    1.6249   -7.3167   47.0704 C   0  0  2  0  0  0  0  0  0  0  0  0
    2.2418   -8.5207   46.4750 O   0  0  0  0  0  0  0  0  0  0  0  0
    4.6450   -8.2350   43.1844 C   0  0  2  0  0  0  0  0  0  0  0  0
    4.6001   -9.5125   43.8821 O   0  0  0  0  0  0  0  0  0  0  0  0
   -5.6010   -8.9011   48.2735 C   0  0  2  0  0  0  0  0  0  0  0  0
   -5.3344   -7.5333   48.7744 O   0  0  0  0  0  0  0  0  0  0  0  0
    1.9419   -7.2550   48.5639 C   0  0  0  0  0  0  0  0  0  0  0  0
    3.3282   -7.1630   48.7844 O   0  0  0  0  0  0  0  0  0  0  0  0
    6.1125   -7.7909   42.9810 C   0  0  1  0  0  0  0  0  0  0  0  0
    6.7618   -8.7470   42.1696 O   0  0  0  0  0  0  0  0  0  0  0  0
   -5.5105   -9.8835   49.4314 C   0  0  0  0  0  0  0  0  0  0  0  0
   -6.4638   -9.5693   50.4176 O   0  0  0  0  0  0  0  0  0  0  0  0
   -2.4132   -8.6699   45.4291 C   0  0  0  0  0  0  0  0  0  0  0  0
  1  2  1  6  0  0  0
  1  7  1  0  0  0  0
  1 24  1  0  0  0  0
  3  4  1  1  0  0  0
  3  9  1  0  0  0  0
  3 31  1  0  0  0  0
  5  6  1  6  0  0  0
  5 10  1  0  0  0  0
  5 28  1  0  0  0  0
  7  8  1  6  0  0  0
  7 12  1  0  0  0  0
  9 14  1  0  0  0  0
 10 11  1  6  0  0  0
 10 16  1  0  0  0  0
 12 13  1  1  0  0  0
 12 18  1  0  0  0  0
 13 35  1  0  0  0  0
 14 15  1  1  0  0  0
 14 20  1  0  0  0  0
 16 17  1  6  0  0  0
 16 21  1  0  0  0  0
 17 35  1  0  0  0  0
 18 19  1  6  0  0  0
 18 23  1  0  0  0  0
 20  2  1  6  0  0  0
 20 25  1  0  0  0  0
 21 22  1  6  0  0  0
 21 27  1  0  0  0  0
 23 24  1  0  0  0  0
 23 29  1  1  0  0  0
 25 26  1  1  0  0  0
 25 31  1  0  0  0  0
 27 28  1  0  0  0  0
 27 33  1  1  0  0  0
 29 30  1  0  0  0  0
 31 32  1  6  0  0  0
 33 34  1  0  0  0  0
M  END
>  <CHROM.1>
-173.37888813,57.11455408,-175.81936825,65.47335910,-108.48976039,-169.30951681
-176.38793680,-177.14357596,-0.03915108,-7.69950689,45.69609633,-0.39059462
0.08239157,1.61466912

>  <Name>
2o3v_lig

>  <RI>
0

>  <Rbt.Current_Directory>
/home/afrankz/demos/rdock_decoys_rna/rnas/2o3v

>  <Rbt.Executable>
rbdock ($Id: //depot/dev/client3/rdock/2013.1/src/exe/rbdock.cxx#4 $)

>  <Rbt.Library>
libRbt.so (2013.1, Build901 2013/11/27)

>  <Rbt.Parameter_File>
/export/apps/rDock/src/rDock_2013.1_src/data/scripts/dock_solv.prm

>  <Rbt.Receptor>
prm/pocket_docking_2.prm

>  <SCORE>
-8.18439

>  <SCORE.INTER>
-5.79628

>  <SCORE.INTER.CONST>
1

>  <SCORE.INTER.POLAR>
0

>  <SCORE.INTER.ROT>
8

>  <SCORE.INTER.SOLV>
17.515

>  <SCORE.INTER.VDW>
-18.6359

>  <SCORE.INTER.norm>
-0.165608

>  <SCORE.INTRA>
-2.39558

>  <SCORE.INTRA.DIHEDRAL>
-5.38858

>  <SCORE.INTRA.DIHEDRAL.0>
13.1227

>  <SCORE.INTRA.POLAR>
0

>  <SCORE.INTRA.POLAR.0>
0

>  <SCORE.INTRA.REPUL>
0

>  <SCORE.INTRA.REPUL.0>
0

>  <SCORE.INTRA.SOLV>
0.0626904

>  <SCORE.INTRA.SOLV.lig_0>
-89.1587

>  <SCORE.INTRA.VDW>
0.267364

>  <SCORE.INTRA.VDW.0>
-0.838383

>  <SCORE.INTRA.norm>
-0.0684451

>  <SCORE.RESTR>
0.00747815

>  <SCORE.RESTR.CAVITY>
0.00747815

>  <SCORE.RESTR.norm>
0.000213662

>  <SCORE.SYSTEM>
0

>  <SCORE.SYSTEM.CONST>
0

>  <SCORE.SYSTEM.DIHEDRAL>
0

>  <SCORE.SYSTEM.SOLV>
0

>  <SCORE.SYSTEM.norm>
0

>  <SCORE.heavy>
35

>  <SCORE.norm>
-0.23384

>  <RMSD>
2.058

$$$$
2o3v_lig
 OpenBabel02141814113D
libRbt.so/2013.1/901 2013/11/27
 35 37  0  0  0  0  0  0  0  0999 V2000
    1.9056   -9.1273   44.8157 C   0  0  2  0  0  0  0  0  0  0  0  0
    2.1907   -7.8357   44.1965 O   0  0  0  0  0  0  0  0  0  0  0  0
    6.2319   -6.2310   44.0532 C   0  0  2  0  0  0  0  0  0  0  0  0
    7.5761   -5.8339   43.5356 N   0  0  0  0  0  0  0  0  0  0  0  0
   -5.4085   -8.9724   49.2892 C   0  0  2  0  0  0  0  0  0  0  0  0
   -4.4461   -8.0588   49.8589 O   0  0  0  0  0  0  0  0  0  0  0  0
    0.3452   -9.1857   44.8111 C   0  0  2  0  0  0  0  0  0  0  0  0
   -0.1910   -9.0767   43.4338 N   0  0  0  0  0  0  0  0  0  0  0  0
    6.0460   -7.8052   43.9399 C   0  0  0  0  0  0  0  0  0  0  0  0
   -4.7200   -9.6838   48.0733 C   0  0  2  0  0  0  0  0  0  0  0  0
   -3.4820  -10.3852   48.4979 N   0  0  0  0  0  0  0  0  0  0  0  0
   -0.2845   -8.0457   45.7240 C   0  0  1  0  0  0  0  0  0  0  0  0
   -1.7689   -8.0907   45.6708 O   0  0  0  0  0  0  0  0  0  0  0  0
    4.6054   -8.1994   44.4855 C   0  0  2  0  0  0  0  0  0  0  0  0
    4.4071   -9.6608   44.3781 N   0  0  0  0  0  0  0  0  0  0  0  0
   -4.3997   -8.6574   46.8992 C   0  0  1  0  0  0  0  0  0  0  0  0
   -3.7919   -9.2952   45.7466 O   0  0  0  0  0  0  0  0  0  0  0  0
    0.3212   -8.2175   47.1859 C   0  0  2  0  0  0  0  0  0  0  0  0
   -0.1668   -7.2238   48.0694 O   0  0  0  0  0  0  0  0  0  0  0  0
    3.4882   -7.4403   43.6578 C   0  0  2  0  0  0  0  0  0  0  0  0
   -5.7298   -7.9562   46.4775 C   0  0  2  0  0  0  0  0  0  0  0  0
   -5.5039   -7.0218   45.4406 O   0  0  0  0  0  0  0  0  0  0  0  0
    1.8958   -8.1676   47.1421 C   0  0  2  0  0  0  0  0  0  0  0  0
    2.4033   -9.2025   46.2169 O   0  0  0  0  0  0  0  0  0  0  0  0
    3.6813   -5.9019   43.7690 C   0  0  2  0  0  0  0  0  0  0  0  0
    2.6491   -5.2743   42.9554 O   0  0  0  0  0  0  0  0  0  0  0  0
   -6.3922   -7.2569   47.7311 C   0  0  2  0  0  0  0  0  0  0  0  0
   -6.6153   -8.2443   48.8119 O   0  0  0  0  0  0  0  0  0  0  0  0
    2.5042   -8.3676   48.5294 C   0  0  0  0  0  0  0  0  0  0  0  0
    2.4532   -7.1797   49.2812 O   0  0  0  0  0  0  0  0  0  0  0  0
    5.0830   -5.5144   43.2425 C   0  0  1  0  0  0  0  0  0  0  0  0
    5.2347   -4.1153   43.3595 O   0  0  0  0  0  0  0  0  0  0  0  0
   -7.7158   -6.5960   47.3774 C   0  0  0  0  0  0  0  0  0  0  0  0
   -7.5090   -5.5314   46.4808 O   0  0  0  0  0  0  0  0  0  0  0  0
   -2.3578   -9.4524   45.9559 C   0  0  0  0  0  0  0  0  0  0  0  0
  1  2  1  1  0  0  0
  1  7  1  0  0  0  0
  1 24  1  0  0  0  0
  3  4  1  6  0  0  0
  3  9  1  0  0  0  0
  3 31  1  0  0  0  0
  5  6  1  6  0  0  0
  5 10  1  0  0  0  0
  5 28  1  0  0  0  0
  7  8  1  6  0  0  0
  7 12  1  0  0  0  0
  9 14  1  0  0  0  0
 10 11  1  1  0  0  0
 10 16  1  0  0  0  0
 12 13  1  1  0  0  0
 12 18  1  0  0  0  0
 13 35  1  0  0  0  0
 14 15  1  6  0  0  0
 14 20  1  0  0  0  0
 16 17  1  6  0  0  0
 16 21  1  0  0  0  0
 17 35  1  0  0  0  0
 18 19  1  1  0  0  0
 18 23  1  0  0  0  0
 20  2  1  1  0  0  0
 20 25  1  0  0  0  0
 21 22  1  6  0  0  0
 21 27  1  0  0  0  0
 23 24  1  0  0  0  0
 23 29  1  1  0  0  0
 25 26  1  6  0  0  0
 25 31  1  0  0  0  0
 27 28  1  0  0  0  0
 27 33  1  6  0  0  0
 29 30  1  0  0  0  0
 31 32  1  1  0  0  0
 33 34  1  0  0  0  0
M  END
>  <CHROM.1>
-163.67684327,51.75718878,-175.54600675,-82.62381952,-79.02518669,-29.56307879
-79.56217574,-65.39456034,-0.26989650,-7.76555546,45.99618565,-0.31874894
-0.10303871,2.19307671

>  <Name>
2o3v_lig

>  <RI>
0

>  <Rbt.Current_Directory>
/home/afrankz/demos/rdock_decoys_rna/rnas/2o3v

>  <Rbt.Executable>
rbdock ($Id: //depot/dev/client3/rdock/2013.1/src/exe/rbdock.cxx#4 $)

>  <Rbt.Library>
libRbt.so (2013.1, Build901 2013/11/27)

>  <Rbt.Parameter_File>
/export/apps/rDock/src/rDock_2013.1_src/data/scripts/dock_solv.prm

>  <Rbt.Receptor>
prm/pocket_docking_2.prm

>  <SCORE>
-0.0183626

>  <SCORE.INTER>
-1.86069

>  <SCORE.INTER.CONST>
1

>  <SCORE.INTER.POLAR>
-0.612641

>  <SCORE.INTER.ROT>
8

>  <SCORE.INTER.SOLV>
14.1433

>  <SCORE.INTER.VDW>
-12.8461

>  <SCORE.INTER.norm>
-0.0531626

>  <SCORE.INTRA>
0.867022

>  <SCORE.INTRA.DIHEDRAL>
-2.4956

>  <SCORE.INTRA.DIHEDRAL.0>
13.1227

>  <SCORE.INTRA.POLAR>
0

>  <SCORE.INTRA.POLAR.0>
0

>  <SCORE.INTRA.REPUL>
0

>  <SCORE.INTRA.REPUL.0>
0

>  <SCORE.INTRA.SOLV>
2.61236

>  <SCORE.INTRA.SOLV.lig_0>
-89.1587

>  <SCORE.INTRA.VDW>
0.808641

>  <SCORE.INTRA.VDW.0>
-0.838383

>  <SCORE.INTRA.norm>
0.024772

>  <SCORE.RESTR>
0.975307

>  <SCORE.RESTR.CAVITY>
0.975307

>  <SCORE.RESTR.norm>
0.0278659

>  <SCORE.SYSTEM>
0

>  <SCORE.SYSTEM.CONST>
0

>  <SCORE.SYSTEM.DIHEDRAL>
0

>  <SCORE.SYSTEM.SOLV>
0

>  <SCORE.SYSTEM.norm>
0

>  <SCORE.heavy>
35

>  <SCORE.norm>
-0.000524645

>  <RMSD>
2.059

$$$$
2o3v_lig
 OpenBabel02141814113D
libRbt.so/2013.1/901 2013/11/27
 35 37  0  0  0  0  0  0  0  0999 V2000
    1.7856   -8.8408   45.5606 C   0  0  2  0  0  0  0  0  0  0  0  0
    2.0672   -8.4820   44.1732 O   0  0  0  0  0  0  0  0  0  0  0  0
    6.0617   -6.7586   44.1339 C   0  0  2  0  0  0  0  0  0  0  0  0
    7.4118   -6.3342   43.6551 N   0  0  0  0  0  0  0  0  0  0  0  0
   -5.1906   -9.6929   49.5389 C   0  0  2  0  0  0  0  0  0  0  0  0
   -4.5373   -8.9645   50.6010 O   0  0  0  0  0  0  0  0  0  0  0  0
    0.2287   -8.7517   45.6406 C   0  0  2  0  0  0  0  0  0  0  0  0
   -0.4112   -9.6683   44.6676 N   0  0  0  0  0  0  0  0  0  0  0  0
    5.9268   -8.3402   44.0567 C   0  0  0  0  0  0  0  0  0  0  0  0
   -4.3968   -9.4106   48.2166 C   0  0  2  0  0  0  0  0  0  0  0  0
   -2.9719   -9.8043   48.3564 N   0  0  0  0  0  0  0  0  0  0  0  0
   -0.2845   -7.2663   45.3962 C   0  0  1  0  0  0  0  0  0  0  0  0
   -1.7690   -7.2111   45.4323 O   0  0  0  0  0  0  0  0  0  0  0  0
    4.4792   -8.7640   44.5599 C   0  0  2  0  0  0  0  0  0  0  0  0
    4.3284  -10.2330   44.4851 N   0  0  0  0  0  0  0  0  0  0  0  0
   -4.5087   -7.8833   47.7813 C   0  0  1  0  0  0  0  0  0  0  0  0
   -3.8103   -7.6005   46.5415 O   0  0  0  0  0  0  0  0  0  0  0  0
    0.4291   -6.3331   46.4703 C   0  0  2  0  0  0  0  0  0  0  0  0
    0.0494   -4.9777   46.3133 O   0  0  0  0  0  0  0  0  0  0  0  0
    3.3717   -8.0612   43.6717 C   0  0  2  0  0  0  0  0  0  0  0  0
   -6.0202   -7.5198   47.6335 C   0  0  2  0  0  0  0  0  0  0  0  0
   -6.1820   -6.1665   47.2570 O   0  0  0  0  0  0  0  0  0  0  0  0
    1.9959   -6.4654   46.3646 C   0  0  2  0  0  0  0  0  0  0  0  0
    2.3902   -7.8808   46.5247 O   0  0  0  0  0  0  0  0  0  0  0  0
    3.5148   -6.5153   43.7481 C   0  0  2  0  0  0  0  0  0  0  0  0
    2.4955   -5.9409   42.8807 O   0  0  0  0  0  0  0  0  0  0  0  0
   -6.7829   -7.8233   48.9846 C   0  0  2  0  0  0  0  0  0  0  0  0
   -6.5983   -9.2408   49.3715 O   0  0  0  0  0  0  0  0  0  0  0  0
    2.7052   -5.6069   47.4109 C   0  0  0  0  0  0  0  0  0  0  0  0
    2.3540   -6.0031   48.7142 O   0  0  0  0  0  0  0  0  0  0  0  0
    4.9230   -6.0988   43.2627 C   0  0  1  0  0  0  0  0  0  0  0  0
    5.0287   -4.6932   43.3472 O   0  0  0  0  0  0  0  0  0  0  0  0
   -8.2705   -7.5253   48.8747 C   0  0  0  0  0  0  0  0  0  0  0  0
   -8.4793   -6.1599   48.6065 O   0  0  0  0  0  0  0  0  0  0  0  0
   -2.3702   -7.5830   46.7674 C   0  0  0  0  0  0  0  0  0  0  0  0
  1  2  1  6  0  0  0
  1  7  1  0  0  0  0
  1 24  1  0  0  0  0
  3  4  1  6  0  0  0
  3  9  1  0  0  0  0
  3 31  1  0  0  0  0
  5  6  1  1  0  0  0
  5 10  1  0  0  0  0
  5 28  1  0  0  0  0
  7  8  1  6  0  0  0
  7 12  1  0  0  0  0
  9 14  1  0  0  0  0
 10 11  1  1  0  0  0
 10 16  1  0  0  0  0
 12 13  1  1  0  0  0
 12 18  1  0  0  0  0
 13 35  1  0  0  0  0
 14 15  1  6  0  0  0
 14 20  1  0  0  0  0
 16 17  1  6  0  0  0
 16 21  1  0  0  0  0
 17 35  1  0  0  0  0
 18 19  1  6  0  0  0
 18 23  1  0  0  0  0
 20  2  1  1  0  0  0
 20 25  1  0  0  0  0
 21 22  1  1  0  0  0
 21 27  1  0  0  0  0
 23 24  1  0  0  0  0
 23 29  1  1  0  0  0
 25 26  1  6  0  0  0
 25 31  1  0  0  0  0
 27 28  1  0  0  0  0
 27 33  1  6  0  0  0
 29 30  1  0  0  0  0
 31 32  1  1  0  0  0
 33 34  1  0  0  0  0
M  END
>  <CHROM.1>
162.40593196,63.39801377,-174.19185589,-74.31572478,-177.15356989,29.68726594
61.07352716,-62.05507551,-0.37665294,-7.52494676,46.28163490,-0.16863054
-0.35904603,2.89709227

>  <Name>
2o3v_lig

>  <RI>
0

>  <Rbt.Current_Directory>
/home/afrankz/demos/rdock_decoys_rna/rnas/2o3v

>  <Rbt.Executable>
rbdock ($Id: //depot/dev/client3/rdock/2013.1/src/exe/rbdock.cxx#4 $)

>  <Rbt.Library>
libRbt.so (2013.1, Build901 2013/11/27)

>  <Rbt.Parameter_File>
/export/apps/rDock/src/rDock_2013.1_src/data/scripts/dock_solv.prm

>  <Rbt.Receptor>
prm/pocket_docking_2.prm

>  <SCORE>
-2.9436

>  <SCORE.INTER>
-0.201997

>  <SCORE.INTER.CONST>
1

>  <SCORE.INTER.POLAR>
-0.189181

>  <SCORE.INTER.ROT>
8

>  <SCORE.INTER.SOLV>
11.1357

>  <SCORE.INTER.VDW>
-12.1493

>  <SCORE.INTER.norm>
-0.00577135

>  <SCORE.INTRA>
-3.16836

>  <SCORE.INTRA.DIHEDRAL>
-6.75372

>  <SCORE.INTRA.DIHEDRAL.0>
13.1227

>  <SCORE.INTRA.POLAR>
0

>  <SCORE.INTRA.POLAR.0>
0

>  <SCORE.INTRA.REPUL>
0

>  <SCORE.INTRA.REPUL.0>
0

>  <SCORE.INTRA.SOLV>
1.6315

>  <SCORE.INTRA.SOLV.lig_0>
-89.1587

>  <SCORE.INTRA.VDW>
-0.607253

>  <SCORE.INTRA.VDW.0>
-0.838383

>  <SCORE.INTRA.norm>
-0.0905246

>  <SCORE.RESTR>
0.426757

>  <SCORE.RESTR.CAVITY>
0.426757

>  <SCORE.RESTR.norm>
0.012193

>  <SCORE.SYSTEM>
0

>  <SCORE.SYSTEM.CONST>
0

>  <SCORE.SYSTEM.DIHEDRAL>
0

>  <SCORE.SYSTEM.SOLV>
0

>  <SCORE.SYSTEM.norm>
0

>  <SCORE.heavy>
35

>  <SCORE.norm>
-0.0841029

>  <RMSD>
2.079

$$$$
2o3v_lig
 OpenBabel02141814113D
libRbt.so/2013.1/901 2013/11/27
 35 37  0  0  0  0  0  0  0  0999 V2000
    1.3902   -8.4715   45.4092 C   0  0  2  0  0  0  0  0  0  0  0  0
    2.2290   -7.4944   44.7205 O   0  0  0  0  0  0  0  0  0  0  0  0
    6.3536   -8.0217   43.4410 C   0  0  2  0  0  0  0  0  0  0  0  0
    7.5371   -8.3737   42.5998 N   0  0  0  0  0  0  0  0  0  0  0  0
   -5.1304   -9.9999   48.2494 C   0  0  2  0  0  0  0  0  0  0  0  0
   -4.8365   -8.9881   49.2371 O   0  0  0  0  0  0  0  0  0  0  0  0
    0.0410   -8.3943   44.6268 C   0  0  2  0  0  0  0  0  0  0  0  0
    0.2347   -8.7114   43.1922 N   0  0  0  0  0  0  0  0  0  0  0  0
    5.4893   -9.3214   43.7394 C   0  0  0  0  0  0  0  0  0  0  0  0
   -4.0608   -9.8706   47.1103 C   0  0  2  0  0  0  0  0  0  0  0  0
   -2.6858  -10.0153   47.6518 N   0  0  0  0  0  0  0  0  0  0  0  0
   -0.6379   -6.9636   44.7734 C   0  0  1  0  0  0  0  0  0  0  0  0
   -1.8966   -6.8968   43.9863 O   0  0  0  0  0  0  0  0  0  0  0  0
    4.2318   -8.9179   44.6250 C   0  0  2  0  0  0  0  0  0  0  0  0
    3.4067  -10.1126   44.9048 N   0  0  0  0  0  0  0  0  0  0  0  0
   -4.2045   -8.4927   46.3259 C   0  0  1  0  0  0  0  0  0  0  0  0
   -3.2476   -8.3607   45.2434 O   0  0  0  0  0  0  0  0  0  0  0  0
   -0.8258   -6.6827   46.3288 C   0  0  2  0  0  0  0  0  0  0  0  0
   -1.4054   -5.4112   46.5598 O   0  0  0  0  0  0  0  0  0  0  0  0
    3.3658   -7.8284   43.8683 C   0  0  2  0  0  0  0  0  0  0  0  0
   -5.6581   -8.3917   45.7642 C   0  0  2  0  0  0  0  0  0  0  0  0
   -5.8480   -7.1780   45.0638 O   0  0  0  0  0  0  0  0  0  0  0  0
    0.5555   -6.7854   47.0807 C   0  0  2  0  0  0  0  0  0  0  0  0
    1.1608   -8.1113   46.8355 O   0  0  0  0  0  0  0  0  0  0  0  0
    4.2204   -6.5635   43.5750 C   0  0  2  0  0  0  0  0  0  0  0  0
    3.3753   -5.6272   42.8467 O   0  0  0  0  0  0  0  0  0  0  0  0
   -6.7028   -8.5311   46.9424 C   0  0  2  0  0  0  0  0  0  0  0  0
   -6.4875   -9.8015   47.6723 O   0  0  0  0  0  0  0  0  0  0  0  0
    0.3971   -6.5564   48.5831 C   0  0  0  0  0  0  0  0  0  0  0  0
    1.6438   -6.5832   49.2341 O   0  0  0  0  0  0  0  0  0  0  0  0
    5.4468   -6.9522   42.7166 C   0  0  1  0  0  0  0  0  0  0  0  0
    6.2078   -5.7886   42.4695 O   0  0  0  0  0  0  0  0  0  0  0  0
   -8.1367   -8.4825   46.4369 C   0  0  0  0  0  0  0  0  0  0  0  0
   -9.0385   -8.4808   47.5171 O   0  0  0  0  0  0  0  0  0  0  0  0
   -3.1536   -6.9686   44.8212 C   0  0  0  0  0  0  0  0  0  0  0  0
  1  2  1  6  0  0  0
  1  7  1  0  0  0  0
  1 24  1  0  0  0  0
  3  4  1  6  0  0  0
  3  9  1  0  0  0  0
  3 31  1  0  0  0  0
  5  6  1  1  0  0  0
  5 10  1  0  0  0  0
  5 28  1  0  0  0  0
  7  8  1  6  0  0  0
  7 12  1  0  0  0  0
  9 14  1  0  0  0  0
 10 11  1  1  0  0  0
 10 16  1  0  0  0  0
 12 13  1  6  0  0  0
 12 18  1  0  0  0  0
 13 35  1  0  0  0  0
 14 15  1  6  0  0  0
 14 20  1  0  0  0  0
 16 17  1  6  0  0  0
 16 21  1  0  0  0  0
 17 35  1  0  0  0  0
 18 19  1  6  0  0  0
 18 23  1  0  0  0  0
 20  2  1  1  0  0  0
 20 25  1  0  0  0  0
 21 22  1  1  0  0  0
 21 27  1  0  0  0  0
 23 24  1  0  0  0  0
 23 29  1  1  0  0  0
 25 26  1  6  0  0  0
 25 31  1  0  0  0  0
 27 28  1  0  0  0  0
 27 33  1  6  0  0  0
 29 30  1  0  0  0  0
 31 32  1  1  0  0  0
 33 34  1  0  0  0  0
M  END
>  <CHROM.1>
-109.14322490,104.83994803,-73.64950670,-163.51111703,165.11216380,-45.90536618
-177.01303907,-174.41121655,-0.53695748,-7.91680044,45.57118591,-0.31312035
0.02077663,1.81535139

>  <Name>
2o3v_lig

>  <RI>
0

>  <Rbt.Current_Directory>
/home/afrankz/demos/rdock_decoys_rna/rnas/2o3v

>  <Rbt.Executable>
rbdock ($Id: //depot/dev/client3/rdock/2013.1/src/exe/rbdock.cxx#4 $)

>  <Rbt.Library>
libRbt.so (2013.1, Build901 2013/11/27)

>  <Rbt.Parameter_File>
/export/apps/rDock/src/rDock_2013.1_src/data/scripts/dock_solv.prm

>  <Rbt.Receptor>
prm/pocket_docking_2.prm

>  <SCORE>
1.60293

>  <SCORE.INTER>
-3.53067

>  <SCORE.INTER.CONST>
1

>  <SCORE.INTER.POLAR>
0

>  <SCORE.INTER.ROT>
8

>  <SCORE.INTER.SOLV>
18.7177

>  <SCORE.INTER.VDW>
-17.5263

>  <SCORE.INTER.norm>
-0.100876

>  <SCORE.INTRA>
4.95809

>  <SCORE.INTRA.DIHEDRAL>
3.91364

>  <SCORE.INTRA.DIHEDRAL.0>
13.1227

>  <SCORE.INTRA.POLAR>
0

>  <SCORE.INTRA.POLAR.0>
0

>  <SCORE.INTRA.REPUL>
0

>  <SCORE.INTRA.REPUL.0>
0

>  <SCORE.INTRA.SOLV>
2.07359

>  <SCORE.INTRA.SOLV.lig_0>
-89.1587

>  <SCORE.INTRA.VDW>
1.96448

>  <SCORE.INTRA.VDW.0>
-0.838383

>  <SCORE.INTRA.norm>
0.14166

>  <SCORE.RESTR>
0.175508

>  <SCORE.RESTR.CAVITY>
0.175508

>  <SCORE.RESTR.norm>
0.0050145

>  <SCORE.SYSTEM>
0

>  <SCORE.SYSTEM.CONST>
0

>  <SCORE.SYSTEM.DIHEDRAL>
0

>  <SCORE.SYSTEM.SOLV>
0

>  <SCORE.SYSTEM.norm>
0

>  <SCORE.heavy>
35

>  <SCORE.norm>
0.0457981

>  <RMSD>
2.092

$$$$
2o3v_lig
 OpenBabel02141814113D
libRbt.so/2013.1/901 2013/11/27
 35 37  0  0  0  0  0  0  0  0999 V2000
    1.6850   -8.3800   44.8791 C   0  0  2  0  0  0  0  0  0  0  0  0
    2.2645   -7.2918   44.0963 O   0  0  0  0  0  0  0  0  0  0  0  0
    6.1804   -6.3091   42.4753 C   0  0  2  0  0  0  0  0  0  0  0  0
    7.6290   -5.9510   42.4021 N   0  0  0  0  0  0  0  0  0  0  0  0
   -6.4640   -5.9087   46.4465 C   0  0  2  0  0  0  0  0  0  0  0  0
   -7.1018   -6.4668   45.2771 O   0  0  0  0  0  0  0  0  0  0  0  0
    0.1874   -8.3760   44.4370 C   0  0  2  0  0  0  0  0  0  0  0  0
    0.0595   -8.5865   42.9756 N   0  0  0  0  0  0  0  0  0  0  0  0
    5.3723   -5.1664   43.2280 C   0  0  0  0  0  0  0  0  0  0  0  0
   -4.9197   -6.1313   46.2920 C   0  0  2  0  0  0  0  0  0  0  0  0
   -4.4143   -5.5094   45.0418 N   0  0  0  0  0  0  0  0  0  0  0  0
   -0.5398   -7.0231   44.8500 C   0  0  1  0  0  0  0  0  0  0  0  0
   -1.9501   -7.0210   44.3816 O   0  0  0  0  0  0  0  0  0  0  0  0
    3.8379   -5.5770   43.3025 C   0  0  2  0  0  0  0  0  0  0  0  0
    3.0689   -4.5310   44.0103 N   0  0  0  0  0  0  0  0  0  0  0  0
   -4.5442   -7.6780   46.3317 C   0  0  1  0  0  0  0  0  0  0  0  0
   -3.1164   -7.9117   46.2242 O   0  0  0  0  0  0  0  0  0  0  0  0
   -0.3752   -6.8554   46.4243 C   0  0  2  0  0  0  0  0  0  0  0  0
   -0.9745   -5.6571   46.8835 O   0  0  0  0  0  0  0  0  0  0  0  0
    3.6857   -6.9623   44.0555 C   0  0  2  0  0  0  0  0  0  0  0  0
   -5.0819   -8.2841   47.6666 C   0  0  2  0  0  0  0  0  0  0  0  0
   -4.7856   -9.6641   47.7527 O   0  0  0  0  0  0  0  0  0  0  0  0
    1.1482   -6.8801   46.8273 C   0  0  2  0  0  0  0  0  0  0  0  0
    1.7731   -8.1293   46.3441 O   0  0  0  0  0  0  0  0  0  0  0  0
    4.4840   -8.0726   43.3163 C   0  0  2  0  0  0  0  0  0  0  0  0
    4.3315   -9.3014   44.0832 O   0  0  0  0  0  0  0  0  0  0  0  0
   -6.6385   -8.0342   47.7843 C   0  0  2  0  0  0  0  0  0  0  0  0
   -6.9355   -6.5869   47.6842 O   0  0  0  0  0  0  0  0  0  0  0  0
    1.3325   -6.7581   48.3392 C   0  0  0  0  0  0  0  0  0  0  0  0
    2.6920   -6.8373   48.6921 O   0  0  0  0  0  0  0  0  0  0  0  0
    5.9767   -7.6756   43.2385 C   0  0  1  0  0  0  0  0  0  0  0  0
    6.6772   -8.6962   42.5590 O   0  0  0  0  0  0  0  0  0  0  0  0
   -7.2010   -8.5701   49.0922 C   0  0  0  0  0  0  0  0  0  0  0  0
   -7.1779   -9.9770   49.0968 O   0  0  0  0  0  0  0  0  0  0  0  0
   -2.7577   -8.2113   44.8434 C   0  0  0  0  0  0  0  0  0  0  0  0
  1  2  1  6  0  0  0
  1  7  1  0  0  0  0
  1 24  1  0  0  0  0
  3  4  1  1  0  0  0
  3  9  1  0  0  0  0
  3 31  1  0  0  0  0
  5  6  1  6  0  0  0
  5 10  1  0  0  0  0
  5 28  1  0  0  0  0
  7  8  1  6  0  0  0
  7 12  1  0  0  0  0
  9 14  1  0  0  0  0
 10 11  1  6  0  0  0
 10 16  1  0  0  0  0
 12 13  1  1  0  0  0
 12 18  1  0  0  0  0
 13 35  1  0  0  0  0
 14 15  1  1  0  0  0
 14 20  1  0  0  0  0
 16 17  1  1  0  0  0
 16 21  1  0  0  0  0
 17 35  1  0  0  0  0
 18 19  1  6  0  0  0
 18 23  1  0  0  0  0
 20  2  1  6  0  0  0
 20 25  1  0  0  0  0
 21 22  1  6  0  0  0
 21 27  1  0  0  0  0
 23 24  1  0  0  0  0
 23 29  1  1  0  0  0
 25 26  1  1  0  0  0
 25 31  1  0  0  0  0
 27 28  1  0  0  0  0
 27 33  1  1  0  0  0
 29 30  1  0  0  0  0
 31 32  1  6  0  0  0
 33 34  1  0  0  0  0
M  END
>  <CHROM.1>
-174.06724112,54.85445288,78.81156455,-96.66475036,111.50771919,-170.08752119
177.53909689,-69.54636867,-0.40765243,-7.31154867,45.50392805,-0.30381763
-0.13485216,2.15451616

>  <Name>
2o3v_lig

>  <RI>
0

>  <Rbt.Current_Directory>
/home/afrankz/demos/rdock_decoys_rna/rnas/2o3v

>  <Rbt.Executable>
rbdock ($Id: //depot/dev/client3/rdock/2013.1/src/exe/rbdock.cxx#4 $)

>  <Rbt.Library>
libRbt.so (2013.1, Build901 2013/11/27)

>  <Rbt.Parameter_File>
/export/apps/rDock/src/rDock_2013.1_src/data/scripts/dock_solv.prm

>  <Rbt.Receptor>
prm/pocket_docking_2.prm

>  <SCORE>
-5.32679

>  <SCORE.INTER>
-4.77974

>  <SCORE.INTER.CONST>
1

>  <SCORE.INTER.POLAR>
0

>  <SCORE.INTER.ROT>
8

>  <SCORE.INTER.SOLV>
16.1682

>  <SCORE.INTER.VDW>
-17.5092

>  <SCORE.INTER.norm>
-0.136564

>  <SCORE.INTRA>
-0.547044

>  <SCORE.INTRA.DIHEDRAL>
1.32314

>  <SCORE.INTRA.DIHEDRAL.0>
13.1227

>  <SCORE.INTRA.POLAR>
0

>  <SCORE.INTRA.POLAR.0>
0

>  <SCORE.INTRA.REPUL>
0

>  <SCORE.INTRA.REPUL.0>
0

>  <SCORE.INTRA.SOLV>
1.73701

>  <SCORE.INTRA.SOLV.lig_0>
-89.1587

>  <SCORE.INTRA.VDW>
-2.07712

>  <SCORE.INTRA.VDW.0>
-0.838383

>  <SCORE.INTRA.norm>
-0.0156298

>  <SCORE.RESTR>
0

>  <SCORE.RESTR.CAVITY>
0

>  <SCORE.RESTR.norm>
0

>  <SCORE.SYSTEM>
0

>  <SCORE.SYSTEM.CONST>
0

>  <SCORE.SYSTEM.DIHEDRAL>
0

>  <SCORE.SYSTEM.SOLV>
0

>  <SCORE.SYSTEM.norm>
0

>  <SCORE.heavy>
35

>  <SCORE.norm>
-0.152194

>  <RMSD>
2.120

$$$$
2o3v_lig
 OpenBabel02141814113D
libRbt.so/2013.1/901 2013/11/27
 35 37  0  0  0  0  0  0  0  0999 V2000
    2.0004   -8.5182   45.1887 C   0  0  2  0  0  0  0  0  0  0  0  0
    2.4699   -7.5616   44.1900 O   0  0  0  0  0  0  0  0  0  0  0  0
    6.1720   -6.3874   42.2296 C   0  0  2  0  0  0  0  0  0  0  0  0
    7.5845   -5.9435   42.0291 N   0  0  0  0  0  0  0  0  0  0  0  0
   -5.5101   -6.3635   47.7813 C   0  0  2  0  0  0  0  0  0  0  0  0
   -6.8212   -6.2529   47.1859 O   0  0  0  0  0  0  0  0  0  0  0  0
    0.4846   -8.6721   44.8467 C   0  0  2  0  0  0  0  0  0  0  0  0
    0.2947   -9.1507   43.4570 N   0  0  0  0  0  0  0  0  0  0  0  0
    5.3567   -5.2754   43.0197 C   0  0  0  0  0  0  0  0  0  0  0  0
   -4.4980   -6.7004   46.6322 C   0  0  2  0  0  0  0  0  0  0  0  0
   -4.5328   -5.6629   45.5705 N   0  0  0  0  0  0  0  0  0  0  0  0
   -0.3029   -7.3063   45.0562 C   0  0  1  0  0  0  0  0  0  0  0  0
   -1.7329   -7.4623   44.6834 O   0  0  0  0  0  0  0  0  0  0  0  0
    3.8625   -5.7769   43.2298 C   0  0  2  0  0  0  0  0  0  0  0  0
    3.0885   -4.7603   43.9742 N   0  0  0  0  0  0  0  0  0  0  0  0
   -4.7768   -8.1390   46.0096 C   0  0  1  0  0  0  0  0  0  0  0  0
   -3.8331   -8.4910   44.9654 O   0  0  0  0  0  0  0  0  0  0  0  0
   -0.0679   -6.8472   46.5621 C   0  0  2  0  0  0  0  0  0  0  0  0
   -0.7160   -5.6182   46.8367 O   0  0  0  0  0  0  0  0  0  0  0  0
    3.8595   -7.1471   44.0246 C   0  0  2  0  0  0  0  0  0  0  0  0
   -4.7163   -9.1958   47.1577 C   0  0  2  0  0  0  0  0  0  0  0  0
   -4.9680  -10.4966   46.6634 O   0  0  0  0  0  0  0  0  0  0  0  0
    1.4729   -6.7194   46.8678 C   0  0  2  0  0  0  0  0  0  0  0  0
    2.1484   -8.0015   46.5771 O   0  0  0  0  0  0  0  0  0  0  0  0
    4.6641   -8.2269   43.2481 C   0  0  2  0  0  0  0  0  0  0  0  0
    4.6521   -9.4406   44.0531 O   0  0  0  0  0  0  0  0  0  0  0  0
   -5.7467   -8.8166   48.2951 C   0  0  2  0  0  0  0  0  0  0  0  0
   -5.4774   -7.4499   48.7975 O   0  0  0  0  0  0  0  0  0  0  0  0
    1.7272   -6.3156   48.3194 C   0  0  0  0  0  0  0  0  0  0  0  0
    3.0971   -6.0963   48.5519 O   0  0  0  0  0  0  0  0  0  0  0  0
    6.1176   -7.7416   43.0384 C   0  0  1  0  0  0  0  0  0  0  0  0
    6.8240   -8.7363   42.3272 O   0  0  0  0  0  0  0  0  0  0  0  0
   -5.6926   -9.7959   49.4579 C   0  0  0  0  0  0  0  0  0  0  0  0
   -4.4581   -9.6973   50.1259 O   0  0  0  0  0  0  0  0  0  0  0  0
   -2.4751   -8.4978   45.4953 C   0  0  0  0  0  0  0  0  0  0  0  0
  1  2  1  6  0  0  0
  1  7  1  0  0  0  0
  1 24  1  0  0  0  0
  3  4  1  1  0  0  0
  3  9  1  0  0  0  0
  3 31  1  0  0  0  0
  5  6  1  6  0  0  0
  5 10  1  0  0  0  0
  5 28  1  0  0  0  0
  7  8  1  6  0  0  0
  7 12  1  0  0  0  0
  9 14  1  0  0  0  0
 10 11  1  6  0  0  0
 10 16  1  0  0  0  0
 12 13  1  1  0  0  0
 12 18  1  0  0  0  0
 13 35  1  0  0  0  0
 14 15  1  1  0  0  0
 14 20  1  0  0  0  0
 16 17  1  6  0  0  0
 16 21  1  0  0  0  0
 17 35  1  0  0  0  0
 18 19  1  6  0  0  0
 18 23  1  0  0  0  0
 20  2  1  6  0  0  0
 20 25  1  0  0  0  0
 21 22  1  6  0  0  0
 21 27  1  0  0  0  0
 23 24  1  0  0  0  0
 23 29  1  1  0  0  0
 25 26  1  1  0  0  0
 25 31  1  0  0  0  0
 27 28  1  0  0  0  0
 27 33  1  1  0  0  0
 29 30  1  0  0  0  0
 31 32  1  6  0  0  0
 33 34  1  0  0  0  0
M  END
>  <CHROM.1>
-175.65028273,60.56480317,-179.65769809,59.84430791,-119.80713852,-160.26784176
-175.09522761,66.73771939,-0.05377937,-7.54250550,45.65127277,0.21735075
-0.33506987,-2.30752079

>  <Name>
2o3v_lig

>  <RI>
0

>  <Rbt.Current_Directory>
/home/afrankz/demos/rdock_decoys_rna/rnas/2o3v

>  <Rbt.Executable>
rbdock ($Id: //depot/dev/client3/rdock/2013.1/src/exe/rbdock.cxx#4 $)

>  <Rbt.Library>
libRbt.so (2013.1, Build901 2013/11/27)

>  <Rbt.Parameter_File>
/export/apps/rDock/src/rDock_2013.1_src/data/scripts/dock_solv.prm

>  <Rbt.Receptor>
prm/pocket_docking_2.prm

>  <SCORE>
-7.52432

>  <SCORE.INTER>
-5.89643

>  <SCORE.INTER.CONST>
1

>  <SCORE.INTER.POLAR>
0

>  <SCORE.INTER.ROT>
8

>  <SCORE.INTER.SOLV>
17.4593

>  <SCORE.INTER.VDW>
-18.6841

>  <SCORE.INTER.norm>
-0.168469

>  <SCORE.INTRA>
-1.6632

>  <SCORE.INTRA.DIHEDRAL>
-3.76456

>  <SCORE.INTRA.DIHEDRAL.0>
13.1227

>  <SCORE.INTRA.POLAR>
0

>  <SCORE.INTRA.POLAR.0>
0

>  <SCORE.INTRA.REPUL>
0

>  <SCORE.INTRA.REPUL.0>
0

>  <SCORE.INTRA.SOLV>
0.797031

>  <SCORE.INTRA.SOLV.lig_0>
-89.1587

>  <SCORE.INTRA.VDW>
-0.179433

>  <SCORE.INTRA.VDW.0>
-0.838383

>  <SCORE.INTRA.norm>
-0.04752

>  <SCORE.RESTR>
0.0353098

>  <SCORE.RESTR.CAVITY>
0.0353098

>  <SCORE.RESTR.norm>
0.00100885

>  <SCORE.SYSTEM>
0

>  <SCORE.SYSTEM.CONST>
0

>  <SCORE.SYSTEM.DIHEDRAL>
0

>  <SCORE.SYSTEM.SOLV>
0

>  <SCORE.SYSTEM.norm>
0

>  <SCORE.heavy>
35

>  <SCORE.norm>
-0.21498

>  <RMSD>
2.143

$$$$
2o3v_lig
 OpenBabel02141814113D
libRbt.so/2013.1/901 2013/11/27
 35 37  0  0  0  0  0  0  0  0999 V2000
    1.9005   -8.5914   45.0760 C   0  0  2  0  0  0  0  0  0  0  0  0
    2.4117   -7.6411   44.0919 O   0  0  0  0  0  0  0  0  0  0  0  0
    6.1893   -6.4201   42.3125 C   0  0  2  0  0  0  0  0  0  0  0  0
    7.6056   -5.9633   42.1803 N   0  0  0  0  0  0  0  0  0  0  0  0
   -6.2090   -6.6811   47.8039 C   0  0  2  0  0  0  0  0  0  0  0  0
   -7.4795   -6.8056   47.1286 O   0  0  0  0  0  0  0  0  0  0  0  0
    0.3810   -8.6795   44.7274 C   0  0  2  0  0  0  0  0  0  0  0  0
    0.1769   -9.1314   43.3308 N   0  0  0  0  0  0  0  0  0  0  0  0
    5.3296   -5.3218   43.0741 C   0  0  0  0  0  0  0  0  0  0  0  0
   -5.0886   -6.7051   46.7074 C   0  0  2  0  0  0  0  0  0  0  0  0
   -5.2913   -5.6194   45.7148 N   0  0  0  0  0  0  0  0  0  0  0  0
   -0.3517   -7.2860   44.9531 C   0  0  1  0  0  0  0  0  0  0  0  0
   -1.7855   -7.3793   44.5738 O   0  0  0  0  0  0  0  0  0  0  0  0
    3.8316   -5.8369   43.2116 C   0  0  2  0  0  0  0  0  0  0  0  0
    3.0161   -4.8333   43.9287 N   0  0  0  0  0  0  0  0  0  0  0  0
   -5.0156   -8.1172   45.9757 C   0  0  1  0  0  0  0  0  0  0  0  0
   -3.9642   -8.1786   44.9780 O   0  0  0  0  0  0  0  0  0  0  0  0
   -0.1038   -6.8571   46.4658 C   0  0  2  0  0  0  0  0  0  0  0  0
   -0.7029   -5.6068   46.7550 O   0  0  0  0  0  0  0  0  0  0  0  0
    3.8039   -7.2142   43.9936 C   0  0  2  0  0  0  0  0  0  0  0  0
   -4.7883   -9.2230   47.0547 C   0  0  2  0  0  0  0  0  0  0  0  0
   -4.7255  -10.5051   46.4615 O   0  0  0  0  0  0  0  0  0  0  0  0
    1.4397   -6.7956   46.7778 C   0  0  2  0  0  0  0  0  0  0  0  0
    2.0641   -8.0998   46.4718 O   0  0  0  0  0  0  0  0  0  0  0  0
    4.6519   -8.2806   43.2452 C   0  0  2  0  0  0  0  0  0  0  0  0
    4.6134   -9.5015   44.0383 O   0  0  0  0  0  0  0  0  0  0  0  0
   -5.9351   -9.1609   48.1411 C   0  0  2  0  0  0  0  0  0  0  0  0
   -5.9954   -7.8114   48.7478 O   0  0  0  0  0  0  0  0  0  0  0  0
    1.7049   -6.4218   48.2355 C   0  0  0  0  0  0  0  0  0  0  0  0
    3.0788   -6.4811   48.5320 O   0  0  0  0  0  0  0  0  0  0  0  0
    6.1093   -7.7820   43.1061 C   0  0  1  0  0  0  0  0  0  0  0  0
    6.8556   -8.7646   42.4194 O   0  0  0  0  0  0  0  0  0  0  0  0
   -5.7316  -10.1936   49.2393 C   0  0  0  0  0  0  0  0  0  0  0  0
   -4.5163   -9.9638   49.9104 O   0  0  0  0  0  0  0  0  0  0  0  0
   -2.6589   -8.0426   45.6128 C   0  0  0  0  0  0  0  0  0  0  0  0
  1  2  1  6  0  0  0
  1  7  1  0  0  0  0
  1 24  1  0  0  0  0
  3  4  1  1  0  0  0
  3  9  1  0  0  0  0
  3 31  1  0  0  0  0
  5  6  1  6  0  0  0
  5 10  1  0  0  0  0
  5 28  1  0  0  0  0
  7  8  1  6  0  0  0
  7 12  1  0  0  0  0
  9 14  1  0  0  0  0
 10 11  1  6  0  0  0
 10 16  1  0  0  0  0
 12 13  1  1  0  0  0
 12 18  1  0  0  0  0
 13 35  1  0  0  0  0
 14 15  1  1  0  0  0
 14 20  1  0  0  0  0
 16 17  1  6  0  0  0
 16 21  1  0  0  0  0
 17 35  1  0  0  0  0
 18 19  1  6  0  0  0
 18 23  1  0  0  0  0
 20  2  1  6  0  0  0
 20 25  1  0  0  0  0
 21 22  1  6  0  0  0
 21 27  1  0  0  0  0
 23 24  1  0  0  0  0
 23 29  1  1  0  0  0
 25 26  1  1  0  0  0
 25 31  1  0  0  0  0
 27 28  1  0  0  0  0
 27 33  1  1  0  0  0
 29 30  1  0  0  0  0
 31 32  1  6  0  0  0
 33 34  1  0  0  0  0
M  END
>  <CHROM.1>
-179.89382372,78.81244195,-173.13189461,64.28780862,-149.86783130,-159.05429150
174.96934659,60.95022264,-0.18741706,-7.61991090,45.60782036,-0.31974331
-0.20035910,2.37487646

>  <Name>
2o3v_lig

>  <RI>
0

>  <Rbt.Current_Directory>
/home/afrankz/demos/rdock_decoys_rna/rnas/2o3v

>  <Rbt.Executable>
rbdock ($Id: //depot/dev/client3/rdock/2013.1/src/exe/rbdock.cxx#4 $)

>  <Rbt.Library>
libRbt.so (2013.1, Build901 2013/11/27)

>  <Rbt.Parameter_File>
/export/apps/rDock/src/rDock_2013.1_src/data/scripts/dock_solv.prm

>  <Rbt.Receptor>
prm/pocket_docking_2.prm

>  <SCORE>
-7.33067

>  <SCORE.INTER>
-5.05278

>  <SCORE.INTER.CONST>
1

>  <SCORE.INTER.POLAR>
0

>  <SCORE.INTER.ROT>
8

>  <SCORE.INTER.SOLV>
16.7604

>  <SCORE.INTER.VDW>
-17.8886

>  <SCORE.INTER.norm>
-0.144365

>  <SCORE.INTRA>
-2.28784

>  <SCORE.INTRA.DIHEDRAL>
-5.47161

>  <SCORE.INTRA.DIHEDRAL.0>
13.1227

>  <SCORE.INTRA.POLAR>
0

>  <SCORE.INTRA.POLAR.0>
0

>  <SCORE.INTRA.REPUL>
0

>  <SCORE.INTRA.REPUL.0>
0

>  <SCORE.INTRA.SOLV>
-0.0494903

>  <SCORE.INTRA.SOLV.lig_0>
-89.1587

>  <SCORE.INTRA.VDW>
0.472716

>  <SCORE.INTRA.VDW.0>
-0.838383

>  <SCORE.INTRA.norm>
-0.0653667

>  <SCORE.RESTR>
0.0099478

>  <SCORE.RESTR.CAVITY>
0.0099478

>  <SCORE.RESTR.norm>
0.000284223

>  <SCORE.SYSTEM>
0

>  <SCORE.SYSTEM.CONST>
0

>  <SCORE.SYSTEM.DIHEDRAL>
0

>  <SCORE.SYSTEM.SOLV>
0

>  <SCORE.SYSTEM.norm>
0

>  <SCORE.heavy>
35

>  <SCORE.norm>
-0.209448

>  <RMSD>
2.159

$$$$
2o3v_lig
 OpenBabel02141814113D
libRbt.so/2013.1/901 2013/11/27
 35 37  0  0  0  0  0  0  0  0999 V2000
    2.0481   -8.8590   44.5556 C   0  0  2  0  0  0  0  0  0  0  0  0
    2.5620   -7.6873   43.8514 O   0  0  0  0  0  0  0  0  0  0  0  0
    6.3969   -6.3354   42.3044 C   0  0  2  0  0  0  0  0  0  0  0  0
    7.8227   -5.8918   42.2555 N   0  0  0  0  0  0  0  0  0  0  0  0
   -5.6229  -11.9099   44.9228 C   0  0  2  0  0  0  0  0  0  0  0  0
   -5.2155  -12.1584   46.2858 O   0  0  0  0  0  0  0  0  0  0  0  0
    0.5326   -8.8622   44.1791 C   0  0  2  0  0  0  0  0  0  0  0  0
    0.3453   -8.9446   42.7113 N   0  0  0  0  0  0  0  0  0  0  0  0
    5.5375   -5.3180   43.1714 C   0  0  0  0  0  0  0  0  0  0  0  0
   -4.6117  -10.8805   44.3093 C   0  0  2  0  0  0  0  0  0  0  0  0
   -3.2201  -11.3934   44.3813 N   0  0  0  0  0  0  0  0  0  0  0  0
   -0.2120   -7.5753   44.7438 C   0  0  1  0  0  0  0  0  0  0  0  0
   -1.6414   -7.5753   44.3374 O   0  0  0  0  0  0  0  0  0  0  0  0
    4.0290   -5.8186   43.2171 C   0  0  2  0  0  0  0  0  0  0  0  0
    3.2133   -4.8908   44.0297 N   0  0  0  0  0  0  0  0  0  0  0  0
   -4.7160   -9.4611   45.0227 C   0  0  1  0  0  0  0  0  0  0  0  0
   -3.8139   -8.4786   44.4521 O   0  0  0  0  0  0  0  0  0  0  0  0
    0.0182   -7.5444   46.3185 C   0  0  2  0  0  0  0  0  0  0  0  0
   -0.5925   -6.4115   46.9097 O   0  0  0  0  0  0  0  0  0  0  0  0
    3.9624   -7.2769   43.8321 C   0  0  2  0  0  0  0  0  0  0  0  0
   -6.1897   -8.9569   44.9097 C   0  0  2  0  0  0  0  0  0  0  0  0
   -6.3452   -7.6997   45.5379 O   0  0  0  0  0  0  0  0  0  0  0  0
    1.5582   -7.5575   46.6531 C   0  0  2  0  0  0  0  0  0  0  0  0
    2.1948   -8.7381   46.0323 O   0  0  0  0  0  0  0  0  0  0  0  0
    4.8104   -8.2639   42.9818 C   0  0  2  0  0  0  0  0  0  0  0  0
    4.7353   -9.5680   43.6259 O   0  0  0  0  0  0  0  0  0  0  0  0
   -7.1746  -10.0241   45.5346 C   0  0  2  0  0  0  0  0  0  0  0  0
   -6.9955  -11.3373   44.8739 O   0  0  0  0  0  0  0  0  0  0  0  0
    1.8067   -7.5660   48.1608 C   0  0  0  0  0  0  0  0  0  0  0  0
    3.1799   -7.4650   48.4487 O   0  0  0  0  0  0  0  0  0  0  0  0
    6.2781   -7.7787   42.9318 C   0  0  1  0  0  0  0  0  0  0  0  0
    7.0243   -8.6880   42.1504 O   0  0  0  0  0  0  0  0  0  0  0  0
   -8.6286   -9.5956   45.4079 C   0  0  0  0  0  0  0  0  0  0  0  0
   -8.9920   -9.4860   44.0529 O   0  0  0  0  0  0  0  0  0  0  0  0
   -2.4660   -8.6699   44.9732 C   0  0  0  0  0  0  0  0  0  0  0  0
  1  2  1  6  0  0  0
  1  7  1  0  0  0  0
  1 24  1  0  0  0  0
  3  4  1  1  0  0  0
  3  9  1  0  0  0  0
  3 31  1  0  0  0  0
  5  6  1  1  0  0  0
  5 10  1  0  0  0  0
  5 28  1  0  0  0  0
  7  8  1  6  0  0  0
  7 12  1  0  0  0  0
  9 14  1  0  0  0  0
 10 11  1  1  0  0  0
 10 16  1  0  0  0  0
 12 13  1  1  0  0  0
 12 18  1  0  0  0  0
 13 35  1  0  0  0  0
 14 15  1  1  0  0  0
 14 20  1  0  0  0  0
 16 17  1  6  0  0  0
 16 21  1  0  0  0  0
 17 35  1  0  0  0  0
 18 19  1  6  0  0  0
 18 23  1  0  0  0  0
 20  2  1  6  0  0  0
 20 25  1  0  0  0  0
 21 22  1  1  0  0  0
 21 27  1  0  0  0  0
 23 24  1  0  0  0  0
 23 29  1  1  0  0  0
 25 26  1  1  0  0  0
 25 31  1  0  0  0  0
 27 28  1  0  0  0  0
 27 33  1  6  0  0  0
 29 30  1  0  0  0  0
 31 32  1  6  0  0  0
 33 34  1  0  0  0  0
M  END
>  <CHROM.1>
-177.03681929,67.53345324,179.55829651,-79.95225035,-178.56154770,-168.51181616
-175.07849851,62.45242290,-0.29289277,-8.43436775,44.65652580,-0.03438973
-0.27052351,-2.16766228

>  <Name>
2o3v_lig

>  <RI>
0

>  <Rbt.Current_Directory>
/home/afrankz/demos/rdock_decoys_rna/rnas/2o3v

>  <Rbt.Executable>
rbdock ($Id: //depot/dev/client3/rdock/2013.1/src/exe/rbdock.cxx#4 $)

>  <Rbt.Library>
libRbt.so (2013.1, Build901 2013/11/27)

>  <Rbt.Parameter_File>
/export/apps/rDock/src/rDock_2013.1_src/data/scripts/dock_solv.prm

>  <Rbt.Receptor>
prm/pocket_docking_5.prm

>  <SCORE>
-11.7703

>  <SCORE.INTER>
-5.4645

>  <SCORE.INTER.CONST>
1

>  <SCORE.INTER.POLAR>
0

>  <SCORE.INTER.ROT>
8

>  <SCORE.INTER.SOLV>
20.1272

>  <SCORE.INTER.VDW>
-19.2854

>  <SCORE.INTER.norm>
-0.156128

>  <SCORE.INTRA>
-6.30577

>  <SCORE.INTRA.DIHEDRAL>
-10.2056

>  <SCORE.INTRA.DIHEDRAL.0>
13.1227

>  <SCORE.INTRA.POLAR>
0

>  <SCORE.INTRA.POLAR.0>
0

>  <SCORE.INTRA.REPUL>
0

>  <SCORE.INTRA.REPUL.0>
0

>  <SCORE.INTRA.SOLV>
-0.0490745

>  <SCORE.INTRA.SOLV.lig_0>
-89.1587

>  <SCORE.INTRA.VDW>
-1.17844

>  <SCORE.INTRA.VDW.0>
-0.838383

>  <SCORE.INTRA.norm>
-0.180165

>  <SCORE.RESTR>
0

>  <SCORE.RESTR.CAVITY>
0

>  <SCORE.RESTR.norm>
0

>  <SCORE.SYSTEM>
0

>  <SCORE.SYSTEM.CONST>
0

>  <SCORE.SYSTEM.DIHEDRAL>
0

>  <SCORE.SYSTEM.SOLV>
0

>  <SCORE.SYSTEM.norm>
0

>  <SCORE.heavy>
35

>  <SCORE.norm>
-0.336293

>  <RMSD>
2.167

$$$$
2o3v_lig
 OpenBabel02141814113D
libRbt.so/2013.1/901 2013/11/27
 35 37  0  0  0  0  0  0  0  0999 V2000
    1.7744   -8.6246   44.7559 C   0  0  2  0  0  0  0  0  0  0  0  0
    2.4088   -7.5321   44.0233 O   0  0  0  0  0  0  0  0  0  0  0  0
    6.3603   -6.4179   42.5840 C   0  0  2  0  0  0  0  0  0  0  0  0
    7.8190   -6.0954   42.5703 N   0  0  0  0  0  0  0  0  0  0  0  0
   -7.0266   -7.5628   47.4896 C   0  0  2  0  0  0  0  0  0  0  0  0
   -7.4504   -8.4782   46.4562 O   0  0  0  0  0  0  0  0  0  0  0  0
    0.2622   -8.4555   44.4049 C   0  0  2  0  0  0  0  0  0  0  0  0
    0.0393   -8.5375   42.9420 N   0  0  0  0  0  0  0  0  0  0  0  0
    5.5814   -5.3872   43.5094 C   0  0  0  0  0  0  0  0  0  0  0  0
   -5.7606   -6.8060   46.9581 C   0  0  2  0  0  0  0  0  0  0  0  0
   -6.0574   -6.0989   45.6865 N   0  0  0  0  0  0  0  0  0  0  0  0
   -0.3160   -7.0817   44.9597 C   0  0  1  0  0  0  0  0  0  0  0  0
   -1.7428   -6.9201   44.5773 O   0  0  0  0  0  0  0  0  0  0  0  0
    4.0354   -5.7592   43.5158 C   0  0  2  0  0  0  0  0  0  0  0  0
    3.2930   -4.8180   44.3814 N   0  0  0  0  0  0  0  0  0  0  0  0
   -4.5257   -7.7928   46.7673 C   0  0  1  0  0  0  0  0  0  0  0  0
   -3.3297   -7.1125   46.3075 O   0  0  0  0  0  0  0  0  0  0  0  0
   -0.0545   -7.0544   46.5296 C   0  0  2  0  0  0  0  0  0  0  0  0
   -0.5173   -5.8489   47.1114 O   0  0  0  0  0  0  0  0  0  0  0  0
    3.8391   -7.2422   44.0370 C   0  0  2  0  0  0  0  0  0  0  0  0
   -4.2426   -8.5011   48.1299 C   0  0  2  0  0  0  0  0  0  0  0  0
   -3.1579   -9.4014   48.0177 O   0  0  0  0  0  0  0  0  0  0  0  0
    1.4793   -7.2432   46.8387 C   0  0  2  0  0  0  0  0  0  0  0  0
    1.9616   -8.4996   46.2277 O   0  0  0  0  0  0  0  0  0  0  0  0
    4.6091   -8.2427   43.1301 C   0  0  2  0  0  0  0  0  0  0  0  0
    4.4170   -9.5734   43.6900 O   0  0  0  0  0  0  0  0  0  0  0  0
   -5.5434   -9.2466   48.6312 C   0  0  2  0  0  0  0  0  0  0  0  0
   -6.6729   -8.2946   48.7360 O   0  0  0  0  0  0  0  0  0  0  0  0
    1.7530   -7.2580   48.3419 C   0  0  0  0  0  0  0  0  0  0  0  0
    3.0505   -6.7944   48.6255 O   0  0  0  0  0  0  0  0  0  0  0  0
    6.1131   -7.8823   43.1182 C   0  0  1  0  0  0  0  0  0  0  0  0
    6.7875   -8.8011   42.2844 O   0  0  0  0  0  0  0  0  0  0  0  0
   -5.3282   -9.9166   49.9798 C   0  0  0  0  0  0  0  0  0  0  0  0
   -5.4349   -8.9739   51.0190 O   0  0  0  0  0  0  0  0  0  0  0  0
   -2.6802   -7.8892   45.2587 C   0  0  0  0  0  0  0  0  0  0  0  0
  1  2  1  6  0  0  0
  1  7  1  0  0  0  0
  1 24  1  0  0  0  0
  3  4  1  1  0  0  0
  3  9  1  0  0  0  0
  3 31  1  0  0  0  0
  5  6  1  6  0  0  0
  5 10  1  0  0  0  0
  5 28  1  0  0  0  0
  7  8  1  6  0  0  0
  7 12  1  0  0  0  0
  9 14  1  0  0  0  0
 10 11  1  6  0  0  0
 10 16  1  0  0  0  0
 12 13  1  1  0  0  0
 12 18  1  0  0  0  0
 13 35  1  0  0  0  0
 14 15  1  1  0  0  0
 14 20  1  0  0  0  0
 16 17  1  1  0  0  0
 16 21  1  0  0  0  0
 17 35  1  0  0  0  0
 18 19  1  6  0  0  0
 18 23  1  0  0  0  0
 20  2  1  6  0  0  0
 20 25  1  0  0  0  0
 21 22  1  6  0  0  0
 21 27  1  0  0  0  0
 23 24  1  0  0  0  0
 23 29  1  1  0  0  0
 25 26  1  1  0  0  0
 25 31  1  0  0  0  0
 27 28  1  0  0  0  0
 27 33  1  1  0  0  0
 29 30  1  0  0  0  0
 31 32  1  6  0  0  0
 33 34  1  0  0  0  0
M  END
>  <CHROM.1>
179.17599319,68.26538841,102.74317636,-136.55865283,162.78856694,-162.30034080
-151.89939706,80.11472038,-0.16005521,-7.62428855,45.80079958,0.40203297
-0.00772281,-1.36515806

>  <Name>
2o3v_lig

>  <RI>
0

>  <Rbt.Current_Directory>
/home/afrankz/demos/rdock_decoys_rna/rnas/2o3v

>  <Rbt.Executable>
rbdock ($Id: //depot/dev/client3/rdock/2013.1/src/exe/rbdock.cxx#4 $)

>  <Rbt.Library>
libRbt.so (2013.1, Build901 2013/11/27)

>  <Rbt.Parameter_File>
/export/apps/rDock/src/rDock_2013.1_src/data/scripts/dock_solv.prm

>  <Rbt.Receptor>
prm/pocket_docking_2.prm

>  <SCORE>
-4.25379

>  <SCORE.INTER>
-4.67899

>  <SCORE.INTER.CONST>
1

>  <SCORE.INTER.POLAR>
0

>  <SCORE.INTER.ROT>
8

>  <SCORE.INTER.SOLV>
16.5256

>  <SCORE.INTER.VDW>
-17.5612

>  <SCORE.INTER.norm>
-0.133685

>  <SCORE.INTRA>
0.420279

>  <SCORE.INTRA.DIHEDRAL>
5.53819

>  <SCORE.INTRA.DIHEDRAL.0>
13.1227

>  <SCORE.INTRA.POLAR>
0

>  <SCORE.INTRA.POLAR.0>
0

>  <SCORE.INTRA.REPUL>
0

>  <SCORE.INTRA.REPUL.0>
0

>  <SCORE.INTRA.SOLV>
-0.292702

>  <SCORE.INTRA.SOLV.lig_0>
-89.1587

>  <SCORE.INTRA.VDW>
-2.20246

>  <SCORE.INTRA.VDW.0>
-0.838383

>  <SCORE.INTRA.norm>
0.012008

>  <SCORE.RESTR>
0.00491547

>  <SCORE.RESTR.CAVITY>
0.00491547

>  <SCORE.RESTR.norm>
0.000140442

>  <SCORE.SYSTEM>
0

>  <SCORE.SYSTEM.CONST>
0

>  <SCORE.SYSTEM.DIHEDRAL>
0

>  <SCORE.SYSTEM.SOLV>
0

>  <SCORE.SYSTEM.norm>
0

>  <SCORE.heavy>
35

>  <SCORE.norm>
-0.121537

>  <RMSD>
2.172

$$$$
2o3v_lig
 OpenBabel02141814113D
libRbt.so/2013.1/901 2013/11/27
 35 37  0  0  0  0  0  0  0  0999 V2000
    1.8108   -8.5084   45.6673 C   0  0  2  0  0  0  0  0  0  0  0  0
    2.2853   -7.6586   44.5785 O   0  0  0  0  0  0  0  0  0  0  0  0
    5.8985   -6.5721   42.4126 C   0  0  2  0  0  0  0  0  0  0  0  0
    7.3210   -6.2138   42.1290 N   0  0  0  0  0  0  0  0  0  0  0  0
   -7.1539   -6.2654   46.7500 C   0  0  2  0  0  0  0  0  0  0  0  0
   -7.4390   -7.0041   45.5423 O   0  0  0  0  0  0  0  0  0  0  0  0
    0.3045   -8.7251   45.3170 C   0  0  2  0  0  0  0  0  0  0  0  0
    0.1495   -9.3559   43.9850 N   0  0  0  0  0  0  0  0  0  0  0  0
    5.2411   -5.4848   43.3671 C   0  0  0  0  0  0  0  0  0  0  0  0
   -5.6746   -5.7553   46.6519 C   0  0  2  0  0  0  0  0  0  0  0  0
   -5.4781   -4.9213   45.4391 N   0  0  0  0  0  0  0  0  0  0  0  0
   -0.5077   -7.3584   45.3615 C   0  0  1  0  0  0  0  0  0  0  0  0
   -1.9275   -7.5791   44.9823 O   0  0  0  0  0  0  0  0  0  0  0  0
    3.7335   -5.8952   43.6623 C   0  0  2  0  0  0  0  0  0  0  0  0
    3.1058   -4.9013   44.5593 N   0  0  0  0  0  0  0  0  0  0  0  0
   -4.6367   -6.9625   46.6674 C   0  0  1  0  0  0  0  0  0  0  0  0
   -3.2571   -6.5172   46.6113 O   0  0  0  0  0  0  0  0  0  0  0  0
   -0.3097   -6.7337   46.8120 C   0  0  2  0  0  0  0  0  0  0  0  0
   -0.9818   -5.4935   46.9386 O   0  0  0  0  0  0  0  0  0  0  0  0
    3.6856   -7.3313   44.3292 C   0  0  2  0  0  0  0  0  0  0  0  0
   -4.8713   -7.8007   47.9640 C   0  0  2  0  0  0  0  0  0  0  0  0
   -3.9809   -8.8974   48.0269 O   0  0  0  0  0  0  0  0  0  0  0  0
    1.2226   -6.5465   47.1296 C   0  0  2  0  0  0  0  0  0  0  0  0
    1.9233   -7.8407   46.9933 O   0  0  0  0  0  0  0  0  0  0  0  0
    4.3360   -8.3871   43.3919 C   0  0  2  0  0  0  0  0  0  0  0  0
    4.2924   -9.6680   44.0836 O   0  0  0  0  0  0  0  0  0  0  0  0
   -6.3731   -8.2906   48.0256 C   0  0  2  0  0  0  0  0  0  0  0  0
   -7.2943   -7.1336   47.9503 O   0  0  0  0  0  0  0  0  0  0  0  0
    1.4419   -5.9822   48.5325 C   0  0  0  0  0  0  0  0  0  0  0  0
    2.8124   -5.8191   48.8047 O   0  0  0  0  0  0  0  0  0  0  0  0
    5.8018   -7.9899   43.0993 C   0  0  1  0  0  0  0  0  0  0  0  0
    6.3668   -8.9604   42.2431 O   0  0  0  0  0  0  0  0  0  0  0  0
   -6.6610   -9.0763   49.2959 C   0  0  0  0  0  0  0  0  0  0  0  0
   -7.4167  -10.2262   49.0014 O   0  0  0  0  0  0  0  0  0  0  0  0
   -2.8255   -6.3886   45.2248 C   0  0  0  0  0  0  0  0  0  0  0  0
  1  2  1  6  0  0  0
  1  7  1  0  0  0  0
  1 24  1  0  0  0  0
  3  4  1  1  0  0  0
  3  9  1  0  0  0  0
  3 31  1  0  0  0  0
  5  6  1  6  0  0  0
  5 10  1  0  0  0  0
  5 28  1  0  0  0  0
  7  8  1  6  0  0  0
  7 12  1  0  0  0  0
  9 14  1  0  0  0  0
 10 11  1  6  0  0  0
 10 16  1  0  0  0  0
 12 13  1  1  0  0  0
 12 18  1  0  0  0  0
 13 35  1  0  0  0  0
 14 15  1  1  0  0  0
 14 20  1  0  0  0  0
 16 17  1  1  0  0  0
 16 21  1  0  0  0  0
 17 35  1  0  0  0  0
 18 19  1  6  0  0  0
 18 23  1  0  0  0  0
 20  2  1  6  0  0  0
 20 25  1  0  0  0  0
 21 22  1  6  0  0  0
 21 27  1  0  0  0  0
 23 24  1  0  0  0  0
 23 29  1  1  0  0  0
 25 26  1  1  0  0  0
 25 31  1  0  0  0  0
 27 28  1  0  0  0  0
 27 33  1  1  0  0  0
 29 30  1  0  0  0  0
 31 32  1  6  0  0  0
 33 34  1  0  0  0  0
M  END
>  <CHROM.1>
-170.28701060,170.00804620,-86.55910568,-88.88794400,-105.35627324,-149.97737047
-179.98427778,-135.96718263,-0.47531095,-7.28617694,45.79091296,-0.04817090
-0.32656272,3.06326267

>  <Name>
2o3v_lig

>  <RI>
0

>  <Rbt.Current_Directory>
/home/afrankz/demos/rdock_decoys_rna/rnas/2o3v

>  <Rbt.Executable>
rbdock ($Id: //depot/dev/client3/rdock/2013.1/src/exe/rbdock.cxx#4 $)

>  <Rbt.Library>
libRbt.so (2013.1, Build901 2013/11/27)

>  <Rbt.Parameter_File>
/export/apps/rDock/src/rDock_2013.1_src/data/scripts/dock_solv.prm

>  <Rbt.Receptor>
prm/pocket_docking_2.prm

>  <SCORE>
-1.38077

>  <SCORE.INTER>
-5.55893

>  <SCORE.INTER.CONST>
1

>  <SCORE.INTER.POLAR>
0

>  <SCORE.INTER.ROT>
8

>  <SCORE.INTER.SOLV>
15.3413

>  <SCORE.INTER.VDW>
-17.7531

>  <SCORE.INTER.norm>
-0.158827

>  <SCORE.INTRA>
3.9881

>  <SCORE.INTRA.DIHEDRAL>
8.39755

>  <SCORE.INTRA.DIHEDRAL.0>
13.1227

>  <SCORE.INTRA.POLAR>
0

>  <SCORE.INTRA.POLAR.0>
0

>  <SCORE.INTRA.REPUL>
0

>  <SCORE.INTRA.REPUL.0>
0

>  <SCORE.INTRA.SOLV>
0.617698

>  <SCORE.INTRA.SOLV.lig_0>
-89.1587

>  <SCORE.INTRA.VDW>
-0.519529

>  <SCORE.INTRA.VDW.0>
-0.838383

>  <SCORE.INTRA.norm>
0.113946

>  <SCORE.RESTR>
0.190072

>  <SCORE.RESTR.CAVITY>
0.190072

>  <SCORE.RESTR.norm>
0.00543063

>  <SCORE.SYSTEM>
0

>  <SCORE.SYSTEM.CONST>
0

>  <SCORE.SYSTEM.DIHEDRAL>
0

>  <SCORE.SYSTEM.SOLV>
0

>  <SCORE.SYSTEM.norm>
0

>  <SCORE.heavy>
35

>  <SCORE.norm>
-0.0394505

>  <RMSD>
2.177

$$$$
2o3v_lig
 OpenBabel02141814113D
libRbt.so/2013.1/901 2013/11/27
 35 37  0  0  0  0  0  0  0  0999 V2000
    1.8535   -8.2689   44.8586 C   0  0  2  0  0  0  0  0  0  0  0  0
    2.4870   -7.3514   43.9154 O   0  0  0  0  0  0  0  0  0  0  0  0
    6.4549   -6.3325   42.4507 C   0  0  2  0  0  0  0  0  0  0  0  0
    7.8966   -5.9407   42.4345 N   0  0  0  0  0  0  0  0  0  0  0  0
   -6.4586   -6.9764   47.2537 C   0  0  2  0  0  0  0  0  0  0  0  0
   -7.0596   -7.9669   46.3916 O   0  0  0  0  0  0  0  0  0  0  0  0
    0.3762   -8.3291   44.3563 C   0  0  2  0  0  0  0  0  0  0  0  0
    0.3058   -8.8050   42.9545 N   0  0  0  0  0  0  0  0  0  0  0  0
    5.5836   -5.1826   43.1171 C   0  0  0  0  0  0  0  0  0  0  0  0
   -5.0949   -6.5534   46.6060 C   0  0  2  0  0  0  0  0  0  0  0  0
   -5.2974   -6.0331   45.2300 N   0  0  0  0  0  0  0  0  0  0  0  0
   -0.3406   -6.9146   44.4794 C   0  0  1  0  0  0  0  0  0  0  0  0
   -1.7296   -6.9826   43.9556 O   0  0  0  0  0  0  0  0  0  0  0  0
    4.0575   -5.6289   43.1325 C   0  0  2  0  0  0  0  0  0  0  0  0
    3.2298   -4.5764   43.7599 N   0  0  0  0  0  0  0  0  0  0  0  0
   -4.0536   -7.7578   46.5945 C   0  0  1  0  0  0  0  0  0  0  0  0
   -2.7702   -7.3846   46.0303 O   0  0  0  0  0  0  0  0  0  0  0  0
   -0.2391   -6.4602   46.0015 C   0  0  2  0  0  0  0  0  0  0  0  0
   -0.8332   -5.1907   46.2043 O   0  0  0  0  0  0  0  0  0  0  0  0
    3.9004   -6.9877   43.9313 C   0  0  2  0  0  0  0  0  0  0  0  0
   -3.8625   -8.2613   48.0603 C   0  0  2  0  0  0  0  0  0  0  0  0
   -2.9523   -9.3423   48.1106 O   0  0  0  0  0  0  0  0  0  0  0  0
    1.2652   -6.4280   46.4705 C   0  0  2  0  0  0  0  0  0  0  0  0
    1.8848   -7.7523   46.2546 O   0  0  0  0  0  0  0  0  0  0  0  0
    4.7604   -8.1049   43.2766 C   0  0  2  0  0  0  0  0  0  0  0  0
    4.5986   -9.3069   44.0830 O   0  0  0  0  0  0  0  0  0  0  0  0
   -5.2593   -8.6724   48.6761 C   0  0  2  0  0  0  0  0  0  0  0  0
   -6.2050   -7.5348   48.6095 O   0  0  0  0  0  0  0  0  0  0  0  0
    1.3881   -6.0303   47.9407 C   0  0  0  0  0  0  0  0  0  0  0  0
    2.7366   -5.8979   48.3189 O   0  0  0  0  0  0  0  0  0  0  0  0
    6.2455   -7.6734   43.2564 C   0  0  1  0  0  0  0  0  0  0  0  0
    7.0027   -8.7012   42.6529 O   0  0  0  0  0  0  0  0  0  0  0  0
   -5.1289   -9.1294   50.1212 C   0  0  0  0  0  0  0  0  0  0  0  0
   -6.3854   -9.5011   50.6339 O   0  0  0  0  0  0  0  0  0  0  0  0
   -2.6235   -7.9505   44.6949 C   0  0  0  0  0  0  0  0  0  0  0  0
  1  2  1  6  0  0  0
  1  7  1  0  0  0  0
  1 24  1  0  0  0  0
  3  4  1  1  0  0  0
  3  9  1  0  0  0  0
  3 31  1  0  0  0  0
  5  6  1  6  0  0  0
  5 10  1  0  0  0  0
  5 28  1  0  0  0  0
  7  8  1  6  0  0  0
  7 12  1  0  0  0  0
  9 14  1  0  0  0  0
 10 11  1  6  0  0  0
 10 16  1  0  0  0  0
 12 13  1  1  0  0  0
 12 18  1  0  0  0  0
 13 35  1  0  0  0  0
 14 15  1  1  0  0  0
 14 20  1  0  0  0  0
 16 17  1  1  0  0  0
 16 21  1  0  0  0  0
 17 35  1  0  0  0  0
 18 19  1  6  0  0  0
 18 23  1  0  0  0  0
 20  2  1  6  0  0  0
 20 25  1  0  0  0  0
 21 22  1  6  0  0  0
 21 27  1  0  0  0  0
 23 24  1  0  0  0  0
 23 29  1  1  0  0  0
 25 26  1  1  0  0  0
 25 31  1  0  0  0  0
 27 28  1  0  0  0  0
 27 33  1  1  0  0  0
 29 30  1  0  0  0  0
 31 32  1  6  0  0  0
 33 34  1  0  0  0  0
M  END
>  <CHROM.1>
-178.09900209,61.28072581,66.39623226,-105.58261161,150.51829609,-159.70060134
-175.15902097,-179.36604968,-0.05146051,-7.33296820,45.60783077,-0.40854114
-0.02523566,1.85289385

>  <Name>
2o3v_lig

>  <RI>
0

>  <Rbt.Current_Directory>
/home/afrankz/demos/rdock_decoys_rna/rnas/2o3v

>  <Rbt.Executable>
rbdock ($Id: //depot/dev/client3/rdock/2013.1/src/exe/rbdock.cxx#4 $)

>  <Rbt.Library>
libRbt.so (2013.1, Build901 2013/11/27)

>  <Rbt.Parameter_File>
/export/apps/rDock/src/rDock_2013.1_src/data/scripts/dock_solv.prm

>  <Rbt.Receptor>
prm/pocket_docking_2.prm

>  <SCORE>
-7.96203

>  <SCORE.INTER>
-5.9626

>  <SCORE.INTER.CONST>
1

>  <SCORE.INTER.POLAR>
0

>  <SCORE.INTER.ROT>
8

>  <SCORE.INTER.SOLV>
17.6055

>  <SCORE.INTER.VDW>
-18.7769

>  <SCORE.INTER.norm>
-0.17036

>  <SCORE.INTRA>
-2.0969

>  <SCORE.INTRA.DIHEDRAL>
-1.19106

>  <SCORE.INTRA.DIHEDRAL.0>
13.1227

>  <SCORE.INTRA.POLAR>
0

>  <SCORE.INTRA.POLAR.0>
0

>  <SCORE.INTRA.REPUL>
0

>  <SCORE.INTRA.REPUL.0>
0

>  <SCORE.INTRA.SOLV>
0.412619

>  <SCORE.INTRA.SOLV.lig_0>
-89.1587

>  <SCORE.INTRA.VDW>
-1.70768

>  <SCORE.INTRA.VDW.0>
-0.838383

>  <SCORE.INTRA.norm>
-0.0599116

>  <SCORE.RESTR>
0.0974726

>  <SCORE.RESTR.CAVITY>
0.0974726

>  <SCORE.RESTR.norm>
0.00278493

>  <SCORE.SYSTEM>
0

>  <SCORE.SYSTEM.CONST>
0

>  <SCORE.SYSTEM.DIHEDRAL>
0

>  <SCORE.SYSTEM.SOLV>
0

>  <SCORE.SYSTEM.norm>
0

>  <SCORE.heavy>
35

>  <SCORE.norm>
-0.227487

>  <RMSD>
2.181

$$$$
2o3v_lig
 OpenBabel02141814113D
libRbt.so/2013.1/901 2013/11/27
 35 37  0  0  0  0  0  0  0  0999 V2000
    2.0518   -7.8587   44.2681 C   0  0  2  0  0  0  0  0  0  0  0  0
    2.9560   -6.7842   43.8673 O   0  0  0  0  0  0  0  0  0  0  0  0
    7.1918   -6.2789   43.0131 C   0  0  2  0  0  0  0  0  0  0  0  0
    8.6756   -6.2641   43.1876 N   0  0  0  0  0  0  0  0  0  0  0  0
   -4.2281  -10.6501   45.2515 C   0  0  2  0  0  0  0  0  0  0  0  0
   -4.4775  -10.4596   46.6611 O   0  0  0  0  0  0  0  0  0  0  0  0
    0.6382   -7.2334   44.0464 C   0  0  2  0  0  0  0  0  0  0  0  0
    0.4506   -6.8193   42.6358 N   0  0  0  0  0  0  0  0  0  0  0  0
    6.5104   -5.2793   44.0437 C   0  0  0  0  0  0  0  0  0  0  0  0
   -2.9499   -9.8201   44.8831 C   0  0  2  0  0  0  0  0  0  0  0  0
   -1.7877  -10.2379   45.7074 N   0  0  0  0  0  0  0  0  0  0  0  0
    0.3921   -5.9907   45.0078 C   0  0  1  0  0  0  0  0  0  0  0  0
   -0.9396   -5.3834   44.7504 O   0  0  0  0  0  0  0  0  0  0  0  0
    4.9334   -5.3227   43.8452 C   0  0  2  0  0  0  0  0  0  0  0  0
    4.2783   -4.4070   44.8038 N   0  0  0  0  0  0  0  0  0  0  0  0
   -3.2033   -8.2558   45.0363 C   0  0  1  0  0  0  0  0  0  0  0  0
   -2.0462   -7.4613   44.6694 O   0  0  0  0  0  0  0  0  0  0  0  0
    0.6002   -6.4965   46.5027 C   0  0  2  0  0  0  0  0  0  0  0  0
    0.4243   -5.4450   47.4351 O   0  0  0  0  0  0  0  0  0  0  0  0
    4.4026   -6.7997   44.0599 C   0  0  2  0  0  0  0  0  0  0  0  0
   -4.4222   -7.8616   44.1433 C   0  0  2  0  0  0  0  0  0  0  0  0
   -4.7017   -6.4794   44.2479 O   0  0  0  0  0  0  0  0  0  0  0  0
    2.0314   -7.1326   46.6776 C   0  0  2  0  0  0  0  0  0  0  0  0
    2.2148   -8.2271   45.7014 O   0  0  0  0  0  0  0  0  0  0  0  0
    5.0786   -7.7714   43.0523 C   0  0  2  0  0  0  0  0  0  0  0  0
    4.5754   -9.1088   43.3339 O   0  0  0  0  0  0  0  0  0  0  0  0
   -5.6857   -8.7233   44.5439 C   0  0  2  0  0  0  0  0  0  0  0  0
   -5.3770  -10.1677   44.4382 O   0  0  0  0  0  0  0  0  0  0  0  0
    2.2434   -7.6605   48.0958 C   0  0  0  0  0  0  0  0  0  0  0  0
    1.3181   -8.6746   48.4027 O   0  0  0  0  0  0  0  0  0  0  0  0
    6.6133   -7.7297   43.2396 C   0  0  1  0  0  0  0  0  0  0  0  0
    7.2023   -8.6151   42.3105 O   0  0  0  0  0  0  0  0  0  0  0  0
   -6.8891   -8.4045   43.6696 C   0  0  0  0  0  0  0  0  0  0  0  0
   -7.3873   -7.1229   43.9683 O   0  0  0  0  0  0  0  0  0  0  0  0
   -2.0976   -6.1623   45.3289 C   0  0  0  0  0  0  0  0  0  0  0  0
  1  2  1  1  0  0  0
  1  7  1  0  0  0  0
  1 24  1  0  0  0  0
  3  4  1  1  0  0  0
  3  9  1  0  0  0  0
  3 31  1  0  0  0  0
  5  6  1  1  0  0  0
  5 10  1  0  0  0  0
  5 28  1  0  0  0  0
  7  8  1  6  0  0  0
  7 12  1  0  0  0  0
  9 14  1  0  0  0  0
 10 11  1  1  0  0  0
 10 16  1  0  0  0  0
 12 13  1  1  0  0  0
 12 18  1  0  0  0  0
 13 35  1  0  0  0  0
 14 15  1  1  0  0  0
 14 20  1  0  0  0  0
 16 17  1  6  0  0  0
 16 21  1  0  0  0  0
 17 35  1  0  0  0  0
 18 19  1  1  0  0  0
 18 23  1  0  0  0  0
 20  2  1  6  0  0  0
 20 25  1  0  0  0  0
 21 22  1  1  0  0  0
 21 27  1  0  0  0  0
 23 24  1  0  0  0  0
 23 29  1  1  0  0  0
 25 26  1  1  0  0  0
 25 31  1  0  0  0  0
 27 28  1  0  0  0  0
 27 33  1  6  0  0  0
 29 30  1  0  0  0  0
 31 32  1  6  0  0  0
 33 34  1  0  0  0  0
M  END
>  <CHROM.1>
171.20201841,76.61680309,-61.26231094,-156.08661565,-173.77129854,-165.31219799
61.42257754,-70.55055578,0.46987285,-7.52929002,44.72864621,-0.16179860,-0.09066588
3.11504597

>  <Name>
2o3v_lig

>  <RI>
0

>  <Rbt.Current_Directory>
/home/afrankz/demos/rdock_decoys_rna/rnas/2o3v

>  <Rbt.Executable>
rbdock ($Id: //depot/dev/client3/rdock/2013.1/src/exe/rbdock.cxx#4 $)

>  <Rbt.Library>
libRbt.so (2013.1, Build901 2013/11/27)

>  <Rbt.Parameter_File>
/export/apps/rDock/src/rDock_2013.1_src/data/scripts/dock_solv.prm

>  <Rbt.Receptor>
prm/pocket_docking_5.prm

>  <SCORE>
-11.1769

>  <SCORE.INTER>
-6.89055

>  <SCORE.INTER.CONST>
1

>  <SCORE.INTER.POLAR>
-0.81703

>  <SCORE.INTER.ROT>
8

>  <SCORE.INTER.SOLV>
16.6868

>  <SCORE.INTER.VDW>
-16.3659

>  <SCORE.INTER.norm>
-0.196873

>  <SCORE.INTRA>
-4.28633

>  <SCORE.INTRA.DIHEDRAL>
-7.35029

>  <SCORE.INTRA.DIHEDRAL.0>
13.1227

>  <SCORE.INTRA.POLAR>
0

>  <SCORE.INTRA.POLAR.0>
0

>  <SCORE.INTRA.REPUL>
0.00880579

>  <SCORE.INTRA.REPUL.0>
0

>  <SCORE.INTRA.SOLV>
0.888326

>  <SCORE.INTRA.SOLV.lig_0>
-89.1587

>  <SCORE.INTRA.VDW>
-1.09938

>  <SCORE.INTRA.VDW.0>
-0.838383

>  <SCORE.INTRA.norm>
-0.122467

>  <SCORE.RESTR>
0

>  <SCORE.RESTR.CAVITY>
0

>  <SCORE.RESTR.norm>
0

>  <SCORE.SYSTEM>
0

>  <SCORE.SYSTEM.CONST>
0

>  <SCORE.SYSTEM.DIHEDRAL>
0

>  <SCORE.SYSTEM.SOLV>
0

>  <SCORE.SYSTEM.norm>
0

>  <SCORE.heavy>
35

>  <SCORE.norm>
-0.319339

>  <RMSD>
2.187

$$$$
2o3v_lig
 OpenBabel02141814113D
libRbt.so/2013.1/901 2013/11/27
 35 37  0  0  0  0  0  0  0  0999 V2000
    1.2257   -9.7954   46.7348 C   0  0  2  0  0  0  0  0  0  0  0  0
    1.7585   -9.2916   45.4719 O   0  0  0  0  0  0  0  0  0  0  0  0
    5.6900   -8.9822   43.6348 C   0  0  2  0  0  0  0  0  0  0  0  0
    7.1002   -8.5597   43.3798 N   0  0  0  0  0  0  0  0  0  0  0  0
   -6.0265   -8.0726   48.8438 C   0  0  2  0  0  0  0  0  0  0  0  0
   -4.8794   -7.9215   49.7080 O   0  0  0  0  0  0  0  0  0  0  0  0
   -0.3186   -9.7638   46.5057 C   0  0  2  0  0  0  0  0  0  0  0  0
   -0.7051  -10.5988   45.3439 N   0  0  0  0  0  0  0  0  0  0  0  0
    4.7185   -7.7280   43.5424 C   0  0  0  0  0  0  0  0  0  0  0  0
   -5.4927   -8.2711   47.3830 C   0  0  2  0  0  0  0  0  0  0  0  0
   -4.5861   -9.4443   47.3019 N   0  0  0  0  0  0  0  0  0  0  0  0
   -0.8480   -8.2784   46.2989 C   0  0  1  0  0  0  0  0  0  0  0  0
   -2.3110   -8.2740   46.0385 O   0  0  0  0  0  0  0  0  0  0  0  0
    3.2280   -8.2022   43.8287 C   0  0  2  0  0  0  0  0  0  0  0  0
    2.3081   -7.0466   43.7589 N   0  0  0  0  0  0  0  0  0  0  0  0
   -4.7571   -6.9652   46.8460 C   0  0  1  0  0  0  0  0  0  0  0  0
   -4.2817   -7.1093   45.4830 O   0  0  0  0  0  0  0  0  0  0  0  0
   -0.4103   -7.4348   47.5758 C   0  0  2  0  0  0  0  0  0  0  0  0
   -0.8197   -6.0831   47.4694 O   0  0  0  0  0  0  0  0  0  0  0  0
    3.1414   -8.8761   45.2596 C   0  0  2  0  0  0  0  0  0  0  0  0
   -5.7509   -5.7640   46.9371 C   0  0  2  0  0  0  0  0  0  0  0  0
   -5.1461   -4.5698   46.4815 O   0  0  0  0  0  0  0  0  0  0  0  0
    1.1510   -7.5064   47.7779 C   0  0  2  0  0  0  0  0  0  0  0  0
    1.5772   -8.9176   47.8848 O   0  0  0  0  0  0  0  0  0  0  0  0
    4.0989  -10.0978   45.3433 C   0  0  2  0  0  0  0  0  0  0  0  0
    3.9963  -10.6390   46.6915 O   0  0  0  0  0  0  0  0  0  0  0  0
   -6.2673   -5.6023   48.4225 C   0  0  2  0  0  0  0  0  0  0  0  0
   -6.8903   -6.8619   48.8898 O   0  0  0  0  0  0  0  0  0  0  0  0
    1.5939   -6.7344   49.0200 C   0  0  0  0  0  0  0  0  0  0  0  0
    1.3231   -5.3605   48.8862 O   0  0  0  0  0  0  0  0  0  0  0  0
    5.5497   -9.6415   45.0619 C   0  0  1  0  0  0  0  0  0  0  0  0
    6.3968  -10.7687   45.1383 O   0  0  0  0  0  0  0  0  0  0  0  0
   -7.2740   -4.4693   48.5521 C   0  0  0  0  0  0  0  0  0  0  0  0
   -8.4163   -4.7360   47.7749 O   0  0  0  0  0  0  0  0  0  0  0  0
   -2.8297   -6.9873   45.4404 C   0  0  0  0  0  0  0  0  0  0  0  0
  1  2  1  6  0  0  0
  1  7  1  0  0  0  0
  1 24  1  0  0  0  0
  3  4  1  1  0  0  0
  3  9  1  0  0  0  0
  3 31  1  0  0  0  0
  5  6  1  1  0  0  0
  5 10  1  0  0  0  0
  5 28  1  0  0  0  0
  7  8  1  6  0  0  0
  7 12  1  0  0  0  0
  9 14  1  0  0  0  0
 10 11  1  1  0  0  0
 10 16  1  0  0  0  0
 12 13  1  1  0  0  0
 12 18  1  0  0  0  0
 13 35  1  0  0  0  0
 14 15  1  1  0  0  0
 14 20  1  0  0  0  0
 16 17  1  6  0  0  0
 16 21  1  0  0  0  0
 17 35  1  0  0  0  0
 18 19  1  6  0  0  0
 18 23  1  0  0  0  0
 20  2  1  6  0  0  0
 20 25  1  0  0  0  0
 21 22  1  1  0  0  0
 21 27  1  0  0  0  0
 23 24  1  0  0  0  0
 23 29  1  1  0  0  0
 25 26  1  1  0  0  0
 25 31  1  0  0  0  0
 27 28  1  0  0  0  0
 27 33  1  6  0  0  0
 29 30  1  0  0  0  0
 31 32  1  6  0  0  0
 33 34  1  0  0  0  0
M  END
>  <CHROM.1>
167.25109256,-163.08871361,-170.57111971,-117.91091073,73.04113928,-171.63785919
-64.00783070,62.38839916,-0.70868063,-7.84123134,46.56765652,0.18202877,-0.31818846
2.89008215

>  <Name>
2o3v_lig

>  <RI>
0

>  <Rbt.Current_Directory>
/home/afrankz/demos/rdock_decoys_rna/rnas/2o3v

>  <Rbt.Executable>
rbdock ($Id: //depot/dev/client3/rdock/2013.1/src/exe/rbdock.cxx#4 $)

>  <Rbt.Library>
libRbt.so (2013.1, Build901 2013/11/27)

>  <Rbt.Parameter_File>
/export/apps/rDock/src/rDock_2013.1_src/data/scripts/dock_solv.prm

>  <Rbt.Receptor>
prm/pocket_docking_3.prm

>  <SCORE>
-6.9235

>  <SCORE.INTER>
-3.96092

>  <SCORE.INTER.CONST>
1

>  <SCORE.INTER.POLAR>
-0.00292075

>  <SCORE.INTER.ROT>
8

>  <SCORE.INTER.SOLV>
10.6718

>  <SCORE.INTER.VDW>
-15.1215

>  <SCORE.INTER.norm>
-0.113169

>  <SCORE.INTRA>
-2.96258

>  <SCORE.INTRA.DIHEDRAL>
-2.15857

>  <SCORE.INTRA.DIHEDRAL.0>
13.1227

>  <SCORE.INTRA.POLAR>
0

>  <SCORE.INTRA.POLAR.0>
0

>  <SCORE.INTRA.REPUL>
0

>  <SCORE.INTRA.REPUL.0>
0

>  <SCORE.INTRA.SOLV>
1.0968

>  <SCORE.INTRA.SOLV.lig_0>
-89.1587

>  <SCORE.INTRA.VDW>
-2.4317

>  <SCORE.INTRA.VDW.0>
-0.838383

>  <SCORE.INTRA.norm>
-0.0846451

>  <SCORE.RESTR>
0

>  <SCORE.RESTR.CAVITY>
0

>  <SCORE.RESTR.norm>
0

>  <SCORE.SYSTEM>
0

>  <SCORE.SYSTEM.CONST>
0

>  <SCORE.SYSTEM.DIHEDRAL>
0

>  <SCORE.SYSTEM.SOLV>
0

>  <SCORE.SYSTEM.norm>
0

>  <SCORE.heavy>
35

>  <SCORE.norm>
-0.197814

>  <RMSD>
2.204

$$$$
2o3v_lig
 OpenBabel02141814113D
libRbt.so/2013.1/901 2013/11/27
 35 37  0  0  0  0  0  0  0  0999 V2000
    1.8618   -8.3429   44.8916 C   0  0  2  0  0  0  0  0  0  0  0  0
    2.4644   -7.4092   43.9440 O   0  0  0  0  0  0  0  0  0  0  0  0
    6.3859   -6.3636   42.3769 C   0  0  2  0  0  0  0  0  0  0  0  0
    7.8254   -5.9673   42.3235 N   0  0  0  0  0  0  0  0  0  0  0  0
   -6.2851   -7.1995   47.8518 C   0  0  2  0  0  0  0  0  0  0  0  0
   -7.5541   -7.1957   47.1625 O   0  0  0  0  0  0  0  0  0  0  0  0
    0.3502   -8.3183   44.5007 C   0  0  2  0  0  0  0  0  0  0  0  0
    0.1552   -8.7249   43.0889 N   0  0  0  0  0  0  0  0  0  0  0  0
    5.5308   -5.2231   43.0793 C   0  0  0  0  0  0  0  0  0  0  0  0
   -5.1918   -6.7358   46.8281 C   0  0  2  0  0  0  0  0  0  0  0  0
   -5.5128   -5.3950   46.2767 N   0  0  0  0  0  0  0  0  0  0  0  0
   -0.2914   -6.8828   44.7393 C   0  0  1  0  0  0  0  0  0  0  0  0
   -1.7170   -6.8686   44.3200 O   0  0  0  0  0  0  0  0  0  0  0  0
    4.0070   -5.6742   43.1337 C   0  0  2  0  0  0  0  0  0  0  0  0
    3.1945   -4.6306   43.7948 N   0  0  0  0  0  0  0  0  0  0  0  0
   -5.0092   -7.7898   45.6489 C   0  0  1  0  0  0  0  0  0  0  0  0
   -3.9791   -7.4019   44.7040 O   0  0  0  0  0  0  0  0  0  0  0  0
   -0.0575   -6.5047   46.2677 C   0  0  2  0  0  0  0  0  0  0  0  0
   -0.5775   -5.2225   46.5701 O   0  0  0  0  0  0  0  0  0  0  0  0
    3.8766   -7.0413   43.9231 C   0  0  2  0  0  0  0  0  0  0  0  0
   -4.6599   -9.1774   46.2745 C   0  0  2  0  0  0  0  0  0  0  0  0
   -4.4961  -10.1596   45.2705 O   0  0  0  0  0  0  0  0  0  0  0  0
    1.4772   -6.5566   46.6221 C   0  0  2  0  0  0  0  0  0  0  0  0
    2.0193   -7.8940   46.3024 O   0  0  0  0  0  0  0  0  0  0  0  0
    4.7207   -8.1494   43.2332 C   0  0  2  0  0  0  0  0  0  0  0  0
    4.5855   -9.3597   44.0319 O   0  0  0  0  0  0  0  0  0  0  0  0
   -5.7831   -9.6044   47.3017 C   0  0  2  0  0  0  0  0  0  0  0  0
   -5.9502   -8.5639   48.3421 O   0  0  0  0  0  0  0  0  0  0  0  0
    1.7262   -6.2336   48.0947 C   0  0  0  0  0  0  0  0  0  0  0  0
    3.1010   -6.2519   48.3923 O   0  0  0  0  0  0  0  0  0  0  0  0
    6.2034   -7.7130   43.1749 C   0  0  1  0  0  0  0  0  0  0  0  0
    6.9460   -8.7325   42.5399 O   0  0  0  0  0  0  0  0  0  0  0  0
   -5.4637  -10.9327   47.9707 C   0  0  0  0  0  0  0  0  0  0  0  0
   -4.2114  -10.8722   48.6094 O   0  0  0  0  0  0  0  0  0  0  0  0
   -2.6686   -7.4470   45.3409 C   0  0  0  0  0  0  0  0  0  0  0  0
  1  2  1  6  0  0  0
  1  7  1  0  0  0  0
  1 24  1  0  0  0  0
  3  4  1  1  0  0  0
  3  9  1  0  0  0  0
  3 31  1  0  0  0  0
  5  6  1  6  0  0  0
  5 10  1  0  0  0  0
  5 28  1  0  0  0  0
  7  8  1  6  0  0  0
  7 12  1  0  0  0  0
  9 14  1  0  0  0  0
 10 11  1  6  0  0  0
 10 16  1  0  0  0  0
 12 13  1  1  0  0  0
 12 18  1  0  0  0  0
 13 35  1  0  0  0  0
 14 15  1  1  0  0  0
 14 20  1  0  0  0  0
 16 17  1  6  0  0  0
 16 21  1  0  0  0  0
 17 35  1  0  0  0  0
 18 19  1  6  0  0  0
 18 23  1  0  0  0  0
 20  2  1  6  0  0  0
 20 25  1  0  0  0  0
 21 22  1  6  0  0  0
 21 27  1  0  0  0  0
 23 24  1  0  0  0  0
 23 29  1  1  0  0  0
 25 26  1  1  0  0  0
 25 31  1  0  0  0  0
 27 28  1  0  0  0  0
 27 33  1  1  0  0  0
 29 30  1  0  0  0  0
 31 32  1  6  0  0  0
 33 34  1  0  0  0  0
M  END
>  <CHROM.1>
177.82192318,80.90874897,-176.99660312,67.32084363,-173.36603335,-160.01218276
-178.60869201,56.58594241,-0.12411137,-7.52565594,45.37185297,-0.06537360
-0.33285311,-2.96267088

>  <Name>
2o3v_lig

>  <RI>
0

>  <Rbt.Current_Directory>
/home/afrankz/demos/rdock_decoys_rna/rnas/2o3v

>  <Rbt.Executable>
rbdock ($Id: //depot/dev/client3/rdock/2013.1/src/exe/rbdock.cxx#4 $)

>  <Rbt.Library>
libRbt.so (2013.1, Build901 2013/11/27)

>  <Rbt.Parameter_File>
/export/apps/rDock/src/rDock_2013.1_src/data/scripts/dock_solv.prm

>  <Rbt.Receptor>
prm/pocket_docking_2.prm

>  <SCORE>
-7.72553

>  <SCORE.INTER>
-4.66829

>  <SCORE.INTER.CONST>
1

>  <SCORE.INTER.POLAR>
0

>  <SCORE.INTER.ROT>
8

>  <SCORE.INTER.SOLV>
17.2383

>  <SCORE.INTER.VDW>
-17.7916

>  <SCORE.INTER.norm>
-0.13338

>  <SCORE.INTRA>
-3.78434

>  <SCORE.INTRA.DIHEDRAL>
-8.73611

>  <SCORE.INTRA.DIHEDRAL.0>
13.1227

>  <SCORE.INTRA.POLAR>
0

>  <SCORE.INTRA.POLAR.0>
0

>  <SCORE.INTRA.REPUL>
0

>  <SCORE.INTRA.REPUL.0>
0

>  <SCORE.INTRA.SOLV>
-0.305268

>  <SCORE.INTRA.SOLV.lig_0>
-89.1587

>  <SCORE.INTRA.VDW>
0.736353

>  <SCORE.INTRA.VDW.0>
-0.838383

>  <SCORE.INTRA.norm>
-0.108124

>  <SCORE.RESTR>
0.727093

>  <SCORE.RESTR.CAVITY>
0.727093

>  <SCORE.RESTR.norm>
0.0207741

>  <SCORE.SYSTEM>
0

>  <SCORE.SYSTEM.CONST>
0

>  <SCORE.SYSTEM.DIHEDRAL>
0

>  <SCORE.SYSTEM.SOLV>
0

>  <SCORE.SYSTEM.norm>
0

>  <SCORE.heavy>
35

>  <SCORE.norm>
-0.22073

>  <RMSD>
2.207

$$$$
2o3v_lig
 OpenBabel02141814113D
libRbt.so/2013.1/901 2013/11/27
 35 37  0  0  0  0  0  0  0  0999 V2000
    1.9544   -8.3773   45.1140 C   0  0  2  0  0  0  0  0  0  0  0  0
    2.5160   -7.6090   44.0062 O   0  0  0  0  0  0  0  0  0  0  0  0
    6.2868   -6.4679   42.1608 C   0  0  2  0  0  0  0  0  0  0  0  0
    7.7166   -6.0638   42.0032 N   0  0  0  0  0  0  0  0  0  0  0  0
   -5.8529   -5.5639   48.2223 C   0  0  2  0  0  0  0  0  0  0  0  0
   -7.1605   -5.7156   47.6283 O   0  0  0  0  0  0  0  0  0  0  0  0
    0.4153   -8.2789   44.8691 C   0  0  2  0  0  0  0  0  0  0  0  0
    0.0475   -8.8282   43.5427 N   0  0  0  0  0  0  0  0  0  0  0  0
    5.4972   -5.3690   42.9941 C   0  0  0  0  0  0  0  0  0  0  0  0
   -4.7983   -5.6380   47.0645 C   0  0  2  0  0  0  0  0  0  0  0  0
   -5.0593   -4.5965   46.0387 N   0  0  0  0  0  0  0  0  0  0  0  0
   -0.1006   -6.7793   44.9908 C   0  0  1  0  0  0  0  0  0  0  0  0
   -1.5579   -6.7012   44.7109 O   0  0  0  0  0  0  0  0  0  0  0  0
    3.9835   -5.8281   43.1572 C   0  0  2  0  0  0  0  0  0  0  0  0
    3.2327   -4.8237   43.9406 N   0  0  0  0  0  0  0  0  0  0  0  0
   -4.7670   -7.0810   46.3925 C   0  0  1  0  0  0  0  0  0  0  0  0
   -3.7755   -7.1880   45.3389 O   0  0  0  0  0  0  0  0  0  0  0  0
    0.3160   -6.2478   46.4322 C   0  0  2  0  0  0  0  0  0  0  0  0
   -0.0828   -4.9025   46.6239 O   0  0  0  0  0  0  0  0  0  0  0  0
    3.9213   -7.2353   43.8819 C   0  0  2  0  0  0  0  0  0  0  0  0
   -4.4764   -8.1388   47.5039 C   0  0  2  0  0  0  0  0  0  0  0  0
   -4.4473   -9.4458   46.9650 O   0  0  0  0  0  0  0  0  0  0  0  0
    1.8724   -6.3795   46.6421 C   0  0  2  0  0  0  0  0  0  0  0  0
    2.2876   -7.7832   46.4378 O   0  0  0  0  0  0  0  0  0  0  0  0
    4.7011   -8.3024   43.0636 C   0  0  2  0  0  0  0  0  0  0  0  0
    4.6350   -9.5535   43.8062 O   0  0  0  0  0  0  0  0  0  0  0  0
   -5.5580   -8.0270   48.6515 C   0  0  2  0  0  0  0  0  0  0  0  0
   -5.5838   -6.6521   49.2009 O   0  0  0  0  0  0  0  0  0  0  0  0
    2.2944   -5.9101   48.0336 C   0  0  0  0  0  0  0  0  0  0  0  0
    3.6528   -6.1875   48.2718 O   0  0  0  0  0  0  0  0  0  0  0  0
    6.1734   -7.8580   42.8995 C   0  0  1  0  0  0  0  0  0  0  0  0
    6.8570   -8.8399   42.1494 O   0  0  0  0  0  0  0  0  0  0  0  0
   -5.2901   -9.0109   49.7803 C   0  0  0  0  0  0  0  0  0  0  0  0
   -4.0427   -8.7472   50.3758 O   0  0  0  0  0  0  0  0  0  0  0  0
   -2.4347   -7.0436   45.8926 C   0  0  0  0  0  0  0  0  0  0  0  0
  1  2  1  6  0  0  0
  1  7  1  0  0  0  0
  1 24  1  0  0  0  0
  3  4  1  1  0  0  0
  3  9  1  0  0  0  0
  3 31  1  0  0  0  0
  5  6  1  6  0  0  0
  5 10  1  0  0  0  0
  5 28  1  0  0  0  0
  7  8  1  6  0  0  0
  7 12  1  0  0  0  0
  9 14  1  0  0  0  0
 10 11  1  6  0  0  0
 10 16  1  0  0  0  0
 12 13  1  1  0  0  0
 12 18  1  0  0  0  0
 13 35  1  0  0  0  0
 14 15  1  1  0  0  0
 14 20  1  0  0  0  0
 16 17  1  6  0  0  0
 16 21  1  0  0  0  0
 17 35  1  0  0  0  0
 18 19  1  6  0  0  0
 18 23  1  0  0  0  0
 20  2  1  6  0  0  0
 20 25  1  0  0  0  0
 21 22  1  6  0  0  0
 21 27  1  0  0  0  0
 23 24  1  0  0  0  0
 23 29  1  1  0  0  0
 25 26  1  1  0  0  0
 25 31  1  0  0  0  0
 27 28  1  0  0  0  0
 27 33  1  1  0  0  0
 29 30  1  0  0  0  0
 31 32  1  6  0  0  0
 33 34  1  0  0  0  0
M  END
>  <CHROM.1>
170.85293635,82.56704512,-168.12010336,65.00539731,-161.29124710,-146.93377858
172.55327815,61.42702040,0.05981096,-7.07983132,45.71734674,-0.20982513,-0.36192166
2.58247860

>  <Name>
2o3v_lig

>  <RI>
0

>  <Rbt.Current_Directory>
/home/afrankz/demos/rdock_decoys_rna/rnas/2o3v

>  <Rbt.Executable>
rbdock ($Id: //depot/dev/client3/rdock/2013.1/src/exe/rbdock.cxx#4 $)

>  <Rbt.Library>
libRbt.so (2013.1, Build901 2013/11/27)

>  <Rbt.Parameter_File>
/export/apps/rDock/src/rDock_2013.1_src/data/scripts/dock_solv.prm

>  <Rbt.Receptor>
prm/pocket_docking_3.prm

>  <SCORE>
-8.93828

>  <SCORE.INTER>
-7.97957

>  <SCORE.INTER.CONST>
1

>  <SCORE.INTER.POLAR>
0

>  <SCORE.INTER.ROT>
8

>  <SCORE.INTER.SOLV>
18.4228

>  <SCORE.INTER.VDW>
-20.394

>  <SCORE.INTER.norm>
-0.227988

>  <SCORE.INTRA>
-0.95871

>  <SCORE.INTRA.DIHEDRAL>
-3.67268

>  <SCORE.INTRA.DIHEDRAL.0>
13.1227

>  <SCORE.INTRA.POLAR>
0

>  <SCORE.INTRA.POLAR.0>
0

>  <SCORE.INTRA.REPUL>
0

>  <SCORE.INTRA.REPUL.0>
0

>  <SCORE.INTRA.SOLV>
0.898758

>  <SCORE.INTRA.SOLV.lig_0>
-89.1587

>  <SCORE.INTRA.VDW>
0.428254

>  <SCORE.INTRA.VDW.0>
-0.838383

>  <SCORE.INTRA.norm>
-0.0273917

>  <SCORE.RESTR>
0

>  <SCORE.RESTR.CAVITY>
0

>  <SCORE.RESTR.norm>
0

>  <SCORE.SYSTEM>
0

>  <SCORE.SYSTEM.CONST>
0

>  <SCORE.SYSTEM.DIHEDRAL>
0

>  <SCORE.SYSTEM.SOLV>
0

>  <SCORE.SYSTEM.norm>
0

>  <SCORE.heavy>
35

>  <SCORE.norm>
-0.255379

>  <RMSD>
2.263

$$$$
2o3v_lig
 OpenBabel02141814113D
libRbt.so/2013.1/901 2013/11/27
 35 37  0  0  0  0  0  0  0  0999 V2000
    2.5738   -8.9039   45.5632 C   0  0  2  0  0  0  0  0  0  0  0  0
    2.8443   -7.8812   44.5564 O   0  0  0  0  0  0  0  0  0  0  0  0
    6.1644   -6.5383   42.0863 C   0  0  2  0  0  0  0  0  0  0  0  0
    7.5110   -6.0301   41.6854 N   0  0  0  0  0  0  0  0  0  0  0  0
   -5.3903   -6.4894   46.8200 C   0  0  2  0  0  0  0  0  0  0  0  0
   -6.5434   -7.1992   46.3179 O   0  0  0  0  0  0  0  0  0  0  0  0
    1.0144   -8.9177   45.6440 C   0  0  2  0  0  0  0  0  0  0  0  0
    0.4123   -9.2328   44.3269 N   0  0  0  0  0  0  0  0  0  0  0  0
    5.4232   -5.4649   42.9939 C   0  0  0  0  0  0  0  0  0  0  0  0
   -4.2426   -6.6483   45.7637 C   0  0  2  0  0  0  0  0  0  0  0  0
   -4.6665   -6.1369   44.4356 N   0  0  0  0  0  0  0  0  0  0  0  0
    0.4450   -7.5314   46.1765 C   0  0  1  0  0  0  0  0  0  0  0  0
   -1.0407   -7.5499   46.2038 O   0  0  0  0  0  0  0  0  0  0  0  0
    3.9998   -6.0344   43.4158 C   0  0  2  0  0  0  0  0  0  0  0  0
    3.2971   -5.0545   44.2716 N   0  0  0  0  0  0  0  0  0  0  0  0
   -3.7607   -8.1612   45.6460 C   0  0  1  0  0  0  0  0  0  0  0  0
   -2.6752   -8.3322   44.6987 O   0  0  0  0  0  0  0  0  0  0  0  0
    1.1197   -7.2511   47.5906 C   0  0  2  0  0  0  0  0  0  0  0  0
    0.6886   -6.0169   48.1353 O   0  0  0  0  0  0  0  0  0  0  0  0
    4.1748   -7.4033   44.1934 C   0  0  2  0  0  0  0  0  0  0  0  0
   -3.3127   -8.6497   47.0600 C   0  0  2  0  0  0  0  0  0  0  0  0
   -2.8825   -9.9961   47.0186 O   0  0  0  0  0  0  0  0  0  0  0  0
    2.6908   -7.2611   47.4660 C   0  0  2  0  0  0  0  0  0  0  0  0
    3.1388   -8.5481   46.8938 O   0  0  0  0  0  0  0  0  0  0  0  0
    4.9059   -8.4451   43.3009 C   0  0  2  0  0  0  0  0  0  0  0  0
    5.0663   -9.6580   44.0910 O   0  0  0  0  0  0  0  0  0  0  0  0
   -4.4952   -8.4681   48.0934 C   0  0  2  0  0  0  0  0  0  0  0  0
   -4.9415   -7.0564   48.1205 O   0  0  0  0  0  0  0  0  0  0  0  0
    3.3642   -7.0310   48.8181 C   0  0  0  0  0  0  0  0  0  0  0  0
    2.9681   -8.0040   49.7537 O   0  0  0  0  0  0  0  0  0  0  0  0
    6.2898   -7.8936   42.8853 C   0  0  1  0  0  0  0  0  0  0  0  0
    6.9296   -8.8549   42.0723 O   0  0  0  0  0  0  0  0  0  0  0  0
   -4.0905   -8.8909   49.4974 C   0  0  0  0  0  0  0  0  0  0  0  0
   -5.1567   -8.6974   50.3950 O   0  0  0  0  0  0  0  0  0  0  0  0
   -1.6881   -7.2728   44.8672 C   0  0  0  0  0  0  0  0  0  0  0  0
  1  2  1  6  0  0  0
  1  7  1  0  0  0  0
  1 24  1  0  0  0  0
  3  4  1  1  0  0  0
  3  9  1  0  0  0  0
  3 31  1  0  0  0  0
  5  6  1  6  0  0  0
  5 10  1  0  0  0  0
  5 28  1  0  0  0  0
  7  8  1  6  0  0  0
  7 12  1  0  0  0  0
  9 14  1  0  0  0  0
 10 11  1  6  0  0  0
 10 16  1  0  0  0  0
 12 13  1  1  0  0  0
 12 18  1  0  0  0  0
 13 35  1  0  0  0  0
 14 15  1  1  0  0  0
 14 20  1  0  0  0  0
 16 17  1  6  0  0  0
 16 21  1  0  0  0  0
 17 35  1  0  0  0  0
 18 19  1  6  0  0  0
 18 23  1  0  0  0  0
 20  2  1  6  0  0  0
 20 25  1  0  0  0  0
 21 22  1  6  0  0  0
 21 27  1  0  0  0  0
 23 24  1  0  0  0  0
 23 29  1  1  0  0  0
 25 26  1  1  0  0  0
 25 31  1  0  0  0  0
 27 28  1  0  0  0  0
 27 33  1  1  0  0  0
 29 30  1  0  0  0  0
 31 32  1  6  0  0  0
 33 34  1  0  0  0  0
M  END
>  <CHROM.1>
174.53702820,-81.39366794,130.97446128,43.50350542,68.99146508,-163.27209245
57.83582648,179.08072434,0.53435081,-7.66727375,45.78506550,-0.37311115,-0.03241614
1.76477361

>  <Name>
2o3v_lig

>  <RI>
0

>  <Rbt.Current_Directory>
/home/afrankz/demos/rdock_decoys_rna/rnas/2o3v

>  <Rbt.Executable>
rbdock ($Id: //depot/dev/client3/rdock/2013.1/src/exe/rbdock.cxx#4 $)

>  <Rbt.Library>
libRbt.so (2013.1, Build901 2013/11/27)

>  <Rbt.Parameter_File>
/export/apps/rDock/src/rDock_2013.1_src/data/scripts/dock_solv.prm

>  <Rbt.Receptor>
prm/pocket_docking_2.prm

>  <SCORE>
-5.1235

>  <SCORE.INTER>
-6.39032

>  <SCORE.INTER.CONST>
1

>  <SCORE.INTER.POLAR>
0

>  <SCORE.INTER.ROT>
8

>  <SCORE.INTER.SOLV>
14.9917

>  <SCORE.INTER.VDW>
-18.1908

>  <SCORE.INTER.norm>
-0.182581

>  <SCORE.INTRA>
0.661758

>  <SCORE.INTRA.DIHEDRAL>
-1.3113

>  <SCORE.INTRA.DIHEDRAL.0>
13.1227

>  <SCORE.INTRA.POLAR>
0

>  <SCORE.INTRA.POLAR.0>
0

>  <SCORE.INTRA.REPUL>
0

>  <SCORE.INTRA.REPUL.0>
0

>  <SCORE.INTRA.SOLV>
1.6671

>  <SCORE.INTRA.SOLV.lig_0>
-89.1587

>  <SCORE.INTRA.VDW>
0.48386

>  <SCORE.INTRA.VDW.0>
-0.838383

>  <SCORE.INTRA.norm>
0.0189074

>  <SCORE.RESTR>
0.60506

>  <SCORE.RESTR.CAVITY>
0.60506

>  <SCORE.RESTR.norm>
0.0172874

>  <SCORE.SYSTEM>
0

>  <SCORE.SYSTEM.CONST>
0

>  <SCORE.SYSTEM.DIHEDRAL>
0

>  <SCORE.SYSTEM.SOLV>
0

>  <SCORE.SYSTEM.norm>
0

>  <SCORE.heavy>
35

>  <SCORE.norm>
-0.146386

>  <RMSD>
2.279

$$$$
2o3v_lig
 OpenBabel02141814113D
libRbt.so/2013.1/901 2013/11/27
 35 37  0  0  0  0  0  0  0  0999 V2000
    0.8669   -8.7839   45.6503 C   0  0  2  0  0  0  0  0  0  0  0  0
    1.3371   -8.3376   44.3417 O   0  0  0  0  0  0  0  0  0  0  0  0
    5.6384   -7.7074   44.5117 C   0  0  2  0  0  0  0  0  0  0  0  0
    7.0800   -7.6928   44.1196 N   0  0  0  0  0  0  0  0  0  0  0  0
   -6.3247  -10.4973   48.3533 C   0  0  2  0  0  0  0  0  0  0  0  0
   -5.5510  -10.4640   49.5722 O   0  0  0  0  0  0  0  0  0  0  0  0
   -0.6655   -8.4887   45.5958 C   0  0  2  0  0  0  0  0  0  0  0  0
   -1.3110   -9.2118   44.4747 N   0  0  0  0  0  0  0  0  0  0  0  0
    5.0975   -9.2012   44.5495 C   0  0  0  0  0  0  0  0  0  0  0  0
   -5.3677  -10.0988   47.1770 C   0  0  2  0  0  0  0  0  0  0  0  0
   -4.1980  -11.0111   47.1096 N   0  0  0  0  0  0  0  0  0  0  0  0
   -0.9557   -6.9302   45.4671 C   0  0  1  0  0  0  0  0  0  0  0  0
   -2.4164   -6.6743   45.3721 O   0  0  0  0  0  0  0  0  0  0  0  0
    3.5607   -9.1879   44.9574 C   0  0  2  0  0  0  0  0  0  0  0  0
    3.0340  -10.5692   44.9873 N   0  0  0  0  0  0  0  0  0  0  0  0
   -4.8841   -8.5871   47.3021 C   0  0  1  0  0  0  0  0  0  0  0  0
   -4.0229   -8.1810   46.2075 O   0  0  0  0  0  0  0  0  0  0  0  0
   -0.2461   -6.2105   46.6968 C   0  0  2  0  0  0  0  0  0  0  0  0
   -0.4305   -4.8070   46.6529 O   0  0  0  0  0  0  0  0  0  0  0  0
    2.7352   -8.3171   43.9232 C   0  0  2  0  0  0  0  0  0  0  0  0
   -6.1444   -7.6666   47.3552 C   0  0  2  0  0  0  0  0  0  0  0  0
   -5.7748   -6.3072   47.4776 O   0  0  0  0  0  0  0  0  0  0  0  0
    1.2932   -6.5473   46.7221 C   0  0  2  0  0  0  0  0  0  0  0  0
    1.4840   -8.0123   46.7640 O   0  0  0  0  0  0  0  0  0  0  0  0
    3.2746   -6.8597   43.8881 C   0  0  2  0  0  0  0  0  0  0  0  0
    2.4990   -6.1329   42.8925 O   0  0  0  0  0  0  0  0  0  0  0  0
   -7.0826   -8.1046   48.5499 C   0  0  2  0  0  0  0  0  0  0  0  0
   -7.4550   -9.5314   48.4142 O   0  0  0  0  0  0  0  0  0  0  0  0
    1.9920   -5.8980   47.9159 C   0  0  0  0  0  0  0  0  0  0  0  0
    3.3869   -6.0624   47.8376 O   0  0  0  0  0  0  0  0  0  0  0  0
    4.7705   -6.8683   43.4951 C   0  0  1  0  0  0  0  0  0  0  0  0
    5.2365   -5.5354   43.4760 O   0  0  0  0  0  0  0  0  0  0  0  0
   -8.3477   -7.2623   48.6148 C   0  0  0  0  0  0  0  0  0  0  0  0
   -9.1294   -7.4608   47.4618 O   0  0  0  0  0  0  0  0  0  0  0  0
   -3.1932   -7.0525   46.6114 C   0  0  0  0  0  0  0  0  0  0  0  0
  1  2  1  6  0  0  0
  1  7  1  0  0  0  0
  1 24  1  0  0  0  0
  3  4  1  6  0  0  0
  3  9  1  0  0  0  0
  3 31  1  0  0  0  0
  5  6  1  1  0  0  0
  5 10  1  0  0  0  0
  5 28  1  0  0  0  0
  7  8  1  6  0  0  0
  7 12  1  0  0  0  0
  9 14  1  0  0  0  0
 10 11  1  1  0  0  0
 10 16  1  0  0  0  0
 12 13  1  1  0  0  0
 12 18  1  0  0  0  0
 13 35  1  0  0  0  0
 14 15  1  6  0  0  0
 14 20  1  0  0  0  0
 16 17  1  6  0  0  0
 16 21  1  0  0  0  0
 17 35  1  0  0  0  0
 18 19  1  6  0  0  0
 18 23  1  0  0  0  0
 20  2  1  1  0  0  0
 20 25  1  0  0  0  0
 21 22  1  1  0  0  0
 21 27  1  0  0  0  0
 23 24  1  0  0  0  0
 23 29  1  1  0  0  0
 25 26  1  6  0  0  0
 25 31  1  0  0  0  0
 27 28  1  0  0  0  0
 27 33  1  6  0  0  0
 29 30  1  0  0  0  0
 31 32  1  1  0  0  0
 33 34  1  0  0  0  0
M  END
>  <CHROM.1>
175.61626704,64.85007092,-112.53553055,-156.91635653,-176.53961665,14.33532974
-172.54268142,64.06662350,-0.91188376,-7.85943768,46.14484565,-0.08964309
-0.30317360,-3.10574235

>  <Name>
2o3v_lig

>  <RI>
0

>  <Rbt.Current_Directory>
/home/afrankz/demos/rdock_decoys_rna/rnas/2o3v

>  <Rbt.Executable>
rbdock ($Id: //depot/dev/client3/rdock/2013.1/src/exe/rbdock.cxx#4 $)

>  <Rbt.Library>
libRbt.so (2013.1, Build901 2013/11/27)

>  <Rbt.Parameter_File>
/export/apps/rDock/src/rDock_2013.1_src/data/scripts/dock_solv.prm

>  <Rbt.Receptor>
prm/pocket_docking_2.prm

>  <SCORE>
2.81239

>  <SCORE.INTER>
1.34763

>  <SCORE.INTER.CONST>
1

>  <SCORE.INTER.POLAR>
-0.189614

>  <SCORE.INTER.ROT>
8

>  <SCORE.INTER.SOLV>
10.1969

>  <SCORE.INTER.VDW>
-10.8019

>  <SCORE.INTER.norm>
0.0385037

>  <SCORE.INTRA>
1.27331

>  <SCORE.INTRA.DIHEDRAL>
2.94182

>  <SCORE.INTRA.DIHEDRAL.0>
13.1227

>  <SCORE.INTRA.POLAR>
0

>  <SCORE.INTRA.POLAR.0>
0

>  <SCORE.INTRA.REPUL>
0

>  <SCORE.INTRA.REPUL.0>
0

>  <SCORE.INTRA.SOLV>
1.29518

>  <SCORE.INTRA.SOLV.lig_0>
-89.1587

>  <SCORE.INTRA.VDW>
-0.845188

>  <SCORE.INTRA.VDW.0>
-0.838383

>  <SCORE.INTRA.norm>
0.0363803

>  <SCORE.RESTR>
0.191448

>  <SCORE.RESTR.CAVITY>
0.191448

>  <SCORE.RESTR.norm>
0.00546994

>  <SCORE.SYSTEM>
0

>  <SCORE.SYSTEM.CONST>
0

>  <SCORE.SYSTEM.DIHEDRAL>
0

>  <SCORE.SYSTEM.SOLV>
0

>  <SCORE.SYSTEM.norm>
0

>  <SCORE.heavy>
35

>  <SCORE.norm>
0.0803539

>  <RMSD>
2.300

$$$$
2o3v_lig
 OpenBabel02141814113D
libRbt.so/2013.1/901 2013/11/27
 35 37  0  0  0  0  0  0  0  0999 V2000
    1.6223   -8.1372   44.9906 C   0  0  2  0  0  0  0  0  0  0  0  0
    2.2444   -7.1336   44.1311 O   0  0  0  0  0  0  0  0  0  0  0  0
    6.1506   -6.4455   42.3437 C   0  0  2  0  0  0  0  0  0  0  0  0
    7.6160   -6.1872   42.2086 N   0  0  0  0  0  0  0  0  0  0  0  0
   -6.6805   -7.1667   47.9223 C   0  0  2  0  0  0  0  0  0  0  0  0
   -7.5566   -7.5598   46.8437 O   0  0  0  0  0  0  0  0  0  0  0  0
    0.1782   -8.2561   44.4085 C   0  0  2  0  0  0  0  0  0  0  0  0
    0.2067   -8.6576   42.9822 N   0  0  0  0  0  0  0  0  0  0  0  0
    5.4507   -5.2380   43.1035 C   0  0  0  0  0  0  0  0  0  0  0  0
   -5.3919   -6.5461   47.2800 C   0  0  2  0  0  0  0  0  0  0  0  0
   -5.7339   -5.3968   46.4041 N   0  0  0  0  0  0  0  0  0  0  0  0
   -0.6292   -6.8950   44.5669 C   0  0  1  0  0  0  0  0  0  0  0  0
   -1.9837   -7.0154   43.9677 O   0  0  0  0  0  0  0  0  0  0  0  0
    3.8964   -5.5429   43.2442 C   0  0  2  0  0  0  0  0  0  0  0  0
    3.2272   -4.4353   43.9597 N   0  0  0  0  0  0  0  0  0  0  0  0
   -4.5611   -7.6337   46.4665 C   0  0  1  0  0  0  0  0  0  0  0  0
   -3.3448   -7.0939   45.8886 O   0  0  0  0  0  0  0  0  0  0  0  0
   -0.6314   -6.5198   46.1138 C   0  0  2  0  0  0  0  0  0  0  0  0
   -1.3115   -5.3003   46.3506 O   0  0  0  0  0  0  0  0  0  0  0  0
    3.6817   -6.9015   44.0299 C   0  0  2  0  0  0  0  0  0  0  0  0
   -4.2131   -8.8130   47.4292 C   0  0  2  0  0  0  0  0  0  0  0  0
   -3.4813   -9.8183   46.7559 O   0  0  0  0  0  0  0  0  0  0  0  0
    0.8429   -6.4253   46.6626 C   0  0  2  0  0  0  0  0  0  0  0  0
    1.5526   -7.6972   46.4113 O   0  0  0  0  0  0  0  0  0  0  0  0
    4.3746   -8.0758   43.2834 C   0  0  2  0  0  0  0  0  0  0  0  0
    4.1706   -9.2779   44.0798 O   0  0  0  0  0  0  0  0  0  0  0  0
   -5.5373   -9.4057   48.0573 C   0  0  2  0  0  0  0  0  0  0  0  0
   -6.2976   -8.3414   48.7516 O   0  0  0  0  0  0  0  0  0  0  0  0
    0.8682   -6.1026   48.1559 C   0  0  0  0  0  0  0  0  0  0  0  0
    2.1855   -5.9108   48.6108 O   0  0  0  0  0  0  0  0  0  0  0  0
    5.8863   -7.7816   43.1411 C   0  0  1  0  0  0  0  0  0  0  0  0
    6.4900   -8.8588   42.4561 O   0  0  0  0  0  0  0  0  0  0  0  0
   -5.2447  -10.5312   49.0379 C   0  0  0  0  0  0  0  0  0  0  0  0
   -4.8924  -10.0076   50.2956 O   0  0  0  0  0  0  0  0  0  0  0  0
   -2.9292   -7.8993   44.7468 C   0  0  0  0  0  0  0  0  0  0  0  0
  1  2  1  6  0  0  0
  1  7  1  0  0  0  0
  1 24  1  0  0  0  0
  3  4  1  1  0  0  0
  3  9  1  0  0  0  0
  3 31  1  0  0  0  0
  5  6  1  6  0  0  0
  5 10  1  0  0  0  0
  5 28  1  0  0  0  0
  7  8  1  6  0  0  0
  7 12  1  0  0  0  0
  9 14  1  0  0  0  0
 10 11  1  6  0  0  0
 10 16  1  0  0  0  0
 12 13  1  1  0  0  0
 12 18  1  0  0  0  0
 13 35  1  0  0  0  0
 14 15  1  1  0  0  0
 14 20  1  0  0  0  0
 16 17  1  1  0  0  0
 16 21  1  0  0  0  0
 17 35  1  0  0  0  0
 18 19  1  6  0  0  0
 18 23  1  0  0  0  0
 20  2  1  6  0  0  0
 20 25  1  0  0  0  0
 21 22  1  6  0  0  0
 21 27  1  0  0  0  0
 23 24  1  0  0  0  0
 23 29  1  1  0  0  0
 25 26  1  1  0  0  0
 25 31  1  0  0  0  0
 27 28  1  0  0  0  0
 27 33  1  1  0  0  0
 29 30  1  0  0  0  0
 31 32  1  6  0  0  0
 33 34  1  0  0  0  0
M  END
>  <CHROM.1>
-163.57048017,71.09529374,76.41605553,-156.35585814,161.25940130,-167.94688522
-175.09106167,81.79609338,-0.32102384,-7.42197650,45.61168474,-0.23786273
-0.33701960,2.77743762

>  <Name>
2o3v_lig

>  <RI>
0

>  <Rbt.Current_Directory>
/home/afrankz/demos/rdock_decoys_rna/rnas/2o3v

>  <Rbt.Executable>
rbdock ($Id: //depot/dev/client3/rdock/2013.1/src/exe/rbdock.cxx#4 $)

>  <Rbt.Library>
libRbt.so (2013.1, Build901 2013/11/27)

>  <Rbt.Parameter_File>
/export/apps/rDock/src/rDock_2013.1_src/data/scripts/dock_solv.prm

>  <Rbt.Receptor>
prm/pocket_docking_2.prm

>  <SCORE>
-8.39157

>  <SCORE.INTER>
-5.54964

>  <SCORE.INTER.CONST>
1

>  <SCORE.INTER.POLAR>
0

>  <SCORE.INTER.ROT>
8

>  <SCORE.INTER.SOLV>
18.0518

>  <SCORE.INTER.VDW>
-18.6504

>  <SCORE.INTER.norm>
-0.158561

>  <SCORE.INTRA>
-2.85339

>  <SCORE.INTRA.DIHEDRAL>
-3.63675

>  <SCORE.INTRA.DIHEDRAL.0>
13.1227

>  <SCORE.INTRA.POLAR>
0

>  <SCORE.INTRA.POLAR.0>
0

>  <SCORE.INTRA.REPUL>
0

>  <SCORE.INTRA.REPUL.0>
0

>  <SCORE.INTRA.SOLV>
-0.205041

>  <SCORE.INTRA.SOLV.lig_0>
-89.1587

>  <SCORE.INTRA.VDW>
-0.932498

>  <SCORE.INTRA.VDW.0>
-0.838383

>  <SCORE.INTRA.norm>
-0.0815255

>  <SCORE.RESTR>
0.0114611

>  <SCORE.RESTR.CAVITY>
0.0114611

>  <SCORE.RESTR.norm>
0.00032746

>  <SCORE.SYSTEM>
0

>  <SCORE.SYSTEM.CONST>
0

>  <SCORE.SYSTEM.DIHEDRAL>
0

>  <SCORE.SYSTEM.SOLV>
0

>  <SCORE.SYSTEM.norm>
0

>  <SCORE.heavy>
35

>  <SCORE.norm>
-0.239759

>  <RMSD>
2.307

$$$$
2o3v_lig
 OpenBabel02141814113D
libRbt.so/2013.1/901 2013/11/27
 35 37  0  0  0  0  0  0  0  0999 V2000
    2.5629   -7.6994   45.6299 C   0  0  2  0  0  0  0  0  0  0  0  0
    2.7757   -7.8945   44.1984 O   0  0  0  0  0  0  0  0  0  0  0  0
    6.7307   -6.2412   43.4551 C   0  0  2  0  0  0  0  0  0  0  0  0
    7.9805   -5.8347   42.7447 N   0  0  0  0  0  0  0  0  0  0  0  0
   -6.1961   -8.4393   49.1104 C   0  0  2  0  0  0  0  0  0  0  0  0
   -5.4400   -8.2039   50.3180 O   0  0  0  0  0  0  0  0  0  0  0  0
    1.1512   -8.3233   45.8666 C   0  0  2  0  0  0  0  0  0  0  0  0
    1.1229   -9.7509   45.4697 N   0  0  0  0  0  0  0  0  0  0  0  0
    6.5533   -7.8190   43.3893 C   0  0  0  0  0  0  0  0  0  0  0  0
   -5.2230   -9.0841   48.0637 C   0  0  2  0  0  0  0  0  0  0  0  0
   -4.6277  -10.3378   48.5916 N   0  0  0  0  0  0  0  0  0  0  0  0
    0.0212   -7.5255   45.0816 C   0  0  1  0  0  0  0  0  0  0  0  0
   -1.3068   -8.1609   45.2840 O   0  0  0  0  0  0  0  0  0  0  0  0
    5.2119   -8.2235   44.1414 C   0  0  2  0  0  0  0  0  0  0  0  0
    5.0216   -9.6887   44.0818 N   0  0  0  0  0  0  0  0  0  0  0  0
   -4.0773   -8.0688   47.6263 C   0  0  1  0  0  0  0  0  0  0  0  0
   -3.1809   -8.6285   46.6323 O   0  0  0  0  0  0  0  0  0  0  0  0
    0.0960   -6.0068   45.5524 C   0  0  2  0  0  0  0  0  0  0  0  0
   -0.8641   -5.2088   44.8837 O   0  0  0  0  0  0  0  0  0  0  0  0
    3.9765   -7.4906   43.4737 C   0  0  2  0  0  0  0  0  0  0  0  0
   -4.7491   -6.7751   47.0664 C   0  0  2  0  0  0  0  0  0  0  0  0
   -3.7758   -5.8288   46.6703 O   0  0  0  0  0  0  0  0  0  0  0  0
    1.5395   -5.4226   45.3099 C   0  0  2  0  0  0  0  0  0  0  0  0
    2.5406   -6.2587   46.0051 O   0  0  0  0  0  0  0  0  0  0  0  0
    4.1611   -5.9484   43.5369 C   0  0  2  0  0  0  0  0  0  0  0  0
    3.0138   -5.3456   42.8726 O   0  0  0  0  0  0  0  0  0  0  0  0
   -5.7235   -6.1609   48.1493 C   0  0  2  0  0  0  0  0  0  0  0  0
   -6.7317   -7.1643   48.5611 O   0  0  0  0  0  0  0  0  0  0  0  0
    1.6489   -3.9756   45.7882 C   0  0  0  0  0  0  0  0  0  0  0  0
    1.5334   -3.8943   47.1878 O   0  0  0  0  0  0  0  0  0  0  0  0
    5.4668   -5.5508   42.8094 C   0  0  1  0  0  0  0  0  0  0  0  0
    5.6134   -4.1484   42.8860 O   0  0  0  0  0  0  0  0  0  0  0  0
   -6.4359   -4.9205   47.6318 C   0  0  0  0  0  0  0  0  0  0  0  0
   -7.3810   -4.4691   48.5715 O   0  0  0  0  0  0  0  0  0  0  0  0
   -1.9051   -7.9234   46.6507 C   0  0  0  0  0  0  0  0  0  0  0  0
  1  2  1  6  0  0  0
  1  7  1  0  0  0  0
  1 24  1  0  0  0  0
  3  4  1  6  0  0  0
  3  9  1  0  0  0  0
  3 31  1  0  0  0  0
  5  6  1  1  0  0  0
  5 10  1  0  0  0  0
  5 28  1  0  0  0  0
  7  8  1  6  0  0  0
  7 12  1  0  0  0  0
  9 14  1  0  0  0  0
 10 11  1  1  0  0  0
 10 16  1  0  0  0  0
 12 13  1  1  0  0  0
 12 18  1  0  0  0  0
 13 35  1  0  0  0  0
 14 15  1  6  0  0  0
 14 20  1  0  0  0  0
 16 17  1  6  0  0  0
 16 21  1  0  0  0  0
 17 35  1  0  0  0  0
 18 19  1  6  0  0  0
 18 23  1  0  0  0  0
 20  2  1  1  0  0  0
 20 25  1  0  0  0  0
 21 22  1  1  0  0  0
 21 27  1  0  0  0  0
 23 24  1  0  0  0  0
 23 29  1  1  0  0  0
 25 26  1  6  0  0  0
 25 31  1  0  0  0  0
 27 28  1  0  0  0  0
 27 33  1  6  0  0  0
 29 30  1  0  0  0  0
 31 32  1  1  0  0  0
 33 34  1  0  0  0  0
M  END
>  <CHROM.1>
-179.22505691,74.28965724,-179.75483357,-157.78344509,-157.21784653,58.33228629
66.94539579,174.74458870,-0.03153191,-6.88843361,45.83024217,-0.10382550
-0.39855338,3.03195529

>  <Name>
2o3v_lig

>  <RI>
0

>  <Rbt.Current_Directory>
/home/afrankz/demos/rdock_decoys_rna/rnas/2o3v

>  <Rbt.Executable>
rbdock ($Id: //depot/dev/client3/rdock/2013.1/src/exe/rbdock.cxx#4 $)

>  <Rbt.Library>
libRbt.so (2013.1, Build901 2013/11/27)

>  <Rbt.Parameter_File>
/export/apps/rDock/src/rDock_2013.1_src/data/scripts/dock_solv.prm

>  <Rbt.Receptor>
prm/pocket_docking_3.prm

>  <SCORE>
-9.15164

>  <SCORE.INTER>
-4.51161

>  <SCORE.INTER.CONST>
1

>  <SCORE.INTER.POLAR>
-0.371125

>  <SCORE.INTER.ROT>
8

>  <SCORE.INTER.SOLV>
15.1351

>  <SCORE.INTER.VDW>
-15.749

>  <SCORE.INTER.norm>
-0.128903

>  <SCORE.INTRA>
-4.64883

>  <SCORE.INTRA.DIHEDRAL>
-7.38064

>  <SCORE.INTRA.DIHEDRAL.0>
13.1227

>  <SCORE.INTRA.POLAR>
0

>  <SCORE.INTRA.POLAR.0>
0

>  <SCORE.INTRA.REPUL>
0

>  <SCORE.INTRA.REPUL.0>
0

>  <SCORE.INTRA.SOLV>
0.409708

>  <SCORE.INTRA.SOLV.lig_0>
-89.1587

>  <SCORE.INTRA.VDW>
-1.16337

>  <SCORE.INTRA.VDW.0>
-0.838383

>  <SCORE.INTRA.norm>
-0.132824

>  <SCORE.RESTR>
0.00880527

>  <SCORE.RESTR.CAVITY>
0.00880527

>  <SCORE.RESTR.norm>
0.000251579

>  <SCORE.SYSTEM>
0

>  <SCORE.SYSTEM.CONST>
0

>  <SCORE.SYSTEM.DIHEDRAL>
0

>  <SCORE.SYSTEM.SOLV>
0

>  <SCORE.SYSTEM.norm>
0

>  <SCORE.heavy>
35

>  <SCORE.norm>
-0.261475

>  <RMSD>
2.328

$$$$
2o3v_lig
 OpenBabel02141814113D
libRbt.so/2013.1/901 2013/11/27
 35 37  0  0  0  0  0  0  0  0999 V2000
    0.8778   -9.0316   45.4914 C   0  0  2  0  0  0  0  0  0  0  0  0
    1.4377   -8.2250   44.4104 O   0  0  0  0  0  0  0  0  0  0  0  0
    5.7776   -7.9202   44.3965 C   0  0  2  0  0  0  0  0  0  0  0  0
    7.1985   -8.0175   43.9453 N   0  0  0  0  0  0  0  0  0  0  0  0
   -5.5050  -10.4557   49.1373 C   0  0  2  0  0  0  0  0  0  0  0  0
   -5.1706  -10.1119   50.4995 O   0  0  0  0  0  0  0  0  0  0  0  0
   -0.6615   -8.9294   45.2490 C   0  0  2  0  0  0  0  0  0  0  0  0
   -1.0269   -9.4350   43.9047 N   0  0  0  0  0  0  0  0  0  0  0  0
    5.1280   -9.3685   44.4727 C   0  0  0  0  0  0  0  0  0  0  0  0
   -4.3711   -9.8865   48.2161 C   0  0  2  0  0  0  0  0  0  0  0  0
   -3.0447  -10.4264   48.6086 N   0  0  0  0  0  0  0  0  0  0  0  0
   -1.1817   -7.4363   45.4205 C   0  0  1  0  0  0  0  0  0  0  0  0
   -2.6392   -7.3531   45.1425 O   0  0  0  0  0  0  0  0  0  0  0  0
    3.6149   -9.2360   44.9433 C   0  0  2  0  0  0  0  0  0  0  0  0
    2.9876  -10.5733   45.0098 N   0  0  0  0  0  0  0  0  0  0  0  0
   -4.3475   -8.2947   48.2322 C   0  0  1  0  0  0  0  0  0  0  0  0
   -3.3283   -7.7397   47.3616 O   0  0  0  0  0  0  0  0  0  0  0  0
   -0.7675   -6.9523   46.8792 C   0  0  2  0  0  0  0  0  0  0  0  0
   -1.1703   -5.6152   47.1157 O   0  0  0  0  0  0  0  0  0  0  0  0
    2.8147   -8.3133   43.9346 C   0  0  2  0  0  0  0  0  0  0  0  0
   -5.7550   -7.7740   47.8005 C   0  0  2  0  0  0  0  0  0  0  0  0
   -5.7967   -6.3606   47.8067 O   0  0  0  0  0  0  0  0  0  0  0  0
    0.7892   -7.0864   47.0856 C   0  0  2  0  0  0  0  0  0  0  0  0
    1.2085   -8.4812   46.8346 O   0  0  0  0  0  0  0  0  0  0  0  0
    3.4602   -6.9011   43.8615 C   0  0  2  0  0  0  0  0  0  0  0  0
    2.7004   -6.1255   42.8909 O   0  0  0  0  0  0  0  0  0  0  0  0
   -6.8671   -8.3742   48.7503 C   0  0  2  0  0  0  0  0  0  0  0  0
   -6.8068   -9.8537   48.7410 O   0  0  0  0  0  0  0  0  0  0  0  0
    1.2091   -6.6627   48.4924 C   0  0  0  0  0  0  0  0  0  0  0  0
    1.0188   -5.2822   48.6840 O   0  0  0  0  0  0  0  0  0  0  0  0
    4.9334   -7.0257   43.4075 C   0  0  1  0  0  0  0  0  0  0  0  0
    5.4971   -5.7320   43.3548 O   0  0  0  0  0  0  0  0  0  0  0  0
   -8.2627   -7.9287   48.3406 C   0  0  0  0  0  0  0  0  0  0  0  0
   -8.4044   -6.5391   48.5108 O   0  0  0  0  0  0  0  0  0  0  0  0
   -3.4872   -8.2558   46.0075 C   0  0  0  0  0  0  0  0  0  0  0  0
  1  2  1  6  0  0  0
  1  7  1  0  0  0  0
  1 24  1  0  0  0  0
  3  4  1  6  0  0  0
  3  9  1  0  0  0  0
  3 31  1  0  0  0  0
  5  6  1  1  0  0  0
  5 10  1  0  0  0  0
  5 28  1  0  0  0  0
  7  8  1  6  0  0  0
  7 12  1  0  0  0  0
  9 14  1  0  0  0  0
 10 11  1  1  0  0  0
 10 16  1  0  0  0  0
 12 13  1  1  0  0  0
 12 18  1  0  0  0  0
 13 35  1  0  0  0  0
 14 15  1  6  0  0  0
 14 20  1  0  0  0  0
 16 17  1  6  0  0  0
 16 21  1  0  0  0  0
 17 35  1  0  0  0  0
 18 19  1  6  0  0  0
 18 23  1  0  0  0  0
 20  2  1  1  0  0  0
 20 25  1  0  0  0  0
 21 22  1  1  0  0  0
 21 27  1  0  0  0  0
 23 24  1  0  0  0  0
 23 29  1  1  0  0  0
 25 26  1  6  0  0  0
 25 31  1  0  0  0  0
 27 28  1  0  0  0  0
 27 33  1  6  0  0  0
 29 30  1  0  0  0  0
 31 32  1  1  0  0  0
 33 34  1  0  0  0  0
M  END
>  <CHROM.1>
-160.39176345,57.34952096,65.37559863,54.81659289,165.37642700,-9.27891063
-67.48678857,-65.44802470,-0.85524734,-8.00641855,46.39480843,-0.11895807
-0.37527059,2.99272031

>  <Name>
2o3v_lig

>  <RI>
0

>  <Rbt.Current_Directory>
/home/afrankz/demos/rdock_decoys_rna/rnas/2o3v

>  <Rbt.Executable>
rbdock ($Id: //depot/dev/client3/rdock/2013.1/src/exe/rbdock.cxx#4 $)

>  <Rbt.Library>
libRbt.so (2013.1, Build901 2013/11/27)

>  <Rbt.Parameter_File>
/export/apps/rDock/src/rDock_2013.1_src/data/scripts/dock_solv.prm

>  <Rbt.Receptor>
prm/pocket_docking_2.prm

>  <SCORE>
2.02896

>  <SCORE.INTER>
-0.898874

>  <SCORE.INTER.CONST>
1

>  <SCORE.INTER.POLAR>
-0.135359

>  <SCORE.INTER.ROT>
8

>  <SCORE.INTER.SOLV>
13.5673

>  <SCORE.INTER.VDW>
-13.6038

>  <SCORE.INTER.norm>
-0.0256821

>  <SCORE.INTRA>
2.14434

>  <SCORE.INTRA.DIHEDRAL>
-2.95335

>  <SCORE.INTRA.DIHEDRAL.0>
13.1227

>  <SCORE.INTRA.POLAR>
0

>  <SCORE.INTRA.POLAR.0>
0

>  <SCORE.INTRA.REPUL>
0

>  <SCORE.INTRA.REPUL.0>
0

>  <SCORE.INTRA.SOLV>
2.22688

>  <SCORE.INTRA.SOLV.lig_0>
-89.1587

>  <SCORE.INTRA.VDW>
2.50757

>  <SCORE.INTRA.VDW.0>
-0.838383

>  <SCORE.INTRA.norm>
0.0612669

>  <SCORE.RESTR>
0.783496

>  <SCORE.RESTR.CAVITY>
0.783496

>  <SCORE.RESTR.norm>
0.0223856

>  <SCORE.SYSTEM>
0

>  <SCORE.SYSTEM.CONST>
0

>  <SCORE.SYSTEM.DIHEDRAL>
0

>  <SCORE.SYSTEM.SOLV>
0

>  <SCORE.SYSTEM.norm>
0

>  <SCORE.heavy>
35

>  <SCORE.norm>
0.0579704

>  <RMSD>
2.370

$$$$
2o3v_lig
 OpenBabel02141814113D
libRbt.so/2013.1/901 2013/11/27
 35 37  0  0  0  0  0  0  0  0999 V2000
    2.0642   -9.1676   45.6587 C   0  0  2  0  0  0  0  0  0  0  0  0
    2.4035   -7.9673   44.8991 O   0  0  0  0  0  0  0  0  0  0  0  0
    5.7811   -6.5996   42.5223 C   0  0  2  0  0  0  0  0  0  0  0  0
    7.1573   -6.1521   42.1508 N   0  0  0  0  0  0  0  0  0  0  0  0
   -5.4499   -5.7259   47.6826 C   0  0  2  0  0  0  0  0  0  0  0  0
   -6.7721   -5.9869   47.1638 O   0  0  0  0  0  0  0  0  0  0  0  0
    0.5027   -9.1658   45.6450 C   0  0  2  0  0  0  0  0  0  0  0  0
   -0.0210   -9.1945   44.2590 N   0  0  0  0  0  0  0  0  0  0  0  0
    5.1408   -5.5876   43.5670 C   0  0  0  0  0  0  0  0  0  0  0  0
   -4.4364   -5.9023   46.4994 C   0  0  2  0  0  0  0  0  0  0  0  0
   -4.7719   -4.9970   45.3713 N   0  0  0  0  0  0  0  0  0  0  0  0
   -0.0866   -7.9054   46.4155 C   0  0  1  0  0  0  0  0  0  0  0  0
   -1.5713   -7.8989   46.3529 O   0  0  0  0  0  0  0  0  0  0  0  0
    3.6835   -6.0924   43.9541 C   0  0  2  0  0  0  0  0  0  0  0  0
    3.0735   -5.1698   44.9355 N   0  0  0  0  0  0  0  0  0  0  0  0
   -4.3782   -7.4125   45.9986 C   0  0  1  0  0  0  0  0  0  0  0  0
   -3.4227   -7.6112   44.9252 O   0  0  0  0  0  0  0  0  0  0  0  0
    0.5036   -7.9321   47.8936 C   0  0  2  0  0  0  0  0  0  0  0  0
    0.0503   -6.8258   48.6529 O   0  0  0  0  0  0  0  0  0  0  0  0
    3.7618   -7.5531   44.5620 C   0  0  2  0  0  0  0  0  0  0  0  0
   -4.0094   -8.3230   47.2125 C   0  0  2  0  0  0  0  0  0  0  0  0
   -3.9534   -9.6826   46.8281 O   0  0  0  0  0  0  0  0  0  0  0  0
    2.0792   -7.9484   47.8602 C   0  0  2  0  0  0  0  0  0  0  0  0
    2.5506   -9.1011   47.0643 O   0  0  0  0  0  0  0  0  0  0  0  0
    4.3948   -8.5348   43.5363 C   0  0  2  0  0  0  0  0  0  0  0  0
    4.4711   -9.8414   44.1750 O   0  0  0  0  0  0  0  0  0  0  0  0
   -5.0516   -8.1112   48.3823 C   0  0  2  0  0  0  0  0  0  0  0  0
   -5.1064   -6.6828   48.7691 O   0  0  0  0  0  0  0  0  0  0  0  0
    2.6714   -8.0117   49.2674 C   0  0  0  0  0  0  0  0  0  0  0  0
    4.0737   -7.9058   49.2323 O   0  0  0  0  0  0  0  0  0  0  0  0
    5.8114   -8.0456   43.1542 C   0  0  1  0  0  0  0  0  0  0  0  0
    6.3608   -8.9499   42.2191 O   0  0  0  0  0  0  0  0  0  0  0  0
   -4.7075   -8.9471   49.6058 C   0  0  0  0  0  0  0  0  0  0  0  0
   -3.4203   -8.6252   50.0742 O   0  0  0  0  0  0  0  0  0  0  0  0
   -2.1416   -7.0091   45.2734 C   0  0  0  0  0  0  0  0  0  0  0  0
  1  2  1  6  0  0  0
  1  7  1  0  0  0  0
  1 24  1  0  0  0  0
  3  4  1  1  0  0  0
  3  9  1  0  0  0  0
  3 31  1  0  0  0  0
  5  6  1  6  0  0  0
  5 10  1  0  0  0  0
  5 28  1  0  0  0  0
  7  8  1  6  0  0  0
  7 12  1  0  0  0  0
  9 14  1  0  0  0  0
 10 11  1  6  0  0  0
 10 16  1  0  0  0  0
 12 13  1  1  0  0  0
 12 18  1  0  0  0  0
 13 35  1  0  0  0  0
 14 15  1  1  0  0  0
 14 20  1  0  0  0  0
 16 17  1  6  0  0  0
 16 21  1  0  0  0  0
 17 35  1  0  0  0  0
 18 19  1  1  0  0  0
 18 23  1  0  0  0  0
 20  2  1  6  0  0  0
 20 25  1  0  0  0  0
 21 22  1  6  0  0  0
 21 27  1  0  0  0  0
 23 24  1  0  0  0  0
 23 29  1  1  0  0  0
 25 26  1  1  0  0  0
 25 31  1  0  0  0  0
 27 28  1  0  0  0  0
 27 33  1  1  0  0  0
 29 30  1  0  0  0  0
 31 32  1  6  0  0  0
 33 34  1  0  0  0  0
M  END
>  <CHROM.1>
-176.57184248,-97.79379486,152.30772736,48.93854852,71.41679986,-170.69451008
-174.74981778,58.37740840,0.17542123,-7.63851610,46.08893787,-0.32824202
-0.16513450,1.93501273

>  <Name>
2o3v_lig

>  <RI>
0

>  <Rbt.Current_Directory>
/home/afrankz/demos/rdock_decoys_rna/rnas/2o3v

>  <Rbt.Executable>
rbdock ($Id: //depot/dev/client3/rdock/2013.1/src/exe/rbdock.cxx#4 $)

>  <Rbt.Library>
libRbt.so (2013.1, Build901 2013/11/27)

>  <Rbt.Parameter_File>
/export/apps/rDock/src/rDock_2013.1_src/data/scripts/dock_solv.prm

>  <Rbt.Receptor>
prm/pocket_docking_3.prm

>  <SCORE>
-7.9271

>  <SCORE.INTER>
-7.00768

>  <SCORE.INTER.CONST>
1

>  <SCORE.INTER.POLAR>
0

>  <SCORE.INTER.ROT>
8

>  <SCORE.INTER.SOLV>
13.9102

>  <SCORE.INTER.VDW>
-18.2419

>  <SCORE.INTER.norm>
-0.200219

>  <SCORE.INTRA>
-0.919423

>  <SCORE.INTRA.DIHEDRAL>
-3.08716

>  <SCORE.INTRA.DIHEDRAL.0>
13.1227

>  <SCORE.INTRA.POLAR>
0

>  <SCORE.INTRA.POLAR.0>
0

>  <SCORE.INTRA.REPUL>
0

>  <SCORE.INTRA.REPUL.0>
0

>  <SCORE.INTRA.SOLV>
0.660617

>  <SCORE.INTRA.SOLV.lig_0>
-89.1587

>  <SCORE.INTRA.VDW>
0.293851

>  <SCORE.INTRA.VDW.0>
-0.838383

>  <SCORE.INTRA.norm>
-0.0262692

>  <SCORE.RESTR>
0

>  <SCORE.RESTR.CAVITY>
0

>  <SCORE.RESTR.norm>
0

>  <SCORE.SYSTEM>
0

>  <SCORE.SYSTEM.CONST>
0

>  <SCORE.SYSTEM.DIHEDRAL>
0

>  <SCORE.SYSTEM.SOLV>
0

>  <SCORE.SYSTEM.norm>
0

>  <SCORE.heavy>
35

>  <SCORE.norm>
-0.226489

>  <RMSD>
2.406

$$$$
2o3v_lig
 OpenBabel02141814113D
libRbt.so/2013.1/901 2013/11/27
 35 37  0  0  0  0  0  0  0  0999 V2000
    2.0546   -7.6923   45.7372 C   0  0  2  0  0  0  0  0  0  0  0  0
    2.2666   -7.7936   44.2958 O   0  0  0  0  0  0  0  0  0  0  0  0
    6.2063   -6.0628   43.6546 C   0  0  2  0  0  0  0  0  0  0  0  0
    7.4600   -5.6195   42.9736 N   0  0  0  0  0  0  0  0  0  0  0  0
   -4.9026   -8.8545   50.2916 C   0  0  2  0  0  0  0  0  0  0  0  0
   -4.3799   -7.6603   50.9130 O   0  0  0  0  0  0  0  0  0  0  0  0
    0.5831   -8.1840   45.9142 C   0  0  2  0  0  0  0  0  0  0  0  0
    0.4143   -9.5648   45.4030 N   0  0  0  0  0  0  0  0  0  0  0  0
    6.0540   -7.6409   43.5458 C   0  0  0  0  0  0  0  0  0  0  0  0
   -4.1288   -9.0612   48.9436 C   0  0  2  0  0  0  0  0  0  0  0  0
   -2.6660   -9.1601   49.1789 N   0  0  0  0  0  0  0  0  0  0  0  0
   -0.4479   -7.2137   45.1896 C   0  0  1  0  0  0  0  0  0  0  0  0
   -1.8368   -7.7227   45.3320 O   0  0  0  0  0  0  0  0  0  0  0  0
    4.7081   -8.0846   44.2671 C   0  0  2  0  0  0  0  0  0  0  0  0
    4.5411   -9.5504   44.1672 N   0  0  0  0  0  0  0  0  0  0  0  0
   -4.4446   -7.8983   47.9030 C   0  0  1  0  0  0  0  0  0  0  0  0
   -3.7671   -8.0822   46.6334 O   0  0  0  0  0  0  0  0  0  0  0  0
   -0.2246   -5.7533   45.7820 C   0  0  2  0  0  0  0  0  0  0  0  0
   -1.0883   -4.8096   45.1743 O   0  0  0  0  0  0  0  0  0  0  0  0
    3.4716   -7.3532   43.5998 C   0  0  2  0  0  0  0  0  0  0  0  0
   -5.9887   -7.8417   47.6771 C   0  0  2  0  0  0  0  0  0  0  0  0
   -6.3306   -6.8157   46.7660 O   0  0  0  0  0  0  0  0  0  0  0  0
    1.2744   -5.3038   45.5961 C   0  0  2  0  0  0  0  0  0  0  0  0
    2.1746   -6.2916   46.2274 O   0  0  0  0  0  0  0  0  0  0  0  0
    3.6316   -5.8106   43.7052 C   0  0  2  0  0  0  0  0  0  0  0  0
    2.4850   -5.2081   43.0394 O   0  0  0  0  0  0  0  0  0  0  0  0
   -6.7292   -7.6373   49.0588 C   0  0  2  0  0  0  0  0  0  0  0  0
   -6.3560   -8.7129   50.0057 O   0  0  0  0  0  0  0  0  0  0  0  0
    1.5247   -3.9186   46.1905 C   0  0  0  0  0  0  0  0  0  0  0  0
    1.3666   -3.9307   47.5882 O   0  0  0  0  0  0  0  0  0  0  0  0
    4.9416   -5.3750   43.0078 C   0  0  1  0  0  0  0  0  0  0  0  0
    5.0655   -3.9730   43.1225 O   0  0  0  0  0  0  0  0  0  0  0  0
   -8.2413   -7.6196   48.8939 C   0  0  0  0  0  0  0  0  0  0  0  0
   -8.8637   -7.2775   50.1087 O   0  0  0  0  0  0  0  0  0  0  0  0
   -2.3708   -7.6783   46.7446 C   0  0  0  0  0  0  0  0  0  0  0  0
  1  2  1  6  0  0  0
  1  7  1  0  0  0  0
  1 24  1  0  0  0  0
  3  4  1  6  0  0  0
  3  9  1  0  0  0  0
  3 31  1  0  0  0  0
  5  6  1  6  0  0  0
  5 10  1  0  0  0  0
  5 28  1  0  0  0  0
  7  8  1  6  0  0  0
  7 12  1  0  0  0  0
  9 14  1  0  0  0  0
 10 11  1  1  0  0  0
 10 16  1  0  0  0  0
 12 13  1  1  0  0  0
 12 18  1  0  0  0  0
 13 35  1  0  0  0  0
 14 15  1  6  0  0  0
 14 20  1  0  0  0  0
 16 17  1  6  0  0  0
 16 21  1  0  0  0  0
 17 35  1  0  0  0  0
 18 19  1  6  0  0  0
 18 23  1  0  0  0  0
 20  2  1  1  0  0  0
 20 25  1  0  0  0  0
 21 22  1  6  0  0  0
 21 27  1  0  0  0  0
 23 24  1  0  0  0  0
 23 29  1  1  0  0  0
 25 26  1  6  0  0  0
 25 31  1  0  0  0  0
 27 28  1  0  0  0  0
 27 33  1  6  0  0  0
 29 30  1  0  0  0  0
 31 32  1  1  0  0  0
 33 34  1  0  0  0  0
M  END
>  <CHROM.1>
175.30120412,67.70349690,174.26787943,-78.60317069,-171.97521421,55.48084894
65.52421717,-172.95653511,-0.42879769,-7.03141342,46.21415415,-0.21128737
-0.42562259,2.97473542

>  <Name>
2o3v_lig

>  <RI>
0

>  <Rbt.Current_Directory>
/home/afrankz/demos/rdock_decoys_rna/rnas/2o3v

>  <Rbt.Executable>
rbdock ($Id: //depot/dev/client3/rdock/2013.1/src/exe/rbdock.cxx#4 $)

>  <Rbt.Library>
libRbt.so (2013.1, Build901 2013/11/27)

>  <Rbt.Parameter_File>
/export/apps/rDock/src/rDock_2013.1_src/data/scripts/dock_solv.prm

>  <Rbt.Receptor>
prm/pocket_docking_3.prm

>  <SCORE>
-10.4193

>  <SCORE.INTER>
-4.52749

>  <SCORE.INTER.CONST>
1

>  <SCORE.INTER.POLAR>
-0.694443

>  <SCORE.INTER.ROT>
8

>  <SCORE.INTER.SOLV>
14.9439

>  <SCORE.INTER.VDW>
-14.6181

>  <SCORE.INTER.norm>
-0.129357

>  <SCORE.INTRA>
-5.90046

>  <SCORE.INTRA.DIHEDRAL>
-10.2304

>  <SCORE.INTRA.DIHEDRAL.0>
13.1227

>  <SCORE.INTRA.POLAR>
0

>  <SCORE.INTRA.POLAR.0>
0

>  <SCORE.INTRA.REPUL>
0

>  <SCORE.INTRA.REPUL.0>
0

>  <SCORE.INTRA.SOLV>
0.671918

>  <SCORE.INTRA.SOLV.lig_0>
-89.1587

>  <SCORE.INTRA.VDW>
-1.12121

>  <SCORE.INTRA.VDW.0>
-0.838383

>  <SCORE.INTRA.norm>
-0.168584

>  <SCORE.RESTR>
0.00867443

>  <SCORE.RESTR.CAVITY>
0.00867443

>  <SCORE.RESTR.norm>
0.000247841

>  <SCORE.SYSTEM>
0

>  <SCORE.SYSTEM.CONST>
0

>  <SCORE.SYSTEM.DIHEDRAL>
0

>  <SCORE.SYSTEM.SOLV>
0

>  <SCORE.SYSTEM.norm>
0

>  <SCORE.heavy>
35

>  <SCORE.norm>
-0.297693

>  <RMSD>
2.407

$$$$
2o3v_lig
 OpenBabel02141814113D
libRbt.so/2013.1/901 2013/11/27
 35 37  0  0  0  0  0  0  0  0999 V2000
    2.1960   -9.0967   44.4286 C   0  0  2  0  0  0  0  0  0  0  0  0
    2.6218   -7.7759   43.9737 O   0  0  0  0  0  0  0  0  0  0  0  0
    6.3474   -6.2857   42.2925 C   0  0  2  0  0  0  0  0  0  0  0  0
    7.7580   -5.8037   42.1915 N   0  0  0  0  0  0  0  0  0  0  0  0
   -5.6112   -4.5209   46.7348 C   0  0  2  0  0  0  0  0  0  0  0  0
   -6.9185   -4.6574   46.1366 O   0  0  0  0  0  0  0  0  0  0  0  0
    0.6824   -9.1322   44.0462 C   0  0  2  0  0  0  0  0  0  0  0  0
    0.4930   -8.9363   42.5894 N   0  0  0  0  0  0  0  0  0  0  0  0
    5.5029   -5.3131   43.2232 C   0  0  0  0  0  0  0  0  0  0  0  0
   -4.5676   -5.1148   45.7266 C   0  0  2  0  0  0  0  0  0  0  0  0
   -4.6447   -4.4266   44.4130 N   0  0  0  0  0  0  0  0  0  0  0  0
   -0.1481   -8.0377   44.8474 C   0  0  1  0  0  0  0  0  0  0  0  0
   -1.5762   -8.0581   44.4370 O   0  0  0  0  0  0  0  0  0  0  0  0
    4.0111   -5.8541   43.3232 C   0  0  2  0  0  0  0  0  0  0  0  0
    3.2100   -4.9686   44.1953 N   0  0  0  0  0  0  0  0  0  0  0  0
   -4.7604   -6.6843   45.5412 C   0  0  1  0  0  0  0  0  0  0  0  0
   -3.7857   -7.2665   44.6380 O   0  0  0  0  0  0  0  0  0  0  0  0
    0.0883   -8.3021   46.3991 C   0  0  2  0  0  0  0  0  0  0  0  0
   -0.5975   -7.3541   47.1970 O   0  0  0  0  0  0  0  0  0  0  0  0
    4.0092   -7.3285   43.9025 C   0  0  2  0  0  0  0  0  0  0  0  0
   -4.6577   -7.3649   46.9429 C   0  0  2  0  0  0  0  0  0  0  0  0
   -4.8325   -8.7645   46.8411 O   0  0  0  0  0  0  0  0  0  0  0  0
    1.6273   -8.2726   46.7374 C   0  0  2  0  0  0  0  0  0  0  0  0
    2.3421   -9.2597   45.9012 O   0  0  0  0  0  0  0  0  0  0  0  0
    4.8422   -8.2715   42.9897 C   0  0  2  0  0  0  0  0  0  0  0  0
    4.8292   -9.5927   43.6024 O   0  0  0  0  0  0  0  0  0  0  0  0
   -5.7217   -6.7349   47.9279 C   0  0  2  0  0  0  0  0  0  0  0  0
   -5.5330   -5.2690   48.0187 O   0  0  0  0  0  0  0  0  0  0  0  0
    1.8843   -8.5610   48.2158 C   0  0  0  0  0  0  0  0  0  0  0  0
    1.3637   -7.5384   49.0296 O   0  0  0  0  0  0  0  0  0  0  0  0
    6.2935   -7.7468   42.8868 C   0  0  1  0  0  0  0  0  0  0  0  0
    7.0261   -8.6164   42.0494 O   0  0  0  0  0  0  0  0  0  0  0  0
   -5.6298   -7.3375   49.3217 C   0  0  0  0  0  0  0  0  0  0  0  0
   -6.6353   -6.8092   50.1523 O   0  0  0  0  0  0  0  0  0  0  0  0
   -2.4353   -7.0286   45.1330 C   0  0  0  0  0  0  0  0  0  0  0  0
  1  2  1  1  0  0  0
  1  7  1  0  0  0  0
  1 24  1  0  0  0  0
  3  4  1  1  0  0  0
  3  9  1  0  0  0  0
  3 31  1  0  0  0  0
  5  6  1  6  0  0  0
  5 10  1  0  0  0  0
  5 28  1  0  0  0  0
  7  8  1  6  0  0  0
  7 12  1  0  0  0  0
  9 14  1  0  0  0  0
 10 11  1  6  0  0  0
 10 16  1  0  0  0  0
 12 13  1  1  0  0  0
 12 18  1  0  0  0  0
 13 35  1  0  0  0  0
 14 15  1  1  0  0  0
 14 20  1  0  0  0  0
 16 17  1  6  0  0  0
 16 21  1  0  0  0  0
 17 35  1  0  0  0  0
 18 19  1  1  0  0  0
 18 23  1  0  0  0  0
 20  2  1  6  0  0  0
 20 25  1  0  0  0  0
 21 22  1  6  0  0  0
 21 27  1  0  0  0  0
 23 24  1  0  0  0  0
 23 29  1  1  0  0  0
 25 26  1  1  0  0  0
 25 31  1  0  0  0  0
 27 28  1  0  0  0  0
 27 33  1  1  0  0  0
 29 30  1  0  0  0  0
 31 32  1  6  0  0  0
 33 34  1  0  0  0  0
M  END
>  <CHROM.1>
-169.54519256,-178.92373194,-177.30994777,58.96318202,160.20717574,178.57969670
-65.73962034,-176.80058446,-0.08185388,-7.21908315,45.35670404,-0.22108193
-0.30357038,2.21199774

>  <Name>
2o3v_lig

>  <RI>
0

>  <Rbt.Current_Directory>
/home/afrankz/demos/rdock_decoys_rna/rnas/2o3v

>  <Rbt.Executable>
rbdock ($Id: //depot/dev/client3/rdock/2013.1/src/exe/rbdock.cxx#4 $)

>  <Rbt.Library>
libRbt.so (2013.1, Build901 2013/11/27)

>  <Rbt.Parameter_File>
/export/apps/rDock/src/rDock_2013.1_src/data/scripts/dock_solv.prm

>  <Rbt.Receptor>
prm/pocket_docking_3.prm

>  <SCORE>
-13.0823

>  <SCORE.INTER>
-8.29092

>  <SCORE.INTER.CONST>
1

>  <SCORE.INTER.POLAR>
-0.00885766

>  <SCORE.INTER.ROT>
8

>  <SCORE.INTER.SOLV>
21.3704

>  <SCORE.INTER.VDW>
-21.5546

>  <SCORE.INTER.norm>
-0.236884

>  <SCORE.INTRA>
-4.79261

>  <SCORE.INTRA.DIHEDRAL>
-10.571

>  <SCORE.INTRA.DIHEDRAL.0>
13.1227

>  <SCORE.INTRA.POLAR>
0

>  <SCORE.INTRA.POLAR.0>
0

>  <SCORE.INTRA.REPUL>
0

>  <SCORE.INTRA.REPUL.0>
0

>  <SCORE.INTRA.SOLV>
-1.02943

>  <SCORE.INTRA.SOLV.lig_0>
-89.1587

>  <SCORE.INTRA.VDW>
1.00759

>  <SCORE.INTRA.VDW.0>
-0.838383

>  <SCORE.INTRA.norm>
-0.136932

>  <SCORE.RESTR>
0.00125348

>  <SCORE.RESTR.CAVITY>
0.00125348

>  <SCORE.RESTR.norm>
3.58138e-05

>  <SCORE.SYSTEM>
0

>  <SCORE.SYSTEM.CONST>
0

>  <SCORE.SYSTEM.DIHEDRAL>
0

>  <SCORE.SYSTEM.SOLV>
0

>  <SCORE.SYSTEM.norm>
0

>  <SCORE.heavy>
35

>  <SCORE.norm>
-0.373779

>  <RMSD>
2.415

$$$$
2o3v_lig
 OpenBabel02141814113D
libRbt.so/2013.1/901 2013/11/27
 35 37  0  0  0  0  0  0  0  0999 V2000
    2.3374   -7.7983   45.7682 C   0  0  2  0  0  0  0  0  0  0  0  0
    2.5037   -7.9027   44.3210 O   0  0  0  0  0  0  0  0  0  0  0  0
    6.3038   -5.9415   43.5208 C   0  0  2  0  0  0  0  0  0  0  0  0
    7.5042   -5.4327   42.7911 N   0  0  0  0  0  0  0  0  0  0  0  0
   -6.0819   -9.0461   49.6593 C   0  0  2  0  0  0  0  0  0  0  0  0
   -5.2556   -8.7683   50.8107 O   0  0  0  0  0  0  0  0  0  0  0  0
    0.9088   -8.3832   46.0038 C   0  0  2  0  0  0  0  0  0  0  0  0
    0.8131   -9.7781   45.5124 N   0  0  0  0  0  0  0  0  0  0  0  0
    6.2472   -7.5277   43.4406 C   0  0  0  0  0  0  0  0  0  0  0  0
   -5.1363   -9.5334   48.5075 C   0  0  2  0  0  0  0  0  0  0  0  0
   -4.3588  -10.7272   48.9259 N   0  0  0  0  0  0  0  0  0  0  0  0
   -0.2093   -7.4912   45.3082 C   0  0  1  0  0  0  0  0  0  0  0  0
   -1.5556   -8.0883   45.5064 O   0  0  0  0  0  0  0  0  0  0  0  0
    4.9563   -8.0419   44.2137 C   0  0  2  0  0  0  0  0  0  0  0  0
    4.8783   -9.5167   44.1414 N   0  0  0  0  0  0  0  0  0  0  0  0
   -4.1557   -8.3753   48.0256 C   0  0  1  0  0  0  0  0  0  0  0  0
   -3.2912   -8.7891   46.9365 O   0  0  0  0  0  0  0  0  0  0  0  0
   -0.0615   -6.0124   45.8780 C   0  0  2  0  0  0  0  0  0  0  0  0
   -1.0068   -5.1346   45.2934 O   0  0  0  0  0  0  0  0  0  0  0  0
    3.6550   -7.4002   43.5781 C   0  0  2  0  0  0  0  0  0  0  0  0
   -5.0164   -7.1496   47.5834 C   0  0  2  0  0  0  0  0  0  0  0  0
   -4.1950   -6.0819   47.1535 O   0  0  0  0  0  0  0  0  0  0  0  0
    1.3970   -5.4679   45.6329 C   0  0  2  0  0  0  0  0  0  0  0  0
    2.3825   -6.3870   46.2402 O   0  0  0  0  0  0  0  0  0  0  0  0
    3.7214   -5.8490   43.6550 C   0  0  2  0  0  0  0  0  0  0  0  0
    2.5180   -5.3303   43.0196 O   0  0  0  0  0  0  0  0  0  0  0  0
   -5.9566   -6.6942   48.7700 C   0  0  2  0  0  0  0  0  0  0  0  0
   -6.8047   -7.8233   49.2158 O   0  0  0  0  0  0  0  0  0  0  0  0
    1.5767   -4.0623   46.2044 C   0  0  0  0  0  0  0  0  0  0  0  0
    2.8707   -3.5731   45.9495 O   0  0  0  0  0  0  0  0  0  0  0  0
    4.9778   -5.3447   42.9071 C   0  0  1  0  0  0  0  0  0  0  0  0
    5.0173   -3.9360   42.9967 O   0  0  0  0  0  0  0  0  0  0  0  0
   -6.8476   -5.5276   48.3709 C   0  0  0  0  0  0  0  0  0  0  0  0
   -6.0665   -4.4230   47.9842 O   0  0  0  0  0  0  0  0  0  0  0  0
   -2.0801   -7.9779   46.9189 C   0  0  0  0  0  0  0  0  0  0  0  0
  1  2  1  6  0  0  0
  1  7  1  0  0  0  0
  1 24  1  0  0  0  0
  3  4  1  6  0  0  0
  3  9  1  0  0  0  0
  3 31  1  0  0  0  0
  5  6  1  1  0  0  0
  5 10  1  0  0  0  0
  5 28  1  0  0  0  0
  7  8  1  6  0  0  0
  7 12  1  0  0  0  0
  9 14  1  0  0  0  0
 10 11  1  1  0  0  0
 10 16  1  0  0  0  0
 12 13  1  1  0  0  0
 12 18  1  0  0  0  0
 13 35  1  0  0  0  0
 14 15  1  6  0  0  0
 14 20  1  0  0  0  0
 16 17  1  6  0  0  0
 16 21  1  0  0  0  0
 17 35  1  0  0  0  0
 18 19  1  6  0  0  0
 18 23  1  0  0  0  0
 20  2  1  1  0  0  0
 20 25  1  0  0  0  0
 21 22  1  1  0  0  0
 21 27  1  0  0  0  0
 23 24  1  0  0  0  0
 23 29  1  1  0  0  0
 25 26  1  6  0  0  0
 25 31  1  0  0  0  0
 27 28  1  0  0  0  0
 27 33  1  6  0  0  0
 29 30  1  0  0  0  0
 31 32  1  1  0  0  0
 33 34  1  0  0  0  0
M  END
>  <CHROM.1>
175.70410765,71.65379227,-171.65490313,-155.34028326,-157.95014184,55.05304155
-178.46907467,-59.58781117,-0.15314666,-6.97080917,46.03656421,-0.19554755
-0.42196732,2.99259271

>  <Name>
2o3v_lig

>  <RI>
0

>  <Rbt.Current_Directory>
/home/afrankz/demos/rdock_decoys_rna/rnas/2o3v

>  <Rbt.Executable>
rbdock ($Id: //depot/dev/client3/rdock/2013.1/src/exe/rbdock.cxx#4 $)

>  <Rbt.Library>
libRbt.so (2013.1, Build901 2013/11/27)

>  <Rbt.Parameter_File>
/export/apps/rDock/src/rDock_2013.1_src/data/scripts/dock_solv.prm

>  <Rbt.Receptor>
prm/pocket_docking_3.prm

>  <SCORE>
-9.33829

>  <SCORE.INTER>
-4.88308

>  <SCORE.INTER.CONST>
1

>  <SCORE.INTER.POLAR>
-0.696432

>  <SCORE.INTER.ROT>
8

>  <SCORE.INTER.SOLV>
14.1709

>  <SCORE.INTER.VDW>
-14.5909

>  <SCORE.INTER.norm>
-0.139517

>  <SCORE.INTRA>
-4.45521

>  <SCORE.INTRA.DIHEDRAL>
-7.11579

>  <SCORE.INTRA.DIHEDRAL.0>
13.1227

>  <SCORE.INTRA.POLAR>
0

>  <SCORE.INTRA.POLAR.0>
0

>  <SCORE.INTRA.REPUL>
0

>  <SCORE.INTRA.REPUL.0>
0

>  <SCORE.INTRA.SOLV>
0.722613

>  <SCORE.INTRA.SOLV.lig_0>
-89.1587

>  <SCORE.INTRA.VDW>
-1.25863

>  <SCORE.INTRA.VDW.0>
-0.838383

>  <SCORE.INTRA.norm>
-0.127292

>  <SCORE.RESTR>
0

>  <SCORE.RESTR.CAVITY>
0

>  <SCORE.RESTR.norm>
0

>  <SCORE.SYSTEM>
0

>  <SCORE.SYSTEM.CONST>
0

>  <SCORE.SYSTEM.DIHEDRAL>
0

>  <SCORE.SYSTEM.SOLV>
0

>  <SCORE.SYSTEM.norm>
0

>  <SCORE.heavy>
35

>  <SCORE.norm>
-0.266808

>  <RMSD>
2.415

$$$$
2o3v_lig
 OpenBabel02141814113D
libRbt.so/2013.1/901 2013/11/27
 35 37  0  0  0  0  0  0  0  0999 V2000
    2.3554   -9.1813   44.5767 C   0  0  2  0  0  0  0  0  0  0  0  0
    2.7452   -7.8672   44.0728 O   0  0  0  0  0  0  0  0  0  0  0  0
    6.3868   -6.3045   42.2773 C   0  0  2  0  0  0  0  0  0  0  0  0
    7.7847   -5.7977   42.1322 N   0  0  0  0  0  0  0  0  0  0  0  0
   -5.7242   -6.1527   46.9937 C   0  0  2  0  0  0  0  0  0  0  0  0
   -4.9598   -6.6029   48.1333 O   0  0  0  0  0  0  0  0  0  0  0  0
    0.7964   -9.1434   44.4967 C   0  0  2  0  0  0  0  0  0  0  0  0
    0.3369   -8.8995   43.1090 N   0  0  0  0  0  0  0  0  0  0  0  0
    5.5572   -5.3512   43.2408 C   0  0  0  0  0  0  0  0  0  0  0  0
   -5.2254   -6.9579   45.7442 C   0  0  2  0  0  0  0  0  0  0  0  0
   -5.3709   -8.4198   45.9598 N   0  0  0  0  0  0  0  0  0  0  0  0
    0.1887   -8.0381   45.4654 C   0  0  1  0  0  0  0  0  0  0  0  0
   -1.2913   -7.9879   45.3414 O   0  0  0  0  0  0  0  0  0  0  0  0
    4.0789   -5.9185   43.3872 C   0  0  2  0  0  0  0  0  0  0  0  0
    3.2923   -5.0512   44.2902 N   0  0  0  0  0  0  0  0  0  0  0  0
   -3.7173   -6.5996   45.3807 C   0  0  1  0  0  0  0  0  0  0  0  0
   -3.2399   -7.3062   44.2070 O   0  0  0  0  0  0  0  0  0  0  0  0
    0.7096   -8.3551   46.9357 C   0  0  2  0  0  0  0  0  0  0  0  0
    0.2362   -7.4019   47.8702 O   0  0  0  0  0  0  0  0  0  0  0  0
    4.1216   -7.3955   43.9581 C   0  0  2  0  0  0  0  0  0  0  0  0
   -3.6162   -5.0584   45.1497 C   0  0  2  0  0  0  0  0  0  0  0  0
   -2.2915   -4.6790   44.8326 O   0  0  0  0  0  0  0  0  0  0  0  0
    2.2846   -8.3988   46.9675 C   0  0  2  0  0  0  0  0  0  0  0  0
    2.7772   -9.3911   45.9891 O   0  0  0  0  0  0  0  0  0  0  0  0
    4.9399   -8.3194   43.0132 C   0  0  2  0  0  0  0  0  0  0  0  0
    4.9698   -9.6436   43.6187 O   0  0  0  0  0  0  0  0  0  0  0  0
   -4.1322   -4.2860   46.4290 C   0  0  2  0  0  0  0  0  0  0  0  0
   -5.5165   -4.6988   46.7547 O   0  0  0  0  0  0  0  0  0  0  0  0
    2.8104   -8.7384   48.3615 C   0  0  0  0  0  0  0  0  0  0  0  0
    2.5728   -7.6853   49.2633 O   0  0  0  0  0  0  0  0  0  0  0  0
    6.3777   -7.7693   42.8650 C   0  0  1  0  0  0  0  0  0  0  0  0
    7.0969   -8.6219   41.9991 O   0  0  0  0  0  0  0  0  0  0  0  0
   -4.0935   -2.7779   46.2340 C   0  0  0  0  0  0  0  0  0  0  0  0
   -4.8732   -2.4062   45.1232 O   0  0  0  0  0  0  0  0  0  0  0  0
   -1.7860   -7.2315   44.1309 C   0  0  0  0  0  0  0  0  0  0  0  0
  1  2  1  1  0  0  0
  1  7  1  0  0  0  0
  1 24  1  0  0  0  0
  3  4  1  1  0  0  0
  3  9  1  0  0  0  0
  3 31  1  0  0  0  0
  5  6  1  1  0  0  0
  5 10  1  0  0  0  0
  5 28  1  0  0  0  0
  7  8  1  6  0  0  0
  7 12  1  0  0  0  0
  9 14  1  0  0  0  0
 10 11  1  1  0  0  0
 10 16  1  0  0  0  0
 12 13  1  1  0  0  0
 12 18  1  0  0  0  0
 13 35  1  0  0  0  0
 14 15  1  1  0  0  0
 14 20  1  0  0  0  0
 16 17  1  6  0  0  0
 16 21  1  0  0  0  0
 17 35  1  0  0  0  0
 18 19  1  1  0  0  0
 18 23  1  0  0  0  0
 20  2  1  6  0  0  0
 20 25  1  0  0  0  0
 21 22  1  1  0  0  0
 21 27  1  0  0  0  0
 23 24  1  0  0  0  0
 23 29  1  1  0  0  0
 25 26  1  1  0  0  0
 25 31  1  0  0  0  0
 27 28  1  0  0  0  0
 27 33  1  6  0  0  0
 29 30  1  0  0  0  0
 31 32  1  6  0  0  0
 33 34  1  0  0  0  0
M  END
>  <CHROM.1>
179.35323665,-79.20799909,-179.95861479,-164.64511012,64.78232700,-179.25470302
-69.09915609,58.15826886,0.43862642,-6.97954502,45.12418614,0.00310905,-0.32779276
2.49060977

>  <Name>
2o3v_lig

>  <RI>
0

>  <Rbt.Current_Directory>
/home/afrankz/demos/rdock_decoys_rna/rnas/2o3v

>  <Rbt.Executable>
rbdock ($Id: //depot/dev/client3/rdock/2013.1/src/exe/rbdock.cxx#4 $)

>  <Rbt.Library>
libRbt.so (2013.1, Build901 2013/11/27)

>  <Rbt.Parameter_File>
/export/apps/rDock/src/rDock_2013.1_src/data/scripts/dock_solv.prm

>  <Rbt.Receptor>
prm/pocket_docking_5.prm

>  <SCORE>
-13.7689

>  <SCORE.INTER>
-9.03067

>  <SCORE.INTER.CONST>
1

>  <SCORE.INTER.POLAR>
0

>  <SCORE.INTER.ROT>
8

>  <SCORE.INTER.SOLV>
19.6066

>  <SCORE.INTER.VDW>
-21.4893

>  <SCORE.INTER.norm>
-0.258019

>  <SCORE.INTRA>
-4.73824

>  <SCORE.INTRA.DIHEDRAL>
-9.8857

>  <SCORE.INTRA.DIHEDRAL.0>
13.1227

>  <SCORE.INTRA.POLAR>
0

>  <SCORE.INTRA.POLAR.0>
0

>  <SCORE.INTRA.REPUL>
0

>  <SCORE.INTRA.REPUL.0>
0

>  <SCORE.INTRA.SOLV>
0.112487

>  <SCORE.INTRA.SOLV.lig_0>
-89.1587

>  <SCORE.INTRA.VDW>
0.14837

>  <SCORE.INTRA.VDW.0>
-0.838383

>  <SCORE.INTRA.norm>
-0.135378

>  <SCORE.RESTR>
0

>  <SCORE.RESTR.CAVITY>
0

>  <SCORE.RESTR.norm>
0

>  <SCORE.SYSTEM>
0

>  <SCORE.SYSTEM.CONST>
0

>  <SCORE.SYSTEM.DIHEDRAL>
0

>  <SCORE.SYSTEM.SOLV>
0

>  <SCORE.SYSTEM.norm>
0

>  <SCORE.heavy>
35

>  <SCORE.norm>
-0.393397

>  <RMSD>
2.417

$$$$
2o3v_lig
 OpenBabel02141814113D
libRbt.so/2013.1/901 2013/11/27
 35 37  0  0  0  0  0  0  0  0999 V2000
    2.0290   -7.7262   45.7113 C   0  0  2  0  0  0  0  0  0  0  0  0
    2.2422   -7.7967   44.2683 O   0  0  0  0  0  0  0  0  0  0  0  0
    6.1610   -6.0090   43.6567 C   0  0  2  0  0  0  0  0  0  0  0  0
    7.4190   -5.5590   42.9881 N   0  0  0  0  0  0  0  0  0  0  0  0
   -4.8684   -8.9048   50.2616 C   0  0  2  0  0  0  0  0  0  0  0  0
   -4.3934   -7.6898   50.8810 O   0  0  0  0  0  0  0  0  0  0  0  0
    0.5441   -8.1814   45.8728 C   0  0  2  0  0  0  0  0  0  0  0  0
    0.3388   -9.5436   45.3264 N   0  0  0  0  0  0  0  0  0  0  0  0
    6.0395   -7.5918   43.5839 C   0  0  0  0  0  0  0  0  0  0  0  0
   -4.0888   -9.0817   48.9128 C   0  0  2  0  0  0  0  0  0  0  0  0
   -2.6229   -9.1215   49.1462 N   0  0  0  0  0  0  0  0  0  0  0  0
   -0.4578   -7.1650   45.1710 C   0  0  1  0  0  0  0  0  0  0  0  0
   -1.8606   -7.6388   45.2976 O   0  0  0  0  0  0  0  0  0  0  0  0
    4.6887   -8.0428   44.2912 C   0  0  2  0  0  0  0  0  0  0  0  0
    4.5502   -9.5135   44.2243 N   0  0  0  0  0  0  0  0  0  0  0  0
   -4.4524   -7.9336   47.8714 C   0  0  1  0  0  0  0  0  0  0  0  0
   -3.7698   -8.0915   46.6011 O   0  0  0  0  0  0  0  0  0  0  0  0
   -0.1960   -5.7268   45.8008 C   0  0  2  0  0  0  0  0  0  0  0  0
   -1.0317   -4.7445   45.2155 O   0  0  0  0  0  0  0  0  0  0  0  0
    3.4517   -7.3509   43.5838 C   0  0  2  0  0  0  0  0  0  0  0  0
   -5.9979   -7.9393   47.6475 C   0  0  2  0  0  0  0  0  0  0  0  0
   -6.3820   -6.9290   46.7358 O   0  0  0  0  0  0  0  0  0  0  0  0
    1.3153   -5.3143   45.6294 C   0  0  2  0  0  0  0  0  0  0  0  0
    2.1863   -6.3422   46.2372 O   0  0  0  0  0  0  0  0  0  0  0  0
    3.5817   -5.8035   43.6541 C   0  0  2  0  0  0  0  0  0  0  0  0
    2.4370   -5.2387   42.9530 O   0  0  0  0  0  0  0  0  0  0  0  0
   -6.7442   -7.7634   49.0300 C   0  0  2  0  0  0  0  0  0  0  0  0
   -6.3267   -8.8221   49.9775 O   0  0  0  0  0  0  0  0  0  0  0  0
    1.6020   -3.9519   46.2593 C   0  0  0  0  0  0  0  0  0  0  0  0
    2.9228   -3.5422   46.0016 O   0  0  0  0  0  0  0  0  0  0  0  0
    4.8964   -5.3606   42.9703 C   0  0  1  0  0  0  0  0  0  0  0  0
    4.9927   -3.9542   43.0528 O   0  0  0  0  0  0  0  0  0  0  0  0
   -8.2560   -7.8067   48.8673 C   0  0  0  0  0  0  0  0  0  0  0  0
   -8.8900   -7.4820   50.0807 O   0  0  0  0  0  0  0  0  0  0  0  0
   -2.3864   -7.6457   46.7139 C   0  0  0  0  0  0  0  0  0  0  0  0
  1  2  1  6  0  0  0
  1  7  1  0  0  0  0
  1 24  1  0  0  0  0
  3  4  1  6  0  0  0
  3  9  1  0  0  0  0
  3 31  1  0  0  0  0
  5  6  1  6  0  0  0
  5 10  1  0  0  0  0
  5 28  1  0  0  0  0
  7  8  1  6  0  0  0
  7 12  1  0  0  0  0
  9 14  1  0  0  0  0
 10 11  1  1  0  0  0
 10 16  1  0  0  0  0
 12 13  1  1  0  0  0
 12 18  1  0  0  0  0
 13 35  1  0  0  0  0
 14 15  1  6  0  0  0
 14 20  1  0  0  0  0
 16 17  1  6  0  0  0
 16 21  1  0  0  0  0
 17 35  1  0  0  0  0
 18 19  1  6  0  0  0
 18 23  1  0  0  0  0
 20  2  1  1  0  0  0
 20 25  1  0  0  0  0
 21 22  1  6  0  0  0
 21 27  1  0  0  0  0
 23 24  1  0  0  0  0
 23 29  1  1  0  0  0
 25 26  1  6  0  0  0
 25 31  1  0  0  0  0
 27 28  1  0  0  0  0
 27 33  1  6  0  0  0
 29 30  1  0  0  0  0
 31 32  1  1  0  0  0
 33 34  1  0  0  0  0
M  END
>  <CHROM.1>
174.19260475,66.36643480,178.04692805,-77.96521184,-170.77213611,52.22992785
-174.94784797,-172.66145297,-0.38884765,-7.03530388,46.14662858,-0.25133534
-0.40749274,2.92304807

>  <Name>
2o3v_lig

>  <RI>
0

>  <Rbt.Current_Directory>
/home/afrankz/demos/rdock_decoys_rna/rnas/2o3v

>  <Rbt.Executable>
rbdock ($Id: //depot/dev/client3/rdock/2013.1/src/exe/rbdock.cxx#4 $)

>  <Rbt.Library>
libRbt.so (2013.1, Build901 2013/11/27)

>  <Rbt.Parameter_File>
/export/apps/rDock/src/rDock_2013.1_src/data/scripts/dock_solv.prm

>  <Rbt.Receptor>
prm/pocket_docking_3.prm

>  <SCORE>
-11.0021

>  <SCORE.INTER>
-4.84475

>  <SCORE.INTER.CONST>
1

>  <SCORE.INTER.POLAR>
-0.71586

>  <SCORE.INTER.ROT>
8

>  <SCORE.INTER.SOLV>
14.2783

>  <SCORE.INTER.VDW>
-14.5364

>  <SCORE.INTER.norm>
-0.138421

>  <SCORE.INTRA>
-6.15731

>  <SCORE.INTRA.DIHEDRAL>
-10.2154

>  <SCORE.INTRA.DIHEDRAL.0>
13.1227

>  <SCORE.INTRA.POLAR>
0

>  <SCORE.INTRA.POLAR.0>
0

>  <SCORE.INTRA.REPUL>
0

>  <SCORE.INTRA.REPUL.0>
0

>  <SCORE.INTRA.SOLV>
0.891468

>  <SCORE.INTRA.SOLV.lig_0>
-89.1587

>  <SCORE.INTRA.VDW>
-1.49536

>  <SCORE.INTRA.VDW.0>
-0.838383

>  <SCORE.INTRA.norm>
-0.175923

>  <SCORE.RESTR>
0

>  <SCORE.RESTR.CAVITY>
0

>  <SCORE.RESTR.norm>
0

>  <SCORE.SYSTEM>
0

>  <SCORE.SYSTEM.CONST>
0

>  <SCORE.SYSTEM.DIHEDRAL>
0

>  <SCORE.SYSTEM.SOLV>
0

>  <SCORE.SYSTEM.norm>
0

>  <SCORE.heavy>
35

>  <SCORE.norm>
-0.314345

>  <RMSD>
2.422

$$$$
2o3v_lig
 OpenBabel02141814113D
libRbt.so/2013.1/901 2013/11/27
 35 37  0  0  0  0  0  0  0  0999 V2000
    2.1309   -9.1574   44.5198 C   0  0  2  0  0  0  0  0  0  0  0  0
    2.5571   -7.8320   44.0786 O   0  0  0  0  0  0  0  0  0  0  0  0
    6.2614   -6.3715   42.3259 C   0  0  2  0  0  0  0  0  0  0  0  0
    7.6735   -5.9004   42.1977 N   0  0  0  0  0  0  0  0  0  0  0  0
   -5.5745   -4.5221   46.9050 C   0  0  2  0  0  0  0  0  0  0  0  0
   -6.8362   -4.4987   46.2028 O   0  0  0  0  0  0  0  0  0  0  0  0
    0.6148   -9.1843   44.1469 C   0  0  2  0  0  0  0  0  0  0  0  0
    0.4164   -8.9697   42.6940 N   0  0  0  0  0  0  0  0  0  0  0  0
    5.4422   -5.3918   43.2715 C   0  0  0  0  0  0  0  0  0  0  0  0
   -4.5111   -5.1542   45.9417 C   0  0  2  0  0  0  0  0  0  0  0  0
   -4.4191   -4.3876   44.6733 N   0  0  0  0  0  0  0  0  0  0  0  0
   -0.2077   -8.0979   44.9671 C   0  0  1  0  0  0  0  0  0  0  0  0
   -1.6385   -8.1096   44.5658 O   0  0  0  0  0  0  0  0  0  0  0  0
    3.9484   -5.9214   43.4003 C   0  0  2  0  0  0  0  0  0  0  0  0
    3.1708   -5.0291   44.2866 N   0  0  0  0  0  0  0  0  0  0  0  0
   -4.8297   -6.6849   45.6413 C   0  0  1  0  0  0  0  0  0  0  0  0
   -3.8421   -7.3047   44.7781 O   0  0  0  0  0  0  0  0  0  0  0  0
    0.0382   -8.3823   46.5138 C   0  0  2  0  0  0  0  0  0  0  0  0
   -0.6400   -7.4426   47.3280 O   0  0  0  0  0  0  0  0  0  0  0  0
    3.9463   -7.3952   43.9808 C   0  0  2  0  0  0  0  0  0  0  0  0
   -4.9028   -7.4514   46.9999 C   0  0  2  0  0  0  0  0  0  0  0  0
   -5.1949   -8.8197   46.7950 O   0  0  0  0  0  0  0  0  0  0  0  0
    1.5794   -8.3608   46.8424 C   0  0  2  0  0  0  0  0  0  0  0  0
    2.2862   -9.3391   45.9893 O   0  0  0  0  0  0  0  0  0  0  0  0
    4.7547   -8.3452   43.0533 C   0  0  2  0  0  0  0  0  0  0  0  0
    4.7432   -9.6658   43.6673 O   0  0  0  0  0  0  0  0  0  0  0  0
   -5.9813   -6.7803   47.9409 C   0  0  2  0  0  0  0  0  0  0  0  0
   -5.6684   -5.3467   48.1401 O   0  0  0  0  0  0  0  0  0  0  0  0
    1.8453   -8.6683   48.3153 C   0  0  0  0  0  0  0  0  0  0  0  0
    3.2213   -8.6173   48.6034 O   0  0  0  0  0  0  0  0  0  0  0  0
    6.2077   -7.8317   42.9224 C   0  0  1  0  0  0  0  0  0  0  0  0
    6.9177   -8.7075   42.0721 O   0  0  0  0  0  0  0  0  0  0  0  0
   -6.0573   -7.4678   49.2957 C   0  0  0  0  0  0  0  0  0  0  0  0
   -4.8300   -7.3527   49.9743 O   0  0  0  0  0  0  0  0  0  0  0  0
   -2.5093   -7.1561   45.3499 C   0  0  0  0  0  0  0  0  0  0  0  0
  1  2  1  1  0  0  0
  1  7  1  0  0  0  0
  1 24  1  0  0  0  0
  3  4  1  1  0  0  0
  3  9  1  0  0  0  0
  3 31  1  0  0  0  0
  5  6  1  6  0  0  0
  5 10  1  0  0  0  0
  5 28  1  0  0  0  0
  7  8  1  6  0  0  0
  7 12  1  0  0  0  0
  9 14  1  0  0  0  0
 10 11  1  6  0  0  0
 10 16  1  0  0  0  0
 12 13  1  1  0  0  0
 12 18  1  0  0  0  0
 13 35  1  0  0  0  0
 14 15  1  1  0  0  0
 14 20  1  0  0  0  0
 16 17  1  6  0  0  0
 16 21  1  0  0  0  0
 17 35  1  0  0  0  0
 18 19  1  1  0  0  0
 18 23  1  0  0  0  0
 20  2  1  6  0  0  0
 20 25  1  0  0  0  0
 21 22  1  6  0  0  0
 21 27  1  0  0  0  0
 23 24  1  0  0  0  0
 23 29  1  1  0  0  0
 25 26  1  1  0  0  0
 25 31  1  0  0  0  0
 27 28  1  0  0  0  0
 27 33  1  1  0  0  0
 29 30  1  0  0  0  0
 31 32  1  6  0  0  0
 33 34  1  0  0  0  0
M  END
>  <CHROM.1>
-168.37191775,176.91522497,178.61559472,55.62760165,166.50940342,177.41628240
-178.69783633,62.37989586,-0.03938803,-7.32554102,45.42200284,-0.19502634
-0.30709470,2.25733664

>  <Name>
2o3v_lig

>  <RI>
0

>  <Rbt.Current_Directory>
/home/afrankz/demos/rdock_decoys_rna/rnas/2o3v

>  <Rbt.Executable>
rbdock ($Id: //depot/dev/client3/rdock/2013.1/src/exe/rbdock.cxx#4 $)

>  <Rbt.Library>
libRbt.so (2013.1, Build901 2013/11/27)

>  <Rbt.Parameter_File>
/export/apps/rDock/src/rDock_2013.1_src/data/scripts/dock_solv.prm

>  <Rbt.Receptor>
prm/pocket_docking_3.prm

>  <SCORE>
-12.4325

>  <SCORE.INTER>
-7.49665

>  <SCORE.INTER.CONST>
1

>  <SCORE.INTER.POLAR>
0

>  <SCORE.INTER.ROT>
8

>  <SCORE.INTER.SOLV>
20.6854

>  <SCORE.INTER.VDW>
-20.8262

>  <SCORE.INTER.norm>
-0.21419

>  <SCORE.INTRA>
-4.94326

>  <SCORE.INTRA.DIHEDRAL>
-11.3534

>  <SCORE.INTRA.DIHEDRAL.0>
13.1227

>  <SCORE.INTRA.POLAR>
0

>  <SCORE.INTRA.POLAR.0>
0

>  <SCORE.INTRA.REPUL>
0

>  <SCORE.INTRA.REPUL.0>
0

>  <SCORE.INTRA.SOLV>
-1.04378

>  <SCORE.INTRA.SOLV.lig_0>
-89.1587

>  <SCORE.INTRA.VDW>
1.25533

>  <SCORE.INTRA.VDW.0>
-0.838383

>  <SCORE.INTRA.norm>
-0.141236

>  <SCORE.RESTR>
0.00736963

>  <SCORE.RESTR.CAVITY>
0.00736963

>  <SCORE.RESTR.norm>
0.000210561

>  <SCORE.SYSTEM>
0

>  <SCORE.SYSTEM.CONST>
0

>  <SCORE.SYSTEM.DIHEDRAL>
0

>  <SCORE.SYSTEM.SOLV>
0

>  <SCORE.SYSTEM.norm>
0

>  <SCORE.heavy>
35

>  <SCORE.norm>
-0.355215

>  <RMSD>
2.435

$$$$
2o3v_lig
 OpenBabel02141814113D
libRbt.so/2013.1/901 2013/11/27
 35 37  0  0  0  0  0  0  0  0999 V2000
    2.2507   -8.1043   44.3147 C   0  0  2  0  0  0  0  0  0  0  0  0
    3.1802   -6.9910   44.1435 O   0  0  0  0  0  0  0  0  0  0  0  0
    7.3912   -6.4357   43.2019 C   0  0  2  0  0  0  0  0  0  0  0  0
    8.8806   -6.5085   43.2953 N   0  0  0  0  0  0  0  0  0  0  0  0
   -6.8356   -6.5673   45.6465 C   0  0  2  0  0  0  0  0  0  0  0  0
   -6.8388   -7.4878   44.5337 O   0  0  0  0  0  0  0  0  0  0  0  0
    0.8525   -7.4128   44.2428 C   0  0  2  0  0  0  0  0  0  0  0  0
    0.6708   -6.7041   42.9540 N   0  0  0  0  0  0  0  0  0  0  0  0
    6.8005   -5.6806   44.4693 C   0  0  0  0  0  0  0  0  0  0  0  0
   -5.5367   -5.6964   45.5334 C   0  0  2  0  0  0  0  0  0  0  0  0
   -5.4848   -4.9839   44.2316 N   0  0  0  0  0  0  0  0  0  0  0  0
    0.6407   -6.3972   45.4482 C   0  0  1  0  0  0  0  0  0  0  0  0
   -0.6761   -5.7176   45.3369 O   0  0  0  0  0  0  0  0  0  0  0  0
    5.2157   -5.6271   44.3511 C   0  0  2  0  0  0  0  0  0  0  0  0
    4.6444   -4.9377   45.5279 N   0  0  0  0  0  0  0  0  0  0  0  0
   -4.2239   -6.5739   45.7367 C   0  0  1  0  0  0  0  0  0  0  0  0
   -3.0070   -5.7868   45.6702 O   0  0  0  0  0  0  0  0  0  0  0  0
    0.8409   -7.2138   46.7998 C   0  0  2  0  0  0  0  0  0  0  0  0
    0.6945   -6.3805   47.9356 O   0  0  0  0  0  0  0  0  0  0  0  0
    4.6321   -7.0963   44.2495 C   0  0  2  0  0  0  0  0  0  0  0  0
   -4.3169   -7.2910   47.1208 C   0  0  2  0  0  0  0  0  0  0  0  0
   -3.1780   -8.0966   47.3521 O   0  0  0  0  0  0  0  0  0  0  0  0
    2.2563   -7.9064   46.8235 C   0  0  2  0  0  0  0  0  0  0  0  0
    2.4091   -8.7726   45.6357 O   0  0  0  0  0  0  0  0  0  0  0  0
    5.2196   -7.8294   43.0111 C   0  0  2  0  0  0  0  0  0  0  0  0
    4.6725   -9.1792   43.0050 O   0  0  0  0  0  0  0  0  0  0  0  0
   -5.6403   -8.1527   47.1943 C   0  0  2  0  0  0  0  0  0  0  0  0
   -6.8238   -7.2991   46.9420 O   0  0  0  0  0  0  0  0  0  0  0  0
    2.4597   -8.7284   48.0955 C   0  0  0  0  0  0  0  0  0  0  0  0
    1.5736   -9.8200   48.1405 O   0  0  0  0  0  0  0  0  0  0  0  0
    6.7615   -7.8806   43.1203 C   0  0  1  0  0  0  0  0  0  0  0  0
    7.2695   -8.5454   41.9827 O   0  0  0  0  0  0  0  0  0  0  0  0
   -5.7966   -8.8369   48.5439 C   0  0  0  0  0  0  0  0  0  0  0  0
   -6.9188   -9.6858   48.5371 O   0  0  0  0  0  0  0  0  0  0  0  0
   -1.8623   -6.6505   45.4076 C   0  0  0  0  0  0  0  0  0  0  0  0
  1  2  1  1  0  0  0
  1  7  1  0  0  0  0
  1 24  1  0  0  0  0
  3  4  1  1  0  0  0
  3  9  1  0  0  0  0
  3 31  1  0  0  0  0
  5  6  1  6  0  0  0
  5 10  1  0  0  0  0
  5 28  1  0  0  0  0
  7  8  1  6  0  0  0
  7 12  1  0  0  0  0
  9 14  1  0  0  0  0
 10 11  1  6  0  0  0
 10 16  1  0  0  0  0
 12 13  1  1  0  0  0
 12 18  1  0  0  0  0
 13 35  1  0  0  0  0
 14 15  1  1  0  0  0
 14 20  1  0  0  0  0
 16 17  1  1  0  0  0
 16 21  1  0  0  0  0
 17 35  1  0  0  0  0
 18 19  1  1  0  0  0
 18 23  1  0  0  0  0
 20  2  1  6  0  0  0
 20 25  1  0  0  0  0
 21 22  1  6  0  0  0
 21 27  1  0  0  0  0
 23 24  1  0  0  0  0
 23 29  1  1  0  0  0
 25 26  1  1  0  0  0
 25 31  1  0  0  0  0
 27 28  1  0  0  0  0
 27 33  1  1  0  0  0
 29 30  1  0  0  0  0
 31 32  1  6  0  0  0
 33 34  1  0  0  0  0
M  END
>  <CHROM.1>
174.47367560,62.11578694,164.04157767,-160.82113343,178.97343132,-166.30888848
65.69731663,-174.87053907,0.29228738,-7.26044783,45.41308264,-0.19954955
-0.12439833,2.17692032

>  <Name>
2o3v_lig

>  <RI>
0

>  <Rbt.Current_Directory>
/home/afrankz/demos/rdock_decoys_rna/rnas/2o3v

>  <Rbt.Executable>
rbdock ($Id: //depot/dev/client3/rdock/2013.1/src/exe/rbdock.cxx#4 $)

>  <Rbt.Library>
libRbt.so (2013.1, Build901 2013/11/27)

>  <Rbt.Parameter_File>
/export/apps/rDock/src/rDock_2013.1_src/data/scripts/dock_solv.prm

>  <Rbt.Receptor>
prm/pocket_docking_3.prm

>  <SCORE>
-11.2162

>  <SCORE.INTER>
-5.68824

>  <SCORE.INTER.CONST>
1

>  <SCORE.INTER.POLAR>
-0.765378

>  <SCORE.INTER.ROT>
8

>  <SCORE.INTER.SOLV>
14.7712

>  <SCORE.INTER.VDW>
-15.098

>  <SCORE.INTER.norm>
-0.162521

>  <SCORE.INTRA>
-5.52793

>  <SCORE.INTRA.DIHEDRAL>
-8.94024

>  <SCORE.INTRA.DIHEDRAL.0>
13.1227

>  <SCORE.INTRA.POLAR>
0

>  <SCORE.INTRA.POLAR.0>
0

>  <SCORE.INTRA.REPUL>
0

>  <SCORE.INTRA.REPUL.0>
0

>  <SCORE.INTRA.SOLV>
-0.664788

>  <SCORE.INTRA.SOLV.lig_0>
-89.1587

>  <SCORE.INTRA.VDW>
-0.725411

>  <SCORE.INTRA.VDW.0>
-0.838383

>  <SCORE.INTRA.norm>
-0.157941

>  <SCORE.RESTR>
0

>  <SCORE.RESTR.CAVITY>
0

>  <SCORE.RESTR.norm>
0

>  <SCORE.SYSTEM>
0

>  <SCORE.SYSTEM.CONST>
0

>  <SCORE.SYSTEM.DIHEDRAL>
0

>  <SCORE.SYSTEM.SOLV>
0

>  <SCORE.SYSTEM.norm>
0

>  <SCORE.heavy>
35

>  <SCORE.norm>
-0.320462

>  <RMSD>
2.474

$$$$
2o3v_lig
 OpenBabel02141814113D
libRbt.so/2013.1/901 2013/11/27
 35 37  0  0  0  0  0  0  0  0999 V2000
    2.1049   -9.0336   44.7650 C   0  0  2  0  0  0  0  0  0  0  0  0
    2.5599   -7.7481   44.2425 O   0  0  0  0  0  0  0  0  0  0  0  0
    6.2253   -6.4858   42.2679 C   0  0  2  0  0  0  0  0  0  0  0  0
    7.6466   -6.0766   42.0567 N   0  0  0  0  0  0  0  0  0  0  0  0
   -5.8192   -8.5992   44.7247 C   0  0  2  0  0  0  0  0  0  0  0  0
   -4.9897   -9.4821   43.9385 O   0  0  0  0  0  0  0  0  0  0  0  0
    0.6100   -8.7609   45.1244 C   0  0  2  0  0  0  0  0  0  0  0  0
   -0.1554   -8.3196   43.9346 N   0  0  0  0  0  0  0  0  0  0  0  0
    5.4950   -5.4497   43.2262 C   0  0  0  0  0  0  0  0  0  0  0  0
   -5.0149   -7.2719   44.9477 C   0  0  2  0  0  0  0  0  0  0  0  0
   -4.6329   -6.6564   43.6515 N   0  0  0  0  0  0  0  0  0  0  0  0
    0.4758   -7.6774   46.2810 C   0  0  1  0  0  0  0  0  0  0  0  0
   -0.9537   -7.3999   46.5770 O   0  0  0  0  0  0  0  0  0  0  0  0
    3.9898   -5.9140   43.4437 C   0  0  2  0  0  0  0  0  0  0  0  0
    3.2945   -4.9684   44.3431 N   0  0  0  0  0  0  0  0  0  0  0  0
   -3.7238   -7.5137   45.8473 C   0  0  1  0  0  0  0  0  0  0  0  0
   -2.9780   -6.2948   46.0977 O   0  0  0  0  0  0  0  0  0  0  0  0
    1.3093   -8.2076   47.5292 C   0  0  2  0  0  0  0  0  0  0  0  0
    1.2681   -7.2902   48.6075 O   0  0  0  0  0  0  0  0  0  0  0  0
    3.9586   -7.3714   44.0636 C   0  0  2  0  0  0  0  0  0  0  0  0
   -4.1752   -8.1471   47.2015 C   0  0  2  0  0  0  0  0  0  0  0  0
   -3.0644   -8.3950   48.0407 O   0  0  0  0  0  0  0  0  0  0  0  0
    2.8056   -8.4837   47.1186 C   0  0  2  0  0  0  0  0  0  0  0  0
    2.8467   -9.4381   45.9908 O   0  0  0  0  0  0  0  0  0  0  0  0
    4.6802   -8.3769   43.1231 C   0  0  2  0  0  0  0  0  0  0  0  0
    4.6475   -9.6800   43.7727 O   0  0  0  0  0  0  0  0  0  0  0  0
   -4.9848   -9.4779   46.9315 C   0  0  2  0  0  0  0  0  0  0  0  0
   -6.1395   -9.2059   46.0452 O   0  0  0  0  0  0  0  0  0  0  0  0
    3.6195   -9.0295   48.2910 C   0  0  0  0  0  0  0  0  0  0  0  0
    4.9548   -9.2637   47.9156 O   0  0  0  0  0  0  0  0  0  0  0  0
    6.1440   -7.9271   42.9060 C   0  0  1  0  0  0  0  0  0  0  0  0
    6.7743   -8.8525   42.0454 O   0  0  0  0  0  0  0  0  0  0  0  0
   -5.4839  -10.1091   48.2224 C   0  0  0  0  0  0  0  0  0  0  0  0
   -6.2113  -11.2816   47.9464 O   0  0  0  0  0  0  0  0  0  0  0  0
   -1.6088   -6.4344   45.6173 C   0  0  0  0  0  0  0  0  0  0  0  0
  1  2  1  1  0  0  0
  1  7  1  0  0  0  0
  1 24  1  0  0  0  0
  3  4  1  1  0  0  0
  3  9  1  0  0  0  0
  3 31  1  0  0  0  0
  5  6  1  6  0  0  0
  5 10  1  0  0  0  0
  5 28  1  0  0  0  0
  7  8  1  6  0  0  0
  7 12  1  0  0  0  0
  9 14  1  0  0  0  0
 10 11  1  6  0  0  0
 10 16  1  0  0  0  0
 12 13  1  1  0  0  0
 12 18  1  0  0  0  0
 13 35  1  0  0  0  0
 14 15  1  1  0  0  0
 14 20  1  0  0  0  0
 16 17  1  1  0  0  0
 16 21  1  0  0  0  0
 17 35  1  0  0  0  0
 18 19  1  1  0  0  0
 18 23  1  0  0  0  0
 20  2  1  6  0  0  0
 20 25  1  0  0  0  0
 21 22  1  1  0  0  0
 21 27  1  0  0  0  0
 23 24  1  0  0  0  0
 23 29  1  1  0  0  0
 25 26  1  1  0  0  0
 25 31  1  0  0  0  0
 27 28  1  0  0  0  0
 27 33  1  1  0  0  0
 29 30  1  0  0  0  0
 31 32  1  6  0  0  0
 33 34  1  0  0  0  0
M  END
>  <CHROM.1>
164.49378276,-80.90923374,-179.23851428,-121.83065768,-71.07671214,178.68203826
-179.60725149,179.36734334,0.41199048,-8.05219219,45.37447899,-0.27397304
0.00356212,2.00549103

>  <Name>
2o3v_lig

>  <RI>
0

>  <Rbt.Current_Directory>
/home/afrankz/demos/rdock_decoys_rna/rnas/2o3v

>  <Rbt.Executable>
rbdock ($Id: //depot/dev/client3/rdock/2013.1/src/exe/rbdock.cxx#4 $)

>  <Rbt.Library>
libRbt.so (2013.1, Build901 2013/11/27)

>  <Rbt.Parameter_File>
/export/apps/rDock/src/rDock_2013.1_src/data/scripts/dock_solv.prm

>  <Rbt.Receptor>
prm/pocket_docking_3.prm

>  <SCORE>
-8.16594

>  <SCORE.INTER>
-5.06487

>  <SCORE.INTER.CONST>
1

>  <SCORE.INTER.POLAR>
0

>  <SCORE.INTER.ROT>
8

>  <SCORE.INTER.SOLV>
14.7576

>  <SCORE.INTER.VDW>
-17.2291

>  <SCORE.INTER.norm>
-0.144711

>  <SCORE.INTRA>
-3.10107

>  <SCORE.INTRA.DIHEDRAL>
-2.22912

>  <SCORE.INTRA.DIHEDRAL.0>
13.1227

>  <SCORE.INTRA.POLAR>
0

>  <SCORE.INTRA.POLAR.0>
0

>  <SCORE.INTRA.REPUL>
0

>  <SCORE.INTRA.REPUL.0>
0

>  <SCORE.INTRA.SOLV>
0.216386

>  <SCORE.INTRA.SOLV.lig_0>
-89.1587

>  <SCORE.INTRA.VDW>
-2.09471

>  <SCORE.INTRA.VDW.0>
-0.838383

>  <SCORE.INTRA.norm>
-0.0886021

>  <SCORE.RESTR>
0

>  <SCORE.RESTR.CAVITY>
0

>  <SCORE.RESTR.norm>
0

>  <SCORE.SYSTEM>
0

>  <SCORE.SYSTEM.CONST>
0

>  <SCORE.SYSTEM.DIHEDRAL>
0

>  <SCORE.SYSTEM.SOLV>
0

>  <SCORE.SYSTEM.norm>
0

>  <SCORE.heavy>
35

>  <SCORE.norm>
-0.233313

>  <RMSD>
2.490

$$$$
2o3v_lig
 OpenBabel02141814113D
libRbt.so/2013.1/901 2013/11/27
 35 37  0  0  0  0  0  0  0  0999 V2000
    2.0027   -8.8158   44.4949 C   0  0  2  0  0  0  0  0  0  0  0  0
    2.5445   -7.6507   43.8008 O   0  0  0  0  0  0  0  0  0  0  0  0
    6.4233   -6.3229   42.3451 C   0  0  2  0  0  0  0  0  0  0  0  0
    7.8540   -5.8928   42.3294 N   0  0  0  0  0  0  0  0  0  0  0  0
   -5.2329   -5.4380   47.0496 C   0  0  2  0  0  0  0  0  0  0  0  0
   -6.6300   -5.5957   46.7196 O   0  0  0  0  0  0  0  0  0  0  0  0
    0.5194   -8.8598   44.0088 C   0  0  2  0  0  0  0  0  0  0  0  0
    0.4422   -8.9810   42.5338 N   0  0  0  0  0  0  0  0  0  0  0  0
    5.5560   -5.3047   43.2033 C   0  0  0  0  0  0  0  0  0  0  0  0
   -4.4437   -5.2979   45.7020 C   0  0  2  0  0  0  0  0  0  0  0  0
   -4.9516   -4.1535   44.9038 N   0  0  0  0  0  0  0  0  0  0  0  0
   -0.2893   -7.5757   44.4849 C   0  0  1  0  0  0  0  0  0  0  0  0
   -1.6847   -7.6154   43.9752 O   0  0  0  0  0  0  0  0  0  0  0  0
    4.0421   -5.7909   43.2135 C   0  0  2  0  0  0  0  0  0  0  0  0
    3.2187   -4.8624   44.0174 N   0  0  0  0  0  0  0  0  0  0  0  0
   -4.5033   -6.6392   44.8464 C   0  0  1  0  0  0  0  0  0  0  0  0
   -3.7527   -6.5488   43.6083 O   0  0  0  0  0  0  0  0  0  0  0  0
   -0.1763   -7.5027   46.0710 C   0  0  2  0  0  0  0  0  0  0  0  0
   -0.8504   -6.3692   46.5872 O   0  0  0  0  0  0  0  0  0  0  0  0
    3.9489   -7.2538   43.8139 C   0  0  2  0  0  0  0  0  0  0  0  0
   -3.9478   -7.8088   45.7194 C   0  0  2  0  0  0  0  0  0  0  0  0
   -3.9864   -9.0325   45.0119 O   0  0  0  0  0  0  0  0  0  0  0  0
    1.3349   -7.4755   46.5175 C   0  0  2  0  0  0  0  0  0  0  0  0
    2.0380   -8.6570   45.9748 O   0  0  0  0  0  0  0  0  0  0  0  0
    4.8047   -8.2416   42.9725 C   0  0  2  0  0  0  0  0  0  0  0  0
    4.7038   -9.5505   43.6032 O   0  0  0  0  0  0  0  0  0  0  0  0
   -4.7668   -7.9120   47.0677 C   0  0  2  0  0  0  0  0  0  0  0  0
   -4.7252   -6.6222   47.7941 O   0  0  0  0  0  0  0  0  0  0  0  0
    1.4719   -7.4430   48.0390 C   0  0  0  0  0  0  0  0  0  0  0  0
    0.9716   -6.2390   48.5672 O   0  0  0  0  0  0  0  0  0  0  0  0
    6.2778   -7.7704   42.9570 C   0  0  1  0  0  0  0  0  0  0  0  0
    7.0312   -8.6800   42.1829 O   0  0  0  0  0  0  0  0  0  0  0  0
   -4.2324   -9.0120   47.9724 C   0  0  0  0  0  0  0  0  0  0  0  0
   -4.9506   -9.0452   49.1819 O   0  0  0  0  0  0  0  0  0  0  0  0
   -2.3511   -6.2624   43.8888 C   0  0  0  0  0  0  0  0  0  0  0  0
  1  2  1  6  0  0  0
  1  7  1  0  0  0  0
  1 24  1  0  0  0  0
  3  4  1  1  0  0  0
  3  9  1  0  0  0  0
  3 31  1  0  0  0  0
  5  6  1  6  0  0  0
  5 10  1  0  0  0  0
  5 28  1  0  0  0  0
  7  8  1  6  0  0  0
  7 12  1  0  0  0  0
  9 14  1  0  0  0  0
 10 11  1  6  0  0  0
 10 16  1  0  0  0  0
 12 13  1  1  0  0  0
 12 18  1  0  0  0  0
 13 35  1  0  0  0  0
 14 15  1  1  0  0  0
 14 20  1  0  0  0  0
 16 17  1  6  0  0  0
 16 21  1  0  0  0  0
 17 35  1  0  0  0  0
 18 19  1  6  0  0  0
 18 23  1  0  0  0  0
 20  2  1  6  0  0  0
 20 25  1  0  0  0  0
 21 22  1  6  0  0  0
 21 27  1  0  0  0  0
 23 24  1  0  0  0  0
 23 29  1  1  0  0  0
 25 26  1  1  0  0  0
 25 31  1  0  0  0  0
 27 28  1  0  0  0  0
 27 33  1  1  0  0  0
 29 30  1  0  0  0  0
 31 32  1  6  0  0  0
 33 34  1  0  0  0  0
M  END
>  <CHROM.1>
-173.47639659,-156.99730159,-170.07267957,59.54692388,92.15626428,-167.86349585
-66.01053946,177.86375871,0.05515385,-7.22560228,45.03994065,-0.24461577
-0.21951823,2.16968272

>  <Name>
2o3v_lig

>  <RI>
0

>  <Rbt.Current_Directory>
/home/afrankz/demos/rdock_decoys_rna/rnas/2o3v

>  <Rbt.Executable>
rbdock ($Id: //depot/dev/client3/rdock/2013.1/src/exe/rbdock.cxx#4 $)

>  <Rbt.Library>
libRbt.so (2013.1, Build901 2013/11/27)

>  <Rbt.Parameter_File>
/export/apps/rDock/src/rDock_2013.1_src/data/scripts/dock_solv.prm

>  <Rbt.Receptor>
prm/pocket_docking_3.prm

>  <SCORE>
-12.6376

>  <SCORE.INTER>
-9.06093

>  <SCORE.INTER.CONST>
1

>  <SCORE.INTER.POLAR>
-0.0121225

>  <SCORE.INTER.ROT>
8

>  <SCORE.INTER.SOLV>
21.6461

>  <SCORE.INTER.VDW>
-22.1489

>  <SCORE.INTER.norm>
-0.258884

>  <SCORE.INTRA>
-3.57665

>  <SCORE.INTRA.DIHEDRAL>
-5.23295

>  <SCORE.INTRA.DIHEDRAL.0>
13.1227

>  <SCORE.INTRA.POLAR>
0

>  <SCORE.INTRA.POLAR.0>
0

>  <SCORE.INTRA.REPUL>
0

>  <SCORE.INTRA.REPUL.0>
0

>  <SCORE.INTRA.SOLV>
0.193091

>  <SCORE.INTRA.SOLV.lig_0>
-89.1587

>  <SCORE.INTRA.VDW>
-1.05672

>  <SCORE.INTRA.VDW.0>
-0.838383

>  <SCORE.INTRA.norm>
-0.10219

>  <SCORE.RESTR>
0

>  <SCORE.RESTR.CAVITY>
0

>  <SCORE.RESTR.norm>
0

>  <SCORE.SYSTEM>
0

>  <SCORE.SYSTEM.CONST>
0

>  <SCORE.SYSTEM.DIHEDRAL>
0

>  <SCORE.SYSTEM.SOLV>
0

>  <SCORE.SYSTEM.norm>
0

>  <SCORE.heavy>
35

>  <SCORE.norm>
-0.361074

>  <RMSD>
2.491

$$$$
2o3v_lig
 OpenBabel02141814113D
libRbt.so/2013.1/901 2013/11/27
 35 37  0  0  0  0  0  0  0  0999 V2000
    2.0629   -7.7759   44.3598 C   0  0  2  0  0  0  0  0  0  0  0  0
    2.9548   -6.6791   43.9932 O   0  0  0  0  0  0  0  0  0  0  0  0
    7.1553   -6.2237   42.9561 C   0  0  2  0  0  0  0  0  0  0  0  0
    8.6452   -6.2252   43.0665 N   0  0  0  0  0  0  0  0  0  0  0  0
   -5.7624   -7.6336   47.4052 C   0  0  2  0  0  0  0  0  0  0  0  0
   -6.1428   -8.3307   46.1990 O   0  0  0  0  0  0  0  0  0  0  0  0
    0.6425   -7.1710   44.1253 C   0  0  2  0  0  0  0  0  0  0  0  0
    0.4712   -6.7351   42.7193 N   0  0  0  0  0  0  0  0  0  0  0  0
    6.5301   -5.2140   44.0120 C   0  0  0  0  0  0  0  0  0  0  0  0
   -4.5396   -6.7173   47.0537 C   0  0  2  0  0  0  0  0  0  0  0  0
   -4.8784   -5.7739   45.9582 N   0  0  0  0  0  0  0  0  0  0  0  0
    0.3590   -5.9499   45.1041 C   0  0  1  0  0  0  0  0  0  0  0  0
   -0.9786   -5.3610   44.8349 O   0  0  0  0  0  0  0  0  0  0  0  0
    4.9455   -5.2401   43.8817 C   0  0  2  0  0  0  0  0  0  0  0  0
    4.3426   -4.3146   44.8648 N   0  0  0  0  0  0  0  0  0  0  0  0
   -3.2562   -7.5765   46.6670 C   0  0  1  0  0  0  0  0  0  0  0  0
   -2.0990   -6.7537   46.3691 O   0  0  0  0  0  0  0  0  0  0  0  0
    0.5510   -6.4786   46.5932 C   0  0  2  0  0  0  0  0  0  0  0  0
    0.3415   -5.4470   47.5407 O   0  0  0  0  0  0  0  0  0  0  0  0
    4.4081   -6.7104   44.1235 C   0  0  2  0  0  0  0  0  0  0  0  0
   -2.9306   -8.5410   47.8512 C   0  0  2  0  0  0  0  0  0  0  0  0
   -1.8013   -9.3401   47.5586 O   0  0  0  0  0  0  0  0  0  0  0  0
    1.9900   -7.0932   46.7810 C   0  0  2  0  0  0  0  0  0  0  0  0
    2.2085   -8.1669   45.7890 O   0  0  0  0  0  0  0  0  0  0  0  0
    5.0292   -7.6922   43.0907 C   0  0  2  0  0  0  0  0  0  0  0  0
    4.5238   -9.0232   43.3976 O   0  0  0  0  0  0  0  0  0  0  0  0
   -4.1889   -9.4416   48.1753 C   0  0  2  0  0  0  0  0  0  0  0  0
   -5.3656   -8.5928   48.4713 O   0  0  0  0  0  0  0  0  0  0  0  0
    2.1876   -7.6425   48.1931 C   0  0  0  0  0  0  0  0  0  0  0  0
    3.4945   -8.1326   48.3680 O   0  0  0  0  0  0  0  0  0  0  0  0
    6.5709   -7.6674   43.2116 C   0  0  1  0  0  0  0  0  0  0  0  0
    7.1095   -8.5617   42.2607 O   0  0  0  0  0  0  0  0  0  0  0  0
   -3.9332  -10.3693   49.3534 C   0  0  0  0  0  0  0  0  0  0  0  0
   -5.0358  -11.2193   49.5575 O   0  0  0  0  0  0  0  0  0  0  0  0
   -2.1238   -6.3366   44.9725 C   0  0  0  0  0  0  0  0  0  0  0  0
  1  2  1  1  0  0  0
  1  7  1  0  0  0  0
  1 24  1  0  0  0  0
  3  4  1  1  0  0  0
  3  9  1  0  0  0  0
  3 31  1  0  0  0  0
  5  6  1  6  0  0  0
  5 10  1  0  0  0  0
  5 28  1  0  0  0  0
  7  8  1  6  0  0  0
  7 12  1  0  0  0  0
  9 14  1  0  0  0  0
 10 11  1  6  0  0  0
 10 16  1  0  0  0  0
 12 13  1  1  0  0  0
 12 18  1  0  0  0  0
 13 35  1  0  0  0  0
 14 15  1  1  0  0  0
 14 20  1  0  0  0  0
 16 17  1  1  0  0  0
 16 21  1  0  0  0  0
 17 35  1  0  0  0  0
 18 19  1  1  0  0  0
 18 23  1  0  0  0  0
 20  2  1  6  0  0  0
 20 25  1  0  0  0  0
 21 22  1  6  0  0  0
 21 27  1  0  0  0  0
 23 24  1  0  0  0  0
 23 29  1  1  0  0  0
 25 26  1  1  0  0  0
 25 31  1  0  0  0  0
 27 28  1  0  0  0  0
 27 33  1  1  0  0  0
 29 30  1  0  0  0  0
 31 32  1  6  0  0  0
 33 34  1  0  0  0  0
M  END
>  <CHROM.1>
175.72095709,58.21744186,62.37724166,-85.42339947,173.23635897,-169.28563428
-177.28831453,-175.96883922,0.62989614,-7.35282775,45.71402638,-0.35870229
-0.18301584,2.40421565

>  <Name>
2o3v_lig

>  <RI>
0

>  <Rbt.Current_Directory>
/home/afrankz/demos/rdock_decoys_rna/rnas/2o3v

>  <Rbt.Executable>
rbdock ($Id: //depot/dev/client3/rdock/2013.1/src/exe/rbdock.cxx#4 $)

>  <Rbt.Library>
libRbt.so (2013.1, Build901 2013/11/27)

>  <Rbt.Parameter_File>
/export/apps/rDock/src/rDock_2013.1_src/data/scripts/dock_solv.prm

>  <Rbt.Receptor>
prm/pocket_docking_5.prm

>  <SCORE>
-12.6933

>  <SCORE.INTER>
-6.91421

>  <SCORE.INTER.CONST>
1

>  <SCORE.INTER.POLAR>
-0.854237

>  <SCORE.INTER.ROT>
8

>  <SCORE.INTER.SOLV>
16.8452

>  <SCORE.INTER.VDW>
-16.3104

>  <SCORE.INTER.norm>
-0.197549

>  <SCORE.INTRA>
-5.7791

>  <SCORE.INTRA.DIHEDRAL>
-9.33109

>  <SCORE.INTRA.DIHEDRAL.0>
13.1227

>  <SCORE.INTRA.POLAR>
0

>  <SCORE.INTRA.POLAR.0>
0

>  <SCORE.INTRA.REPUL>
0

>  <SCORE.INTRA.REPUL.0>
0

>  <SCORE.INTRA.SOLV>
0.371358

>  <SCORE.INTRA.SOLV.lig_0>
-89.1587

>  <SCORE.INTRA.VDW>
-1.29923

>  <SCORE.INTRA.VDW.0>
-0.838383

>  <SCORE.INTRA.norm>
-0.165117

>  <SCORE.RESTR>
0

>  <SCORE.RESTR.CAVITY>
0

>  <SCORE.RESTR.norm>
0

>  <SCORE.SYSTEM>
0

>  <SCORE.SYSTEM.CONST>
0

>  <SCORE.SYSTEM.DIHEDRAL>
0

>  <SCORE.SYSTEM.SOLV>
0

>  <SCORE.SYSTEM.norm>
0

>  <SCORE.heavy>
35

>  <SCORE.norm>
-0.362666

>  <RMSD>
2.511

$$$$
2o3v_lig
 OpenBabel02141814113D
libRbt.so/2013.1/901 2013/11/27
 35 37  0  0  0  0  0  0  0  0999 V2000
    1.6560   -9.4380   47.3149 C   0  0  2  0  0  0  0  0  0  0  0  0
    2.0324   -9.1530   45.9329 O   0  0  0  0  0  0  0  0  0  0  0  0
    5.7382   -8.8934   43.6686 C   0  0  2  0  0  0  0  0  0  0  0  0
    7.0762   -8.4226   43.1992 N   0  0  0  0  0  0  0  0  0  0  0  0
   -6.4252   -6.8362   48.4684 C   0  0  2  0  0  0  0  0  0  0  0  0
   -5.4885   -5.7835   48.1523 O   0  0  0  0  0  0  0  0  0  0  0  0
    0.1550   -9.8514   47.1952 C   0  0  2  0  0  0  0  0  0  0  0  0
   -0.0088  -11.0218   46.3009 N   0  0  0  0  0  0  0  0  0  0  0  0
    4.6543   -7.7490   43.4663 C   0  0  0  0  0  0  0  0  0  0  0  0
   -5.6020   -8.1563   48.6630 C   0  0  2  0  0  0  0  0  0  0  0  0
   -4.5790   -7.9941   49.7270 N   0  0  0  0  0  0  0  0  0  0  0  0
   -0.7426   -8.6469   46.6727 C   0  0  1  0  0  0  0  0  0  0  0  0
   -2.1583   -9.0734   46.5236 O   0  0  0  0  0  0  0  0  0  0  0  0
    3.2442   -8.2707   43.9836 C   0  0  2  0  0  0  0  0  0  0  0  0
    2.2222   -7.2154   43.8148 N   0  0  0  0  0  0  0  0  0  0  0  0
   -4.9176   -8.6251   47.3041 C   0  0  1  0  0  0  0  0  0  0  0  0
   -4.1759   -9.8637   47.4475 O   0  0  0  0  0  0  0  0  0  0  0  0
   -0.5310   -7.4267   47.6726 C   0  0  2  0  0  0  0  0  0  0  0  0
   -1.2774   -6.2920   47.2712 O   0  0  0  0  0  0  0  0  0  0  0  0
    3.3478   -8.6834   45.5094 C   0  0  2  0  0  0  0  0  0  0  0  0
   -6.0305   -8.7955   46.2220 C   0  0  2  0  0  0  0  0  0  0  0  0
   -5.4778   -9.2023   44.9857 O   0  0  0  0  0  0  0  0  0  0  0  0
    0.9967   -7.0532   47.7747 C   0  0  2  0  0  0  0  0  0  0  0  0
    1.7748   -8.2393   48.1899 O   0  0  0  0  0  0  0  0  0  0  0  0
    4.4142   -9.7984   45.6991 C   0  0  2  0  0  0  0  0  0  0  0  0
    4.4827  -10.0968   47.1229 O   0  0  0  0  0  0  0  0  0  0  0  0
   -6.8377   -7.4458   46.0609 C   0  0  2  0  0  0  0  0  0  0  0  0
   -7.4036   -7.0270   47.3637 O   0  0  0  0  0  0  0  0  0  0  0  0
    1.2317   -5.9074   48.7579 C   0  0  0  0  0  0  0  0  0  0  0  0
    0.8726   -6.2803   50.0659 O   0  0  0  0  0  0  0  0  0  0  0  0
    5.7870   -9.2963   45.1938 C   0  0  1  0  0  0  0  0  0  0  0  0
    6.7348  -10.3278   45.3718 O   0  0  0  0  0  0  0  0  0  0  0  0
   -7.9635   -7.5766   45.0463 C   0  0  0  0  0  0  0  0  0  0  0  0
   -8.6706   -6.3648   44.9383 O   0  0  0  0  0  0  0  0  0  0  0  0
   -2.7892   -9.5825   47.7984 C   0  0  0  0  0  0  0  0  0  0  0  0
  1  2  1  6  0  0  0
  1  7  1  0  0  0  0
  1 24  1  0  0  0  0
  3  4  1  1  0  0  0
  3  9  1  0  0  0  0
  3 31  1  0  0  0  0
  5  6  1  6  0  0  0
  5 10  1  0  0  0  0
  5 28  1  0  0  0  0
  7  8  1  6  0  0  0
  7 12  1  0  0  0  0
  9 14  1  0  0  0  0
 10 11  1  1  0  0  0
 10 16  1  0  0  0  0
 12 13  1  1  0  0  0
 12 18  1  0  0  0  0
 13 35  1  0  0  0  0
 14 15  1  1  0  0  0
 14 20  1  0  0  0  0
 16 17  1  1  0  0  0
 16 21  1  0  0  0  0
 17 35  1  0  0  0  0
 18 19  1  6  0  0  0
 18 23  1  0  0  0  0
 20  2  1  6  0  0  0
 20 25  1  0  0  0  0
 21 22  1  6  0  0  0
 21 27  1  0  0  0  0
 23 24  1  0  0  0  0
 23 29  1  1  0  0  0
 25 26  1  1  0  0  0
 25 31  1  0  0  0  0
 27 28  1  0  0  0  0
 27 33  1  6  0  0  0
 29 30  1  0  0  0  0
 31 32  1  6  0  0  0
 33 34  1  0  0  0  0
M  END
>  <CHROM.1>
178.20455334,58.83774374,176.68117705,-90.86569343,-74.17575265,-170.48751150
63.80536988,179.32085575,-0.75524769,-8.28389142,46.56025887,-0.17661087
-0.07855846,1.32518186

>  <Name>
2o3v_lig

>  <RI>
0

>  <Rbt.Current_Directory>
/home/afrankz/demos/rdock_decoys_rna/rnas/2o3v

>  <Rbt.Executable>
rbdock ($Id: //depot/dev/client3/rdock/2013.1/src/exe/rbdock.cxx#4 $)

>  <Rbt.Library>
libRbt.so (2013.1, Build901 2013/11/27)

>  <Rbt.Parameter_File>
/export/apps/rDock/src/rDock_2013.1_src/data/scripts/dock_solv.prm

>  <Rbt.Receptor>
prm/pocket_docking_3.prm

>  <SCORE>
-7.28276

>  <SCORE.INTER>
-1.7614

>  <SCORE.INTER.CONST>
1

>  <SCORE.INTER.POLAR>
0

>  <SCORE.INTER.ROT>
8

>  <SCORE.INTER.SOLV>
11.8798

>  <SCORE.INTER.VDW>
-14.0675

>  <SCORE.INTER.norm>
-0.0503257

>  <SCORE.INTRA>
-5.52136

>  <SCORE.INTRA.DIHEDRAL>
-7.7959

>  <SCORE.INTRA.DIHEDRAL.0>
13.1227

>  <SCORE.INTRA.POLAR>
0

>  <SCORE.INTRA.POLAR.0>
0

>  <SCORE.INTRA.REPUL>
0.00177584

>  <SCORE.INTRA.REPUL.0>
0

>  <SCORE.INTRA.SOLV>
0.124622

>  <SCORE.INTRA.SOLV.lig_0>
-89.1587

>  <SCORE.INTRA.VDW>
-1.69461

>  <SCORE.INTRA.VDW.0>
-0.838383

>  <SCORE.INTRA.norm>
-0.157753

>  <SCORE.RESTR>
0

>  <SCORE.RESTR.CAVITY>
0

>  <SCORE.RESTR.norm>
0

>  <SCORE.SYSTEM>
0

>  <SCORE.SYSTEM.CONST>
0

>  <SCORE.SYSTEM.DIHEDRAL>
0

>  <SCORE.SYSTEM.SOLV>
0

>  <SCORE.SYSTEM.norm>
0

>  <SCORE.heavy>
35

>  <SCORE.norm>
-0.208079

>  <RMSD>
2.516

$$$$
2o3v_lig
 OpenBabel02141814113D
libRbt.so/2013.1/901 2013/11/27
 35 37  0  0  0  0  0  0  0  0999 V2000
    2.0233   -8.1867   44.1638 C   0  0  2  0  0  0  0  0  0  0  0  0
    2.8006   -6.9682   43.9545 O   0  0  0  0  0  0  0  0  0  0  0  0
    6.9420   -6.1998   42.8657 C   0  0  2  0  0  0  0  0  0  0  0  0
    8.4279   -6.0774   42.9618 N   0  0  0  0  0  0  0  0  0  0  0  0
   -6.1671   -6.1560   45.7620 C   0  0  2  0  0  0  0  0  0  0  0  0
   -5.9708   -6.6204   44.4088 O   0  0  0  0  0  0  0  0  0  0  0  0
    0.5558   -7.7196   43.9061 C   0  0  2  0  0  0  0  0  0  0  0  0
    0.4017   -7.1660   42.5400 N   0  0  0  0  0  0  0  0  0  0  0  0
    6.2446   -5.2172   43.9018 C   0  0  0  0  0  0  0  0  0  0  0  0
   -4.8684   -5.3887   46.1897 C   0  0  2  0  0  0  0  0  0  0  0  0
   -4.5822   -4.2665   45.2603 N   0  0  0  0  0  0  0  0  0  0  0  0
    0.0896   -6.6410   44.9780 C   0  0  1  0  0  0  0  0  0  0  0  0
   -1.2923   -6.1772   44.6891 O   0  0  0  0  0  0  0  0  0  0  0  0
    4.6665   -5.3755   43.7875 C   0  0  2  0  0  0  0  0  0  0  0  0
    3.9975   -4.4769   44.7526 N   0  0  0  0  0  0  0  0  0  0  0  0
   -3.6144   -6.3655   46.2805 C   0  0  1  0  0  0  0  0  0  0  0  0
   -2.4048   -5.6876   46.7070 O   0  0  0  0  0  0  0  0  0  0  0  0
    0.2709   -7.2924   46.4190 C   0  0  2  0  0  0  0  0  0  0  0  0
   -0.0987   -6.3901   47.4461 O   0  0  0  0  0  0  0  0  0  0  0  0
    4.2526   -6.8779   44.0715 C   0  0  2  0  0  0  0  0  0  0  0  0
   -3.9558   -7.5185   47.2768 C   0  0  2  0  0  0  0  0  0  0  0  0
   -2.8779   -8.4267   47.3900 O   0  0  0  0  0  0  0  0  0  0  0  0
    1.7602   -7.7626   46.6304 C   0  0  2  0  0  0  0  0  0  0  0  0
    2.1457   -8.7011   45.5556 O   0  0  0  0  0  0  0  0  0  0  0  0
    4.9438   -7.8324   43.0578 C   0  0  2  0  0  0  0  0  0  0  0  0
    4.5509   -9.1916   43.4031 O   0  0  0  0  0  0  0  0  0  0  0  0
   -5.2715   -8.2615   46.8121 C   0  0  2  0  0  0  0  0  0  0  0  0
   -6.3895   -7.2982   46.6895 O   0  0  0  0  0  0  0  0  0  0  0  0
    1.9530   -8.4260   47.9933 C   0  0  0  0  0  0  0  0  0  0  0  0
    1.1474   -9.5725   48.1174 O   0  0  0  0  0  0  0  0  0  0  0  0
    6.4792   -7.6791   43.1632 C   0  0  1  0  0  0  0  0  0  0  0  0
    7.0817   -8.5511   42.2300 O   0  0  0  0  0  0  0  0  0  0  0  0
   -5.6689   -9.3674   47.7780 C   0  0  0  0  0  0  0  0  0  0  0  0
   -6.8596   -9.9857   47.3537 O   0  0  0  0  0  0  0  0  0  0  0  0
   -1.7613   -5.0423   45.5691 C   0  0  0  0  0  0  0  0  0  0  0  0
  1  2  1  1  0  0  0
  1  7  1  0  0  0  0
  1 24  1  0  0  0  0
  3  4  1  1  0  0  0
  3  9  1  0  0  0  0
  3 31  1  0  0  0  0
  5  6  1  6  0  0  0
  5 10  1  0  0  0  0
  5 28  1  0  0  0  0
  7  8  1  6  0  0  0
  7 12  1  0  0  0  0
  9 14  1  0  0  0  0
 10 11  1  6  0  0  0
 10 16  1  0  0  0  0
 12 13  1  6  0  0  0
 12 18  1  0  0  0  0
 13 35  1  0  0  0  0
 14 15  1  1  0  0  0
 14 20  1  0  0  0  0
 16 17  1  1  0  0  0
 16 21  1  0  0  0  0
 17 35  1  0  0  0  0
 18 19  1  1  0  0  0
 18 23  1  0  0  0  0
 20  2  1  6  0  0  0
 20 25  1  0  0  0  0
 21 22  1  6  0  0  0
 21 27  1  0  0  0  0
 23 24  1  0  0  0  0
 23 29  1  1  0  0  0
 25 26  1  1  0  0  0
 25 31  1  0  0  0  0
 27 28  1  0  0  0  0
 27 33  1  1  0  0  0
 29 30  1  0  0  0  0
 31 32  1  6  0  0  0
 33 34  1  0  0  0  0
M  END
>  <CHROM.1>
-179.64598144,-173.71971001,-90.93436165,-83.22781540,-67.08054068,-179.04968376
61.11220214,178.55545181,0.20246146,-7.14615231,45.28545365,-0.16751935,-0.21965184
2.57135210

>  <Name>
2o3v_lig

>  <RI>
0

>  <Rbt.Current_Directory>
/home/afrankz/demos/rdock_decoys_rna/rnas/2o3v

>  <Rbt.Executable>
rbdock ($Id: //depot/dev/client3/rdock/2013.1/src/exe/rbdock.cxx#4 $)

>  <Rbt.Library>
libRbt.so (2013.1, Build901 2013/11/27)

>  <Rbt.Parameter_File>
/export/apps/rDock/src/rDock_2013.1_src/data/scripts/dock_solv.prm

>  <Rbt.Receptor>
prm/pocket_docking_3.prm

>  <SCORE>
-11.3059

>  <SCORE.INTER>
-7.07489

>  <SCORE.INTER.CONST>
1

>  <SCORE.INTER.POLAR>
-0.690775

>  <SCORE.INTER.ROT>
8

>  <SCORE.INTER.SOLV>
18.1692

>  <SCORE.INTER.VDW>
-17.4037

>  <SCORE.INTER.norm>
-0.20214

>  <SCORE.INTRA>
-4.23103

>  <SCORE.INTRA.DIHEDRAL>
-6.49387

>  <SCORE.INTRA.DIHEDRAL.0>
13.1227

>  <SCORE.INTRA.POLAR>
0

>  <SCORE.INTRA.POLAR.0>
0

>  <SCORE.INTRA.REPUL>
0

>  <SCORE.INTRA.REPUL.0>
0

>  <SCORE.INTRA.SOLV>
0.632869

>  <SCORE.INTRA.SOLV.lig_0>
-89.1587

>  <SCORE.INTRA.VDW>
-1.30053

>  <SCORE.INTRA.VDW.0>
-0.838383

>  <SCORE.INTRA.norm>
-0.120887

>  <SCORE.RESTR>
0

>  <SCORE.RESTR.CAVITY>
0

>  <SCORE.RESTR.norm>
0

>  <SCORE.SYSTEM>
0

>  <SCORE.SYSTEM.CONST>
0

>  <SCORE.SYSTEM.DIHEDRAL>
0

>  <SCORE.SYSTEM.SOLV>
0

>  <SCORE.SYSTEM.norm>
0

>  <SCORE.heavy>
35

>  <SCORE.norm>
-0.323026

>  <RMSD>
2.521

$$$$
2o3v_lig
 OpenBabel02141814113D
libRbt.so/2013.1/901 2013/11/27
 35 37  0  0  0  0  0  0  0  0999 V2000
    0.7324   -9.6386   46.0000 C   0  0  2  0  0  0  0  0  0  0  0  0
    1.4737   -8.8739   45.0007 O   0  0  0  0  0  0  0  0  0  0  0  0
    5.6468   -8.7993   43.7731 C   0  0  2  0  0  0  0  0  0  0  0  0
    7.1169   -8.5331   43.7824 N   0  0  0  0  0  0  0  0  0  0  0  0
   -7.0200   -9.4049   45.7148 C   0  0  2  0  0  0  0  0  0  0  0  0
   -6.4470   -9.1673   47.0190 O   0  0  0  0  0  0  0  0  0  0  0  0
   -0.7143   -9.6792   45.4136 C   0  0  2  0  0  0  0  0  0  0  0  0
   -0.7319  -10.3130   44.0741 N   0  0  0  0  0  0  0  0  0  0  0  0
    4.8431   -7.4283   43.7812 C   0  0  0  0  0  0  0  0  0  0  0  0
   -5.9108   -9.0978   44.6501 C   0  0  2  0  0  0  0  0  0  0  0  0
   -4.7053   -9.9335   44.8805 N   0  0  0  0  0  0  0  0  0  0  0  0
   -1.3503   -8.2240   45.3272 C   0  0  1  0  0  0  0  0  0  0  0  0
   -2.7083   -8.2795   44.7261 O   0  0  0  0  0  0  0  0  0  0  0  0
    3.2838   -7.7394   43.7829 C   0  0  2  0  0  0  0  0  0  0  0  0
    2.5166   -6.4755   43.8021 N   0  0  0  0  0  0  0  0  0  0  0  0
   -5.5205   -7.5543   44.6398 C   0  0  1  0  0  0  0  0  0  0  0  0
   -4.5190   -7.2354   43.6399 O   0  0  0  0  0  0  0  0  0  0  0  0
   -1.3100   -7.5990   46.7906 C   0  0  2  0  0  0  0  0  0  0  0  0
   -1.8372   -6.2846   46.8077 O   0  0  0  0  0  0  0  0  0  0  0  0
    2.9098   -8.6178   45.0469 C   0  0  2  0  0  0  0  0  0  0  0  0
   -6.8136   -6.7180   44.3810 C   0  0  2  0  0  0  0  0  0  0  0  0
   -6.5286   -5.3330   44.3717 O   0  0  0  0  0  0  0  0  0  0  0  0
    0.1638   -7.5915   47.3488 C   0  0  2  0  0  0  0  0  0  0  0  0
    0.7139   -8.9631   47.3266 O   0  0  0  0  0  0  0  0  0  0  0  0
    3.7046   -9.9536   45.0343 C   0  0  2  0  0  0  0  0  0  0  0  0
    3.3420  -10.6868   46.2393 O   0  0  0  0  0  0  0  0  0  0  0  0
   -7.9053   -7.0608   45.4719 C   0  0  2  0  0  0  0  0  0  0  0  0
   -8.1880   -8.5144   45.4767 O   0  0  0  0  0  0  0  0  0  0  0  0
    0.2251   -7.0300   48.7686 C   0  0  0  0  0  0  0  0  0  0  0  0
    1.5408   -7.0521   49.2659 O   0  0  0  0  0  0  0  0  0  0  0  0
    5.2223   -9.6556   45.0291 C   0  0  1  0  0  0  0  0  0  0  0  0
    5.9201  -10.8831   45.0119 O   0  0  0  0  0  0  0  0  0  0  0  0
   -9.2015   -6.3007   45.2345 C   0  0  0  0  0  0  0  0  0  0  0  0
   -8.9936   -4.9170   45.3829 O   0  0  0  0  0  0  0  0  0  0  0  0
   -3.2437   -6.9389   44.2810 C   0  0  0  0  0  0  0  0  0  0  0  0
  1  2  1  6  0  0  0
  1  7  1  0  0  0  0
  1 24  1  0  0  0  0
  3  4  1  1  0  0  0
  3  9  1  0  0  0  0
  3 31  1  0  0  0  0
  5  6  1  1  0  0  0
  5 10  1  0  0  0  0
  5 28  1  0  0  0  0
  7  8  1  6  0  0  0
  7 12  1  0  0  0  0
  9 14  1  0  0  0  0
 10 11  1  1  0  0  0
 10 16  1  0  0  0  0
 12 13  1  1  0  0  0
 12 18  1  0  0  0  0
 13 35  1  0  0  0  0
 14 15  1  1  0  0  0
 14 20  1  0  0  0  0
 16 17  1  6  0  0  0
 16 21  1  0  0  0  0
 17 35  1  0  0  0  0
 18 19  1  6  0  0  0
 18 23  1  0  0  0  0
 20  2  1  6  0  0  0
 20 25  1  0  0  0  0
 21 22  1  1  0  0  0
 21 27  1  0  0  0  0
 23 24  1  0  0  0  0
 23 29  1  1  0  0  0
 25 26  1  1  0  0  0
 25 31  1  0  0  0  0
 27 28  1  0  0  0  0
 27 33  1  6  0  0  0
 29 30  1  0  0  0  0
 31 32  1  6  0  0  0
 33 34  1  0  0  0  0
M  END
>  <CHROM.1>
-176.32077639,-165.17176208,175.80585658,-108.54346149,74.44821772,-179.27474962
178.85605760,-64.64463528,-1.31781077,-8.16773371,45.37864986,-0.02572344
-0.14842211,1.48876746

>  <Name>
2o3v_lig

>  <RI>
0

>  <Rbt.Current_Directory>
/home/afrankz/demos/rdock_decoys_rna/rnas/2o3v

>  <Rbt.Executable>
rbdock ($Id: //depot/dev/client3/rdock/2013.1/src/exe/rbdock.cxx#4 $)

>  <Rbt.Library>
libRbt.so (2013.1, Build901 2013/11/27)

>  <Rbt.Parameter_File>
/export/apps/rDock/src/rDock_2013.1_src/data/scripts/dock_solv.prm

>  <Rbt.Receptor>
prm/pocket_docking_3.prm

>  <SCORE>
-5.17924

>  <SCORE.INTER>
-1.92583

>  <SCORE.INTER.CONST>
1

>  <SCORE.INTER.POLAR>
0

>  <SCORE.INTER.ROT>
8

>  <SCORE.INTER.SOLV>
11.9529

>  <SCORE.INTER.VDW>
-14.2015

>  <SCORE.INTER.norm>
-0.0550237

>  <SCORE.INTRA>
-3.25341

>  <SCORE.INTRA.DIHEDRAL>
-4.26246

>  <SCORE.INTRA.DIHEDRAL.0>
13.1227

>  <SCORE.INTRA.POLAR>
0

>  <SCORE.INTRA.POLAR.0>
0

>  <SCORE.INTRA.REPUL>
0

>  <SCORE.INTRA.REPUL.0>
0

>  <SCORE.INTRA.SOLV>
1.28016

>  <SCORE.INTRA.SOLV.lig_0>
-89.1587

>  <SCORE.INTRA.VDW>
-1.76226

>  <SCORE.INTRA.VDW.0>
-0.838383

>  <SCORE.INTRA.norm>
-0.0929545

>  <SCORE.RESTR>
0

>  <SCORE.RESTR.CAVITY>
0

>  <SCORE.RESTR.norm>
0

>  <SCORE.SYSTEM>
0

>  <SCORE.SYSTEM.CONST>
0

>  <SCORE.SYSTEM.DIHEDRAL>
0

>  <SCORE.SYSTEM.SOLV>
0

>  <SCORE.SYSTEM.norm>
0

>  <SCORE.heavy>
35

>  <SCORE.norm>
-0.147978

>  <RMSD>
2.531

$$$$
2o3v_lig
 OpenBabel02141814113D
libRbt.so/2013.1/901 2013/11/27
 35 37  0  0  0  0  0  0  0  0999 V2000
    1.2175   -8.7641   46.0154 C   0  0  2  0  0  0  0  0  0  0  0  0
    1.4752   -8.6662   44.5812 O   0  0  0  0  0  0  0  0  0  0  0  0
    5.6271   -7.4164   44.2247 C   0  0  2  0  0  0  0  0  0  0  0  0
    6.9853   -7.1769   43.6501 N   0  0  0  0  0  0  0  0  0  0  0  0
   -5.9796   -8.4434   50.3186 C   0  0  2  0  0  0  0  0  0  0  0  0
   -5.1653   -7.5458   51.1039 O   0  0  0  0  0  0  0  0  0  0  0  0
   -0.3415   -8.8067   46.0931 C   0  0  2  0  0  0  0  0  0  0  0  0
   -0.8848   -9.9557   45.3309 N   0  0  0  0  0  0  0  0  0  0  0  0
    5.3129   -8.9739   44.2537 C   0  0  0  0  0  0  0  0  0  0  0  0
   -5.2342   -8.6901   48.9615 C   0  0  2  0  0  0  0  0  0  0  0  0
   -3.8753   -9.2423   49.1929 N   0  0  0  0  0  0  0  0  0  0  0  0
   -0.9899   -7.4552   45.5616 C   0  0  1  0  0  0  0  0  0  0  0  0
   -2.4733   -7.5331   45.6024 O   0  0  0  0  0  0  0  0  0  0  0  0
    3.8595   -9.2002   44.8577 C   0  0  2  0  0  0  0  0  0  0  0  0
    3.5422  -10.6442   44.8829 N   0  0  0  0  0  0  0  0  0  0  0  0
   -5.1502   -7.3606   48.0896 C   0  0  1  0  0  0  0  0  0  0  0  0
   -4.4941   -7.5677   46.8124 O   0  0  0  0  0  0  0  0  0  0  0  0
   -0.3756   -6.2630   46.4188 C   0  0  2  0  0  0  0  0  0  0  0  0
   -0.8795   -5.0082   45.9975 O   0  0  0  0  0  0  0  0  0  0  0  0
    2.7863   -8.4264   43.9866 C   0  0  2  0  0  0  0  0  0  0  0  0
   -6.5995   -6.8259   47.8609 C   0  0  2  0  0  0  0  0  0  0  0  0
   -6.5863   -5.6353   47.0980 O   0  0  0  0  0  0  0  0  0  0  0  0
    1.1975   -6.2666   46.3244 C   0  0  2  0  0  0  0  0  0  0  0  0
    1.7216   -7.5779   46.7607 O   0  0  0  0  0  0  0  0  0  0  0  0
    3.1046   -6.9052   43.9585 C   0  0  2  0  0  0  0  0  0  0  0  0
    2.1060   -6.2676   43.1116 O   0  0  0  0  0  0  0  0  0  0  0  0
   -7.3154   -6.5956   49.2515 C   0  0  2  0  0  0  0  0  0  0  0  0
   -7.3147   -7.8470   50.0432 O   0  0  0  0  0  0  0  0  0  0  0  0
    1.8148   -5.1532   47.1695 C   0  0  0  0  0  0  0  0  0  0  0  0
    1.4543   -3.8852   46.6785 O   0  0  0  0  0  0  0  0  0  0  0  0
    4.5192   -6.6806   43.3748 C   0  0  1  0  0  0  0  0  0  0  0  0
    4.7853   -5.2938   43.3656 O   0  0  0  0  0  0  0  0  0  0  0  0
   -8.7483   -6.1151   49.0782 C   0  0  0  0  0  0  0  0  0  0  0  0
   -8.7721   -4.8629   48.4367 O   0  0  0  0  0  0  0  0  0  0  0  0
   -3.0496   -7.6425   46.9945 C   0  0  0  0  0  0  0  0  0  0  0  0
  1  2  1  6  0  0  0
  1  7  1  0  0  0  0
  1 24  1  0  0  0  0
  3  4  1  6  0  0  0
  3  9  1  0  0  0  0
  3 31  1  0  0  0  0
  5  6  1  1  0  0  0
  5 10  1  0  0  0  0
  5 28  1  0  0  0  0
  7  8  1  6  0  0  0
  7 12  1  0  0  0  0
  9 14  1  0  0  0  0
 10 11  1  1  0  0  0
 10 16  1  0  0  0  0
 12 13  1  1  0  0  0
 12 18  1  0  0  0  0
 13 35  1  0  0  0  0
 14 15  1  6  0  0  0
 14 20  1  0  0  0  0
 16 17  1  6  0  0  0
 16 21  1  0  0  0  0
 17 35  1  0  0  0  0
 18 19  1  6  0  0  0
 18 23  1  0  0  0  0
 20  2  1  1  0  0  0
 20 25  1  0  0  0  0
 21 22  1  1  0  0  0
 21 27  1  0  0  0  0
 23 24  1  0  0  0  0
 23 29  1  1  0  0  0
 25 26  1  6  0  0  0
 25 31  1  0  0  0  0
 27 28  1  0  0  0  0
 27 33  1  6  0  0  0
 29 30  1  0  0  0  0
 31 32  1  1  0  0  0
 33 34  1  0  0  0  0
M  END
>  <CHROM.1>
171.86739262,65.13381447,174.39765057,-77.13771539,-167.23489756,36.84416779
-64.76684401,-63.08898110,-0.99508576,-7.28480820,46.45304869,-0.03733958
-0.40649849,2.94667303

>  <Name>
2o3v_lig

>  <RI>
0

>  <Rbt.Current_Directory>
/home/afrankz/demos/rdock_decoys_rna/rnas/2o3v

>  <Rbt.Executable>
rbdock ($Id: //depot/dev/client3/rdock/2013.1/src/exe/rbdock.cxx#4 $)

>  <Rbt.Library>
libRbt.so (2013.1, Build901 2013/11/27)

>  <Rbt.Parameter_File>
/export/apps/rDock/src/rDock_2013.1_src/data/scripts/dock_solv.prm

>  <Rbt.Receptor>
prm/pocket_docking_3.prm

>  <SCORE>
-6.32862

>  <SCORE.INTER>
-2.02795

>  <SCORE.INTER.CONST>
1

>  <SCORE.INTER.POLAR>
-0.15278

>  <SCORE.INTER.ROT>
8

>  <SCORE.INTER.SOLV>
10.2169

>  <SCORE.INTER.VDW>
-13.1817

>  <SCORE.INTER.norm>
-0.0579413

>  <SCORE.INTRA>
-4.31177

>  <SCORE.INTRA.DIHEDRAL>
-7.89411

>  <SCORE.INTRA.DIHEDRAL.0>
13.1227

>  <SCORE.INTRA.POLAR>
0

>  <SCORE.INTRA.POLAR.0>
0

>  <SCORE.INTRA.REPUL>
0

>  <SCORE.INTRA.REPUL.0>
0

>  <SCORE.INTRA.SOLV>
1.10448

>  <SCORE.INTRA.SOLV.lig_0>
-89.1587

>  <SCORE.INTRA.VDW>
-0.916955

>  <SCORE.INTRA.VDW.0>
-0.838383

>  <SCORE.INTRA.norm>
-0.123193

>  <SCORE.RESTR>
0.0110941

>  <SCORE.RESTR.CAVITY>
0.0110941

>  <SCORE.RESTR.norm>
0.000316976

>  <SCORE.SYSTEM>
0

>  <SCORE.SYSTEM.CONST>
0

>  <SCORE.SYSTEM.DIHEDRAL>
0

>  <SCORE.SYSTEM.SOLV>
0

>  <SCORE.SYSTEM.norm>
0

>  <SCORE.heavy>
35

>  <SCORE.norm>
-0.180818

>  <RMSD>
2.533

$$$$
2o3v_lig
 OpenBabel02141814113D
libRbt.so/2013.1/901 2013/11/27
 35 37  0  0  0  0  0  0  0  0999 V2000
    2.1405   -9.2043   44.6037 C   0  0  2  0  0  0  0  0  0  0  0  0
    2.5702   -7.8878   44.1401 O   0  0  0  0  0  0  0  0  0  0  0  0
    6.2569   -6.4138   42.3617 C   0  0  2  0  0  0  0  0  0  0  0  0
    7.6700   -5.9493   42.2217 N   0  0  0  0  0  0  0  0  0  0  0  0
   -4.8330   -4.9662   46.5031 C   0  0  2  0  0  0  0  0  0  0  0  0
   -6.2019   -4.9687   46.0431 O   0  0  0  0  0  0  0  0  0  0  0  0
    0.5907   -9.1565   44.4189 C   0  0  2  0  0  0  0  0  0  0  0  0
    0.2272   -8.8969   43.0059 N   0  0  0  0  0  0  0  0  0  0  0  0
    5.4594   -5.4496   43.3414 C   0  0  0  0  0  0  0  0  0  0  0  0
   -3.9301   -5.4007   45.2971 C   0  0  2  0  0  0  0  0  0  0  0  0
   -4.1205   -4.4951   44.1358 N   0  0  0  0  0  0  0  0  0  0  0  0
   -0.0754   -8.0568   45.3552 C   0  0  1  0  0  0  0  0  0  0  0  0
   -1.5433   -7.9967   45.1321 O   0  0  0  0  0  0  0  0  0  0  0  0
    3.9641   -5.9720   43.4820 C   0  0  2  0  0  0  0  0  0  0  0  0
    3.2067   -5.0943   44.3998 N   0  0  0  0  0  0  0  0  0  0  0  0
   -4.2065   -6.9102   44.8729 C   0  0  1  0  0  0  0  0  0  0  0  0
   -3.3602   -7.3497   43.7796 O   0  0  0  0  0  0  0  0  0  0  0  0
    0.3433   -8.3906   46.8541 C   0  0  2  0  0  0  0  0  0  0  0  0
   -0.1871   -7.4435   47.7638 O   0  0  0  0  0  0  0  0  0  0  0  0
    3.9607   -7.4583   44.0300 C   0  0  2  0  0  0  0  0  0  0  0  0
   -3.9809   -7.8241   46.1189 C   0  0  2  0  0  0  0  0  0  0  0  0
   -4.2233   -9.1810   45.8031 O   0  0  0  0  0  0  0  0  0  0  0  0
    1.9124   -8.4438   46.9918 C   0  0  2  0  0  0  0  0  0  0  0  0
    2.4648   -9.4297   46.0392 O   0  0  0  0  0  0  0  0  0  0  0  0
    4.7479   -8.3929   43.0693 C   0  0  2  0  0  0  0  0  0  0  0  0
    4.7367   -9.7266   43.6542 O   0  0  0  0  0  0  0  0  0  0  0  0
   -4.9051   -7.3497   47.3106 C   0  0  2  0  0  0  0  0  0  0  0  0
   -4.6472   -5.9258   47.6251 O   0  0  0  0  0  0  0  0  0  0  0  0
    2.3410   -8.7996   48.4146 C   0  0  0  0  0  0  0  0  0  0  0  0
    3.7422   -8.8654   48.5205 O   0  0  0  0  0  0  0  0  0  0  0  0
    6.2023   -7.8864   42.9268 C   0  0  1  0  0  0  0  0  0  0  0  0
    6.8927   -8.7479   42.0464 O   0  0  0  0  0  0  0  0  0  0  0  0
   -4.6878   -8.1851   48.5631 C   0  0  0  0  0  0  0  0  0  0  0  0
   -5.0663   -9.5209   48.3342 O   0  0  0  0  0  0  0  0  0  0  0  0
   -1.9671   -7.0225   44.0581 C   0  0  0  0  0  0  0  0  0  0  0  0
  1  2  1  1  0  0  0
  1  7  1  0  0  0  0
  1 24  1  0  0  0  0
  3  4  1  1  0  0  0
  3  9  1  0  0  0  0
  3 31  1  0  0  0  0
  5  6  1  6  0  0  0
  5 10  1  0  0  0  0
  5 28  1  0  0  0  0
  7  8  1  6  0  0  0
  7 12  1  0  0  0  0
  9 14  1  0  0  0  0
 10 11  1  6  0  0  0
 10 16  1  0  0  0  0
 12 13  1  1  0  0  0
 12 18  1  0  0  0  0
 13 35  1  0  0  0  0
 14 15  1  1  0  0  0
 14 20  1  0  0  0  0
 16 17  1  6  0  0  0
 16 21  1  0  0  0  0
 17 35  1  0  0  0  0
 18 19  1  1  0  0  0
 18 23  1  0  0  0  0
 20  2  1  6  0  0  0
 20 25  1  0  0  0  0
 21 22  1  6  0  0  0
 21 27  1  0  0  0  0
 23 24  1  0  0  0  0
 23 29  1  1  0  0  0
 25 26  1  1  0  0  0
 25 31  1  0  0  0  0
 27 28  1  0  0  0  0
 27 33  1  1  0  0  0
 29 30  1  0  0  0  0
 31 32  1  6  0  0  0
 33 34  1  0  0  0  0
M  END
>  <CHROM.1>
-175.87606157,-90.00737431,166.70080436,49.39724054,72.91752955,179.68791143
179.04882820,-64.07285905,0.28696338,-7.53678301,45.21159147,-0.18115694
-0.23615815,2.25763293

>  <Name>
2o3v_lig

>  <RI>
0

>  <Rbt.Current_Directory>
/home/afrankz/demos/rdock_decoys_rna/rnas/2o3v

>  <Rbt.Executable>
rbdock ($Id: //depot/dev/client3/rdock/2013.1/src/exe/rbdock.cxx#4 $)

>  <Rbt.Library>
libRbt.so (2013.1, Build901 2013/11/27)

>  <Rbt.Parameter_File>
/export/apps/rDock/src/rDock_2013.1_src/data/scripts/dock_solv.prm

>  <Rbt.Receptor>
prm/pocket_docking_6.prm

>  <SCORE>
-10.1845

>  <SCORE.INTER>
-7.50489

>  <SCORE.INTER.CONST>
1

>  <SCORE.INTER.POLAR>
0

>  <SCORE.INTER.ROT>
8

>  <SCORE.INTER.SOLV>
18.8133

>  <SCORE.INTER.VDW>
-20.2077

>  <SCORE.INTER.norm>
-0.214425

>  <SCORE.INTRA>
-2.67964

>  <SCORE.INTRA.DIHEDRAL>
-7.16217

>  <SCORE.INTRA.DIHEDRAL.0>
13.1227

>  <SCORE.INTRA.POLAR>
0

>  <SCORE.INTRA.POLAR.0>
0

>  <SCORE.INTRA.REPUL>
0

>  <SCORE.INTRA.REPUL.0>
0

>  <SCORE.INTRA.SOLV>
0.394456

>  <SCORE.INTRA.SOLV.lig_0>
-89.1587

>  <SCORE.INTRA.VDW>
0.704219

>  <SCORE.INTRA.VDW.0>
-0.838383

>  <SCORE.INTRA.norm>
-0.0765611

>  <SCORE.RESTR>
0

>  <SCORE.RESTR.CAVITY>
0

>  <SCORE.RESTR.norm>
0

>  <SCORE.SYSTEM>
0

>  <SCORE.SYSTEM.CONST>
0

>  <SCORE.SYSTEM.DIHEDRAL>
0

>  <SCORE.SYSTEM.SOLV>
0

>  <SCORE.SYSTEM.norm>
0

>  <SCORE.heavy>
35

>  <SCORE.norm>
-0.290987

>  <RMSD>
2.537

$$$$
2o3v_lig
 OpenBabel02141814113D
libRbt.so/2013.1/901 2013/11/27
 35 37  0  0  0  0  0  0  0  0999 V2000
    1.9540   -8.0184   44.2891 C   0  0  2  0  0  0  0  0  0  0  0  0
    2.7437   -6.8749   43.8402 O   0  0  0  0  0  0  0  0  0  0  0  0
    6.9095   -6.2298   42.7644 C   0  0  2  0  0  0  0  0  0  0  0  0
    8.3917   -6.0833   42.8814 N   0  0  0  0  0  0  0  0  0  0  0  0
   -5.7640   -8.9952   46.9269 C   0  0  2  0  0  0  0  0  0  0  0  0
   -5.6206  -10.0170   45.9164 O   0  0  0  0  0  0  0  0  0  0  0  0
    0.4863   -7.5711   43.9989 C   0  0  2  0  0  0  0  0  0  0  0  0
    0.2931   -7.2667   42.5615 N   0  0  0  0  0  0  0  0  0  0  0  0
    6.1801   -5.1200   43.6372 C   0  0  0  0  0  0  0  0  0  0  0  0
   -4.8417   -7.7953   46.5175 C   0  0  2  0  0  0  0  0  0  0  0  0
   -5.1967   -7.2866   45.1684 N   0  0  0  0  0  0  0  0  0  0  0  0
    0.0767   -6.3083   44.8747 C   0  0  1  0  0  0  0  0  0  0  0  0
   -1.3066   -5.8718   44.5517 O   0  0  0  0  0  0  0  0  0  0  0  0
    4.6064   -5.3051   43.5047 C   0  0  2  0  0  0  0  0  0  0  0  0
    3.9078   -4.2881   44.3196 N   0  0  0  0  0  0  0  0  0  0  0  0
   -3.3017   -8.1960   46.5702 C   0  0  1  0  0  0  0  0  0  0  0  0
   -2.4229   -7.0936   46.2280 O   0  0  0  0  0  0  0  0  0  0  0  0
    0.2982   -6.6962   46.4025 C   0  0  2  0  0  0  0  0  0  0  0  0
   -0.0195   -5.6169   47.2628 O   0  0  0  0  0  0  0  0  0  0  0  0
    4.1916   -6.7576   43.9815 C   0  0  2  0  0  0  0  0  0  0  0  0
   -2.9726   -8.7102   48.0076 C   0  0  2  0  0  0  0  0  0  0  0  0
   -1.6151   -9.0922   48.1111 O   0  0  0  0  0  0  0  0  0  0  0  0
    1.7859   -7.1551   46.6470 C   0  0  2  0  0  0  0  0  0  0  0  0
    2.1171   -8.2788   45.7459 O   0  0  0  0  0  0  0  0  0  0  0  0
    4.9141   -7.8366   43.1269 C   0  0  2  0  0  0  0  0  0  0  0  0
    4.5180   -9.1387   43.6452 O   0  0  0  0  0  0  0  0  0  0  0  0
   -3.9263   -9.9144   48.3814 C   0  0  2  0  0  0  0  0  0  0  0  0
   -5.3439   -9.5036   48.2607 O   0  0  0  0  0  0  0  0  0  0  0  0
    2.0158   -7.5690   48.0998 C   0  0  0  0  0  0  0  0  0  0  0  0
    3.3289   -8.0353   48.2922 O   0  0  0  0  0  0  0  0  0  0  0  0
    6.4454   -7.6579   43.2501 C   0  0  1  0  0  0  0  0  0  0  0  0
    7.0766   -8.6448   42.4615 O   0  0  0  0  0  0  0  0  0  0  0  0
   -3.6718  -10.4215   49.7929 C   0  0  0  0  0  0  0  0  0  0  0  0
   -4.4624  -11.5550   50.0574 O   0  0  0  0  0  0  0  0  0  0  0  0
   -2.3594   -6.9308   44.7807 C   0  0  0  0  0  0  0  0  0  0  0  0
  1  2  1  1  0  0  0
  1  7  1  0  0  0  0
  1 24  1  0  0  0  0
  3  4  1  1  0  0  0
  3  9  1  0  0  0  0
  3 31  1  0  0  0  0
  5  6  1  6  0  0  0
  5 10  1  0  0  0  0
  5 28  1  0  0  0  0
  7  8  1  6  0  0  0
  7 12  1  0  0  0  0
  9 14  1  0  0  0  0
 10 11  1  6  0  0  0
 10 16  1  0  0  0  0
 12 13  1  1  0  0  0
 12 18  1  0  0  0  0
 13 35  1  0  0  0  0
 14 15  1  1  0  0  0
 14 20  1  0  0  0  0
 16 17  1  1  0  0  0
 16 21  1  0  0  0  0
 17 35  1  0  0  0  0
 18 19  1  1  0  0  0
 18 23  1  0  0  0  0
 20  2  1  6  0  0  0
 20 25  1  0  0  0  0
 21 22  1  6  0  0  0
 21 27  1  0  0  0  0
 23 24  1  0  0  0  0
 23 29  1  1  0  0  0
 25 26  1  1  0  0  0
 25 31  1  0  0  0  0
 27 28  1  0  0  0  0
 27 33  1  1  0  0  0
 29 30  1  0  0  0  0
 31 32  1  6  0  0  0
 33 34  1  0  0  0  0
M  END
>  <CHROM.1>
175.66955912,59.08156367,69.10389980,-79.85354628,-173.77275907,-174.09617916
177.25048504,-175.50315002,0.51912491,-7.68716141,45.60616125,0.44141241
0.04304732,-0.95865222

>  <Name>
2o3v_lig

>  <RI>
0

>  <Rbt.Current_Directory>
/home/afrankz/demos/rdock_decoys_rna/rnas/2o3v

>  <Rbt.Executable>
rbdock ($Id: //depot/dev/client3/rdock/2013.1/src/exe/rbdock.cxx#4 $)

>  <Rbt.Library>
libRbt.so (2013.1, Build901 2013/11/27)

>  <Rbt.Parameter_File>
/export/apps/rDock/src/rDock_2013.1_src/data/scripts/dock_solv.prm

>  <Rbt.Receptor>
prm/pocket_docking_4.prm

>  <SCORE>
-12.8722

>  <SCORE.INTER>
-6.52532

>  <SCORE.INTER.CONST>
1

>  <SCORE.INTER.POLAR>
-0.656578

>  <SCORE.INTER.ROT>
8

>  <SCORE.INTER.SOLV>
16.6541

>  <SCORE.INTER.VDW>
-16.6463

>  <SCORE.INTER.norm>
-0.186438

>  <SCORE.INTRA>
-6.34684

>  <SCORE.INTRA.DIHEDRAL>
-10.3382

>  <SCORE.INTRA.DIHEDRAL.0>
13.1227

>  <SCORE.INTRA.POLAR>
0

>  <SCORE.INTRA.POLAR.0>
0

>  <SCORE.INTRA.REPUL>
0

>  <SCORE.INTRA.REPUL.0>
0

>  <SCORE.INTRA.SOLV>
0.464572

>  <SCORE.INTRA.SOLV.lig_0>
-89.1587

>  <SCORE.INTRA.VDW>
-1.41001

>  <SCORE.INTRA.VDW.0>
-0.838383

>  <SCORE.INTRA.norm>
-0.181338

>  <SCORE.RESTR>
0

>  <SCORE.RESTR.CAVITY>
0

>  <SCORE.RESTR.norm>
0

>  <SCORE.SYSTEM>
0

>  <SCORE.SYSTEM.CONST>
0

>  <SCORE.SYSTEM.DIHEDRAL>
0

>  <SCORE.SYSTEM.SOLV>
0

>  <SCORE.SYSTEM.norm>
0

>  <SCORE.heavy>
35

>  <SCORE.norm>
-0.367776

>  <RMSD>
2.539

$$$$
2o3v_lig
 OpenBabel02141814113D
libRbt.so/2013.1/901 2013/11/27
 35 37  0  0  0  0  0  0  0  0999 V2000
    1.6984   -7.9767   44.4650 C   0  0  2  0  0  0  0  0  0  0  0  0
    2.4375   -6.9231   43.7747 O   0  0  0  0  0  0  0  0  0  0  0  0
    6.5412   -6.3412   42.4524 C   0  0  2  0  0  0  0  0  0  0  0  0
    8.0205   -6.1349   42.4881 N   0  0  0  0  0  0  0  0  0  0  0  0
   -5.8311   -7.3995   48.3598 C   0  0  2  0  0  0  0  0  0  0  0  0
   -6.7084   -8.1559   47.4973 O   0  0  0  0  0  0  0  0  0  0  0  0
    0.2416   -7.7943   43.9333 C   0  0  2  0  0  0  0  0  0  0  0  0
    0.1892   -7.9260   42.4581 N   0  0  0  0  0  0  0  0  0  0  0  0
    5.8026   -5.1259   43.1614 C   0  0  0  0  0  0  0  0  0  0  0  0
   -4.9840   -6.4447   47.4493 C   0  0  2  0  0  0  0  0  0  0  0  0
   -5.8623   -5.5573   46.6455 N   0  0  0  0  0  0  0  0  0  0  0  0
   -0.3675   -6.3911   44.3688 C   0  0  1  0  0  0  0  0  0  0  0  0
   -1.7361   -6.2187   43.8162 O   0  0  0  0  0  0  0  0  0  0  0  0
    4.2327   -5.3756   43.1200 C   0  0  2  0  0  0  0  0  0  0  0  0
    3.5262   -4.2602   43.7857 N   0  0  0  0  0  0  0  0  0  0  0  0
   -4.0026   -7.2611   46.4979 C   0  0  1  0  0  0  0  0  0  0  0  0
   -3.1817   -6.4006   45.6671 O   0  0  0  0  0  0  0  0  0  0  0  0
   -0.2905   -6.3107   45.9567 C   0  0  2  0  0  0  0  0  0  0  0  0
   -0.7917   -5.0767   46.4383 O   0  0  0  0  0  0  0  0  0  0  0  0
    3.8843   -6.7426   43.8404 C   0  0  2  0  0  0  0  0  0  0  0  0
   -3.0918   -8.1670   47.3859 C   0  0  2  0  0  0  0  0  0  0  0  0
   -2.2027   -8.9267   46.5910 O   0  0  0  0  0  0  0  0  0  0  0  0
    1.1924   -6.5148   46.4499 C   0  0  2  0  0  0  0  0  0  0  0  0
    1.7153   -7.8011   45.9433 O   0  0  0  0  0  0  0  0  0  0  0  0
    4.6155   -7.9248   43.1446 C   0  0  2  0  0  0  0  0  0  0  0  0
    4.2820   -9.1362   43.8810 O   0  0  0  0  0  0  0  0  0  0  0  0
   -3.9840   -9.1087   48.2895 C   0  0  2  0  0  0  0  0  0  0  0  0
   -4.9155   -8.3013   49.1100 O   0  0  0  0  0  0  0  0  0  0  0  0
    1.2884   -6.4792   47.9745 C   0  0  0  0  0  0  0  0  0  0  0  0
    1.0541   -5.1826   48.4670 O   0  0  0  0  0  0  0  0  0  0  0  0
    6.1430   -7.6843   43.1795 C   0  0  1  0  0  0  0  0  0  0  0  0
    6.7821   -8.7675   42.5374 O   0  0  0  0  0  0  0  0  0  0  0  0
   -3.1392   -9.9809   49.2058 C   0  0  0  0  0  0  0  0  0  0  0  0
   -3.9631  -10.7699   50.0296 O   0  0  0  0  0  0  0  0  0  0  0  0
   -2.7786   -7.1051   44.4562 C   0  0  0  0  0  0  0  0  0  0  0  0
  1  2  1  6  0  0  0
  1  7  1  0  0  0  0
  1 24  1  0  0  0  0
  3  4  1  1  0  0  0
  3  9  1  0  0  0  0
  3 31  1  0  0  0  0
  5  6  1  6  0  0  0
  5 10  1  0  0  0  0
  5 28  1  0  0  0  0
  7  8  1  6  0  0  0
  7 12  1  0  0  0  0
  9 14  1  0  0  0  0
 10 11  1  6  0  0  0
 10 16  1  0  0  0  0
 12 13  1  1  0  0  0
 12 18  1  0  0  0  0
 13 35  1  0  0  0  0
 14 15  1  1  0  0  0
 14 20  1  0  0  0  0
 16 17  1  1  0  0  0
 16 21  1  0  0  0  0
 17 35  1  0  0  0  0
 18 19  1  6  0  0  0
 18 23  1  0  0  0  0
 20  2  1  6  0  0  0
 20 25  1  0  0  0  0
 21 22  1  6  0  0  0
 21 27  1  0  0  0  0
 23 24  1  0  0  0  0
 23 29  1  1  0  0  0
 25 26  1  1  0  0  0
 25 31  1  0  0  0  0
 27 28  1  0  0  0  0
 27 33  1  1  0  0  0
 29 30  1  0  0  0  0
 31 32  1  6  0  0  0
 33 34  1  0  0  0  0
M  END
>  <CHROM.1>
-174.26655006,70.68913606,83.19551894,-154.48761779,-169.65265270,-172.12709321
-69.80963279,177.84304850,0.12246044,-7.21275571,45.54718946,-0.34608699
-0.29540639,2.48322641

>  <Name>
2o3v_lig

>  <RI>
0

>  <Rbt.Current_Directory>
/home/afrankz/demos/rdock_decoys_rna/rnas/2o3v

>  <Rbt.Executable>
rbdock ($Id: //depot/dev/client3/rdock/2013.1/src/exe/rbdock.cxx#4 $)

>  <Rbt.Library>
libRbt.so (2013.1, Build901 2013/11/27)

>  <Rbt.Parameter_File>
/export/apps/rDock/src/rDock_2013.1_src/data/scripts/dock_solv.prm

>  <Rbt.Receptor>
prm/pocket_docking_4.prm

>  <SCORE>
-13.1394

>  <SCORE.INTER>
-8.22639

>  <SCORE.INTER.CONST>
1

>  <SCORE.INTER.POLAR>
-0.356542

>  <SCORE.INTER.ROT>
8

>  <SCORE.INTER.SOLV>
19.8298

>  <SCORE.INTER.VDW>
-19.8391

>  <SCORE.INTER.norm>
-0.23504

>  <SCORE.INTRA>
-4.91297

>  <SCORE.INTRA.DIHEDRAL>
-6.09427

>  <SCORE.INTRA.DIHEDRAL.0>
13.1227

>  <SCORE.INTRA.POLAR>
0

>  <SCORE.INTRA.POLAR.0>
0

>  <SCORE.INTRA.REPUL>
0

>  <SCORE.INTRA.REPUL.0>
0

>  <SCORE.INTRA.SOLV>
0.167378

>  <SCORE.INTRA.SOLV.lig_0>
-89.1587

>  <SCORE.INTRA.VDW>
-1.94953

>  <SCORE.INTRA.VDW.0>
-0.838383

>  <SCORE.INTRA.norm>
-0.140371

>  <SCORE.RESTR>
0

>  <SCORE.RESTR.CAVITY>
0

>  <SCORE.RESTR.norm>
0

>  <SCORE.SYSTEM>
0

>  <SCORE.SYSTEM.CONST>
0

>  <SCORE.SYSTEM.DIHEDRAL>
0

>  <SCORE.SYSTEM.SOLV>
0

>  <SCORE.SYSTEM.norm>
0

>  <SCORE.heavy>
35

>  <SCORE.norm>
-0.37541

>  <RMSD>
2.547

$$$$
2o3v_lig
 OpenBabel02141814113D
libRbt.so/2013.1/901 2013/11/27
 35 37  0  0  0  0  0  0  0  0999 V2000
    2.2109   -9.1280   44.4512 C   0  0  2  0  0  0  0  0  0  0  0  0
    2.6287   -7.8148   43.9679 O   0  0  0  0  0  0  0  0  0  0  0  0
    6.3545   -6.3017   42.3078 C   0  0  2  0  0  0  0  0  0  0  0  0
    7.7608   -5.8057   42.2155 N   0  0  0  0  0  0  0  0  0  0  0  0
   -5.6139   -4.3168   46.2238 C   0  0  2  0  0  0  0  0  0  0  0  0
   -6.9210   -4.5500   45.6557 O   0  0  0  0  0  0  0  0  0  0  0  0
    0.6996   -9.1844   44.0621 C   0  0  2  0  0  0  0  0  0  0  0  0
    0.5163   -9.0239   42.6003 N   0  0  0  0  0  0  0  0  0  0  0  0
    5.4907   -5.3289   43.2203 C   0  0  0  0  0  0  0  0  0  0  0  0
   -4.5719   -5.0836   45.3380 C   0  0  2  0  0  0  0  0  0  0  0  0
   -4.6435   -4.6363   43.9238 N   0  0  0  0  0  0  0  0  0  0  0  0
   -0.1436   -8.0783   44.8334 C   0  0  1  0  0  0  0  0  0  0  0  0
   -1.5693   -8.1196   44.4164 O   0  0  0  0  0  0  0  0  0  0  0  0
    4.0038   -5.8849   43.3114 C   0  0  2  0  0  0  0  0  0  0  0  0
    3.1849   -4.9992   44.1667 N   0  0  0  0  0  0  0  0  0  0  0  0
   -4.7725   -6.6603   45.4305 C   0  0  1  0  0  0  0  0  0  0  0  0
   -3.7995   -7.3967   44.6459 O   0  0  0  0  0  0  0  0  0  0  0  0
    0.0868   -8.3047   46.3920 C   0  0  2  0  0  0  0  0  0  0  0  0
   -0.6106   -7.3439   47.1642 O   0  0  0  0  0  0  0  0  0  0  0  0
    4.0119   -7.3533   43.9055 C   0  0  2  0  0  0  0  0  0  0  0  0
   -4.6754   -7.0848   46.9302 C   0  0  2  0  0  0  0  0  0  0  0  0
   -4.8572   -8.4796   47.0753 O   0  0  0  0  0  0  0  0  0  0  0  0
    1.6237   -8.2551   46.7373 C   0  0  2  0  0  0  0  0  0  0  0  0
    2.3506   -9.2556   45.9279 O   0  0  0  0  0  0  0  0  0  0  0  0
    4.8638   -8.2964   43.0105 C   0  0  2  0  0  0  0  0  0  0  0  0
    4.8588   -9.6114   43.6364 O   0  0  0  0  0  0  0  0  0  0  0  0
   -5.7376   -6.2865   47.7868 C   0  0  2  0  0  0  0  0  0  0  0  0
   -5.5415   -4.8283   47.6192 O   0  0  0  0  0  0  0  0  0  0  0  0
    1.8753   -8.5070   48.2233 C   0  0  0  0  0  0  0  0  0  0  0  0
    1.4918   -9.8102   48.5885 O   0  0  0  0  0  0  0  0  0  0  0  0
    6.3104   -7.7573   42.9163 C   0  0  1  0  0  0  0  0  0  0  0  0
    7.0603   -8.6274   42.0949 O   0  0  0  0  0  0  0  0  0  0  0  0
   -5.6509   -6.6354   49.2649 C   0  0  0  0  0  0  0  0  0  0  0  0
   -6.0595   -7.9646   49.4805 O   0  0  0  0  0  0  0  0  0  0  0  0
   -2.4513   -7.1192   45.1261 C   0  0  0  0  0  0  0  0  0  0  0  0
  1  2  1  1  0  0  0
  1  7  1  0  0  0  0
  1 24  1  0  0  0  0
  3  4  1  1  0  0  0
  3  9  1  0  0  0  0
  3 31  1  0  0  0  0
  5  6  1  6  0  0  0
  5 10  1  0  0  0  0
  5 28  1  0  0  0  0
  7  8  1  6  0  0  0
  7 12  1  0  0  0  0
  9 14  1  0  0  0  0
 10 11  1  6  0  0  0
 10 16  1  0  0  0  0
 12 13  1  1  0  0  0
 12 18  1  0  0  0  0
 13 35  1  0  0  0  0
 14 15  1  1  0  0  0
 14 20  1  0  0  0  0
 16 17  1  6  0  0  0
 16 21  1  0  0  0  0
 17 35  1  0  0  0  0
 18 19  1  1  0  0  0
 18 23  1  0  0  0  0
 20  2  1  6  0  0  0
 20 25  1  0  0  0  0
 21 22  1  6  0  0  0
 21 27  1  0  0  0  0
 23 24  1  0  0  0  0
 23 29  1  1  0  0  0
 25 26  1  1  0  0  0
 25 31  1  0  0  0  0
 27 28  1  0  0  0  0
 27 33  1  1  0  0  0
 29 30  1  0  0  0  0
 31 32  1  6  0  0  0
 33 34  1  0  0  0  0
M  END
>  <CHROM.1>
-170.17742891,178.66663818,-175.95739386,61.00650795,169.86758775,179.56554245
64.68009412,-67.78473065,-0.05960092,-7.28097271,45.25850714,-0.15335611
-0.31415339,2.33696044

>  <Name>
2o3v_lig

>  <RI>
0

>  <Rbt.Current_Directory>
/home/afrankz/demos/rdock_decoys_rna/rnas/2o3v

>  <Rbt.Executable>
rbdock ($Id: //depot/dev/client3/rdock/2013.1/src/exe/rbdock.cxx#4 $)

>  <Rbt.Library>
libRbt.so (2013.1, Build901 2013/11/27)

>  <Rbt.Parameter_File>
/export/apps/rDock/src/rDock_2013.1_src/data/scripts/dock_solv.prm

>  <Rbt.Receptor>
prm/pocket_docking_3.prm

>  <SCORE>
-12.8295

>  <SCORE.INTER>
-7.72272

>  <SCORE.INTER.CONST>
1

>  <SCORE.INTER.POLAR>
-0.020973

>  <SCORE.INTER.ROT>
8

>  <SCORE.INTER.SOLV>
21.2643

>  <SCORE.INTER.VDW>
-21.1

>  <SCORE.INTER.norm>
-0.220649

>  <SCORE.INTRA>
-5.10817

>  <SCORE.INTRA.DIHEDRAL>
-11.7264

>  <SCORE.INTRA.DIHEDRAL.0>
13.1227

>  <SCORE.INTRA.POLAR>
0

>  <SCORE.INTRA.POLAR.0>
0

>  <SCORE.INTRA.REPUL>
0

>  <SCORE.INTRA.REPUL.0>
0

>  <SCORE.INTRA.SOLV>
-0.753751

>  <SCORE.INTRA.SOLV.lig_0>
-89.1587

>  <SCORE.INTRA.VDW>
1.13192

>  <SCORE.INTRA.VDW.0>
-0.838383

>  <SCORE.INTRA.norm>
-0.145948

>  <SCORE.RESTR>
0.00135702

>  <SCORE.RESTR.CAVITY>
0.00135702

>  <SCORE.RESTR.norm>
3.87721e-05

>  <SCORE.SYSTEM>
0

>  <SCORE.SYSTEM.CONST>
0

>  <SCORE.SYSTEM.DIHEDRAL>
0

>  <SCORE.SYSTEM.SOLV>
0

>  <SCORE.SYSTEM.norm>
0

>  <SCORE.heavy>
35

>  <SCORE.norm>
-0.366558

>  <RMSD>
2.556

$$$$
2o3v_lig
 OpenBabel02141814113D
libRbt.so/2013.1/901 2013/11/27
 35 37  0  0  0  0  0  0  0  0999 V2000
    1.9943   -8.1365   44.1776 C   0  0  2  0  0  0  0  0  0  0  0  0
    2.8028   -6.9429   43.9445 O   0  0  0  0  0  0  0  0  0  0  0  0
    6.9795   -6.2066   42.9750 C   0  0  2  0  0  0  0  0  0  0  0  0
    8.4644   -6.1095   43.1091 N   0  0  0  0  0  0  0  0  0  0  0  0
   -6.1726   -5.8649   45.6100 C   0  0  2  0  0  0  0  0  0  0  0  0
   -5.9728   -6.3619   44.2689 O   0  0  0  0  0  0  0  0  0  0  0  0
    0.5414   -7.6424   43.8886 C   0  0  2  0  0  0  0  0  0  0  0  0
    0.4170   -7.1237   42.5060 N   0  0  0  0  0  0  0  0  0  0  0  0
    6.2721   -5.2436   44.0226 C   0  0  0  0  0  0  0  0  0  0  0  0
   -4.8545   -5.1344   46.0427 C   0  0  2  0  0  0  0  0  0  0  0  0
   -4.5165   -4.0408   45.0967 N   0  0  0  0  0  0  0  0  0  0  0  0
    0.0884   -6.5236   44.9243 C   0  0  1  0  0  0  0  0  0  0  0  0
   -1.2785   -6.0356   44.6053 O   0  0  0  0  0  0  0  0  0  0  0  0
    4.6950   -5.3745   43.8671 C   0  0  2  0  0  0  0  0  0  0  0  0
    4.0165   -4.4939   44.8420 N   0  0  0  0  0  0  0  0  0  0  0  0
   -3.6363   -6.1515   46.1707 C   0  0  1  0  0  0  0  0  0  0  0  0
   -2.4103   -5.5072   46.6025 O   0  0  0  0  0  0  0  0  0  0  0  0
    0.2369   -7.1386   46.3849 C   0  0  2  0  0  0  0  0  0  0  0  0
   -0.1234   -6.1995   47.3820 O   0  0  0  0  0  0  0  0  0  0  0  0
    4.2528   -6.8780   44.0978 C   0  0  2  0  0  0  0  0  0  0  0  0
   -4.0315   -7.2727   47.1834 C   0  0  2  0  0  0  0  0  0  0  0  0
   -2.9873   -8.2148   47.3299 O   0  0  0  0  0  0  0  0  0  0  0  0
    1.7119   -7.6375   46.6281 C   0  0  2  0  0  0  0  0  0  0  0  0
    2.0877   -8.6145   45.5846 O   0  0  0  0  0  0  0  0  0  0  0  0
    4.9539   -7.8135   43.0733 C   0  0  2  0  0  0  0  0  0  0  0  0
    4.5333   -9.1759   43.3699 O   0  0  0  0  0  0  0  0  0  0  0  0
   -5.3653   -7.9791   46.7129 C   0  0  2  0  0  0  0  0  0  0  0  0
   -6.4475   -6.9807   46.5554 O   0  0  0  0  0  0  0  0  0  0  0  0
    1.8725   -8.2670   48.0111 C   0  0  0  0  0  0  0  0  0  0  0  0
    1.0428   -9.3938   48.1546 O   0  0  0  0  0  0  0  0  0  0  0  0
    6.4885   -7.6866   43.2188 C   0  0  1  0  0  0  0  0  0  0  0  0
    7.1002   -8.5406   42.2751 O   0  0  0  0  0  0  0  0  0  0  0  0
   -5.8144   -9.0519   47.6935 C   0  0  0  0  0  0  0  0  0  0  0  0
   -6.0375   -8.4924   48.9652 O   0  0  0  0  0  0  0  0  0  0  0  0
   -1.7417   -4.8842   45.4667 C   0  0  0  0  0  0  0  0  0  0  0  0
  1  2  1  1  0  0  0
  1  7  1  0  0  0  0
  1 24  1  0  0  0  0
  3  4  1  1  0  0  0
  3  9  1  0  0  0  0
  3 31  1  0  0  0  0
  5  6  1  6  0  0  0
  5 10  1  0  0  0  0
  5 28  1  0  0  0  0
  7  8  1  6  0  0  0
  7 12  1  0  0  0  0
  9 14  1  0  0  0  0
 10 11  1  6  0  0  0
 10 16  1  0  0  0  0
 12 13  1  6  0  0  0
 12 18  1  0  0  0  0
 13 35  1  0  0  0  0
 14 15  1  1  0  0  0
 14 20  1  0  0  0  0
 16 17  1  1  0  0  0
 16 21  1  0  0  0  0
 17 35  1  0  0  0  0
 18 19  1  1  0  0  0
 18 23  1  0  0  0  0
 20  2  1  6  0  0  0
 20 25  1  0  0  0  0
 21 22  1  6  0  0  0
 21 27  1  0  0  0  0
 23 24  1  0  0  0  0
 23 29  1  1  0  0  0
 25 26  1  1  0  0  0
 25 31  1  0  0  0  0
 27 28  1  0  0  0  0
 27 33  1  1  0  0  0
 29 30  1  0  0  0  0
 31 32  1  6  0  0  0
 33 34  1  0  0  0  0
M  END
>  <CHROM.1>
179.33080439,-174.91012806,-90.52330507,-82.13537981,-68.06302470,-175.23189534
61.37356991,59.39292062,0.21069513,-6.97596835,45.30955916,-0.17353271,-0.21993228
2.41107372

>  <Name>
2o3v_lig

>  <RI>
0

>  <Rbt.Current_Directory>
/home/afrankz/demos/rdock_decoys_rna/rnas/2o3v

>  <Rbt.Executable>
rbdock ($Id: //depot/dev/client3/rdock/2013.1/src/exe/rbdock.cxx#4 $)

>  <Rbt.Library>
libRbt.so (2013.1, Build901 2013/11/27)

>  <Rbt.Parameter_File>
/export/apps/rDock/src/rDock_2013.1_src/data/scripts/dock_solv.prm

>  <Rbt.Receptor>
prm/pocket_docking_3.prm

>  <SCORE>
-11.219

>  <SCORE.INTER>
-7.16886

>  <SCORE.INTER.CONST>
1

>  <SCORE.INTER.POLAR>
-0.723986

>  <SCORE.INTER.ROT>
8

>  <SCORE.INTER.SOLV>
17.8448

>  <SCORE.INTER.VDW>
-17.2476

>  <SCORE.INTER.norm>
-0.204825

>  <SCORE.INTRA>
-4.0501

>  <SCORE.INTRA.DIHEDRAL>
-6.65056

>  <SCORE.INTRA.DIHEDRAL.0>
13.1227

>  <SCORE.INTRA.POLAR>
0

>  <SCORE.INTRA.POLAR.0>
0

>  <SCORE.INTRA.REPUL>
0

>  <SCORE.INTRA.REPUL.0>
0

>  <SCORE.INTRA.SOLV>
1.03775

>  <SCORE.INTRA.SOLV.lig_0>
-89.1587

>  <SCORE.INTRA.VDW>
-1.2437

>  <SCORE.INTRA.VDW.0>
-0.838383

>  <SCORE.INTRA.norm>
-0.115717

>  <SCORE.RESTR>
0

>  <SCORE.RESTR.CAVITY>
0

>  <SCORE.RESTR.norm>
0

>  <SCORE.SYSTEM>
0

>  <SCORE.SYSTEM.CONST>
0

>  <SCORE.SYSTEM.DIHEDRAL>
0

>  <SCORE.SYSTEM.SOLV>
0

>  <SCORE.SYSTEM.norm>
0

>  <SCORE.heavy>
35

>  <SCORE.norm>
-0.320542

>  <RMSD>
2.562

$$$$
2o3v_lig
 OpenBabel02141814113D
libRbt.so/2013.1/901 2013/11/27
 35 37  0  0  0  0  0  0  0  0999 V2000
    1.6835   -7.8159   44.6213 C   0  0  2  0  0  0  0  0  0  0  0  0
    2.3835   -6.7835   43.8617 O   0  0  0  0  0  0  0  0  0  0  0  0
    6.4426   -6.2044   42.4073 C   0  0  2  0  0  0  0  0  0  0  0  0
    7.9179   -5.9684   42.3946 N   0  0  0  0  0  0  0  0  0  0  0  0
   -5.7305   -7.5935   48.3684 C   0  0  2  0  0  0  0  0  0  0  0  0
   -6.6366   -8.3652   47.5504 O   0  0  0  0  0  0  0  0  0  0  0  0
    0.2439   -7.7854   44.0172 C   0  0  2  0  0  0  0  0  0  0  0  0
    0.2679   -8.0587   42.5609 N   0  0  0  0  0  0  0  0  0  0  0  0
    5.6963   -4.9630   43.0609 C   0  0  0  0  0  0  0  0  0  0  0  0
   -4.9452   -6.6258   47.4170 C   0  0  2  0  0  0  0  0  0  0  0  0
   -5.8766   -5.7539   46.6572 N   0  0  0  0  0  0  0  0  0  0  0  0
   -0.4744   -6.3929   44.2902 C   0  0  1  0  0  0  0  0  0  0  0  0
   -1.8246   -6.3682   43.6698 O   0  0  0  0  0  0  0  0  0  0  0  0
    4.1313   -5.2442   43.0728 C   0  0  2  0  0  0  0  0  0  0  0  0
    3.4179   -4.1046   43.6883 N   0  0  0  0  0  0  0  0  0  0  0  0
   -3.9985   -7.4270   46.4186 C   0  0  1  0  0  0  0  0  0  0  0  0
   -3.2340   -6.5539   45.5481 O   0  0  0  0  0  0  0  0  0  0  0  0
   -0.4758   -6.1582   45.8645 C   0  0  2  0  0  0  0  0  0  0  0  0
   -1.0778   -4.9219   46.2039 O   0  0  0  0  0  0  0  0  0  0  0  0
    3.8275   -6.5721   43.8812 C   0  0  2  0  0  0  0  0  0  0  0  0
   -3.0302   -8.3167   47.2608 C   0  0  2  0  0  0  0  0  0  0  0  0
   -2.1690   -9.0626   46.4231 O   0  0  0  0  0  0  0  0  0  0  0  0
    0.9929   -6.2120   46.4334 C   0  0  2  0  0  0  0  0  0  0  0  0
    1.6210   -7.5010   46.0751 O   0  0  0  0  0  0  0  0  0  0  0  0
    4.5661   -7.7798   43.2390 C   0  0  2  0  0  0  0  0  0  0  0  0
    4.2744   -8.9511   44.0538 O   0  0  0  0  0  0  0  0  0  0  0  0
   -3.8611   -9.2721   48.2075 C   0  0  2  0  0  0  0  0  0  0  0  0
   -4.7643   -8.4793   49.0727 O   0  0  0  0  0  0  0  0  0  0  0  0
    1.0163   -6.0264   47.9499 C   0  0  0  0  0  0  0  0  0  0  0  0
    2.3357   -6.0019   48.4372 O   0  0  0  0  0  0  0  0  0  0  0  0
    6.0887   -7.5088   43.2222 C   0  0  1  0  0  0  0  0  0  0  0  0
    6.7345   -8.6163   42.6300 O   0  0  0  0  0  0  0  0  0  0  0  0
   -2.9578  -10.1293   49.0812 C   0  0  0  0  0  0  0  0  0  0  0  0
   -3.7252  -11.0121   49.8634 O   0  0  0  0  0  0  0  0  0  0  0  0
   -2.8322   -7.2699   44.3435 C   0  0  0  0  0  0  0  0  0  0  0  0
  1  2  1  6  0  0  0
  1  7  1  0  0  0  0
  1 24  1  0  0  0  0
  3  4  1  1  0  0  0
  3  9  1  0  0  0  0
  3 31  1  0  0  0  0
  5  6  1  6  0  0  0
  5 10  1  0  0  0  0
  5 28  1  0  0  0  0
  7  8  1  6  0  0  0
  7 12  1  0  0  0  0
  9 14  1  0  0  0  0
 10 11  1  6  0  0  0
 10 16  1  0  0  0  0
 12 13  1  1  0  0  0
 12 18  1  0  0  0  0
 13 35  1  0  0  0  0
 14 15  1  1  0  0  0
 14 20  1  0  0  0  0
 16 17  1  1  0  0  0
 16 21  1  0  0  0  0
 17 35  1  0  0  0  0
 18 19  1  6  0  0  0
 18 23  1  0  0  0  0
 20  2  1  6  0  0  0
 20 25  1  0  0  0  0
 21 22  1  6  0  0  0
 21 27  1  0  0  0  0
 23 24  1  0  0  0  0
 23 29  1  1  0  0  0
 25 26  1  1  0  0  0
 25 31  1  0  0  0  0
 27 28  1  0  0  0  0
 27 33  1  1  0  0  0
 29 30  1  0  0  0  0
 31 32  1  6  0  0  0
 33 34  1  0  0  0  0
M  END
>  <CHROM.1>
-168.80480716,70.15939271,77.36924764,-156.82961246,-168.69688186,-172.74131522
-176.72369632,-177.15821329,0.13403480,-7.22134218,45.51874781,-0.38934595
-0.23471043,2.40137880

>  <Name>
2o3v_lig

>  <RI>
0

>  <Rbt.Current_Directory>
/home/afrankz/demos/rdock_decoys_rna/rnas/2o3v

>  <Rbt.Executable>
rbdock ($Id: //depot/dev/client3/rdock/2013.1/src/exe/rbdock.cxx#4 $)

>  <Rbt.Library>
libRbt.so (2013.1, Build901 2013/11/27)

>  <Rbt.Parameter_File>
/export/apps/rDock/src/rDock_2013.1_src/data/scripts/dock_solv.prm

>  <Rbt.Receptor>
prm/pocket_docking_3.prm

>  <SCORE>
-13.4348

>  <SCORE.INTER>
-8.06869

>  <SCORE.INTER.CONST>
1

>  <SCORE.INTER.POLAR>
-0.273102

>  <SCORE.INTER.ROT>
8

>  <SCORE.INTER.SOLV>
18.9696

>  <SCORE.INTER.VDW>
-19.7253

>  <SCORE.INTER.norm>
-0.230534

>  <SCORE.INTRA>
-5.3689

>  <SCORE.INTRA.DIHEDRAL>
-7.30891

>  <SCORE.INTRA.DIHEDRAL.0>
13.1227

>  <SCORE.INTRA.POLAR>
0

>  <SCORE.INTRA.POLAR.0>
0

>  <SCORE.INTRA.REPUL>
0

>  <SCORE.INTRA.REPUL.0>
0

>  <SCORE.INTRA.SOLV>
-0.100248

>  <SCORE.INTRA.SOLV.lig_0>
-89.1587

>  <SCORE.INTRA.VDW>
-1.66432

>  <SCORE.INTRA.VDW.0>
-0.838383

>  <SCORE.INTRA.norm>
-0.153397

>  <SCORE.RESTR>
0.00274085

>  <SCORE.RESTR.CAVITY>
0.00274085

>  <SCORE.RESTR.norm>
7.83099e-05

>  <SCORE.SYSTEM>
0

>  <SCORE.SYSTEM.CONST>
0

>  <SCORE.SYSTEM.DIHEDRAL>
0

>  <SCORE.SYSTEM.SOLV>
0

>  <SCORE.SYSTEM.norm>
0

>  <SCORE.heavy>
35

>  <SCORE.norm>
-0.383853

>  <RMSD>
2.564

$$$$
2o3v_lig
 OpenBabel02141814113D
libRbt.so/2013.1/901 2013/11/27
 35 37  0  0  0  0  0  0  0  0999 V2000
    2.8139   -8.1524   46.1153 C   0  0  2  0  0  0  0  0  0  0  0  0
    2.6543   -8.0599   44.6666 O   0  0  0  0  0  0  0  0  0  0  0  0
    6.2899   -6.1023   43.2963 C   0  0  2  0  0  0  0  0  0  0  0  0
    7.3298   -5.5308   42.3884 N   0  0  0  0  0  0  0  0  0  0  0  0
   -5.7577   -7.9838   49.2940 C   0  0  2  0  0  0  0  0  0  0  0  0
   -5.2663   -6.6379   49.4747 O   0  0  0  0  0  0  0  0  0  0  0  0
    1.4854   -8.8320   46.5754 C   0  0  2  0  0  0  0  0  0  0  0  0
    1.3085  -10.1543   45.9301 N   0  0  0  0  0  0  0  0  0  0  0  0
    6.1346   -7.6622   43.0357 C   0  0  0  0  0  0  0  0  0  0  0  0
   -4.5322   -8.9535   49.4206 C   0  0  2  0  0  0  0  0  0  0  0  0
   -3.8550   -8.7879   50.7317 N   0  0  0  0  0  0  0  0  0  0  0  0
    0.2236   -7.9130   46.2709 C   0  0  1  0  0  0  0  0  0  0  0  0
   -1.0329   -8.5959   46.6752 O   0  0  0  0  0  0  0  0  0  0  0  0
    5.0155   -8.2426   44.0049 C   0  0  2  0  0  0  0  0  0  0  0  0
    4.8468   -9.6927   43.7703 N   0  0  0  0  0  0  0  0  0  0  0  0
   -3.4944   -8.7439   48.2315 C   0  0  1  0  0  0  0  0  0  0  0  0
   -2.3656   -9.6522   48.3052 O   0  0  0  0  0  0  0  0  0  0  0  0
    0.4672   -6.5152   46.9921 C   0  0  2  0  0  0  0  0  0  0  0  0
   -0.6012   -5.6162   46.7550 O   0  0  0  0  0  0  0  0  0  0  0  0
    3.6432   -7.4917   43.7559 C   0  0  2  0  0  0  0  0  0  0  0  0
   -4.2465   -8.9412   46.8772 C   0  0  2  0  0  0  0  0  0  0  0  0
   -3.3734   -8.7558   45.7805 O   0  0  0  0  0  0  0  0  0  0  0  0
    1.8235   -5.8729   46.5107 C   0  0  2  0  0  0  0  0  0  0  0  0
    2.9369   -6.8138   46.7553 O   0  0  0  0  0  0  0  0  0  0  0  0
    3.8056   -5.9662   44.0068 C   0  0  2  0  0  0  0  0  0  0  0  0
    2.5223   -5.3396   43.7213 O   0  0  0  0  0  0  0  0  0  0  0  0
   -5.4749   -7.9496   46.7926 C   0  0  2  0  0  0  0  0  0  0  0  0
   -6.3762   -8.1484   47.9507 O   0  0  0  0  0  0  0  0  0  0  0  0
    2.1000   -4.5462   47.2165 C   0  0  0  0  0  0  0  0  0  0  0  0
    1.0750   -3.6158   46.9663 O   0  0  0  0  0  0  0  0  0  0  0  0
    4.8959   -5.3981   43.0685 C   0  0  1  0  0  0  0  0  0  0  0  0
    5.0274   -4.0148   43.3200 O   0  0  0  0  0  0  0  0  0  0  0  0
   -6.2658   -8.1358   45.5066 C   0  0  0  0  0  0  0  0  0  0  0  0
   -7.4023   -7.3062   45.5046 O   0  0  0  0  0  0  0  0  0  0  0  0
   -1.1165   -8.9169   48.1490 C   0  0  0  0  0  0  0  0  0  0  0  0
  1  2  1  6  0  0  0
  1  7  1  0  0  0  0
  1 24  1  0  0  0  0
  3  4  1  6  0  0  0
  3  9  1  0  0  0  0
  3 31  1  0  0  0  0
  5  6  1  6  0  0  0
  5 10  1  0  0  0  0
  5 28  1  0  0  0  0
  7  8  1  6  0  0  0
  7 12  1  0  0  0  0
  9 14  1  0  0  0  0
 10 11  1  1  0  0  0
 10 16  1  0  0  0  0
 12 13  1  1  0  0  0
 12 18  1  0  0  0  0
 13 35  1  0  0  0  0
 14 15  1  6  0  0  0
 14 20  1  0  0  0  0
 16 17  1  1  0  0  0
 16 21  1  0  0  0  0
 17 35  1  0  0  0  0
 18 19  1  6  0  0  0
 18 23  1  0  0  0  0
 20  2  1  1  0  0  0
 20 25  1  0  0  0  0
 21 22  1  6  0  0  0
 21 27  1  0  0  0  0
 23 24  1  0  0  0  0
 23 29  1  1  0  0  0
 25 26  1  6  0  0  0
 25 31  1  0  0  0  0
 27 28  1  0  0  0  0
 27 33  1  6  0  0  0
 29 30  1  0  0  0  0
 31 32  1  1  0  0  0
 33 34  1  0  0  0  0
M  END
>  <CHROM.1>
-179.85427183,61.25134106,-176.26603505,-131.30581184,-75.36341607,54.55778561
-59.82178438,175.90852691,0.08450052,-7.37216228,46.12009900,-0.19050193
-0.37577367,3.06915216

>  <Name>
2o3v_lig

>  <RI>
0

>  <Rbt.Current_Directory>
/home/afrankz/demos/rdock_decoys_rna/rnas/2o3v

>  <Rbt.Executable>
rbdock ($Id: //depot/dev/client3/rdock/2013.1/src/exe/rbdock.cxx#4 $)

>  <Rbt.Library>
libRbt.so (2013.1, Build901 2013/11/27)

>  <Rbt.Parameter_File>
/export/apps/rDock/src/rDock_2013.1_src/data/scripts/dock_solv.prm

>  <Rbt.Receptor>
prm/pocket_docking_3.prm

>  <SCORE>
-8.3437

>  <SCORE.INTER>
-4.73279

>  <SCORE.INTER.CONST>
1

>  <SCORE.INTER.POLAR>
-0.735971

>  <SCORE.INTER.ROT>
8

>  <SCORE.INTER.SOLV>
18.5408

>  <SCORE.INTER.VDW>
-15.8156

>  <SCORE.INTER.norm>
-0.135222

>  <SCORE.INTRA>
-3.61109

>  <SCORE.INTRA.DIHEDRAL>
-5.10951

>  <SCORE.INTRA.DIHEDRAL.0>
13.1227

>  <SCORE.INTRA.POLAR>
0

>  <SCORE.INTRA.POLAR.0>
0

>  <SCORE.INTRA.REPUL>
0

>  <SCORE.INTRA.REPUL.0>
0

>  <SCORE.INTRA.SOLV>
0.977562

>  <SCORE.INTRA.SOLV.lig_0>
-89.1587

>  <SCORE.INTRA.VDW>
-1.54512

>  <SCORE.INTRA.VDW.0>
-0.838383

>  <SCORE.INTRA.norm>
-0.103174

>  <SCORE.RESTR>
0.000180935

>  <SCORE.RESTR.CAVITY>
0.000180935

>  <SCORE.RESTR.norm>
5.16957e-06

>  <SCORE.SYSTEM>
0

>  <SCORE.SYSTEM.CONST>
0

>  <SCORE.SYSTEM.DIHEDRAL>
0

>  <SCORE.SYSTEM.SOLV>
0

>  <SCORE.SYSTEM.norm>
0

>  <SCORE.heavy>
35

>  <SCORE.norm>
-0.238391

>  <RMSD>
2.565

$$$$
2o3v_lig
 OpenBabel02141814113D
libRbt.so/2013.1/901 2013/11/27
 35 37  0  0  0  0  0  0  0  0999 V2000
    3.4837   -7.6341   46.5537 C   0  0  2  0  0  0  0  0  0  0  0  0
    3.2163   -8.1607   45.2180 O   0  0  0  0  0  0  0  0  0  0  0  0
    6.6726   -6.9621   42.8633 C   0  0  2  0  0  0  0  0  0  0  0  0
    7.5946   -6.7757   41.7025 N   0  0  0  0  0  0  0  0  0  0  0  0
   -6.1137   -9.5221   47.4943 C   0  0  2  0  0  0  0  0  0  0  0  0
   -6.2729   -8.7259   48.6886 O   0  0  0  0  0  0  0  0  0  0  0  0
    2.2508   -8.1202   47.3795 C   0  0  2  0  0  0  0  0  0  0  0  0
    2.1382   -9.5977   47.3550 N   0  0  0  0  0  0  0  0  0  0  0  0
    6.4617   -8.5108   43.1505 C   0  0  0  0  0  0  0  0  0  0  0  0
   -4.5810   -9.7981   47.3133 C   0  0  2  0  0  0  0  0  0  0  0  0
   -4.0179  -10.4796   48.5063 N   0  0  0  0  0  0  0  0  0  0  0  0
    0.8997   -7.4701   46.8490 C   0  0  1  0  0  0  0  0  0  0  0  0
   -0.2653   -7.9791   47.6186 O   0  0  0  0  0  0  0  0  0  0  0  0
    5.4691   -8.6812   44.3809 C   0  0  2  0  0  0  0  0  0  0  0  0
    5.2499  -10.1170   44.6580 N   0  0  0  0  0  0  0  0  0  0  0  0
   -3.7765   -8.4580   47.0104 C   0  0  1  0  0  0  0  0  0  0  0  0
   -2.3590   -8.6886   46.8051 O   0  0  0  0  0  0  0  0  0  0  0  0
    1.0777   -5.8894   46.9048 C   0  0  2  0  0  0  0  0  0  0  0  0
   -0.0747   -5.2205   46.4247 O   0  0  0  0  0  0  0  0  0  0  0  0
    4.0873   -7.9754   44.0616 C   0  0  2  0  0  0  0  0  0  0  0  0
   -4.3935   -7.7855   45.7432 C   0  0  2  0  0  0  0  0  0  0  0  0
   -3.7230   -6.5802   45.4313 O   0  0  0  0  0  0  0  0  0  0  0  0
    2.3399   -5.4448   46.0723 C   0  0  2  0  0  0  0  0  0  0  0  0
    3.5409   -6.1465   46.5719 O   0  0  0  0  0  0  0  0  0  0  0  0
    4.3035   -6.4628   43.7760 C   0  0  2  0  0  0  0  0  0  0  0  0
    3.0035   -5.8913   43.4529 O   0  0  0  0  0  0  0  0  0  0  0  0
   -5.9376   -7.5294   45.9658 C   0  0  2  0  0  0  0  0  0  0  0  0
   -6.6257   -8.7974   46.2998 O   0  0  0  0  0  0  0  0  0  0  0  0
    2.5553   -3.9336   46.1401 C   0  0  0  0  0  0  0  0  0  0  0  0
    3.3669   -3.4892   45.0806 O   0  0  0  0  0  0  0  0  0  0  0  0
    5.2715   -6.2924   42.5818 C   0  0  1  0  0  0  0  0  0  0  0  0
    5.4549   -4.9120   42.3470 O   0  0  0  0  0  0  0  0  0  0  0  0
   -6.5925   -6.9140   44.7385 C   0  0  0  0  0  0  0  0  0  0  0  0
   -5.9851   -5.6848   44.4221 O   0  0  0  0  0  0  0  0  0  0  0  0
   -1.6019   -7.4830   47.1190 C   0  0  0  0  0  0  0  0  0  0  0  0
  1  2  1  6  0  0  0
  1  7  1  0  0  0  0
  1 24  1  0  0  0  0
  3  4  1  6  0  0  0
  3  9  1  0  0  0  0
  3 31  1  0  0  0  0
  5  6  1  1  0  0  0
  5 10  1  0  0  0  0
  5 28  1  0  0  0  0
  7  8  1  6  0  0  0
  7 12  1  0  0  0  0
  9 14  1  0  0  0  0
 10 11  1  1  0  0  0
 10 16  1  0  0  0  0
 12 13  1  1  0  0  0
 12 18  1  0  0  0  0
 13 35  1  0  0  0  0
 14 15  1  6  0  0  0
 14 20  1  0  0  0  0
 16 17  1  6  0  0  0
 16 21  1  0  0  0  0
 17 35  1  0  0  0  0
 18 19  1  6  0  0  0
 18 23  1  0  0  0  0
 20  2  1  1  0  0  0
 20 25  1  0  0  0  0
 21 22  1  1  0  0  0
 21 27  1  0  0  0  0
 23 24  1  0  0  0  0
 23 29  1  1  0  0  0
 25 26  1  6  0  0  0
 25 31  1  0  0  0  0
 27 28  1  0  0  0  0
 27 33  1  6  0  0  0
 29 30  1  0  0  0  0
 31 32  1  1  0  0  0
 33 34  1  0  0  0  0
M  END
>  <CHROM.1>
179.95224600,-176.10046105,122.44434015,-154.93848918,149.43230109,62.89278880
-160.27245524,-59.47755229,0.40337241,-7.33502708,45.62179046,-0.24643320
-0.16212195,2.60129924

>  <Name>
2o3v_lig

>  <RI>
0

>  <Rbt.Current_Directory>
/home/afrankz/demos/rdock_decoys_rna/rnas/2o3v

>  <Rbt.Executable>
rbdock ($Id: //depot/dev/client3/rdock/2013.1/src/exe/rbdock.cxx#4 $)

>  <Rbt.Library>
libRbt.so (2013.1, Build901 2013/11/27)

>  <Rbt.Parameter_File>
/export/apps/rDock/src/rDock_2013.1_src/data/scripts/dock_solv.prm

>  <Rbt.Receptor>
prm/pocket_docking_2.prm

>  <SCORE>
2.00108

>  <SCORE.INTER>
0.196322

>  <SCORE.INTER.CONST>
1

>  <SCORE.INTER.POLAR>
0

>  <SCORE.INTER.ROT>
8

>  <SCORE.INTER.SOLV>
13.3968

>  <SCORE.INTER.VDW>
-13.268

>  <SCORE.INTER.norm>
0.00560919

>  <SCORE.INTRA>
0.588904

>  <SCORE.INTRA.DIHEDRAL>
1.89356

>  <SCORE.INTRA.DIHEDRAL.0>
13.1227

>  <SCORE.INTRA.POLAR>
0

>  <SCORE.INTRA.POLAR.0>
0

>  <SCORE.INTRA.REPUL>
0.0668614

>  <SCORE.INTRA.REPUL.0>
0

>  <SCORE.INTRA.SOLV>
0.431741

>  <SCORE.INTRA.SOLV.lig_0>
-89.1587

>  <SCORE.INTRA.VDW>
-0.908052

>  <SCORE.INTRA.VDW.0>
-0.838383

>  <SCORE.INTRA.norm>
0.0168258

>  <SCORE.RESTR>
1.21585

>  <SCORE.RESTR.CAVITY>
1.21585

>  <SCORE.RESTR.norm>
0.0347386

>  <SCORE.SYSTEM>
0

>  <SCORE.SYSTEM.CONST>
0

>  <SCORE.SYSTEM.DIHEDRAL>
0

>  <SCORE.SYSTEM.SOLV>
0

>  <SCORE.SYSTEM.norm>
0

>  <SCORE.heavy>
35

>  <SCORE.norm>
0.0571737

>  <RMSD>
2.569

$$$$
2o3v_lig
 OpenBabel02141814113D
libRbt.so/2013.1/901 2013/11/27
 35 37  0  0  0  0  0  0  0  0999 V2000
    0.6580   -8.5898   45.5616 C   0  0  2  0  0  0  0  0  0  0  0  0
    1.4671   -7.9210   44.5462 O   0  0  0  0  0  0  0  0  0  0  0  0
    5.6460   -7.8414   43.3388 C   0  0  2  0  0  0  0  0  0  0  0  0
    7.1254   -7.6375   43.3844 N   0  0  0  0  0  0  0  0  0  0  0  0
   -7.1278   -8.4917   47.5916 C   0  0  2  0  0  0  0  0  0  0  0  0
   -7.4590   -9.8855   47.4092 O   0  0  0  0  0  0  0  0  0  0  0  0
   -0.7983   -8.4141   45.0264 C   0  0  2  0  0  0  0  0  0  0  0  0
   -0.9509   -9.0155   43.6805 N   0  0  0  0  0  0  0  0  0  0  0  0
    4.8968   -6.4542   43.5384 C   0  0  0  0  0  0  0  0  0  0  0  0
   -6.1813   -8.0745   46.4133 C   0  0  2  0  0  0  0  0  0  0  0  0
   -6.8281   -8.3174   45.0989 N   0  0  0  0  0  0  0  0  0  0  0  0
   -1.2228   -6.8820   44.9807 C   0  0  1  0  0  0  0  0  0  0  0  0
   -2.5940   -6.7334   44.4275 O   0  0  0  0  0  0  0  0  0  0  0  0
    3.3264   -6.7006   43.4974 C   0  0  2  0  0  0  0  0  0  0  0  0
    2.6094   -5.4223   43.6930 N   0  0  0  0  0  0  0  0  0  0  0  0
   -4.7825   -8.8310   46.4900 C   0  0  1  0  0  0  0  0  0  0  0  0
   -3.8735   -8.4387   45.4296 O   0  0  0  0  0  0  0  0  0  0  0  0
   -1.0450   -6.2946   46.4494 C   0  0  2  0  0  0  0  0  0  0  0  0
   -1.3784   -4.9191   46.5016 O   0  0  0  0  0  0  0  0  0  0  0  0
    2.9119   -7.7309   44.6270 C   0  0  2  0  0  0  0  0  0  0  0  0
   -4.1351   -8.5355   47.8800 C   0  0  2  0  0  0  0  0  0  0  0  0
   -2.8899   -9.1930   48.0096 O   0  0  0  0  0  0  0  0  0  0  0  0
    0.4326   -6.5064   46.9551 C   0  0  2  0  0  0  0  0  0  0  0  0
    0.7803   -7.9417   46.8964 O   0  0  0  0  0  0  0  0  0  0  0  0
    3.6538   -9.0823   44.4279 C   0  0  2  0  0  0  0  0  0  0  0  0
    3.2565   -9.9612   45.5191 O   0  0  0  0  0  0  0  0  0  0  0  0
   -5.1222   -8.9659   49.0375 C   0  0  2  0  0  0  0  0  0  0  0  0
   -6.4241   -8.2770   48.8850 O   0  0  0  0  0  0  0  0  0  0  0  0
    0.6207   -5.9841   48.3787 C   0  0  0  0  0  0  0  0  0  0  0  0
    1.9722   -6.0403   48.7648 O   0  0  0  0  0  0  0  0  0  0  0  0
    5.1819   -8.8468   44.4635 C   0  0  1  0  0  0  0  0  0  0  0  0
    5.8310  -10.0867   44.2751 O   0  0  0  0  0  0  0  0  0  0  0  0
   -4.5514   -8.6562   50.4131 C   0  0  0  0  0  0  0  0  0  0  0  0
   -5.4749   -9.0017   51.4170 O   0  0  0  0  0  0  0  0  0  0  0  0
   -3.6966   -6.9916   45.4275 C   0  0  0  0  0  0  0  0  0  0  0  0
  1  2  1  6  0  0  0
  1  7  1  0  0  0  0
  1 24  1  0  0  0  0
  3  4  1  1  0  0  0
  3  9  1  0  0  0  0
  3 31  1  0  0  0  0
  5  6  1  6  0  0  0
  5 10  1  0  0  0  0
  5 28  1  0  0  0  0
  7  8  1  6  0  0  0
  7 12  1  0  0  0  0
  9 14  1  0  0  0  0
 10 11  1  6  0  0  0
 10 16  1  0  0  0  0
 12 13  1  1  0  0  0
 12 18  1  0  0  0  0
 13 35  1  0  0  0  0
 14 15  1  1  0  0  0
 14 20  1  0  0  0  0
 16 17  1  6  0  0  0
 16 21  1  0  0  0  0
 17 35  1  0  0  0  0
 18 19  1  6  0  0  0
 18 23  1  0  0  0  0
 20  2  1  6  0  0  0
 20 25  1  0  0  0  0
 21 22  1  1  0  0  0
 21 27  1  0  0  0  0
 23 24  1  0  0  0  0
 23 29  1  1  0  0  0
 25 26  1  1  0  0  0
 25 31  1  0  0  0  0
 27 28  1  0  0  0  0
 27 33  1  1  0  0  0
 29 30  1  0  0  0  0
 31 32  1  6  0  0  0
 33 34  1  0  0  0  0
M  END
>  <CHROM.1>
175.82362183,80.98959527,-83.87560820,54.80933932,172.12046451,-167.80080821
-173.38891201,177.66315533,-0.78392656,-7.91632581,46.11514692,0.34616673
-0.06463082,-1.56361681

>  <Name>
2o3v_lig

>  <RI>
0

>  <Rbt.Current_Directory>
/home/afrankz/demos/rdock_decoys_rna/rnas/2o3v

>  <Rbt.Executable>
rbdock ($Id: //depot/dev/client3/rdock/2013.1/src/exe/rbdock.cxx#4 $)

>  <Rbt.Library>
libRbt.so (2013.1, Build901 2013/11/27)

>  <Rbt.Parameter_File>
/export/apps/rDock/src/rDock_2013.1_src/data/scripts/dock_solv.prm

>  <Rbt.Receptor>
prm/pocket_docking_2.prm

>  <SCORE>
-4.91229

>  <SCORE.INTER>
-1.94515

>  <SCORE.INTER.CONST>
1

>  <SCORE.INTER.POLAR>
0

>  <SCORE.INTER.ROT>
8

>  <SCORE.INTER.SOLV>
10.3482

>  <SCORE.INTER.VDW>
-13.6795

>  <SCORE.INTER.norm>
-0.0555756

>  <SCORE.INTRA>
-3.7881

>  <SCORE.INTRA.DIHEDRAL>
-7.23817

>  <SCORE.INTRA.DIHEDRAL.0>
13.1227

>  <SCORE.INTRA.POLAR>
0

>  <SCORE.INTRA.POLAR.0>
0

>  <SCORE.INTRA.REPUL>
0

>  <SCORE.INTRA.REPUL.0>
0

>  <SCORE.INTRA.SOLV>
0.343437

>  <SCORE.INTRA.SOLV.lig_0>
-89.1587

>  <SCORE.INTRA.VDW>
-0.340736

>  <SCORE.INTRA.VDW.0>
-0.838383

>  <SCORE.INTRA.norm>
-0.108231

>  <SCORE.RESTR>
0.820958

>  <SCORE.RESTR.CAVITY>
0.820958

>  <SCORE.RESTR.norm>
0.0234559

>  <SCORE.SYSTEM>
0

>  <SCORE.SYSTEM.CONST>
0

>  <SCORE.SYSTEM.DIHEDRAL>
0

>  <SCORE.SYSTEM.SOLV>
0

>  <SCORE.SYSTEM.norm>
0

>  <SCORE.heavy>
35

>  <SCORE.norm>
-0.140351

>  <RMSD>
2.577

$$$$
2o3v_lig
 OpenBabel02141814113D
libRbt.so/2013.1/901 2013/11/27
 35 37  0  0  0  0  0  0  0  0999 V2000
    2.2111   -9.1440   44.4580 C   0  0  2  0  0  0  0  0  0  0  0  0
    2.6481   -7.8062   44.0678 O   0  0  0  0  0  0  0  0  0  0  0  0
    6.3611   -6.3658   42.3168 C   0  0  2  0  0  0  0  0  0  0  0  0
    7.7774   -5.9076   42.1885 N   0  0  0  0  0  0  0  0  0  0  0  0
   -4.7276   -4.8780   46.4367 C   0  0  2  0  0  0  0  0  0  0  0  0
   -6.0927   -4.8443   45.9668 O   0  0  0  0  0  0  0  0  0  0  0  0
    0.6634   -9.0830   44.2598 C   0  0  2  0  0  0  0  0  0  0  0  0
    0.3153   -8.7495   42.8584 N   0  0  0  0  0  0  0  0  0  0  0  0
    5.5548   -5.3872   43.2746 C   0  0  0  0  0  0  0  0  0  0  0  0
   -3.8244   -5.3075   45.2292 C   0  0  2  0  0  0  0  0  0  0  0  0
   -3.9879   -4.3764   44.0840 N   0  0  0  0  0  0  0  0  0  0  0  0
   -0.0104   -8.0317   45.2449 C   0  0  1  0  0  0  0  0  0  0  0  0
   -1.4758   -7.9567   45.0100 O   0  0  0  0  0  0  0  0  0  0  0  0
    4.0562   -5.9031   43.4032 C   0  0  2  0  0  0  0  0  0  0  0  0
    3.2904   -5.0117   44.3007 N   0  0  0  0  0  0  0  0  0  0  0  0
   -4.1274   -6.8028   44.7742 C   0  0  1  0  0  0  0  0  0  0  0  0
   -3.2817   -7.2384   43.6789 O   0  0  0  0  0  0  0  0  0  0  0  0
    0.3919   -8.4437   46.7288 C   0  0  2  0  0  0  0  0  0  0  0  0
   -0.1463   -7.5438   47.6808 O   0  0  0  0  0  0  0  0  0  0  0  0
    4.0412   -7.3824   43.9695 C   0  0  2  0  0  0  0  0  0  0  0  0
   -3.9294   -7.7445   46.0041 C   0  0  2  0  0  0  0  0  0  0  0  0
   -4.1963   -9.0900   45.6608 O   0  0  0  0  0  0  0  0  0  0  0  0
    1.9593   -8.5078   46.8798 C   0  0  2  0  0  0  0  0  0  0  0  0
    2.5199   -9.4443   45.8831 O   0  0  0  0  0  0  0  0  0  0  0  0
    4.8371   -8.3314   43.0302 C   0  0  2  0  0  0  0  0  0  0  0  0
    4.8144   -9.6577   43.6315 O   0  0  0  0  0  0  0  0  0  0  0  0
   -4.8530   -7.2743   47.1980 C   0  0  2  0  0  0  0  0  0  0  0  0
   -4.5694   -5.8621   47.5415 O   0  0  0  0  0  0  0  0  0  0  0  0
    2.3723   -8.9378   48.2866 C   0  0  0  0  0  0  0  0  0  0  0  0
    3.7727   -8.9833   48.4122 O   0  0  0  0  0  0  0  0  0  0  0  0
    6.2948   -7.8311   42.8994 C   0  0  1  0  0  0  0  0  0  0  0  0
    6.9932   -8.7057   42.0383 O   0  0  0  0  0  0  0  0  0  0  0  0
   -4.6618   -8.1374   48.4359 C   0  0  0  0  0  0  0  0  0  0  0  0
   -5.1526   -9.4366   48.2093 O   0  0  0  0  0  0  0  0  0  0  0  0
   -1.8852   -6.9391   43.9710 C   0  0  0  0  0  0  0  0  0  0  0  0
  1  2  1  1  0  0  0
  1  7  1  0  0  0  0
  1 24  1  0  0  0  0
  3  4  1  1  0  0  0
  3  9  1  0  0  0  0
  3 31  1  0  0  0  0
  5  6  1  6  0  0  0
  5 10  1  0  0  0  0
  5 28  1  0  0  0  0
  7  8  1  6  0  0  0
  7 12  1  0  0  0  0
  9 14  1  0  0  0  0
 10 11  1  6  0  0  0
 10 16  1  0  0  0  0
 12 13  1  1  0  0  0
 12 18  1  0  0  0  0
 13 35  1  0  0  0  0
 14 15  1  1  0  0  0
 14 20  1  0  0  0  0
 16 17  1  6  0  0  0
 16 21  1  0  0  0  0
 17 35  1  0  0  0  0
 18 19  1  1  0  0  0
 18 23  1  0  0  0  0
 20  2  1  6  0  0  0
 20 25  1  0  0  0  0
 21 22  1  6  0  0  0
 21 27  1  0  0  0  0
 23 24  1  0  0  0  0
 23 29  1  1  0  0  0
 25 26  1  1  0  0  0
 25 31  1  0  0  0  0
 27 28  1  0  0  0  0
 27 33  1  1  0  0  0
 29 30  1  0  0  0  0
 31 32  1  6  0  0  0
 33 34  1  0  0  0  0
M  END
>  <CHROM.1>
-174.62550033,-89.28010774,167.40850352,49.15298228,74.08131669,175.43625494
-179.62677653,-68.24125584,0.35626442,-7.48833727,45.12001019,-0.16671922
-0.24214942,2.29686037

>  <Name>
2o3v_lig

>  <RI>
0

>  <Rbt.Current_Directory>
/home/afrankz/demos/rdock_decoys_rna/rnas/2o3v

>  <Rbt.Executable>
rbdock ($Id: //depot/dev/client3/rdock/2013.1/src/exe/rbdock.cxx#4 $)

>  <Rbt.Library>
libRbt.so (2013.1, Build901 2013/11/27)

>  <Rbt.Parameter_File>
/export/apps/rDock/src/rDock_2013.1_src/data/scripts/dock_solv.prm

>  <Rbt.Receptor>
prm/pocket_docking_6.prm

>  <SCORE>
-10.1232

>  <SCORE.INTER>
-7.50468

>  <SCORE.INTER.CONST>
1

>  <SCORE.INTER.POLAR>
0

>  <SCORE.INTER.ROT>
8

>  <SCORE.INTER.SOLV>
19.6017

>  <SCORE.INTER.VDW>
-20.4704

>  <SCORE.INTER.norm>
-0.21442

>  <SCORE.INTRA>
-2.6185

>  <SCORE.INTRA.DIHEDRAL>
-6.8799

>  <SCORE.INTRA.DIHEDRAL.0>
13.1227

>  <SCORE.INTRA.POLAR>
0

>  <SCORE.INTRA.POLAR.0>
0

>  <SCORE.INTRA.REPUL>
0

>  <SCORE.INTRA.REPUL.0>
0

>  <SCORE.INTRA.SOLV>
0.27802

>  <SCORE.INTRA.SOLV.lig_0>
-89.1587

>  <SCORE.INTRA.VDW>
0.682442

>  <SCORE.INTRA.VDW.0>
-0.838383

>  <SCORE.INTRA.norm>
-0.0748142

>  <SCORE.RESTR>
0

>  <SCORE.RESTR.CAVITY>
0

>  <SCORE.RESTR.norm>
0

>  <SCORE.SYSTEM>
0

>  <SCORE.SYSTEM.CONST>
0

>  <SCORE.SYSTEM.DIHEDRAL>
0

>  <SCORE.SYSTEM.SOLV>
0

>  <SCORE.SYSTEM.norm>
0

>  <SCORE.heavy>
35

>  <SCORE.norm>
-0.289234

>  <RMSD>
2.578

$$$$
2o3v_lig
 OpenBabel02141814113D
libRbt.so/2013.1/901 2013/11/27
 35 37  0  0  0  0  0  0  0  0999 V2000
    1.8905   -8.9726   45.5613 C   0  0  2  0  0  0  0  0  0  0  0  0
    2.3248   -7.7894   44.8236 O   0  0  0  0  0  0  0  0  0  0  0  0
    5.8308   -6.6813   42.4982 C   0  0  2  0  0  0  0  0  0  0  0  0
    7.2402   -6.3296   42.1489 N   0  0  0  0  0  0  0  0  0  0  0  0
   -6.7859   -9.9102   48.4131 C   0  0  2  0  0  0  0  0  0  0  0  0
   -6.3275  -11.2297   48.0468 O   0  0  0  0  0  0  0  0  0  0  0  0
    0.3531   -8.7480   45.7176 C   0  0  2  0  0  0  0  0  0  0  0  0
   -0.3066   -8.6187   44.3968 N   0  0  0  0  0  0  0  0  0  0  0  0
    5.2369   -5.6133   43.5142 C   0  0  0  0  0  0  0  0  0  0  0  0
   -5.9171   -8.8731   47.6206 C   0  0  2  0  0  0  0  0  0  0  0  0
   -6.0173   -9.1022   46.1569 N   0  0  0  0  0  0  0  0  0  0  0  0
    0.0374   -7.4652   46.6031 C   0  0  1  0  0  0  0  0  0  0  0  0
   -1.4287   -7.2438   46.7025 O   0  0  0  0  0  0  0  0  0  0  0  0
    3.7424   -6.0166   43.8781 C   0  0  2  0  0  0  0  0  0  0  0  0
    3.1741   -5.0408   44.8327 N   0  0  0  0  0  0  0  0  0  0  0  0
   -4.3942   -8.9099   48.0835 C   0  0  1  0  0  0  0  0  0  0  0  0
   -3.5730   -7.9361   47.3894 O   0  0  0  0  0  0  0  0  0  0  0  0
    0.7635   -7.6641   48.0055 C   0  0  2  0  0  0  0  0  0  0  0  0
    0.5577   -6.5522   48.8582 O   0  0  0  0  0  0  0  0  0  0  0  0
    3.7136   -7.4693   44.5090 C   0  0  2  0  0  0  0  0  0  0  0  0
   -4.3379   -8.6508   49.6225 C   0  0  2  0  0  0  0  0  0  0  0  0
   -3.0051   -8.6827   50.0937 O   0  0  0  0  0  0  0  0  0  0  0  0
    2.3078   -7.9023   47.8004 C   0  0  2  0  0  0  0  0  0  0  0  0
    2.5208   -9.0605   46.9072 O   0  0  0  0  0  0  0  0  0  0  0  0
    4.3018   -8.5062   43.5114 C   0  0  2  0  0  0  0  0  0  0  0  0
    4.2804   -9.8046   44.1709 O   0  0  0  0  0  0  0  0  0  0  0  0
   -5.2289   -9.7134   50.3816 C   0  0  2  0  0  0  0  0  0  0  0  0
   -6.6191   -9.6754   49.8729 O   0  0  0  0  0  0  0  0  0  0  0  0
    3.0233   -8.1334   49.1306 C   0  0  0  0  0  0  0  0  0  0  0  0
    3.0134   -6.9694   49.9204 O   0  0  0  0  0  0  0  0  0  0  0  0
    5.7545   -8.1158   43.1519 C   0  0  1  0  0  0  0  0  0  0  0  0
    6.2626   -9.0687   42.2420 O   0  0  0  0  0  0  0  0  0  0  0  0
   -5.2401   -9.4737   51.8837 C   0  0  0  0  0  0  0  0  0  0  0  0
   -3.9750   -9.7500   52.4345 O   0  0  0  0  0  0  0  0  0  0  0  0
   -2.1772   -8.3565   47.3983 C   0  0  0  0  0  0  0  0  0  0  0  0
  1  2  1  6  0  0  0
  1  7  1  0  0  0  0
  1 24  1  0  0  0  0
  3  4  1  1  0  0  0
  3  9  1  0  0  0  0
  3 31  1  0  0  0  0
  5  6  1  1  0  0  0
  5 10  1  0  0  0  0
  5 28  1  0  0  0  0
  7  8  1  6  0  0  0
  7 12  1  0  0  0  0
  9 14  1  0  0  0  0
 10 11  1  6  0  0  0
 10 16  1  0  0  0  0
 12 13  1  1  0  0  0
 12 18  1  0  0  0  0
 13 35  1  0  0  0  0
 14 15  1  1  0  0  0
 14 20  1  0  0  0  0
 16 17  1  6  0  0  0
 16 21  1  0  0  0  0
 17 35  1  0  0  0  0
 18 19  1  1  0  0  0
 18 23  1  0  0  0  0
 20  2  1  6  0  0  0
 20 25  1  0  0  0  0
 21 22  1  1  0  0  0
 21 27  1  0  0  0  0
 23 24  1  0  0  0  0
 23 29  1  1  0  0  0
 25 26  1  1  0  0  0
 25 31  1  0  0  0  0
 27 28  1  0  0  0  0
 27 33  1  1  0  0  0
 29 30  1  0  0  0  0
 31 32  1  6  0  0  0
 33 34  1  0  0  0  0
M  END
>  <CHROM.1>
175.15622125,63.24763202,179.75887361,-156.01842831,-177.78173031,-172.50987281
-67.07784904,-68.64017180,0.00012740,-8.24904287,46.80449485,0.47511782,-0.24375280
-1.66859418

>  <Name>
2o3v_lig

>  <RI>
0

>  <Rbt.Current_Directory>
/home/afrankz/demos/rdock_decoys_rna/rnas/2o3v

>  <Rbt.Executable>
rbdock ($Id: //depot/dev/client3/rdock/2013.1/src/exe/rbdock.cxx#4 $)

>  <Rbt.Library>
libRbt.so (2013.1, Build901 2013/11/27)

>  <Rbt.Parameter_File>
/export/apps/rDock/src/rDock_2013.1_src/data/scripts/dock_solv.prm

>  <Rbt.Receptor>
prm/pocket_docking_4.prm

>  <SCORE>
-11.2897

>  <SCORE.INTER>
-5.40925

>  <SCORE.INTER.CONST>
1

>  <SCORE.INTER.POLAR>
0

>  <SCORE.INTER.ROT>
8

>  <SCORE.INTER.SOLV>
13.5194

>  <SCORE.INTER.VDW>
-17.046

>  <SCORE.INTER.norm>
-0.15455

>  <SCORE.INTRA>
-5.88044

>  <SCORE.INTRA.DIHEDRAL>
-9.69383

>  <SCORE.INTRA.DIHEDRAL.0>
13.1227

>  <SCORE.INTRA.POLAR>
0

>  <SCORE.INTRA.POLAR.0>
0

>  <SCORE.INTRA.REPUL>
0

>  <SCORE.INTRA.REPUL.0>
0

>  <SCORE.INTRA.SOLV>
-0.565506

>  <SCORE.INTRA.SOLV.lig_0>
-89.1587

>  <SCORE.INTRA.VDW>
-0.750772

>  <SCORE.INTRA.VDW.0>
-0.838383

>  <SCORE.INTRA.norm>
-0.168013

>  <SCORE.RESTR>
0

>  <SCORE.RESTR.CAVITY>
0

>  <SCORE.RESTR.norm>
0

>  <SCORE.SYSTEM>
0

>  <SCORE.SYSTEM.CONST>
0

>  <SCORE.SYSTEM.DIHEDRAL>
0

>  <SCORE.SYSTEM.SOLV>
0

>  <SCORE.SYSTEM.norm>
0

>  <SCORE.heavy>
35

>  <SCORE.norm>
-0.322563

>  <RMSD>
2.581

$$$$
2o3v_lig
 OpenBabel02141814113D
libRbt.so/2013.1/901 2013/11/27
 35 37  0  0  0  0  0  0  0  0999 V2000
    1.8257   -8.9383   45.4356 C   0  0  2  0  0  0  0  0  0  0  0  0
    2.2528   -7.8069   44.6168 O   0  0  0  0  0  0  0  0  0  0  0  0
    6.4100   -7.2042   43.4847 C   0  0  2  0  0  0  0  0  0  0  0  0
    7.6646   -7.1884   42.6735 N   0  0  0  0  0  0  0  0  0  0  0  0
   -5.4124   -5.6544   45.8177 C   0  0  2  0  0  0  0  0  0  0  0  0
   -6.2345   -6.2003   44.7634 O   0  0  0  0  0  0  0  0  0  0  0  0
    0.2959   -8.6846   45.6200 C   0  0  2  0  0  0  0  0  0  0  0  0
   -0.3989   -8.6256   44.3123 N   0  0  0  0  0  0  0  0  0  0  0  0
    5.8880   -8.6955   43.6547 C   0  0  0  0  0  0  0  0  0  0  0  0
   -4.0756   -6.4733   45.8443 C   0  0  2  0  0  0  0  0  0  0  0  0
   -3.3899   -6.4166   44.5285 N   0  0  0  0  0  0  0  0  0  0  0  0
    0.0199   -7.3472   46.4353 C   0  0  1  0  0  0  0  0  0  0  0  0
   -1.4402   -7.1012   46.5612 O   0  0  0  0  0  0  0  0  0  0  0  0
    4.5478   -8.6832   44.5105 C   0  0  2  0  0  0  0  0  0  0  0  0
    4.0383  -10.0620   44.6709 N   0  0  0  0  0  0  0  0  0  0  0  0
   -4.3242   -7.9860   46.2742 C   0  0  1  0  0  0  0  0  0  0  0  0
   -3.0985   -8.7594   46.3396 O   0  0  0  0  0  0  0  0  0  0  0  0
    0.7827   -7.4717   47.8268 C   0  0  2  0  0  0  0  0  0  0  0  0
    0.6136   -6.3083   48.6166 O   0  0  0  0  0  0  0  0  0  0  0  0
    3.4580   -7.7844   43.7939 C   0  0  2  0  0  0  0  0  0  0  0  0
   -5.0324   -7.9955   47.6659 C   0  0  2  0  0  0  0  0  0  0  0  0
   -5.2891   -9.3181   48.0953 O   0  0  0  0  0  0  0  0  0  0  0  0
    2.3178   -7.7419   47.5943 C   0  0  2  0  0  0  0  0  0  0  0  0
    2.4925   -8.9540   46.7667 O   0  0  0  0  0  0  0  0  0  0  0  0
    3.9790   -6.3295   43.6261 C   0  0  2  0  0  0  0  0  0  0  0  0
    2.9466   -5.5757   42.9282 O   0  0  0  0  0  0  0  0  0  0  0  0
   -6.3706   -7.1566   47.5962 C   0  0  2  0  0  0  0  0  0  0  0  0
   -6.0888   -5.7771   47.1373 O   0  0  0  0  0  0  0  0  0  0  0  0
    3.0676   -7.9027   48.9159 C   0  0  0  0  0  0  0  0  0  0  0  0
    3.1722   -6.6736   49.5921 O   0  0  0  0  0  0  0  0  0  0  0  0
    5.2847   -6.3371   42.7971 C   0  0  1  0  0  0  0  0  0  0  0  0
    5.7391   -5.0067   42.6644 O   0  0  0  0  0  0  0  0  0  0  0  0
   -7.0750   -7.1007   48.9433 C   0  0  0  0  0  0  0  0  0  0  0  0
   -8.3494   -6.5199   48.8073 O   0  0  0  0  0  0  0  0  0  0  0  0
   -2.1865   -8.1762   47.3160 C   0  0  0  0  0  0  0  0  0  0  0  0
  1  2  1  6  0  0  0
  1  7  1  0  0  0  0
  1 24  1  0  0  0  0
  3  4  1  6  0  0  0
  3  9  1  0  0  0  0
  3 31  1  0  0  0  0
  5  6  1  6  0  0  0
  5 10  1  0  0  0  0
  5 28  1  0  0  0  0
  7  8  1  6  0  0  0
  7 12  1  0  0  0  0
  9 14  1  0  0  0  0
 10 11  1  6  0  0  0
 10 16  1  0  0  0  0
 12 13  1  1  0  0  0
 12 18  1  0  0  0  0
 13 35  1  0  0  0  0
 14 15  1  6  0  0  0
 14 20  1  0  0  0  0
 16 17  1  1  0  0  0
 16 21  1  0  0  0  0
 17 35  1  0  0  0  0
 18 19  1  6  0  0  0
 18 23  1  0  0  0  0
 20  2  1  1  0  0  0
 20 25  1  0  0  0  0
 21 22  1  6  0  0  0
 21 27  1  0  0  0  0
 23 24  1  0  0  0  0
 23 29  1  1  0  0  0
 25 26  1  6  0  0  0
 25 31  1  0  0  0  0
 27 28  1  0  0  0  0
 27 33  1  1  0  0  0
 29 30  1  0  0  0  0
 31 32  1  1  0  0  0
 33 34  1  0  0  0  0
M  END
>  <CHROM.1>
-158.30147723,61.94578788,-115.94460200,60.15903874,-85.31396549,-31.81279927
-71.09076308,-171.40553143,-0.11558458,-7.40621658,45.92509422,-0.26171534
-0.11419207,1.87819805

>  <Name>
2o3v_lig

>  <RI>
0

>  <Rbt.Current_Directory>
/home/afrankz/demos/rdock_decoys_rna/rnas/2o3v

>  <Rbt.Executable>
rbdock ($Id: //depot/dev/client3/rdock/2013.1/src/exe/rbdock.cxx#4 $)

>  <Rbt.Library>
libRbt.so (2013.1, Build901 2013/11/27)

>  <Rbt.Parameter_File>
/export/apps/rDock/src/rDock_2013.1_src/data/scripts/dock_solv.prm

>  <Rbt.Receptor>
prm/pocket_docking_2.prm

>  <SCORE>
2.4789

>  <SCORE.INTER>
-3.20374

>  <SCORE.INTER.CONST>
1

>  <SCORE.INTER.POLAR>
0

>  <SCORE.INTER.ROT>
8

>  <SCORE.INTER.SOLV>
11.8149

>  <SCORE.INTER.VDW>
-15.0075

>  <SCORE.INTER.norm>
-0.0915355

>  <SCORE.INTRA>
5.66347

>  <SCORE.INTRA.DIHEDRAL>
2.81645

>  <SCORE.INTRA.DIHEDRAL.0>
13.1227

>  <SCORE.INTRA.POLAR>
0

>  <SCORE.INTRA.POLAR.0>
0

>  <SCORE.INTRA.REPUL>
0

>  <SCORE.INTRA.REPUL.0>
0

>  <SCORE.INTRA.SOLV>
4.56609

>  <SCORE.INTRA.SOLV.lig_0>
-89.1587

>  <SCORE.INTRA.VDW>
1.9722

>  <SCORE.INTRA.VDW.0>
-0.838383

>  <SCORE.INTRA.norm>
0.161814

>  <SCORE.RESTR>
0.0191689

>  <SCORE.RESTR.CAVITY>
0.0191689

>  <SCORE.RESTR.norm>
0.000547684

>  <SCORE.SYSTEM>
0

>  <SCORE.SYSTEM.CONST>
0

>  <SCORE.SYSTEM.DIHEDRAL>
0

>  <SCORE.SYSTEM.SOLV>
0

>  <SCORE.SYSTEM.norm>
0

>  <SCORE.heavy>
35

>  <SCORE.norm>
0.0708257

>  <RMSD>
2.629

$$$$
2o3v_lig
 OpenBabel02141814113D
libRbt.so/2013.1/901 2013/11/27
 35 37  0  0  0  0  0  0  0  0999 V2000
    2.1345   -9.0770   44.5162 C   0  0  2  0  0  0  0  0  0  0  0  0
    2.5964   -7.8011   43.9764 O   0  0  0  0  0  0  0  0  0  0  0  0
    6.3728   -6.3457   42.3802 C   0  0  2  0  0  0  0  0  0  0  0  0
    7.7913   -5.8817   42.3104 N   0  0  0  0  0  0  0  0  0  0  0  0
   -5.0112   -3.5209   46.0519 C   0  0  2  0  0  0  0  0  0  0  0  0
   -6.1111   -3.2941   45.1440 O   0  0  0  0  0  0  0  0  0  0  0  0
    0.6154   -9.0855   44.1547 C   0  0  2  0  0  0  0  0  0  0  0  0
    0.4122   -8.9723   42.6911 N   0  0  0  0  0  0  0  0  0  0  0  0
    5.5234   -5.3702   43.3033 C   0  0  0  0  0  0  0  0  0  0  0  0
   -3.9984   -4.4791   45.3346 C   0  0  2  0  0  0  0  0  0  0  0  0
   -3.5372   -3.8997   44.0476 N   0  0  0  0  0  0  0  0  0  0  0  0
   -0.1681   -7.9175   44.8972 C   0  0  1  0  0  0  0  0  0  0  0  0
   -1.6017   -7.9155   44.5058 O   0  0  0  0  0  0  0  0  0  0  0  0
    4.0230   -5.8923   43.3699 C   0  0  2  0  0  0  0  0  0  0  0  0
    3.2170   -5.0038   44.2345 N   0  0  0  0  0  0  0  0  0  0  0  0
   -4.6257   -5.9231   45.0982 C   0  0  1  0  0  0  0  0  0  0  0  0
   -3.6977   -6.8413   44.4654 O   0  0  0  0  0  0  0  0  0  0  0  0
    0.0811   -8.0948   46.4593 C   0  0  2  0  0  0  0  0  0  0  0  0
   -0.5626   -7.0779   47.2058 O   0  0  0  0  0  0  0  0  0  0  0  0
    3.9906   -7.3715   43.9357 C   0  0  2  0  0  0  0  0  0  0  0  0
   -5.0822   -6.4967   46.4771 C   0  0  2  0  0  0  0  0  0  0  0  0
   -5.6595   -7.7788   46.3270 O   0  0  0  0  0  0  0  0  0  0  0  0
    1.6248   -8.0958   46.7769 C   0  0  2  0  0  0  0  0  0  0  0  0
    2.2957   -9.1550   45.9942 O   0  0  0  0  0  0  0  0  0  0  0  0
    4.8287   -8.3174   43.0306 C   0  0  2  0  0  0  0  0  0  0  0  0
    4.7866   -9.6436   43.6310 O   0  0  0  0  0  0  0  0  0  0  0  0
   -6.0968   -5.4997   47.1670 C   0  0  2  0  0  0  0  0  0  0  0  0
   -5.4831   -4.1597   47.3102 O   0  0  0  0  0  0  0  0  0  0  0  0
    1.8928   -8.3021   48.2670 C   0  0  0  0  0  0  0  0  0  0  0  0
    3.2705   -8.2492   48.5463 O   0  0  0  0  0  0  0  0  0  0  0  0
    6.2884   -7.8112   42.9601 C   0  0  1  0  0  0  0  0  0  0  0  0
    7.0255   -8.6830   42.1291 O   0  0  0  0  0  0  0  0  0  0  0  0
   -6.5367   -5.9964   48.5359 C   0  0  0  0  0  0  0  0  0  0  0  0
   -5.4220   -6.1687   49.3772 O   0  0  0  0  0  0  0  0  0  0  0  0
   -2.4253   -6.8414   45.1768 C   0  0  0  0  0  0  0  0  0  0  0  0
  1  2  1  1  0  0  0
  1  7  1  0  0  0  0
  1 24  1  0  0  0  0
  3  4  1  1  0  0  0
  3  9  1  0  0  0  0
  3 31  1  0  0  0  0
  5  6  1  6  0  0  0
  5 10  1  0  0  0  0
  5 28  1  0  0  0  0
  7  8  1  6  0  0  0
  7 12  1  0  0  0  0
  9 14  1  0  0  0  0
 10 11  1  6  0  0  0
 10 16  1  0  0  0  0
 12 13  1  1  0  0  0
 12 18  1  0  0  0  0
 13 35  1  0  0  0  0
 14 15  1  1  0  0  0
 14 20  1  0  0  0  0
 16 17  1  1  0  0  0
 16 21  1  0  0  0  0
 17 35  1  0  0  0  0
 18 19  1  1  0  0  0
 18 23  1  0  0  0  0
 20  2  1  6  0  0  0
 20 25  1  0  0  0  0
 21 22  1  6  0  0  0
 21 27  1  0  0  0  0
 23 24  1  0  0  0  0
 23 29  1  1  0  0  0
 25 26  1  1  0  0  0
 25 31  1  0  0  0  0
 27 28  1  0  0  0  0
 27 33  1  1  0  0  0
 29 30  1  0  0  0  0
 31 32  1  6  0  0  0
 33 34  1  0  0  0  0
M  END
>  <CHROM.1>
-173.44500575,179.48068477,168.84490703,50.54381501,175.00736633,-175.97573750
-177.70322476,58.48900171,0.03308384,-6.89989966,45.17361655,-0.06669661
-0.33970453,2.33669834

>  <Name>
2o3v_lig

>  <RI>
0

>  <Rbt.Current_Directory>
/home/afrankz/demos/rdock_decoys_rna/rnas/2o3v

>  <Rbt.Executable>
rbdock ($Id: //depot/dev/client3/rdock/2013.1/src/exe/rbdock.cxx#4 $)

>  <Rbt.Library>
libRbt.so (2013.1, Build901 2013/11/27)

>  <Rbt.Parameter_File>
/export/apps/rDock/src/rDock_2013.1_src/data/scripts/dock_solv.prm

>  <Rbt.Receptor>
prm/pocket_docking_5.prm

>  <SCORE>
-12.8176

>  <SCORE.INTER>
-7.53224

>  <SCORE.INTER.CONST>
1

>  <SCORE.INTER.POLAR>
0

>  <SCORE.INTER.ROT>
8

>  <SCORE.INTER.SOLV>
20.6311

>  <SCORE.INTER.VDW>
-20.8319

>  <SCORE.INTER.norm>
-0.215207

>  <SCORE.INTRA>
-5.28539

>  <SCORE.INTRA.DIHEDRAL>
-11.6025

>  <SCORE.INTRA.DIHEDRAL.0>
13.1227

>  <SCORE.INTRA.POLAR>
0

>  <SCORE.INTRA.POLAR.0>
0

>  <SCORE.INTRA.REPUL>
0

>  <SCORE.INTRA.REPUL.0>
0

>  <SCORE.INTRA.SOLV>
-0.92723

>  <SCORE.INTRA.SOLV.lig_0>
-89.1587

>  <SCORE.INTRA.VDW>
0.979492

>  <SCORE.INTRA.VDW.0>
-0.838383

>  <SCORE.INTRA.norm>
-0.151011

>  <SCORE.RESTR>
0

>  <SCORE.RESTR.CAVITY>
0

>  <SCORE.RESTR.norm>
0

>  <SCORE.SYSTEM>
0

>  <SCORE.SYSTEM.CONST>
0

>  <SCORE.SYSTEM.DIHEDRAL>
0

>  <SCORE.SYSTEM.SOLV>
0

>  <SCORE.SYSTEM.norm>
0

>  <SCORE.heavy>
35

>  <SCORE.norm>
-0.366218

>  <RMSD>
2.670

$$$$
2o3v_lig
 OpenBabel02141814113D
libRbt.so/2013.1/901 2013/11/27
 35 37  0  0  0  0  0  0  0  0999 V2000
    2.1731   -8.7085   45.6808 C   0  0  2  0  0  0  0  0  0  0  0  0
    2.6241   -7.5525   44.9108 O   0  0  0  0  0  0  0  0  0  0  0  0
    6.5633   -7.3343   43.0770 C   0  0  2  0  0  0  0  0  0  0  0  0
    7.6481   -7.3863   42.0510 N   0  0  0  0  0  0  0  0  0  0  0  0
   -6.5497   -6.7371   46.9832 C   0  0  2  0  0  0  0  0  0  0  0  0
   -7.0503   -7.3913   45.7970 O   0  0  0  0  0  0  0  0  0  0  0  0
    0.7351   -8.9632   45.1281 C   0  0  2  0  0  0  0  0  0  0  0  0
    0.7593   -9.2178   43.6683 N   0  0  0  0  0  0  0  0  0  0  0  0
    5.8846   -8.7633   43.2275 C   0  0  0  0  0  0  0  0  0  0  0  0
   -5.2566   -5.9493   46.5763 C   0  0  2  0  0  0  0  0  0  0  0  0
   -5.5449   -4.9756   45.4929 N   0  0  0  0  0  0  0  0  0  0  0  0
   -0.2364   -7.7443   45.4443 C   0  0  1  0  0  0  0  0  0  0  0  0
   -1.5862   -7.9867   44.8720 O   0  0  0  0  0  0  0  0  0  0  0  0
    4.7278   -8.6778   44.3152 C   0  0  2  0  0  0  0  0  0  0  0  0
    4.0746   -9.9962   44.4625 N   0  0  0  0  0  0  0  0  0  0  0  0
   -4.0847   -6.9339   46.1381 C   0  0  1  0  0  0  0  0  0  0  0  0
   -2.8640   -6.2325   45.7879 O   0  0  0  0  0  0  0  0  0  0  0  0
   -0.2264   -7.5238   47.0207 C   0  0  2  0  0  0  0  0  0  0  0  0
   -1.0502   -6.4350   47.3972 O   0  0  0  0  0  0  0  0  0  0  0  0
    3.6596   -7.5909   43.8830 C   0  0  2  0  0  0  0  0  0  0  0  0
   -3.8079   -7.9273   47.3107 C   0  0  2  0  0  0  0  0  0  0  0  0
   -2.7790   -8.8366   46.9730 O   0  0  0  0  0  0  0  0  0  0  0  0
    1.2435   -7.2859   47.5370 C   0  0  2  0  0  0  0  0  0  0  0  0
    2.1028   -8.4210   47.1399 O   0  0  0  0  0  0  0  0  0  0  0  0
    4.3329   -6.1980   43.7320 C   0  0  2  0  0  0  0  0  0  0  0  0
    3.3048   -5.2630   43.2965 O   0  0  0  0  0  0  0  0  0  0  0  0
   -5.1358   -8.6959   47.6917 C   0  0  2  0  0  0  0  0  0  0  0  0
   -6.2067   -7.7324   48.0348 O   0  0  0  0  0  0  0  0  0  0  0  0
    1.2855   -7.1083   49.0540 C   0  0  0  0  0  0  0  0  0  0  0  0
    2.6083   -6.9676   49.5115 O   0  0  0  0  0  0  0  0  0  0  0  0
    5.4614   -6.2774   42.6774 C   0  0  1  0  0  0  0  0  0  0  0  0
    6.0592   -5.0032   42.5637 O   0  0  0  0  0  0  0  0  0  0  0  0
   -4.9250   -9.6456   48.8612 C   0  0  0  0  0  0  0  0  0  0  0  0
   -6.0589  -10.4586   49.0440 O   0  0  0  0  0  0  0  0  0  0  0  0
   -2.3444   -6.7285   44.5193 C   0  0  0  0  0  0  0  0  0  0  0  0
  1  2  1  6  0  0  0
  1  7  1  0  0  0  0
  1 24  1  0  0  0  0
  3  4  1  6  0  0  0
  3  9  1  0  0  0  0
  3 31  1  0  0  0  0
  5  6  1  6  0  0  0
  5 10  1  0  0  0  0
  5 28  1  0  0  0  0
  7  8  1  6  0  0  0
  7 12  1  0  0  0  0
  9 14  1  0  0  0  0
 10 11  1  6  0  0  0
 10 16  1  0  0  0  0
 12 13  1  1  0  0  0
 12 18  1  0  0  0  0
 13 35  1  0  0  0  0
 14 15  1  6  0  0  0
 14 20  1  0  0  0  0
 16 17  1  1  0  0  0
 16 21  1  0  0  0  0
 17 35  1  0  0  0  0
 18 19  1  6  0  0  0
 18 23  1  0  0  0  0
 20  2  1  1  0  0  0
 20 25  1  0  0  0  0
 21 22  1  6  0  0  0
 21 27  1  0  0  0  0
 23 24  1  0  0  0  0
 23 29  1  1  0  0  0
 25 26  1  6  0  0  0
 25 31  1  0  0  0  0
 27 28  1  0  0  0  0
 27 33  1  1  0  0  0
 29 30  1  0  0  0  0
 31 32  1  1  0  0  0
 33 34  1  0  0  0  0
M  END
>  <CHROM.1>
-109.75711101,-152.02799769,-78.67264849,-131.96513202,-81.99111582,-33.59849184
176.87098615,-171.03426570,-0.06347607,-7.55342497,45.74243176,-0.30082139
-0.15055919,2.14699120

>  <Name>
2o3v_lig

>  <RI>
0

>  <Rbt.Current_Directory>
/home/afrankz/demos/rdock_decoys_rna/rnas/2o3v

>  <Rbt.Executable>
rbdock ($Id: //depot/dev/client3/rdock/2013.1/src/exe/rbdock.cxx#4 $)

>  <Rbt.Library>
libRbt.so (2013.1, Build901 2013/11/27)

>  <Rbt.Parameter_File>
/export/apps/rDock/src/rDock_2013.1_src/data/scripts/dock_solv.prm

>  <Rbt.Receptor>
prm/pocket_docking_2.prm

>  <SCORE>
2.51721

>  <SCORE.INTER>
-4.19771

>  <SCORE.INTER.CONST>
1

>  <SCORE.INTER.POLAR>
0

>  <SCORE.INTER.ROT>
8

>  <SCORE.INTER.SOLV>
17.9062

>  <SCORE.INTER.VDW>
-17.7006

>  <SCORE.INTER.norm>
-0.119934

>  <SCORE.INTRA>
6.58125

>  <SCORE.INTRA.DIHEDRAL>
10.2863

>  <SCORE.INTRA.DIHEDRAL.0>
13.1227

>  <SCORE.INTRA.POLAR>
0

>  <SCORE.INTRA.POLAR.0>
0

>  <SCORE.INTRA.REPUL>
0

>  <SCORE.INTRA.REPUL.0>
0

>  <SCORE.INTRA.SOLV>
3.74872

>  <SCORE.INTRA.SOLV.lig_0>
-89.1587

>  <SCORE.INTRA.VDW>
-0.436261

>  <SCORE.INTRA.VDW.0>
-0.838383

>  <SCORE.INTRA.norm>
0.188036

>  <SCORE.RESTR>
0.133671

>  <SCORE.RESTR.CAVITY>
0.133671

>  <SCORE.RESTR.norm>
0.00381916

>  <SCORE.SYSTEM>
0

>  <SCORE.SYSTEM.CONST>
0

>  <SCORE.SYSTEM.DIHEDRAL>
0

>  <SCORE.SYSTEM.SOLV>
0

>  <SCORE.SYSTEM.norm>
0

>  <SCORE.heavy>
35

>  <SCORE.norm>
0.0719204

>  <RMSD>
2.763

$$$$
2o3v_lig
 OpenBabel02141814113D
libRbt.so/2013.1/901 2013/11/27
 35 37  0  0  0  0  0  0  0  0999 V2000
    0.8538   -8.6780   45.4643 C   0  0  2  0  0  0  0  0  0  0  0  0
    1.7835   -8.0267   44.5455 O   0  0  0  0  0  0  0  0  0  0  0  0
    5.9998   -8.5838   43.6290 C   0  0  2  0  0  0  0  0  0  0  0  0
    7.4882   -8.5567   43.7566 N   0  0  0  0  0  0  0  0  0  0  0  0
   -6.3146   -6.7507   48.6722 C   0  0  2  0  0  0  0  0  0  0  0  0
   -7.3553   -7.3995   47.9097 O   0  0  0  0  0  0  0  0  0  0  0  0
   -0.5305   -8.4742   44.7711 C   0  0  2  0  0  0  0  0  0  0  0  0
   -0.5449   -9.0744   43.4162 N   0  0  0  0  0  0  0  0  0  0  0  0
    5.4236   -7.1028   43.6367 C   0  0  0  0  0  0  0  0  0  0  0  0
   -5.3543   -6.0453   47.6532 C   0  0  2  0  0  0  0  0  0  0  0  0
   -6.0957   -5.0791   46.8037 N   0  0  0  0  0  0  0  0  0  0  0  0
   -0.9169   -6.9341   44.6801 C   0  0  1  0  0  0  0  0  0  0  0  0
   -2.2151   -6.7592   43.9784 O   0  0  0  0  0  0  0  0  0  0  0  0
    3.8395   -7.1603   43.5117 C   0  0  2  0  0  0  0  0  0  0  0  0
    3.2815   -5.7910   43.5286 N   0  0  0  0  0  0  0  0  0  0  0  0
   -4.5845   -7.1030   46.7456 C   0  0  1  0  0  0  0  0  0  0  0  0
   -3.6631   -6.4786   45.8151 O   0  0  0  0  0  0  0  0  0  0  0  0
   -0.8913   -6.3484   46.1599 C   0  0  2  0  0  0  0  0  0  0  0  0
   -1.2011   -4.9665   46.1760 O   0  0  0  0  0  0  0  0  0  0  0  0
    3.2339   -8.0053   44.7069 C   0  0  2  0  0  0  0  0  0  0  0  0
   -3.8103   -8.0864   47.6794 C   0  0  2  0  0  0  0  0  0  0  0  0
   -3.1134   -9.0589   46.9256 O   0  0  0  0  0  0  0  0  0  0  0  0
    0.5166   -6.5887   46.8261 C   0  0  2  0  0  0  0  0  0  0  0  0
    0.8402   -8.0307   46.8050 O   0  0  0  0  0  0  0  0  0  0  0  0
    3.8073   -9.4501   44.6956 C   0  0  2  0  0  0  0  0  0  0  0  0
    3.2403  -10.1518   45.8388 O   0  0  0  0  0  0  0  0  0  0  0  0
   -4.8129   -8.7712   48.6919 C   0  0  2  0  0  0  0  0  0  0  0  0
   -5.5417   -7.7422   49.4683 O   0  0  0  0  0  0  0  0  0  0  0  0
    0.5561   -6.0683   48.2622 C   0  0  0  0  0  0  0  0  0  0  0  0
    1.8042   -6.3225   48.8592 O   0  0  0  0  0  0  0  0  0  0  0  0
    5.3486   -9.3987   44.8134 C   0  0  1  0  0  0  0  0  0  0  0  0
    5.8438  -10.7210   44.7951 O   0  0  0  0  0  0  0  0  0  0  0  0
   -4.0961   -9.7074   49.6531 C   0  0  0  0  0  0  0  0  0  0  0  0
   -5.0228  -10.3539   50.4917 O   0  0  0  0  0  0  0  0  0  0  0  0
   -3.3944   -7.3731   44.6958 C   0  0  0  0  0  0  0  0  0  0  0  0
  1  2  1  6  0  0  0
  1  7  1  0  0  0  0
  1 24  1  0  0  0  0
  3  4  1  1  0  0  0
  3  9  1  0  0  0  0
  3 31  1  0  0  0  0
  5  6  1  6  0  0  0
  5 10  1  0  0  0  0
  5 28  1  0  0  0  0
  7  8  1  6  0  0  0
  7 12  1  0  0  0  0
  9 14  1  0  0  0  0
 10 11  1  6  0  0  0
 10 16  1  0  0  0  0
 12 13  1  1  0  0  0
 12 18  1  0  0  0  0
 13 35  1  0  0  0  0
 14 15  1  1  0  0  0
 14 20  1  0  0  0  0
 16 17  1  6  0  0  0
 16 21  1  0  0  0  0
 17 35  1  0  0  0  0
 18 19  1  6  0  0  0
 18 23  1  0  0  0  0
 20  2  1  6  0  0  0
 20 25  1  0  0  0  0
 21 22  1  6  0  0  0
 21 27  1  0  0  0  0
 23 24  1  0  0  0  0
 23 29  1  1  0  0  0
 25 26  1  1  0  0  0
 25 31  1  0  0  0  0
 27 28  1  0  0  0  0
 27 33  1  1  0  0  0
 29 30  1  0  0  0  0
 31 32  1  6  0  0  0
 33 34  1  0  0  0  0
M  END
>  <CHROM.1>
-176.42771867,63.86394100,74.49645495,-157.72119168,-167.74921258,-178.43558431
178.30329342,-176.84663222,-0.48863892,-7.75872392,46.15492220,-0.18570572
-0.31581029,2.34615588

>  <Name>
2o3v_lig

>  <RI>
0

>  <Rbt.Current_Directory>
/home/afrankz/demos/rdock_decoys_rna/rnas/2o3v

>  <Rbt.Executable>
rbdock ($Id: //depot/dev/client3/rdock/2013.1/src/exe/rbdock.cxx#4 $)

>  <Rbt.Library>
libRbt.so (2013.1, Build901 2013/11/27)

>  <Rbt.Parameter_File>
/export/apps/rDock/src/rDock_2013.1_src/data/scripts/dock_solv.prm

>  <Rbt.Receptor>
prm/pocket_docking_3.prm

>  <SCORE>
-10.5313

>  <SCORE.INTER>
-4.41969

>  <SCORE.INTER.CONST>
1

>  <SCORE.INTER.POLAR>
0

>  <SCORE.INTER.ROT>
8

>  <SCORE.INTER.SOLV>
14.0222

>  <SCORE.INTER.VDW>
-16.5539

>  <SCORE.INTER.norm>
-0.126277

>  <SCORE.INTRA>
-6.11162

>  <SCORE.INTRA.DIHEDRAL>
-8.99064

>  <SCORE.INTRA.DIHEDRAL.0>
13.1227

>  <SCORE.INTRA.POLAR>
0

>  <SCORE.INTRA.POLAR.0>
0

>  <SCORE.INTRA.REPUL>
0

>  <SCORE.INTRA.REPUL.0>
0

>  <SCORE.INTRA.SOLV>
-0.260367

>  <SCORE.INTRA.SOLV.lig_0>
-89.1587

>  <SCORE.INTRA.VDW>
-1.48611

>  <SCORE.INTRA.VDW.0>
-0.838383

>  <SCORE.INTRA.norm>
-0.174618

>  <SCORE.RESTR>
0

>  <SCORE.RESTR.CAVITY>
0

>  <SCORE.RESTR.norm>
0

>  <SCORE.SYSTEM>
0

>  <SCORE.SYSTEM.CONST>
0

>  <SCORE.SYSTEM.DIHEDRAL>
0

>  <SCORE.SYSTEM.SOLV>
0

>  <SCORE.SYSTEM.norm>
0

>  <SCORE.heavy>
35

>  <SCORE.norm>
-0.300894

>  <RMSD>
2.774

$$$$
2o3v_lig
 OpenBabel02141814113D
libRbt.so/2013.1/901 2013/11/27
 35 37  0  0  0  0  0  0  0  0999 V2000
    2.3795   -8.2088   46.0914 C   0  0  2  0  0  0  0  0  0  0  0  0
    1.7940   -7.0966   45.3477 O   0  0  0  0  0  0  0  0  0  0  0  0
    3.2778   -3.7679   42.9718 C   0  0  2  0  0  0  0  0  0  0  0  0
    3.9690   -2.4971   42.5981 N   0  0  0  0  0  0  0  0  0  0  0  0
   -6.1205   -8.8067   50.5592 C   0  0  2  0  0  0  0  0  0  0  0  0
   -6.0995   -7.3748   50.3722 O   0  0  0  0  0  0  0  0  0  0  0  0
    1.1642   -9.1630   46.3169 C   0  0  2  0  0  0  0  0  0  0  0  0
    0.5667   -9.5836   45.0276 N   0  0  0  0  0  0  0  0  0  0  0  0
    2.1394   -3.4765   44.0417 C   0  0  0  0  0  0  0  0  0  0  0  0
   -4.7597   -9.3716   50.0232 C   0  0  2  0  0  0  0  0  0  0  0  0
   -3.6099   -8.7436   50.7222 N   0  0  0  0  0  0  0  0  0  0  0  0
    0.0510   -8.4853   47.2286 C   0  0  1  0  0  0  0  0  0  0  0  0
   -1.1150   -9.3915   47.3942 O   0  0  0  0  0  0  0  0  0  0  0  0
    1.4284   -4.8447   44.4303 C   0  0  2  0  0  0  0  0  0  0  0  0
    0.3720   -4.5973   45.4349 N   0  0  0  0  0  0  0  0  0  0  0  0
   -4.6240   -9.1761   48.4490 C   0  0  1  0  0  0  0  0  0  0  0  0
   -3.3874   -9.7203   47.9204 O   0  0  0  0  0  0  0  0  0  0  0  0
    0.7478   -8.0625   48.5958 C   0  0  2  0  0  0  0  0  0  0  0  0
   -0.1672   -7.4239   49.4682 O   0  0  0  0  0  0  0  0  0  0  0  0
    2.4957   -5.8627   45.0081 C   0  0  2  0  0  0  0  0  0  0  0  0
   -5.8442   -9.8629   47.7576 C   0  0  2  0  0  0  0  0  0  0  0  0
   -5.7825   -9.7118   46.3530 O   0  0  0  0  0  0  0  0  0  0  0  0
    1.9759   -7.1139   48.3211 C   0  0  2  0  0  0  0  0  0  0  0  0
    2.9278   -7.7801   47.4075 O   0  0  0  0  0  0  0  0  0  0  0  0
    3.6083   -6.1371   43.9578 C   0  0  2  0  0  0  0  0  0  0  0  0
    4.5694   -7.0444   44.5696 O   0  0  0  0  0  0  0  0  0  0  0  0
   -7.1932   -9.2687   48.3290 C   0  0  2  0  0  0  0  0  0  0  0  0
   -7.2410   -9.4258   49.8007 O   0  0  0  0  0  0  0  0  0  0  0  0
    2.6860   -6.7227   49.6163 C   0  0  0  0  0  0  0  0  0  0  0  0
    3.1761   -7.8573   50.2881 O   0  0  0  0  0  0  0  0  0  0  0  0
    4.3004   -4.8082   43.5742 C   0  0  1  0  0  0  0  0  0  0  0  0
    5.3010   -5.0841   42.6167 O   0  0  0  0  0  0  0  0  0  0  0  0
   -8.4126   -9.9397   47.7153 C   0  0  0  0  0  0  0  0  0  0  0  0
   -9.5933   -9.3269   48.1741 O   0  0  0  0  0  0  0  0  0  0  0  0
   -2.3099   -8.7481   48.0580 C   0  0  0  0  0  0  0  0  0  0  0  0
  1  2  1  1  0  0  0
  1  7  1  0  0  0  0
  1 24  1  0  0  0  0
  3  4  1  1  0  0  0
  3  9  1  0  0  0  0
  3 31  1  0  0  0  0
  5  6  1  6  0  0  0
  5 10  1  0  0  0  0
  5 28  1  0  0  0  0
  7  8  1  6  0  0  0
  7 12  1  0  0  0  0
  9 14  1  0  0  0  0
 10 11  1  1  0  0  0
 10 16  1  0  0  0  0
 12 13  1  1  0  0  0
 12 18  1  0  0  0  0
 13 35  1  0  0  0  0
 14 15  1  1  0  0  0
 14 20  1  0  0  0  0
 16 17  1  6  0  0  0
 16 21  1  0  0  0  0
 17 35  1  0  0  0  0
 18 19  1  1  0  0  0
 18 23  1  0  0  0  0
 20  2  1  6  0  0  0
 20 25  1  0  0  0  0
 21 22  1  6  0  0  0
 21 27  1  0  0  0  0
 23 24  1  0  0  0  0
 23 29  1  1  0  0  0
 25 26  1  1  0  0  0
 25 31  1  0  0  0  0
 27 28  1  0  0  0  0
 27 33  1  6  0  0  0
 29 30  1  0  0  0  0
 31 32  1  6  0  0  0
 33 34  1  0  0  0  0
M  END
>  <CHROM.1>
173.37720845,-170.70076587,170.91738108,-84.55663838,-176.29851683,-170.38613231
60.27634614,-175.93271114,-0.81498751,-7.58367222,47.01667150,-0.50702610
0.14284924,2.04121325

>  <Name>
2o3v_lig

>  <RI>
0

>  <Rbt.Current_Directory>
/home/afrankz/demos/rdock_decoys_rna/rnas/2o3v

>  <Rbt.Executable>
rbdock ($Id: //depot/dev/client3/rdock/2013.1/src/exe/rbdock.cxx#4 $)

>  <Rbt.Library>
libRbt.so (2013.1, Build901 2013/11/27)

>  <Rbt.Parameter_File>
/export/apps/rDock/src/rDock_2013.1_src/data/scripts/dock_solv.prm

>  <Rbt.Receptor>
prm/pocket_docking_4.prm

>  <SCORE>
-8.6395

>  <SCORE.INTER>
-2.91085

>  <SCORE.INTER.CONST>
1

>  <SCORE.INTER.POLAR>
-0.914539

>  <SCORE.INTER.ROT>
8

>  <SCORE.INTER.SOLV>
12.5323

>  <SCORE.INTER.VDW>
-12.0029

>  <SCORE.INTER.norm>
-0.083167

>  <SCORE.INTRA>
-5.72866

>  <SCORE.INTRA.DIHEDRAL>
-8.87916

>  <SCORE.INTRA.DIHEDRAL.0>
13.1227

>  <SCORE.INTRA.POLAR>
0

>  <SCORE.INTRA.POLAR.0>
0

>  <SCORE.INTRA.REPUL>
0.0735285

>  <SCORE.INTRA.REPUL.0>
0

>  <SCORE.INTRA.SOLV>
-0.290809

>  <SCORE.INTRA.SOLV.lig_0>
-89.1587

>  <SCORE.INTRA.VDW>
-1.51132

>  <SCORE.INTRA.VDW.0>
-0.838383

>  <SCORE.INTRA.norm>
-0.163676

>  <SCORE.RESTR>
0

>  <SCORE.RESTR.CAVITY>
0

>  <SCORE.RESTR.norm>
0

>  <SCORE.SYSTEM>
0

>  <SCORE.SYSTEM.CONST>
0

>  <SCORE.SYSTEM.DIHEDRAL>
0

>  <SCORE.SYSTEM.SOLV>
0

>  <SCORE.SYSTEM.norm>
0

>  <SCORE.heavy>
35

>  <SCORE.norm>
-0.246843

>  <RMSD>
2.780

$$$$
2o3v_lig
 OpenBabel02141814113D
libRbt.so/2013.1/901 2013/11/27
 35 37  0  0  0  0  0  0  0  0999 V2000
    1.6943   -7.8836   46.1218 C   0  0  2  0  0  0  0  0  0  0  0  0
    1.2578   -6.6181   45.5382 O   0  0  0  0  0  0  0  0  0  0  0  0
    3.1720   -3.5160   43.1634 C   0  0  2  0  0  0  0  0  0  0  0  0
    4.0542   -2.3721   42.7817 N   0  0  0  0  0  0  0  0  0  0  0  0
   -5.7186   -8.3265   50.9265 C   0  0  2  0  0  0  0  0  0  0  0  0
   -4.5635   -7.8800   51.6694 O   0  0  0  0  0  0  0  0  0  0  0  0
    0.3513   -8.5672   46.5308 C   0  0  2  0  0  0  0  0  0  0  0  0
   -0.5359   -8.7499   45.3578 N   0  0  0  0  0  0  0  0  0  0  0  0
    2.1616   -3.0693   44.3057 C   0  0  0  0  0  0  0  0  0  0  0  0
   -5.1981   -9.1244   49.6813 C   0  0  2  0  0  0  0  0  0  0  0  0
   -4.3403  -10.2624   50.0984 N   0  0  0  0  0  0  0  0  0  0  0  0
   -0.4085   -7.7363   47.6541 C   0  0  1  0  0  0  0  0  0  0  0  0
   -1.7037   -8.3793   47.9969 O   0  0  0  0  0  0  0  0  0  0  0  0
    1.2437   -4.3061   44.7011 C   0  0  2  0  0  0  0  0  0  0  0  0
    0.3026   -3.9146   45.7722 N   0  0  0  0  0  0  0  0  0  0  0  0
   -4.4117   -8.1809   48.6682 C   0  0  1  0  0  0  0  0  0  0  0  0
   -3.9471   -8.8872   47.4892 O   0  0  0  0  0  0  0  0  0  0  0  0
    0.5876   -7.5789   48.8856 C   0  0  2  0  0  0  0  0  0  0  0  0
    0.0024   -6.8259   49.9328 O   0  0  0  0  0  0  0  0  0  0  0  0
    2.1455   -5.5136   45.1888 C   0  0  2  0  0  0  0  0  0  0  0  0
   -5.3555   -7.0100   48.2477 C   0  0  2  0  0  0  0  0  0  0  0  0
   -4.7042   -6.1301   47.3526 O   0  0  0  0  0  0  0  0  0  0  0  0
    1.9333   -6.8997   48.4258 C   0  0  2  0  0  0  0  0  0  0  0  0
    2.5407   -7.6845   47.3304 O   0  0  0  0  0  0  0  0  0  0  0  0
    3.1347   -5.9398   44.0681 C   0  0  2  0  0  0  0  0  0  0  0  0
    3.9534   -7.0210   44.5989 O   0  0  0  0  0  0  0  0  0  0  0  0
   -5.8601   -6.2362   49.5306 C   0  0  2  0  0  0  0  0  0  0  0  0
   -6.5322   -7.1702   50.4626 O   0  0  0  0  0  0  0  0  0  0  0  0
    2.9228   -6.7705   49.5829 C   0  0  0  0  0  0  0  0  0  0  0  0
    4.1255   -6.1776   49.1576 O   0  0  0  0  0  0  0  0  0  0  0  0
    4.0273   -4.7385   43.6779 C   0  0  1  0  0  0  0  0  0  0  0  0
    4.9112   -5.1500   42.6563 O   0  0  0  0  0  0  0  0  0  0  0  0
   -6.8194   -5.1112   49.1728 C   0  0  0  0  0  0  0  0  0  0  0  0
   -7.9838   -5.6297   48.5767 O   0  0  0  0  0  0  0  0  0  0  0  0
   -2.7702   -8.2269   46.9378 C   0  0  0  0  0  0  0  0  0  0  0  0
  1  2  1  1  0  0  0
  1  7  1  0  0  0  0
  1 24  1  0  0  0  0
  3  4  1  1  0  0  0
  3  9  1  0  0  0  0
  3 31  1  0  0  0  0
  5  6  1  6  0  0  0
  5 10  1  0  0  0  0
  5 28  1  0  0  0  0
  7  8  1  6  0  0  0
  7 12  1  0  0  0  0
  9 14  1  0  0  0  0
 10 11  1  1  0  0  0
 10 16  1  0  0  0  0
 12 13  1  1  0  0  0
 12 18  1  0  0  0  0
 13 35  1  0  0  0  0
 14 15  1  1  0  0  0
 14 20  1  0  0  0  0
 16 17  1  6  0  0  0
 16 21  1  0  0  0  0
 17 35  1  0  0  0  0
 18 19  1  1  0  0  0
 18 23  1  0  0  0  0
 20  2  1  6  0  0  0
 20 25  1  0  0  0  0
 21 22  1  6  0  0  0
 21 27  1  0  0  0  0
 23 24  1  0  0  0  0
 23 29  1  1  0  0  0
 25 26  1  1  0  0  0
 25 31  1  0  0  0  0
 27 28  1  0  0  0  0
 27 33  1  6  0  0  0
 29 30  1  0  0  0  0
 31 32  1  6  0  0  0
 33 34  1  0  0  0  0
M  END
>  <CHROM.1>
169.83338779,-72.96274215,-178.41280551,-153.46025369,64.92939830,-175.45850363
179.30790033,63.35810967,-0.77199584,-6.68477290,47.23723923,-0.52367036
-0.17044771,2.30870217

>  <Name>
2o3v_lig

>  <RI>
0

>  <Rbt.Current_Directory>
/home/afrankz/demos/rdock_decoys_rna/rnas/2o3v

>  <Rbt.Executable>
rbdock ($Id: //depot/dev/client3/rdock/2013.1/src/exe/rbdock.cxx#4 $)

>  <Rbt.Library>
libRbt.so (2013.1, Build901 2013/11/27)

>  <Rbt.Parameter_File>
/export/apps/rDock/src/rDock_2013.1_src/data/scripts/dock_solv.prm

>  <Rbt.Receptor>
prm/pocket_docking_4.prm

>  <SCORE>
-12.7

>  <SCORE.INTER>
-7.69859

>  <SCORE.INTER.CONST>
1

>  <SCORE.INTER.POLAR>
-0.957262

>  <SCORE.INTER.ROT>
8

>  <SCORE.INTER.SOLV>
13.7995

>  <SCORE.INTER.VDW>
-15.4747

>  <SCORE.INTER.norm>
-0.21996

>  <SCORE.INTRA>
-5.00138

>  <SCORE.INTRA.DIHEDRAL>
-8.55342

>  <SCORE.INTRA.DIHEDRAL.0>
13.1227

>  <SCORE.INTRA.POLAR>
0

>  <SCORE.INTRA.POLAR.0>
0

>  <SCORE.INTRA.REPUL>
0

>  <SCORE.INTRA.REPUL.0>
0

>  <SCORE.INTRA.SOLV>
0.226722

>  <SCORE.INTRA.SOLV.lig_0>
-89.1587

>  <SCORE.INTRA.VDW>
-0.838036

>  <SCORE.INTRA.VDW.0>
-0.838383

>  <SCORE.INTRA.norm>
-0.142897

>  <SCORE.RESTR>
0

>  <SCORE.RESTR.CAVITY>
0

>  <SCORE.RESTR.norm>
0

>  <SCORE.SYSTEM>
0

>  <SCORE.SYSTEM.CONST>
0

>  <SCORE.SYSTEM.DIHEDRAL>
0

>  <SCORE.SYSTEM.SOLV>
0

>  <SCORE.SYSTEM.norm>
0

>  <SCORE.heavy>
35

>  <SCORE.norm>
-0.362856

>  <RMSD>
2.800

$$$$
2o3v_lig
 OpenBabel02141814113D
libRbt.so/2013.1/901 2013/11/27
 35 37  0  0  0  0  0  0  0  0999 V2000
    2.0886   -8.0719   46.0602 C   0  0  2  0  0  0  0  0  0  0  0  0
    1.5432   -6.8670   45.4410 O   0  0  0  0  0  0  0  0  0  0  0  0
    3.1364   -3.5128   43.1742 C   0  0  2  0  0  0  0  0  0  0  0  0
    3.9004   -2.2752   42.8323 N   0  0  0  0  0  0  0  0  0  0  0  0
   -6.5319   -8.7700   50.2970 C   0  0  2  0  0  0  0  0  0  0  0  0
   -6.4699   -7.3310   50.1931 O   0  0  0  0  0  0  0  0  0  0  0  0
    0.8424   -9.0057   46.1763 C   0  0  2  0  0  0  0  0  0  0  0  0
    0.2403   -9.2636   44.8469 N   0  0  0  0  0  0  0  0  0  0  0  0
    2.0893   -3.2068   44.3298 C   0  0  0  0  0  0  0  0  0  0  0  0
   -5.1671   -9.3390   49.7754 C   0  0  2  0  0  0  0  0  0  0  0  0
   -4.0277   -8.7816   50.5474 N   0  0  0  0  0  0  0  0  0  0  0  0
   -0.2547   -8.3965   47.1533 C   0  0  1  0  0  0  0  0  0  0  0  0
   -1.4497   -9.2777   47.2154 O   0  0  0  0  0  0  0  0  0  0  0  0
    1.2989   -4.5408   44.6822 C   0  0  2  0  0  0  0  0  0  0  0  0
    0.3261   -4.2805   45.7649 N   0  0  0  0  0  0  0  0  0  0  0  0
   -4.9719   -9.0586   48.2204 C   0  0  1  0  0  0  0  0  0  0  0  0
   -3.7310   -9.6041   47.7033 O   0  0  0  0  0  0  0  0  0  0  0  0
    0.4461   -8.1482   48.5608 C   0  0  2  0  0  0  0  0  0  0  0  0
   -0.4539   -7.5799   49.4951 O   0  0  0  0  0  0  0  0  0  0  0  0
    2.3167   -5.6690   45.1301 C   0  0  2  0  0  0  0  0  0  0  0  0
   -6.1833   -9.6733   47.4502 C   0  0  2  0  0  0  0  0  0  0  0  0
   -6.0689   -9.4447   46.0595 O   0  0  0  0  0  0  0  0  0  0  0  0
    1.7052   -7.2149   48.3951 C   0  0  2  0  0  0  0  0  0  0  0  0
    2.6416   -7.8074   47.4170 O   0  0  0  0  0  0  0  0  0  0  0  0
    3.3407   -5.9575   43.9968 C   0  0  2  0  0  0  0  0  0  0  0  0
    4.2634   -6.9698   44.4918 O   0  0  0  0  0  0  0  0  0  0  0  0
   -7.5367   -9.0773   48.0092 C   0  0  2  0  0  0  0  0  0  0  0  0
   -7.6398   -9.3159   49.4670 O   0  0  0  0  0  0  0  0  0  0  0  0
    2.4189   -6.9906   49.7275 C   0  0  0  0  0  0  0  0  0  0  0  0
    3.5397   -6.1556   49.5678 O   0  0  0  0  0  0  0  0  0  0  0  0
    4.1094   -4.6615   43.6483 C   0  0  1  0  0  0  0  0  0  0  0  0
    5.0274   -4.9491   42.6144 O   0  0  0  0  0  0  0  0  0  0  0  0
   -8.7498   -9.6806   47.3175 C   0  0  0  0  0  0  0  0  0  0  0  0
   -9.9366   -9.1531   47.8588 O   0  0  0  0  0  0  0  0  0  0  0  0
   -2.6412   -8.6575   47.9068 C   0  0  0  0  0  0  0  0  0  0  0  0
  1  2  1  1  0  0  0
  1  7  1  0  0  0  0
  1 24  1  0  0  0  0
  3  4  1  1  0  0  0
  3  9  1  0  0  0  0
  3 31  1  0  0  0  0
  5  6  1  6  0  0  0
  5 10  1  0  0  0  0
  5 28  1  0  0  0  0
  7  8  1  6  0  0  0
  7 12  1  0  0  0  0
  9 14  1  0  0  0  0
 10 11  1  1  0  0  0
 10 16  1  0  0  0  0
 12 13  1  1  0  0  0
 12 18  1  0  0  0  0
 13 35  1  0  0  0  0
 14 15  1  1  0  0  0
 14 20  1  0  0  0  0
 16 17  1  6  0  0  0
 16 21  1  0  0  0  0
 17 35  1  0  0  0  0
 18 19  1  1  0  0  0
 18 23  1  0  0  0  0
 20  2  1  6  0  0  0
 20 25  1  0  0  0  0
 21 22  1  6  0  0  0
 21 27  1  0  0  0  0
 23 24  1  0  0  0  0
 23 29  1  1  0  0  0
 25 26  1  1  0  0  0
 25 31  1  0  0  0  0
 27 28  1  0  0  0  0
 27 33  1  6  0  0  0
 29 30  1  0  0  0  0
 31 32  1  6  0  0  0
 33 34  1  0  0  0  0
M  END
>  <CHROM.1>
179.22625875,-169.01267503,172.86222606,-85.76256750,-174.72341279,-171.40409212
-179.94155136,178.62220256,-1.07737076,-7.41360191,46.92514746,-0.46621669
0.17589108,2.02469416

>  <Name>
2o3v_lig

>  <RI>
0

>  <Rbt.Current_Directory>
/home/afrankz/demos/rdock_decoys_rna/rnas/2o3v

>  <Rbt.Executable>
rbdock ($Id: //depot/dev/client3/rdock/2013.1/src/exe/rbdock.cxx#4 $)

>  <Rbt.Library>
libRbt.so (2013.1, Build901 2013/11/27)

>  <Rbt.Parameter_File>
/export/apps/rDock/src/rDock_2013.1_src/data/scripts/dock_solv.prm

>  <Rbt.Receptor>
prm/pocket_docking_4.prm

>  <SCORE>
-8.94973

>  <SCORE.INTER>
-2.97358

>  <SCORE.INTER.CONST>
1

>  <SCORE.INTER.POLAR>
-0.959166

>  <SCORE.INTER.ROT>
8

>  <SCORE.INTER.SOLV>
12.7765

>  <SCORE.INTER.VDW>
-11.9773

>  <SCORE.INTER.norm>
-0.0849594

>  <SCORE.INTRA>
-5.97615

>  <SCORE.INTRA.DIHEDRAL>
-8.93592

>  <SCORE.INTRA.DIHEDRAL.0>
13.1227

>  <SCORE.INTRA.POLAR>
0

>  <SCORE.INTRA.POLAR.0>
0

>  <SCORE.INTRA.REPUL>
0.0821508

>  <SCORE.INTRA.REPUL.0>
0

>  <SCORE.INTRA.SOLV>
-0.737613

>  <SCORE.INTRA.SOLV.lig_0>
-89.1587

>  <SCORE.INTRA.VDW>
-1.55014

>  <SCORE.INTRA.VDW.0>
-0.838383

>  <SCORE.INTRA.norm>
-0.170747

>  <SCORE.RESTR>
0

>  <SCORE.RESTR.CAVITY>
0

>  <SCORE.RESTR.norm>
0

>  <SCORE.SYSTEM>
0

>  <SCORE.SYSTEM.CONST>
0

>  <SCORE.SYSTEM.DIHEDRAL>
0

>  <SCORE.SYSTEM.SOLV>
0

>  <SCORE.SYSTEM.norm>
0

>  <SCORE.heavy>
35

>  <SCORE.norm>
-0.255706

>  <RMSD>
2.801

$$$$
2o3v_lig
 OpenBabel02141814113D
libRbt.so/2013.1/901 2013/11/27
 35 37  0  0  0  0  0  0  0  0999 V2000
    1.9388   -8.9228   45.3434 C   0  0  2  0  0  0  0  0  0  0  0  0
    2.0641   -7.6775   44.5909 O   0  0  0  0  0  0  0  0  0  0  0  0
    6.0723   -6.2395   43.6999 C   0  0  2  0  0  0  0  0  0  0  0  0
    7.2965   -5.8533   42.9354 N   0  0  0  0  0  0  0  0  0  0  0  0
   -5.8678   -6.3027   47.6931 C   0  0  2  0  0  0  0  0  0  0  0  0
   -7.1462   -6.8670   47.3287 O   0  0  0  0  0  0  0  0  0  0  0  0
    0.3935   -9.0975   45.4846 C   0  0  2  0  0  0  0  0  0  0  0  0
   -0.2623   -9.1586   44.1571 N   0  0  0  0  0  0  0  0  0  0  0  0
    5.7696   -7.7869   43.5014 C   0  0  0  0  0  0  0  0  0  0  0  0
   -4.8988   -6.5078   46.4778 C   0  0  2  0  0  0  0  0  0  0  0  0
   -5.4456   -5.8795   45.2485 N   0  0  0  0  0  0  0  0  0  0  0  0
   -0.2500   -7.9269   46.3478 C   0  0  1  0  0  0  0  0  0  0  0  0
   -1.7249   -8.0872   46.4328 O   0  0  0  0  0  0  0  0  0  0  0  0
    4.4576   -8.1688   44.3145 C   0  0  2  0  0  0  0  0  0  0  0  0
    4.1512   -9.6040   44.1337 N   0  0  0  0  0  0  0  0  0  0  0  0
   -4.5969   -8.0503   46.2236 C   0  0  1  0  0  0  0  0  0  0  0  0
   -3.6754   -8.2679   45.1244 O   0  0  0  0  0  0  0  0  0  0  0  0
    0.4870   -7.9150   47.7586 C   0  0  2  0  0  0  0  0  0  0  0  0
   -0.0062   -6.8819   48.5925 O   0  0  0  0  0  0  0  0  0  0  0  0
    3.2383   -7.2890   43.8159 C   0  0  2  0  0  0  0  0  0  0  0  0
   -4.0121   -8.6633   47.5354 C   0  0  2  0  0  0  0  0  0  0  0  0
   -3.7334  -10.0399   47.3716 O   0  0  0  0  0  0  0  0  0  0  0  0
    2.0430   -7.7523   47.5688 C   0  0  2  0  0  0  0  0  0  0  0  0
    2.5555   -8.8288   46.6953 O   0  0  0  0  0  0  0  0  0  0  0  0
    3.5452   -5.7773   44.0079 C   0  0  2  0  0  0  0  0  0  0  0  0
    2.4036   -5.0332   43.4938 O   0  0  0  0  0  0  0  0  0  0  0  0
   -5.0163   -8.4309   48.7341 C   0  0  2  0  0  0  0  0  0  0  0  0
   -5.3059   -6.9869   48.8890 O   0  0  0  0  0  0  0  0  0  0  0  0
    2.7789   -7.7752   48.9078 C   0  0  0  0  0  0  0  0  0  0  0  0
    4.1608   -7.5813   48.7300 O   0  0  0  0  0  0  0  0  0  0  0  0
    4.8229   -5.4022   43.2214 C   0  0  1  0  0  0  0  0  0  0  0  0
    5.0822   -4.0278   43.4167 O   0  0  0  0  0  0  0  0  0  0  0  0
   -4.4686   -8.9739   50.0453 C   0  0  0  0  0  0  0  0  0  0  0  0
   -5.4691   -8.9693   51.0347 O   0  0  0  0  0  0  0  0  0  0  0  0
   -2.4842   -7.4452   45.2954 C   0  0  0  0  0  0  0  0  0  0  0  0
  1  2  1  6  0  0  0
  1  7  1  0  0  0  0
  1 24  1  0  0  0  0
  3  4  1  6  0  0  0
  3  9  1  0  0  0  0
  3 31  1  0  0  0  0
  5  6  1  6  0  0  0
  5 10  1  0  0  0  0
  5 28  1  0  0  0  0
  7  8  1  6  0  0  0
  7 12  1  0  0  0  0
  9 14  1  0  0  0  0
 10 11  1  6  0  0  0
 10 16  1  0  0  0  0
 12 13  1  1  0  0  0
 12 18  1  0  0  0  0
 13 35  1  0  0  0  0
 14 15  1  6  0  0  0
 14 20  1  0  0  0  0
 16 17  1  6  0  0  0
 16 21  1  0  0  0  0
 17 35  1  0  0  0  0
 18 19  1  1  0  0  0
 18 23  1  0  0  0  0
 20  2  1  1  0  0  0
 20 25  1  0  0  0  0
 21 22  1  6  0  0  0
 21 27  1  0  0  0  0
 23 24  1  0  0  0  0
 23 29  1  1  0  0  0
 25 26  1  6  0  0  0
 25 31  1  0  0  0  0
 27 28  1  0  0  0  0
 27 33  1  1  0  0  0
 29 30  1  0  0  0  0
 31 32  1  1  0  0  0
 33 34  1  0  0  0  0
M  END
>  <CHROM.1>
-158.47722099,-87.49640934,149.48984430,51.03918456,72.20564889,-18.36804973
-177.88574540,-169.55661866,-0.07860588,-7.54407011,46.15880410,-0.37093440
-0.07231032,2.04089408

>  <Name>
2o3v_lig

>  <RI>
0

>  <Rbt.Current_Directory>
/home/afrankz/demos/rdock_decoys_rna/rnas/2o3v

>  <Rbt.Executable>
rbdock ($Id: //depot/dev/client3/rdock/2013.1/src/exe/rbdock.cxx#4 $)

>  <Rbt.Library>
libRbt.so (2013.1, Build901 2013/11/27)

>  <Rbt.Parameter_File>
/export/apps/rDock/src/rDock_2013.1_src/data/scripts/dock_solv.prm

>  <Rbt.Receptor>
prm/pocket_docking_2.prm

>  <SCORE>
-0.499619

>  <SCORE.INTER>
-5.97473

>  <SCORE.INTER.CONST>
1

>  <SCORE.INTER.POLAR>
-0.721257

>  <SCORE.INTER.ROT>
8

>  <SCORE.INTER.SOLV>
12.179

>  <SCORE.INTER.VDW>
-14.5719

>  <SCORE.INTER.norm>
-0.170706

>  <SCORE.INTRA>
5.02125

>  <SCORE.INTRA.DIHEDRAL>
2.95805

>  <SCORE.INTRA.DIHEDRAL.0>
13.1227

>  <SCORE.INTRA.POLAR>
0

>  <SCORE.INTRA.POLAR.0>
0

>  <SCORE.INTRA.REPUL>
0

>  <SCORE.INTRA.REPUL.0>
0

>  <SCORE.INTRA.SOLV>
2.18579

>  <SCORE.INTRA.SOLV.lig_0>
-89.1587

>  <SCORE.INTRA.VDW>
2.44933

>  <SCORE.INTRA.VDW.0>
-0.838383

>  <SCORE.INTRA.norm>
0.143464

>  <SCORE.RESTR>
0.453853

>  <SCORE.RESTR.CAVITY>
0.453853

>  <SCORE.RESTR.norm>
0.0129672

>  <SCORE.SYSTEM>
0

>  <SCORE.SYSTEM.CONST>
0

>  <SCORE.SYSTEM.DIHEDRAL>
0

>  <SCORE.SYSTEM.SOLV>
0

>  <SCORE.SYSTEM.norm>
0

>  <SCORE.heavy>
35

>  <SCORE.norm>
-0.0142748

>  <RMSD>
2.864

$$$$
2o3v_lig
 OpenBabel02141814113D
libRbt.so/2013.1/901 2013/11/27
 35 37  0  0  0  0  0  0  0  0999 V2000
    1.0463   -9.2507   46.4806 C   0  0  2  0  0  0  0  0  0  0  0  0
    1.6937   -8.6921   45.2966 O   0  0  0  0  0  0  0  0  0  0  0  0
    5.7025   -8.8030   43.6101 C   0  0  2  0  0  0  0  0  0  0  0  0
    7.1679   -8.5699   43.4353 N   0  0  0  0  0  0  0  0  0  0  0  0
   -5.7401   -5.6020   48.1456 C   0  0  2  0  0  0  0  0  0  0  0  0
   -7.1556   -5.6549   47.8641 O   0  0  0  0  0  0  0  0  0  0  0  0
   -0.4579   -9.3123   46.0661 C   0  0  2  0  0  0  0  0  0  0  0  0
   -0.6470  -10.1492   44.8577 N   0  0  0  0  0  0  0  0  0  0  0  0
    4.9240   -7.4177   43.6024 C   0  0  0  0  0  0  0  0  0  0  0  0
   -4.9881   -5.5541   46.7706 C   0  0  2  0  0  0  0  0  0  0  0  0
   -5.4307   -4.3902   45.9617 N   0  0  0  0  0  0  0  0  0  0  0  0
   -1.0533   -7.8596   45.8113 C   0  0  1  0  0  0  0  0  0  0  0  0
   -2.4716   -7.9426   45.3754 O   0  0  0  0  0  0  0  0  0  0  0  0
    3.3706   -7.6927   43.8014 C   0  0  2  0  0  0  0  0  0  0  0  0
    2.6281   -6.4140   43.8089 N   0  0  0  0  0  0  0  0  0  0  0  0
   -5.1821   -6.9044   45.9498 C   0  0  1  0  0  0  0  0  0  0  0  0
   -4.4687   -6.9007   44.6866 O   0  0  0  0  0  0  0  0  0  0  0  0
   -0.8281   -7.0128   47.1402 C   0  0  2  0  0  0  0  0  0  0  0  0
   -1.3081   -5.6879   46.9983 O   0  0  0  0  0  0  0  0  0  0  0  0
    3.1293   -8.4656   45.1630 C   0  0  2  0  0  0  0  0  0  0  0  0
   -4.6916   -8.0955   46.8326 C   0  0  2  0  0  0  0  0  0  0  0  0
   -4.8504   -9.3272   46.1562 O   0  0  0  0  0  0  0  0  0  0  0  0
    0.6989   -6.9897   47.5296 C   0  0  2  0  0  0  0  0  0  0  0  0
    1.1993   -8.3730   47.6734 O   0  0  0  0  0  0  0  0  0  0  0  0
    3.8990   -9.8161   45.1645 C   0  0  2  0  0  0  0  0  0  0  0  0
    3.6642  -10.4488   46.4551 O   0  0  0  0  0  0  0  0  0  0  0  0
   -5.4704   -8.1043   48.2083 C   0  0  2  0  0  0  0  0  0  0  0  0
   -5.3028   -6.8066   48.9018 O   0  0  0  0  0  0  0  0  0  0  0  0
    0.9381   -6.2135   48.8238 C   0  0  0  0  0  0  0  0  0  0  0  0
    0.2932   -6.8302   49.9113 O   0  0  0  0  0  0  0  0  0  0  0  0
    5.4104   -9.5534   44.9676 C   0  0  1  0  0  0  0  0  0  0  0  0
    6.0846  -10.7941   44.9672 O   0  0  0  0  0  0  0  0  0  0  0  0
   -4.9944   -9.2237   49.1217 C   0  0  0  0  0  0  0  0  0  0  0  0
   -3.6441   -9.0336   49.4688 O   0  0  0  0  0  0  0  0  0  0  0  0
   -3.0537   -6.6292   44.9081 C   0  0  0  0  0  0  0  0  0  0  0  0
  1  2  1  6  0  0  0
  1  7  1  0  0  0  0
  1 24  1  0  0  0  0
  3  4  1  1  0  0  0
  3  9  1  0  0  0  0
  3 31  1  0  0  0  0
  5  6  1  6  0  0  0
  5 10  1  0  0  0  0
  5 28  1  0  0  0  0
  7  8  1  6  0  0  0
  7 12  1  0  0  0  0
  9 14  1  0  0  0  0
 10 11  1  6  0  0  0
 10 16  1  0  0  0  0
 12 13  1  1  0  0  0
 12 18  1  0  0  0  0
 13 35  1  0  0  0  0
 14 15  1  1  0  0  0
 14 20  1  0  0  0  0
 16 17  1  6  0  0  0
 16 21  1  0  0  0  0
 17 35  1  0  0  0  0
 18 19  1  6  0  0  0
 18 23  1  0  0  0  0
 20  2  1  6  0  0  0
 20 25  1  0  0  0  0
 21 22  1  6  0  0  0
 21 27  1  0  0  0  0
 23 24  1  0  0  0  0
 23 29  1  1  0  0  0
 25 26  1  1  0  0  0
 25 31  1  0  0  0  0
 27 28  1  0  0  0  0
 27 33  1  1  0  0  0
 29 30  1  0  0  0  0
 31 32  1  6  0  0  0
 33 34  1  0  0  0  0
M  END
>  <CHROM.1>
-178.28447247,-171.10276270,-173.41460950,55.65481552,79.08545171,-173.31134719
63.09958883,63.45069075,-0.61261035,-7.84998527,46.32185489,-0.14547604,-0.30024537
2.02451602

>  <Name>
2o3v_lig

>  <RI>
0

>  <Rbt.Current_Directory>
/home/afrankz/demos/rdock_decoys_rna/rnas/2o3v

>  <Rbt.Executable>
rbdock ($Id: //depot/dev/client3/rdock/2013.1/src/exe/rbdock.cxx#4 $)

>  <Rbt.Library>
libRbt.so (2013.1, Build901 2013/11/27)

>  <Rbt.Parameter_File>
/export/apps/rDock/src/rDock_2013.1_src/data/scripts/dock_solv.prm

>  <Rbt.Receptor>
prm/pocket_docking_4.prm

>  <SCORE>
-11.2032

>  <SCORE.INTER>
-6.028

>  <SCORE.INTER.CONST>
1

>  <SCORE.INTER.POLAR>
0

>  <SCORE.INTER.ROT>
8

>  <SCORE.INTER.SOLV>
11.9189

>  <SCORE.INTER.VDW>
-16.925

>  <SCORE.INTER.norm>
-0.172229

>  <SCORE.INTRA>
-5.17519

>  <SCORE.INTRA.DIHEDRAL>
-10.4157

>  <SCORE.INTRA.DIHEDRAL.0>
13.1227

>  <SCORE.INTRA.POLAR>
0

>  <SCORE.INTRA.POLAR.0>
0

>  <SCORE.INTRA.REPUL>
0

>  <SCORE.INTRA.REPUL.0>
0

>  <SCORE.INTRA.SOLV>
0.329864

>  <SCORE.INTRA.SOLV.lig_0>
-89.1587

>  <SCORE.INTRA.VDW>
-0.132255

>  <SCORE.INTRA.VDW.0>
-0.838383

>  <SCORE.INTRA.norm>
-0.147863

>  <SCORE.RESTR>
0

>  <SCORE.RESTR.CAVITY>
0

>  <SCORE.RESTR.norm>
0

>  <SCORE.SYSTEM>
0

>  <SCORE.SYSTEM.CONST>
0

>  <SCORE.SYSTEM.DIHEDRAL>
0

>  <SCORE.SYSTEM.SOLV>
0

>  <SCORE.SYSTEM.norm>
0

>  <SCORE.heavy>
35

>  <SCORE.norm>
-0.320091

>  <RMSD>
2.903

$$$$
2o3v_lig
 OpenBabel02141814113D
libRbt.so/2013.1/901 2013/11/27
 35 37  0  0  0  0  0  0  0  0999 V2000
    2.6715   -8.2796   45.8445 C   0  0  2  0  0  0  0  0  0  0  0  0
    3.2387   -7.1865   45.0595 O   0  0  0  0  0  0  0  0  0  0  0  0
    6.8414   -7.6348   42.6623 C   0  0  2  0  0  0  0  0  0  0  0  0
    7.7375   -7.8313   41.4830 N   0  0  0  0  0  0  0  0  0  0  0  0
   -5.2655   -7.3883   47.5632 C   0  0  2  0  0  0  0  0  0  0  0  0
   -6.4586   -7.8410   46.8872 O   0  0  0  0  0  0  0  0  0  0  0  0
    1.2444   -8.4506   45.2342 C   0  0  2  0  0  0  0  0  0  0  0  0
    1.3141   -8.7576   43.7860 N   0  0  0  0  0  0  0  0  0  0  0  0
    5.9074   -8.9056   42.8567 C   0  0  0  0  0  0  0  0  0  0  0  0
   -4.4673   -6.4881   46.5578 C   0  0  2  0  0  0  0  0  0  0  0  0
   -5.2970   -5.3499   46.0875 N   0  0  0  0  0  0  0  0  0  0  0  0
    0.3512   -7.1552   45.4658 C   0  0  1  0  0  0  0  0  0  0  0  0
   -0.9863   -7.3210   44.8397 O   0  0  0  0  0  0  0  0  0  0  0  0
    4.9572   -8.6662   44.1090 C   0  0  2  0  0  0  0  0  0  0  0  0
    4.0705   -9.8339   44.3008 N   0  0  0  0  0  0  0  0  0  0  0  0
   -3.9292   -7.3300   45.3182 C   0  0  1  0  0  0  0  0  0  0  0  0
   -3.1578   -6.5278   44.3876 O   0  0  0  0  0  0  0  0  0  0  0  0
    0.3080   -6.8805   47.0331 C   0  0  2  0  0  0  0  0  0  0  0  0
   -0.4503   -5.7233   47.3359 O   0  0  0  0  0  0  0  0  0  0  0  0
    4.0896   -7.3597   43.8865 C   0  0  2  0  0  0  0  0  0  0  0  0
   -3.0532   -8.5039   45.8596 C   0  0  2  0  0  0  0  0  0  0  0  0
   -2.5546   -9.2955   44.7992 O   0  0  0  0  0  0  0  0  0  0  0  0
    1.7672   -6.7298   47.6090 C   0  0  2  0  0  0  0  0  0  0  0  0
    2.5583   -7.9365   47.2888 O   0  0  0  0  0  0  0  0  0  0  0  0
    5.0109   -6.1230   43.6911 C   0  0  2  0  0  0  0  0  0  0  0  0
    4.1498   -4.9727   43.4532 O   0  0  0  0  0  0  0  0  0  0  0  0
   -3.8929   -9.3820   46.8710 C   0  0  2  0  0  0  0  0  0  0  0  0
   -4.4158   -8.5398   47.9710 O   0  0  0  0  0  0  0  0  0  0  0  0
    1.7553   -6.5022   49.1199 C   0  0  0  0  0  0  0  0  0  0  0  0
    3.0452   -6.2090   49.5985 O   0  0  0  0  0  0  0  0  0  0  0  0
    5.9394   -6.3531   42.4758 C   0  0  1  0  0  0  0  0  0  0  0  0
    6.7681   -5.2198   42.3239 O   0  0  0  0  0  0  0  0  0  0  0  0
   -3.0659  -10.5150   47.4594 C   0  0  0  0  0  0  0  0  0  0  0  0
   -3.7810  -11.1653   48.4820 O   0  0  0  0  0  0  0  0  0  0  0  0
   -1.8958   -6.1249   44.9960 C   0  0  0  0  0  0  0  0  0  0  0  0
  1  2  1  6  0  0  0
  1  7  1  0  0  0  0
  1 24  1  0  0  0  0
  3  4  1  6  0  0  0
  3  9  1  0  0  0  0
  3 31  1  0  0  0  0
  5  6  1  6  0  0  0
  5 10  1  0  0  0  0
  5 28  1  0  0  0  0
  7  8  1  6  0  0  0
  7 12  1  0  0  0  0
  9 14  1  0  0  0  0
 10 11  1  6  0  0  0
 10 16  1  0  0  0  0
 12 13  1  1  0  0  0
 12 18  1  0  0  0  0
 13 35  1  0  0  0  0
 14 15  1  6  0  0  0
 14 20  1  0  0  0  0
 16 17  1  6  0  0  0
 16 21  1  0  0  0  0
 17 35  1  0  0  0  0
 18 19  1  6  0  0  0
 18 23  1  0  0  0  0
 20  2  1  1  0  0  0
 20 25  1  0  0  0  0
 21 22  1  6  0  0  0
 21 27  1  0  0  0  0
 23 24  1  0  0  0  0
 23 29  1  1  0  0  0
 25 26  1  6  0  0  0
 25 31  1  0  0  0  0
 27 28  1  0  0  0  0
 27 33  1  1  0  0  0
 29 30  1  0  0  0  0
 31 32  1  1  0  0  0
 33 34  1  0  0  0  0
M  END
>  <CHROM.1>
-95.48140817,-179.19459383,-176.79590547,68.85868027,81.06262660,-33.42146590
-172.88629578,172.18479145,0.55758290,-7.54703369,45.53583951,-0.33985665
0.05650466,1.65672510

>  <Name>
2o3v_lig

>  <RI>
0

>  <Rbt.Current_Directory>
/home/afrankz/demos/rdock_decoys_rna/rnas/2o3v

>  <Rbt.Executable>
rbdock ($Id: //depot/dev/client3/rdock/2013.1/src/exe/rbdock.cxx#4 $)

>  <Rbt.Library>
libRbt.so (2013.1, Build901 2013/11/27)

>  <Rbt.Parameter_File>
/export/apps/rDock/src/rDock_2013.1_src/data/scripts/dock_solv.prm

>  <Rbt.Receptor>
prm/pocket_docking_2.prm

>  <SCORE>
0.13094

>  <SCORE.INTER>
-4.99252

>  <SCORE.INTER.CONST>
1

>  <SCORE.INTER.POLAR>
0

>  <SCORE.INTER.ROT>
8

>  <SCORE.INTER.SOLV>
21.0676

>  <SCORE.INTER.VDW>
-19.2842

>  <SCORE.INTER.norm>
-0.142643

>  <SCORE.INTRA>
4.46715

>  <SCORE.INTRA.DIHEDRAL>
-2.70933

>  <SCORE.INTRA.DIHEDRAL.0>
13.1227

>  <SCORE.INTRA.POLAR>
0

>  <SCORE.INTRA.POLAR.0>
0

>  <SCORE.INTRA.REPUL>
0

>  <SCORE.INTRA.REPUL.0>
0

>  <SCORE.INTRA.SOLV>
4.00019

>  <SCORE.INTRA.SOLV.lig_0>
-89.1587

>  <SCORE.INTRA.VDW>
3.82172

>  <SCORE.INTRA.VDW.0>
-0.838383

>  <SCORE.INTRA.norm>
0.127633

>  <SCORE.RESTR>
0.65631

>  <SCORE.RESTR.CAVITY>
0.65631

>  <SCORE.RESTR.norm>
0.0187517

>  <SCORE.SYSTEM>
0

>  <SCORE.SYSTEM.CONST>
0

>  <SCORE.SYSTEM.DIHEDRAL>
0

>  <SCORE.SYSTEM.SOLV>
0

>  <SCORE.SYSTEM.norm>
0

>  <SCORE.heavy>
35

>  <SCORE.norm>
0.00374113

>  <RMSD>
2.911

$$$$
2o3v_lig
 OpenBabel02141814113D
libRbt.so/2013.1/901 2013/11/27
 35 37  0  0  0  0  0  0  0  0999 V2000
    1.3232   -8.3859   44.5324 C   0  0  2  0  0  0  0  0  0  0  0  0
    2.3442   -7.3515   44.3900 O   0  0  0  0  0  0  0  0  0  0  0  0
    6.5934   -7.3837   43.4570 C   0  0  2  0  0  0  0  0  0  0  0  0
    7.8720   -7.5461   42.7014 N   0  0  0  0  0  0  0  0  0  0  0  0
   -7.3560   -6.1290   46.5194 C   0  0  2  0  0  0  0  0  0  0  0  0
   -7.4251   -6.9539   45.3360 O   0  0  0  0  0  0  0  0  0  0  0  0
    0.0172   -7.5641   44.7718 C   0  0  2  0  0  0  0  0  0  0  0  0
   -0.2506   -6.6424   43.6426 N   0  0  0  0  0  0  0  0  0  0  0  0
    5.8375   -8.7779   43.5580 C   0  0  0  0  0  0  0  0  0  0  0  0
   -5.9662   -5.4034   46.5071 C   0  0  2  0  0  0  0  0  0  0  0  0
   -5.7946   -4.6021   45.2687 N   0  0  0  0  0  0  0  0  0  0  0  0
    0.0859   -6.7415   46.1313 C   0  0  1  0  0  0  0  0  0  0  0  0
   -1.1466   -5.9327   46.3183 O   0  0  0  0  0  0  0  0  0  0  0  0
    4.4767   -8.5753   44.3553 C   0  0  2  0  0  0  0  0  0  0  0  0
    3.7511   -9.8601   44.4508 N   0  0  0  0  0  0  0  0  0  0  0  0
   -4.7651   -6.4359   46.6689 C   0  0  1  0  0  0  0  0  0  0  0  0
   -3.4675   -5.7877   46.6943 O   0  0  0  0  0  0  0  0  0  0  0  0
    0.3678   -7.7811   47.3033 C   0  0  2  0  0  0  0  0  0  0  0  0
    0.4706   -7.1325   48.5581 O   0  0  0  0  0  0  0  0  0  0  0  0
    3.5757   -7.4992   43.6208 C   0  0  2  0  0  0  0  0  0  0  0  0
   -4.9806   -7.2436   47.9879 C   0  0  2  0  0  0  0  0  0  0  0  0
   -3.9453   -8.1875   48.1795 O   0  0  0  0  0  0  0  0  0  0  0  0
    1.6842   -8.5979   47.0139 C   0  0  2  0  0  0  0  0  0  0  0  0
    1.5770   -9.2709   45.7024 O   0  0  0  0  0  0  0  0  0  0  0  0
    4.3249   -6.1409   43.5208 C   0  0  2  0  0  0  0  0  0  0  0  0
    3.4570   -5.2175   42.8029 O   0  0  0  0  0  0  0  0  0  0  0  0
   -6.3925   -7.9542   47.9610 C   0  0  2  0  0  0  0  0  0  0  0  0
   -7.4661   -6.9561   47.7514 O   0  0  0  0  0  0  0  0  0  0  0  0
    1.9579   -9.6301   48.1068 C   0  0  0  0  0  0  0  0  0  0  0  0
    2.4030   -9.0108   49.2889 O   0  0  0  0  0  0  0  0  0  0  0  0
    5.6511   -6.3341   42.7489 C   0  0  1  0  0  0  0  0  0  0  0  0
    6.3135   -5.0890   42.6772 O   0  0  0  0  0  0  0  0  0  0  0  0
   -6.6661   -8.7195   49.2469 C   0  0  0  0  0  0  0  0  0  0  0  0
   -7.9413   -9.3127   49.2034 O   0  0  0  0  0  0  0  0  0  0  0  0
   -2.4198   -6.7448   46.3606 C   0  0  0  0  0  0  0  0  0  0  0  0
  1  2  1  1  0  0  0
  1  7  1  0  0  0  0
  1 24  1  0  0  0  0
  3  4  1  6  0  0  0
  3  9  1  0  0  0  0
  3 31  1  0  0  0  0
  5  6  1  6  0  0  0
  5 10  1  0  0  0  0
  5 28  1  0  0  0  0
  7  8  1  6  0  0  0
  7 12  1  0  0  0  0
  9 14  1  0  0  0  0
 10 11  1  6  0  0  0
 10 16  1  0  0  0  0
 12 13  1  1  0  0  0
 12 18  1  0  0  0  0
 13 35  1  0  0  0  0
 14 15  1  6  0  0  0
 14 20  1  0  0  0  0
 16 17  1  1  0  0  0
 16 21  1  0  0  0  0
 17 35  1  0  0  0  0
 18 19  1  1  0  0  0
 18 23  1  0  0  0  0
 20  2  1  1  0  0  0
 20 25  1  0  0  0  0
 21 22  1  6  0  0  0
 21 27  1  0  0  0  0
 23 24  1  0  0  0  0
 23 29  1  1  0  0  0
 25 26  1  6  0  0  0
 25 31  1  0  0  0  0
 27 28  1  0  0  0  0
 27 33  1  1  0  0  0
 29 30  1  0  0  0  0
 31 32  1  1  0  0  0
 33 34  1  0  0  0  0
M  END
>  <CHROM.1>
-152.58153682,59.32461313,173.93380704,-159.59140264,175.83942733,-67.30765692
-73.18152054,178.60371390,-0.39026899,-7.33638677,45.84649910,-0.22772160
-0.21875910,2.26190669

>  <Name>
2o3v_lig

>  <RI>
0

>  <Rbt.Current_Directory>
/home/afrankz/demos/rdock_decoys_rna/rnas/2o3v

>  <Rbt.Executable>
rbdock ($Id: //depot/dev/client3/rdock/2013.1/src/exe/rbdock.cxx#4 $)

>  <Rbt.Library>
libRbt.so (2013.1, Build901 2013/11/27)

>  <Rbt.Parameter_File>
/export/apps/rDock/src/rDock_2013.1_src/data/scripts/dock_solv.prm

>  <Rbt.Receptor>
prm/pocket_docking_3.prm

>  <SCORE>
-6.32095

>  <SCORE.INTER>
-3.46947

>  <SCORE.INTER.CONST>
1

>  <SCORE.INTER.POLAR>
0

>  <SCORE.INTER.ROT>
8

>  <SCORE.INTER.SOLV>
13.6253

>  <SCORE.INTER.VDW>
-15.7881

>  <SCORE.INTER.norm>
-0.0991277

>  <SCORE.INTRA>
-2.85148

>  <SCORE.INTRA.DIHEDRAL>
-6.97736

>  <SCORE.INTRA.DIHEDRAL.0>
13.1227

>  <SCORE.INTRA.POLAR>
0

>  <SCORE.INTRA.POLAR.0>
0

>  <SCORE.INTRA.REPUL>
0

>  <SCORE.INTRA.REPUL.0>
0

>  <SCORE.INTRA.SOLV>
1.82735

>  <SCORE.INTRA.SOLV.lig_0>
-89.1587

>  <SCORE.INTRA.VDW>
-0.276476

>  <SCORE.INTRA.VDW.0>
-0.838383

>  <SCORE.INTRA.norm>
-0.0814709

>  <SCORE.RESTR>
0

>  <SCORE.RESTR.CAVITY>
0

>  <SCORE.RESTR.norm>
0

>  <SCORE.SYSTEM>
0

>  <SCORE.SYSTEM.CONST>
0

>  <SCORE.SYSTEM.DIHEDRAL>
0

>  <SCORE.SYSTEM.SOLV>
0

>  <SCORE.SYSTEM.norm>
0

>  <SCORE.heavy>
35

>  <SCORE.norm>
-0.180599

>  <RMSD>
2.926

$$$$
2o3v_lig
 OpenBabel02141814113D
libRbt.so/2013.1/901 2013/11/27
 35 37  0  0  0  0  0  0  0  0999 V2000
    1.3626   -8.5244   44.2836 C   0  0  2  0  0  0  0  0  0  0  0  0
    2.3020   -7.4399   44.5555 O   0  0  0  0  0  0  0  0  0  0  0  0
    6.1861   -5.9920   43.2345 C   0  0  2  0  0  0  0  0  0  0  0  0
    7.3103   -5.5803   42.3408 N   0  0  0  0  0  0  0  0  0  0  0  0
   -5.6138   -6.2612   47.5382 C   0  0  2  0  0  0  0  0  0  0  0  0
   -6.3382   -5.4496   46.5884 O   0  0  0  0  0  0  0  0  0  0  0  0
    0.0629   -7.7695   43.8600 C   0  0  2  0  0  0  0  0  0  0  0  0
    0.3047   -6.9076   42.6789 N   0  0  0  0  0  0  0  0  0  0  0  0
    5.8410   -7.5265   43.0071 C   0  0  0  0  0  0  0  0  0  0  0  0
   -4.2386   -6.6361   46.8851 C   0  0  2  0  0  0  0  0  0  0  0  0
   -3.4769   -5.4176   46.5108 N   0  0  0  0  0  0  0  0  0  0  0  0
   -0.5190   -6.8939   45.0534 C   0  0  1  0  0  0  0  0  0  0  0  0
   -1.7290   -6.1497   44.6170 O   0  0  0  0  0  0  0  0  0  0  0  0
    4.6358   -7.9355   43.9602 C   0  0  2  0  0  0  0  0  0  0  0  0
    4.2907   -9.3587   43.7557 N   0  0  0  0  0  0  0  0  0  0  0  0
   -4.4305   -7.5799   45.6173 C   0  0  1  0  0  0  0  0  0  0  0  0
   -3.1709   -7.9700   45.0123 O   0  0  0  0  0  0  0  0  0  0  0  0
   -0.7636   -7.8710   46.2859 C   0  0  2  0  0  0  0  0  0  0  0  0
   -1.2619   -7.1709   47.4117 O   0  0  0  0  0  0  0  0  0  0  0  0
    3.3753   -7.0250   43.6577 C   0  0  2  0  0  0  0  0  0  0  0  0
   -5.2220   -8.8508   46.0611 C   0  0  2  0  0  0  0  0  0  0  0  0
   -5.4322   -9.7244   44.9693 O   0  0  0  0  0  0  0  0  0  0  0  0
    0.5678   -8.6221   46.6694 C   0  0  2  0  0  0  0  0  0  0  0  0
    1.0886   -9.3490   45.4926 O   0  0  0  0  0  0  0  0  0  0  0  0
    3.7233   -5.5259   43.8766 C   0  0  2  0  0  0  0  0  0  0  0  0
    2.5363   -4.7508   43.5429 O   0  0  0  0  0  0  0  0  0  0  0  0
   -6.5970   -8.4285   46.7171 C   0  0  2  0  0  0  0  0  0  0  0  0
   -6.3629   -7.5078   47.8530 O   0  0  0  0  0  0  0  0  0  0  0  0
    0.3515   -9.5954   47.8274 C   0  0  0  0  0  0  0  0  0  0  0  0
   -0.6056  -10.5718   47.4967 O   0  0  0  0  0  0  0  0  0  0  0  0
    4.8978   -5.1246   42.9538 C   0  0  1  0  0  0  0  0  0  0  0  0
    5.1971   -3.7626   43.1758 O   0  0  0  0  0  0  0  0  0  0  0  0
   -7.3854   -9.6342   47.2059 C   0  0  0  0  0  0  0  0  0  0  0  0
   -8.6134   -9.2265   47.7589 O   0  0  0  0  0  0  0  0  0  0  0  0
   -2.7911   -7.0143   43.9791 C   0  0  0  0  0  0  0  0  0  0  0  0
  1  2  1  1  0  0  0
  1  7  1  0  0  0  0
  1 24  1  0  0  0  0
  3  4  1  6  0  0  0
  3  9  1  0  0  0  0
  3 31  1  0  0  0  0
  5  6  1  6  0  0  0
  5 10  1  0  0  0  0
  5 28  1  0  0  0  0
  7  8  1  6  0  0  0
  7 12  1  0  0  0  0
  9 14  1  0  0  0  0
 10 11  1  6  0  0  0
 10 16  1  0  0  0  0
 12 13  1  6  0  0  0
 12 18  1  0  0  0  0
 13 35  1  0  0  0  0
 14 15  1  6  0  0  0
 14 20  1  0  0  0  0
 16 17  1  1  0  0  0
 16 21  1  0  0  0  0
 17 35  1  0  0  0  0
 18 19  1  1  0  0  0
 18 23  1  0  0  0  0
 20  2  1  1  0  0  0
 20 25  1  0  0  0  0
 21 22  1  6  0  0  0
 21 27  1  0  0  0  0
 23 24  1  0  0  0  0
 23 29  1  1  0  0  0
 25 26  1  6  0  0  0
 25 31  1  0  0  0  0
 27 28  1  0  0  0  0
 27 33  1  1  0  0  0
 29 30  1  0  0  0  0
 31 32  1  1  0  0  0
 33 34  1  0  0  0  0
M  END
>  <CHROM.1>
-102.88539243,52.50425630,60.74687894,-90.70914722,102.16398493,-86.13656215
59.97860002,-178.81896164,-0.65988264,-7.40928947,45.23912401,-0.24271225
-0.24290832,2.78808855

>  <Name>
2o3v_lig

>  <RI>
0

>  <Rbt.Current_Directory>
/home/afrankz/demos/rdock_decoys_rna/rnas/2o3v

>  <Rbt.Executable>
rbdock ($Id: //depot/dev/client3/rdock/2013.1/src/exe/rbdock.cxx#4 $)

>  <Rbt.Library>
libRbt.so (2013.1, Build901 2013/11/27)

>  <Rbt.Parameter_File>
/export/apps/rDock/src/rDock_2013.1_src/data/scripts/dock_solv.prm

>  <Rbt.Receptor>
prm/pocket_docking_3.prm

>  <SCORE>
-4.33531

>  <SCORE.INTER>
-7.913

>  <SCORE.INTER.CONST>
1

>  <SCORE.INTER.POLAR>
-1.49013

>  <SCORE.INTER.ROT>
8

>  <SCORE.INTER.SOLV>
19.9004

>  <SCORE.INTER.VDW>
-15.875

>  <SCORE.INTER.norm>
-0.226086

>  <SCORE.INTRA>
3.56511

>  <SCORE.INTRA.DIHEDRAL>
5.37958

>  <SCORE.INTRA.DIHEDRAL.0>
13.1227

>  <SCORE.INTRA.POLAR>
0

>  <SCORE.INTRA.POLAR.0>
0

>  <SCORE.INTRA.REPUL>
0

>  <SCORE.INTRA.REPUL.0>
0

>  <SCORE.INTRA.SOLV>
5.88875

>  <SCORE.INTRA.SOLV.lig_0>
-89.1587

>  <SCORE.INTRA.VDW>
-2.06906

>  <SCORE.INTRA.VDW.0>
-0.838383

>  <SCORE.INTRA.norm>
0.10186

>  <SCORE.RESTR>
0.0125806

>  <SCORE.RESTR.CAVITY>
0.0125806

>  <SCORE.RESTR.norm>
0.000359445

>  <SCORE.SYSTEM>
0

>  <SCORE.SYSTEM.CONST>
0

>  <SCORE.SYSTEM.DIHEDRAL>
0

>  <SCORE.SYSTEM.SOLV>
0

>  <SCORE.SYSTEM.norm>
0

>  <SCORE.heavy>
35

>  <SCORE.norm>
-0.123866

>  <RMSD>
2.952

$$$$
2o3v_lig
 OpenBabel02141814113D
libRbt.so/2013.1/901 2013/11/27
 35 37  0  0  0  0  0  0  0  0999 V2000
    2.4421   -7.8528   45.8875 C   0  0  2  0  0  0  0  0  0  0  0  0
    2.5803   -8.0103   44.4422 O   0  0  0  0  0  0  0  0  0  0  0  0
    6.2512   -5.8898   43.4648 C   0  0  2  0  0  0  0  0  0  0  0  0
    7.3820   -5.3137   42.6764 N   0  0  0  0  0  0  0  0  0  0  0  0
   -5.4862   -7.6749   46.9046 C   0  0  2  0  0  0  0  0  0  0  0  0
   -6.5761   -8.6114   46.7607 O   0  0  0  0  0  0  0  0  0  0  0  0
    1.2124   -8.7537   46.2261 C   0  0  2  0  0  0  0  0  0  0  0  0
    1.4498  -10.1591   45.8201 N   0  0  0  0  0  0  0  0  0  0  0  0
    6.2412   -7.4731   43.3292 C   0  0  0  0  0  0  0  0  0  0  0  0
   -4.1601   -8.4403   46.5673 C   0  0  2  0  0  0  0  0  0  0  0  0
   -4.2111   -9.0172   45.2000 N   0  0  0  0  0  0  0  0  0  0  0  0
   -0.1150   -8.2130   45.5369 C   0  0  1  0  0  0  0  0  0  0  0  0
   -1.2633   -9.1080   45.8348 O   0  0  0  0  0  0  0  0  0  0  0  0
    5.0232   -8.0593   44.1667 C   0  0  2  0  0  0  0  0  0  0  0  0
    4.9888   -9.5325   44.0444 N   0  0  0  0  0  0  0  0  0  0  0  0
   -3.8528   -9.5787   47.6371 C   0  0  1  0  0  0  0  0  0  0  0  0
   -2.6126  -10.2817   47.3679 O   0  0  0  0  0  0  0  0  0  0  0  0
   -0.3202   -6.7082   46.0137 C   0  0  2  0  0  0  0  0  0  0  0  0
   -1.4731   -6.1312   45.4274 O   0  0  0  0  0  0  0  0  0  0  0  0
    3.6615   -7.4417   43.6436 C   0  0  2  0  0  0  0  0  0  0  0  0
   -3.7948   -8.9243   49.0539 C   0  0  2  0  0  0  0  0  0  0  0  0
   -3.5342   -9.8936   50.0499 O   0  0  0  0  0  0  0  0  0  0  0  0
    0.9482   -5.8397   45.6665 C   0  0  2  0  0  0  0  0  0  0  0  0
    2.1509   -6.4453   46.2757 O   0  0  0  0  0  0  0  0  0  0  0  0
    3.6823   -5.8929   43.7740 C   0  0  2  0  0  0  0  0  0  0  0  0
    2.4222   -5.3947   43.2401 O   0  0  0  0  0  0  0  0  0  0  0  0
   -5.1468   -8.1608   49.3514 C   0  0  2  0  0  0  0  0  0  0  0  0
   -5.4117   -7.1554   48.2970 O   0  0  0  0  0  0  0  0  0  0  0  0
    0.7920   -4.3978   46.1476 C   0  0  0  0  0  0  0  0  0  0  0  0
    1.7969   -3.5728   45.6106 O   0  0  0  0  0  0  0  0  0  0  0  0
    4.8678   -5.3187   42.9636 C   0  0  1  0  0  0  0  0  0  0  0  0
    4.8673   -3.9134   43.1031 O   0  0  0  0  0  0  0  0  0  0  0  0
   -5.1204   -7.4689   50.7059 C   0  0  0  0  0  0  0  0  0  0  0  0
   -6.3766   -6.9039   50.9932 O   0  0  0  0  0  0  0  0  0  0  0  0
   -1.5020   -9.3393   47.3085 C   0  0  0  0  0  0  0  0  0  0  0  0
  1  2  1  6  0  0  0
  1  7  1  0  0  0  0
  1 24  1  0  0  0  0
  3  4  1  6  0  0  0
  3  9  1  0  0  0  0
  3 31  1  0  0  0  0
  5  6  1  1  0  0  0
  5 10  1  0  0  0  0
  5 28  1  0  0  0  0
  7  8  1  6  0  0  0
  7 12  1  0  0  0  0
  9 14  1  0  0  0  0
 10 11  1  6  0  0  0
 10 16  1  0  0  0  0
 12 13  1  1  0  0  0
 12 18  1  0  0  0  0
 13 35  1  0  0  0  0
 14 15  1  6  0  0  0
 14 20  1  0  0  0  0
 16 17  1  6  0  0  0
 16 21  1  0  0  0  0
 17 35  1  0  0  0  0
 18 19  1  6  0  0  0
 18 23  1  0  0  0  0
 20  2  1  1  0  0  0
 20 25  1  0  0  0  0
 21 22  1  1  0  0  0
 21 27  1  0  0  0  0
 23 24  1  0  0  0  0
 23 29  1  1  0  0  0
 25 26  1  6  0  0  0
 25 31  1  0  0  0  0
 27 28  1  0  0  0  0
 27 33  1  1  0  0  0
 29 30  1  0  0  0  0
 31 32  1  1  0  0  0
 33 34  1  0  0  0  0
M  END
>  <CHROM.1>
-175.10007402,55.14567701,-177.28906142,56.61461126,-99.68139048,61.23633580
-168.40381326,-174.61800221,-0.01333002,-7.43553161,46.01368499,-0.22294290
-0.45030946,3.07919997

>  <Name>
2o3v_lig

>  <RI>
0

>  <Rbt.Current_Directory>
/home/afrankz/demos/rdock_decoys_rna/rnas/2o3v

>  <Rbt.Executable>
rbdock ($Id: //depot/dev/client3/rdock/2013.1/src/exe/rbdock.cxx#4 $)

>  <Rbt.Library>
libRbt.so (2013.1, Build901 2013/11/27)

>  <Rbt.Parameter_File>
/export/apps/rDock/src/rDock_2013.1_src/data/scripts/dock_solv.prm

>  <Rbt.Receptor>
prm/pocket_docking_3.prm

>  <SCORE>
-8.13966

>  <SCORE.INTER>
-5.42141

>  <SCORE.INTER.CONST>
1

>  <SCORE.INTER.POLAR>
-0.787704

>  <SCORE.INTER.ROT>
8

>  <SCORE.INTER.SOLV>
13.5296

>  <SCORE.INTER.VDW>
-14.4318

>  <SCORE.INTER.norm>
-0.154897

>  <SCORE.INTRA>
-2.72235

>  <SCORE.INTRA.DIHEDRAL>
-6.80536

>  <SCORE.INTRA.DIHEDRAL.0>
13.1227

>  <SCORE.INTRA.POLAR>
0

>  <SCORE.INTRA.POLAR.0>
0

>  <SCORE.INTRA.REPUL>
0

>  <SCORE.INTRA.REPUL.0>
0

>  <SCORE.INTRA.SOLV>
2.58317

>  <SCORE.INTRA.SOLV.lig_0>
-89.1587

>  <SCORE.INTRA.VDW>
-0.611252

>  <SCORE.INTRA.VDW.0>
-0.838383

>  <SCORE.INTRA.norm>
-0.0777813

>  <SCORE.RESTR>
0.00409604

>  <SCORE.RESTR.CAVITY>
0.00409604

>  <SCORE.RESTR.norm>
0.00011703

>  <SCORE.SYSTEM>
0

>  <SCORE.SYSTEM.CONST>
0

>  <SCORE.SYSTEM.DIHEDRAL>
0

>  <SCORE.SYSTEM.SOLV>
0

>  <SCORE.SYSTEM.norm>
0

>  <SCORE.heavy>
35

>  <SCORE.norm>
-0.232562

>  <RMSD>
3.021

$$$$
2o3v_lig
 OpenBabel02141814113D
libRbt.so/2013.1/901 2013/11/27
 35 37  0  0  0  0  0  0  0  0999 V2000
    1.9581   -8.4605   45.0743 C   0  0  2  0  0  0  0  0  0  0  0  0
    2.8790   -7.3340   44.9490 O   0  0  0  0  0  0  0  0  0  0  0  0
    6.5457   -6.4876   42.7659 C   0  0  2  0  0  0  0  0  0  0  0  0
    7.5012   -6.2844   41.6354 N   0  0  0  0  0  0  0  0  0  0  0  0
   -6.0509   -6.2720   44.7692 C   0  0  2  0  0  0  0  0  0  0  0  0
   -5.5511   -6.9036   43.5705 O   0  0  0  0  0  0  0  0  0  0  0  0
    0.6358   -7.9079   44.4541 C   0  0  2  0  0  0  0  0  0  0  0  0
    0.8393   -7.4842   43.0486 N   0  0  0  0  0  0  0  0  0  0  0  0
    5.9922   -7.9771   42.7526 C   0  0  0  0  0  0  0  0  0  0  0  0
   -4.8954   -5.3868   45.3519 C   0  0  2  0  0  0  0  0  0  0  0  0
   -4.4363   -4.3865   44.3551 N   0  0  0  0  0  0  0  0  0  0  0  0
    0.0560   -6.6937   45.3021 C   0  0  1  0  0  0  0  0  0  0  0  0
   -1.1766   -6.1542   44.6714 O   0  0  0  0  0  0  0  0  0  0  0  0
    4.9705   -8.1632   43.9567 C   0  0  2  0  0  0  0  0  0  0  0  0
    4.4341   -9.5411   43.9557 N   0  0  0  0  0  0  0  0  0  0  0  0
   -3.6711   -6.2750   45.8488 C   0  0  1  0  0  0  0  0  0  0  0  0
   -2.6003   -5.4830   46.4240 O   0  0  0  0  0  0  0  0  0  0  0  0
   -0.1470   -7.2090   46.7944 C   0  0  2  0  0  0  0  0  0  0  0  0
   -0.6408   -6.1817   47.6351 O   0  0  0  0  0  0  0  0  0  0  0  0
    3.7844   -7.1216   43.8242 C   0  0  2  0  0  0  0  0  0  0  0  0
   -4.1981   -7.2996   46.9029 C   0  0  2  0  0  0  0  0  0  0  0  0
   -3.1520   -8.1262   47.3738 O   0  0  0  0  0  0  0  0  0  0  0  0
    1.2062   -7.7710   47.3748 C   0  0  2  0  0  0  0  0  0  0  0  0
    1.7221   -8.8402   46.4944 O   0  0  0  0  0  0  0  0  0  0  0  0
    4.3350   -5.6679   43.8318 C   0  0  2  0  0  0  0  0  0  0  0  0
    3.1989   -4.7718   43.6669 O   0  0  0  0  0  0  0  0  0  0  0  0
   -5.3626   -8.1668   46.2772 C   0  0  2  0  0  0  0  0  0  0  0  0
   -6.4469   -7.2890   45.7807 O   0  0  0  0  0  0  0  0  0  0  0  0
    1.0301   -8.3070   48.7948 C   0  0  0  0  0  0  0  0  0  0  0  0
    0.7384   -7.2674   49.6965 O   0  0  0  0  0  0  0  0  0  0  0  0
    5.3322   -5.4835   42.6640 C   0  0  1  0  0  0  0  0  0  0  0  0
    5.8209   -4.1591   42.6968 O   0  0  0  0  0  0  0  0  0  0  0  0
   -5.9386   -9.1518   47.2831 C   0  0  0  0  0  0  0  0  0  0  0  0
   -6.4841   -8.4665   48.3844 O   0  0  0  0  0  0  0  0  0  0  0  0
   -1.7505   -4.9436   45.3694 C   0  0  0  0  0  0  0  0  0  0  0  0
  1  2  1  1  0  0  0
  1  7  1  0  0  0  0
  1 24  1  0  0  0  0
  3  4  1  6  0  0  0
  3  9  1  0  0  0  0
  3 31  1  0  0  0  0
  5  6  1  6  0  0  0
  5 10  1  0  0  0  0
  5 28  1  0  0  0  0
  7  8  1  6  0  0  0
  7 12  1  0  0  0  0
  9 14  1  0  0  0  0
 10 11  1  6  0  0  0
 10 16  1  0  0  0  0
 12 13  1  6  0  0  0
 12 18  1  0  0  0  0
 13 35  1  0  0  0  0
 14 15  1  6  0  0  0
 14 20  1  0  0  0  0
 16 17  1  1  0  0  0
 16 21  1  0  0  0  0
 17 35  1  0  0  0  0
 18 19  1  1  0  0  0
 18 23  1  0  0  0  0
 20  2  1  1  0  0  0
 20 25  1  0  0  0  0
 21 22  1  6  0  0  0
 21 27  1  0  0  0  0
 23 24  1  0  0  0  0
 23 29  1  1  0  0  0
 25 26  1  6  0  0  0
 25 31  1  0  0  0  0
 27 28  1  0  0  0  0
 27 33  1  1  0  0  0
 29 30  1  0  0  0  0
 31 32  1  1  0  0  0
 33 34  1  0  0  0  0
M  END
>  <CHROM.1>
-92.75612379,-176.61600266,-85.82723600,-82.18923046,-61.69312266,-74.01733435
-67.04019657,61.02973125,-0.04218537,-6.94493490,45.28991483,-0.26048922
-0.12232304,2.14595974

>  <Name>
2o3v_lig

>  <RI>
0

>  <Rbt.Current_Directory>
/home/afrankz/demos/rdock_decoys_rna/rnas/2o3v

>  <Rbt.Executable>
rbdock ($Id: //depot/dev/client3/rdock/2013.1/src/exe/rbdock.cxx#4 $)

>  <Rbt.Library>
libRbt.so (2013.1, Build901 2013/11/27)

>  <Rbt.Parameter_File>
/export/apps/rDock/src/rDock_2013.1_src/data/scripts/dock_solv.prm

>  <Rbt.Receptor>
prm/pocket_docking_3.prm

>  <SCORE>
-6.27173

>  <SCORE.INTER>
-6.32088

>  <SCORE.INTER.CONST>
1

>  <SCORE.INTER.POLAR>
-0.658833

>  <SCORE.INTER.ROT>
8

>  <SCORE.INTER.SOLV>
20.6379

>  <SCORE.INTER.VDW>
-17.8305

>  <SCORE.INTER.norm>
-0.180596

>  <SCORE.INTRA>
0.0488233

>  <SCORE.INTRA.DIHEDRAL>
-2.81212

>  <SCORE.INTRA.DIHEDRAL.0>
13.1227

>  <SCORE.INTRA.POLAR>
0

>  <SCORE.INTRA.POLAR.0>
0

>  <SCORE.INTRA.REPUL>
0

>  <SCORE.INTRA.REPUL.0>
0

>  <SCORE.INTRA.SOLV>
4.08426

>  <SCORE.INTRA.SOLV.lig_0>
-89.1587

>  <SCORE.INTRA.VDW>
-0.587243

>  <SCORE.INTRA.VDW.0>
-0.838383

>  <SCORE.INTRA.norm>
0.00139495

>  <SCORE.RESTR>
0.000324529

>  <SCORE.RESTR.CAVITY>
0.000324529

>  <SCORE.RESTR.norm>
9.27225e-06

>  <SCORE.SYSTEM>
0

>  <SCORE.SYSTEM.CONST>
0

>  <SCORE.SYSTEM.DIHEDRAL>
0

>  <SCORE.SYSTEM.SOLV>
0

>  <SCORE.SYSTEM.norm>
0

>  <SCORE.heavy>
35

>  <SCORE.norm>
-0.179192

>  <RMSD>
3.030

$$$$
2o3v_lig
 OpenBabel02141814113D
libRbt.so/2013.1/901 2013/11/27
 35 37  0  0  0  0  0  0  0  0999 V2000
    2.2223   -6.3503   44.2566 C   0  0  2  0  0  0  0  0  0  0  0  0
    3.3890   -5.7572   44.9045 O   0  0  0  0  0  0  0  0  0  0  0  0
    6.7772   -7.1247   42.5428 C   0  0  2  0  0  0  0  0  0  0  0  0
    8.1830   -7.3682   42.0994 N   0  0  0  0  0  0  0  0  0  0  0  0
   -5.1385   -6.7852   44.9802 C   0  0  2  0  0  0  0  0  0  0  0  0
   -5.1414   -7.8900   44.0502 O   0  0  0  0  0  0  0  0  0  0  0  0
    1.0289   -5.7866   45.0911 C   0  0  2  0  0  0  0  0  0  0  0  0
    1.0101   -4.3050   45.0661 N   0  0  0  0  0  0  0  0  0  0  0  0
    6.4852   -5.5637   42.6010 C   0  0  0  0  0  0  0  0  0  0  0  0
   -3.6425   -6.4038   45.2538 C   0  0  2  0  0  0  0  0  0  0  0  0
   -2.9410   -6.0600   43.9910 N   0  0  0  0  0  0  0  0  0  0  0  0
    1.0762   -6.2974   46.5965 C   0  0  1  0  0  0  0  0  0  0  0  0
   -0.0414   -5.7150   47.3839 O   0  0  0  0  0  0  0  0  0  0  0  0
    4.9887   -5.3321   43.0860 C   0  0  2  0  0  0  0  0  0  0  0  0
    4.6995   -3.8838   43.1582 N   0  0  0  0  0  0  0  0  0  0  0  0
   -2.8710   -7.5696   46.0157 C   0  0  1  0  0  0  0  0  0  0  0  0
   -1.4920   -7.2299   46.3116 O   0  0  0  0  0  0  0  0  0  0  0  0
    1.0878   -7.8887   46.5593 C   0  0  2  0  0  0  0  0  0  0  0  0
    1.1544   -8.4373   47.8633 O   0  0  0  0  0  0  0  0  0  0  0  0
    4.7726   -5.9978   44.5071 C   0  0  2  0  0  0  0  0  0  0  0  0
   -3.6353   -7.8863   47.3401 C   0  0  2  0  0  0  0  0  0  0  0  0
   -2.9990   -8.9260   48.0568 O   0  0  0  0  0  0  0  0  0  0  0  0
    2.2972   -8.4134   45.6958 C   0  0  2  0  0  0  0  0  0  0  0  0
    2.2284   -7.8370   44.3365 O   0  0  0  0  0  0  0  0  0  0  0  0
    5.0663   -7.5229   44.4426 C   0  0  2  0  0  0  0  0  0  0  0  0
    4.8872   -8.0573   45.7855 O   0  0  0  0  0  0  0  0  0  0  0  0
   -5.1375   -8.2607   47.0200 C   0  0  2  0  0  0  0  0  0  0  0  0
   -5.7892   -7.1678   46.2626 O   0  0  0  0  0  0  0  0  0  0  0  0
    2.3098   -9.9391   45.6131 C   0  0  0  0  0  0  0  0  0  0  0  0
    1.0283  -10.4416   45.3226 O   0  0  0  0  0  0  0  0  0  0  0  0
    6.5201   -7.7528   43.9677 C   0  0  1  0  0  0  0  0  0  0  0  0
    6.7589   -9.1435   43.9125 O   0  0  0  0  0  0  0  0  0  0  0  0
   -5.9350   -8.5354   48.2860 C   0  0  0  0  0  0  0  0  0  0  0  0
   -6.0065   -7.3775   49.0822 O   0  0  0  0  0  0  0  0  0  0  0  0
   -1.3938   -5.8343   46.7212 C   0  0  0  0  0  0  0  0  0  0  0  0
  1  2  1  1  0  0  0
  1  7  1  0  0  0  0
  1 24  1  0  0  0  0
  3  4  1  1  0  0  0
  3  9  1  0  0  0  0
  3 31  1  0  0  0  0
  5  6  1  6  0  0  0
  5 10  1  0  0  0  0
  5 28  1  0  0  0  0
  7  8  1  1  0  0  0
  7 12  1  0  0  0  0
  9 14  1  0  0  0  0
 10 11  1  6  0  0  0
 10 16  1  0  0  0  0
 12 13  1  1  0  0  0
 12 18  1  0  0  0  0
 13 35  1  0  0  0  0
 14 15  1  1  0  0  0
 14 20  1  0  0  0  0
 16 17  1  1  0  0  0
 16 21  1  0  0  0  0
 17 35  1  0  0  0  0
 18 19  1  1  0  0  0
 18 23  1  0  0  0  0
 20  2  1  6  0  0  0
 20 25  1  0  0  0  0
 21 22  1  6  0  0  0
 21 27  1  0  0  0  0
 23 24  1  0  0  0  0
 23 29  1  6  0  0  0
 25 26  1  1  0  0  0
 25 31  1  0  0  0  0
 27 28  1  0  0  0  0
 27 33  1  1  0  0  0
 29 30  1  0  0  0  0
 31 32  1  6  0  0  0
 33 34  1  0  0  0  0
M  END
>  <CHROM.1>
178.77047168,48.87425441,48.85086196,39.52169959,163.57392225,68.12824330
46.24293291,63.27539532,0.68529325,-7.20301624,45.41761591,0.19988803,0.22299368
-0.54884368

>  <Name>
2o3v_lig

>  <RI>
0

>  <Rbt.Current_Directory>
/home/afrankz/demos/rdock_decoys_rna/rnas/2o3v

>  <Rbt.Executable>
rbdock ($Id: //depot/dev/client3/rdock/2013.1/src/exe/rbdock.cxx#4 $)

>  <Rbt.Library>
libRbt.so (2013.1, Build901 2013/11/27)

>  <Rbt.Parameter_File>
/export/apps/rDock/src/rDock_2013.1_src/data/scripts/dock_solv.prm

>  <Rbt.Receptor>
prm/pocket_docking_2.prm

>  <SCORE>
1.30898

>  <SCORE.INTER>
-2.33735

>  <SCORE.INTER.CONST>
1

>  <SCORE.INTER.POLAR>
-0.852859

>  <SCORE.INTER.ROT>
8

>  <SCORE.INTER.SOLV>
14.6859

>  <SCORE.INTER.VDW>
-12.544

>  <SCORE.INTER.norm>
-0.0667813

>  <SCORE.INTRA>
0.0626062

>  <SCORE.INTRA.DIHEDRAL>
-7.73987

>  <SCORE.INTRA.DIHEDRAL.0>
13.1227

>  <SCORE.INTRA.POLAR>
0

>  <SCORE.INTRA.POLAR.0>
0

>  <SCORE.INTRA.REPUL>
0

>  <SCORE.INTRA.REPUL.0>
0

>  <SCORE.INTRA.SOLV>
2.28076

>  <SCORE.INTRA.SOLV.lig_0>
-89.1587

>  <SCORE.INTRA.VDW>
2.79216

>  <SCORE.INTRA.VDW.0>
-0.838383

>  <SCORE.INTRA.norm>
0.00178875

>  <SCORE.RESTR>
3.58372

>  <SCORE.RESTR.CAVITY>
3.58372

>  <SCORE.RESTR.norm>
0.102392

>  <SCORE.SYSTEM>
0

>  <SCORE.SYSTEM.CONST>
0

>  <SCORE.SYSTEM.DIHEDRAL>
0

>  <SCORE.SYSTEM.SOLV>
0

>  <SCORE.SYSTEM.norm>
0

>  <SCORE.heavy>
35

>  <SCORE.norm>
0.0373995

>  <RMSD>
3.033

$$$$
2o3v_lig
 OpenBabel02141814113D
libRbt.so/2013.1/901 2013/11/27
 35 37  0  0  0  0  0  0  0  0999 V2000
    1.6889   -8.8569   45.0995 C   0  0  2  0  0  0  0  0  0  0  0  0
    1.9427   -7.4828   44.6749 O   0  0  0  0  0  0  0  0  0  0  0  0
    5.7958   -5.7396   43.6543 C   0  0  2  0  0  0  0  0  0  0  0  0
    6.9859   -5.3117   42.8588 N   0  0  0  0  0  0  0  0  0  0  0  0
   -5.7817   -5.6511   48.0673 C   0  0  2  0  0  0  0  0  0  0  0  0
   -7.1113   -6.0820   47.7041 O   0  0  0  0  0  0  0  0  0  0  0  0
    0.1390   -8.8894   45.2865 C   0  0  2  0  0  0  0  0  0  0  0  0
   -0.5601   -8.5373   44.0281 N   0  0  0  0  0  0  0  0  0  0  0  0
    5.6567   -7.3223   43.6212 C   0  0  0  0  0  0  0  0  0  0  0  0
   -4.8543   -5.8875   46.8253 C   0  0  2  0  0  0  0  0  0  0  0  0
   -5.3616   -5.1585   45.6353 N   0  0  0  0  0  0  0  0  0  0  0  0
   -0.3292   -7.9134   46.4517 C   0  0  1  0  0  0  0  0  0  0  0  0
   -1.8093   -7.9255   46.5837 O   0  0  0  0  0  0  0  0  0  0  0  0
    4.3780   -7.7498   44.4642 C   0  0  2  0  0  0  0  0  0  0  0  0
    4.2234   -9.2201   44.4367 N   0  0  0  0  0  0  0  0  0  0  0  0
   -4.6968   -7.4379   46.4990 C   0  0  1  0  0  0  0  0  0  0  0  0
   -3.8162   -7.6877   45.3735 O   0  0  0  0  0  0  0  0  0  0  0  0
    0.4469   -8.3428   47.7734 C   0  0  2  0  0  0  0  0  0  0  0  0
    0.1101   -7.5081   48.8669 O   0  0  0  0  0  0  0  0  0  0  0  0
    3.0829   -7.0590   43.8684 C   0  0  2  0  0  0  0  0  0  0  0  0
   -4.1491   -8.1587   47.7714 C   0  0  2  0  0  0  0  0  0  0  0  0
   -3.9984   -9.5460   47.5429 O   0  0  0  0  0  0  0  0  0  0  0  0
    2.0045   -8.3107   47.5358 C   0  0  2  0  0  0  0  0  0  0  0  0
    2.3539   -9.1792   46.3920 O   0  0  0  0  0  0  0  0  0  0  0  0
    3.2300   -5.5119   43.8988 C   0  0  2  0  0  0  0  0  0  0  0  0
    2.0265   -4.9489   43.3025 O   0  0  0  0  0  0  0  0  0  0  0  0
   -5.1092   -7.8913   48.9985 C   0  0  2  0  0  0  0  0  0  0  0  0
   -5.2650   -6.4356   49.2212 O   0  0  0  0  0  0  0  0  0  0  0  0
    2.7730   -8.7552   48.7794 C   0  0  0  0  0  0  0  0  0  0  0  0
    2.6082   -7.8369   49.8323 O   0  0  0  0  0  0  0  0  0  0  0  0
    4.4749   -5.0918   43.0828 C   0  0  1  0  0  0  0  0  0  0  0  0
    4.5887   -3.6851   43.1310 O   0  0  0  0  0  0  0  0  0  0  0  0
   -4.5922   -8.5391   50.2740 C   0  0  0  0  0  0  0  0  0  0  0  0
   -4.5464   -9.9382   50.1305 O   0  0  0  0  0  0  0  0  0  0  0  0
   -2.5269   -7.0426   45.5898 C   0  0  0  0  0  0  0  0  0  0  0  0
  1  2  1  1  0  0  0
  1  7  1  0  0  0  0
  1 24  1  0  0  0  0
  3  4  1  6  0  0  0
  3  9  1  0  0  0  0
  3 31  1  0  0  0  0
  5  6  1  6  0  0  0
  5 10  1  0  0  0  0
  5 28  1  0  0  0  0
  7  8  1  6  0  0  0
  7 12  1  0  0  0  0
  9 14  1  0  0  0  0
 10 11  1  6  0  0  0
 10 16  1  0  0  0  0
 12 13  1  1  0  0  0
 12 18  1  0  0  0  0
 13 35  1  0  0  0  0
 14 15  1  6  0  0  0
 14 20  1  0  0  0  0
 16 17  1  6  0  0  0
 16 21  1  0  0  0  0
 17 35  1  0  0  0  0
 18 19  1  1  0  0  0
 18 23  1  0  0  0  0
 20  2  1  1  0  0  0
 20 25  1  0  0  0  0
 21 22  1  6  0  0  0
 21 27  1  0  0  0  0
 23 24  1  0  0  0  0
 23 29  1  1  0  0  0
 25 26  1  6  0  0  0
 25 31  1  0  0  0  0
 27 28  1  0  0  0  0
 27 33  1  1  0  0  0
 29 30  1  0  0  0  0
 31 32  1  1  0  0  0
 33 34  1  0  0  0  0
M  END
>  <CHROM.1>
-153.83408162,-81.35297415,150.27988010,54.09879289,76.54340733,-45.28045438
-66.33481717,-62.83405471,-0.22034222,-7.33652860,46.24803143,-0.37225934
-0.18568986,2.24354474

>  <Name>
2o3v_lig

>  <RI>
0

>  <Rbt.Current_Directory>
/home/afrankz/demos/rdock_decoys_rna/rnas/2o3v

>  <Rbt.Executable>
rbdock ($Id: //depot/dev/client3/rdock/2013.1/src/exe/rbdock.cxx#4 $)

>  <Rbt.Library>
libRbt.so (2013.1, Build901 2013/11/27)

>  <Rbt.Parameter_File>
/export/apps/rDock/src/rDock_2013.1_src/data/scripts/dock_solv.prm

>  <Rbt.Receptor>
prm/pocket_docking_3.prm

>  <SCORE>
-5.02376

>  <SCORE.INTER>
-7.68036

>  <SCORE.INTER.CONST>
1

>  <SCORE.INTER.POLAR>
-0.957416

>  <SCORE.INTER.ROT>
8

>  <SCORE.INTER.SOLV>
13.5434

>  <SCORE.INTER.VDW>
-15.3767

>  <SCORE.INTER.norm>
-0.219439

>  <SCORE.INTRA>
2.6566

>  <SCORE.INTRA.DIHEDRAL>
-2.01109

>  <SCORE.INTRA.DIHEDRAL.0>
13.1227

>  <SCORE.INTRA.POLAR>
0

>  <SCORE.INTRA.POLAR.0>
0

>  <SCORE.INTRA.REPUL>
0

>  <SCORE.INTRA.REPUL.0>
0

>  <SCORE.INTRA.SOLV>
3.36573

>  <SCORE.INTRA.SOLV.lig_0>
-89.1587

>  <SCORE.INTRA.VDW>
1.97928

>  <SCORE.INTRA.VDW.0>
-0.838383

>  <SCORE.INTRA.norm>
0.0759029

>  <SCORE.RESTR>
0

>  <SCORE.RESTR.CAVITY>
0

>  <SCORE.RESTR.norm>
0

>  <SCORE.SYSTEM>
0

>  <SCORE.SYSTEM.CONST>
0

>  <SCORE.SYSTEM.DIHEDRAL>
0

>  <SCORE.SYSTEM.SOLV>
0

>  <SCORE.SYSTEM.norm>
0

>  <SCORE.heavy>
35

>  <SCORE.norm>
-0.143536

>  <RMSD>
3.060

$$$$
2o3v_lig
 OpenBabel02141814113D
libRbt.so/2013.1/901 2013/11/27
 35 37  0  0  0  0  0  0  0  0999 V2000
    3.1058   -8.7501   46.1877 C   0  0  2  0  0  0  0  0  0  0  0  0
    2.6135   -8.5843   44.8229 O   0  0  0  0  0  0  0  0  0  0  0  0
    4.4081   -4.8794   43.4156 C   0  0  2  0  0  0  0  0  0  0  0  0
    4.8786   -3.7972   42.4993 N   0  0  0  0  0  0  0  0  0  0  0  0
   -6.1202   -9.3497   46.7280 C   0  0  2  0  0  0  0  0  0  0  0  0
   -6.8877  -10.4340   47.2942 O   0  0  0  0  0  0  0  0  0  0  0  0
    2.0399   -9.6881   46.8375 C   0  0  2  0  0  0  0  0  0  0  0  0
    1.9363  -10.9712   46.1030 N   0  0  0  0  0  0  0  0  0  0  0  0
    5.1402   -6.2464   43.0680 C   0  0  0  0  0  0  0  0  0  0  0  0
   -4.6245   -9.8153   46.6628 C   0  0  2  0  0  0  0  0  0  0  0  0
   -4.4883  -11.0596   45.8640 N   0  0  0  0  0  0  0  0  0  0  0  0
    0.6119   -8.9911   46.9042 C   0  0  1  0  0  0  0  0  0  0  0  0
   -0.3968   -9.9155   47.4843 O   0  0  0  0  0  0  0  0  0  0  0  0
    4.6139   -7.3823   44.0484 C   0  0  2  0  0  0  0  0  0  0  0  0
    5.2750   -8.6670   43.7340 N   0  0  0  0  0  0  0  0  0  0  0  0
   -4.0115  -10.0217   48.1176 C   0  0  1  0  0  0  0  0  0  0  0  0
   -2.6171  -10.4208   48.0875 O   0  0  0  0  0  0  0  0  0  0  0  0
    0.7845   -7.6274   47.7068 C   0  0  2  0  0  0  0  0  0  0  0  0
   -0.4392   -6.9201   47.7966 O   0  0  0  0  0  0  0  0  0  0  0  0
    3.0436   -7.5336   43.9058 C   0  0  2  0  0  0  0  0  0  0  0  0
   -4.1642   -8.6867   48.9134 C   0  0  2  0  0  0  0  0  0  0  0  0
   -3.6444   -8.8142   50.2222 O   0  0  0  0  0  0  0  0  0  0  0  0
    1.8784   -6.7195   47.0265 C   0  0  2  0  0  0  0  0  0  0  0  0
    3.1537   -7.4603   46.9300 O   0  0  0  0  0  0  0  0  0  0  0  0
    2.3360   -6.1908   44.2414 C   0  0  2  0  0  0  0  0  0  0  0  0
    0.9064   -6.3932   44.0509 O   0  0  0  0  0  0  0  0  0  0  0  0
   -5.6836   -8.2517   48.9510 C   0  0  2  0  0  0  0  0  0  0  0  0
   -6.2174   -8.1302   47.5751 O   0  0  0  0  0  0  0  0  0  0  0  0
    2.0905   -5.4186   47.7995 C   0  0  0  0  0  0  0  0  0  0  0  0
    2.9113   -4.5303   47.0813 O   0  0  0  0  0  0  0  0  0  0  0  0
    2.8478   -5.0820   43.2922 C   0  0  1  0  0  0  0  0  0  0  0  0
    2.1948   -3.8739   43.6212 O   0  0  0  0  0  0  0  0  0  0  0  0
   -5.8767   -6.9306   49.6800 C   0  0  0  0  0  0  0  0  0  0  0  0
   -5.5809   -7.0768   51.0479 O   0  0  0  0  0  0  0  0  0  0  0  0
   -1.8174   -9.4066   47.4116 C   0  0  0  0  0  0  0  0  0  0  0  0
  1  2  1  6  0  0  0
  1  7  1  0  0  0  0
  1 24  1  0  0  0  0
  3  4  1  6  0  0  0
  3  9  1  0  0  0  0
  3 31  1  0  0  0  0
  5  6  1  1  0  0  0
  5 10  1  0  0  0  0
  5 28  1  0  0  0  0
  7  8  1  6  0  0  0
  7 12  1  0  0  0  0
  9 14  1  0  0  0  0
 10 11  1  6  0  0  0
 10 16  1  0  0  0  0
 12 13  1  1  0  0  0
 12 18  1  0  0  0  0
 13 35  1  0  0  0  0
 14 15  1  6  0  0  0
 14 20  1  0  0  0  0
 16 17  1  6  0  0  0
 16 21  1  0  0  0  0
 17 35  1  0  0  0  0
 18 19  1  6  0  0  0
 18 23  1  0  0  0  0
 20  2  1  1  0  0  0
 20 25  1  0  0  0  0
 21 22  1  1  0  0  0
 21 27  1  0  0  0  0
 23 24  1  0  0  0  0
 23 29  1  1  0  0  0
 25 26  1  6  0  0  0
 25 31  1  0  0  0  0
 27 28  1  0  0  0  0
 27 33  1  6  0  0  0
 29 30  1  0  0  0  0
 31 32  1  1  0  0  0
 33 34  1  0  0  0  0
M  END
>  <CHROM.1>
163.09057451,-172.03998673,-177.17739540,59.72035625,178.31360151,42.10244518
-170.97720229,-67.16952986,-0.22067010,-7.82041238,46.47412142,-0.24582289
-0.45412415,-3.06698976

>  <Name>
2o3v_lig

>  <RI>
0

>  <Rbt.Current_Directory>
/home/afrankz/demos/rdock_decoys_rna/rnas/2o3v

>  <Rbt.Executable>
rbdock ($Id: //depot/dev/client3/rdock/2013.1/src/exe/rbdock.cxx#4 $)

>  <Rbt.Library>
libRbt.so (2013.1, Build901 2013/11/27)

>  <Rbt.Parameter_File>
/export/apps/rDock/src/rDock_2013.1_src/data/scripts/dock_solv.prm

>  <Rbt.Receptor>
prm/pocket_docking_3.prm

>  <SCORE>
-7.33217

>  <SCORE.INTER>
-2.93094

>  <SCORE.INTER.CONST>
1

>  <SCORE.INTER.POLAR>
-0.632439

>  <SCORE.INTER.ROT>
8

>  <SCORE.INTER.SOLV>
12.1265

>  <SCORE.INTER.VDW>
-12.8213

>  <SCORE.INTER.norm>
-0.0837411

>  <SCORE.INTRA>
-4.40123

>  <SCORE.INTRA.DIHEDRAL>
-9.45531

>  <SCORE.INTRA.DIHEDRAL.0>
13.1227

>  <SCORE.INTRA.POLAR>
0

>  <SCORE.INTRA.POLAR.0>
0

>  <SCORE.INTRA.REPUL>
0

>  <SCORE.INTRA.REPUL.0>
0

>  <SCORE.INTRA.SOLV>
0.762272

>  <SCORE.INTRA.SOLV.lig_0>
-89.1587

>  <SCORE.INTRA.VDW>
-0.0547142

>  <SCORE.INTRA.VDW.0>
-0.838383

>  <SCORE.INTRA.norm>
-0.12575

>  <SCORE.RESTR>
0

>  <SCORE.RESTR.CAVITY>
0

>  <SCORE.RESTR.norm>
0

>  <SCORE.SYSTEM>
0

>  <SCORE.SYSTEM.CONST>
0

>  <SCORE.SYSTEM.DIHEDRAL>
0

>  <SCORE.SYSTEM.SOLV>
0

>  <SCORE.SYSTEM.norm>
0

>  <SCORE.heavy>
35

>  <SCORE.norm>
-0.209491

>  <RMSD>
3.106

$$$$
2o3v_lig
 OpenBabel02141814113D
libRbt.so/2013.1/901 2013/11/27
 35 37  0  0  0  0  0  0  0  0999 V2000
    1.7300   -8.3501   45.1490 C   0  0  2  0  0  0  0  0  0  0  0  0
    2.7099   -7.2730   45.0382 O   0  0  0  0  0  0  0  0  0  0  0  0
    6.3179   -6.4087   42.7660 C   0  0  2  0  0  0  0  0  0  0  0  0
    7.2459   -6.2071   41.6126 N   0  0  0  0  0  0  0  0  0  0  0  0
   -7.4362   -6.0203   44.4800 C   0  0  2  0  0  0  0  0  0  0  0  0
   -7.5709   -7.4503   44.6303 O   0  0  0  0  0  0  0  0  0  0  0  0
    0.4840   -7.7735   44.4053 C   0  0  2  0  0  0  0  0  0  0  0  0
    0.8088   -7.4330   43.0000 N   0  0  0  0  0  0  0  0  0  0  0  0
    5.7817   -7.9046   42.7810 C   0  0  0  0  0  0  0  0  0  0  0  0
   -6.0867   -5.7507   43.7287 C   0  0  2  0  0  0  0  0  0  0  0  0
   -6.0596   -6.4454   42.4166 N   0  0  0  0  0  0  0  0  0  0  0  0
   -0.0977   -6.4925   45.1471 C   0  0  1  0  0  0  0  0  0  0  0  0
   -1.2544   -5.9334   44.4001 O   0  0  0  0  0  0  0  0  0  0  0  0
    4.7888   -8.0890   44.0092 C   0  0  2  0  0  0  0  0  0  0  0  0
    4.2687   -9.4729   44.0348 N   0  0  0  0  0  0  0  0  0  0  0  0
   -4.8310   -6.1801   44.6082 C   0  0  1  0  0  0  0  0  0  0  0  0
   -3.5665   -5.9107   43.9501 O   0  0  0  0  0  0  0  0  0  0  0  0
   -0.4328   -6.9199   46.6433 C   0  0  2  0  0  0  0  0  0  0  0  0
   -0.9371   -5.8295   47.3934 O   0  0  0  0  0  0  0  0  0  0  0  0
    3.5880   -7.0626   43.8916 C   0  0  2  0  0  0  0  0  0  0  0  0
   -4.8945   -5.4160   45.9686 C   0  0  2  0  0  0  0  0  0  0  0  0
   -3.8052   -5.7672   46.7989 O   0  0  0  0  0  0  0  0  0  0  0  0
    0.8465   -7.5093   47.3503 C   0  0  2  0  0  0  0  0  0  0  0  0
    1.3738   -8.6445   46.5644 O   0  0  0  0  0  0  0  0  0  0  0  0
    4.1216   -5.6027   43.8713 C   0  0  2  0  0  0  0  0  0  0  0  0
    2.9717   -4.7216   43.7218 O   0  0  0  0  0  0  0  0  0  0  0  0
   -6.2701   -5.7112   46.6897 C   0  0  2  0  0  0  0  0  0  0  0  0
   -7.4016   -5.3470   45.8066 O   0  0  0  0  0  0  0  0  0  0  0  0
    0.5425   -7.9622   48.7776 C   0  0  0  0  0  0  0  0  0  0  0  0
   -0.4469   -8.9621   48.7922 O   0  0  0  0  0  0  0  0  0  0  0  0
    5.0908   -5.4198   42.6800 C   0  0  1  0  0  0  0  0  0  0  0  0
    5.5645   -4.0896   42.6878 O   0  0  0  0  0  0  0  0  0  0  0  0
   -6.3962   -4.9519   48.0018 C   0  0  0  0  0  0  0  0  0  0  0  0
   -7.5987   -5.2887   48.6503 O   0  0  0  0  0  0  0  0  0  0  0  0
   -2.5177   -6.7546   44.5096 C   0  0  0  0  0  0  0  0  0  0  0  0
  1  2  1  1  0  0  0
  1  7  1  0  0  0  0
  1 24  1  0  0  0  0
  3  4  1  6  0  0  0
  3  9  1  0  0  0  0
  3 31  1  0  0  0  0
  5  6  1  1  0  0  0
  5 10  1  0  0  0  0
  5 28  1  0  0  0  0
  7  8  1  6  0  0  0
  7 12  1  0  0  0  0
  9 14  1  0  0  0  0
 10 11  1  6  0  0  0
 10 16  1  0  0  0  0
 12 13  1  6  0  0  0
 12 18  1  0  0  0  0
 13 35  1  0  0  0  0
 14 15  1  6  0  0  0
 14 20  1  0  0  0  0
 16 17  1  6  0  0  0
 16 21  1  0  0  0  0
 17 35  1  0  0  0  0
 18 19  1  1  0  0  0
 18 23  1  0  0  0  0
 20  2  1  1  0  0  0
 20 25  1  0  0  0  0
 21 22  1  1  0  0  0
 21 27  1  0  0  0  0
 23 24  1  0  0  0  0
 23 29  1  1  0  0  0
 25 26  1  6  0  0  0
 25 31  1  0  0  0  0
 27 28  1  0  0  0  0
 27 33  1  1  0  0  0
 29 30  1  0  0  0  0
 31 32  1  1  0  0  0
 33 34  1  0  0  0  0
M  END
>  <CHROM.1>
-84.50678312,73.46234381,168.88593084,-157.92784669,-148.54838931,-79.08445766
60.03340689,-176.98921970,-0.61688837,-6.58629483,45.03974415,-0.17086548
-0.14538672,1.93072459

>  <Name>
2o3v_lig

>  <RI>
0

>  <Rbt.Current_Directory>
/home/afrankz/demos/rdock_decoys_rna/rnas/2o3v

>  <Rbt.Executable>
rbdock ($Id: //depot/dev/client3/rdock/2013.1/src/exe/rbdock.cxx#4 $)

>  <Rbt.Library>
libRbt.so (2013.1, Build901 2013/11/27)

>  <Rbt.Parameter_File>
/export/apps/rDock/src/rDock_2013.1_src/data/scripts/dock_solv.prm

>  <Rbt.Receptor>
prm/pocket_docking_4.prm

>  <SCORE>
-7.43761

>  <SCORE.INTER>
-6.95781

>  <SCORE.INTER.CONST>
1

>  <SCORE.INTER.POLAR>
-0.824878

>  <SCORE.INTER.ROT>
8

>  <SCORE.INTER.SOLV>
21.0567

>  <SCORE.INTER.VDW>
-17.8412

>  <SCORE.INTER.norm>
-0.198795

>  <SCORE.INTRA>
-0.479805

>  <SCORE.INTRA.DIHEDRAL>
-1.34869

>  <SCORE.INTRA.DIHEDRAL.0>
13.1227

>  <SCORE.INTRA.POLAR>
0

>  <SCORE.INTRA.POLAR.0>
0

>  <SCORE.INTRA.REPUL>
0

>  <SCORE.INTRA.REPUL.0>
0

>  <SCORE.INTRA.SOLV>
2.53935

>  <SCORE.INTRA.SOLV.lig_0>
-89.1587

>  <SCORE.INTRA.VDW>
-1.07514

>  <SCORE.INTRA.VDW.0>
-0.838383

>  <SCORE.INTRA.norm>
-0.0137087

>  <SCORE.RESTR>
0

>  <SCORE.RESTR.CAVITY>
0

>  <SCORE.RESTR.norm>
0

>  <SCORE.SYSTEM>
0

>  <SCORE.SYSTEM.CONST>
0

>  <SCORE.SYSTEM.DIHEDRAL>
0

>  <SCORE.SYSTEM.SOLV>
0

>  <SCORE.SYSTEM.norm>
0

>  <SCORE.heavy>
35

>  <SCORE.norm>
-0.212503

>  <RMSD>
3.153

$$$$
2o3v_lig
 OpenBabel02141814113D
libRbt.so/2013.1/901 2013/11/27
 35 37  0  0  0  0  0  0  0  0999 V2000
    1.7805  -10.2113   47.5182 C   0  0  2  0  0  0  0  0  0  0  0  0
    2.0431   -9.7066   46.1731 O   0  0  0  0  0  0  0  0  0  0  0  0
    5.6154   -9.1137   43.7618 C   0  0  2  0  0  0  0  0  0  0  0  0
    6.9096   -8.5527   43.2694 N   0  0  0  0  0  0  0  0  0  0  0  0
   -6.1437   -6.1471   46.8118 C   0  0  2  0  0  0  0  0  0  0  0  0
   -5.1950   -5.3625   47.5666 O   0  0  0  0  0  0  0  0  0  0  0  0
    0.2212  -10.2706   47.5762 C   0  0  2  0  0  0  0  0  0  0  0  0
   -0.3214  -11.1511   46.5148 N   0  0  0  0  0  0  0  0  0  0  0  0
    4.4822   -8.0008   43.7092 C   0  0  0  0  0  0  0  0  0  0  0  0
   -5.7370   -7.6535   46.9653 C   0  0  2  0  0  0  0  0  0  0  0  0
   -5.7076   -8.0542   48.3948 N   0  0  0  0  0  0  0  0  0  0  0  0
   -0.4232   -8.8218   47.4532 C   0  0  1  0  0  0  0  0  0  0  0  0
   -1.9069   -8.9044   47.4659 O   0  0  0  0  0  0  0  0  0  0  0  0
    3.1202   -8.6193   44.2486 C   0  0  2  0  0  0  0  0  0  0  0  0
    2.0538   -7.5955   44.2189 N   0  0  0  0  0  0  0  0  0  0  0  0
   -4.3329   -7.9539   46.2774 C   0  0  1  0  0  0  0  0  0  0  0  0
   -3.9471   -9.3489   46.3755 O   0  0  0  0  0  0  0  0  0  0  0  0
    0.1901   -7.9272   48.6182 C   0  0  2  0  0  0  0  0  0  0  0  0
   -0.3104   -6.6031   48.5733 O   0  0  0  0  0  0  0  0  0  0  0  0
    3.3172   -9.1516   45.7275 C   0  0  2  0  0  0  0  0  0  0  0  0
   -4.4160   -7.5307   44.7766 C   0  0  2  0  0  0  0  0  0  0  0  0
   -3.1888   -7.7656   44.1147 O   0  0  0  0  0  0  0  0  0  0  0  0
    1.7635   -7.9075   48.5309 C   0  0  2  0  0  0  0  0  0  0  0  0
    2.2841   -9.2902   48.5739 O   0  0  0  0  0  0  0  0  0  0  0  0
    4.4312  -10.2348   45.7708 C   0  0  2  0  0  0  0  0  0  0  0  0
    4.5838  -10.6462   47.1595 O   0  0  0  0  0  0  0  0  0  0  0  0
   -4.8325   -6.0095   44.6671 C   0  0  2  0  0  0  0  0  0  0  0  0
   -6.1141   -5.7758   45.3711 O   0  0  0  0  0  0  0  0  0  0  0  0
    2.3798   -7.0850   49.6616 C   0  0  0  0  0  0  0  0  0  0  0  0
    1.8959   -5.7642   49.6495 O   0  0  0  0  0  0  0  0  0  0  0  0
    5.7573   -9.6383   45.2436 C   0  0  1  0  0  0  0  0  0  0  0  0
    6.7493  -10.6423   45.2881 O   0  0  0  0  0  0  0  0  0  0  0  0
   -4.9692   -5.5624   43.2195 C   0  0  0  0  0  0  0  0  0  0  0  0
   -3.7234   -5.6207   42.5679 O   0  0  0  0  0  0  0  0  0  0  0  0
   -2.5056   -9.4858   46.2066 C   0  0  0  0  0  0  0  0  0  0  0  0
  1  2  1  6  0  0  0
  1  7  1  0  0  0  0
  1 24  1  0  0  0  0
  3  4  1  1  0  0  0
  3  9  1  0  0  0  0
  3 31  1  0  0  0  0
  5  6  1  1  0  0  0
  5 10  1  0  0  0  0
  5 28  1  0  0  0  0
  7  8  1  6  0  0  0
  7 12  1  0  0  0  0
  9 14  1  0  0  0  0
 10 11  1  1  0  0  0
 10 16  1  0  0  0  0
 12 13  1  1  0  0  0
 12 18  1  0  0  0  0
 13 35  1  0  0  0  0
 14 15  1  1  0  0  0
 14 20  1  0  0  0  0
 16 17  1  6  0  0  0
 16 21  1  0  0  0  0
 17 35  1  0  0  0  0
 18 19  1  6  0  0  0
 18 23  1  0  0  0  0
 20  2  1  6  0  0  0
 20 25  1  0  0  0  0
 21 22  1  1  0  0  0
 21 27  1  0  0  0  0
 23 24  1  0  0  0  0
 23 29  1  1  0  0  0
 25 26  1  1  0  0  0
 25 31  1  0  0  0  0
 27 28  1  0  0  0  0
 27 33  1  6  0  0  0
 29 30  1  0  0  0  0
 31 32  1  6  0  0  0
 33 34  1  0  0  0  0
M  END
>  <CHROM.1>
163.70634452,-71.53257395,-174.42439159,-158.68140197,70.81445752,-175.28976139
-57.65349367,-64.75246752,-0.14558738,-8.21085271,46.24456029,0.01654335
-0.25679747,1.71950027

>  <Name>
2o3v_lig

>  <RI>
0

>  <Rbt.Current_Directory>
/home/afrankz/demos/rdock_decoys_rna/rnas/2o3v

>  <Rbt.Executable>
rbdock ($Id: //depot/dev/client3/rdock/2013.1/src/exe/rbdock.cxx#4 $)

>  <Rbt.Library>
libRbt.so (2013.1, Build901 2013/11/27)

>  <Rbt.Parameter_File>
/export/apps/rDock/src/rDock_2013.1_src/data/scripts/dock_solv.prm

>  <Rbt.Receptor>
prm/pocket_docking_4.prm

>  <SCORE>
-8.14774

>  <SCORE.INTER>
-4.32003

>  <SCORE.INTER.CONST>
1

>  <SCORE.INTER.POLAR>
0

>  <SCORE.INTER.ROT>
8

>  <SCORE.INTER.SOLV>
10.5368

>  <SCORE.INTER.VDW>
-15.3256

>  <SCORE.INTER.norm>
-0.12343

>  <SCORE.INTRA>
-3.82771

>  <SCORE.INTRA.DIHEDRAL>
-8.26953

>  <SCORE.INTRA.DIHEDRAL.0>
13.1227

>  <SCORE.INTRA.POLAR>
0

>  <SCORE.INTRA.POLAR.0>
0

>  <SCORE.INTRA.REPUL>
0

>  <SCORE.INTRA.REPUL.0>
0

>  <SCORE.INTRA.SOLV>
0.543553

>  <SCORE.INTRA.SOLV.lig_0>
-89.1587

>  <SCORE.INTRA.VDW>
0.0352822

>  <SCORE.INTRA.VDW.0>
-0.838383

>  <SCORE.INTRA.norm>
-0.109363

>  <SCORE.RESTR>
0

>  <SCORE.RESTR.CAVITY>
0

>  <SCORE.RESTR.norm>
0

>  <SCORE.SYSTEM>
0

>  <SCORE.SYSTEM.CONST>
0

>  <SCORE.SYSTEM.DIHEDRAL>
0

>  <SCORE.SYSTEM.SOLV>
0

>  <SCORE.SYSTEM.norm>
0

>  <SCORE.heavy>
35

>  <SCORE.norm>
-0.232793

>  <RMSD>
3.158

$$$$
2o3v_lig
 OpenBabel02141814113D
libRbt.so/2013.1/901 2013/11/27
 35 37  0  0  0  0  0  0  0  0999 V2000
    0.8197   -8.2119   44.3255 C   0  0  2  0  0  0  0  0  0  0  0  0
    1.7258   -7.0753   44.4659 O   0  0  0  0  0  0  0  0  0  0  0  0
    5.8924   -6.1941   43.5768 C   0  0  2  0  0  0  0  0  0  0  0  0
    7.1672   -6.0151   42.8184 N   0  0  0  0  0  0  0  0  0  0  0  0
   -8.0095   -7.6734   47.0061 C   0  0  2  0  0  0  0  0  0  0  0  0
   -8.0258   -8.5317   45.8448 O   0  0  0  0  0  0  0  0  0  0  0  0
   -0.5658   -7.6118   44.7237 C   0  0  2  0  0  0  0  0  0  0  0  0
   -0.9291   -6.4741   43.8463 N   0  0  0  0  0  0  0  0  0  0  0  0
    5.4098   -7.7054   43.4854 C   0  0  0  0  0  0  0  0  0  0  0  0
   -6.7613   -6.7331   46.8792 C   0  0  2  0  0  0  0  0  0  0  0  0
   -6.8103   -5.9499   45.6186 N   0  0  0  0  0  0  0  0  0  0  0  0
   -0.5846   -7.1446   46.2438 C   0  0  1  0  0  0  0  0  0  0  0  0
   -1.8957   -6.5366   46.5899 O   0  0  0  0  0  0  0  0  0  0  0  0
    4.0475   -7.8660   44.2896 C   0  0  2  0  0  0  0  0  0  0  0  0
    3.5743   -9.2645   44.2075 N   0  0  0  0  0  0  0  0  0  0  0  0
   -5.3993   -7.5527   46.9689 C   0  0  1  0  0  0  0  0  0  0  0  0
   -4.2265   -6.7027   46.8878 O   0  0  0  0  0  0  0  0  0  0  0  0
   -0.1948   -8.4050   47.1344 C   0  0  2  0  0  0  0  0  0  0  0  0
   -0.1614   -8.0764   48.5116 O   0  0  0  0  0  0  0  0  0  0  0  0
    2.9514   -6.8889   43.6955 C   0  0  2  0  0  0  0  0  0  0  0  0
   -5.3869   -8.3471   48.3134 C   0  0  2  0  0  0  0  0  0  0  0  0
   -4.2004   -9.1053   48.4435 O   0  0  0  0  0  0  0  0  0  0  0  0
    1.2005   -8.9869   46.6893 C   0  0  2  0  0  0  0  0  0  0  0  0
    1.1653   -9.3257   45.2511 O   0  0  0  0  0  0  0  0  0  0  0  0
    3.4340   -5.4139   43.7832 C   0  0  2  0  0  0  0  0  0  0  0  0
    2.3991   -4.5815   43.1857 O   0  0  0  0  0  0  0  0  0  0  0  0
   -6.6620   -9.2773   48.4025 C   0  0  2  0  0  0  0  0  0  0  0  0
   -7.8963   -8.4723   48.2563 O   0  0  0  0  0  0  0  0  0  0  0  0
    1.5815  -10.2217   47.5048 C   0  0  0  0  0  0  0  0  0  0  0  0
    2.8998  -10.6260   47.2265 O   0  0  0  0  0  0  0  0  0  0  0  0
    4.7610   -5.2539   43.0050 C   0  0  1  0  0  0  0  0  0  0  0  0
    5.1799   -3.9090   43.1049 O   0  0  0  0  0  0  0  0  0  0  0  0
   -6.7160  -10.0401   49.7175 C   0  0  0  0  0  0  0  0  0  0  0  0
   -6.7949   -9.1458   50.8010 O   0  0  0  0  0  0  0  0  0  0  0  0
   -3.0680   -7.4816   46.4678 C   0  0  0  0  0  0  0  0  0  0  0  0
  1  2  1  1  0  0  0
  1  7  1  0  0  0  0
  1 24  1  0  0  0  0
  3  4  1  6  0  0  0
  3  9  1  0  0  0  0
  3 31  1  0  0  0  0
  5  6  1  6  0  0  0
  5 10  1  0  0  0  0
  5 28  1  0  0  0  0
  7  8  1  6  0  0  0
  7 12  1  0  0  0  0
  9 14  1  0  0  0  0
 10 11  1  6  0  0  0
 10 16  1  0  0  0  0
 12 13  1  1  0  0  0
 12 18  1  0  0  0  0
 13 35  1  0  0  0  0
 14 15  1  6  0  0  0
 14 20  1  0  0  0  0
 16 17  1  1  0  0  0
 16 21  1  0  0  0  0
 17 35  1  0  0  0  0
 18 19  1  1  0  0  0
 18 23  1  0  0  0  0
 20  2  1  1  0  0  0
 20 25  1  0  0  0  0
 21 22  1  6  0  0  0
 21 27  1  0  0  0  0
 23 24  1  0  0  0  0
 23 29  1  1  0  0  0
 25 26  1  6  0  0  0
 25 31  1  0  0  0  0
 27 28  1  0  0  0  0
 27 33  1  1  0  0  0
 29 30  1  0  0  0  0
 31 32  1  1  0  0  0
 33 34  1  0  0  0  0
M  END
>  <CHROM.1>
-151.18032999,62.29805419,178.28890110,-158.47086895,-173.10201207,-76.10375978
-172.10356630,61.47855332,-0.90219386,-7.63105329,45.95966051,-0.34078405
-0.18316787,2.41985357

>  <Name>
2o3v_lig

>  <RI>
0

>  <Rbt.Current_Directory>
/home/afrankz/demos/rdock_decoys_rna/rnas/2o3v

>  <Rbt.Executable>
rbdock ($Id: //depot/dev/client3/rdock/2013.1/src/exe/rbdock.cxx#4 $)

>  <Rbt.Library>
libRbt.so (2013.1, Build901 2013/11/27)

>  <Rbt.Parameter_File>
/export/apps/rDock/src/rDock_2013.1_src/data/scripts/dock_solv.prm

>  <Rbt.Receptor>
prm/pocket_docking_3.prm

>  <SCORE>
-5.71288

>  <SCORE.INTER>
-3.13156

>  <SCORE.INTER.CONST>
1

>  <SCORE.INTER.POLAR>
-0.650419

>  <SCORE.INTER.ROT>
8

>  <SCORE.INTER.SOLV>
11.0268

>  <SCORE.INTER.VDW>
-12.5286

>  <SCORE.INTER.norm>
-0.0894731

>  <SCORE.INTRA>
-2.58209

>  <SCORE.INTRA.DIHEDRAL>
-5.94187

>  <SCORE.INTRA.DIHEDRAL.0>
13.1227

>  <SCORE.INTRA.POLAR>
0

>  <SCORE.INTRA.POLAR.0>
0

>  <SCORE.INTRA.REPUL>
0

>  <SCORE.INTRA.REPUL.0>
0

>  <SCORE.INTRA.SOLV>
2.69193

>  <SCORE.INTRA.SOLV.lig_0>
-89.1587

>  <SCORE.INTRA.VDW>
-0.957118

>  <SCORE.INTRA.VDW.0>
-0.838383

>  <SCORE.INTRA.norm>
-0.0737739

>  <SCORE.RESTR>
0.000767725

>  <SCORE.RESTR.CAVITY>
0.000767725

>  <SCORE.RESTR.norm>
2.1935e-05

>  <SCORE.SYSTEM>
0

>  <SCORE.SYSTEM.CONST>
0

>  <SCORE.SYSTEM.DIHEDRAL>
0

>  <SCORE.SYSTEM.SOLV>
0

>  <SCORE.SYSTEM.norm>
0

>  <SCORE.heavy>
35

>  <SCORE.norm>
-0.163225

>  <RMSD>
3.196

$$$$
2o3v_lig
 OpenBabel02141814113D
libRbt.so/2013.1/901 2013/11/27
 35 37  0  0  0  0  0  0  0  0999 V2000
    2.4845   -8.5010   44.0322 C   0  0  2  0  0  0  0  0  0  0  0  0
    3.3356   -7.3330   44.2420 O   0  0  0  0  0  0  0  0  0  0  0  0
    7.4842   -6.4303   43.2925 C   0  0  2  0  0  0  0  0  0  0  0  0
    8.9773   -6.4288   43.3474 N   0  0  0  0  0  0  0  0  0  0  0  0
   -5.9368   -9.0653   48.0365 C   0  0  2  0  0  0  0  0  0  0  0  0
   -6.0243   -9.9910   46.9316 O   0  0  0  0  0  0  0  0  0  0  0  0
    1.1074   -8.0442   44.6096 C   0  0  2  0  0  0  0  0  0  0  0  0
    0.6083   -6.8355   43.9123 N   0  0  0  0  0  0  0  0  0  0  0  0
    6.8869   -5.8668   44.6530 C   0  0  0  0  0  0  0  0  0  0  0  0
   -4.8463   -7.9992   47.6725 C   0  0  2  0  0  0  0  0  0  0  0  0
   -5.1810   -7.3073   46.4020 N   0  0  0  0  0  0  0  0  0  0  0  0
    1.1935   -7.7649   46.1730 C   0  0  1  0  0  0  0  0  0  0  0  0
   -0.1144   -7.2892   46.6940 O   0  0  0  0  0  0  0  0  0  0  0  0
    5.2989   -5.8900   44.5730 C   0  0  2  0  0  0  0  0  0  0  0  0
    4.7221   -5.3796   45.8352 N   0  0  0  0  0  0  0  0  0  0  0  0
   -3.3969   -8.6517   47.5821 C   0  0  1  0  0  0  0  0  0  0  0  0
   -2.3623   -7.6808   47.2791 O   0  0  0  0  0  0  0  0  0  0  0  0
    1.7268   -9.0950   46.8658 C   0  0  2  0  0  0  0  0  0  0  0  0
    1.8601   -8.9324   48.2664 O   0  0  0  0  0  0  0  0  0  0  0  0
    4.7933   -7.3673   44.3063 C   0  0  2  0  0  0  0  0  0  0  0  0
   -3.0839   -9.3535   48.9415 C   0  0  2  0  0  0  0  0  0  0  0  0
   -1.8080   -9.9626   48.9160 O   0  0  0  0  0  0  0  0  0  0  0  0
    3.1086   -9.5275   46.2436 C   0  0  2  0  0  0  0  0  0  0  0  0
    2.9687   -9.6930   44.7815 O   0  0  0  0  0  0  0  0  0  0  0  0
    5.3871   -7.9127   42.9773 C   0  0  2  0  0  0  0  0  0  0  0  0
    4.9140   -9.2810   42.8190 O   0  0  0  0  0  0  0  0  0  0  0  0
   -4.2079  -10.4150   49.2721 C   0  0  2  0  0  0  0  0  0  0  0  0
   -5.5388   -9.7661   49.2874 O   0  0  0  0  0  0  0  0  0  0  0  0
    3.6252  -10.8238   46.8661 C   0  0  0  0  0  0  0  0  0  0  0  0
    2.7603  -11.8984   46.5901 O   0  0  0  0  0  0  0  0  0  0  0  0
    6.9319   -7.8886   43.0495 C   0  0  1  0  0  0  0  0  0  0  0  0
    7.4453   -8.3828   41.8303 O   0  0  0  0  0  0  0  0  0  0  0  0
   -3.9685  -11.0950   50.6117 C   0  0  0  0  0  0  0  0  0  0  0  0
   -2.8129  -11.8960   50.5562 O   0  0  0  0  0  0  0  0  0  0  0  0
   -1.1901   -8.3494   46.7276 C   0  0  0  0  0  0  0  0  0  0  0  0
  1  2  1  1  0  0  0
  1  7  1  0  0  0  0
  1 24  1  0  0  0  0
  3  4  1  1  0  0  0
  3  9  1  0  0  0  0
  3 31  1  0  0  0  0
  5  6  1  6  0  0  0
  5 10  1  0  0  0  0
  5 28  1  0  0  0  0
  7  8  1  6  0  0  0
  7 12  1  0  0  0  0
  9 14  1  0  0  0  0
 10 11  1  6  0  0  0
 10 16  1  0  0  0  0
 12 13  1  1  0  0  0
 12 18  1  0  0  0  0
 13 35  1  0  0  0  0
 14 15  1  1  0  0  0
 14 20  1  0  0  0  0
 16 17  1  1  0  0  0
 16 21  1  0  0  0  0
 17 35  1  0  0  0  0
 18 19  1  1  0  0  0
 18 23  1  0  0  0  0
 20  2  1  6  0  0  0
 20 25  1  0  0  0  0
 21 22  1  6  0  0  0
 21 27  1  0  0  0  0
 23 24  1  0  0  0  0
 23 29  1  1  0  0  0
 25 26  1  1  0  0  0
 25 31  1  0  0  0  0
 27 28  1  0  0  0  0
 27 33  1  1  0  0  0
 29 30  1  0  0  0  0
 31 32  1  6  0  0  0
 33 34  1  0  0  0  0
M  END
>  <CHROM.1>
157.98711196,70.50601239,179.30160954,-158.99063482,-169.97275137,-178.92903414
63.66548052,-66.99808874,1.02483457,-8.56432116,46.14674236,0.41015744,0.23942426
-0.65927833

>  <Name>
2o3v_lig

>  <RI>
0

>  <Rbt.Current_Directory>
/home/afrankz/demos/rdock_decoys_rna/rnas/2o3v

>  <Rbt.Executable>
rbdock ($Id: //depot/dev/client3/rdock/2013.1/src/exe/rbdock.cxx#4 $)

>  <Rbt.Library>
libRbt.so (2013.1, Build901 2013/11/27)

>  <Rbt.Parameter_File>
/export/apps/rDock/src/rDock_2013.1_src/data/scripts/dock_solv.prm

>  <Rbt.Receptor>
prm/pocket_docking_6.prm

>  <SCORE>
-9.28206

>  <SCORE.INTER>
-4.57541

>  <SCORE.INTER.CONST>
1

>  <SCORE.INTER.POLAR>
0

>  <SCORE.INTER.ROT>
8

>  <SCORE.INTER.SOLV>
13.4259

>  <SCORE.INTER.VDW>
-16.4589

>  <SCORE.INTER.norm>
-0.130726

>  <SCORE.INTRA>
-4.70666

>  <SCORE.INTRA.DIHEDRAL>
-7.7345

>  <SCORE.INTRA.DIHEDRAL.0>
13.1227

>  <SCORE.INTRA.POLAR>
0

>  <SCORE.INTRA.POLAR.0>
0

>  <SCORE.INTRA.REPUL>
0

>  <SCORE.INTRA.REPUL.0>
0

>  <SCORE.INTRA.SOLV>
-0.400392

>  <SCORE.INTRA.SOLV.lig_0>
-89.1587

>  <SCORE.INTRA.VDW>
-0.639212

>  <SCORE.INTRA.VDW.0>
-0.838383

>  <SCORE.INTRA.norm>
-0.134476

>  <SCORE.RESTR>
0

>  <SCORE.RESTR.CAVITY>
0

>  <SCORE.RESTR.norm>
0

>  <SCORE.SYSTEM>
0

>  <SCORE.SYSTEM.CONST>
0

>  <SCORE.SYSTEM.DIHEDRAL>
0

>  <SCORE.SYSTEM.SOLV>
0

>  <SCORE.SYSTEM.norm>
0

>  <SCORE.heavy>
35

>  <SCORE.norm>
-0.265202

>  <RMSD>
3.211

$$$$
2o3v_lig
 OpenBabel02141814113D
libRbt.so/2013.1/901 2013/11/27
 35 37  0  0  0  0  0  0  0  0999 V2000
    2.3984   -8.4607   44.0232 C   0  0  2  0  0  0  0  0  0  0  0  0
    3.2711   -7.2951   44.1347 O   0  0  0  0  0  0  0  0  0  0  0  0
    7.4541   -6.4833   43.2567 C   0  0  2  0  0  0  0  0  0  0  0  0
    8.9454   -6.5055   43.3443 N   0  0  0  0  0  0  0  0  0  0  0  0
   -4.8387   -5.5227   42.6775 C   0  0  2  0  0  0  0  0  0  0  0  0
   -4.4373   -6.8928   42.4603 O   0  0  0  0  0  0  0  0  0  0  0  0
    0.9680   -7.8343   44.0308 C   0  0  2  0  0  0  0  0  0  0  0  0
    0.7961   -6.8774   42.9123 N   0  0  0  0  0  0  0  0  0  0  0  0
    6.8373   -5.8795   44.5910 C   0  0  0  0  0  0  0  0  0  0  0  0
   -3.5813   -4.7394   43.1910 C   0  0  2  0  0  0  0  0  0  0  0  0
   -2.4609   -4.8359   42.2213 N   0  0  0  0  0  0  0  0  0  0  0  0
    0.6557   -7.1084   45.4110 C   0  0  1  0  0  0  0  0  0  0  0  0
   -0.6914   -6.4816   45.3815 O   0  0  0  0  0  0  0  0  0  0  0  0
    5.2513   -5.8780   44.4767 C   0  0  2  0  0  0  0  0  0  0  0  0
    4.6562   -5.3299   45.7144 N   0  0  0  0  0  0  0  0  0  0  0  0
   -3.1176   -5.2521   44.6252 C   0  0  1  0  0  0  0  0  0  0  0  0
   -1.9749   -4.5213   45.1399 O   0  0  0  0  0  0  0  0  0  0  0  0
    0.8497   -8.1831   46.5690 C   0  0  2  0  0  0  0  0  0  0  0  0
    0.6153   -7.6174   47.8460 O   0  0  0  0  0  0  0  0  0  0  0  0
    4.7262   -7.3522   44.2316 C   0  0  2  0  0  0  0  0  0  0  0  0
   -4.3207   -5.1188   45.6117 C   0  0  2  0  0  0  0  0  0  0  0  0
   -3.9691   -5.5714   46.9044 O   0  0  0  0  0  0  0  0  0  0  0  0
    2.2991   -8.7996   46.5149 C   0  0  2  0  0  0  0  0  0  0  0  0
    2.5436   -9.3861   45.1805 O   0  0  0  0  0  0  0  0  0  0  0  0
    5.3391   -7.9372   42.9284 C   0  0  2  0  0  0  0  0  0  0  0  0
    4.8461   -9.3006   42.7899 O   0  0  0  0  0  0  0  0  0  0  0  0
   -5.5661   -5.9178   45.0550 C   0  0  2  0  0  0  0  0  0  0  0  0
   -5.9182   -5.4401   43.6983 O   0  0  0  0  0  0  0  0  0  0  0  0
    2.4994   -9.8625   47.5942 C   0  0  0  0  0  0  0  0  0  0  0  0
    3.8042  -10.3866   47.5535 O   0  0  0  0  0  0  0  0  0  0  0  0
    6.8821   -7.9373   43.0338 C   0  0  1  0  0  0  0  0  0  0  0  0
    7.4131   -8.4672   41.8374 O   0  0  0  0  0  0  0  0  0  0  0  0
   -6.7789   -5.7809   45.9629 C   0  0  0  0  0  0  0  0  0  0  0  0
   -6.5131   -6.3426   47.2254 O   0  0  0  0  0  0  0  0  0  0  0  0
   -0.7354   -5.1407   44.6871 C   0  0  0  0  0  0  0  0  0  0  0  0
  1  2  1  1  0  0  0
  1  7  1  0  0  0  0
  1 24  1  0  0  0  0
  3  4  1  1  0  0  0
  3  9  1  0  0  0  0
  3 31  1  0  0  0  0
  5  6  1  1  0  0  0
  5 10  1  0  0  0  0
  5 28  1  0  0  0  0
  7  8  1  6  0  0  0
  7 12  1  0  0  0  0
  9 14  1  0  0  0  0
 10 11  1  6  0  0  0
 10 16  1  0  0  0  0
 12 13  1  6  0  0  0
 12 18  1  0  0  0  0
 13 35  1  0  0  0  0
 14 15  1  1  0  0  0
 14 20  1  0  0  0  0
 16 17  1  1  0  0  0
 16 21  1  0  0  0  0
 17 35  1  0  0  0  0
 18 19  1  1  0  0  0
 18 23  1  0  0  0  0
 20  2  1  6  0  0  0
 20 25  1  0  0  0  0
 21 22  1  1  0  0  0
 21 27  1  0  0  0  0
 23 24  1  0  0  0  0
 23 29  1  1  0  0  0
 25 26  1  1  0  0  0
 25 31  1  0  0  0  0
 27 28  1  0  0  0  0
 27 33  1  1  0  0  0
 29 30  1  0  0  0  0
 31 32  1  6  0  0  0
 33 34  1  0  0  0  0
M  END
>  <CHROM.1>
177.08713887,-81.04743211,-161.94330117,-88.08309358,-67.24098203,-174.55371258
-178.83484076,-63.13645743,0.75501887,-6.89171856,44.67752029,0.02238419
-0.20319524,2.09797295

>  <Name>
2o3v_lig

>  <RI>
0

>  <Rbt.Current_Directory>
/home/afrankz/demos/rdock_decoys_rna/rnas/2o3v

>  <Rbt.Executable>
rbdock ($Id: //depot/dev/client3/rdock/2013.1/src/exe/rbdock.cxx#4 $)

>  <Rbt.Library>
libRbt.so (2013.1, Build901 2013/11/27)

>  <Rbt.Parameter_File>
/export/apps/rDock/src/rDock_2013.1_src/data/scripts/dock_solv.prm

>  <Rbt.Receptor>
prm/pocket_docking_6.prm

>  <SCORE>
-12.047

>  <SCORE.INTER>
-8.1061

>  <SCORE.INTER.CONST>
1

>  <SCORE.INTER.POLAR>
-0.62447

>  <SCORE.INTER.ROT>
8

>  <SCORE.INTER.SOLV>
17.818

>  <SCORE.INTER.VDW>
-18.1952

>  <SCORE.INTER.norm>
-0.231603

>  <SCORE.INTRA>
-3.94088

>  <SCORE.INTRA.DIHEDRAL>
-5.89145

>  <SCORE.INTRA.DIHEDRAL.0>
13.1227

>  <SCORE.INTRA.POLAR>
0

>  <SCORE.INTRA.POLAR.0>
0

>  <SCORE.INTRA.REPUL>
0.011451

>  <SCORE.INTRA.REPUL.0>
0

>  <SCORE.INTRA.SOLV>
0.964267

>  <SCORE.INTRA.SOLV.lig_0>
-89.1587

>  <SCORE.INTRA.VDW>
-1.53454

>  <SCORE.INTRA.VDW.0>
-0.838383

>  <SCORE.INTRA.norm>
-0.112597

>  <SCORE.RESTR>
0

>  <SCORE.RESTR.CAVITY>
0

>  <SCORE.RESTR.norm>
0

>  <SCORE.SYSTEM>
0

>  <SCORE.SYSTEM.CONST>
0

>  <SCORE.SYSTEM.DIHEDRAL>
0

>  <SCORE.SYSTEM.SOLV>
0

>  <SCORE.SYSTEM.norm>
0

>  <SCORE.heavy>
35

>  <SCORE.norm>
-0.344199

>  <RMSD>
3.213

$$$$
2o3v_lig
 OpenBabel02141814113D
libRbt.so/2013.1/901 2013/11/27
 35 37  0  0  0  0  0  0  0  0999 V2000
    2.9369   -8.1031   46.6758 C   0  0  2  0  0  0  0  0  0  0  0  0
    2.5023   -7.4473   45.4455 O   0  0  0  0  0  0  0  0  0  0  0  0
    4.0659   -4.2575   42.9339 C   0  0  2  0  0  0  0  0  0  0  0  0
    4.4748   -2.8976   42.4696 N   0  0  0  0  0  0  0  0  0  0  0  0
   -5.5654  -10.2227   44.3261 C   0  0  2  0  0  0  0  0  0  0  0  0
   -6.2094  -10.1222   45.6148 O   0  0  0  0  0  0  0  0  0  0  0  0
    2.1189   -9.4332   46.6763 C   0  0  2  0  0  0  0  0  0  0  0  0
    2.4026  -10.2372   45.4641 N   0  0  0  0  0  0  0  0  0  0  0  0
    2.5024   -4.2914   43.2161 C   0  0  0  0  0  0  0  0  0  0  0  0
   -4.0388  -10.4736   44.5808 C   0  0  2  0  0  0  0  0  0  0  0  0
   -3.8287  -11.6967   45.3962 N   0  0  0  0  0  0  0  0  0  0  0  0
    0.5562   -9.1576   46.7839 C   0  0  1  0  0  0  0  0  0  0  0  0
   -0.2061  -10.4324   46.7380 O   0  0  0  0  0  0  0  0  0  0  0  0
    2.0959   -5.7440   43.7192 C   0  0  2  0  0  0  0  0  0  0  0  0
    0.6448   -5.7940   43.9990 N   0  0  0  0  0  0  0  0  0  0  0  0
   -3.3474   -9.2193   45.2763 C   0  0  1  0  0  0  0  0  0  0  0  0
   -1.9259   -9.4112   45.4937 O   0  0  0  0  0  0  0  0  0  0  0  0
    0.3135   -8.2998   48.1026 C   0  0  2  0  0  0  0  0  0  0  0  0
   -1.0566   -7.9828   48.2701 O   0  0  0  0  0  0  0  0  0  0  0  0
    2.9112   -6.1102   45.0270 C   0  0  2  0  0  0  0  0  0  0  0  0
   -3.5820   -7.9634   44.3784 C   0  0  2  0  0  0  0  0  0  0  0  0
   -2.9966   -6.8120   44.9539 O   0  0  0  0  0  0  0  0  0  0  0  0
    1.1683   -6.9762   48.0670 C   0  0  2  0  0  0  0  0  0  0  0  0
    2.5973   -7.3085   47.8882 O   0  0  0  0  0  0  0  0  0  0  0  0
    4.4391   -6.0686   44.7437 C   0  0  2  0  0  0  0  0  0  0  0  0
    5.1214   -6.3744   45.9935 O   0  0  0  0  0  0  0  0  0  0  0  0
   -5.1307   -7.7498   44.1432 C   0  0  2  0  0  0  0  0  0  0  0  0
   -5.7324   -8.9651   43.5485 O   0  0  0  0  0  0  0  0  0  0  0  0
    0.9820   -6.1514   49.3397 C   0  0  0  0  0  0  0  0  0  0  0  0
    1.3542   -6.8870   50.4795 O   0  0  0  0  0  0  0  0  0  0  0  0
    4.8383   -4.6581   44.2507 C   0  0  1  0  0  0  0  0  0  0  0  0
    6.2272   -4.6488   43.9957 O   0  0  0  0  0  0  0  0  0  0  0  0
   -5.4071   -6.5605   43.2360 C   0  0  0  0  0  0  0  0  0  0  0  0
   -4.8900   -6.7944   41.9484 O   0  0  0  0  0  0  0  0  0  0  0  0
   -1.7045  -10.2555   46.6613 C   0  0  0  0  0  0  0  0  0  0  0  0
  1  2  1  6  0  0  0
  1  7  1  0  0  0  0
  1 24  1  0  0  0  0
  3  4  1  1  0  0  0
  3  9  1  0  0  0  0
  3 31  1  0  0  0  0
  5  6  1  1  0  0  0
  5 10  1  0  0  0  0
  5 28  1  0  0  0  0
  7  8  1  6  0  0  0
  7 12  1  0  0  0  0
  9 14  1  0  0  0  0
 10 11  1  1  0  0  0
 10 16  1  0  0  0  0
 12 13  1  1  0  0  0
 12 18  1  0  0  0  0
 13 35  1  0  0  0  0
 14 15  1  1  0  0  0
 14 20  1  0  0  0  0
 16 17  1  6  0  0  0
 16 21  1  0  0  0  0
 17 35  1  0  0  0  0
 18 19  1  6  0  0  0
 18 23  1  0  0  0  0
 20  2  1  6  0  0  0
 20 25  1  0  0  0  0
 21 22  1  1  0  0  0
 21 27  1  0  0  0  0
 23 24  1  0  0  0  0
 23 29  1  1  0  0  0
 25 26  1  1  0  0  0
 25 31  1  0  0  0  0
 27 28  1  0  0  0  0
 27 33  1  6  0  0  0
 29 30  1  0  0  0  0
 31 32  1  6  0  0  0
 33 34  1  0  0  0  0
M  END
>  <CHROM.1>
175.46635650,-172.78690305,55.38617585,-78.39538378,177.31389760,-174.40576004
58.99616818,64.36181143,-0.06680683,-7.59312463,45.44832611,-0.18691530,0.35298562
2.18721702

>  <Name>
2o3v_lig

>  <RI>
0

>  <Rbt.Current_Directory>
/home/afrankz/demos/rdock_decoys_rna/rnas/2o3v

>  <Rbt.Executable>
rbdock ($Id: //depot/dev/client3/rdock/2013.1/src/exe/rbdock.cxx#4 $)

>  <Rbt.Library>
libRbt.so (2013.1, Build901 2013/11/27)

>  <Rbt.Parameter_File>
/export/apps/rDock/src/rDock_2013.1_src/data/scripts/dock_solv.prm

>  <Rbt.Receptor>
prm/pocket_docking_7.prm

>  <SCORE>
-11.2341

>  <SCORE.INTER>
-4.89322

>  <SCORE.INTER.CONST>
1

>  <SCORE.INTER.POLAR>
-0.767262

>  <SCORE.INTER.ROT>
8

>  <SCORE.INTER.SOLV>
14.0259

>  <SCORE.INTER.VDW>
-14.3133

>  <SCORE.INTER.norm>
-0.139806

>  <SCORE.INTRA>
-6.34085

>  <SCORE.INTRA.DIHEDRAL>
-10.8065

>  <SCORE.INTRA.DIHEDRAL.0>
13.1227

>  <SCORE.INTRA.POLAR>
0

>  <SCORE.INTRA.POLAR.0>
0

>  <SCORE.INTRA.REPUL>
0

>  <SCORE.INTRA.REPUL.0>
0

>  <SCORE.INTRA.SOLV>
0.581475

>  <SCORE.INTRA.SOLV.lig_0>
-89.1587

>  <SCORE.INTRA.VDW>
-1.22836

>  <SCORE.INTRA.VDW.0>
-0.838383

>  <SCORE.INTRA.norm>
-0.181167

>  <SCORE.RESTR>
0

>  <SCORE.RESTR.CAVITY>
0

>  <SCORE.RESTR.norm>
0

>  <SCORE.SYSTEM>
0

>  <SCORE.SYSTEM.CONST>
0

>  <SCORE.SYSTEM.DIHEDRAL>
0

>  <SCORE.SYSTEM.SOLV>
0

>  <SCORE.SYSTEM.norm>
0

>  <SCORE.heavy>
35

>  <SCORE.norm>
-0.320974

>  <RMSD>
3.242

$$$$
2o3v_lig
 OpenBabel02141814113D
libRbt.so/2013.1/901 2013/11/27
 35 37  0  0  0  0  0  0  0  0999 V2000
    1.1349   -8.4389   44.8608 C   0  0  2  0  0  0  0  0  0  0  0  0
    1.7953   -7.1564   44.6329 O   0  0  0  0  0  0  0  0  0  0  0  0
    5.8825   -6.1668   43.5184 C   0  0  2  0  0  0  0  0  0  0  0  0
    7.1171   -5.9825   42.6973 N   0  0  0  0  0  0  0  0  0  0  0  0
   -7.5200   -8.8409   48.3405 C   0  0  2  0  0  0  0  0  0  0  0  0
   -7.4579  -10.0080   47.4922 O   0  0  0  0  0  0  0  0  0  0  0  0
   -0.3479   -8.0307   45.1313 C   0  0  2  0  0  0  0  0  0  0  0  0
   -0.9168   -7.2862   43.9831 N   0  0  0  0  0  0  0  0  0  0  0  0
    5.4594   -7.6985   43.5328 C   0  0  0  0  0  0  0  0  0  0  0  0
   -6.5467   -7.7690   47.7388 C   0  0  2  0  0  0  0  0  0  0  0  0
   -6.9103   -7.4475   46.3355 N   0  0  0  0  0  0  0  0  0  0  0  0
   -0.4814   -7.1594   46.4551 C   0  0  1  0  0  0  0  0  0  0  0  0
   -1.8920   -6.7444   46.6704 O   0  0  0  0  0  0  0  0  0  0  0  0
    4.1386   -7.8651   44.4024 C   0  0  2  0  0  0  0  0  0  0  0  0
    3.7206   -9.2833   44.4193 N   0  0  0  0  0  0  0  0  0  0  0  0
   -5.0293   -8.2436   47.8224 C   0  0  1  0  0  0  0  0  0  0  0  0
   -4.1029   -7.2556   47.3024 O   0  0  0  0  0  0  0  0  0  0  0  0
    0.1375   -8.0101   47.6496 C   0  0  2  0  0  0  0  0  0  0  0  0
    0.0848   -7.2998   48.8738 O   0  0  0  0  0  0  0  0  0  0  0  0
    2.9799   -6.9675   43.8015 C   0  0  2  0  0  0  0  0  0  0  0  0
   -4.6895   -8.5561   49.3142 C   0  0  2  0  0  0  0  0  0  0  0  0
   -3.3518   -8.9943   49.4486 O   0  0  0  0  0  0  0  0  0  0  0  0
    1.6270   -8.4128   47.3286 C   0  0  2  0  0  0  0  0  0  0  0  0
    1.6808   -9.1506   46.0491 O   0  0  0  0  0  0  0  0  0  0  0  0
    3.4044   -5.4722   43.7854 C   0  0  2  0  0  0  0  0  0  0  0  0
    2.3126   -4.7168   43.1867 O   0  0  0  0  0  0  0  0  0  0  0  0
   -5.6952   -9.6356   49.8821 C   0  0  2  0  0  0  0  0  0  0  0  0
   -7.0918   -9.1682   49.7275 O   0  0  0  0  0  0  0  0  0  0  0  0
    2.2333   -9.2628   48.4443 C   0  0  0  0  0  0  0  0  0  0  0  0
    1.5370  -10.4761   48.5925 O   0  0  0  0  0  0  0  0  0  0  0  0
    4.6911   -5.3061   42.9434 C   0  0  1  0  0  0  0  0  0  0  0  0
    5.0577   -3.9424   42.9494 O   0  0  0  0  0  0  0  0  0  0  0  0
   -5.4301   -9.9407   51.3486 C   0  0  0  0  0  0  0  0  0  0  0  0
   -4.1541  -10.5118   51.5085 O   0  0  0  0  0  0  0  0  0  0  0  0
   -2.8390   -7.8887   46.9461 C   0  0  0  0  0  0  0  0  0  0  0  0
  1  2  1  1  0  0  0
  1  7  1  0  0  0  0
  1 24  1  0  0  0  0
  3  4  1  6  0  0  0
  3  9  1  0  0  0  0
  3 31  1  0  0  0  0
  5  6  1  6  0  0  0
  5 10  1  0  0  0  0
  5 28  1  0  0  0  0
  7  8  1  6  0  0  0
  7 12  1  0  0  0  0
  9 14  1  0  0  0  0
 10 11  1  6  0  0  0
 10 16  1  0  0  0  0
 12 13  1  1  0  0  0
 12 18  1  0  0  0  0
 13 35  1  0  0  0  0
 14 15  1  6  0  0  0
 14 20  1  0  0  0  0
 16 17  1  1  0  0  0
 16 21  1  0  0  0  0
 17 35  1  0  0  0  0
 18 19  1  1  0  0  0
 18 23  1  0  0  0  0
 20  2  1  1  0  0  0
 20 25  1  0  0  0  0
 21 22  1  6  0  0  0
 21 27  1  0  0  0  0
 23 24  1  0  0  0  0
 23 29  1  1  0  0  0
 25 26  1  6  0  0  0
 25 31  1  0  0  0  0
 27 28  1  0  0  0  0
 27 33  1  1  0  0  0
 29 30  1  0  0  0  0
 31 32  1  1  0  0  0
 33 34  1  0  0  0  0
M  END
>  <CHROM.1>
-151.92948628,65.40043547,172.49425930,-159.25793027,-169.78867755,-59.33260355
62.41392520,-63.44068775,-0.59555611,-7.87023314,46.53199777,-0.50934290
-0.10924657,2.21314394

>  <Name>
2o3v_lig

>  <RI>
0

>  <Rbt.Current_Directory>
/home/afrankz/demos/rdock_decoys_rna/rnas/2o3v

>  <Rbt.Executable>
rbdock ($Id: //depot/dev/client3/rdock/2013.1/src/exe/rbdock.cxx#4 $)

>  <Rbt.Library>
libRbt.so (2013.1, Build901 2013/11/27)

>  <Rbt.Parameter_File>
/export/apps/rDock/src/rDock_2013.1_src/data/scripts/dock_solv.prm

>  <Rbt.Receptor>
prm/pocket_docking_4.prm

>  <SCORE>
-7.09243

>  <SCORE.INTER>
-4.53764

>  <SCORE.INTER.CONST>
1

>  <SCORE.INTER.POLAR>
-0.666969

>  <SCORE.INTER.ROT>
8

>  <SCORE.INTER.SOLV>
12.1509

>  <SCORE.INTER.VDW>
-13.7855

>  <SCORE.INTER.norm>
-0.129647

>  <SCORE.INTRA>
-2.55479

>  <SCORE.INTRA.DIHEDRAL>
-6.94367

>  <SCORE.INTRA.DIHEDRAL.0>
13.1227

>  <SCORE.INTRA.POLAR>
0

>  <SCORE.INTRA.POLAR.0>
0

>  <SCORE.INTRA.REPUL>
0

>  <SCORE.INTRA.REPUL.0>
0

>  <SCORE.INTRA.SOLV>
2.06139

>  <SCORE.INTRA.SOLV.lig_0>
-89.1587

>  <SCORE.INTRA.VDW>
-0.113646

>  <SCORE.INTRA.VDW.0>
-0.838383

>  <SCORE.INTRA.norm>
-0.072994

>  <SCORE.RESTR>
0

>  <SCORE.RESTR.CAVITY>
0

>  <SCORE.RESTR.norm>
0

>  <SCORE.SYSTEM>
0

>  <SCORE.SYSTEM.CONST>
0

>  <SCORE.SYSTEM.DIHEDRAL>
0

>  <SCORE.SYSTEM.SOLV>
0

>  <SCORE.SYSTEM.norm>
0

>  <SCORE.heavy>
35

>  <SCORE.norm>
-0.202641

>  <RMSD>
3.271

$$$$
2o3v_lig
 OpenBabel02141814113D
libRbt.so/2013.1/901 2013/11/27
 35 37  0  0  0  0  0  0  0  0999 V2000
    3.6305   -7.5468   45.1523 C   0  0  2  0  0  0  0  0  0  0  0  0
    4.2280   -8.3440   44.0845 O   0  0  0  0  0  0  0  0  0  0  0  0
    8.4974   -8.2444   44.9147 C   0  0  2  0  0  0  0  0  0  0  0  0
    9.9620   -8.5233   44.8165 N   0  0  0  0  0  0  0  0  0  0  0  0
   -5.3111   -8.1219   46.9279 C   0  0  2  0  0  0  0  0  0  0  0  0
   -4.6176   -8.2947   48.1828 O   0  0  0  0  0  0  0  0  0  0  0  0
    2.1329   -7.9887   45.1287 C   0  0  2  0  0  0  0  0  0  0  0  0
    2.0010   -9.4472   45.3563 N   0  0  0  0  0  0  0  0  0  0  0  0
    7.7050   -9.5870   45.2227 C   0  0  0  0  0  0  0  0  0  0  0  0
   -4.3430   -8.5890   45.7865 C   0  0  2  0  0  0  0  0  0  0  0  0
   -3.9199   -9.9977   45.9902 N   0  0  0  0  0  0  0  0  0  0  0  0
    1.4290   -7.5935   43.7584 C   0  0  1  0  0  0  0  0  0  0  0  0
    0.0188   -8.0617   43.7386 O   0  0  0  0  0  0  0  0  0  0  0  0
    6.1503   -9.2649   45.3105 C   0  0  2  0  0  0  0  0  0  0  0  0
    5.3924  -10.5044   45.5854 N   0  0  0  0  0  0  0  0  0  0  0  0
   -3.0699   -7.6396   45.6736 C   0  0  1  0  0  0  0  0  0  0  0  0
   -2.1725   -8.0293   44.6024 O   0  0  0  0  0  0  0  0  0  0  0  0
    1.5969   -6.0216   43.5727 C   0  0  2  0  0  0  0  0  0  0  0  0
    1.0182   -5.5782   42.3585 O   0  0  0  0  0  0  0  0  0  0  0  0
    5.6552   -8.6190   43.9515 C   0  0  2  0  0  0  0  0  0  0  0  0
   -3.5626   -6.1752   45.4466 C   0  0  2  0  0  0  0  0  0  0  0  0
   -2.4706   -5.2821   45.3489 O   0  0  0  0  0  0  0  0  0  0  0  0
    3.1198   -5.6185   43.6180 C   0  0  2  0  0  0  0  0  0  0  0  0
    3.7233   -6.0853   44.8838 O   0  0  0  0  0  0  0  0  0  0  0  0
    6.4396   -7.3102   43.6549 C   0  0  2  0  0  0  0  0  0  0  0  0
    5.9621   -6.7969   42.3783 O   0  0  0  0  0  0  0  0  0  0  0  0
   -4.5376   -5.7466   46.6148 C   0  0  2  0  0  0  0  0  0  0  0  0
   -5.6713   -6.6944   46.7115 O   0  0  0  0  0  0  0  0  0  0  0  0
    3.3068   -4.1083   43.4791 C   0  0  0  0  0  0  0  0  0  0  0  0
    4.6710   -3.7651   43.4709 O   0  0  0  0  0  0  0  0  0  0  0  0
    7.9529   -7.6183   43.5722 C   0  0  1  0  0  0  0  0  0  0  0  0
    8.6417   -6.4142   43.3081 O   0  0  0  0  0  0  0  0  0  0  0  0
   -5.0790   -4.3394   46.4134 C   0  0  0  0  0  0  0  0  0  0  0  0
   -4.0320   -3.4001   46.4531 O   0  0  0  0  0  0  0  0  0  0  0  0
   -0.8431   -7.4774   44.8332 C   0  0  0  0  0  0  0  0  0  0  0  0
  1  2  1  6  0  0  0
  1  7  1  0  0  0  0
  1 24  1  0  0  0  0
  3  4  1  6  0  0  0
  3  9  1  0  0  0  0
  3 31  1  0  0  0  0
  5  6  1  1  0  0  0
  5 10  1  0  0  0  0
  5 28  1  0  0  0  0
  7  8  1  6  0  0  0
  7 12  1  0  0  0  0
  9 14  1  0  0  0  0
 10 11  1  1  0  0  0
 10 16  1  0  0  0  0
 12 13  1  1  0  0  0
 12 18  1  0  0  0  0
 13 35  1  0  0  0  0
 14 15  1  6  0  0  0
 14 20  1  0  0  0  0
 16 17  1  6  0  0  0
 16 21  1  0  0  0  0
 17 35  1  0  0  0  0
 18 19  1  6  0  0  0
 18 23  1  0  0  0  0
 20  2  1  1  0  0  0
 20 25  1  0  0  0  0
 21 22  1  1  0  0  0
 21 27  1  0  0  0  0
 23 24  1  0  0  0  0
 23 29  1  1  0  0  0
 25 26  1  6  0  0  0
 25 31  1  0  0  0  0
 27 28  1  0  0  0  0
 27 33  1  6  0  0  0
 29 30  1  0  0  0  0
 31 32  1  1  0  0  0
 33 34  1  0  0  0  0
M  END
>  <CHROM.1>
-160.33677783,60.48157694,178.25530242,-159.40783983,174.53371105,54.90130398
-177.80806188,-63.57443645,1.48972895,-7.17648989,44.85414270,0.01791533
-0.20169622,2.80516884

>  <Name>
2o3v_lig

>  <RI>
0

>  <Rbt.Current_Directory>
/home/afrankz/demos/rdock_decoys_rna/rnas/2o3v

>  <Rbt.Executable>
rbdock ($Id: //depot/dev/client3/rdock/2013.1/src/exe/rbdock.cxx#4 $)

>  <Rbt.Library>
libRbt.so (2013.1, Build901 2013/11/27)

>  <Rbt.Parameter_File>
/export/apps/rDock/src/rDock_2013.1_src/data/scripts/dock_solv.prm

>  <Rbt.Receptor>
prm/pocket_docking_4.prm

>  <SCORE>
-13.7268

>  <SCORE.INTER>
-8.94908

>  <SCORE.INTER.CONST>
1

>  <SCORE.INTER.POLAR>
-0.959166

>  <SCORE.INTER.ROT>
8

>  <SCORE.INTER.SOLV>
11.8243

>  <SCORE.INTER.VDW>
-15.6436

>  <SCORE.INTER.norm>
-0.255688

>  <SCORE.INTRA>
-4.77775

>  <SCORE.INTRA.DIHEDRAL>
-9.08605

>  <SCORE.INTRA.DIHEDRAL.0>
13.1227

>  <SCORE.INTRA.POLAR>
0

>  <SCORE.INTRA.POLAR.0>
0

>  <SCORE.INTRA.REPUL>
0

>  <SCORE.INTRA.REPUL.0>
0

>  <SCORE.INTRA.SOLV>
1.34224

>  <SCORE.INTRA.SOLV.lig_0>
-89.1587

>  <SCORE.INTRA.VDW>
-0.905845

>  <SCORE.INTRA.VDW.0>
-0.838383

>  <SCORE.INTRA.norm>
-0.136507

>  <SCORE.RESTR>
0

>  <SCORE.RESTR.CAVITY>
0

>  <SCORE.RESTR.norm>
0

>  <SCORE.SYSTEM>
0

>  <SCORE.SYSTEM.CONST>
0

>  <SCORE.SYSTEM.DIHEDRAL>
0

>  <SCORE.SYSTEM.SOLV>
0

>  <SCORE.SYSTEM.norm>
0

>  <SCORE.heavy>
35

>  <SCORE.norm>
-0.392195

>  <RMSD>
3.316

$$$$
2o3v_lig
 OpenBabel02141814113D
libRbt.so/2013.1/901 2013/11/27
 35 37  0  0  0  0  0  0  0  0999 V2000
    2.2591   -6.9272   44.7387 C   0  0  2  0  0  0  0  0  0  0  0  0
    2.7517   -5.5525   44.7202 O   0  0  0  0  0  0  0  0  0  0  0  0
    7.0465   -5.8848   45.3302 C   0  0  2  0  0  0  0  0  0  0  0  0
    8.4686   -5.5097   45.5929 N   0  0  0  0  0  0  0  0  0  0  0  0
   -5.3335   -5.7423   47.5129 C   0  0  2  0  0  0  0  0  0  0  0  0
   -6.6763   -5.9269   47.0146 O   0  0  0  0  0  0  0  0  0  0  0  0
    0.8730   -6.8164   44.0282 C   0  0  2  0  0  0  0  0  0  0  0  0
    1.0158   -6.2744   42.6563 N   0  0  0  0  0  0  0  0  0  0  0  0
    6.5301   -5.1755   44.0051 C   0  0  0  0  0  0  0  0  0  0  0  0
   -4.5545   -4.8812   46.4593 C   0  0  2  0  0  0  0  0  0  0  0  0
   -5.2359   -3.5830   46.2239 N   0  0  0  0  0  0  0  0  0  0  0  0
   -0.1387   -5.9134   44.8594 C   0  0  1  0  0  0  0  0  0  0  0  0
   -1.4355   -5.7845   44.1453 O   0  0  0  0  0  0  0  0  0  0  0  0
    5.0132   -5.5814   43.7551 C   0  0  2  0  0  0  0  0  0  0  0  0
    4.5090   -4.9219   42.5315 N   0  0  0  0  0  0  0  0  0  0  0  0
   -4.3671   -5.6647   45.0861 C   0  0  1  0  0  0  0  0  0  0  0  0
   -3.6197   -4.9034   44.1031 O   0  0  0  0  0  0  0  0  0  0  0  0
   -0.2560   -6.5462   46.3153 C   0  0  2  0  0  0  0  0  0  0  0  0
   -1.1232   -5.7899   47.1410 O   0  0  0  0  0  0  0  0  0  0  0  0
    4.1291   -5.1591   44.9999 C   0  0  2  0  0  0  0  0  0  0  0  0
   -3.6360   -7.0128   45.3808 C   0  0  2  0  0  0  0  0  0  0  0  0
   -3.4508   -7.7593   44.1942 O   0  0  0  0  0  0  0  0  0  0  0  0
    1.1650   -6.6532   46.9884 C   0  0  2  0  0  0  0  0  0  0  0  0
    2.0699   -7.4394   46.1238 O   0  0  0  0  0  0  0  0  0  0  0  0
    4.6447   -5.8523   46.2921 C   0  0  2  0  0  0  0  0  0  0  0  0
    3.8144   -5.3886   47.3951 O   0  0  0  0  0  0  0  0  0  0  0  0
   -4.4507   -7.8463   46.4489 C   0  0  2  0  0  0  0  0  0  0  0  0
   -4.6446   -7.0503   47.6825 O   0  0  0  0  0  0  0  0  0  0  0  0
    1.0849   -7.2925   48.3739 C   0  0  0  0  0  0  0  0  0  0  0  0
    0.4642   -6.4295   49.2952 O   0  0  0  0  0  0  0  0  0  0  0  0
    6.1213   -5.4630   46.5373 C   0  0  1  0  0  0  0  0  0  0  0  0
    6.5662   -6.1090   47.7116 O   0  0  0  0  0  0  0  0  0  0  0  0
   -3.7529   -9.1513   46.8012 C   0  0  0  0  0  0  0  0  0  0  0  0
   -4.5259   -9.8900   47.7159 O   0  0  0  0  0  0  0  0  0  0  0  0
   -2.2796   -4.6171   44.6004 C   0  0  0  0  0  0  0  0  0  0  0  0
  1  2  1  1  0  0  0
  1  7  1  0  0  0  0
  1 24  1  0  0  0  0
  3  4  1  1  0  0  0
  3  9  1  0  0  0  0
  3 31  1  0  0  0  0
  5  6  1  6  0  0  0
  5 10  1  0  0  0  0
  5 28  1  0  0  0  0
  7  8  1  6  0  0  0
  7 12  1  0  0  0  0
  9 14  1  0  0  0  0
 10 11  1  6  0  0  0
 10 16  1  0  0  0  0
 12 13  1  6  0  0  0
 12 18  1  0  0  0  0
 13 35  1  0  0  0  0
 14 15  1  6  0  0  0
 14 20  1  0  0  0  0
 16 17  1  6  0  0  0
 16 21  1  0  0  0  0
 17 35  1  0  0  0  0
 18 19  1  1  0  0  0
 18 23  1  0  0  0  0
 20  2  1  6  0  0  0
 20 25  1  0  0  0  0
 21 22  1  6  0  0  0
 21 27  1  0  0  0  0
 23 24  1  0  0  0  0
 23 29  1  1  0  0  0
 25 26  1  1  0  0  0
 25 31  1  0  0  0  0
 27 28  1  0  0  0  0
 27 33  1  1  0  0  0
 29 30  1  0  0  0  0
 31 32  1  1  0  0  0
 33 34  1  0  0  0  0
M  END
>  <CHROM.1>
-165.95469081,-160.97306963,-163.09558872,61.24493306,89.80597018,73.21665355
-70.28759116,-177.88357297,0.19777426,-6.20238074,45.82829604,0.11466980
-0.04216612,-1.17697023

>  <Name>
2o3v_lig

>  <RI>
0

>  <Rbt.Current_Directory>
/home/afrankz/demos/rdock_decoys_rna/rnas/2o3v

>  <Rbt.Executable>
rbdock ($Id: //depot/dev/client3/rdock/2013.1/src/exe/rbdock.cxx#4 $)

>  <Rbt.Library>
libRbt.so (2013.1, Build901 2013/11/27)

>  <Rbt.Parameter_File>
/export/apps/rDock/src/rDock_2013.1_src/data/scripts/dock_solv.prm

>  <Rbt.Receptor>
prm/pocket_docking_4.prm

>  <SCORE>
-5.99412

>  <SCORE.INTER>
-3.41358

>  <SCORE.INTER.CONST>
1

>  <SCORE.INTER.POLAR>
-0.87178

>  <SCORE.INTER.ROT>
8

>  <SCORE.INTER.SOLV>
14.9456

>  <SCORE.INTER.VDW>
-13.285

>  <SCORE.INTER.norm>
-0.0975308

>  <SCORE.INTRA>
-2.58054

>  <SCORE.INTRA.DIHEDRAL>
-4.40091

>  <SCORE.INTRA.DIHEDRAL.0>
13.1227

>  <SCORE.INTRA.POLAR>
0

>  <SCORE.INTRA.POLAR.0>
0

>  <SCORE.INTRA.REPUL>
0

>  <SCORE.INTRA.REPUL.0>
0

>  <SCORE.INTRA.SOLV>
2.07966

>  <SCORE.INTRA.SOLV.lig_0>
-89.1587

>  <SCORE.INTRA.VDW>
-1.41992

>  <SCORE.INTRA.VDW.0>
-0.838383

>  <SCORE.INTRA.norm>
-0.0737298

>  <SCORE.RESTR>
0

>  <SCORE.RESTR.CAVITY>
0

>  <SCORE.RESTR.norm>
0

>  <SCORE.SYSTEM>
0

>  <SCORE.SYSTEM.CONST>
0

>  <SCORE.SYSTEM.DIHEDRAL>
0

>  <SCORE.SYSTEM.SOLV>
0

>  <SCORE.SYSTEM.norm>
0

>  <SCORE.heavy>
35

>  <SCORE.norm>
-0.171261

>  <RMSD>
3.317

$$$$
2o3v_lig
 OpenBabel02141814113D
libRbt.so/2013.1/901 2013/11/27
 35 37  0  0  0  0  0  0  0  0999 V2000
    2.4360   -8.4400   44.0203 C   0  0  2  0  0  0  0  0  0  0  0  0
    3.3207   -7.2793   43.9666 O   0  0  0  0  0  0  0  0  0  0  0  0
    7.5346   -6.5256   43.1907 C   0  0  2  0  0  0  0  0  0  0  0  0
    9.0218   -6.5439   43.3323 N   0  0  0  0  0  0  0  0  0  0  0  0
   -5.0185   -9.9477   45.7701 C   0  0  2  0  0  0  0  0  0  0  0  0
   -5.4413  -10.4093   44.4686 O   0  0  0  0  0  0  0  0  0  0  0  0
    1.0190   -7.7992   44.1616 C   0  0  2  0  0  0  0  0  0  0  0  0
    0.7212   -6.9007   43.0213 N   0  0  0  0  0  0  0  0  0  0  0  0
    6.8728   -5.8423   44.4637 C   0  0  0  0  0  0  0  0  0  0  0  0
   -4.0818   -8.7099   45.5493 C   0  0  2  0  0  0  0  0  0  0  0  0
   -4.7797   -7.6427   44.7885 N   0  0  0  0  0  0  0  0  0  0  0  0
    0.8739   -6.9985   45.5281 C   0  0  1  0  0  0  0  0  0  0  0  0
   -0.4647   -6.3601   45.6228 O   0  0  0  0  0  0  0  0  0  0  0  0
    5.2919   -5.8461   44.2932 C   0  0  2  0  0  0  0  0  0  0  0  0
    4.6551   -5.2243   45.4740 N   0  0  0  0  0  0  0  0  0  0  0  0
   -2.7314   -9.1215   44.8131 C   0  0  1  0  0  0  0  0  0  0  0  0
   -1.8303   -8.0001   44.6255 O   0  0  0  0  0  0  0  0  0  0  0  0
    1.1977   -8.0129   46.7112 C   0  0  2  0  0  0  0  0  0  0  0  0
    1.1171   -7.3785   47.9748 O   0  0  0  0  0  0  0  0  0  0  0  0
    4.7713   -7.3320   44.1184 C   0  0  2  0  0  0  0  0  0  0  0  0
   -2.0274  -10.2328   45.6545 C   0  0  2  0  0  0  0  0  0  0  0  0
   -0.8226  -10.6469   45.0409 O   0  0  0  0  0  0  0  0  0  0  0  0
    2.6282   -8.6465   46.5211 C   0  0  2  0  0  0  0  0  0  0  0  0
    2.7120   -9.3048   45.2004 O   0  0  0  0  0  0  0  0  0  0  0  0
    5.4281   -7.9946   42.8751 C   0  0  2  0  0  0  0  0  0  0  0  0
    4.9361   -9.3634   42.8012 O   0  0  0  0  0  0  0  0  0  0  0  0
   -3.0060  -11.4578   45.8570 C   0  0  2  0  0  0  0  0  0  0  0  0
   -4.2661  -11.0090   46.4923 O   0  0  0  0  0  0  0  0  0  0  0  0
    2.9492   -9.6533   47.6248 C   0  0  0  0  0  0  0  0  0  0  0  0
    4.2564  -10.1548   47.4887 O   0  0  0  0  0  0  0  0  0  0  0  0
    6.9664   -7.9898   43.0351 C   0  0  1  0  0  0  0  0  0  0  0  0
    7.5378   -8.5910   41.8922 O   0  0  0  0  0  0  0  0  0  0  0  0
   -2.3780  -12.5496   46.7100 C   0  0  0  0  0  0  0  0  0  0  0  0
   -2.0903  -12.0619   47.9981 O   0  0  0  0  0  0  0  0  0  0  0  0
   -1.5935   -7.3262   45.8963 C   0  0  0  0  0  0  0  0  0  0  0  0
  1  2  1  1  0  0  0
  1  7  1  0  0  0  0
  1 24  1  0  0  0  0
  3  4  1  1  0  0  0
  3  9  1  0  0  0  0
  3 31  1  0  0  0  0
  5  6  1  6  0  0  0
  5 10  1  0  0  0  0
  5 28  1  0  0  0  0
  7  8  1  6  0  0  0
  7 12  1  0  0  0  0
  9 14  1  0  0  0  0
 10 11  1  6  0  0  0
 10 16  1  0  0  0  0
 12 13  1  1  0  0  0
 12 18  1  0  0  0  0
 13 35  1  0  0  0  0
 14 15  1  1  0  0  0
 14 20  1  0  0  0  0
 16 17  1  1  0  0  0
 16 21  1  0  0  0  0
 17 35  1  0  0  0  0
 18 19  1  1  0  0  0
 18 23  1  0  0  0  0
 20  2  1  6  0  0  0
 20 25  1  0  0  0  0
 21 22  1  6  0  0  0
 21 27  1  0  0  0  0
 23 24  1  0  0  0  0
 23 29  1  1  0  0  0
 25 26  1  1  0  0  0
 25 31  1  0  0  0  0
 27 28  1  0  0  0  0
 27 33  1  1  0  0  0
 29 30  1  0  0  0  0
 31 32  1  6  0  0  0
 33 34  1  0  0  0  0
M  END
>  <CHROM.1>
166.40883794,73.45655563,-75.93558957,53.19200174,169.88324646,-168.48675634
-176.61187568,62.03833258,1.27607697,-8.53335559,45.07576176,0.33464064,0.03639143
-0.54187054

>  <Name>
2o3v_lig

>  <RI>
0

>  <Rbt.Current_Directory>
/home/afrankz/demos/rdock_decoys_rna/rnas/2o3v

>  <Rbt.Executable>
rbdock ($Id: //depot/dev/client3/rdock/2013.1/src/exe/rbdock.cxx#4 $)

>  <Rbt.Library>
libRbt.so (2013.1, Build901 2013/11/27)

>  <Rbt.Parameter_File>
/export/apps/rDock/src/rDock_2013.1_src/data/scripts/dock_solv.prm

>  <Rbt.Receptor>
prm/pocket_docking_5.prm

>  <SCORE>
-9.80588

>  <SCORE.INTER>
-5.40015

>  <SCORE.INTER.CONST>
1

>  <SCORE.INTER.POLAR>
-0.595175

>  <SCORE.INTER.ROT>
8

>  <SCORE.INTER.SOLV>
15.2179

>  <SCORE.INTER.VDW>
-15.6222

>  <SCORE.INTER.norm>
-0.15429

>  <SCORE.INTRA>
-4.40573

>  <SCORE.INTRA.DIHEDRAL>
-8.74946

>  <SCORE.INTRA.DIHEDRAL.0>
13.1227

>  <SCORE.INTRA.POLAR>
0

>  <SCORE.INTRA.POLAR.0>
0

>  <SCORE.INTRA.REPUL>
0

>  <SCORE.INTRA.REPUL.0>
0

>  <SCORE.INTRA.SOLV>
1.26873

>  <SCORE.INTRA.SOLV.lig_0>
-89.1587

>  <SCORE.INTRA.VDW>
-0.665369

>  <SCORE.INTRA.VDW.0>
-0.838383

>  <SCORE.INTRA.norm>
-0.125878

>  <SCORE.RESTR>
0

>  <SCORE.RESTR.CAVITY>
0

>  <SCORE.RESTR.norm>
0

>  <SCORE.SYSTEM>
0

>  <SCORE.SYSTEM.CONST>
0

>  <SCORE.SYSTEM.DIHEDRAL>
0

>  <SCORE.SYSTEM.SOLV>
0

>  <SCORE.SYSTEM.norm>
0

>  <SCORE.heavy>
35

>  <SCORE.norm>
-0.280168

>  <RMSD>
3.357

$$$$
2o3v_lig
 OpenBabel02141814113D
libRbt.so/2013.1/901 2013/11/27
 35 37  0  0  0  0  0  0  0  0999 V2000
    2.6929   -8.8562   44.0053 C   0  0  2  0  0  0  0  0  0  0  0  0
    3.4545   -7.6298   44.2255 O   0  0  0  0  0  0  0  0  0  0  0  0
    7.4995   -6.3258   43.2953 C   0  0  2  0  0  0  0  0  0  0  0  0
    8.9886   -6.2090   43.3301 N   0  0  0  0  0  0  0  0  0  0  0  0
   -3.6701   -4.9048   43.4800 C   0  0  2  0  0  0  0  0  0  0  0  0
   -2.6346   -5.1467   42.5029 O   0  0  0  0  0  0  0  0  0  0  0  0
    1.2129   -8.3910   44.1834 C   0  0  2  0  0  0  0  0  0  0  0  0
    0.8686   -7.3187   43.2200 N   0  0  0  0  0  0  0  0  0  0  0  0
    6.8865   -5.9203   44.7043 C   0  0  0  0  0  0  0  0  0  0  0  0
   -3.2211   -5.5840   44.8200 C   0  0  2  0  0  0  0  0  0  0  0  0
   -1.9078   -5.0572   45.2702 N   0  0  0  0  0  0  0  0  0  0  0  0
    0.9328   -7.8901   45.6667 C   0  0  1  0  0  0  0  0  0  0  0  0
   -0.4672   -7.4108   45.8032 O   0  0  0  0  0  0  0  0  0  0  0  0
    5.3041   -6.0644   44.6440 C   0  0  2  0  0  0  0  0  0  0  0  0
    4.7138   -5.7023   45.9505 N   0  0  0  0  0  0  0  0  0  0  0  0
   -3.1639   -7.1691   44.6824 C   0  0  1  0  0  0  0  0  0  0  0  0
   -2.7830   -7.8262   45.9185 O   0  0  0  0  0  0  0  0  0  0  0  0
    1.3132   -9.0814   46.6515 C   0  0  2  0  0  0  0  0  0  0  0  0
    1.1183   -8.7166   48.0060 O   0  0  0  0  0  0  0  0  0  0  0  0
    4.9113   -7.5520   44.2673 C   0  0  2  0  0  0  0  0  0  0  0  0
   -4.5668   -7.6773   44.2219 C   0  0  2  0  0  0  0  0  0  0  0  0
   -4.5729   -9.0834   44.0721 O   0  0  0  0  0  0  0  0  0  0  0  0
    2.8077   -9.5287   46.4277 C   0  0  2  0  0  0  0  0  0  0  0  0
    3.0104   -9.9053   45.0129 O   0  0  0  0  0  0  0  0  0  0  0  0
    5.5200   -7.9424   42.8912 C   0  0  2  0  0  0  0  0  0  0  0  0
    5.1532   -9.3275   42.6308 O   0  0  0  0  0  0  0  0  0  0  0  0
   -4.9825   -6.9656   42.8728 C   0  0  2  0  0  0  0  0  0  0  0  0
   -4.9639   -5.4945   43.0411 O   0  0  0  0  0  0  0  0  0  0  0  0
    3.1876  -10.6973   47.3359 C   0  0  0  0  0  0  0  0  0  0  0  0
    2.3913  -11.8259   47.0696 O   0  0  0  0  0  0  0  0  0  0  0  0
    7.0591   -7.8002   42.9443 C   0  0  1  0  0  0  0  0  0  0  0  0
    7.5858   -8.1547   41.6829 O   0  0  0  0  0  0  0  0  0  0  0  0
   -6.3647   -7.3975   42.4070 C   0  0  0  0  0  0  0  0  0  0  0  0
   -7.3418   -7.0077   43.3415 O   0  0  0  0  0  0  0  0  0  0  0  0
   -1.5049   -8.5076   45.7535 C   0  0  0  0  0  0  0  0  0  0  0  0
  1  2  1  1  0  0  0
  1  7  1  0  0  0  0
  1 24  1  0  0  0  0
  3  4  1  1  0  0  0
  3  9  1  0  0  0  0
  3 31  1  0  0  0  0
  5  6  1  6  0  0  0
  5 10  1  0  0  0  0
  5 28  1  0  0  0  0
  7  8  1  6  0  0  0
  7 12  1  0  0  0  0
  9 14  1  0  0  0  0
 10 11  1  6  0  0  0
 10 16  1  0  0  0  0
 12 13  1  6  0  0  0
 12 18  1  0  0  0  0
 13 35  1  0  0  0  0
 14 15  1  1  0  0  0
 14 20  1  0  0  0  0
 16 17  1  1  0  0  0
 16 21  1  0  0  0  0
 17 35  1  0  0  0  0
 18 19  1  1  0  0  0
 18 23  1  0  0  0  0
 20  2  1  6  0  0  0
 20 25  1  0  0  0  0
 21 22  1  6  0  0  0
 21 27  1  0  0  0  0
 23 24  1  0  0  0  0
 23 29  1  1  0  0  0
 25 26  1  1  0  0  0
 25 31  1  0  0  0  0
 27 28  1  0  0  0  0
 27 33  1  1  0  0  0
 29 30  1  0  0  0  0
 31 32  1  6  0  0  0
 33 34  1  0  0  0  0
M  END
>  <CHROM.1>
175.18421952,70.62152702,179.39633365,-115.53576741,76.60210668,-175.49759824
61.41653994,63.40102746,0.92768167,-7.63184551,44.46940750,0.06734909,-0.04590020
2.38319058

>  <Name>
2o3v_lig

>  <RI>
0

>  <Rbt.Current_Directory>
/home/afrankz/demos/rdock_decoys_rna/rnas/2o3v

>  <Rbt.Executable>
rbdock ($Id: //depot/dev/client3/rdock/2013.1/src/exe/rbdock.cxx#4 $)

>  <Rbt.Library>
libRbt.so (2013.1, Build901 2013/11/27)

>  <Rbt.Parameter_File>
/export/apps/rDock/src/rDock_2013.1_src/data/scripts/dock_solv.prm

>  <Rbt.Receptor>
prm/pocket_docking_4.prm

>  <SCORE>
-11.7088

>  <SCORE.INTER>
-8.74658

>  <SCORE.INTER.CONST>
1

>  <SCORE.INTER.POLAR>
-0.445272

>  <SCORE.INTER.ROT>
8

>  <SCORE.INTER.SOLV>
16.7931

>  <SCORE.INTER.VDW>
-18.8778

>  <SCORE.INTER.norm>
-0.249902

>  <SCORE.INTRA>
-2.96913

>  <SCORE.INTRA.DIHEDRAL>
-3.89212

>  <SCORE.INTRA.DIHEDRAL.0>
13.1227

>  <SCORE.INTRA.POLAR>
0

>  <SCORE.INTRA.POLAR.0>
0

>  <SCORE.INTRA.REPUL>
0.0218549

>  <SCORE.INTRA.REPUL.0>
0

>  <SCORE.INTRA.SOLV>
1.63294

>  <SCORE.INTRA.SOLV.lig_0>
-89.1587

>  <SCORE.INTRA.VDW>
-1.94882

>  <SCORE.INTRA.VDW.0>
-0.838383

>  <SCORE.INTRA.norm>
-0.0848323

>  <SCORE.RESTR>
0.00690802

>  <SCORE.RESTR.CAVITY>
0.00690802

>  <SCORE.RESTR.norm>
0.000197372

>  <SCORE.SYSTEM>
0

>  <SCORE.SYSTEM.CONST>
0

>  <SCORE.SYSTEM.DIHEDRAL>
0

>  <SCORE.SYSTEM.SOLV>
0

>  <SCORE.SYSTEM.norm>
0

>  <SCORE.heavy>
35

>  <SCORE.norm>
-0.334537

>  <RMSD>
3.427

$$$$
2o3v_lig
 OpenBabel02141814113D
libRbt.so/2013.1/901 2013/11/27
 35 37  0  0  0  0  0  0  0  0999 V2000
    4.6498   -9.8403   46.6027 C   0  0  2  0  0  0  0  0  0  0  0  0
    4.2704   -8.8044   45.6458 O   0  0  0  0  0  0  0  0  0  0  0  0
    6.4159   -7.0660   42.2840 C   0  0  2  0  0  0  0  0  0  0  0  0
    7.3556   -6.2098   41.4990 N   0  0  0  0  0  0  0  0  0  0  0  0
   -3.7654   -7.5625   46.3570 C   0  0  2  0  0  0  0  0  0  0  0  0
   -4.2215   -7.1738   47.6709 O   0  0  0  0  0  0  0  0  0  0  0  0
    3.2735  -10.3649   47.1212 C   0  0  2  0  0  0  0  0  0  0  0  0
    2.4444  -10.8849   46.0083 N   0  0  0  0  0  0  0  0  0  0  0  0
    5.3594   -6.1584   43.0491 C   0  0  0  0  0  0  0  0  0  0  0  0
   -2.4012   -8.3145   46.5355 C   0  0  2  0  0  0  0  0  0  0  0  0
   -2.5531   -9.4876   47.4331 N   0  0  0  0  0  0  0  0  0  0  0  0
    2.4742   -9.2335   47.9027 C   0  0  1  0  0  0  0  0  0  0  0  0
    1.1500   -9.7392   48.3487 O   0  0  0  0  0  0  0  0  0  0  0  0
    4.3801   -7.0920   43.8846 C   0  0  2  0  0  0  0  0  0  0  0  0
    3.3948   -6.2656   44.6144 N   0  0  0  0  0  0  0  0  0  0  0  0
   -1.2643   -7.3431   47.0821 C   0  0  1  0  0  0  0  0  0  0  0  0
    0.0185   -8.0053   47.2253 O   0  0  0  0  0  0  0  0  0  0  0  0
    3.4084   -8.7207   49.0850 C   0  0  2  0  0  0  0  0  0  0  0  0
    2.7858   -7.6871   49.8266 O   0  0  0  0  0  0  0  0  0  0  0  0
    5.2126   -7.9694   44.9074 C   0  0  2  0  0  0  0  0  0  0  0  0
   -1.1312   -6.1352   46.1013 C   0  0  2  0  0  0  0  0  0  0  0  0
   -0.1391   -5.2298   46.5435 O   0  0  0  0  0  0  0  0  0  0  0  0
    4.7900   -8.2155   48.5194 C   0  0  2  0  0  0  0  0  0  0  0  0
    5.4366   -9.2939   47.7424 O   0  0  0  0  0  0  0  0  0  0  0  0
    6.2475   -8.8490   44.1514 C   0  0  2  0  0  0  0  0  0  0  0  0
    6.9989   -9.5936   45.1524 O   0  0  0  0  0  0  0  0  0  0  0  0
   -2.5271   -5.4093   45.9466 C   0  0  2  0  0  0  0  0  0  0  0  0
   -3.5581   -6.3700   45.4915 O   0  0  0  0  0  0  0  0  0  0  0  0
    5.7209   -7.7518   49.6388 C   0  0  0  0  0  0  0  0  0  0  0  0
    5.1930   -6.6310   50.3053 O   0  0  0  0  0  0  0  0  0  0  0  0
    7.2001   -7.9450   43.3344 C   0  0  1  0  0  0  0  0  0  0  0  0
    8.1248   -8.7674   42.6541 O   0  0  0  0  0  0  0  0  0  0  0  0
   -2.4569   -4.2497   44.9646 C   0  0  0  0  0  0  0  0  0  0  0  0
   -1.5895   -3.2513   45.4449 O   0  0  0  0  0  0  0  0  0  0  0  0
    0.1031   -8.6640   48.5230 C   0  0  0  0  0  0  0  0  0  0  0  0
  1  2  1  6  0  0  0
  1  7  1  0  0  0  0
  1 24  1  0  0  0  0
  3  4  1  1  0  0  0
  3  9  1  0  0  0  0
  3 31  1  0  0  0  0
  5  6  1  1  0  0  0
  5 10  1  0  0  0  0
  5 28  1  0  0  0  0
  7  8  1  6  0  0  0
  7 12  1  0  0  0  0
  9 14  1  0  0  0  0
 10 11  1  1  0  0  0
 10 16  1  0  0  0  0
 12 13  1  1  0  0  0
 12 18  1  0  0  0  0
 13 35  1  0  0  0  0
 14 15  1  1  0  0  0
 14 20  1  0  0  0  0
 16 17  1  6  0  0  0
 16 21  1  0  0  0  0
 17 35  1  0  0  0  0
 18 19  1  6  0  0  0
 18 23  1  0  0  0  0
 20  2  1  6  0  0  0
 20 25  1  0  0  0  0
 21 22  1  1  0  0  0
 21 27  1  0  0  0  0
 23 24  1  0  0  0  0
 23 29  1  1  0  0  0
 25 26  1  1  0  0  0
 25 31  1  0  0  0  0
 27 28  1  0  0  0  0
 27 33  1  6  0  0  0
 29 30  1  0  0  0  0
 31 32  1  6  0  0  0
 33 34  1  0  0  0  0
M  END
>  <CHROM.1>
177.90778694,-153.91432913,57.33629700,-85.87452450,157.38511154,174.41559432
-64.27892173,-63.95671311,2.29105702,-7.70528383,46.25363495,-0.11294278
-0.25186877,2.07176943

>  <Name>
2o3v_lig

>  <RI>
0

>  <Rbt.Current_Directory>
/home/afrankz/demos/rdock_decoys_rna/rnas/2o3v

>  <Rbt.Executable>
rbdock ($Id: //depot/dev/client3/rdock/2013.1/src/exe/rbdock.cxx#4 $)

>  <Rbt.Library>
libRbt.so (2013.1, Build901 2013/11/27)

>  <Rbt.Parameter_File>
/export/apps/rDock/src/rDock_2013.1_src/data/scripts/dock_solv.prm

>  <Rbt.Receptor>
prm/pocket_docking_4.prm

>  <SCORE>
-9.57286

>  <SCORE.INTER>
-5.98674

>  <SCORE.INTER.CONST>
1

>  <SCORE.INTER.POLAR>
-0.477351

>  <SCORE.INTER.ROT>
8

>  <SCORE.INTER.SOLV>
16.1295

>  <SCORE.INTER.VDW>
-16.7098

>  <SCORE.INTER.norm>
-0.17105

>  <SCORE.INTRA>
-3.58612

>  <SCORE.INTRA.DIHEDRAL>
-4.81581

>  <SCORE.INTRA.DIHEDRAL.0>
13.1227

>  <SCORE.INTRA.POLAR>
0

>  <SCORE.INTRA.POLAR.0>
0

>  <SCORE.INTRA.REPUL>
0

>  <SCORE.INTRA.REPUL.0>
0

>  <SCORE.INTRA.SOLV>
0.299561

>  <SCORE.INTRA.SOLV.lig_0>
-89.1587

>  <SCORE.INTRA.VDW>
-1.32799

>  <SCORE.INTRA.VDW.0>
-0.838383

>  <SCORE.INTRA.norm>
-0.102461

>  <SCORE.RESTR>
0

>  <SCORE.RESTR.CAVITY>
0

>  <SCORE.RESTR.norm>
0

>  <SCORE.SYSTEM>
0

>  <SCORE.SYSTEM.CONST>
0

>  <SCORE.SYSTEM.DIHEDRAL>
0

>  <SCORE.SYSTEM.SOLV>
0

>  <SCORE.SYSTEM.norm>
0

>  <SCORE.heavy>
35

>  <SCORE.norm>
-0.27351

>  <RMSD>
3.494

$$$$
2o3v_lig
 OpenBabel02141814113D
libRbt.so/2013.1/901 2013/11/27
 35 37  0  0  0  0  0  0  0  0999 V2000
    1.6543   -8.7873   43.9586 C   0  0  2  0  0  0  0  0  0  0  0  0
    2.1889   -7.5400   44.4984 O   0  0  0  0  0  0  0  0  0  0  0  0
    6.1633   -5.8013   44.8278 C   0  0  2  0  0  0  0  0  0  0  0  0
    7.5695   -5.5672   45.2748 N   0  0  0  0  0  0  0  0  0  0  0  0
   -6.2387   -4.1126   46.6751 C   0  0  2  0  0  0  0  0  0  0  0  0
   -5.2132   -3.2074   47.1382 O   0  0  0  0  0  0  0  0  0  0  0  0
    0.2521   -8.3663   43.4157 C   0  0  2  0  0  0  0  0  0  0  0  0
    0.3714   -7.3007   42.3927 N   0  0  0  0  0  0  0  0  0  0  0  0
    5.1645   -5.6259   46.0513 C   0  0  0  0  0  0  0  0  0  0  0  0
   -5.5215   -5.3866   46.1086 C   0  0  2  0  0  0  0  0  0  0  0  0
   -4.6594   -6.0158   47.1410 N   0  0  0  0  0  0  0  0  0  0  0  0
   -0.7060   -7.8797   44.5883 C   0  0  1  0  0  0  0  0  0  0  0  0
   -2.0186   -7.4420   44.0461 O   0  0  0  0  0  0  0  0  0  0  0  0
    3.6784   -5.8914   45.5519 C   0  0  2  0  0  0  0  0  0  0  0  0
    2.7328   -5.7444   46.6792 N   0  0  0  0  0  0  0  0  0  0  0  0
   -4.6693   -5.0486   44.8070 C   0  0  1  0  0  0  0  0  0  0  0  0
   -4.0210   -6.2169   44.2417 O   0  0  0  0  0  0  0  0  0  0  0  0
   -0.8002   -9.0633   45.6484 C   0  0  2  0  0  0  0  0  0  0  0  0
   -1.6188   -8.7098   46.7488 O   0  0  0  0  0  0  0  0  0  0  0  0
    3.5668   -7.3481   44.9396 C   0  0  2  0  0  0  0  0  0  0  0  0
   -5.6180   -4.4037   43.7474 C   0  0  2  0  0  0  0  0  0  0  0  0
   -4.9108   -4.0714   42.5689 O   0  0  0  0  0  0  0  0  0  0  0  0
    0.6358   -9.4659   46.1576 C   0  0  2  0  0  0  0  0  0  0  0  0
    1.4900   -9.8307   45.0079 O   0  0  0  0  0  0  0  0  0  0  0  0
    4.5511   -7.5130   43.7479 C   0  0  2  0  0  0  0  0  0  0  0  0
    4.4228   -8.8807   43.2640 O   0  0  0  0  0  0  0  0  0  0  0  0
   -6.3228   -3.1279   44.3597 C   0  0  2  0  0  0  0  0  0  0  0  0
   -7.0523   -3.4880   45.5970 O   0  0  0  0  0  0  0  0  0  0  0  0
    0.5765  -10.6265   47.1497 C   0  0  0  0  0  0  0  0  0  0  0  0
   -0.1003  -10.2542   48.3254 O   0  0  0  0  0  0  0  0  0  0  0  0
    5.9979   -7.2520   44.2285 C   0  0  1  0  0  0  0  0  0  0  0  0
    6.8698   -7.4024   43.1279 O   0  0  0  0  0  0  0  0  0  0  0  0
   -7.2922   -2.4895   43.3764 C   0  0  0  0  0  0  0  0  0  0  0  0
   -7.9318   -1.3832   43.9655 O   0  0  0  0  0  0  0  0  0  0  0  0
   -2.7727   -6.4892   44.9438 C   0  0  0  0  0  0  0  0  0  0  0  0
  1  2  1  1  0  0  0
  1  7  1  0  0  0  0
  1 24  1  0  0  0  0
  3  4  1  1  0  0  0
  3  9  1  0  0  0  0
  3 31  1  0  0  0  0
  5  6  1  6  0  0  0
  5 10  1  0  0  0  0
  5 28  1  0  0  0  0
  7  8  1  6  0  0  0
  7 12  1  0  0  0  0
  9 14  1  0  0  0  0
 10 11  1  1  0  0  0
 10 16  1  0  0  0  0
 12 13  1  6  0  0  0
 12 18  1  0  0  0  0
 13 35  1  0  0  0  0
 14 15  1  1  0  0  0
 14 20  1  0  0  0  0
 16 17  1  6  0  0  0
 16 21  1  0  0  0  0
 17 35  1  0  0  0  0
 18 19  1  1  0  0  0
 18 23  1  0  0  0  0
 20  2  1  6  0  0  0
 20 25  1  0  0  0  0
 21 22  1  6  0  0  0
 21 27  1  0  0  0  0
 23 24  1  0  0  0  0
 23 29  1  1  0  0  0
 25 26  1  1  0  0  0
 25 31  1  0  0  0  0
 27 28  1  0  0  0  0
 27 33  1  6  0  0  0
 29 30  1  0  0  0  0
 31 32  1  6  0  0  0
 33 34  1  0  0  0  0
M  END
>  <CHROM.1>
-169.95408054,-157.24365450,-178.87409374,-82.78666792,-164.39133047,-175.66267793
-64.83604260,178.19686788,-0.61410656,-6.50436295,44.97902014,0.29825536
-0.15097166,2.72979690

>  <Name>
2o3v_lig

>  <RI>
0

>  <Rbt.Current_Directory>
/home/afrankz/demos/rdock_decoys_rna/rnas/2o3v

>  <Rbt.Executable>
rbdock ($Id: //depot/dev/client3/rdock/2013.1/src/exe/rbdock.cxx#4 $)

>  <Rbt.Library>
libRbt.so (2013.1, Build901 2013/11/27)

>  <Rbt.Parameter_File>
/export/apps/rDock/src/rDock_2013.1_src/data/scripts/dock_solv.prm

>  <Rbt.Receptor>
prm/pocket_docking_6.prm

>  <SCORE>
-8.00917

>  <SCORE.INTER>
-3.25532

>  <SCORE.INTER.CONST>
1

>  <SCORE.INTER.POLAR>
-0.628984

>  <SCORE.INTER.ROT>
8

>  <SCORE.INTER.SOLV>
13.481

>  <SCORE.INTER.VDW>
-13.5006

>  <SCORE.INTER.norm>
-0.093009

>  <SCORE.INTRA>
-4.77791

>  <SCORE.INTRA.DIHEDRAL>
-6.72693

>  <SCORE.INTRA.DIHEDRAL.0>
13.1227

>  <SCORE.INTRA.POLAR>
0

>  <SCORE.INTRA.POLAR.0>
0

>  <SCORE.INTRA.REPUL>
0.0593398

>  <SCORE.INTRA.REPUL.0>
0

>  <SCORE.INTRA.SOLV>
-0.557697

>  <SCORE.INTRA.SOLV.lig_0>
-89.1587

>  <SCORE.INTRA.VDW>
-1.4323

>  <SCORE.INTRA.VDW.0>
-0.838383

>  <SCORE.INTRA.norm>
-0.136512

>  <SCORE.RESTR>
0.0240626

>  <SCORE.RESTR.CAVITY>
0.0240626

>  <SCORE.RESTR.norm>
0.000687502

>  <SCORE.SYSTEM>
0

>  <SCORE.SYSTEM.CONST>
0

>  <SCORE.SYSTEM.DIHEDRAL>
0

>  <SCORE.SYSTEM.SOLV>
0

>  <SCORE.SYSTEM.norm>
0

>  <SCORE.heavy>
35

>  <SCORE.norm>
-0.228833

>  <RMSD>
3.498

$$$$
2o3v_lig
 OpenBabel02141814113D
libRbt.so/2013.1/901 2013/11/27
 35 37  0  0  0  0  0  0  0  0999 V2000
    1.8280   -8.0931   46.0187 C   0  0  2  0  0  0  0  0  0  0  0  0
    1.3123   -6.8560   45.4389 O   0  0  0  0  0  0  0  0  0  0  0  0
    3.1026   -3.6399   43.1196 C   0  0  2  0  0  0  0  0  0  0  0  0
    3.9074   -2.4312   42.7680 N   0  0  0  0  0  0  0  0  0  0  0  0
   -4.3043  -11.9571   50.5865 C   0  0  2  0  0  0  0  0  0  0  0  0
   -2.9099  -11.9737   50.9620 O   0  0  0  0  0  0  0  0  0  0  0  0
    0.5488   -8.9769   46.1632 C   0  0  2  0  0  0  0  0  0  0  0  0
   -0.1089   -9.1861   44.8517 N   0  0  0  0  0  0  0  0  0  0  0  0
    1.9890   -3.2630   44.1888 C   0  0  0  0  0  0  0  0  0  0  0  0
   -4.3891  -11.4257   49.1139 C   0  0  2  0  0  0  0  0  0  0  0  0
   -3.5835  -12.2700   48.1957 N   0  0  0  0  0  0  0  0  0  0  0  0
   -0.4878   -8.3406   47.1879 C   0  0  1  0  0  0  0  0  0  0  0  0
   -1.7156   -9.1729   47.2774 O   0  0  0  0  0  0  0  0  0  0  0  0
    1.1557   -4.5672   44.5538 C   0  0  2  0  0  0  0  0  0  0  0  0
    0.1201   -4.2404   45.5574 N   0  0  0  0  0  0  0  0  0  0  0  0
   -3.9299   -9.9046   49.0130 C   0  0  1  0  0  0  0  0  0  0  0  0
   -4.0301   -9.3764   47.6655 O   0  0  0  0  0  0  0  0  0  0  0  0
    0.2707   -8.1464   48.5738 C   0  0  2  0  0  0  0  0  0  0  0  0
   -0.5722   -7.5584   49.5483 O   0  0  0  0  0  0  0  0  0  0  0  0
    2.1239   -5.6854   45.1208 C   0  0  2  0  0  0  0  0  0  0  0  0
   -4.8118   -9.0556   49.9825 C   0  0  2  0  0  0  0  0  0  0  0  0
   -4.4404   -7.6918   49.9430 O   0  0  0  0  0  0  0  0  0  0  0  0
    1.5612   -7.2629   48.3794 C   0  0  2  0  0  0  0  0  0  0  0  0
    2.4379   -7.8758   47.3594 O   0  0  0  0  0  0  0  0  0  0  0  0
    3.2133   -6.0434   44.0714 C   0  0  2  0  0  0  0  0  0  0  0  0
    4.0856   -7.0422   44.6736 O   0  0  0  0  0  0  0  0  0  0  0  0
   -4.7011   -9.6267   51.4525 C   0  0  2  0  0  0  0  0  0  0  0  0
   -5.0845  -11.0569   51.4782 O   0  0  0  0  0  0  0  0  0  0  0  0
    2.3289   -7.0918   49.6894 C   0  0  0  0  0  0  0  0  0  0  0  0
    3.4782   -6.3022   49.5039 O   0  0  0  0  0  0  0  0  0  0  0  0
    4.0242   -4.7767   43.7108 C   0  0  1  0  0  0  0  0  0  0  0  0
    5.0014   -5.1275   42.7536 O   0  0  0  0  0  0  0  0  0  0  0  0
   -5.5794   -8.8568   52.4270 C   0  0  0  0  0  0  0  0  0  0  0  0
   -5.1337   -7.5273   52.5448 O   0  0  0  0  0  0  0  0  0  0  0  0
   -2.9913   -8.3795   47.4367 C   0  0  0  0  0  0  0  0  0  0  0  0
  1  2  1  1  0  0  0
  1  7  1  0  0  0  0
  1 24  1  0  0  0  0
  3  4  1  1  0  0  0
  3  9  1  0  0  0  0
  3 31  1  0  0  0  0
  5  6  1  1  0  0  0
  5 10  1  0  0  0  0
  5 28  1  0  0  0  0
  7  8  1  6  0  0  0
  7 12  1  0  0  0  0
  9 14  1  0  0  0  0
 10 11  1  6  0  0  0
 10 16  1  0  0  0  0
 12 13  1  1  0  0  0
 12 18  1  0  0  0  0
 13 35  1  0  0  0  0
 14 15  1  1  0  0  0
 14 20  1  0  0  0  0
 16 17  1  6  0  0  0
 16 21  1  0  0  0  0
 17 35  1  0  0  0  0
 18 19  1  1  0  0  0
 18 23  1  0  0  0  0
 20  2  1  6  0  0  0
 20 25  1  0  0  0  0
 21 22  1  1  0  0  0
 21 27  1  0  0  0  0
 23 24  1  0  0  0  0
 23 29  1  1  0  0  0
 25 26  1  1  0  0  0
 25 31  1  0  0  0  0
 27 28  1  0  0  0  0
 27 33  1  1  0  0  0
 29 30  1  0  0  0  0
 31 32  1  6  0  0  0
 33 34  1  0  0  0  0
M  END
>  <CHROM.1>
179.22080748,-143.24022296,-173.31708656,-148.16115709,74.57368408,-178.39315053
179.98536880,-64.72539971,-0.47760927,-7.75246548,47.51409400,-0.16748264
-0.79634983,-2.69240425

>  <Name>
2o3v_lig

>  <RI>
0

>  <Rbt.Current_Directory>
/home/afrankz/demos/rdock_decoys_rna/rnas/2o3v

>  <Rbt.Executable>
rbdock ($Id: //depot/dev/client3/rdock/2013.1/src/exe/rbdock.cxx#4 $)

>  <Rbt.Library>
libRbt.so (2013.1, Build901 2013/11/27)

>  <Rbt.Parameter_File>
/export/apps/rDock/src/rDock_2013.1_src/data/scripts/dock_solv.prm

>  <Rbt.Receptor>
prm/pocket_docking_4.prm

>  <SCORE>
-7.97482

>  <SCORE.INTER>
-4.1983

>  <SCORE.INTER.CONST>
1

>  <SCORE.INTER.POLAR>
-0.959166

>  <SCORE.INTER.ROT>
8

>  <SCORE.INTER.SOLV>
11.0251

>  <SCORE.INTER.VDW>
-12.21

>  <SCORE.INTER.norm>
-0.119951

>  <SCORE.INTRA>
-3.77652

>  <SCORE.INTRA.DIHEDRAL>
-2.98142

>  <SCORE.INTRA.DIHEDRAL.0>
13.1227

>  <SCORE.INTRA.POLAR>
0

>  <SCORE.INTRA.POLAR.0>
0

>  <SCORE.INTRA.REPUL>
0

>  <SCORE.INTRA.REPUL.0>
0

>  <SCORE.INTRA.SOLV>
-0.656253

>  <SCORE.INTRA.SOLV.lig_0>
-89.1587

>  <SCORE.INTRA.VDW>
-1.95768

>  <SCORE.INTRA.VDW.0>
-0.838383

>  <SCORE.INTRA.norm>
-0.107901

>  <SCORE.RESTR>
0

>  <SCORE.RESTR.CAVITY>
0

>  <SCORE.RESTR.norm>
0

>  <SCORE.SYSTEM>
0

>  <SCORE.SYSTEM.CONST>
0

>  <SCORE.SYSTEM.DIHEDRAL>
0

>  <SCORE.SYSTEM.SOLV>
0

>  <SCORE.SYSTEM.norm>
0

>  <SCORE.heavy>
35

>  <SCORE.norm>
-0.227852

>  <RMSD>
3.502

$$$$
2o3v_lig
 OpenBabel02141814113D
libRbt.so/2013.1/901 2013/11/27
 35 37  0  0  0  0  0  0  0  0999 V2000
    2.2950   -8.6346   47.5909 C   0  0  2  0  0  0  0  0  0  0  0  0
    2.0866   -9.2147   46.2670 O   0  0  0  0  0  0  0  0  0  0  0  0
    5.6961   -8.2098   44.0559 C   0  0  2  0  0  0  0  0  0  0  0  0
    6.7185   -8.1637   42.9674 N   0  0  0  0  0  0  0  0  0  0  0  0
   -5.3871   -9.9339   43.6724 C   0  0  2  0  0  0  0  0  0  0  0  0
   -6.5462   -9.9815   44.5324 O   0  0  0  0  0  0  0  0  0  0  0  0
    0.9811   -9.0030   48.3500 C   0  0  2  0  0  0  0  0  0  0  0  0
    0.7787  -10.4705   48.3899 N   0  0  0  0  0  0  0  0  0  0  0  0
    5.5346   -9.6973   44.5913 C   0  0  0  0  0  0  0  0  0  0  0  0
   -4.1259  -10.1931   44.5672 C   0  0  2  0  0  0  0  0  0  0  0  0
   -4.2322  -11.4950   45.2733 N   0  0  0  0  0  0  0  0  0  0  0  0
   -0.2879   -8.3038   47.6939 C   0  0  1  0  0  0  0  0  0  0  0  0
   -1.5317   -8.7020   48.4029 O   0  0  0  0  0  0  0  0  0  0  0  0
    4.4343   -9.7206   45.7389 C   0  0  2  0  0  0  0  0  0  0  0  0
    4.2600  -11.0994   46.2437 N   0  0  0  0  0  0  0  0  0  0  0  0
   -3.8970   -9.0138   45.6121 C   0  0  1  0  0  0  0  0  0  0  0  0
   -2.7163   -9.2115   46.4316 O   0  0  0  0  0  0  0  0  0  0  0  0
   -0.0160   -6.7355   47.6849 C   0  0  2  0  0  0  0  0  0  0  0  0
   -1.0894   -6.0266   47.0922 O   0  0  0  0  0  0  0  0  0  0  0  0
    3.0579   -9.1723   45.1785 C   0  0  2  0  0  0  0  0  0  0  0  0
   -3.7774   -7.6706   44.8247 C   0  0  2  0  0  0  0  0  0  0  0  0
   -3.5829   -6.5818   45.7058 O   0  0  0  0  0  0  0  0  0  0  0  0
    1.3249   -6.4106   46.9232 C   0  0  2  0  0  0  0  0  0  0  0  0
    2.4433   -7.1540   47.5405 O   0  0  0  0  0  0  0  0  0  0  0  0
    3.2263   -7.7196   44.6515 C   0  0  2  0  0  0  0  0  0  0  0  0
    1.9381   -7.2985   44.1182 O   0  0  0  0  0  0  0  0  0  0  0  0
   -5.0648   -7.4508   43.9339 C   0  0  2  0  0  0  0  0  0  0  0  0
   -5.2614   -8.6012   43.0225 O   0  0  0  0  0  0  0  0  0  0  0  0
    1.6288   -4.9131   46.9322 C   0  0  0  0  0  0  0  0  0  0  0  0
    2.7987   -4.6290   46.2046 O   0  0  0  0  0  0  0  0  0  0  0  0
    4.2985   -7.6918   43.5371 C   0  0  1  0  0  0  0  0  0  0  0  0
    4.4358   -6.3626   43.0804 O   0  0  0  0  0  0  0  0  0  0  0  0
   -4.9744   -6.1732   43.1131 C   0  0  0  0  0  0  0  0  0  0  0  0
   -6.1782   -5.9486   42.4200 O   0  0  0  0  0  0  0  0  0  0  0  0
   -2.8016   -8.4024   47.6412 C   0  0  0  0  0  0  0  0  0  0  0  0
  1  2  1  6  0  0  0
  1  7  1  0  0  0  0
  1 24  1  0  0  0  0
  3  4  1  6  0  0  0
  3  9  1  0  0  0  0
  3 31  1  0  0  0  0
  5  6  1  1  0  0  0
  5 10  1  0  0  0  0
  5 28  1  0  0  0  0
  7  8  1  6  0  0  0
  7 12  1  0  0  0  0
  9 14  1  0  0  0  0
 10 11  1  1  0  0  0
 10 16  1  0  0  0  0
 12 13  1  1  0  0  0
 12 18  1  0  0  0  0
 13 35  1  0  0  0  0
 14 15  1  6  0  0  0
 14 20  1  0  0  0  0
 16 17  1  6  0  0  0
 16 21  1  0  0  0  0
 17 35  1  0  0  0  0
 18 19  1  6  0  0  0
 18 23  1  0  0  0  0
 20  2  1  1  0  0  0
 20 25  1  0  0  0  0
 21 22  1  1  0  0  0
 21 27  1  0  0  0  0
 23 24  1  0  0  0  0
 23 29  1  1  0  0  0
 25 26  1  6  0  0  0
 25 31  1  0  0  0  0
 27 28  1  0  0  0  0
 27 33  1  6  0  0  0
 29 30  1  0  0  0  0
 31 32  1  1  0  0  0
 33 34  1  0  0  0  0
M  END
>  <CHROM.1>
-178.39257432,-164.17393974,62.82641263,-160.08588088,179.64596102,52.12934118
-177.64408041,-175.03702401,-0.15725704,-8.13120700,45.53395289,0.04756034
0.06753880,2.13004600

>  <Name>
2o3v_lig

>  <RI>
0

>  <Rbt.Current_Directory>
/home/afrankz/demos/rdock_decoys_rna/rnas/2o3v

>  <Rbt.Executable>
rbdock ($Id: //depot/dev/client3/rdock/2013.1/src/exe/rbdock.cxx#4 $)

>  <Rbt.Library>
libRbt.so (2013.1, Build901 2013/11/27)

>  <Rbt.Parameter_File>
/export/apps/rDock/src/rDock_2013.1_src/data/scripts/dock_solv.prm

>  <Rbt.Receptor>
prm/pocket_docking_4.prm

>  <SCORE>
-10.8868

>  <SCORE.INTER>
-4.82967

>  <SCORE.INTER.CONST>
1

>  <SCORE.INTER.POLAR>
0

>  <SCORE.INTER.ROT>
8

>  <SCORE.INTER.SOLV>
9.55406

>  <SCORE.INTER.VDW>
-15.3378

>  <SCORE.INTER.norm>
-0.137991

>  <SCORE.INTRA>
-6.05718

>  <SCORE.INTRA.DIHEDRAL>
-9.65478

>  <SCORE.INTRA.DIHEDRAL.0>
13.1227

>  <SCORE.INTRA.POLAR>
0

>  <SCORE.INTRA.POLAR.0>
0

>  <SCORE.INTRA.REPUL>
0.0887658

>  <SCORE.INTRA.REPUL.0>
0

>  <SCORE.INTRA.SOLV>
0.694366

>  <SCORE.INTRA.SOLV.lig_0>
-89.1587

>  <SCORE.INTRA.VDW>
-2.0208

>  <SCORE.INTRA.VDW.0>
-0.838383

>  <SCORE.INTRA.norm>
-0.173062

>  <SCORE.RESTR>
0

>  <SCORE.RESTR.CAVITY>
0

>  <SCORE.RESTR.norm>
0

>  <SCORE.SYSTEM>
0

>  <SCORE.SYSTEM.CONST>
0

>  <SCORE.SYSTEM.DIHEDRAL>
0

>  <SCORE.SYSTEM.SOLV>
0

>  <SCORE.SYSTEM.norm>
0

>  <SCORE.heavy>
35

>  <SCORE.norm>
-0.311053

>  <RMSD>
3.503

$$$$
2o3v_lig
 OpenBabel02141814113D
libRbt.so/2013.1/901 2013/11/27
 35 37  0  0  0  0  0  0  0  0999 V2000
    2.7635   -8.3171   47.6427 C   0  0  2  0  0  0  0  0  0  0  0  0
    2.3970   -8.9387   46.3730 O   0  0  0  0  0  0  0  0  0  0  0  0
    5.7596   -8.0999   43.7431 C   0  0  2  0  0  0  0  0  0  0  0  0
    6.6465   -8.1014   42.5408 N   0  0  0  0  0  0  0  0  0  0  0  0
   -3.4759  -11.7512   44.8137 C   0  0  2  0  0  0  0  0  0  0  0  0
   -4.1360  -12.5388   45.8283 O   0  0  0  0  0  0  0  0  0  0  0  0
    1.5411   -8.6377   48.5600 C   0  0  2  0  0  0  0  0  0  0  0  0
    1.3265  -10.0995   48.6754 N   0  0  0  0  0  0  0  0  0  0  0  0
    5.5970   -9.5779   44.3039 C   0  0  0  0  0  0  0  0  0  0  0  0
   -2.4918  -10.7726   45.5433 C   0  0  2  0  0  0  0  0  0  0  0  0
   -1.5176  -11.5208   46.3776 N   0  0  0  0  0  0  0  0  0  0  0  0
    0.2138   -7.9407   48.0288 C   0  0  1  0  0  0  0  0  0  0  0  0
   -0.9450   -8.2938   48.8894 O   0  0  0  0  0  0  0  0  0  0  0  0
    4.6407   -9.5501   45.5740 C   0  0  2  0  0  0  0  0  0  0  0  0
    4.4666  -10.9190   46.1053 N   0  0  0  0  0  0  0  0  0  0  0  0
   -3.2756   -9.7070   46.4294 C   0  0  1  0  0  0  0  0  0  0  0  0
   -2.3901   -8.7669   47.0903 O   0  0  0  0  0  0  0  0  0  0  0  0
    0.5022   -6.3782   47.9324 C   0  0  2  0  0  0  0  0  0  0  0  0
   -0.6233   -5.6726   47.4414 O   0  0  0  0  0  0  0  0  0  0  0  0
    3.2332   -8.9416   45.1768 C   0  0  2  0  0  0  0  0  0  0  0  0
   -4.2754   -8.9373   45.5094 C   0  0  2  0  0  0  0  0  0  0  0  0
   -5.0102   -7.9807   46.2473 O   0  0  0  0  0  0  0  0  0  0  0  0
    1.7506   -6.1017   47.0110 C   0  0  2  0  0  0  0  0  0  0  0  0
    2.9233   -6.8418   47.5224 O   0  0  0  0  0  0  0  0  0  0  0  0
    3.4020   -7.4987   44.6236 C   0  0  2  0  0  0  0  0  0  0  0  0
    2.0796   -7.0212   44.2439 O   0  0  0  0  0  0  0  0  0  0  0  0
   -5.2442   -9.9594   44.7910 C   0  0  2  0  0  0  0  0  0  0  0  0
   -4.4621  -10.9599   44.0293 O   0  0  0  0  0  0  0  0  0  0  0  0
    2.0720   -4.6100   46.9314 C   0  0  0  0  0  0  0  0  0  0  0  0
    3.1541   -4.3702   46.0651 O   0  0  0  0  0  0  0  0  0  0  0  0
    4.3345   -7.5207   43.3899 C   0  0  1  0  0  0  0  0  0  0  0  0
    4.4755   -6.1997   42.9111 O   0  0  0  0  0  0  0  0  0  0  0  0
   -6.2100   -9.2576   43.8483 C   0  0  0  0  0  0  0  0  0  0  0  0
   -5.5037   -8.4930   42.9015 O   0  0  0  0  0  0  0  0  0  0  0  0
   -1.8471   -9.3570   48.3077 C   0  0  0  0  0  0  0  0  0  0  0  0
  1  2  1  6  0  0  0
  1  7  1  0  0  0  0
  1 24  1  0  0  0  0
  3  4  1  6  0  0  0
  3  9  1  0  0  0  0
  3 31  1  0  0  0  0
  5  6  1  1  0  0  0
  5 10  1  0  0  0  0
  5 28  1  0  0  0  0
  7  8  1  6  0  0  0
  7 12  1  0  0  0  0
  9 14  1  0  0  0  0
 10 11  1  1  0  0  0
 10 16  1  0  0  0  0
 12 13  1  1  0  0  0
 12 18  1  0  0  0  0
 13 35  1  0  0  0  0
 14 15  1  6  0  0  0
 14 20  1  0  0  0  0
 16 17  1  6  0  0  0
 16 21  1  0  0  0  0
 17 35  1  0  0  0  0
 18 19  1  6  0  0  0
 18 23  1  0  0  0  0
 20  2  1  1  0  0  0
 20 25  1  0  0  0  0
 21 22  1  1  0  0  0
 21 27  1  0  0  0  0
 23 24  1  0  0  0  0
 23 29  1  1  0  0  0
 25 26  1  6  0  0  0
 25 31  1  0  0  0  0
 27 28  1  0  0  0  0
 27 33  1  6  0  0  0
 29 30  1  0  0  0  0
 31 32  1  1  0  0  0
 33 34  1  0  0  0  0
M  END
>  <CHROM.1>
-178.83990649,-101.74327492,-63.32461852,-81.81712074,179.62741540,54.84480438
-177.66412778,56.25918644,0.28229184,-8.53100690,45.86366498,0.14131966,0.22363616
0.86405455

>  <Name>
2o3v_lig

>  <RI>
0

>  <Rbt.Current_Directory>
/home/afrankz/demos/rdock_decoys_rna/rnas/2o3v

>  <Rbt.Executable>
rbdock ($Id: //depot/dev/client3/rdock/2013.1/src/exe/rbdock.cxx#4 $)

>  <Rbt.Library>
libRbt.so (2013.1, Build901 2013/11/27)

>  <Rbt.Parameter_File>
/export/apps/rDock/src/rDock_2013.1_src/data/scripts/dock_solv.prm

>  <Rbt.Receptor>
prm/pocket_docking_4.prm

>  <SCORE>
-7.2888

>  <SCORE.INTER>
-3.28606

>  <SCORE.INTER.CONST>
1

>  <SCORE.INTER.POLAR>
0

>  <SCORE.INTER.ROT>
8

>  <SCORE.INTER.SOLV>
11.5789

>  <SCORE.INTER.VDW>
-14.9837

>  <SCORE.INTER.norm>
-0.0938875

>  <SCORE.INTRA>
-4.00274

>  <SCORE.INTRA.DIHEDRAL>
-5.04133

>  <SCORE.INTRA.DIHEDRAL.0>
13.1227

>  <SCORE.INTRA.POLAR>
0

>  <SCORE.INTRA.POLAR.0>
0

>  <SCORE.INTRA.REPUL>
0

>  <SCORE.INTRA.REPUL.0>
0

>  <SCORE.INTRA.SOLV>
2.50233

>  <SCORE.INTRA.SOLV.lig_0>
-89.1587

>  <SCORE.INTRA.VDW>
-2.73324

>  <SCORE.INTRA.VDW.0>
-0.838383

>  <SCORE.INTRA.norm>
-0.114364

>  <SCORE.RESTR>
0

>  <SCORE.RESTR.CAVITY>
0

>  <SCORE.RESTR.norm>
0

>  <SCORE.SYSTEM>
0

>  <SCORE.SYSTEM.CONST>
0

>  <SCORE.SYSTEM.DIHEDRAL>
0

>  <SCORE.SYSTEM.SOLV>
0

>  <SCORE.SYSTEM.norm>
0

>  <SCORE.heavy>
35

>  <SCORE.norm>
-0.208252

>  <RMSD>
3.529

$$$$
2o3v_lig
 OpenBabel02141814113D
libRbt.so/2013.1/901 2013/11/27
 35 37  0  0  0  0  0  0  0  0999 V2000
    2.8038   -9.5919   44.9503 C   0  0  2  0  0  0  0  0  0  0  0  0
    3.1099   -8.2079   44.5985 O   0  0  0  0  0  0  0  0  0  0  0  0
    6.3435   -6.4383   42.2878 C   0  0  2  0  0  0  0  0  0  0  0  0
    7.6896   -5.9020   41.9236 N   0  0  0  0  0  0  0  0  0  0  0  0
   -4.5436   -5.6492   45.5271 C   0  0  2  0  0  0  0  0  0  0  0  0
   -4.9649   -5.2991   46.8633 O   0  0  0  0  0  0  0  0  0  0  0  0
    1.4747   -9.4660   45.7601 C   0  0  2  0  0  0  0  0  0  0  0  0
    0.4107   -8.8297   44.9481 N   0  0  0  0  0  0  0  0  0  0  0  0
    5.7207   -5.5892   43.4779 C   0  0  0  0  0  0  0  0  0  0  0  0
   -3.5168   -6.8277   45.6506 C   0  0  2  0  0  0  0  0  0  0  0  0
   -4.1186   -7.9865   46.3576 N   0  0  0  0  0  0  0  0  0  0  0  0
    1.6863   -8.6450   47.1058 C   0  0  1  0  0  0  0  0  0  0  0  0
    0.4020   -8.4987   47.8389 O   0  0  0  0  0  0  0  0  0  0  0  0
    4.2958   -6.1869   43.8533 C   0  0  2  0  0  0  0  0  0  0  0  0
    3.7030   -5.4173   44.9681 N   0  0  0  0  0  0  0  0  0  0  0  0
   -2.1807   -6.3657   46.3829 C   0  0  1  0  0  0  0  0  0  0  0  0
   -1.1985   -7.4289   46.4813 O   0  0  0  0  0  0  0  0  0  0  0  0
    2.8309   -9.3769   47.9352 C   0  0  2  0  0  0  0  0  0  0  0  0
    3.1075   -8.6985   49.1472 O   0  0  0  0  0  0  0  0  0  0  0  0
    4.4405   -7.7097   44.2649 C   0  0  2  0  0  0  0  0  0  0  0  0
   -1.5780   -5.1577   45.5981 C   0  0  2  0  0  0  0  0  0  0  0  0
   -0.3903   -4.6963   46.2112 O   0  0  0  0  0  0  0  0  0  0  0  0
    4.1469   -9.4958   47.0763 C   0  0  2  0  0  0  0  0  0  0  0  0
    3.8559  -10.2005   45.8102 O   0  0  0  0  0  0  0  0  0  0  0  0
    5.0559   -8.5314   43.0977 C   0  0  2  0  0  0  0  0  0  0  0  0
    5.1956   -9.9055   43.5598 O   0  0  0  0  0  0  0  0  0  0  0  0
   -2.6451   -3.9960   45.4928 C   0  0  2  0  0  0  0  0  0  0  0  0
   -3.8862   -4.4946   44.8570 O   0  0  0  0  0  0  0  0  0  0  0  0
    5.2512  -10.2286   47.8369 C   0  0  0  0  0  0  0  0  0  0  0  0
    6.4462  -10.2545   47.0952 O   0  0  0  0  0  0  0  0  0  0  0  0
    6.4408   -7.9511   42.7269 C   0  0  1  0  0  0  0  0  0  0  0  0
    6.9746   -8.7105   41.6627 O   0  0  0  0  0  0  0  0  0  0  0  0
   -2.1171   -2.8121   44.6969 C   0  0  0  0  0  0  0  0  0  0  0  0
   -3.0546   -1.7628   44.6973 O   0  0  0  0  0  0  0  0  0  0  0  0
   -0.2996   -7.1819   47.6021 C   0  0  0  0  0  0  0  0  0  0  0  0
  1  2  1  1  0  0  0
  1  7  1  0  0  0  0
  1 24  1  0  0  0  0
  3  4  1  1  0  0  0
  3  9  1  0  0  0  0
  3 31  1  0  0  0  0
  5  6  1  1  0  0  0
  5 10  1  0  0  0  0
  5 28  1  0  0  0  0
  7  8  1  6  0  0  0
  7 12  1  0  0  0  0
  9 14  1  0  0  0  0
 10 11  1  1  0  0  0
 10 16  1  0  0  0  0
 12 13  1  1  0  0  0
 12 18  1  0  0  0  0
 13 35  1  0  0  0  0
 14 15  1  1  0  0  0
 14 20  1  0  0  0  0
 16 17  1  6  0  0  0
 16 21  1  0  0  0  0
 17 35  1  0  0  0  0
 18 19  1  1  0  0  0
 18 23  1  0  0  0  0
 20  2  1  6  0  0  0
 20 25  1  0  0  0  0
 21 22  1  1  0  0  0
 21 27  1  0  0  0  0
 23 24  1  0  0  0  0
 23 29  1  1  0  0  0
 25 26  1  1  0  0  0
 25 31  1  0  0  0  0
 27 28  1  0  0  0  0
 27 33  1  6  0  0  0
 29 30  1  0  0  0  0
 31 32  1  6  0  0  0
 33 34  1  0  0  0  0
M  END
>  <CHROM.1>
157.18170798,-97.45810150,91.99676612,-155.36230598,164.70920165,176.11277755
-176.25525257,-176.09519034,1.60863388,-7.24209972,45.40423013,0.15523453
-0.36360833,2.42649541

>  <Name>
2o3v_lig

>  <RI>
0

>  <Rbt.Current_Directory>
/home/afrankz/demos/rdock_decoys_rna/rnas/2o3v

>  <Rbt.Executable>
rbdock ($Id: //depot/dev/client3/rdock/2013.1/src/exe/rbdock.cxx#4 $)

>  <Rbt.Library>
libRbt.so (2013.1, Build901 2013/11/27)

>  <Rbt.Parameter_File>
/export/apps/rDock/src/rDock_2013.1_src/data/scripts/dock_solv.prm

>  <Rbt.Receptor>
prm/pocket_docking_6.prm

>  <SCORE>
-8.46972

>  <SCORE.INTER>
-8.34128

>  <SCORE.INTER.CONST>
1

>  <SCORE.INTER.POLAR>
0

>  <SCORE.INTER.ROT>
8

>  <SCORE.INTER.SOLV>
15.6554

>  <SCORE.INTER.VDW>
-19.7127

>  <SCORE.INTER.norm>
-0.238322

>  <SCORE.INTRA>
-0.128437

>  <SCORE.INTRA.DIHEDRAL>
2.01263

>  <SCORE.INTRA.DIHEDRAL.0>
13.1227

>  <SCORE.INTRA.POLAR>
0

>  <SCORE.INTRA.POLAR.0>
0

>  <SCORE.INTRA.REPUL>
0.0148627

>  <SCORE.INTRA.REPUL.0>
0

>  <SCORE.INTRA.SOLV>
0.873023

>  <SCORE.INTRA.SOLV.lig_0>
-89.1587

>  <SCORE.INTRA.VDW>
-1.64558

>  <SCORE.INTRA.VDW.0>
-0.838383

>  <SCORE.INTRA.norm>
-0.00366962

>  <SCORE.RESTR>
0

>  <SCORE.RESTR.CAVITY>
0

>  <SCORE.RESTR.norm>
0

>  <SCORE.SYSTEM>
0

>  <SCORE.SYSTEM.CONST>
0

>  <SCORE.SYSTEM.DIHEDRAL>
0

>  <SCORE.SYSTEM.SOLV>
0

>  <SCORE.SYSTEM.norm>
0

>  <SCORE.heavy>
35

>  <SCORE.norm>
-0.241992

>  <RMSD>
3.550

$$$$
2o3v_lig
 OpenBabel02141814113D
libRbt.so/2013.1/901 2013/11/27
 35 37  0  0  0  0  0  0  0  0999 V2000
    0.2817   -8.3336   44.1470 C   0  0  2  0  0  0  0  0  0  0  0  0
    1.6024   -8.0522   44.7030 O   0  0  0  0  0  0  0  0  0  0  0  0
    5.8840   -8.1356   43.9361 C   0  0  2  0  0  0  0  0  0  0  0  0
    7.1924   -8.3769   43.2563 N   0  0  0  0  0  0  0  0  0  0  0  0
   -7.3638   -5.8018   46.7109 C   0  0  2  0  0  0  0  0  0  0  0  0
   -7.4273   -5.8224   45.2683 O   0  0  0  0  0  0  0  0  0  0  0  0
   -0.5790   -7.1330   44.6532 C   0  0  2  0  0  0  0  0  0  0  0  0
   -0.0220   -5.8408   44.1883 N   0  0  0  0  0  0  0  0  0  0  0  0
    5.1428   -9.5162   44.2005 C   0  0  0  0  0  0  0  0  0  0  0  0
   -5.8550   -5.6622   47.1139 C   0  0  2  0  0  0  0  0  0  0  0  0
   -5.2561   -4.4398   46.5208 N   0  0  0  0  0  0  0  0  0  0  0  0
   -0.6972   -7.1270   46.2392 C   0  0  1  0  0  0  0  0  0  0  0  0
   -1.4819   -5.9532   46.7027 O   0  0  0  0  0  0  0  0  0  0  0  0
    3.7502   -9.2308   44.9131 C   0  0  2  0  0  0  0  0  0  0  0  0
    3.0381  -10.5033   45.1581 N   0  0  0  0  0  0  0  0  0  0  0  0
   -5.0157   -6.9487   46.6952 C   0  0  1  0  0  0  0  0  0  0  0  0
   -3.6214   -6.8608   47.0863 O   0  0  0  0  0  0  0  0  0  0  0  0
   -1.3048   -8.5316   46.6768 C   0  0  2  0  0  0  0  0  0  0  0  0
   -1.4247   -8.6286   48.0847 O   0  0  0  0  0  0  0  0  0  0  0  0
    2.8640   -8.2816   44.0060 C   0  0  2  0  0  0  0  0  0  0  0  0
   -5.6727   -8.2041   47.3518 C   0  0  2  0  0  0  0  0  0  0  0  0
   -4.9729   -9.3828   47.0048 O   0  0  0  0  0  0  0  0  0  0  0  0
   -0.4150   -9.7132   46.1331 C   0  0  2  0  0  0  0  0  0  0  0  0
   -0.2876   -9.6083   44.6643 O   0  0  0  0  0  0  0  0  0  0  0  0
    3.5990   -6.9365   43.7474 C   0  0  2  0  0  0  0  0  0  0  0  0
    2.7472   -6.1358   42.8788 O   0  0  0  0  0  0  0  0  0  0  0  0
   -7.1913   -8.3044   46.9240 C   0  0  2  0  0  0  0  0  0  0  0  0
   -7.9101   -7.0611   47.2853 O   0  0  0  0  0  0  0  0  0  0  0  0
   -0.9974  -11.0752   46.5081 C   0  0  0  0  0  0  0  0  0  0  0  0
   -2.2616  -11.2649   45.9211 O   0  0  0  0  0  0  0  0  0  0  0  0
    4.9559   -7.2097   43.0573 C   0  0  1  0  0  0  0  0  0  0  0  0
    5.6045   -5.9745   42.8391 O   0  0  0  0  0  0  0  0  0  0  0  0
   -7.8863   -9.4903   47.5756 C   0  0  0  0  0  0  0  0  0  0  0  0
   -9.2264   -9.5668   47.1534 O   0  0  0  0  0  0  0  0  0  0  0  0
   -2.9115   -5.9324   46.2150 C   0  0  0  0  0  0  0  0  0  0  0  0
  1  2  1  1  0  0  0
  1  7  1  0  0  0  0
  1 24  1  0  0  0  0
  3  4  1  6  0  0  0
  3  9  1  0  0  0  0
  3 31  1  0  0  0  0
  5  6  1  6  0  0  0
  5 10  1  0  0  0  0
  5 28  1  0  0  0  0
  7  8  1  1  0  0  0
  7 12  1  0  0  0  0
  9 14  1  0  0  0  0
 10 11  1  6  0  0  0
 10 16  1  0  0  0  0
 12 13  1  6  0  0  0
 12 18  1  0  0  0  0
 13 35  1  0  0  0  0
 14 15  1  6  0  0  0
 14 20  1  0  0  0  0
 16 17  1  1  0  0  0
 16 21  1  0  0  0  0
 17 35  1  0  0  0  0
 18 19  1  1  0  0  0
 18 23  1  0  0  0  0
 20  2  1  1  0  0  0
 20 25  1  0  0  0  0
 21 22  1  6  0  0  0
 21 27  1  0  0  0  0
 23 24  1  0  0  0  0
 23 29  1  6  0  0  0
 25 26  1  6  0  0  0
 25 31  1  0  0  0  0
 27 28  1  0  0  0  0
 27 33  1  1  0  0  0
 29 30  1  0  0  0  0
 31 32  1  1  0  0  0
 33 34  1  0  0  0  0
M  END
>  <CHROM.1>
-141.08897991,62.32394300,79.15685778,-74.28815524,-178.83670809,-123.77170719
62.89842870,-178.79965920,-1.29875058,-7.86311130,45.59950112,-0.02578207
-0.27618526,2.90026342

>  <Name>
2o3v_lig

>  <RI>
0

>  <Rbt.Current_Directory>
/home/afrankz/demos/rdock_decoys_rna/rnas/2o3v

>  <Rbt.Executable>
rbdock ($Id: //depot/dev/client3/rdock/2013.1/src/exe/rbdock.cxx#4 $)

>  <Rbt.Library>
libRbt.so (2013.1, Build901 2013/11/27)

>  <Rbt.Parameter_File>
/export/apps/rDock/src/rDock_2013.1_src/data/scripts/dock_solv.prm

>  <Rbt.Receptor>
prm/pocket_docking_3.prm

>  <SCORE>
-1.59903

>  <SCORE.INTER>
-2.64945

>  <SCORE.INTER.CONST>
1

>  <SCORE.INTER.POLAR>
-0.0902599

>  <SCORE.INTER.ROT>
8

>  <SCORE.INTER.SOLV>
11.4775

>  <SCORE.INTER.VDW>
-14.2246

>  <SCORE.INTER.norm>
-0.0756987

>  <SCORE.INTRA>
1.04178

>  <SCORE.INTRA.DIHEDRAL>
1.94763

>  <SCORE.INTRA.DIHEDRAL.0>
13.1227

>  <SCORE.INTRA.POLAR>
0

>  <SCORE.INTRA.POLAR.0>
0

>  <SCORE.INTRA.REPUL>
0

>  <SCORE.INTRA.REPUL.0>
0

>  <SCORE.INTRA.SOLV>
3.54893

>  <SCORE.INTRA.SOLV.lig_0>
-89.1587

>  <SCORE.INTRA.VDW>
-1.7065

>  <SCORE.INTRA.VDW.0>
-0.838383

>  <SCORE.INTRA.norm>
0.0297651

>  <SCORE.RESTR>
0.0086433

>  <SCORE.RESTR.CAVITY>
0.0086433

>  <SCORE.RESTR.norm>
0.000246951

>  <SCORE.SYSTEM>
0

>  <SCORE.SYSTEM.CONST>
0

>  <SCORE.SYSTEM.DIHEDRAL>
0

>  <SCORE.SYSTEM.SOLV>
0

>  <SCORE.SYSTEM.norm>
0

>  <SCORE.heavy>
35

>  <SCORE.norm>
-0.0456867

>  <RMSD>
3.615

$$$$
2o3v_lig
 OpenBabel02141814113D
libRbt.so/2013.1/901 2013/11/27
 35 37  0  0  0  0  0  0  0  0999 V2000
    3.7234   -5.1748   46.2412 C   0  0  2  0  0  0  0  0  0  0  0  0
    3.7008   -6.2761   45.2824 O   0  0  0  0  0  0  0  0  0  0  0  0
    6.5011   -7.6186   42.2355 C   0  0  2  0  0  0  0  0  0  0  0  0
    7.7126   -8.2135   41.5949 N   0  0  0  0  0  0  0  0  0  0  0  0
   -4.7259   -7.5717   44.1138 C   0  0  2  0  0  0  0  0  0  0  0  0
   -5.7284   -8.0797   45.0206 O   0  0  0  0  0  0  0  0  0  0  0  0
    2.3702   -5.3401   47.0027 C   0  0  2  0  0  0  0  0  0  0  0  0
    2.2805   -6.6684   47.6537 N   0  0  0  0  0  0  0  0  0  0  0  0
    6.9139   -6.3780   43.1388 C   0  0  0  0  0  0  0  0  0  0  0  0
   -3.4294   -7.2962   44.9514 C   0  0  2  0  0  0  0  0  0  0  0  0
   -2.9705   -8.5274   45.6430 N   0  0  0  0  0  0  0  0  0  0  0  0
    1.1260   -5.1319   46.0342 C   0  0  1  0  0  0  0  0  0  0  0  0
   -0.1502   -5.3370   46.7675 O   0  0  0  0  0  0  0  0  0  0  0  0
    5.6099   -5.7715   43.8171 C   0  0  2  0  0  0  0  0  0  0  0  0
    5.9737   -4.6214   44.6723 N   0  0  0  0  0  0  0  0  0  0  0  0
   -3.6502   -6.1208   46.0024 C   0  0  1  0  0  0  0  0  0  0  0  0
   -2.4553   -5.8218   46.7690 O   0  0  0  0  0  0  0  0  0  0  0  0
    1.2735   -3.6919   45.3721 C   0  0  2  0  0  0  0  0  0  0  0  0
    0.2157   -3.4259   44.4686 O   0  0  0  0  0  0  0  0  0  0  0  0
    4.8862   -6.8821   44.6843 C   0  0  2  0  0  0  0  0  0  0  0  0
   -4.1173   -4.8467   45.2296 C   0  0  2  0  0  0  0  0  0  0  0  0
   -4.3401   -3.7685   46.1170 O   0  0  0  0  0  0  0  0  0  0  0  0
    2.6571   -3.5637   44.6286 C   0  0  2  0  0  0  0  0  0  0  0  0
    3.7596   -3.8454   45.5718 O   0  0  0  0  0  0  0  0  0  0  0  0
    4.4915   -8.0941   43.7945 C   0  0  2  0  0  0  0  0  0  0  0  0
    3.8710   -9.0862   44.6616 O   0  0  0  0  0  0  0  0  0  0  0  0
   -5.4216   -5.1687   44.3964 C   0  0  2  0  0  0  0  0  0  0  0  0
   -5.1771   -6.3043   43.4779 O   0  0  0  0  0  0  0  0  0  0  0  0
    2.8400   -2.1763   44.0151 C   0  0  0  0  0  0  0  0  0  0  0  0
    1.9537   -1.9761   42.9412 O   0  0  0  0  0  0  0  0  0  0  0  0
    5.7568   -8.6851   43.1298 C   0  0  1  0  0  0  0  0  0  0  0  0
    5.3707   -9.7788   42.3244 O   0  0  0  0  0  0  0  0  0  0  0  0
   -5.8903   -3.9667   43.5906 C   0  0  0  0  0  0  0  0  0  0  0  0
   -7.1105   -4.2505   42.9499 O   0  0  0  0  0  0  0  0  0  0  0  0
   -1.3657   -5.4450   45.8769 C   0  0  0  0  0  0  0  0  0  0  0  0
  1  2  1  6  0  0  0
  1  7  1  0  0  0  0
  1 24  1  0  0  0  0
  3  4  1  1  0  0  0
  3  9  1  0  0  0  0
  3 31  1  0  0  0  0
  5  6  1  1  0  0  0
  5 10  1  0  0  0  0
  5 28  1  0  0  0  0
  7  8  1  6  0  0  0
  7 12  1  0  0  0  0
  9 14  1  0  0  0  0
 10 11  1  1  0  0  0
 10 16  1  0  0  0  0
 12 13  1  1  0  0  0
 12 18  1  0  0  0  0
 13 35  1  0  0  0  0
 14 15  1  1  0  0  0
 14 20  1  0  0  0  0
 16 17  1  6  0  0  0
 16 21  1  0  0  0  0
 17 35  1  0  0  0  0
 18 19  1  6  0  0  0
 18 23  1  0  0  0  0
 20  2  1  6  0  0  0
 20 25  1  0  0  0  0
 21 22  1  1  0  0  0
 21 27  1  0  0  0  0
 23 24  1  0  0  0  0
 23 29  1  1  0  0  0
 25 26  1  1  0  0  0
 25 31  1  0  0  0  0
 27 28  1  0  0  0  0
 27 33  1  6  0  0  0
 29 30  1  0  0  0  0
 31 32  1  6  0  0  0
 33 34  1  0  0  0  0
M  END
>  <CHROM.1>
-155.85884847,-167.87707006,172.43921501,58.64143875,-172.87452519,-63.47130811
-68.75937094,-175.12594991,0.68404347,-5.83880528,44.68824983,-0.12709108
0.07002388,0.20670791

>  <Name>
2o3v_lig

>  <RI>
0

>  <Rbt.Current_Directory>
/home/afrankz/demos/rdock_decoys_rna/rnas/2o3v

>  <Rbt.Executable>
rbdock ($Id: //depot/dev/client3/rdock/2013.1/src/exe/rbdock.cxx#4 $)

>  <Rbt.Library>
libRbt.so (2013.1, Build901 2013/11/27)

>  <Rbt.Parameter_File>
/export/apps/rDock/src/rDock_2013.1_src/data/scripts/dock_solv.prm

>  <Rbt.Receptor>
prm/pocket_docking_4.prm

>  <SCORE>
-10.8142

>  <SCORE.INTER>
-8.12394

>  <SCORE.INTER.CONST>
1

>  <SCORE.INTER.POLAR>
0

>  <SCORE.INTER.ROT>
8

>  <SCORE.INTER.SOLV>
19.2771

>  <SCORE.INTER.VDW>
-20.775

>  <SCORE.INTER.norm>
-0.232113

>  <SCORE.INTRA>
-2.7153

>  <SCORE.INTRA.DIHEDRAL>
-8.9195

>  <SCORE.INTRA.DIHEDRAL.0>
13.1227

>  <SCORE.INTRA.POLAR>
0

>  <SCORE.INTRA.POLAR.0>
0

>  <SCORE.INTRA.REPUL>
0

>  <SCORE.INTRA.REPUL.0>
0

>  <SCORE.INTRA.SOLV>
1.83161

>  <SCORE.INTRA.SOLV.lig_0>
-89.1587

>  <SCORE.INTRA.VDW>
0.82864

>  <SCORE.INTRA.VDW.0>
-0.838383

>  <SCORE.INTRA.norm>
-0.0775801

>  <SCORE.RESTR>
0.0250518

>  <SCORE.RESTR.CAVITY>
0.0250518

>  <SCORE.RESTR.norm>
0.000715765

>  <SCORE.SYSTEM>
0

>  <SCORE.SYSTEM.CONST>
0

>  <SCORE.SYSTEM.DIHEDRAL>
0

>  <SCORE.SYSTEM.SOLV>
0

>  <SCORE.SYSTEM.norm>
0

>  <SCORE.heavy>
35

>  <SCORE.norm>
-0.308977

>  <RMSD>
3.634

$$$$
2o3v_lig
 OpenBabel02141814113D
libRbt.so/2013.1/901 2013/11/27
 35 37  0  0  0  0  0  0  0  0999 V2000
    2.6362   -4.4885   47.0908 C   0  0  2  0  0  0  0  0  0  0  0  0
    3.0868   -5.7788   46.5762 O   0  0  0  0  0  0  0  0  0  0  0  0
    7.4259   -5.4725   46.5008 C   0  0  2  0  0  0  0  0  0  0  0  0
    8.8660   -5.8490   46.3728 N   0  0  0  0  0  0  0  0  0  0  0  0
   -3.3558   -9.2460   47.3305 C   0  0  2  0  0  0  0  0  0  0  0  0
   -2.3115   -8.9579   48.2855 O   0  0  0  0  0  0  0  0  0  0  0  0
    1.1046   -4.7069   47.3030 C   0  0  2  0  0  0  0  0  0  0  0  0
    0.8478   -5.8233   48.2433 N   0  0  0  0  0  0  0  0  0  0  0  0
    6.7522   -6.2849   47.6889 C   0  0  0  0  0  0  0  0  0  0  0  0
   -3.1440   -8.2972   46.1004 C   0  0  2  0  0  0  0  0  0  0  0  0
   -1.7941   -8.4834   45.5104 N   0  0  0  0  0  0  0  0  0  0  0  0
    0.3578   -4.9824   45.9261 C   0  0  1  0  0  0  0  0  0  0  0  0
   -1.0893   -5.2314   46.1545 O   0  0  0  0  0  0  0  0  0  0  0  0
    5.2196   -5.8749   47.7961 C   0  0  2  0  0  0  0  0  0  0  0  0
    4.5703   -6.6291   48.8897 N   0  0  0  0  0  0  0  0  0  0  0  0
   -3.3708   -6.7709   46.4923 C   0  0  1  0  0  0  0  0  0  0  0  0
   -3.2137   -5.8725   45.3641 O   0  0  0  0  0  0  0  0  0  0  0  0
    0.6639   -3.7520   44.9638 C   0  0  2  0  0  0  0  0  0  0  0  0
    0.0558   -3.9215   43.6960 O   0  0  0  0  0  0  0  0  0  0  0  0
    4.4843   -6.1712   46.4246 C   0  0  2  0  0  0  0  0  0  0  0  0
   -4.8043   -6.6217   47.0936 C   0  0  2  0  0  0  0  0  0  0  0  0
   -5.0590   -5.2830   47.4713 O   0  0  0  0  0  0  0  0  0  0  0  0
    2.2183   -3.5586   44.7900 C   0  0  2  0  0  0  0  0  0  0  0  0
    2.8519   -3.3857   46.1141 O   0  0  0  0  0  0  0  0  0  0  0  0
    5.1533   -5.3776   45.2674 C   0  0  2  0  0  0  0  0  0  0  0  0
    4.4544   -5.7285   44.0388 O   0  0  0  0  0  0  0  0  0  0  0  0
   -4.9768   -7.5969   48.3259 C   0  0  2  0  0  0  0  0  0  0  0  0
   -4.6990   -8.9933   47.9188 O   0  0  0  0  0  0  0  0  0  0  0  0
    2.5403   -2.3594   43.8994 C   0  0  0  0  0  0  0  0  0  0  0  0
    3.9294   -2.2038   43.7415 O   0  0  0  0  0  0  0  0  0  0  0  0
    6.6454   -5.7709   45.1619 C   0  0  1  0  0  0  0  0  0  0  0  0
    7.2299   -5.0333   44.1091 O   0  0  0  0  0  0  0  0  0  0  0  0
   -6.3754   -7.5184   48.9190 C   0  0  0  0  0  0  0  0  0  0  0  0
   -7.3321   -7.9433   47.9787 O   0  0  0  0  0  0  0  0  0  0  0  0
   -1.8140   -5.8095   44.9616 C   0  0  0  0  0  0  0  0  0  0  0  0
  1  2  1  6  0  0  0
  1  7  1  0  0  0  0
  1 24  1  0  0  0  0
  3  4  1  6  0  0  0
  3  9  1  0  0  0  0
  3 31  1  0  0  0  0
  5  6  1  1  0  0  0
  5 10  1  0  0  0  0
  5 28  1  0  0  0  0
  7  8  1  1  0  0  0
  7 12  1  0  0  0  0
  9 14  1  0  0  0  0
 10 11  1  1  0  0  0
 10 16  1  0  0  0  0
 12 13  1  1  0  0  0
 12 18  1  0  0  0  0
 13 35  1  0  0  0  0
 14 15  1  1  0  0  0
 14 20  1  0  0  0  0
 16 17  1  6  0  0  0
 16 21  1  0  0  0  0
 17 35  1  0  0  0  0
 18 19  1  6  0  0  0
 18 23  1  0  0  0  0
 20  2  1  1  0  0  0
 20 25  1  0  0  0  0
 21 22  1  1  0  0  0
 21 27  1  0  0  0  0
 23 24  1  0  0  0  0
 23 29  1  6  0  0  0
 25 26  1  6  0  0  0
 25 31  1  0  0  0  0
 27 28  1  0  0  0  0
 27 33  1  6  0  0  0
 29 30  1  0  0  0  0
 31 32  1  6  0  0  0
 33 34  1  0  0  0  0
M  END
>  <CHROM.1>
-169.24554665,-166.66393909,-175.67941288,-69.92976157,-62.77501385,50.26947512
-179.46447738,63.32619589,0.73792818,-5.86947855,46.33547815,0.27441775,-0.03328325
-0.71088123

>  <Name>
2o3v_lig

>  <RI>
0

>  <Rbt.Current_Directory>
/home/afrankz/demos/rdock_decoys_rna/rnas/2o3v

>  <Rbt.Executable>
rbdock ($Id: //depot/dev/client3/rdock/2013.1/src/exe/rbdock.cxx#4 $)

>  <Rbt.Library>
libRbt.so (2013.1, Build901 2013/11/27)

>  <Rbt.Parameter_File>
/export/apps/rDock/src/rDock_2013.1_src/data/scripts/dock_solv.prm

>  <Rbt.Receptor>
prm/pocket_docking_5.prm

>  <SCORE>
-13.0577

>  <SCORE.INTER>
-7.77951

>  <SCORE.INTER.CONST>
1

>  <SCORE.INTER.POLAR>
-0.959166

>  <SCORE.INTER.ROT>
8

>  <SCORE.INTER.SOLV>
11.0689

>  <SCORE.INTER.VDW>
-14.6121

>  <SCORE.INTER.norm>
-0.222272

>  <SCORE.INTRA>
-5.27818

>  <SCORE.INTRA.DIHEDRAL>
-10.5709

>  <SCORE.INTRA.DIHEDRAL.0>
13.1227

>  <SCORE.INTRA.POLAR>
0

>  <SCORE.INTRA.POLAR.0>
0

>  <SCORE.INTRA.REPUL>
0

>  <SCORE.INTRA.REPUL.0>
0

>  <SCORE.INTRA.SOLV>
2.25989

>  <SCORE.INTRA.SOLV.lig_0>
-89.1587

>  <SCORE.INTRA.VDW>
-1.12265

>  <SCORE.INTRA.VDW.0>
-0.838383

>  <SCORE.INTRA.norm>
-0.150805

>  <SCORE.RESTR>
0

>  <SCORE.RESTR.CAVITY>
0

>  <SCORE.RESTR.norm>
0

>  <SCORE.SYSTEM>
0

>  <SCORE.SYSTEM.CONST>
0

>  <SCORE.SYSTEM.DIHEDRAL>
0

>  <SCORE.SYSTEM.SOLV>
0

>  <SCORE.SYSTEM.norm>
0

>  <SCORE.heavy>
35

>  <SCORE.norm>
-0.373077

>  <RMSD>
3.654

$$$$
2o3v_lig
 OpenBabel02141814113D
libRbt.so/2013.1/901 2013/11/27
 35 37  0  0  0  0  0  0  0  0999 V2000
    0.7936   -7.8361   43.8515 C   0  0  2  0  0  0  0  0  0  0  0  0
    0.8638   -6.6736   44.7326 O   0  0  0  0  0  0  0  0  0  0  0  0
    3.4262   -3.8620   42.6216 C   0  0  2  0  0  0  0  0  0  0  0  0
    4.1664   -2.6111   42.2760 N   0  0  0  0  0  0  0  0  0  0  0  0
   -4.7797  -10.4772   51.1378 C   0  0  2  0  0  0  0  0  0  0  0  0
   -3.9646   -9.7693   52.0970 O   0  0  0  0  0  0  0  0  0  0  0  0
   -0.1270   -8.8220   44.6383 C   0  0  2  0  0  0  0  0  0  0  0  0
   -1.4548   -8.2194   44.9032 N   0  0  0  0  0  0  0  0  0  0  0  0
    1.8615   -3.5846   42.6368 C   0  0  0  0  0  0  0  0  0  0  0  0
   -3.8169  -11.0898   50.0626 C   0  0  2  0  0  0  0  0  0  0  0  0
   -2.8124  -11.9825   50.6941 N   0  0  0  0  0  0  0  0  0  0  0  0
    0.5398   -9.2754   46.0092 C   0  0  1  0  0  0  0  0  0  0  0  0
   -0.3701  -10.1771   46.7624 O   0  0  0  0  0  0  0  0  0  0  0  0
    1.0989   -4.9268   43.0180 C   0  0  2  0  0  0  0  0  0  0  0  0
   -0.3599   -4.6875   43.0492 N   0  0  0  0  0  0  0  0  0  0  0  0
   -3.0923   -9.9559   49.2117 C   0  0  1  0  0  0  0  0  0  0  0  0
   -2.2197  -10.4955   48.1860 O   0  0  0  0  0  0  0  0  0  0  0  0
    1.9538   -9.9182   45.6613 C   0  0  2  0  0  0  0  0  0  0  0  0
    2.6370  -10.3322   46.8308 O   0  0  0  0  0  0  0  0  0  0  0  0
    1.5917   -5.4450   44.4315 C   0  0  2  0  0  0  0  0  0  0  0  0
   -4.1855   -9.0531   48.5571 C   0  0  2  0  0  0  0  0  0  0  0  0
   -3.5979   -8.0175   47.7943 O   0  0  0  0  0  0  0  0  0  0  0  0
    2.8431   -8.8965   44.8557 C   0  0  2  0  0  0  0  0  0  0  0  0
    2.1273   -8.4625   43.6376 O   0  0  0  0  0  0  0  0  0  0  0  0
    3.1237   -5.7078   44.4095 C   0  0  2  0  0  0  0  0  0  0  0  0
    3.5098   -6.1405   45.7454 O   0  0  0  0  0  0  0  0  0  0  0  0
   -5.1354   -8.4606   49.6733 C   0  0  2  0  0  0  0  0  0  0  0  0
   -5.7370   -9.5546   50.4696 O   0  0  0  0  0  0  0  0  0  0  0  0
    4.1936   -9.5026   44.4765 C   0  0  0  0  0  0  0  0  0  0  0  0
    4.9303   -8.6269   43.6584 O   0  0  0  0  0  0  0  0  0  0  0  0
    3.8693   -4.4054   44.0355 C   0  0  1  0  0  0  0  0  0  0  0  0
    5.2559   -4.6722   44.0171 O   0  0  0  0  0  0  0  0  0  0  0  0
   -6.2453   -7.6074   49.0782 C   0  0  0  0  0  0  0  0  0  0  0  0
   -5.7078   -6.4615   48.4634 O   0  0  0  0  0  0  0  0  0  0  0  0
   -1.3134   -9.4618   47.7009 C   0  0  0  0  0  0  0  0  0  0  0  0
  1  2  1  1  0  0  0
  1  7  1  0  0  0  0
  1 24  1  0  0  0  0
  3  4  1  1  0  0  0
  3  9  1  0  0  0  0
  3 31  1  0  0  0  0
  5  6  1  1  0  0  0
  5 10  1  0  0  0  0
  5 28  1  0  0  0  0
  7  8  1  1  0  0  0
  7 12  1  0  0  0  0
  9 14  1  0  0  0  0
 10 11  1  1  0  0  0
 10 16  1  0  0  0  0
 12 13  1  6  0  0  0
 12 18  1  0  0  0  0
 13 35  1  0  0  0  0
 14 15  1  1  0  0  0
 14 20  1  0  0  0  0
 16 17  1  6  0  0  0
 16 21  1  0  0  0  0
 17 35  1  0  0  0  0
 18 19  1  1  0  0  0
 18 23  1  0  0  0  0
 20  2  1  6  0  0  0
 20 25  1  0  0  0  0
 21 22  1  1  0  0  0
 21 27  1  0  0  0  0
 23 24  1  0  0  0  0
 23 29  1  6  0  0  0
 25 26  1  1  0  0  0
 25 31  1  0  0  0  0
 27 28  1  0  0  0  0
 27 33  1  6  0  0  0
 29 30  1  0  0  0  0
 31 32  1  6  0  0  0
 33 34  1  0  0  0  0
M  END
>  <CHROM.1>
-178.54085134,-89.58815722,172.44809520,-164.06687055,173.97723786,53.44877219
174.78306736,-65.34604926,-0.17741797,-7.88171032,46.30037374,-0.65066321
-0.43888163,2.64183428

>  <Name>
2o3v_lig

>  <RI>
0

>  <Rbt.Current_Directory>
/home/afrankz/demos/rdock_decoys_rna/rnas/2o3v

>  <Rbt.Executable>
rbdock ($Id: //depot/dev/client3/rdock/2013.1/src/exe/rbdock.cxx#4 $)

>  <Rbt.Library>
libRbt.so (2013.1, Build901 2013/11/27)

>  <Rbt.Parameter_File>
/export/apps/rDock/src/rDock_2013.1_src/data/scripts/dock_solv.prm

>  <Rbt.Receptor>
prm/pocket_docking_5.prm

>  <SCORE>
-9.32882

>  <SCORE.INTER>
-5.76197

>  <SCORE.INTER.CONST>
1

>  <SCORE.INTER.POLAR>
-0.76047

>  <SCORE.INTER.ROT>
8

>  <SCORE.INTER.SOLV>
10.7406

>  <SCORE.INTER.VDW>
-13.82

>  <SCORE.INTER.norm>
-0.164628

>  <SCORE.INTRA>
-3.56685

>  <SCORE.INTRA.DIHEDRAL>
-7.50645

>  <SCORE.INTRA.DIHEDRAL.0>
13.1227

>  <SCORE.INTRA.POLAR>
0

>  <SCORE.INTRA.POLAR.0>
0

>  <SCORE.INTRA.REPUL>
0.15368

>  <SCORE.INTRA.REPUL.0>
0

>  <SCORE.INTRA.SOLV>
1.33857

>  <SCORE.INTRA.SOLV.lig_0>
-89.1587

>  <SCORE.INTRA.VDW>
-1.25132

>  <SCORE.INTRA.VDW.0>
-0.838383

>  <SCORE.INTRA.norm>
-0.10191

>  <SCORE.RESTR>
0

>  <SCORE.RESTR.CAVITY>
0

>  <SCORE.RESTR.norm>
0

>  <SCORE.SYSTEM>
0

>  <SCORE.SYSTEM.CONST>
0

>  <SCORE.SYSTEM.DIHEDRAL>
0

>  <SCORE.SYSTEM.SOLV>
0

>  <SCORE.SYSTEM.norm>
0

>  <SCORE.heavy>
35

>  <SCORE.norm>
-0.266538

>  <RMSD>
3.659

$$$$
2o3v_lig
 OpenBabel02141814113D
libRbt.so/2013.1/901 2013/11/27
 35 37  0  0  0  0  0  0  0  0999 V2000
    3.6274   -6.7513   46.5690 C   0  0  2  0  0  0  0  0  0  0  0  0
    3.2886   -7.4328   45.3225 O   0  0  0  0  0  0  0  0  0  0  0  0
    6.8312   -7.3231   42.7995 C   0  0  2  0  0  0  0  0  0  0  0  0
    7.6995   -7.3253   41.5837 N   0  0  0  0  0  0  0  0  0  0  0  0
   -5.2784   -9.7252   47.6293 C   0  0  2  0  0  0  0  0  0  0  0  0
   -4.9255  -10.3566   46.3793 O   0  0  0  0  0  0  0  0  0  0  0  0
    2.7327   -7.4762   47.6236 C   0  0  2  0  0  0  0  0  0  0  0  0
    3.0227   -8.9290   47.6646 N   0  0  0  0  0  0  0  0  0  0  0  0
    6.0204   -8.6865   42.8945 C   0  0  0  0  0  0  0  0  0  0  0  0
   -4.0417   -8.8825   48.0968 C   0  0  2  0  0  0  0  0  0  0  0  0
   -3.6573   -7.8842   47.0670 N   0  0  0  0  0  0  0  0  0  0  0  0
    1.1859   -7.2456   47.3343 C   0  0  1  0  0  0  0  0  0  0  0  0
    0.3521   -7.9792   48.3218 O   0  0  0  0  0  0  0  0  0  0  0  0
    5.0970   -8.6536   44.1886 C   0  0  2  0  0  0  0  0  0  0  0  0
    4.3241   -9.9101   44.2897 N   0  0  0  0  0  0  0  0  0  0  0  0
   -2.8008   -9.8133   48.4555 C   0  0  1  0  0  0  0  0  0  0  0  0
   -1.6519   -9.0612   48.9235 O   0  0  0  0  0  0  0  0  0  0  0  0
    0.9352   -5.6739   47.3089 C   0  0  2  0  0  0  0  0  0  0  0  0
   -0.4199   -5.3694   47.0316 O   0  0  0  0  0  0  0  0  0  0  0  0
    4.1102   -7.4166   44.1163 C   0  0  2  0  0  0  0  0  0  0  0  0
   -3.2475  -10.8347   49.5491 C   0  0  2  0  0  0  0  0  0  0  0  0
   -2.1846  -11.6982   49.9011 O   0  0  0  0  0  0  0  0  0  0  0  0
    1.8678   -4.9819   46.2435 C   0  0  2  0  0  0  0  0  0  0  0  0
    3.2812   -5.3038   46.5319 O   0  0  0  0  0  0  0  0  0  0  0  0
    4.9111   -6.0881   44.0174 C   0  0  2  0  0  0  0  0  0  0  0  0
    3.9441   -5.0040   43.9146 O   0  0  0  0  0  0  0  0  0  0  0  0
   -4.4971  -11.6585   49.0400 C   0  0  2  0  0  0  0  0  0  0  0  0
   -5.5991  -10.7423   48.6670 O   0  0  0  0  0  0  0  0  0  0  0  0
    1.6734   -3.4664   46.2250 C   0  0  0  0  0  0  0  0  0  0  0  0
    0.4665   -3.1179   45.5919 O   0  0  0  0  0  0  0  0  0  0  0  0
    5.8135   -6.1173   42.7616 C   0  0  1  0  0  0  0  0  0  0  0  0
    6.5330   -4.9038   42.6984 O   0  0  0  0  0  0  0  0  0  0  0  0
   -4.9963  -12.6381   50.0912 C   0  0  0  0  0  0  0  0  0  0  0  0
   -5.6213  -11.9492   51.1469 O   0  0  0  0  0  0  0  0  0  0  0  0
   -1.0141   -8.3708   47.8093 C   0  0  0  0  0  0  0  0  0  0  0  0
  1  2  1  6  0  0  0
  1  7  1  0  0  0  0
  1 24  1  0  0  0  0
  3  4  1  6  0  0  0
  3  9  1  0  0  0  0
  3 31  1  0  0  0  0
  5  6  1  6  0  0  0
  5 10  1  0  0  0  0
  5 28  1  0  0  0  0
  7  8  1  6  0  0  0
  7 12  1  0  0  0  0
  9 14  1  0  0  0  0
 10 11  1  6  0  0  0
 10 16  1  0  0  0  0
 12 13  1  1  0  0  0
 12 18  1  0  0  0  0
 13 35  1  0  0  0  0
 14 15  1  6  0  0  0
 14 20  1  0  0  0  0
 16 17  1  1  0  0  0
 16 21  1  0  0  0  0
 17 35  1  0  0  0  0
 18 19  1  6  0  0  0
 18 23  1  0  0  0  0
 20  2  1  1  0  0  0
 20 25  1  0  0  0  0
 21 22  1  6  0  0  0
 21 27  1  0  0  0  0
 23 24  1  0  0  0  0
 23 29  1  1  0  0  0
 25 26  1  6  0  0  0
 25 31  1  0  0  0  0
 27 28  1  0  0  0  0
 27 33  1  1  0  0  0
 29 30  1  0  0  0  0
 31 32  1  1  0  0  0
 33 34  1  0  0  0  0
M  END
>  <CHROM.1>
-160.95121155,-152.78001870,-179.74262717,-73.78008051,-163.80736554,90.55698735
-74.79796032,71.52366893,0.73501416,-7.95595628,46.53730220,0.39686541,0.48314546
-0.05357810

>  <Name>
2o3v_lig

>  <RI>
0

>  <Rbt.Current_Directory>
/home/afrankz/demos/rdock_decoys_rna/rnas/2o3v

>  <Rbt.Executable>
rbdock ($Id: //depot/dev/client3/rdock/2013.1/src/exe/rbdock.cxx#4 $)

>  <Rbt.Library>
libRbt.so (2013.1, Build901 2013/11/27)

>  <Rbt.Parameter_File>
/export/apps/rDock/src/rDock_2013.1_src/data/scripts/dock_solv.prm

>  <Rbt.Receptor>
prm/pocket_docking_8.prm

>  <SCORE>
-6.12627

>  <SCORE.INTER>
-5.14124

>  <SCORE.INTER.CONST>
1

>  <SCORE.INTER.POLAR>
0

>  <SCORE.INTER.ROT>
8

>  <SCORE.INTER.SOLV>
17.2059

>  <SCORE.INTER.VDW>
-18.0961

>  <SCORE.INTER.norm>
-0.146893

>  <SCORE.INTRA>
-0.985029

>  <SCORE.INTRA.DIHEDRAL>
-1.32692

>  <SCORE.INTRA.DIHEDRAL.0>
13.1227

>  <SCORE.INTRA.POLAR>
0

>  <SCORE.INTRA.POLAR.0>
0

>  <SCORE.INTRA.REPUL>
0.033039

>  <SCORE.INTRA.REPUL.0>
0

>  <SCORE.INTRA.SOLV>
1.46342

>  <SCORE.INTRA.SOLV.lig_0>
-89.1587

>  <SCORE.INTRA.VDW>
-1.21848

>  <SCORE.INTRA.VDW.0>
-0.838383

>  <SCORE.INTRA.norm>
-0.0281437

>  <SCORE.RESTR>
0

>  <SCORE.RESTR.CAVITY>
0

>  <SCORE.RESTR.norm>
0

>  <SCORE.SYSTEM>
0

>  <SCORE.SYSTEM.CONST>
0

>  <SCORE.SYSTEM.DIHEDRAL>
0

>  <SCORE.SYSTEM.SOLV>
0

>  <SCORE.SYSTEM.norm>
0

>  <SCORE.heavy>
35

>  <SCORE.norm>
-0.175036

>  <RMSD>
3.759

$$$$
2o3v_lig
 OpenBabel02141814113D
libRbt.so/2013.1/901 2013/11/27
 35 37  0  0  0  0  0  0  0  0999 V2000
    2.2171   -9.3452   44.8436 C   0  0  2  0  0  0  0  0  0  0  0  0
    2.6398   -7.9507   44.7471 O   0  0  0  0  0  0  0  0  0  0  0  0
    6.2956   -6.1023   43.2822 C   0  0  2  0  0  0  0  0  0  0  0  0
    7.3456   -5.5961   42.3476 N   0  0  0  0  0  0  0  0  0  0  0  0
   -4.3546   -5.0037   42.8833 C   0  0  2  0  0  0  0  0  0  0  0  0
   -3.1290   -5.2206   42.1509 O   0  0  0  0  0  0  0  0  0  0  0  0
    0.6908   -9.2760   44.5209 C   0  0  2  0  0  0  0  0  0  0  0  0
    0.4527   -8.6938   43.1790 N   0  0  0  0  0  0  0  0  0  0  0  0
    6.1353   -7.6754   43.1238 C   0  0  0  0  0  0  0  0  0  0  0  0
   -4.1242   -5.5128   44.3482 C   0  0  2  0  0  0  0  0  0  0  0  0
   -2.9762   -4.8147   44.9804 N   0  0  0  0  0  0  0  0  0  0  0  0
   -0.1004   -8.4386   45.6174 C   0  0  1  0  0  0  0  0  0  0  0  0
   -1.5421   -8.3473   45.2687 O   0  0  0  0  0  0  0  0  0  0  0  0
    5.0056   -8.1860   44.1194 C   0  0  2  0  0  0  0  0  0  0  0  0
    4.8322   -9.6478   43.9796 N   0  0  0  0  0  0  0  0  0  0  0  0
   -3.9057   -7.0893   44.3926 C   0  0  1  0  0  0  0  0  0  0  0  0
   -3.7230   -7.5927   45.7409 O   0  0  0  0  0  0  0  0  0  0  0  0
    0.1873   -9.1124   47.0305 C   0  0  2  0  0  0  0  0  0  0  0  0
   -0.4609   -8.4151   48.0790 O   0  0  0  0  0  0  0  0  0  0  0  0
    3.6388   -7.4477   43.8095 C   0  0  2  0  0  0  0  0  0  0  0  0
   -5.1407   -7.7793   43.7314 C   0  0  2  0  0  0  0  0  0  0  0  0
   -4.9968   -9.1860   43.7329 O   0  0  0  0  0  0  0  0  0  0  0  0
    1.7374   -9.1755   47.3082 C   0  0  2  0  0  0  0  0  0  0  0  0
    2.4129   -9.9000   46.2113 O   0  0  0  0  0  0  0  0  0  0  0  0
    3.8061   -5.9097   43.9606 C   0  0  2  0  0  0  0  0  0  0  0  0
    2.5281   -5.2982   43.6233 O   0  0  0  0  0  0  0  0  0  0  0  0
   -5.3396   -7.2353   42.2605 C   0  0  2  0  0  0  0  0  0  0  0  0
   -5.4804   -5.7612   42.2725 O   0  0  0  0  0  0  0  0  0  0  0  0
    2.0429   -9.8525   48.6436 C   0  0  0  0  0  0  0  0  0  0  0  0
    3.4153   -9.7832   48.9447 O   0  0  0  0  0  0  0  0  0  0  0  0
    4.9067   -5.4091   42.9963 C   0  0  1  0  0  0  0  0  0  0  0  0
    5.0424   -4.0128   43.1571 O   0  0  0  0  0  0  0  0  0  0  0  0
   -6.5598   -7.8481   41.5900 C   0  0  0  0  0  0  0  0  0  0  0  0
   -7.7308   -7.4985   42.2876 O   0  0  0  0  0  0  0  0  0  0  0  0
   -2.3370   -7.4212   46.1591 C   0  0  0  0  0  0  0  0  0  0  0  0
  1  2  1  1  0  0  0
  1  7  1  0  0  0  0
  1 24  1  0  0  0  0
  3  4  1  6  0  0  0
  3  9  1  0  0  0  0
  3 31  1  0  0  0  0
  5  6  1  6  0  0  0
  5 10  1  0  0  0  0
  5 28  1  0  0  0  0
  7  8  1  6  0  0  0
  7 12  1  0  0  0  0
  9 14  1  0  0  0  0
 10 11  1  6  0  0  0
 10 16  1  0  0  0  0
 12 13  1  6  0  0  0
 12 18  1  0  0  0  0
 13 35  1  0  0  0  0
 14 15  1  6  0  0  0
 14 20  1  0  0  0  0
 16 17  1  1  0  0  0
 16 21  1  0  0  0  0
 17 35  1  0  0  0  0
 18 19  1  1  0  0  0
 18 23  1  0  0  0  0
 20  2  1  1  0  0  0
 20 25  1  0  0  0  0
 21 22  1  6  0  0  0
 21 27  1  0  0  0  0
 23 24  1  0  0  0  0
 23 29  1  1  0  0  0
 25 26  1  6  0  0  0
 25 31  1  0  0  0  0
 27 28  1  0  0  0  0
 27 33  1  1  0  0  0
 29 30  1  0  0  0  0
 31 32  1  1  0  0  0
 33 34  1  0  0  0  0
M  END
>  <CHROM.1>
-119.30144550,-172.51133659,-174.02885762,-82.58887026,-66.71720371,-60.82985701
-174.03541685,62.53795547,0.04129657,-7.47194986,44.45260554,0.11061045,0.04206432
2.26482570

>  <Name>
2o3v_lig

>  <RI>
0

>  <Rbt.Current_Directory>
/home/afrankz/demos/rdock_decoys_rna/rnas/2o3v

>  <Rbt.Executable>
rbdock ($Id: //depot/dev/client3/rdock/2013.1/src/exe/rbdock.cxx#4 $)

>  <Rbt.Library>
libRbt.so (2013.1, Build901 2013/11/27)

>  <Rbt.Parameter_File>
/export/apps/rDock/src/rDock_2013.1_src/data/scripts/dock_solv.prm

>  <Rbt.Receptor>
prm/pocket_docking_5.prm

>  <SCORE>
-11.3734

>  <SCORE.INTER>
-10.036

>  <SCORE.INTER.CONST>
1

>  <SCORE.INTER.POLAR>
-0.703295

>  <SCORE.INTER.ROT>
8

>  <SCORE.INTER.SOLV>
19.8521

>  <SCORE.INTER.VDW>
-19.897

>  <SCORE.INTER.norm>
-0.286743

>  <SCORE.INTRA>
-1.33737

>  <SCORE.INTRA.DIHEDRAL>
-2.84208

>  <SCORE.INTRA.DIHEDRAL.0>
13.1227

>  <SCORE.INTRA.POLAR>
0

>  <SCORE.INTRA.POLAR.0>
0

>  <SCORE.INTRA.REPUL>
0

>  <SCORE.INTRA.REPUL.0>
0

>  <SCORE.INTRA.SOLV>
1.71163

>  <SCORE.INTRA.SOLV.lig_0>
-89.1587

>  <SCORE.INTRA.VDW>
-0.772137

>  <SCORE.INTRA.VDW.0>
-0.838383

>  <SCORE.INTRA.norm>
-0.0382104

>  <SCORE.RESTR>
0

>  <SCORE.RESTR.CAVITY>
0

>  <SCORE.RESTR.norm>
0

>  <SCORE.SYSTEM>
0

>  <SCORE.SYSTEM.CONST>
0

>  <SCORE.SYSTEM.DIHEDRAL>
0

>  <SCORE.SYSTEM.SOLV>
0

>  <SCORE.SYSTEM.norm>
0

>  <SCORE.heavy>
35

>  <SCORE.norm>
-0.324953

>  <RMSD>
3.769

$$$$
2o3v_lig
 OpenBabel02141814113D
libRbt.so/2013.1/901 2013/11/27
 35 37  0  0  0  0  0  0  0  0999 V2000
    2.4728   -6.4781   46.5724 C   0  0  2  0  0  0  0  0  0  0  0  0
    2.2940   -7.3609   45.4229 O   0  0  0  0  0  0  0  0  0  0  0  0
    6.2744   -7.7279   43.7057 C   0  0  2  0  0  0  0  0  0  0  0  0
    7.3887   -8.1377   42.7988 N   0  0  0  0  0  0  0  0  0  0  0  0
   -7.2352   -4.0824   45.8047 C   0  0  2  0  0  0  0  0  0  0  0  0
   -6.8616   -3.3621   44.6101 O   0  0  0  0  0  0  0  0  0  0  0  0
    1.0589   -6.4685   47.2351 C   0  0  2  0  0  0  0  0  0  0  0  0
    0.6381   -7.8364   47.6198 N   0  0  0  0  0  0  0  0  0  0  0  0
    5.6369   -9.0070   44.4007 C   0  0  0  0  0  0  0  0  0  0  0  0
   -5.9482   -4.2290   46.6881 C   0  0  2  0  0  0  0  0  0  0  0  0
   -5.3672   -2.9003   47.0075 N   0  0  0  0  0  0  0  0  0  0  0  0
   -0.0316   -5.8216   46.2750 C   0  0  1  0  0  0  0  0  0  0  0  0
   -1.3766   -5.8623   46.9056 O   0  0  0  0  0  0  0  0  0  0  0  0
    4.4479   -8.5449   45.3499 C   0  0  2  0  0  0  0  0  0  0  0  0
    3.8325   -9.7226   45.9985 N   0  0  0  0  0  0  0  0  0  0  0  0
   -4.8592   -5.1551   45.9871 C   0  0  1  0  0  0  0  0  0  0  0  0
   -3.6700   -5.3353   46.7982 O   0  0  0  0  0  0  0  0  0  0  0  0
    0.4700   -4.3575   45.9028 C   0  0  2  0  0  0  0  0  0  0  0  0
   -0.4318   -3.7080   45.0248 O   0  0  0  0  0  0  0  0  0  0  0  0
    3.3587   -7.7610   44.5083 C   0  0  2  0  0  0  0  0  0  0  0  0
   -5.5097   -6.5420   45.6838 C   0  0  2  0  0  0  0  0  0  0  0  0
   -4.5883   -7.4063   45.0487 O   0  0  0  0  0  0  0  0  0  0  0  0
    1.9042   -4.4126   45.2519 C   0  0  2  0  0  0  0  0  0  0  0  0
    2.8431   -5.0940   46.1677 O   0  0  0  0  0  0  0  0  0  0  0  0
    3.9918   -6.5154   43.8271 C   0  0  2  0  0  0  0  0  0  0  0  0
    2.9475   -5.8706   43.0431 O   0  0  0  0  0  0  0  0  0  0  0  0
   -6.8038   -6.3486   44.7966 C   0  0  2  0  0  0  0  0  0  0  0  0
   -7.7560   -5.4353   45.4690 O   0  0  0  0  0  0  0  0  0  0  0  0
    2.4253   -3.0153   44.9188 C   0  0  0  0  0  0  0  0  0  0  0  0
    1.6886   -2.4364   43.8695 O   0  0  0  0  0  0  0  0  0  0  0  0
    5.1515   -6.9601   42.9054 C   0  0  1  0  0  0  0  0  0  0  0  0
    5.7119   -5.8116   42.3044 O   0  0  0  0  0  0  0  0  0  0  0  0
   -7.4979   -7.6718   44.5112 C   0  0  0  0  0  0  0  0  0  0  0  0
   -8.6893   -7.4567   43.7940 O   0  0  0  0  0  0  0  0  0  0  0  0
   -2.5173   -5.6081   45.9484 C   0  0  0  0  0  0  0  0  0  0  0  0
  1  2  1  6  0  0  0
  1  7  1  0  0  0  0
  1 24  1  0  0  0  0
  3  4  1  6  0  0  0
  3  9  1  0  0  0  0
  3 31  1  0  0  0  0
  5  6  1  6  0  0  0
  5 10  1  0  0  0  0
  5 28  1  0  0  0  0
  7  8  1  6  0  0  0
  7 12  1  0  0  0  0
  9 14  1  0  0  0  0
 10 11  1  6  0  0  0
 10 16  1  0  0  0  0
 12 13  1  1  0  0  0
 12 18  1  0  0  0  0
 13 35  1  0  0  0  0
 14 15  1  6  0  0  0
 14 20  1  0  0  0  0
 16 17  1  1  0  0  0
 16 21  1  0  0  0  0
 17 35  1  0  0  0  0
 18 19  1  6  0  0  0
 18 23  1  0  0  0  0
 20  2  1  1  0  0  0
 20 25  1  0  0  0  0
 21 22  1  6  0  0  0
 21 27  1  0  0  0  0
 23 24  1  0  0  0  0
 23 29  1  1  0  0  0
 25 26  1  6  0  0  0
 25 31  1  0  0  0  0
 27 28  1  0  0  0  0
 27 33  1  1  0  0  0
 29 30  1  0  0  0  0
 31 32  1  1  0  0  0
 33 34  1  0  0  0  0
M  END
>  <CHROM.1>
-176.43715544,-164.91386870,-165.17427337,-153.23421662,-176.45234616,61.25024450
-68.65871568,176.24012312,-0.47864195,-5.98233092,45.18365199,0.14363893
-0.10043464,-3.09938652

>  <Name>
2o3v_lig

>  <RI>
0

>  <Rbt.Current_Directory>
/home/afrankz/demos/rdock_decoys_rna/rnas/2o3v

>  <Rbt.Executable>
rbdock ($Id: //depot/dev/client3/rdock/2013.1/src/exe/rbdock.cxx#4 $)

>  <Rbt.Library>
libRbt.so (2013.1, Build901 2013/11/27)

>  <Rbt.Parameter_File>
/export/apps/rDock/src/rDock_2013.1_src/data/scripts/dock_solv.prm

>  <Rbt.Receptor>
prm/pocket_docking_4.prm

>  <SCORE>
-8.2499

>  <SCORE.INTER>
-2.81809

>  <SCORE.INTER.CONST>
1

>  <SCORE.INTER.POLAR>
-0.0020624

>  <SCORE.INTER.ROT>
8

>  <SCORE.INTER.SOLV>
9.85977

>  <SCORE.INTER.VDW>
-14.0918

>  <SCORE.INTER.norm>
-0.0805168

>  <SCORE.INTRA>
-5.43182

>  <SCORE.INTRA.DIHEDRAL>
-7.54604

>  <SCORE.INTRA.DIHEDRAL.0>
13.1227

>  <SCORE.INTRA.POLAR>
0

>  <SCORE.INTRA.POLAR.0>
0

>  <SCORE.INTRA.REPUL>
0

>  <SCORE.INTRA.REPUL.0>
0

>  <SCORE.INTRA.SOLV>
0.0793224

>  <SCORE.INTRA.SOLV.lig_0>
-89.1587

>  <SCORE.INTRA.VDW>
-1.69846

>  <SCORE.INTRA.VDW.0>
-0.838383

>  <SCORE.INTRA.norm>
-0.155195

>  <SCORE.RESTR>
0

>  <SCORE.RESTR.CAVITY>
0

>  <SCORE.RESTR.norm>
0

>  <SCORE.SYSTEM>
0

>  <SCORE.SYSTEM.CONST>
0

>  <SCORE.SYSTEM.DIHEDRAL>
0

>  <SCORE.SYSTEM.SOLV>
0

>  <SCORE.SYSTEM.norm>
0

>  <SCORE.heavy>
35

>  <SCORE.norm>
-0.235712

>  <RMSD>
3.775

$$$$
2o3v_lig
 OpenBabel02141814113D
libRbt.so/2013.1/901 2013/11/27
 35 37  0  0  0  0  0  0  0  0999 V2000
    1.0082   -8.7471   43.7414 C   0  0  2  0  0  0  0  0  0  0  0  0
    2.2158   -7.9953   44.0719 O   0  0  0  0  0  0  0  0  0  0  0  0
    6.3055   -8.9123   45.2384 C   0  0  2  0  0  0  0  0  0  0  0  0
    7.6940   -9.4630   45.2041 N   0  0  0  0  0  0  0  0  0  0  0  0
   -5.5975   -3.2151   45.7747 C   0  0  2  0  0  0  0  0  0  0  0  0
   -5.6849   -3.5348   44.3691 O   0  0  0  0  0  0  0  0  0  0  0  0
   -0.0371   -7.6256   43.4445 C   0  0  2  0  0  0  0  0  0  0  0  0
    0.4164   -6.7495   42.3386 N   0  0  0  0  0  0  0  0  0  0  0  0
    5.2471  -10.0975   45.2217 C   0  0  0  0  0  0  0  0  0  0  0  0
   -4.0875   -3.3093   46.1861 C   0  0  2  0  0  0  0  0  0  0  0  0
   -3.2533   -2.3974   45.3629 N   0  0  0  0  0  0  0  0  0  0  0  0
   -0.3348   -6.7479   44.7370 C   0  0  1  0  0  0  0  0  0  0  0  0
   -1.2972   -5.6601   44.4225 O   0  0  0  0  0  0  0  0  0  0  0  0
    3.7799   -9.4851   45.2470 C   0  0  2  0  0  0  0  0  0  0  0  0
    2.7781  -10.5724   45.2203 N   0  0  0  0  0  0  0  0  0  0  0  0
   -3.5441   -4.8021   46.0813 C   0  0  1  0  0  0  0  0  0  0  0  0
   -2.1570   -4.9243   46.4885 O   0  0  0  0  0  0  0  0  0  0  0  0
   -0.8223   -7.7386   45.8835 C   0  0  2  0  0  0  0  0  0  0  0  0
   -1.0895   -7.0450   47.0891 O   0  0  0  0  0  0  0  0  0  0  0  0
    3.5725   -8.5287   44.0014 C   0  0  2  0  0  0  0  0  0  0  0  0
   -4.4411   -5.7194   46.9716 C   0  0  2  0  0  0  0  0  0  0  0  0
   -4.0103   -7.0648   46.9091 O   0  0  0  0  0  0  0  0  0  0  0  0
    0.2539   -8.8611   46.1395 C   0  0  2  0  0  0  0  0  0  0  0  0
    0.5345   -9.5815   44.8798 O   0  0  0  0  0  0  0  0  0  0  0  0
    4.6155   -7.3763   44.0221 C   0  0  2  0  0  0  0  0  0  0  0  0
    4.3912   -6.5654   42.8333 O   0  0  0  0  0  0  0  0  0  0  0  0
   -5.9528   -5.5911   46.5273 C   0  0  2  0  0  0  0  0  0  0  0  0
   -6.3883   -4.1771   46.5892 O   0  0  0  0  0  0  0  0  0  0  0  0
   -0.2065   -9.8484   47.2111 C   0  0  0  0  0  0  0  0  0  0  0  0
   -0.3186   -9.2200   48.4646 O   0  0  0  0  0  0  0  0  0  0  0  0
    6.0444   -7.9677   44.0012 C   0  0  1  0  0  0  0  0  0  0  0  0
    6.9709   -6.9023   44.0263 O   0  0  0  0  0  0  0  0  0  0  0  0
   -6.8724   -6.4354   47.3965 C   0  0  0  0  0  0  0  0  0  0  0  0
   -6.8335   -5.9891   48.7304 O   0  0  0  0  0  0  0  0  0  0  0  0
   -1.2754   -4.5113   45.4034 C   0  0  0  0  0  0  0  0  0  0  0  0
  1  2  1  1  0  0  0
  1  7  1  0  0  0  0
  1 24  1  0  0  0  0
  3  4  1  6  0  0  0
  3  9  1  0  0  0  0
  3 31  1  0  0  0  0
  5  6  1  6  0  0  0
  5 10  1  0  0  0  0
  5 28  1  0  0  0  0
  7  8  1  6  0  0  0
  7 12  1  0  0  0  0
  9 14  1  0  0  0  0
 10 11  1  6  0  0  0
 10 16  1  0  0  0  0
 12 13  1  6  0  0  0
 12 18  1  0  0  0  0
 13 35  1  0  0  0  0
 14 15  1  6  0  0  0
 14 20  1  0  0  0  0
 16 17  1  1  0  0  0
 16 21  1  0  0  0  0
 17 35  1  0  0  0  0
 18 19  1  1  0  0  0
 18 23  1  0  0  0  0
 20  2  1  1  0  0  0
 20 25  1  0  0  0  0
 21 22  1  6  0  0  0
 21 27  1  0  0  0  0
 23 24  1  0  0  0  0
 23 29  1  1  0  0  0
 25 26  1  6  0  0  0
 25 31  1  0  0  0  0
 27 28  1  0  0  0  0
 27 33  1  1  0  0  0
 29 30  1  0  0  0  0
 31 32  1  1  0  0  0
 33 34  1  0  0  0  0
M  END
>  <CHROM.1>
-158.79561664,-159.59617436,-84.82786020,-80.43175142,-75.85434563,-75.35938037
-65.43046867,62.82920076,-0.29109006,-6.93361151,45.45682715,0.19725207,-0.35443510
2.58025327

>  <Name>
2o3v_lig

>  <RI>
0

>  <Rbt.Current_Directory>
/home/afrankz/demos/rdock_decoys_rna/rnas/2o3v

>  <Rbt.Executable>
rbdock ($Id: //depot/dev/client3/rdock/2013.1/src/exe/rbdock.cxx#4 $)

>  <Rbt.Library>
libRbt.so (2013.1, Build901 2013/11/27)

>  <Rbt.Parameter_File>
/export/apps/rDock/src/rDock_2013.1_src/data/scripts/dock_solv.prm

>  <Rbt.Receptor>
prm/pocket_docking_5.prm

>  <SCORE>
-8.34452

>  <SCORE.INTER>
-8.17483

>  <SCORE.INTER.CONST>
1

>  <SCORE.INTER.POLAR>
-0.864979

>  <SCORE.INTER.ROT>
8

>  <SCORE.INTER.SOLV>
15.3139

>  <SCORE.INTER.VDW>
-16.6046

>  <SCORE.INTER.norm>
-0.233567

>  <SCORE.INTRA>
-0.169683

>  <SCORE.INTRA.DIHEDRAL>
-2.30478

>  <SCORE.INTRA.DIHEDRAL.0>
13.1227

>  <SCORE.INTRA.POLAR>
0

>  <SCORE.INTRA.POLAR.0>
0

>  <SCORE.INTRA.REPUL>
0

>  <SCORE.INTRA.REPUL.0>
0

>  <SCORE.INTRA.SOLV>
4.46184

>  <SCORE.INTRA.SOLV.lig_0>
-89.1587

>  <SCORE.INTRA.VDW>
-1.24821

>  <SCORE.INTRA.VDW.0>
-0.838383

>  <SCORE.INTRA.norm>
-0.00484808

>  <SCORE.RESTR>
0

>  <SCORE.RESTR.CAVITY>
0

>  <SCORE.RESTR.norm>
0

>  <SCORE.SYSTEM>
0

>  <SCORE.SYSTEM.CONST>
0

>  <SCORE.SYSTEM.DIHEDRAL>
0

>  <SCORE.SYSTEM.SOLV>
0

>  <SCORE.SYSTEM.norm>
0

>  <SCORE.heavy>
35

>  <SCORE.norm>
-0.238415

>  <RMSD>
3.794

$$$$
2o3v_lig
 OpenBabel02141814113D
libRbt.so/2013.1/901 2013/11/27
 35 37  0  0  0  0  0  0  0  0999 V2000
    3.9794   -6.3670   48.4764 C   0  0  2  0  0  0  0  0  0  0  0  0
    4.2816   -7.5052   47.6126 O   0  0  0  0  0  0  0  0  0  0  0  0
    7.0517   -5.9449   44.6430 C   0  0  2  0  0  0  0  0  0  0  0  0
    8.0570   -5.8937   43.5389 N   0  0  0  0  0  0  0  0  0  0  0  0
   -5.4830   -9.6741   49.3977 C   0  0  2  0  0  0  0  0  0  0  0  0
   -5.9252   -8.4952   48.6905 O   0  0  0  0  0  0  0  0  0  0  0  0
    2.8002   -6.8922   49.3550 C   0  0  2  0  0  0  0  0  0  0  0  0
    3.1950   -8.1022   50.1141 N   0  0  0  0  0  0  0  0  0  0  0  0
    7.6517   -6.7215   45.8928 C   0  0  0  0  0  0  0  0  0  0  0  0
   -4.1023   -9.3362   50.0594 C   0  0  2  0  0  0  0  0  0  0  0  0
   -4.2179   -8.1645   50.9642 N   0  0  0  0  0  0  0  0  0  0  0  0
    1.5123   -7.2064   48.4763 C   0  0  1  0  0  0  0  0  0  0  0  0
    0.4175   -7.7463   49.3238 O   0  0  0  0  0  0  0  0  0  0  0  0
    6.5595   -6.7717   47.0474 C   0  0  2  0  0  0  0  0  0  0  0  0
    7.0942   -7.5013   48.2171 N   0  0  0  0  0  0  0  0  0  0  0  0
   -2.9751   -9.0807   48.9644 C   0  0  1  0  0  0  0  0  0  0  0  0
   -1.6781   -8.7982   49.5496 O   0  0  0  0  0  0  0  0  0  0  0  0
    1.1336   -5.8737   47.6927 C   0  0  2  0  0  0  0  0  0  0  0  0
    0.0049   -6.0653   46.8590 O   0  0  0  0  0  0  0  0  0  0  0  0
    5.2477   -7.4854   46.5189 C   0  0  2  0  0  0  0  0  0  0  0  0
   -2.8804  -10.3413   48.0476 C   0  0  2  0  0  0  0  0  0  0  0  0
   -1.8984  -10.1667   47.0453 O   0  0  0  0  0  0  0  0  0  0  0  0
    2.3549   -5.3714   46.8324 C   0  0  2  0  0  0  0  0  0  0  0  0
    3.5330   -5.1757   47.7032 O   0  0  0  0  0  0  0  0  0  0  0  0
    4.6712   -6.7231   45.2930 C   0  0  2  0  0  0  0  0  0  0  0  0
    3.4966   -7.4548   44.8391 O   0  0  0  0  0  0  0  0  0  0  0  0
   -4.2918  -10.6489   47.4054 C   0  0  2  0  0  0  0  0  0  0  0  0
   -5.3119  -10.8209   48.4650 O   0  0  0  0  0  0  0  0  0  0  0  0
    2.0296   -4.0713   46.0984 C   0  0  0  0  0  0  0  0  0  0  0  0
    1.8919   -3.0007   47.0004 O   0  0  0  0  0  0  0  0  0  0  0  0
    5.7318   -6.6687   44.1687 C   0  0  1  0  0  0  0  0  0  0  0  0
    5.1860   -5.9676   43.0711 O   0  0  0  0  0  0  0  0  0  0  0  0
   -4.2590  -11.8970   46.5365 C   0  0  0  0  0  0  0  0  0  0  0  0
   -3.9331  -13.0259   47.3108 O   0  0  0  0  0  0  0  0  0  0  0  0
   -0.7883   -8.2230   48.5484 C   0  0  0  0  0  0  0  0  0  0  0  0
  1  2  1  6  0  0  0
  1  7  1  0  0  0  0
  1 24  1  0  0  0  0
  3  4  1  6  0  0  0
  3  9  1  0  0  0  0
  3 31  1  0  0  0  0
  5  6  1  6  0  0  0
  5 10  1  0  0  0  0
  5 28  1  0  0  0  0
  7  8  1  6  0  0  0
  7 12  1  0  0  0  0
  9 14  1  0  0  0  0
 10 11  1  6  0  0  0
 10 16  1  0  0  0  0
 12 13  1  1  0  0  0
 12 18  1  0  0  0  0
 13 35  1  0  0  0  0
 14 15  1  1  0  0  0
 14 20  1  0  0  0  0
 16 17  1  1  0  0  0
 16 21  1  0  0  0  0
 17 35  1  0  0  0  0
 18 19  1  6  0  0  0
 18 23  1  0  0  0  0
 20  2  1  1  0  0  0
 20 25  1  0  0  0  0
 21 22  1  6  0  0  0
 21 27  1  0  0  0  0
 23 24  1  0  0  0  0
 23 29  1  1  0  0  0
 25 26  1  6  0  0  0
 25 31  1  0  0  0  0
 27 28  1  0  0  0  0
 27 33  1  1  0  0  0
 29 30  1  0  0  0  0
 31 32  1  6  0  0  0
 33 34  1  0  0  0  0
M  END
>  <CHROM.1>
174.57076371,-173.24787144,175.72452814,-164.57250966,169.97441958,45.32735255
68.62261081,62.30917790,1.08398610,-7.70058427,47.41315809,0.09030050,0.44065979
0.73156387

>  <Name>
2o3v_lig

>  <RI>
0

>  <Rbt.Current_Directory>
/home/afrankz/demos/rdock_decoys_rna/rnas/2o3v

>  <Rbt.Executable>
rbdock ($Id: //depot/dev/client3/rdock/2013.1/src/exe/rbdock.cxx#4 $)

>  <Rbt.Library>
libRbt.so (2013.1, Build901 2013/11/27)

>  <Rbt.Parameter_File>
/export/apps/rDock/src/rDock_2013.1_src/data/scripts/dock_solv.prm

>  <Rbt.Receptor>
prm/pocket_docking_4.prm

>  <SCORE>
-7.11286

>  <SCORE.INTER>
-1.65108

>  <SCORE.INTER.CONST>
1

>  <SCORE.INTER.POLAR>
0

>  <SCORE.INTER.ROT>
8

>  <SCORE.INTER.SOLV>
13.781

>  <SCORE.INTER.VDW>
-14.6277

>  <SCORE.INTER.norm>
-0.0471738

>  <SCORE.INTRA>
-5.46975

>  <SCORE.INTRA.DIHEDRAL>
-9.71901

>  <SCORE.INTRA.DIHEDRAL.0>
13.1227

>  <SCORE.INTRA.POLAR>
0

>  <SCORE.INTRA.POLAR.0>
0

>  <SCORE.INTRA.REPUL>
0

>  <SCORE.INTRA.REPUL.0>
0

>  <SCORE.INTRA.SOLV>
-0.229936

>  <SCORE.INTRA.SOLV.lig_0>
-89.1587

>  <SCORE.INTRA.VDW>
-0.495281

>  <SCORE.INTRA.VDW.0>
-0.838383

>  <SCORE.INTRA.norm>
-0.156279

>  <SCORE.RESTR>
0.0079756

>  <SCORE.RESTR.CAVITY>
0.0079756

>  <SCORE.RESTR.norm>
0.000227874

>  <SCORE.SYSTEM>
0

>  <SCORE.SYSTEM.CONST>
0

>  <SCORE.SYSTEM.DIHEDRAL>
0

>  <SCORE.SYSTEM.SOLV>
0

>  <SCORE.SYSTEM.norm>
0

>  <SCORE.heavy>
35

>  <SCORE.norm>
-0.203225

>  <RMSD>
3.881

$$$$
2o3v_lig
 OpenBabel02141814113D
libRbt.so/2013.1/901 2013/11/27
 35 37  0  0  0  0  0  0  0  0999 V2000
    4.1143   -4.6133   45.7251 C   0  0  2  0  0  0  0  0  0  0  0  0
    3.9513   -5.9146   45.0827 O   0  0  0  0  0  0  0  0  0  0  0  0
    7.0625   -7.6996   42.6207 C   0  0  2  0  0  0  0  0  0  0  0  0
    7.8147   -8.1746   41.4203 N   0  0  0  0  0  0  0  0  0  0  0  0
   -2.1824   -9.5947   45.8545 C   0  0  2  0  0  0  0  0  0  0  0  0
   -2.5225  -10.0919   47.1670 O   0  0  0  0  0  0  0  0  0  0  0  0
    3.2998   -4.7670   47.0485 C   0  0  2  0  0  0  0  0  0  0  0  0
    3.8202   -5.8844   47.8713 N   0  0  0  0  0  0  0  0  0  0  0  0
    5.6642   -8.4478   42.7207 C   0  0  0  0  0  0  0  0  0  0  0  0
   -1.1530   -8.4275   46.0453 C   0  0  2  0  0  0  0  0  0  0  0  0
    0.0481   -8.8922   46.7844 N   0  0  0  0  0  0  0  0  0  0  0  0
    1.7518   -4.9892   46.7590 C   0  0  1  0  0  0  0  0  0  0  0  0
    1.0021   -5.1774   48.0281 O   0  0  0  0  0  0  0  0  0  0  0  0
    4.8800   -7.9164   43.9979 C   0  0  2  0  0  0  0  0  0  0  0  0
    3.5692   -8.5925   44.1033 N   0  0  0  0  0  0  0  0  0  0  0  0
   -1.8112   -7.1817   46.7865 C   0  0  1  0  0  0  0  0  0  0  0  0
   -0.8893   -6.0730   46.9468 O   0  0  0  0  0  0  0  0  0  0  0  0
    1.2502   -3.7597   45.8813 C   0  0  2  0  0  0  0  0  0  0  0  0
   -0.1215   -3.8838   45.5511 O   0  0  0  0  0  0  0  0  0  0  0  0
    4.6728   -6.3496   43.8909 C   0  0  2  0  0  0  0  0  0  0  0  0
   -3.0584   -6.7204   45.9677 C   0  0  2  0  0  0  0  0  0  0  0  0
   -3.6924   -5.6186   46.5869 O   0  0  0  0  0  0  0  0  0  0  0  0
    2.1078   -3.6327   44.5652 C   0  0  2  0  0  0  0  0  0  0  0  0
    3.5392   -3.5071   44.9113 O   0  0  0  0  0  0  0  0  0  0  0  0
    6.0448   -5.6263   43.7872 C   0  0  2  0  0  0  0  0  0  0  0  0
    5.7760   -4.2013   43.6522 O   0  0  0  0  0  0  0  0  0  0  0  0
   -4.0665   -7.9259   45.7950 C   0  0  2  0  0  0  0  0  0  0  0  0
   -3.3879   -9.0752   45.1536 O   0  0  0  0  0  0  0  0  0  0  0  0
    1.6704   -2.4361   43.7216 C   0  0  0  0  0  0  0  0  0  0  0  0
    2.4691   -2.3084   42.5706 O   0  0  0  0  0  0  0  0  0  0  0  0
    6.8126   -6.1429   42.5479 C   0  0  1  0  0  0  0  0  0  0  0  0
    8.0552   -5.4754   42.4801 O   0  0  0  0  0  0  0  0  0  0  0  0
   -5.2797   -7.5353   44.9646 C   0  0  0  0  0  0  0  0  0  0  0  0
   -6.1773   -8.6147   44.8687 O   0  0  0  0  0  0  0  0  0  0  0  0
    0.0562   -6.3553   48.0199 C   0  0  0  0  0  0  0  0  0  0  0  0
  1  2  1  6  0  0  0
  1  7  1  0  0  0  0
  1 24  1  0  0  0  0
  3  4  1  6  0  0  0
  3  9  1  0  0  0  0
  3 31  1  0  0  0  0
  5  6  1  1  0  0  0
  5 10  1  0  0  0  0
  5 28  1  0  0  0  0
  7  8  1  6  0  0  0
  7 12  1  0  0  0  0
  9 14  1  0  0  0  0
 10 11  1  1  0  0  0
 10 16  1  0  0  0  0
 12 13  1  1  0  0  0
 12 18  1  0  0  0  0
 13 35  1  0  0  0  0
 14 15  1  6  0  0  0
 14 20  1  0  0  0  0
 16 17  1  6  0  0  0
 16 21  1  0  0  0  0
 17 35  1  0  0  0  0
 18 19  1  6  0  0  0
 18 23  1  0  0  0  0
 20  2  1  1  0  0  0
 20 25  1  0  0  0  0
 21 22  1  1  0  0  0
 21 27  1  0  0  0  0
 23 24  1  0  0  0  0
 23 29  1  1  0  0  0
 25 26  1  6  0  0  0
 25 31  1  0  0  0  0
 27 28  1  0  0  0  0
 27 33  1  6  0  0  0
 29 30  1  0  0  0  0
 31 32  1  1  0  0  0
 33 34  1  0  0  0  0
M  END
>  <CHROM.1>
-171.32634049,-132.32300085,-60.62563146,-75.91107438,176.62192454,147.96844867
178.18636484,-177.98205589,1.51830814,-6.30676935,45.14426767,0.13382608
0.31795055,0.21105648

>  <Name>
2o3v_lig

>  <RI>
0

>  <Rbt.Current_Directory>
/home/afrankz/demos/rdock_decoys_rna/rnas/2o3v

>  <Rbt.Executable>
rbdock ($Id: //depot/dev/client3/rdock/2013.1/src/exe/rbdock.cxx#4 $)

>  <Rbt.Library>
libRbt.so (2013.1, Build901 2013/11/27)

>  <Rbt.Parameter_File>
/export/apps/rDock/src/rDock_2013.1_src/data/scripts/dock_solv.prm

>  <Rbt.Receptor>
prm/pocket_docking_5.prm

>  <SCORE>
-11.8604

>  <SCORE.INTER>
-10.8219

>  <SCORE.INTER.CONST>
1

>  <SCORE.INTER.POLAR>
-0.377733

>  <SCORE.INTER.ROT>
8

>  <SCORE.INTER.SOLV>
21.6658

>  <SCORE.INTER.VDW>
-22.1107

>  <SCORE.INTER.norm>
-0.309197

>  <SCORE.INTRA>
-1.03849

>  <SCORE.INTRA.DIHEDRAL>
-0.99989

>  <SCORE.INTRA.DIHEDRAL.0>
13.1227

>  <SCORE.INTRA.POLAR>
0

>  <SCORE.INTRA.POLAR.0>
0

>  <SCORE.INTRA.REPUL>
0

>  <SCORE.INTRA.REPUL.0>
0

>  <SCORE.INTRA.SOLV>
0.236364

>  <SCORE.INTRA.SOLV.lig_0>
-89.1587

>  <SCORE.INTRA.VDW>
-0.656724

>  <SCORE.INTRA.VDW.0>
-0.838383

>  <SCORE.INTRA.norm>
-0.0296711

>  <SCORE.RESTR>
0

>  <SCORE.RESTR.CAVITY>
0

>  <SCORE.RESTR.norm>
0

>  <SCORE.SYSTEM>
0

>  <SCORE.SYSTEM.CONST>
0

>  <SCORE.SYSTEM.DIHEDRAL>
0

>  <SCORE.SYSTEM.SOLV>
0

>  <SCORE.SYSTEM.norm>
0

>  <SCORE.heavy>
35

>  <SCORE.norm>
-0.338868

>  <RMSD>
3.883

$$$$
2o3v_lig
 OpenBabel02141814113D
libRbt.so/2013.1/901 2013/11/27
 35 37  0  0  0  0  0  0  0  0999 V2000
    3.3614   -5.1072   46.8124 C   0  0  2  0  0  0  0  0  0  0  0  0
    3.4591   -6.3231   46.0094 O   0  0  0  0  0  0  0  0  0  0  0  0
    6.6661   -8.1482   43.7047 C   0  0  2  0  0  0  0  0  0  0  0  0
    7.6504   -8.4019   42.6097 N   0  0  0  0  0  0  0  0  0  0  0  0
   -6.5962   -5.8901   45.5760 C   0  0  2  0  0  0  0  0  0  0  0  0
   -6.4584   -5.2411   44.2933 O   0  0  0  0  0  0  0  0  0  0  0  0
    1.9342   -5.2094   47.4378 C   0  0  2  0  0  0  0  0  0  0  0  0
    1.7896   -6.4447   48.2437 N   0  0  0  0  0  0  0  0  0  0  0  0
    5.1836   -8.2566   43.1427 C   0  0  0  0  0  0  0  0  0  0  0  0
   -5.3932   -5.4282   46.4691 C   0  0  2  0  0  0  0  0  0  0  0  0
   -5.3656   -3.9495   46.6023 N   0  0  0  0  0  0  0  0  0  0  0  0
    0.8026   -5.1613   46.3213 C   0  0  1  0  0  0  0  0  0  0  0  0
   -0.5443   -5.3045   46.9326 O   0  0  0  0  0  0  0  0  0  0  0  0
    4.1575   -7.9712   44.3235 C   0  0  2  0  0  0  0  0  0  0  0  0
    2.7703   -8.0559   43.8187 N   0  0  0  0  0  0  0  0  0  0  0  0
   -4.0040   -5.9585   45.9001 C   0  0  1  0  0  0  0  0  0  0  0  0
   -2.8754   -5.5735   46.7264 O   0  0  0  0  0  0  0  0  0  0  0  0
    1.0045   -3.8152   45.4962 C   0  0  2  0  0  0  0  0  0  0  0  0
    0.0503   -3.6963   44.4564 O   0  0  0  0  0  0  0  0  0  0  0  0
    4.4235   -6.5341   44.9344 C   0  0  2  0  0  0  0  0  0  0  0  0
   -4.0751   -7.5147   45.7910 C   0  0  2  0  0  0  0  0  0  0  0  0
   -2.8675   -8.0429   45.2789 O   0  0  0  0  0  0  0  0  0  0  0  0
    2.4603   -3.7466   44.8966 C   0  0  2  0  0  0  0  0  0  0  0  0
    3.4549   -3.8747   45.9824 O   0  0  0  0  0  0  0  0  0  0  0  0
    5.8772   -6.4348   45.4758 C   0  0  2  0  0  0  0  0  0  0  0  0
    6.0610   -5.0818   45.9824 O   0  0  0  0  0  0  0  0  0  0  0  0
   -5.3020   -7.9369   44.8877 C   0  0  2  0  0  0  0  0  0  0  0  0
   -6.5581   -7.3705   45.4299 O   0  0  0  0  0  0  0  0  0  0  0  0
    2.6927   -2.4454   44.1301 C   0  0  0  0  0  0  0  0  0  0  0  0
    4.0011   -2.3863   43.6166 O   0  0  0  0  0  0  0  0  0  0  0  0
    6.8787   -6.7152   44.3311 C   0  0  1  0  0  0  0  0  0  0  0  0
    8.1890   -6.6246   44.8497 O   0  0  0  0  0  0  0  0  0  0  0  0
   -5.4381   -9.4486   44.7876 C   0  0  0  0  0  0  0  0  0  0  0  0
   -4.2861  -10.0079   44.2045 O   0  0  0  0  0  0  0  0  0  0  0  0
   -1.6478   -5.5872   45.9402 C   0  0  0  0  0  0  0  0  0  0  0  0
  1  2  1  6  0  0  0
  1  7  1  0  0  0  0
  1 24  1  0  0  0  0
  3  4  1  6  0  0  0
  3  9  1  0  0  0  0
  3 31  1  0  0  0  0
  5  6  1  6  0  0  0
  5 10  1  0  0  0  0
  5 28  1  0  0  0  0
  7  8  1  6  0  0  0
  7 12  1  0  0  0  0
  9 14  1  0  0  0  0
 10 11  1  6  0  0  0
 10 16  1  0  0  0  0
 12 13  1  1  0  0  0
 12 18  1  0  0  0  0
 13 35  1  0  0  0  0
 14 15  1  6  0  0  0
 14 20  1  0  0  0  0
 16 17  1  1  0  0  0
 16 21  1  0  0  0  0
 17 35  1  0  0  0  0
 18 19  1  6  0  0  0
 18 23  1  0  0  0  0
 20  2  1  1  0  0  0
 20 25  1  0  0  0  0
 21 22  1  6  0  0  0
 21 27  1  0  0  0  0
 23 24  1  0  0  0  0
 23 29  1  1  0  0  0
 25 26  1  6  0  0  0
 25 31  1  0  0  0  0
 27 28  1  0  0  0  0
 27 33  1  1  0  0  0
 29 30  1  0  0  0  0
 31 32  1  1  0  0  0
 33 34  1  0  0  0  0
M  END
>  <CHROM.1>
161.74371135,-166.68473262,-175.24266990,-157.06783816,-174.68253228,-179.03976707
179.11788409,-60.94661308,0.58415926,-6.09054927,45.29193070,0.01820019,0.08712940
0.29725677

>  <Name>
2o3v_lig

>  <RI>
0

>  <Rbt.Current_Directory>
/home/afrankz/demos/rdock_decoys_rna/rnas/2o3v

>  <Rbt.Executable>
rbdock ($Id: //depot/dev/client3/rdock/2013.1/src/exe/rbdock.cxx#4 $)

>  <Rbt.Library>
libRbt.so (2013.1, Build901 2013/11/27)

>  <Rbt.Parameter_File>
/export/apps/rDock/src/rDock_2013.1_src/data/scripts/dock_solv.prm

>  <Rbt.Receptor>
prm/pocket_docking_5.prm

>  <SCORE>
-14.1604

>  <SCORE.INTER>
-8.58785

>  <SCORE.INTER.CONST>
1

>  <SCORE.INTER.POLAR>
-0.959166

>  <SCORE.INTER.ROT>
8

>  <SCORE.INTER.SOLV>
14.8873

>  <SCORE.INTER.VDW>
-16.4238

>  <SCORE.INTER.norm>
-0.245367

>  <SCORE.INTRA>
-5.57256

>  <SCORE.INTRA.DIHEDRAL>
-8.16146

>  <SCORE.INTRA.DIHEDRAL.0>
13.1227

>  <SCORE.INTRA.POLAR>
0

>  <SCORE.INTRA.POLAR.0>
0

>  <SCORE.INTRA.REPUL>
0

>  <SCORE.INTRA.REPUL.0>
0

>  <SCORE.INTRA.SOLV>
-1.16515

>  <SCORE.INTRA.SOLV.lig_0>
-89.1587

>  <SCORE.INTRA.VDW>
-0.909255

>  <SCORE.INTRA.VDW.0>
-0.838383

>  <SCORE.INTRA.norm>
-0.159216

>  <SCORE.RESTR>
0

>  <SCORE.RESTR.CAVITY>
0

>  <SCORE.RESTR.norm>
0

>  <SCORE.SYSTEM>
0

>  <SCORE.SYSTEM.CONST>
0

>  <SCORE.SYSTEM.DIHEDRAL>
0

>  <SCORE.SYSTEM.SOLV>
0

>  <SCORE.SYSTEM.norm>
0

>  <SCORE.heavy>
35

>  <SCORE.norm>
-0.404583

>  <RMSD>
3.912

$$$$
2o3v_lig
 OpenBabel02141814113D
libRbt.so/2013.1/901 2013/11/27
 35 37  0  0  0  0  0  0  0  0999 V2000
    2.2854   -8.1041   47.4395 C   0  0  2  0  0  0  0  0  0  0  0  0
    2.0859   -8.9107   46.2385 O   0  0  0  0  0  0  0  0  0  0  0  0
    5.7021   -8.2930   43.9000 C   0  0  2  0  0  0  0  0  0  0  0  0
    6.6969   -8.3789   42.7886 N   0  0  0  0  0  0  0  0  0  0  0  0
   -3.9783  -11.8389   50.5619 C   0  0  2  0  0  0  0  0  0  0  0  0
   -2.5626  -11.9866   50.8057 O   0  0  0  0  0  0  0  0  0  0  0  0
    1.0445   -8.4623   48.3171 C   0  0  2  0  0  0  0  0  0  0  0  0
    0.9912   -9.9157   48.6020 N   0  0  0  0  0  0  0  0  0  0  0  0
    5.4448   -9.7351   44.5159 C   0  0  0  0  0  0  0  0  0  0  0  0
   -4.1482  -10.8467   49.3598 C   0  0  2  0  0  0  0  0  0  0  0  0
   -3.4326  -11.3408   48.1562 N   0  0  0  0  0  0  0  0  0  0  0  0
   -0.3118   -8.0007   47.6267 C   0  0  1  0  0  0  0  0  0  0  0  0
   -1.4819   -8.3899   48.4559 O   0  0  0  0  0  0  0  0  0  0  0  0
    4.3755   -9.6175   45.6868 C   0  0  2  0  0  0  0  0  0  0  0  0
    4.1127  -10.9521   46.2668 N   0  0  0  0  0  0  0  0  0  0  0  0
   -3.6523   -9.3812   49.7357 C   0  0  1  0  0  0  0  0  0  0  0  0
   -3.8290   -8.4337   48.6515 O   0  0  0  0  0  0  0  0  0  0  0  0
   -0.1983   -6.4369   47.3523 C   0  0  2  0  0  0  0  0  0  0  0  0
   -1.3588   -5.9372   46.7122 O   0  0  0  0  0  0  0  0  0  0  0  0
    3.0295   -8.9965   45.1284 C   0  0  2  0  0  0  0  0  0  0  0  0
   -4.4402   -8.8995   50.9950 C   0  0  2  0  0  0  0  0  0  0  0  0
   -4.0324   -7.6023   51.3829 O   0  0  0  0  0  0  0  0  0  0  0  0
    1.0736   -6.1193   46.4776 C   0  0  2  0  0  0  0  0  0  0  0  0
    2.2833   -6.6447   47.1449 O   0  0  0  0  0  0  0  0  0  0  0  0
    3.2912   -7.5892   44.5225 C   0  0  2  0  0  0  0  0  0  0  0  0
    2.0245   -7.1001   43.9960 O   0  0  0  0  0  0  0  0  0  0  0  0
   -4.2460   -9.9284   52.1794 C   0  0  2  0  0  0  0  0  0  0  0  0
   -4.6687  -11.2834   51.7573 O   0  0  0  0  0  0  0  0  0  0  0  0
    1.2267   -4.6191   46.2306 C   0  0  0  0  0  0  0  0  0  0  0  0
    1.4431   -3.9265   47.4357 O   0  0  0  0  0  0  0  0  0  0  0  0
    4.3337   -7.6984   43.3852 C   0  0  1  0  0  0  0  0  0  0  0  0
    4.5571   -6.4082   42.8566 O   0  0  0  0  0  0  0  0  0  0  0  0
   -5.0324   -9.5228   53.4168 C   0  0  0  0  0  0  0  0  0  0  0  0
   -6.4112   -9.5001   53.1368 O   0  0  0  0  0  0  0  0  0  0  0  0
   -2.7592   -8.5833   47.6726 C   0  0  0  0  0  0  0  0  0  0  0  0
  1  2  1  6  0  0  0
  1  7  1  0  0  0  0
  1 24  1  0  0  0  0
  3  4  1  6  0  0  0
  3  9  1  0  0  0  0
  3 31  1  0  0  0  0
  5  6  1  1  0  0  0
  5 10  1  0  0  0  0
  5 28  1  0  0  0  0
  7  8  1  6  0  0  0
  7 12  1  0  0  0  0
  9 14  1  0  0  0  0
 10 11  1  6  0  0  0
 10 16  1  0  0  0  0
 12 13  1  1  0  0  0
 12 18  1  0  0  0  0
 13 35  1  0  0  0  0
 14 15  1  6  0  0  0
 14 20  1  0  0  0  0
 16 17  1  6  0  0  0
 16 21  1  0  0  0  0
 17 35  1  0  0  0  0
 18 19  1  6  0  0  0
 18 23  1  0  0  0  0
 20  2  1  1  0  0  0
 20 25  1  0  0  0  0
 21 22  1  1  0  0  0
 21 27  1  0  0  0  0
 23 24  1  0  0  0  0
 23 29  1  1  0  0  0
 25 26  1  6  0  0  0
 25 31  1  0  0  0  0
 27 28  1  0  0  0  0
 27 33  1  1  0  0  0
 29 30  1  0  0  0  0
 31 32  1  1  0  0  0
 33 34  1  0  0  0  0
M  END
>  <CHROM.1>
-176.01694282,-153.57347890,-158.46272723,-79.47695715,-56.78926285,62.39173296
63.66009123,61.87769129,-0.07116720,-8.52395147,47.71320973,-0.32041254,-0.61728967
2.92843866

>  <Name>
2o3v_lig

>  <RI>
0

>  <Rbt.Current_Directory>
/home/afrankz/demos/rdock_decoys_rna/rnas/2o3v

>  <Rbt.Executable>
rbdock ($Id: //depot/dev/client3/rdock/2013.1/src/exe/rbdock.cxx#4 $)

>  <Rbt.Library>
libRbt.so (2013.1, Build901 2013/11/27)

>  <Rbt.Parameter_File>
/export/apps/rDock/src/rDock_2013.1_src/data/scripts/dock_solv.prm

>  <Rbt.Receptor>
prm/pocket_docking_5.prm

>  <SCORE>
-8.66337

>  <SCORE.INTER>
-4.82063

>  <SCORE.INTER.CONST>
1

>  <SCORE.INTER.POLAR>
0

>  <SCORE.INTER.ROT>
8

>  <SCORE.INTER.SOLV>
12.4742

>  <SCORE.INTER.VDW>
-16.3052

>  <SCORE.INTER.norm>
-0.137732

>  <SCORE.INTRA>
-3.84274

>  <SCORE.INTRA.DIHEDRAL>
-6.15443

>  <SCORE.INTRA.DIHEDRAL.0>
13.1227

>  <SCORE.INTRA.POLAR>
0

>  <SCORE.INTRA.POLAR.0>
0

>  <SCORE.INTRA.REPUL>
0

>  <SCORE.INTRA.REPUL.0>
0

>  <SCORE.INTRA.SOLV>
1.72882

>  <SCORE.INTRA.SOLV.lig_0>
-89.1587

>  <SCORE.INTRA.VDW>
-1.62994

>  <SCORE.INTRA.VDW.0>
-0.838383

>  <SCORE.INTRA.norm>
-0.109793

>  <SCORE.RESTR>
0

>  <SCORE.RESTR.CAVITY>
0

>  <SCORE.RESTR.norm>
0

>  <SCORE.SYSTEM>
0

>  <SCORE.SYSTEM.CONST>
0

>  <SCORE.SYSTEM.DIHEDRAL>
0

>  <SCORE.SYSTEM.SOLV>
0

>  <SCORE.SYSTEM.norm>
0

>  <SCORE.heavy>
35

>  <SCORE.norm>
-0.247525

>  <RMSD>
3.926

$$$$
2o3v_lig
 OpenBabel02141814113D
libRbt.so/2013.1/901 2013/11/27
 35 37  0  0  0  0  0  0  0  0999 V2000
    3.8281   -5.0593   46.4276 C   0  0  2  0  0  0  0  0  0  0  0  0
    3.8801   -6.2782   45.6249 O   0  0  0  0  0  0  0  0  0  0  0  0
    7.1097   -8.0443   43.3059 C   0  0  2  0  0  0  0  0  0  0  0  0
    8.0574   -8.3156   42.1832 N   0  0  0  0  0  0  0  0  0  0  0  0
   -5.3762   -3.6443   45.4550 C   0  0  2  0  0  0  0  0  0  0  0  0
   -5.2458   -4.0761   44.0831 O   0  0  0  0  0  0  0  0  0  0  0  0
    2.4683   -5.1910   47.1840 C   0  0  2  0  0  0  0  0  0  0  0  0
    2.4294   -6.4237   48.0058 N   0  0  0  0  0  0  0  0  0  0  0  0
    5.6155   -8.3146   42.8372 C   0  0  0  0  0  0  0  0  0  0  0  0
   -3.9924   -3.8752   46.1549 C   0  0  2  0  0  0  0  0  0  0  0  0
   -2.9100   -3.1431   45.4497 N   0  0  0  0  0  0  0  0  0  0  0  0
    1.2367   -5.1778   46.1777 C   0  0  1  0  0  0  0  0  0  0  0  0
   -0.0435   -5.3486   46.9126 O   0  0  0  0  0  0  0  0  0  0  0  0
    4.6279   -8.0077   44.0450 C   0  0  2  0  0  0  0  0  0  0  0  0
    3.2294   -8.2422   43.6259 N   0  0  0  0  0  0  0  0  0  0  0  0
   -3.6383   -5.4242   46.2554 C   0  0  1  0  0  0  0  0  0  0  0  0
   -2.3772   -5.6690   46.9294 O   0  0  0  0  0  0  0  0  0  0  0  0
    1.3281   -3.8331   45.3308 C   0  0  2  0  0  0  0  0  0  0  0  0
    0.2786   -3.7443   44.3840 O   0  0  0  0  0  0  0  0  0  0  0  0
    4.8054   -6.5069   44.5196 C   0  0  2  0  0  0  0  0  0  0  0  0
   -4.7949   -6.1484   47.0147 C   0  0  2  0  0  0  0  0  0  0  0  0
   -4.5391   -7.5347   47.1252 O   0  0  0  0  0  0  0  0  0  0  0  0
    2.7197   -3.7342   44.5977 C   0  0  2  0  0  0  0  0  0  0  0  0
    3.8139   -3.8309   45.5866 O   0  0  0  0  0  0  0  0  0  0  0  0
    6.2707   -6.2496   44.9702 C   0  0  2  0  0  0  0  0  0  0  0  0
    6.3682   -4.8477   45.3525 O   0  0  0  0  0  0  0  0  0  0  0  0
   -6.1699   -5.8865   46.2799 C   0  0  2  0  0  0  0  0  0  0  0  0
   -6.4213   -4.4318   46.1634 O   0  0  0  0  0  0  0  0  0  0  0  0
    2.8479   -2.4333   43.8065 C   0  0  0  0  0  0  0  0  0  0  0  0
    4.1493   -2.2769   43.2957 O   0  0  0  0  0  0  0  0  0  0  0  0
    7.2352   -6.5504   43.7992 C   0  0  1  0  0  0  0  0  0  0  0  0
    8.5573   -6.3146   44.2358 O   0  0  0  0  0  0  0  0  0  0  0  0
   -7.3351   -6.5378   47.0093 C   0  0  0  0  0  0  0  0  0  0  0  0
   -8.5491   -6.2326   46.3667 O   0  0  0  0  0  0  0  0  0  0  0  0
   -1.2640   -5.4105   46.0244 C   0  0  0  0  0  0  0  0  0  0  0  0
  1  2  1  6  0  0  0
  1  7  1  0  0  0  0
  1 24  1  0  0  0  0
  3  4  1  6  0  0  0
  3  9  1  0  0  0  0
  3 31  1  0  0  0  0
  5  6  1  6  0  0  0
  5 10  1  0  0  0  0
  5 28  1  0  0  0  0
  7  8  1  6  0  0  0
  7 12  1  0  0  0  0
  9 14  1  0  0  0  0
 10 11  1  6  0  0  0
 10 16  1  0  0  0  0
 12 13  1  1  0  0  0
 12 18  1  0  0  0  0
 13 35  1  0  0  0  0
 14 15  1  6  0  0  0
 14 20  1  0  0  0  0
 16 17  1  1  0  0  0
 16 21  1  0  0  0  0
 17 35  1  0  0  0  0
 18 19  1  6  0  0  0
 18 23  1  0  0  0  0
 20  2  1  1  0  0  0
 20 25  1  0  0  0  0
 21 22  1  6  0  0  0
 21 27  1  0  0  0  0
 23 24  1  0  0  0  0
 23 29  1  1  0  0  0
 25 26  1  6  0  0  0
 25 31  1  0  0  0  0
 27 28  1  0  0  0  0
 27 33  1  1  0  0  0
 29 30  1  0  0  0  0
 31 32  1  1  0  0  0
 33 34  1  0  0  0  0
M  END
>  <CHROM.1>
165.92213992,-177.36917216,176.23630436,-78.29953061,165.88057677,173.65060666
172.59421767,177.17628700,0.75546093,-5.48347734,45.33435376,-0.07101958
0.18261373,-0.08131725

>  <Name>
2o3v_lig

>  <RI>
0

>  <Rbt.Current_Directory>
/home/afrankz/demos/rdock_decoys_rna/rnas/2o3v

>  <Rbt.Executable>
rbdock ($Id: //depot/dev/client3/rdock/2013.1/src/exe/rbdock.cxx#4 $)

>  <Rbt.Library>
libRbt.so (2013.1, Build901 2013/11/27)

>  <Rbt.Parameter_File>
/export/apps/rDock/src/rDock_2013.1_src/data/scripts/dock_solv.prm

>  <Rbt.Receptor>
prm/pocket_docking_6.prm

>  <SCORE>
-14.8565

>  <SCORE.INTER>
-9.66889

>  <SCORE.INTER.CONST>
1

>  <SCORE.INTER.POLAR>
-0.959166

>  <SCORE.INTER.ROT>
8

>  <SCORE.INTER.SOLV>
19.2212

>  <SCORE.INTER.VDW>
-18.5891

>  <SCORE.INTER.norm>
-0.276254

>  <SCORE.INTRA>
-5.18758

>  <SCORE.INTRA.DIHEDRAL>
-9.15497

>  <SCORE.INTRA.DIHEDRAL.0>
13.1227

>  <SCORE.INTRA.POLAR>
0

>  <SCORE.INTRA.POLAR.0>
0

>  <SCORE.INTRA.REPUL>
0

>  <SCORE.INTRA.REPUL.0>
0

>  <SCORE.INTRA.SOLV>
0.0344071

>  <SCORE.INTRA.SOLV.lig_0>
-89.1587

>  <SCORE.INTRA.VDW>
-0.627294

>  <SCORE.INTRA.VDW.0>
-0.838383

>  <SCORE.INTRA.norm>
-0.148216

>  <SCORE.RESTR>
0

>  <SCORE.RESTR.CAVITY>
0

>  <SCORE.RESTR.norm>
0

>  <SCORE.SYSTEM>
0

>  <SCORE.SYSTEM.CONST>
0

>  <SCORE.SYSTEM.DIHEDRAL>
0

>  <SCORE.SYSTEM.SOLV>
0

>  <SCORE.SYSTEM.norm>
0

>  <SCORE.heavy>
35

>  <SCORE.norm>
-0.424471

>  <RMSD>
3.945

$$$$
2o3v_lig
 OpenBabel02141814113D
libRbt.so/2013.1/901 2013/11/27
 35 37  0  0  0  0  0  0  0  0999 V2000
    2.0533   -8.9415   44.5826 C   0  0  2  0  0  0  0  0  0  0  0  0
    2.5575   -7.7649   43.8795 O   0  0  0  0  0  0  0  0  0  0  0  0
    6.3892   -6.3836   42.3507 C   0  0  2  0  0  0  0  0  0  0  0  0
    7.8101   -5.9237   42.3091 N   0  0  0  0  0  0  0  0  0  0  0  0
   -2.5595   -1.8985   43.9452 C   0  0  2  0  0  0  0  0  0  0  0  0
   -3.5715   -2.0718   42.9297 O   0  0  0  0  0  0  0  0  0  0  0  0
    0.5457   -8.9773   44.1775 C   0  0  2  0  0  0  0  0  0  0  0  0
    0.3881   -9.0738   42.7071 N   0  0  0  0  0  0  0  0  0  0  0  0
    5.5107   -5.3676   43.1999 C   0  0  0  0  0  0  0  0  0  0  0  0
   -1.8950   -3.2971   44.1913 C   0  0  2  0  0  0  0  0  0  0  0  0
   -1.3234   -3.8439   42.9345 N   0  0  0  0  0  0  0  0  0  0  0  0
   -0.2347   -7.7013   44.7182 C   0  0  1  0  0  0  0  0  0  0  0  0
   -1.6558   -7.7324   44.2847 O   0  0  0  0  0  0  0  0  0  0  0  0
    4.0078   -5.8856   43.2382 C   0  0  2  0  0  0  0  0  0  0  0  0
    3.1744   -4.9592   44.0344 N   0  0  0  0  0  0  0  0  0  0  0  0
   -2.9255   -4.3313   44.8264 C   0  0  1  0  0  0  0  0  0  0  0  0
   -2.3276   -5.6254   45.0959 O   0  0  0  0  0  0  0  0  0  0  0  0
   -0.0353   -7.6547   46.2967 C   0  0  2  0  0  0  0  0  0  0  0  0
   -0.6793   -6.5299   46.8677 O   0  0  0  0  0  0  0  0  0  0  0  0
    3.9532   -7.3382   43.8677 C   0  0  2  0  0  0  0  0  0  0  0  0
   -3.4880   -3.7210   46.1492 C   0  0  2  0  0  0  0  0  0  0  0  0
   -4.4205   -4.5948   46.7545 O   0  0  0  0  0  0  0  0  0  0  0  0
    1.4980   -7.6350   46.6606 C   0  0  2  0  0  0  0  0  0  0  0  0
    2.1693   -8.8072   46.0609 O   0  0  0  0  0  0  0  0  0  0  0  0
    4.8199   -8.3237   43.0347 C   0  0  2  0  0  0  0  0  0  0  0  0
    4.7546   -9.6220   43.6916 O   0  0  0  0  0  0  0  0  0  0  0  0
   -4.1437   -2.3124   45.8575 C   0  0  2  0  0  0  0  0  0  0  0  0
   -3.1596   -1.4105   45.2164 O   0  0  0  0  0  0  0  0  0  0  0  0
    1.7177   -7.6278   48.1727 C   0  0  0  0  0  0  0  0  0  0  0  0
    1.1661   -8.7755   48.7705 O   0  0  0  0  0  0  0  0  0  0  0  0
    6.2822   -7.8218   42.9919 C   0  0  1  0  0  0  0  0  0  0  0  0
    7.0456   -8.7300   42.2261 O   0  0  0  0  0  0  0  0  0  0  0  0
   -4.6680   -1.6579   47.1267 C   0  0  0  0  0  0  0  0  0  0  0  0
   -5.7281   -2.4103   47.6653 O   0  0  0  0  0  0  0  0  0  0  0  0
   -2.2034   -6.3898   43.8608 C   0  0  0  0  0  0  0  0  0  0  0  0
  1  2  1  6  0  0  0
  1  7  1  0  0  0  0
  1 24  1  0  0  0  0
  3  4  1  1  0  0  0
  3  9  1  0  0  0  0
  3 31  1  0  0  0  0
  5  6  1  6  0  0  0
  5 10  1  0  0  0  0
  5 28  1  0  0  0  0
  7  8  1  6  0  0  0
  7 12  1  0  0  0  0
  9 14  1  0  0  0  0
 10 11  1  6  0  0  0
 10 16  1  0  0  0  0
 12 13  1  1  0  0  0
 12 18  1  0  0  0  0
 13 35  1  0  0  0  0
 14 15  1  1  0  0  0
 14 20  1  0  0  0  0
 16 17  1  1  0  0  0
 16 21  1  0  0  0  0
 17 35  1  0  0  0  0
 18 19  1  6  0  0  0
 18 23  1  0  0  0  0
 20  2  1  6  0  0  0
 20 25  1  0  0  0  0
 21 22  1  6  0  0  0
 21 27  1  0  0  0  0
 23 24  1  0  0  0  0
 23 29  1  1  0  0  0
 25 26  1  1  0  0  0
 25 31  1  0  0  0  0
 27 28  1  0  0  0  0
 27 33  1  1  0  0  0
 29 30  1  0  0  0  0
 31 32  1  6  0  0  0
 33 34  1  0  0  0  0
M  END
>  <CHROM.1>
-176.08901587,-139.68523165,-71.27088455,-77.57970053,-176.55989943,-169.03270734
60.55741146,-65.21602740,0.54048782,-6.03578250,44.74034070,0.27480350,-0.45811238
2.58415335

>  <Name>
2o3v_lig

>  <RI>
0

>  <Rbt.Current_Directory>
/home/afrankz/demos/rdock_decoys_rna/rnas/2o3v

>  <Rbt.Executable>
rbdock ($Id: //depot/dev/client3/rdock/2013.1/src/exe/rbdock.cxx#4 $)

>  <Rbt.Library>
libRbt.so (2013.1, Build901 2013/11/27)

>  <Rbt.Parameter_File>
/export/apps/rDock/src/rDock_2013.1_src/data/scripts/dock_solv.prm

>  <Rbt.Receptor>
prm/pocket_docking_6.prm

>  <SCORE>
-15.1239

>  <SCORE.INTER>
-11.3322

>  <SCORE.INTER.CONST>
1

>  <SCORE.INTER.POLAR>
0

>  <SCORE.INTER.ROT>
8

>  <SCORE.INTER.SOLV>
22.1166

>  <SCORE.INTER.VDW>
-23.8604

>  <SCORE.INTER.norm>
-0.323778

>  <SCORE.INTRA>
-3.7917

>  <SCORE.INTRA.DIHEDRAL>
-4.79615

>  <SCORE.INTRA.DIHEDRAL.0>
13.1227

>  <SCORE.INTRA.POLAR>
0

>  <SCORE.INTRA.POLAR.0>
0

>  <SCORE.INTRA.REPUL>
0

>  <SCORE.INTRA.REPUL.0>
0

>  <SCORE.INTRA.SOLV>
0.779606

>  <SCORE.INTRA.SOLV.lig_0>
-89.1587

>  <SCORE.INTRA.VDW>
-1.78343

>  <SCORE.INTRA.VDW.0>
-0.838383

>  <SCORE.INTRA.norm>
-0.108334

>  <SCORE.RESTR>
0

>  <SCORE.RESTR.CAVITY>
0

>  <SCORE.RESTR.norm>
0

>  <SCORE.SYSTEM>
0

>  <SCORE.SYSTEM.CONST>
0

>  <SCORE.SYSTEM.DIHEDRAL>
0

>  <SCORE.SYSTEM.SOLV>
0

>  <SCORE.SYSTEM.norm>
0

>  <SCORE.heavy>
35

>  <SCORE.norm>
-0.432113

>  <RMSD>
3.946

$$$$
2o3v_lig
 OpenBabel02141814113D
libRbt.so/2013.1/901 2013/11/27
 35 37  0  0  0  0  0  0  0  0999 V2000
    4.0714   -4.9153   46.1443 C   0  0  2  0  0  0  0  0  0  0  0  0
    4.1525   -6.1732   45.4068 O   0  0  0  0  0  0  0  0  0  0  0  0
    7.4240   -8.0375   43.2275 C   0  0  2  0  0  0  0  0  0  0  0  0
    8.3947   -8.3544   42.1369 N   0  0  0  0  0  0  0  0  0  0  0  0
   -5.2669   -4.1286   45.4908 C   0  0  2  0  0  0  0  0  0  0  0  0
   -5.1598   -4.6100   44.1334 O   0  0  0  0  0  0  0  0  0  0  0  0
    2.7484   -5.0673   46.9597 C   0  0  2  0  0  0  0  0  0  0  0  0
    2.7993   -6.2529   47.8475 N   0  0  0  0  0  0  0  0  0  0  0  0
    5.9392   -8.3197   42.7366 C   0  0  0  0  0  0  0  0  0  0  0  0
   -3.8417   -4.2220   46.1375 C   0  0  2  0  0  0  0  0  0  0  0  0
   -2.8496   -3.4418   45.3552 N   0  0  0  0  0  0  0  0  0  0  0  0
    1.4814   -5.1668   46.0036 C   0  0  1  0  0  0  0  0  0  0  0  0
    0.2388   -5.3554   46.7966 O   0  0  0  0  0  0  0  0  0  0  0  0
    4.9268   -7.9638   43.9100 C   0  0  2  0  0  0  0  0  0  0  0  0
    3.5367   -8.2087   43.4694 N   0  0  0  0  0  0  0  0  0  0  0  0
   -3.3641   -5.7335   46.2860 C   0  0  1  0  0  0  0  0  0  0  0  0
   -2.0610   -5.8513   46.9128 O   0  0  0  0  0  0  0  0  0  0  0  0
    1.4765   -3.8685   45.0827 C   0  0  2  0  0  0  0  0  0  0  0  0
    0.3897   -3.8810   44.1747 O   0  0  0  0  0  0  0  0  0  0  0  0
    5.1007   -6.4468   44.3315 C   0  0  2  0  0  0  0  0  0  0  0  0
   -4.4285   -6.5091   47.1252 C   0  0  2  0  0  0  0  0  0  0  0  0
   -4.0610   -7.8656   47.2814 O   0  0  0  0  0  0  0  0  0  0  0  0
    2.8337   -3.7464   44.2910 C   0  0  2  0  0  0  0  0  0  0  0  0
    3.9670   -3.7374   45.2396 O   0  0  0  0  0  0  0  0  0  0  0  0
    6.5569   -6.1782   44.8043 C   0  0  2  0  0  0  0  0  0  0  0  0
    6.6524   -4.7632   45.1356 O   0  0  0  0  0  0  0  0  0  0  0  0
   -5.8488   -6.3857   46.4420 C   0  0  2  0  0  0  0  0  0  0  0  0
   -6.2174   -4.9610   46.2769 O   0  0  0  0  0  0  0  0  0  0  0  0
    2.8698   -2.4869   43.4265 C   0  0  0  0  0  0  0  0  0  0  0  0
    4.1771   -2.2119   42.9859 O   0  0  0  0  0  0  0  0  0  0  0  0
    7.5454   -6.5265   43.6669 C   0  0  1  0  0  0  0  0  0  0  0  0
    8.8588   -6.2793   44.1232 O   0  0  0  0  0  0  0  0  0  0  0  0
   -6.9287   -7.0906   47.2489 C   0  0  0  0  0  0  0  0  0  0  0  0
   -7.0465   -6.5092   48.5249 O   0  0  0  0  0  0  0  0  0  0  0  0
   -1.0117   -5.5044   45.9622 C   0  0  0  0  0  0  0  0  0  0  0  0
  1  2  1  6  0  0  0
  1  7  1  0  0  0  0
  1 24  1  0  0  0  0
  3  4  1  6  0  0  0
  3  9  1  0  0  0  0
  3 31  1  0  0  0  0
  5  6  1  6  0  0  0
  5 10  1  0  0  0  0
  5 28  1  0  0  0  0
  7  8  1  6  0  0  0
  7 12  1  0  0  0  0
  9 14  1  0  0  0  0
 10 11  1  6  0  0  0
 10 16  1  0  0  0  0
 12 13  1  1  0  0  0
 12 18  1  0  0  0  0
 13 35  1  0  0  0  0
 14 15  1  6  0  0  0
 14 20  1  0  0  0  0
 16 17  1  1  0  0  0
 16 21  1  0  0  0  0
 17 35  1  0  0  0  0
 18 19  1  6  0  0  0
 18 23  1  0  0  0  0
 20  2  1  1  0  0  0
 20 25  1  0  0  0  0
 21 22  1  6  0  0  0
 21 27  1  0  0  0  0
 23 24  1  0  0  0  0
 23 29  1  1  0  0  0
 25 26  1  6  0  0  0
 25 31  1  0  0  0  0
 27 28  1  0  0  0  0
 27 33  1  1  0  0  0
 29 30  1  0  0  0  0
 31 32  1  1  0  0  0
 33 34  1  0  0  0  0
M  END
>  <CHROM.1>
169.72835484,-178.14399506,172.70194720,-76.33474594,167.41768002,174.90190844
165.62481228,61.55076551,1.04051665,-5.59945945,45.30082951,-0.00241707,0.22940091
-0.21331119

>  <Name>
2o3v_lig

>  <RI>
0

>  <Rbt.Current_Directory>
/home/afrankz/demos/rdock_decoys_rna/rnas/2o3v

>  <Rbt.Executable>
rbdock ($Id: //depot/dev/client3/rdock/2013.1/src/exe/rbdock.cxx#4 $)

>  <Rbt.Library>
libRbt.so (2013.1, Build901 2013/11/27)

>  <Rbt.Parameter_File>
/export/apps/rDock/src/rDock_2013.1_src/data/scripts/dock_solv.prm

>  <Rbt.Receptor>
prm/pocket_docking_4.prm

>  <SCORE>
-14.6087

>  <SCORE.INTER>
-9.57151

>  <SCORE.INTER.CONST>
1

>  <SCORE.INTER.POLAR>
-0.959166

>  <SCORE.INTER.ROT>
8

>  <SCORE.INTER.SOLV>
20.4721

>  <SCORE.INTER.VDW>
-18.9412

>  <SCORE.INTER.norm>
-0.273472

>  <SCORE.INTRA>
-5.03718

>  <SCORE.INTRA.DIHEDRAL>
-9.45899

>  <SCORE.INTRA.DIHEDRAL.0>
13.1227

>  <SCORE.INTRA.POLAR>
0

>  <SCORE.INTRA.POLAR.0>
0

>  <SCORE.INTRA.REPUL>
0

>  <SCORE.INTRA.REPUL.0>
0

>  <SCORE.INTRA.SOLV>
0.212904

>  <SCORE.INTRA.SOLV.lig_0>
-89.1587

>  <SCORE.INTRA.VDW>
-0.414135

>  <SCORE.INTRA.VDW.0>
-0.838383

>  <SCORE.INTRA.norm>
-0.143919

>  <SCORE.RESTR>
0

>  <SCORE.RESTR.CAVITY>
0

>  <SCORE.RESTR.norm>
0

>  <SCORE.SYSTEM>
0

>  <SCORE.SYSTEM.CONST>
0

>  <SCORE.SYSTEM.DIHEDRAL>
0

>  <SCORE.SYSTEM.SOLV>
0

>  <SCORE.SYSTEM.norm>
0

>  <SCORE.heavy>
35

>  <SCORE.norm>
-0.417391

>  <RMSD>
3.951

$$$$
2o3v_lig
 OpenBabel02141814113D
libRbt.so/2013.1/901 2013/11/27
 35 37  0  0  0  0  0  0  0  0999 V2000
    2.5098   -4.1029   45.4127 C   0  0  2  0  0  0  0  0  0  0  0  0
    2.7327   -5.4083   44.7971 O   0  0  0  0  0  0  0  0  0  0  0  0
    5.9232   -7.0215   42.3180 C   0  0  2  0  0  0  0  0  0  0  0  0
    7.2574   -7.5478   41.8995 N   0  0  0  0  0  0  0  0  0  0  0  0
   -4.7551   -9.5967   44.5319 C   0  0  2  0  0  0  0  0  0  0  0  0
   -5.7251   -9.2934   45.5579 O   0  0  0  0  0  0  0  0  0  0  0  0
    1.3407   -4.3770   46.4110 C   0  0  2  0  0  0  0  0  0  0  0  0
    1.7101   -5.4219   47.3949 N   0  0  0  0  0  0  0  0  0  0  0  0
    6.0654   -5.5293   42.8456 C   0  0  0  0  0  0  0  0  0  0  0  0
   -3.3846   -8.9835   44.9835 C   0  0  2  0  0  0  0  0  0  0  0  0
   -2.9710   -9.5191   46.3052 N   0  0  0  0  0  0  0  0  0  0  0  0
    0.0106   -4.8026   45.6499 C   0  0  1  0  0  0  0  0  0  0  0  0
   -1.0758   -5.1016   46.6187 O   0  0  0  0  0  0  0  0  0  0  0  0
    4.6357   -4.9979   43.2948 C   0  0  2  0  0  0  0  0  0  0  0  0
    4.7476   -3.6129   43.8006 N   0  0  0  0  0  0  0  0  0  0  0  0
   -3.4398   -7.3928   45.0236 C   0  0  1  0  0  0  0  0  0  0  0  0
   -2.1737   -6.7969   45.4065 O   0  0  0  0  0  0  0  0  0  0  0  0
   -0.3382   -3.6436   44.6161 C   0  0  2  0  0  0  0  0  0  0  0  0
   -1.5026   -3.9479   43.8695 O   0  0  0  0  0  0  0  0  0  0  0  0
    4.0399   -5.9381   44.4219 C   0  0  2  0  0  0  0  0  0  0  0  0
   -3.8640   -6.8761   43.6124 C   0  0  2  0  0  0  0  0  0  0  0  0
   -3.9404   -5.4643   43.5910 O   0  0  0  0  0  0  0  0  0  0  0  0
    0.8724   -3.3902   43.6395 C   0  0  2  0  0  0  0  0  0  0  0  0
    2.0876   -3.0766   44.4202 O   0  0  0  0  0  0  0  0  0  0  0  0
    3.9100   -7.3965   43.8996 C   0  0  2  0  0  0  0  0  0  0  0  0
    3.3968   -8.2067   44.9957 O   0  0  0  0  0  0  0  0  0  0  0  0
   -5.2456   -7.5210   43.1944 C   0  0  2  0  0  0  0  0  0  0  0  0
   -5.1542   -8.9986   43.2292 O   0  0  0  0  0  0  0  0  0  0  0  0
    0.5772   -2.2555   42.6596 C   0  0  0  0  0  0  0  0  0  0  0  0
   -0.4087   -2.6325   41.7296 O   0  0  0  0  0  0  0  0  0  0  0  0
    5.2982   -7.9162   43.4582 C   0  0  1  0  0  0  0  0  0  0  0  0
    5.1517   -9.2382   42.9838 O   0  0  0  0  0  0  0  0  0  0  0  0
   -5.6792   -7.0800   41.8046 C   0  0  0  0  0  0  0  0  0  0  0  0
   -6.8953   -7.6939   41.4518 O   0  0  0  0  0  0  0  0  0  0  0  0
   -2.3922   -5.4735   45.9776 C   0  0  0  0  0  0  0  0  0  0  0  0
  1  2  1  6  0  0  0
  1  7  1  0  0  0  0
  1 24  1  0  0  0  0
  3  4  1  1  0  0  0
  3  9  1  0  0  0  0
  3 31  1  0  0  0  0
  5  6  1  1  0  0  0
  5 10  1  0  0  0  0
  5 28  1  0  0  0  0
  7  8  1  1  0  0  0
  7 12  1  0  0  0  0
  9 14  1  0  0  0  0
 10 11  1  1  0  0  0
 10 16  1  0  0  0  0
 12 13  1  1  0  0  0
 12 18  1  0  0  0  0
 13 35  1  0  0  0  0
 14 15  1  1  0  0  0
 14 20  1  0  0  0  0
 16 17  1  6  0  0  0
 16 21  1  0  0  0  0
 17 35  1  0  0  0  0
 18 19  1  6  0  0  0
 18 23  1  0  0  0  0
 20  2  1  6  0  0  0
 20 25  1  0  0  0  0
 21 22  1  1  0  0  0
 21 27  1  0  0  0  0
 23 24  1  0  0  0  0
 23 29  1  6  0  0  0
 25 26  1  1  0  0  0
 25 31  1  0  0  0  0
 27 28  1  0  0  0  0
 27 33  1  6  0  0  0
 29 30  1  0  0  0  0
 31 32  1  6  0  0  0
 33 34  1  0  0  0  0
M  END
>  <CHROM.1>
-143.31364791,178.17332228,70.87925820,-155.64784535,167.26223117,-63.72458256
-69.44465595,178.69700993,0.02433766,-6.18287159,44.15649375,0.18875795,0.03722019
0.02055907

>  <Name>
2o3v_lig

>  <RI>
0

>  <Rbt.Current_Directory>
/home/afrankz/demos/rdock_decoys_rna/rnas/2o3v

>  <Rbt.Executable>
rbdock ($Id: //depot/dev/client3/rdock/2013.1/src/exe/rbdock.cxx#4 $)

>  <Rbt.Library>
libRbt.so (2013.1, Build901 2013/11/27)

>  <Rbt.Parameter_File>
/export/apps/rDock/src/rDock_2013.1_src/data/scripts/dock_solv.prm

>  <Rbt.Receptor>
prm/pocket_docking_6.prm

>  <SCORE>
-14.4615

>  <SCORE.INTER>
-12.7728

>  <SCORE.INTER.CONST>
1

>  <SCORE.INTER.POLAR>
-0.959166

>  <SCORE.INTER.ROT>
8

>  <SCORE.INTER.SOLV>
18.0663

>  <SCORE.INTER.VDW>
-20.2734

>  <SCORE.INTER.norm>
-0.364936

>  <SCORE.INTRA>
-1.70401

>  <SCORE.INTRA.DIHEDRAL>
-3.97067

>  <SCORE.INTRA.DIHEDRAL.0>
13.1227

>  <SCORE.INTRA.POLAR>
0

>  <SCORE.INTRA.POLAR.0>
0

>  <SCORE.INTRA.REPUL>
0

>  <SCORE.INTRA.REPUL.0>
0

>  <SCORE.INTRA.SOLV>
1.62478

>  <SCORE.INTRA.SOLV.lig_0>
-89.1587

>  <SCORE.INTRA.VDW>
-0.531063

>  <SCORE.INTRA.VDW.0>
-0.838383

>  <SCORE.INTRA.norm>
-0.0486859

>  <SCORE.RESTR>
0.0152273

>  <SCORE.RESTR.CAVITY>
0.0152273

>  <SCORE.RESTR.norm>
0.000435066

>  <SCORE.SYSTEM>
0

>  <SCORE.SYSTEM.CONST>
0

>  <SCORE.SYSTEM.DIHEDRAL>
0

>  <SCORE.SYSTEM.SOLV>
0

>  <SCORE.SYSTEM.norm>
0

>  <SCORE.heavy>
35

>  <SCORE.norm>
-0.413187

>  <RMSD>
3.964

$$$$
2o3v_lig
 OpenBabel02141814113D
libRbt.so/2013.1/901 2013/11/27
 35 37  0  0  0  0  0  0  0  0999 V2000
    1.3806   -5.3882   43.5631 C   0  0  2  0  0  0  0  0  0  0  0  0
    2.4353   -5.4988   44.5671 O   0  0  0  0  0  0  0  0  0  0  0  0
    5.9142   -6.8735   42.3457 C   0  0  2  0  0  0  0  0  0  0  0  0
    7.3016   -7.3350   42.0386 N   0  0  0  0  0  0  0  0  0  0  0  0
   -6.9409   -3.5926   44.6397 C   0  0  2  0  0  0  0  0  0  0  0  0
   -7.0465   -4.8525   43.9419 O   0  0  0  0  0  0  0  0  0  0  0  0
    0.2276   -4.6745   44.3374 C   0  0  2  0  0  0  0  0  0  0  0  0
    0.6665   -3.3585   44.8587 N   0  0  0  0  0  0  0  0  0  0  0  0
    5.9493   -5.4095   42.9629 C   0  0  0  0  0  0  0  0  0  0  0  0
   -5.4463   -3.4233   45.0824 C   0  0  2  0  0  0  0  0  0  0  0  0
   -4.5344   -3.4806   43.9119 N   0  0  0  0  0  0  0  0  0  0  0  0
   -0.3152   -5.5715   45.5334 C   0  0  1  0  0  0  0  0  0  0  0  0
   -1.3801   -4.8570   46.2841 O   0  0  0  0  0  0  0  0  0  0  0  0
    4.4636   -4.9475   43.2910 C   0  0  2  0  0  0  0  0  0  0  0  0
    4.4746   -3.5903   43.8778 N   0  0  0  0  0  0  0  0  0  0  0  0
   -5.0286   -4.5151   46.1633 C   0  0  1  0  0  0  0  0  0  0  0  0
   -3.6589   -4.3612   46.6159 O   0  0  0  0  0  0  0  0  0  0  0  0
   -0.7761   -6.9633   44.9136 C   0  0  2  0  0  0  0  0  0  0  0  0
   -1.2551   -7.8434   45.9145 O   0  0  0  0  0  0  0  0  0  0  0  0
    3.7916   -5.9670   44.3001 C   0  0  2  0  0  0  0  0  0  0  0  0
   -6.0040   -4.4078   47.3781 C   0  0  2  0  0  0  0  0  0  0  0  0
   -5.6865   -5.3648   48.3695 O   0  0  0  0  0  0  0  0  0  0  0  0
    0.4116   -7.6406   44.1297 C   0  0  2  0  0  0  0  0  0  0  0  0
    0.9129   -6.7194   43.0881 O   0  0  0  0  0  0  0  0  0  0  0  0
    3.7670   -7.3971   43.6912 C   0  0  2  0  0  0  0  0  0  0  0  0
    3.1756   -8.2825   44.6848 O   0  0  0  0  0  0  0  0  0  0  0  0
   -7.4972   -4.5792   46.8880 C   0  0  2  0  0  0  0  0  0  0  0  0
   -7.8137   -3.5771   45.8447 O   0  0  0  0  0  0  0  0  0  0  0  0
   -0.0154   -8.9621   43.4926 C   0  0  0  0  0  0  0  0  0  0  0  0
    0.6506   -9.1750   42.2720 O   0  0  0  0  0  0  0  0  0  0  0  0
    5.2102   -7.8491   43.3672 C   0  0  1  0  0  0  0  0  0  0  0  0
    5.1594   -9.1463   42.8114 O   0  0  0  0  0  0  0  0  0  0  0  0
   -8.4889   -4.4383   48.0329 C   0  0  0  0  0  0  0  0  0  0  0  0
   -8.4023   -5.5458   48.8966 O   0  0  0  0  0  0  0  0  0  0  0  0
   -2.7367   -4.8933   45.6202 C   0  0  0  0  0  0  0  0  0  0  0  0
  1  2  1  1  0  0  0
  1  7  1  0  0  0  0
  1 24  1  0  0  0  0
  3  4  1  1  0  0  0
  3  9  1  0  0  0  0
  3 31  1  0  0  0  0
  5  6  1  1  0  0  0
  5 10  1  0  0  0  0
  5 28  1  0  0  0  0
  7  8  1  1  0  0  0
  7 12  1  0  0  0  0
  9 14  1  0  0  0  0
 10 11  1  6  0  0  0
 10 16  1  0  0  0  0
 12 13  1  6  0  0  0
 12 18  1  0  0  0  0
 13 35  1  0  0  0  0
 14 15  1  1  0  0  0
 14 20  1  0  0  0  0
 16 17  1  1  0  0  0
 16 21  1  0  0  0  0
 17 35  1  0  0  0  0
 18 19  1  1  0  0  0
 18 23  1  0  0  0  0
 20  2  1  6  0  0  0
 20 25  1  0  0  0  0
 21 22  1  1  0  0  0
 21 27  1  0  0  0  0
 23 24  1  0  0  0  0
 23 29  1  6  0  0  0
 25 26  1  1  0  0  0
 25 31  1  0  0  0  0
 27 28  1  0  0  0  0
 27 33  1  1  0  0  0
 29 30  1  0  0  0  0
 31 32  1  6  0  0  0
 33 34  1  0  0  0  0
M  END
>  <CHROM.1>
-172.87537924,79.51915567,170.05309167,-77.92018378,-172.16961946,63.14326379
146.20729009,-70.30855456,-0.83913581,-5.75817883,44.81932025,-0.22028716
0.28272199,0.04864834

>  <Name>
2o3v_lig

>  <RI>
0

>  <Rbt.Current_Directory>
/home/afrankz/demos/rdock_decoys_rna/rnas/2o3v

>  <Rbt.Executable>
rbdock ($Id: //depot/dev/client3/rdock/2013.1/src/exe/rbdock.cxx#4 $)

>  <Rbt.Library>
libRbt.so (2013.1, Build901 2013/11/27)

>  <Rbt.Parameter_File>
/export/apps/rDock/src/rDock_2013.1_src/data/scripts/dock_solv.prm

>  <Rbt.Receptor>
prm/pocket_docking_4.prm

>  <SCORE>
-16.0372

>  <SCORE.INTER>
-13.3524

>  <SCORE.INTER.CONST>
1

>  <SCORE.INTER.POLAR>
-1.83074

>  <SCORE.INTER.ROT>
8

>  <SCORE.INTER.SOLV>
20.0994

>  <SCORE.INTER.VDW>
-18.4323

>  <SCORE.INTER.norm>
-0.381497

>  <SCORE.INTRA>
-2.81714

>  <SCORE.INTRA.DIHEDRAL>
-5.30878

>  <SCORE.INTRA.DIHEDRAL.0>
13.1227

>  <SCORE.INTRA.POLAR>
0

>  <SCORE.INTRA.POLAR.0>
0

>  <SCORE.INTRA.REPUL>
0

>  <SCORE.INTRA.REPUL.0>
0

>  <SCORE.INTRA.SOLV>
1.36958

>  <SCORE.INTRA.SOLV.lig_0>
-89.1587

>  <SCORE.INTRA.VDW>
-0.847548

>  <SCORE.INTRA.VDW.0>
-0.838383

>  <SCORE.INTRA.norm>
-0.0804898

>  <SCORE.RESTR>
0.132316

>  <SCORE.RESTR.CAVITY>
0.132316

>  <SCORE.RESTR.norm>
0.00378045

>  <SCORE.SYSTEM>
0

>  <SCORE.SYSTEM.CONST>
0

>  <SCORE.SYSTEM.DIHEDRAL>
0

>  <SCORE.SYSTEM.SOLV>
0

>  <SCORE.SYSTEM.norm>
0

>  <SCORE.heavy>
35

>  <SCORE.norm>
-0.458206

>  <RMSD>
3.982

$$$$
2o3v_lig
 OpenBabel02141814113D
libRbt.so/2013.1/901 2013/11/27
 35 37  0  0  0  0  0  0  0  0999 V2000
    1.6167   -5.1615   43.1968 C   0  0  2  0  0  0  0  0  0  0  0  0
    2.6218   -5.2409   44.2533 O   0  0  0  0  0  0  0  0  0  0  0  0
    6.0702   -7.0856   42.3471 C   0  0  2  0  0  0  0  0  0  0  0  0
    7.4237   -7.6888   42.1566 N   0  0  0  0  0  0  0  0  0  0  0  0
   -7.0455   -5.2340   45.3981 C   0  0  2  0  0  0  0  0  0  0  0  0
   -7.3676   -3.9692   44.7801 O   0  0  0  0  0  0  0  0  0  0  0  0
    0.5817   -4.1414   43.7683 C   0  0  2  0  0  0  0  0  0  0  0  0
    1.2195   -2.8349   44.0556 N   0  0  0  0  0  0  0  0  0  0  0  0
    6.2068   -5.5855   42.8537 C   0  0  0  0  0  0  0  0  0  0  0  0
   -5.6402   -5.0822   46.0767 C   0  0  2  0  0  0  0  0  0  0  0  0
   -5.6426   -3.9735   47.0645 N   0  0  0  0  0  0  0  0  0  0  0  0
   -0.1203   -4.6966   45.0831 C   0  0  1  0  0  0  0  0  0  0  0  0
   -1.0678   -3.6939   45.6355 O   0  0  0  0  0  0  0  0  0  0  0  0
    4.7545   -4.9716   43.0593 C   0  0  2  0  0  0  0  0  0  0  0  0
    4.8591   -3.5779   43.5422 N   0  0  0  0  0  0  0  0  0  0  0  0
   -4.4902   -4.8600   44.9982 C   0  0  1  0  0  0  0  0  0  0  0  0
   -3.1733   -4.7495   45.5967 O   0  0  0  0  0  0  0  0  0  0  0  0
   -0.7903   -6.0920   44.7123 C   0  0  2  0  0  0  0  0  0  0  0  0
   -1.4232   -6.6781   45.8356 O   0  0  0  0  0  0  0  0  0  0  0  0
    3.9417   -5.8449   44.1014 C   0  0  2  0  0  0  0  0  0  0  0  0
   -4.5173   -6.0540   43.9921 C   0  0  2  0  0  0  0  0  0  0  0  0
   -3.5200   -5.9046   43.0008 O   0  0  0  0  0  0  0  0  0  0  0  0
    0.2850   -7.0840   44.1262 C   0  0  2  0  0  0  0  0  0  0  0  0
    0.9473   -6.4694   42.9565 O   0  0  0  0  0  0  0  0  0  0  0  0
    3.8182   -7.3115   43.6012 C   0  0  2  0  0  0  0  0  0  0  0  0
    3.0986   -8.0600   44.6224 O   0  0  0  0  0  0  0  0  0  0  0  0
   -5.9503   -6.1741   43.3354 C   0  0  2  0  0  0  0  0  0  0  0  0
   -6.9853   -6.3214   44.3842 O   0  0  0  0  0  0  0  0  0  0  0  0
   -0.3399   -8.4199   43.7270 C   0  0  0  0  0  0  0  0  0  0  0  0
    0.6439   -9.3360   43.3124 O   0  0  0  0  0  0  0  0  0  0  0  0
    5.2289   -7.9116   43.3964 C   0  0  1  0  0  0  0  0  0  0  0  0
    5.0887   -9.2397   42.9374 O   0  0  0  0  0  0  0  0  0  0  0  0
   -6.0378   -7.3531   42.3783 C   0  0  0  0  0  0  0  0  0  0  0  0
   -5.8255   -8.5616   43.0671 O   0  0  0  0  0  0  0  0  0  0  0  0
   -2.4180   -3.6788   44.9579 C   0  0  0  0  0  0  0  0  0  0  0  0
  1  2  1  1  0  0  0
  1  7  1  0  0  0  0
  1 24  1  0  0  0  0
  3  4  1  1  0  0  0
  3  9  1  0  0  0  0
  3 31  1  0  0  0  0
  5  6  1  6  0  0  0
  5 10  1  0  0  0  0
  5 28  1  0  0  0  0
  7  8  1  1  0  0  0
  7 12  1  0  0  0  0
  9 14  1  0  0  0  0
 10 11  1  1  0  0  0
 10 16  1  0  0  0  0
 12 13  1  6  0  0  0
 12 18  1  0  0  0  0
 13 35  1  0  0  0  0
 14 15  1  1  0  0  0
 14 20  1  0  0  0  0
 16 17  1  1  0  0  0
 16 21  1  0  0  0  0
 17 35  1  0  0  0  0
 18 19  1  1  0  0  0
 18 23  1  0  0  0  0
 20  2  1  6  0  0  0
 20 25  1  0  0  0  0
 21 22  1  6  0  0  0
 21 27  1  0  0  0  0
 23 24  1  0  0  0  0
 23 29  1  6  0  0  0
 25 26  1  1  0  0  0
 25 31  1  0  0  0  0
 27 28  1  0  0  0  0
 27 33  1  6  0  0  0
 29 30  1  0  0  0  0
 31 32  1  6  0  0  0
 33 34  1  0  0  0  0
M  END
>  <CHROM.1>
-166.58831218,81.60148856,82.92755197,-137.69244543,-178.39228654,65.38837608
-174.98367138,62.25566776,-0.45454440,-6.00253653,44.07185649,-0.14840289
0.09175716,0.35623420

>  <Name>
2o3v_lig

>  <RI>
0

>  <Rbt.Current_Directory>
/home/afrankz/demos/rdock_decoys_rna/rnas/2o3v

>  <Rbt.Executable>
rbdock ($Id: //depot/dev/client3/rdock/2013.1/src/exe/rbdock.cxx#4 $)

>  <Rbt.Library>
libRbt.so (2013.1, Build901 2013/11/27)

>  <Rbt.Parameter_File>
/export/apps/rDock/src/rDock_2013.1_src/data/scripts/dock_solv.prm

>  <Rbt.Receptor>
prm/pocket_docking_4.prm

>  <SCORE>
-18.5565

>  <SCORE.INTER>
-16.2302

>  <SCORE.INTER.CONST>
1

>  <SCORE.INTER.POLAR>
-1.77175

>  <SCORE.INTER.ROT>
8

>  <SCORE.INTER.SOLV>
19.1182

>  <SCORE.INTER.VDW>
-20.2204

>  <SCORE.INTER.norm>
-0.463719

>  <SCORE.INTRA>
-2.34876

>  <SCORE.INTRA.DIHEDRAL>
-1.83746

>  <SCORE.INTRA.DIHEDRAL.0>
13.1227

>  <SCORE.INTRA.POLAR>
0

>  <SCORE.INTRA.POLAR.0>
0

>  <SCORE.INTRA.REPUL>
0

>  <SCORE.INTRA.REPUL.0>
0

>  <SCORE.INTRA.SOLV>
2.26131

>  <SCORE.INTRA.SOLV.lig_0>
-89.1587

>  <SCORE.INTRA.VDW>
-2.56068

>  <SCORE.INTRA.VDW.0>
-0.838383

>  <SCORE.INTRA.norm>
-0.0671073

>  <SCORE.RESTR>
0.0223892

>  <SCORE.RESTR.CAVITY>
0.0223892

>  <SCORE.RESTR.norm>
0.000639691

>  <SCORE.SYSTEM>
0

>  <SCORE.SYSTEM.CONST>
0

>  <SCORE.SYSTEM.DIHEDRAL>
0

>  <SCORE.SYSTEM.SOLV>
0

>  <SCORE.SYSTEM.norm>
0

>  <SCORE.heavy>
35

>  <SCORE.norm>
-0.530187

>  <RMSD>
4.036

$$$$
2o3v_lig
 OpenBabel02141814113D
libRbt.so/2013.1/901 2013/11/27
 35 37  0  0  0  0  0  0  0  0999 V2000
    0.2796   -7.6590   43.4191 C   0  0  2  0  0  0  0  0  0  0  0  0
    0.3840   -6.3868   44.1286 O   0  0  0  0  0  0  0  0  0  0  0  0
    1.6177   -2.3420   43.1063 C   0  0  2  0  0  0  0  0  0  0  0  0
    2.4773   -1.1840   42.7159 N   0  0  0  0  0  0  0  0  0  0  0  0
   -5.4921   -8.8578   51.0949 C   0  0  2  0  0  0  0  0  0  0  0  0
   -4.5080   -8.2069   51.9276 O   0  0  0  0  0  0  0  0  0  0  0  0
   -0.8093   -8.4292   44.2312 C   0  0  2  0  0  0  0  0  0  0  0  0
   -2.0872   -7.6792   44.2596 N   0  0  0  0  0  0  0  0  0  0  0  0
    2.1159   -2.9513   44.4869 C   0  0  0  0  0  0  0  0  0  0  0  0
   -4.7195   -9.6469   49.9819 C   0  0  2  0  0  0  0  0  0  0  0  0
   -3.7742  -10.6234   50.5800 N   0  0  0  0  0  0  0  0  0  0  0  0
   -0.3280   -8.7259   45.7178 C   0  0  1  0  0  0  0  0  0  0  0  0
   -1.3943   -9.4193   46.4862 O   0  0  0  0  0  0  0  0  0  0  0  0
    1.1930   -4.1873   44.8731 C   0  0  2  0  0  0  0  0  0  0  0  0
    1.6473   -4.7770   46.1508 N   0  0  0  0  0  0  0  0  0  0  0  0
   -3.9485   -8.6636   48.9952 C   0  0  1  0  0  0  0  0  0  0  0  0
   -3.2514   -9.3661   47.9344 O   0  0  0  0  0  0  0  0  0  0  0  0
    1.0391   -9.5356   45.6231 C   0  0  2  0  0  0  0  0  0  0  0  0
    1.5601   -9.8255   46.9078 O   0  0  0  0  0  0  0  0  0  0  0  0
    1.2442   -5.2785   43.7260 C   0  0  2  0  0  0  0  0  0  0  0  0
   -4.9823   -7.6670   48.3813 C   0  0  2  0  0  0  0  0  0  0  0  0
   -4.3501   -6.7587   47.5011 O   0  0  0  0  0  0  0  0  0  0  0  0
    2.1025   -8.7302   44.7839 C   0  0  2  0  0  0  0  0  0  0  0  0
    1.5559   -8.4251   43.4450 O   0  0  0  0  0  0  0  0  0  0  0  0
    0.7614   -4.6726   42.3784 C   0  0  2  0  0  0  0  0  0  0  0  0
    0.8732   -5.7155   41.3679 O   0  0  0  0  0  0  0  0  0  0  0  0
   -5.7406   -6.8972   49.5353 C   0  0  2  0  0  0  0  0  0  0  0  0
   -6.3905   -7.8597   50.4540 O   0  0  0  0  0  0  0  0  0  0  0  0
    3.4135   -9.5029   44.6462 C   0  0  0  0  0  0  0  0  0  0  0  0
    4.3685   -8.7575   43.9313 O   0  0  0  0  0  0  0  0  0  0  0  0
    1.6543   -3.4676   42.0006 C   0  0  1  0  0  0  0  0  0  0  0  0
    1.1920   -2.9331   40.7780 O   0  0  0  0  0  0  0  0  0  0  0  0
   -6.7912   -5.9444   48.9854 C   0  0  0  0  0  0  0  0  0  0  0  0
   -7.3783   -5.2054   50.0290 O   0  0  0  0  0  0  0  0  0  0  0  0
   -2.2399   -8.5020   47.3382 C   0  0  0  0  0  0  0  0  0  0  0  0
  1  2  1  1  0  0  0
  1  7  1  0  0  0  0
  1 24  1  0  0  0  0
  3  4  1  6  0  0  0
  3  9  1  0  0  0  0
  3 31  1  0  0  0  0
  5  6  1  1  0  0  0
  5 10  1  0  0  0  0
  5 28  1  0  0  0  0
  7  8  1  1  0  0  0
  7 12  1  0  0  0  0
  9 14  1  0  0  0  0
 10 11  1  1  0  0  0
 10 16  1  0  0  0  0
 12 13  1  6  0  0  0
 12 18  1  0  0  0  0
 13 35  1  0  0  0  0
 14 15  1  1  0  0  0
 14 20  1  0  0  0  0
 16 17  1  6  0  0  0
 16 21  1  0  0  0  0
 17 35  1  0  0  0  0
 18 19  1  1  0  0  0
 18 23  1  0  0  0  0
 20  2  1  1  0  0  0
 20 25  1  0  0  0  0
 21 22  1  6  0  0  0
 21 27  1  0  0  0  0
 23 24  1  0  0  0  0
 23 29  1  6  0  0  0
 25 26  1  6  0  0  0
 25 31  1  0  0  0  0
 27 28  1  0  0  0  0
 27 33  1  6  0  0  0
 29 30  1  0  0  0  0
 31 32  1  6  0  0  0
 33 34  1  0  0  0  0
M  END
>  <CHROM.1>
-177.48741041,-96.70777361,176.93252969,-161.75534727,167.76898283,-172.51821774
-178.16646310,-175.71305437,-1.12298074,-7.01376867,46.06919902,-0.56178618
-0.61164957,2.71683046

>  <Name>
2o3v_lig

>  <RI>
0

>  <Rbt.Current_Directory>
/home/afrankz/demos/rdock_decoys_rna/rnas/2o3v

>  <Rbt.Executable>
rbdock ($Id: //depot/dev/client3/rdock/2013.1/src/exe/rbdock.cxx#4 $)

>  <Rbt.Library>
libRbt.so (2013.1, Build901 2013/11/27)

>  <Rbt.Parameter_File>
/export/apps/rDock/src/rDock_2013.1_src/data/scripts/dock_solv.prm

>  <Rbt.Receptor>
prm/pocket_docking_6.prm

>  <SCORE>
-12.2408

>  <SCORE.INTER>
-8.14165

>  <SCORE.INTER.CONST>
1

>  <SCORE.INTER.POLAR>
-0.87178

>  <SCORE.INTER.ROT>
8

>  <SCORE.INTER.SOLV>
10.7566

>  <SCORE.INTER.VDW>
-15.0407

>  <SCORE.INTER.norm>
-0.232619

>  <SCORE.INTRA>
-4.09911

>  <SCORE.INTRA.DIHEDRAL>
-5.57505

>  <SCORE.INTRA.DIHEDRAL.0>
13.1227

>  <SCORE.INTRA.POLAR>
0

>  <SCORE.INTRA.POLAR.0>
0

>  <SCORE.INTRA.REPUL>
0.0270556

>  <SCORE.INTRA.REPUL.0>
0

>  <SCORE.INTRA.SOLV>
-0.940301

>  <SCORE.INTRA.SOLV.lig_0>
-89.1587

>  <SCORE.INTRA.VDW>
-0.976716

>  <SCORE.INTRA.VDW.0>
-0.838383

>  <SCORE.INTRA.norm>
-0.117118

>  <SCORE.RESTR>
0

>  <SCORE.RESTR.CAVITY>
0

>  <SCORE.RESTR.norm>
0

>  <SCORE.SYSTEM>
0

>  <SCORE.SYSTEM.CONST>
0

>  <SCORE.SYSTEM.DIHEDRAL>
0

>  <SCORE.SYSTEM.SOLV>
0

>  <SCORE.SYSTEM.norm>
0

>  <SCORE.heavy>
35

>  <SCORE.norm>
-0.349736

>  <RMSD>
4.049

$$$$
2o3v_lig
 OpenBabel02141814113D
libRbt.so/2013.1/901 2013/11/27
 35 37  0  0  0  0  0  0  0  0999 V2000
    2.4264   -8.1042   43.7737 C   0  0  2  0  0  0  0  0  0  0  0  0
    3.3456   -7.1100   44.3210 O   0  0  0  0  0  0  0  0  0  0  0  0
    7.5580   -6.5065   43.4159 C   0  0  2  0  0  0  0  0  0  0  0  0
    9.0460   -6.6282   43.4726 N   0  0  0  0  0  0  0  0  0  0  0  0
   -4.4981  -11.4620   45.2801 C   0  0  2  0  0  0  0  0  0  0  0  0
   -5.2463  -10.7902   44.2435 O   0  0  0  0  0  0  0  0  0  0  0  0
    1.0232   -7.4698   44.0328 C   0  0  2  0  0  0  0  0  0  0  0  0
    0.9023   -6.1486   43.3723 N   0  0  0  0  0  0  0  0  0  0  0  0
    7.0018   -5.9548   44.7985 C   0  0  0  0  0  0  0  0  0  0  0  0
   -3.7472  -10.3617   46.1071 C   0  0  2  0  0  0  0  0  0  0  0  0
   -4.7025   -9.3749   46.6714 N   0  0  0  0  0  0  0  0  0  0  0  0
    0.7278   -7.3212   45.5884 C   0  0  1  0  0  0  0  0  0  0  0  0
   -0.5917   -6.6756   45.8129 O   0  0  0  0  0  0  0  0  0  0  0  0
    5.4176   -5.8460   44.7157 C   0  0  2  0  0  0  0  0  0  0  0  0
    4.8780   -5.3448   45.9979 N   0  0  0  0  0  0  0  0  0  0  0  0
   -2.6418   -9.6233   45.2309 C   0  0  1  0  0  0  0  0  0  0  0  0
   -1.9077   -8.6220   45.9814 O   0  0  0  0  0  0  0  0  0  0  0  0
    0.8655   -8.7671   46.2396 C   0  0  2  0  0  0  0  0  0  0  0  0
    0.6423   -8.7295   47.6377 O   0  0  0  0  0  0  0  0  0  0  0  0
    4.7955   -7.2649   44.3854 C   0  0  2  0  0  0  0  0  0  0  0  0
   -1.6547  -10.6965   44.6718 C   0  0  2  0  0  0  0  0  0  0  0  0
   -0.6530  -10.0972   43.8737 O   0  0  0  0  0  0  0  0  0  0  0  0
    2.2886   -9.3752   45.9414 C   0  0  2  0  0  0  0  0  0  0  0  0
    2.5216   -9.4101   44.4823 O   0  0  0  0  0  0  0  0  0  0  0  0
    5.3494   -7.7996   43.0351 C   0  0  2  0  0  0  0  0  0  0  0  0
    4.7681   -9.1172   42.8179 O   0  0  0  0  0  0  0  0  0  0  0  0
   -2.4517  -11.7868   43.8501 C   0  0  2  0  0  0  0  0  0  0  0  0
   -3.5024  -12.4000   44.6945 O   0  0  0  0  0  0  0  0  0  0  0  0
    2.4339  -10.7800   46.5245 C   0  0  0  0  0  0  0  0  0  0  0  0
    1.4437  -11.6429   46.0206 O   0  0  0  0  0  0  0  0  0  0  0  0
    6.8907   -7.9037   43.1100 C   0  0  1  0  0  0  0  0  0  0  0  0
    7.3682   -8.3855   41.8715 O   0  0  0  0  0  0  0  0  0  0  0  0
   -1.5352  -12.8796   43.3213 C   0  0  0  0  0  0  0  0  0  0  0  0
   -0.9947  -13.6248   44.3854 O   0  0  0  0  0  0  0  0  0  0  0  0
   -1.7545   -7.4093   45.1870 C   0  0  0  0  0  0  0  0  0  0  0  0
  1  2  1  1  0  0  0
  1  7  1  0  0  0  0
  1 24  1  0  0  0  0
  3  4  1  1  0  0  0
  3  9  1  0  0  0  0
  3 31  1  0  0  0  0
  5  6  1  6  0  0  0
  5 10  1  0  0  0  0
  5 28  1  0  0  0  0
  7  8  1  6  0  0  0
  7 12  1  0  0  0  0
  9 14  1  0  0  0  0
 10 11  1  6  0  0  0
 10 16  1  0  0  0  0
 12 13  1  6  0  0  0
 12 18  1  0  0  0  0
 13 35  1  0  0  0  0
 14 15  1  1  0  0  0
 14 20  1  0  0  0  0
 16 17  1  1  0  0  0
 16 21  1  0  0  0  0
 17 35  1  0  0  0  0
 18 19  1  1  0  0  0
 18 23  1  0  0  0  0
 20  2  1  6  0  0  0
 20 25  1  0  0  0  0
 21 22  1  6  0  0  0
 21 27  1  0  0  0  0
 23 24  1  0  0  0  0
 23 29  1  6  0  0  0
 25 26  1  1  0  0  0
 25 31  1  0  0  0  0
 27 28  1  0  0  0  0
 27 33  1  1  0  0  0
 29 30  1  0  0  0  0
 31 32  1  6  0  0  0
 33 34  1  0  0  0  0
M  END
>  <CHROM.1>
176.70011801,57.97825200,70.64399458,-136.24208626,-159.58979650,166.62912624
57.66259402,66.16579263,1.26962209,-8.94311591,44.71149040,0.30762298,0.26672505
0.35759758

>  <Name>
2o3v_lig

>  <RI>
0

>  <Rbt.Current_Directory>
/home/afrankz/demos/rdock_decoys_rna/rnas/2o3v

>  <Rbt.Executable>
rbdock ($Id: //depot/dev/client3/rdock/2013.1/src/exe/rbdock.cxx#4 $)

>  <Rbt.Library>
libRbt.so (2013.1, Build901 2013/11/27)

>  <Rbt.Parameter_File>
/export/apps/rDock/src/rDock_2013.1_src/data/scripts/dock_solv.prm

>  <Rbt.Receptor>
prm/pocket_docking_6.prm

>  <SCORE>
-9.44949

>  <SCORE.INTER>
-5.68341

>  <SCORE.INTER.CONST>
1

>  <SCORE.INTER.POLAR>
0

>  <SCORE.INTER.ROT>
8

>  <SCORE.INTER.SOLV>
14.5634

>  <SCORE.INTER.VDW>
-17.5768

>  <SCORE.INTER.norm>
-0.162383

>  <SCORE.INTRA>
-3.76608

>  <SCORE.INTRA.DIHEDRAL>
-3.61295

>  <SCORE.INTRA.DIHEDRAL.0>
13.1227

>  <SCORE.INTRA.POLAR>
0

>  <SCORE.INTRA.POLAR.0>
0

>  <SCORE.INTRA.REPUL>
0

>  <SCORE.INTRA.REPUL.0>
0

>  <SCORE.INTRA.SOLV>
1.52497

>  <SCORE.INTRA.SOLV.lig_0>
-89.1587

>  <SCORE.INTRA.VDW>
-2.72209

>  <SCORE.INTRA.VDW.0>
-0.838383

>  <SCORE.INTRA.norm>
-0.107602

>  <SCORE.RESTR>
0

>  <SCORE.RESTR.CAVITY>
0

>  <SCORE.RESTR.norm>
0

>  <SCORE.SYSTEM>
0

>  <SCORE.SYSTEM.CONST>
0

>  <SCORE.SYSTEM.DIHEDRAL>
0

>  <SCORE.SYSTEM.SOLV>
0

>  <SCORE.SYSTEM.norm>
0

>  <SCORE.heavy>
35

>  <SCORE.norm>
-0.269985

>  <RMSD>
4.055

$$$$
2o3v_lig
 OpenBabel02141814113D
libRbt.so/2013.1/901 2013/11/27
 35 37  0  0  0  0  0  0  0  0999 V2000
    2.9591   -7.3129   44.0390 C   0  0  2  0  0  0  0  0  0  0  0  0
    4.1065   -6.8921   44.8385 O   0  0  0  0  0  0  0  0  0  0  0  0
    8.3845   -7.6562   44.6336 C   0  0  2  0  0  0  0  0  0  0  0  0
    9.6991   -8.3604   44.7242 N   0  0  0  0  0  0  0  0  0  0  0  0
   -4.5197   -5.1588   43.0862 C   0  0  2  0  0  0  0  0  0  0  0  0
   -4.3592   -5.4471   41.6802 O   0  0  0  0  0  0  0  0  0  0  0  0
    1.9243   -6.1674   44.2742 C   0  0  2  0  0  0  0  0  0  0  0  0
    2.4708   -4.8563   43.8514 N   0  0  0  0  0  0  0  0  0  0  0  0
    7.7039   -7.5830   46.0678 C   0  0  0  0  0  0  0  0  0  0  0  0
   -3.1183   -4.7275   43.6414 C   0  0  2  0  0  0  0  0  0  0  0  0
   -2.5882   -3.5565   42.8980 N   0  0  0  0  0  0  0  0  0  0  0  0
    1.4706   -6.0939   45.7968 C   0  0  1  0  0  0  0  0  0  0  0  0
    0.5209   -4.9706   46.0079 O   0  0  0  0  0  0  0  0  0  0  0  0
    6.3035   -6.8405   45.9416 C   0  0  2  0  0  0  0  0  0  0  0  0
    5.6473   -6.7718   47.2649 N   0  0  0  0  0  0  0  0  0  0  0  0
   -2.0754   -5.9298   43.5965 C   0  0  1  0  0  0  0  0  0  0  0  0
   -0.7782   -5.5678   44.1359 O   0  0  0  0  0  0  0  0  0  0  0  0
    0.8887   -7.5224   46.1899 C   0  0  2  0  0  0  0  0  0  0  0  0
    0.4789   -7.5603   47.5450 O   0  0  0  0  0  0  0  0  0  0  0  0
    5.3738   -7.6118   44.9169 C   0  0  2  0  0  0  0  0  0  0  0  0
   -2.6682   -7.1300   44.4007 C   0  0  2  0  0  0  0  0  0  0  0  0
   -1.7862   -8.2351   44.3864 O   0  0  0  0  0  0  0  0  0  0  0  0
    1.9585   -8.6484   45.9228 C   0  0  2  0  0  0  0  0  0  0  0  0
    2.3880   -8.6049   44.5093 O   0  0  0  0  0  0  0  0  0  0  0  0
    6.0497   -7.6842   43.5190 C   0  0  2  0  0  0  0  0  0  0  0  0
    5.1609   -8.4373   42.6449 O   0  0  0  0  0  0  0  0  0  0  0  0
   -4.0803   -7.5290   43.8123 C   0  0  2  0  0  0  0  0  0  0  0  0
   -4.9908   -6.3613   43.8253 O   0  0  0  0  0  0  0  0  0  0  0  0
    1.4115  -10.0353   46.2573 C   0  0  0  0  0  0  0  0  0  0  0  0
    2.4001  -11.0228   46.0945 O   0  0  0  0  0  0  0  0  0  0  0  0
    7.4141   -8.4027   43.6376 C   0  0  1  0  0  0  0  0  0  0  0  0
    8.0085   -8.4501   42.3576 O   0  0  0  0  0  0  0  0  0  0  0  0
   -4.7179   -8.6682   44.5931 C   0  0  0  0  0  0  0  0  0  0  0  0
   -5.8726   -9.1292   43.9341 O   0  0  0  0  0  0  0  0  0  0  0  0
   -0.8914   -5.2605   45.5564 C   0  0  0  0  0  0  0  0  0  0  0  0
  1  2  1  1  0  0  0
  1  7  1  0  0  0  0
  1 24  1  0  0  0  0
  3  4  1  1  0  0  0
  3  9  1  0  0  0  0
  3 31  1  0  0  0  0
  5  6  1  6  0  0  0
  5 10  1  0  0  0  0
  5 28  1  0  0  0  0
  7  8  1  1  0  0  0
  7 12  1  0  0  0  0
  9 14  1  0  0  0  0
 10 11  1  6  0  0  0
 10 16  1  0  0  0  0
 12 13  1  6  0  0  0
 12 18  1  0  0  0  0
 13 35  1  0  0  0  0
 14 15  1  1  0  0  0
 14 20  1  0  0  0  0
 16 17  1  1  0  0  0
 16 21  1  0  0  0  0
 17 35  1  0  0  0  0
 18 19  1  1  0  0  0
 18 23  1  0  0  0  0
 20  2  1  6  0  0  0
 20 25  1  0  0  0  0
 21 22  1  6  0  0  0
 21 27  1  0  0  0  0
 23 24  1  0  0  0  0
 23 29  1  6  0  0  0
 25 26  1  6  0  0  0
 25 31  1  0  0  0  0
 27 28  1  0  0  0  0
 27 33  1  1  0  0  0
 29 30  1  0  0  0  0
 31 32  1  6  0  0  0
 33 34  1  0  0  0  0
M  END
>  <CHROM.1>
-177.67162935,78.29494458,-59.00852990,64.60283315,177.25738922,-177.50570079
-176.34167378,-171.40538944,1.37932677,-7.17340691,44.57862907,-0.15368837
-0.01245109,-0.46221064

>  <Name>
2o3v_lig

>  <RI>
0

>  <Rbt.Current_Directory>
/home/afrankz/demos/rdock_decoys_rna/rnas/2o3v

>  <Rbt.Executable>
rbdock ($Id: //depot/dev/client3/rdock/2013.1/src/exe/rbdock.cxx#4 $)

>  <Rbt.Library>
libRbt.so (2013.1, Build901 2013/11/27)

>  <Rbt.Parameter_File>
/export/apps/rDock/src/rDock_2013.1_src/data/scripts/dock_solv.prm

>  <Rbt.Receptor>
prm/pocket_docking_7.prm

>  <SCORE>
-7.95491

>  <SCORE.INTER>
-3.02623

>  <SCORE.INTER.CONST>
1

>  <SCORE.INTER.POLAR>
0

>  <SCORE.INTER.ROT>
8

>  <SCORE.INTER.SOLV>
9.74509

>  <SCORE.INTER.VDW>
-14.1992

>  <SCORE.INTER.norm>
-0.0864636

>  <SCORE.INTRA>
-4.92869

>  <SCORE.INTRA.DIHEDRAL>
-11.0228

>  <SCORE.INTRA.DIHEDRAL.0>
13.1227

>  <SCORE.INTRA.POLAR>
0

>  <SCORE.INTRA.POLAR.0>
0

>  <SCORE.INTRA.REPUL>
0

>  <SCORE.INTRA.REPUL.0>
0

>  <SCORE.INTRA.SOLV>
0.28145

>  <SCORE.INTRA.SOLV.lig_0>
-89.1587

>  <SCORE.INTRA.VDW>
0.441997

>  <SCORE.INTRA.VDW.0>
-0.838383

>  <SCORE.INTRA.norm>
-0.14082

>  <SCORE.RESTR>
0

>  <SCORE.RESTR.CAVITY>
0

>  <SCORE.RESTR.norm>
0

>  <SCORE.SYSTEM>
0

>  <SCORE.SYSTEM.CONST>
0

>  <SCORE.SYSTEM.DIHEDRAL>
0

>  <SCORE.SYSTEM.SOLV>
0

>  <SCORE.SYSTEM.norm>
0

>  <SCORE.heavy>
35

>  <SCORE.norm>
-0.227283

>  <RMSD>
4.064

$$$$
2o3v_lig
 OpenBabel02141814113D
libRbt.so/2013.1/901 2013/11/27
 35 37  0  0  0  0  0  0  0  0999 V2000
    3.9320   -5.2355   46.6536 C   0  0  2  0  0  0  0  0  0  0  0  0
    4.0333   -6.4007   45.7790 O   0  0  0  0  0  0  0  0  0  0  0  0
    7.2404   -8.0130   43.3210 C   0  0  2  0  0  0  0  0  0  0  0  0
    8.2056   -8.1844   42.1935 N   0  0  0  0  0  0  0  0  0  0  0  0
   -4.1987  -10.1497   46.5434 C   0  0  2  0  0  0  0  0  0  0  0  0
   -3.4093  -10.8063   45.5279 O   0  0  0  0  0  0  0  0  0  0  0  0
    2.5834   -5.4724   47.4045 C   0  0  2  0  0  0  0  0  0  0  0  0
    2.6034   -6.7525   48.1509 N   0  0  0  0  0  0  0  0  0  0  0  0
    5.7490   -8.1449   42.7884 C   0  0  0  0  0  0  0  0  0  0  0  0
   -3.6989   -8.6669   46.6429 C   0  0  2  0  0  0  0  0  0  0  0  0
   -3.8089   -7.9786   45.3317 N   0  0  0  0  0  0  0  0  0  0  0  0
    1.3470   -5.4535   46.4043 C   0  0  1  0  0  0  0  0  0  0  0  0
    0.0796   -5.7246   47.1312 O   0  0  0  0  0  0  0  0  0  0  0  0
    4.7432   -7.9472   44.0040 C   0  0  2  0  0  0  0  0  0  0  0  0
    3.3476   -8.0548   43.5274 N   0  0  0  0  0  0  0  0  0  0  0  0
   -2.2041   -8.5881   47.1855 C   0  0  1  0  0  0  0  0  0  0  0  0
   -1.7269   -7.2246   47.3192 O   0  0  0  0  0  0  0  0  0  0  0  0
    1.3744   -4.0579   45.6394 C   0  0  2  0  0  0  0  0  0  0  0  0
    0.3169   -3.9592   44.7025 O   0  0  0  0  0  0  0  0  0  0  0  0
    4.9777   -6.5310   44.6739 C   0  0  2  0  0  0  0  0  0  0  0  0
   -2.1405   -9.3105   48.5685 C   0  0  2  0  0  0  0  0  0  0  0  0
   -0.8289   -9.2812   49.0961 O   0  0  0  0  0  0  0  0  0  0  0  0
    2.7563   -3.8537   44.9096 C   0  0  2  0  0  0  0  0  0  0  0  0
    3.8590   -3.9608   45.8879 O   0  0  0  0  0  0  0  0  0  0  0  0
    6.4401   -6.4083   45.1863 C   0  0  2  0  0  0  0  0  0  0  0  0
    6.5927   -5.0741   45.7501 O   0  0  0  0  0  0  0  0  0  0  0  0
   -2.6563  -10.7979   48.4246 C   0  0  2  0  0  0  0  0  0  0  0  0
   -4.0266  -10.8145   47.8635 O   0  0  0  0  0  0  0  0  0  0  0  0
    2.8228   -2.5034   44.1976 C   0  0  0  0  0  0  0  0  0  0  0  0
    4.0892   -2.2959   43.6215 O   0  0  0  0  0  0  0  0  0  0  0  0
    7.4222   -6.6035   44.0075 C   0  0  1  0  0  0  0  0  0  0  0  0
    8.7410   -6.4930   44.4999 O   0  0  0  0  0  0  0  0  0  0  0  0
   -2.6538  -11.5299   49.7581 C   0  0  0  0  0  0  0  0  0  0  0  0
   -3.5940  -10.9571   50.6344 O   0  0  0  0  0  0  0  0  0  0  0  0
   -0.2718   -7.1900   47.2379 C   0  0  0  0  0  0  0  0  0  0  0  0
  1  2  1  6  0  0  0
  1  7  1  0  0  0  0
  1 24  1  0  0  0  0
  3  4  1  6  0  0  0
  3  9  1  0  0  0  0
  3 31  1  0  0  0  0
  5  6  1  6  0  0  0
  5 10  1  0  0  0  0
  5 28  1  0  0  0  0
  7  8  1  6  0  0  0
  7 12  1  0  0  0  0
  9 14  1  0  0  0  0
 10 11  1  6  0  0  0
 10 16  1  0  0  0  0
 12 13  1  1  0  0  0
 12 18  1  0  0  0  0
 13 35  1  0  0  0  0
 14 15  1  6  0  0  0
 14 20  1  0  0  0  0
 16 17  1  1  0  0  0
 16 21  1  0  0  0  0
 17 35  1  0  0  0  0
 18 19  1  6  0  0  0
 18 23  1  0  0  0  0
 20  2  1  1  0  0  0
 20 25  1  0  0  0  0
 21 22  1  6  0  0  0
 21 27  1  0  0  0  0
 23 24  1  0  0  0  0
 23 29  1  1  0  0  0
 25 26  1  6  0  0  0
 25 31  1  0  0  0  0
 27 28  1  0  0  0  0
 27 33  1  1  0  0  0
 29 30  1  0  0  0  0
 31 32  1  1  0  0  0
 33 34  1  0  0  0  0
M  END
>  <CHROM.1>
167.04456037,-88.66488102,-151.84432575,-155.20916307,169.82499106,179.83862016
176.27510512,66.15011067,1.62913738,-7.14390175,46.03996566,0.42464045,0.33984111
-0.11247255

>  <Name>
2o3v_lig

>  <RI>
0

>  <Rbt.Current_Directory>
/home/afrankz/demos/rdock_decoys_rna/rnas/2o3v

>  <Rbt.Executable>
rbdock ($Id: //depot/dev/client3/rdock/2013.1/src/exe/rbdock.cxx#4 $)

>  <Rbt.Library>
libRbt.so (2013.1, Build901 2013/11/27)

>  <Rbt.Parameter_File>
/export/apps/rDock/src/rDock_2013.1_src/data/scripts/dock_solv.prm

>  <Rbt.Receptor>
prm/pocket_docking_6.prm

>  <SCORE>
-11.3741

>  <SCORE.INTER>
-8.47708

>  <SCORE.INTER.CONST>
1

>  <SCORE.INTER.POLAR>
-0.959166

>  <SCORE.INTER.ROT>
8

>  <SCORE.INTER.SOLV>
17.523

>  <SCORE.INTER.VDW>
-17.2285

>  <SCORE.INTER.norm>
-0.242202

>  <SCORE.INTRA>
-2.89698

>  <SCORE.INTRA.DIHEDRAL>
-2.36831

>  <SCORE.INTRA.DIHEDRAL.0>
13.1227

>  <SCORE.INTRA.POLAR>
0

>  <SCORE.INTRA.POLAR.0>
0

>  <SCORE.INTRA.REPUL>
0.00835093

>  <SCORE.INTRA.REPUL.0>
0

>  <SCORE.INTRA.SOLV>
-0.736279

>  <SCORE.INTRA.SOLV.lig_0>
-89.1587

>  <SCORE.INTRA.VDW>
-1.38644

>  <SCORE.INTRA.VDW.0>
-0.838383

>  <SCORE.INTRA.norm>
-0.0827708

>  <SCORE.RESTR>
0

>  <SCORE.RESTR.CAVITY>
0

>  <SCORE.RESTR.norm>
0

>  <SCORE.SYSTEM>
0

>  <SCORE.SYSTEM.CONST>
0

>  <SCORE.SYSTEM.DIHEDRAL>
0

>  <SCORE.SYSTEM.SOLV>
0

>  <SCORE.SYSTEM.norm>
0

>  <SCORE.heavy>
35

>  <SCORE.norm>
-0.324973

>  <RMSD>
4.078

$$$$
2o3v_lig
 OpenBabel02141814113D
libRbt.so/2013.1/901 2013/11/27
 35 37  0  0  0  0  0  0  0  0999 V2000
    3.5138   -4.7721   45.0136 C   0  0  2  0  0  0  0  0  0  0  0  0
    3.2217   -5.8552   44.0786 O   0  0  0  0  0  0  0  0  0  0  0  0
    6.9971   -7.7833   43.1009 C   0  0  2  0  0  0  0  0  0  0  0  0
    8.0396   -8.5491   42.3533 N   0  0  0  0  0  0  0  0  0  0  0  0
   -3.8747   -9.0689   45.0762 C   0  0  2  0  0  0  0  0  0  0  0  0
   -4.5704   -8.6361   46.2654 O   0  0  0  0  0  0  0  0  0  0  0  0
    2.2386   -4.7276   45.9138 C   0  0  2  0  0  0  0  0  0  0  0  0
    2.0144   -6.0271   46.5900 N   0  0  0  0  0  0  0  0  0  0  0  0
    5.7331   -8.7063   43.3759 C   0  0  0  0  0  0  0  0  0  0  0  0
   -2.4847   -8.3439   45.0536 C   0  0  2  0  0  0  0  0  0  0  0  0
   -1.7079   -8.6429   46.2833 N   0  0  0  0  0  0  0  0  0  0  0  0
    0.9467   -4.3282   45.0767 C   0  0  1  0  0  0  0  0  0  0  0  0
   -0.2619   -4.3348   45.9414 O   0  0  0  0  0  0  0  0  0  0  0  0
    4.6357   -7.8652   44.1612 C   0  0  2  0  0  0  0  0  0  0  0  0
    3.4448   -8.7033   44.4173 N   0  0  0  0  0  0  0  0  0  0  0  0
   -2.6479   -6.7707   44.8709 C   0  0  1  0  0  0  0  0  0  0  0  0
   -1.3748   -6.0775   44.8131 O   0  0  0  0  0  0  0  0  0  0  0  0
    1.2437   -2.9272   44.3819 C   0  0  2  0  0  0  0  0  0  0  0  0
    0.1507   -2.4995   43.5893 O   0  0  0  0  0  0  0  0  0  0  0  0
    4.2269   -6.5891   43.3163 C   0  0  2  0  0  0  0  0  0  0  0  0
   -3.4564   -6.5053   43.5616 C   0  0  2  0  0  0  0  0  0  0  0  0
   -3.6422   -5.1192   43.3524 O   0  0  0  0  0  0  0  0  0  0  0  0
    2.5449   -3.0130   43.4970 C   0  0  2  0  0  0  0  0  0  0  0  0
    3.6837   -3.4632   44.3246 O   0  0  0  0  0  0  0  0  0  0  0  0
    5.4698   -5.6954   43.0467 C   0  0  2  0  0  0  0  0  0  0  0  0
    5.0278   -4.5692   42.2360 O   0  0  0  0  0  0  0  0  0  0  0  0
   -4.8461   -7.2565   43.6238 C   0  0  2  0  0  0  0  0  0  0  0  0
   -4.6375   -8.7047   43.8516 O   0  0  0  0  0  0  0  0  0  0  0  0
    2.8737   -1.6696   42.8476 C   0  0  0  0  0  0  0  0  0  0  0  0
    3.1210   -0.6836   43.8200 O   0  0  0  0  0  0  0  0  0  0  0  0
    6.5414   -6.5108   42.2859 C   0  0  1  0  0  0  0  0  0  0  0  0
    7.6599   -5.6792   42.0589 O   0  0  0  0  0  0  0  0  0  0  0  0
   -5.6525   -7.0625   42.3486 C   0  0  0  0  0  0  0  0  0  0  0  0
   -6.1198   -5.7383   42.2598 O   0  0  0  0  0  0  0  0  0  0  0  0
   -1.5399   -4.6865   45.2168 C   0  0  0  0  0  0  0  0  0  0  0  0
  1  2  1  6  0  0  0
  1  7  1  0  0  0  0
  1 24  1  0  0  0  0
  3  4  1  6  0  0  0
  3  9  1  0  0  0  0
  3 31  1  0  0  0  0
  5  6  1  1  0  0  0
  5 10  1  0  0  0  0
  5 28  1  0  0  0  0
  7  8  1  6  0  0  0
  7 12  1  0  0  0  0
  9 14  1  0  0  0  0
 10 11  1  1  0  0  0
 10 16  1  0  0  0  0
 12 13  1  1  0  0  0
 12 18  1  0  0  0  0
 13 35  1  0  0  0  0
 14 15  1  6  0  0  0
 14 20  1  0  0  0  0
 16 17  1  6  0  0  0
 16 21  1  0  0  0  0
 17 35  1  0  0  0  0
 18 19  1  6  0  0  0
 18 23  1  0  0  0  0
 20  2  1  1  0  0  0
 20 25  1  0  0  0  0
 21 22  1  1  0  0  0
 21 27  1  0  0  0  0
 23 24  1  0  0  0  0
 23 29  1  1  0  0  0
 25 26  1  6  0  0  0
 25 31  1  0  0  0  0
 27 28  1  0  0  0  0
 27 33  1  6  0  0  0
 29 30  1  0  0  0  0
 31 32  1  1  0  0  0
 33 34  1  0  0  0  0
M  END
>  <CHROM.1>
-159.25623903,-149.65968799,66.22062045,-155.75241271,145.27864065,92.26599339
61.49136966,-70.68368514,0.99146867,-5.88490347,44.04657107,0.13318134,0.09840252
-0.04430844

>  <Name>
2o3v_lig

>  <RI>
0

>  <Rbt.Current_Directory>
/home/afrankz/demos/rdock_decoys_rna/rnas/2o3v

>  <Rbt.Executable>
rbdock ($Id: //depot/dev/client3/rdock/2013.1/src/exe/rbdock.cxx#4 $)

>  <Rbt.Library>
libRbt.so (2013.1, Build901 2013/11/27)

>  <Rbt.Parameter_File>
/export/apps/rDock/src/rDock_2013.1_src/data/scripts/dock_solv.prm

>  <Rbt.Receptor>
prm/pocket_docking_5.prm

>  <SCORE>
-10.5489

>  <SCORE.INTER>
-11.5646

>  <SCORE.INTER.CONST>
1

>  <SCORE.INTER.POLAR>
0

>  <SCORE.INTER.ROT>
8

>  <SCORE.INTER.SOLV>
17.2099

>  <SCORE.INTER.VDW>
-22.3797

>  <SCORE.INTER.norm>
-0.330416

>  <SCORE.INTRA>
1.01567

>  <SCORE.INTRA.DIHEDRAL>
4.12602

>  <SCORE.INTRA.DIHEDRAL.0>
13.1227

>  <SCORE.INTRA.POLAR>
0

>  <SCORE.INTRA.POLAR.0>
0

>  <SCORE.INTRA.REPUL>
0

>  <SCORE.INTRA.REPUL.0>
0

>  <SCORE.INTRA.SOLV>
1.04665

>  <SCORE.INTRA.SOLV.lig_0>
-89.1587

>  <SCORE.INTRA.VDW>
-1.57066

>  <SCORE.INTRA.VDW.0>
-0.838383

>  <SCORE.INTRA.norm>
0.0290193

>  <SCORE.RESTR>
0

>  <SCORE.RESTR.CAVITY>
0

>  <SCORE.RESTR.norm>
0

>  <SCORE.SYSTEM>
0

>  <SCORE.SYSTEM.CONST>
0

>  <SCORE.SYSTEM.DIHEDRAL>
0

>  <SCORE.SYSTEM.SOLV>
0

>  <SCORE.SYSTEM.norm>
0

>  <SCORE.heavy>
35

>  <SCORE.norm>
-0.301397

>  <RMSD>
4.093

$$$$
2o3v_lig
 OpenBabel02141814113D
libRbt.so/2013.1/901 2013/11/27
 35 37  0  0  0  0  0  0  0  0999 V2000
    4.4668   -5.7034   46.2385 C   0  0  2  0  0  0  0  0  0  0  0  0
    4.3299   -7.1428   46.0326 O   0  0  0  0  0  0  0  0  0  0  0  0
    8.0871   -8.3410   44.1954 C   0  0  2  0  0  0  0  0  0  0  0  0
    9.1718   -9.1981   43.6288 N   0  0  0  0  0  0  0  0  0  0  0  0
   -5.5849   -5.3152   45.7598 C   0  0  2  0  0  0  0  0  0  0  0  0
   -5.5017   -4.8612   44.3914 O   0  0  0  0  0  0  0  0  0  0  0  0
    3.0970   -5.3044   46.8730 C   0  0  2  0  0  0  0  0  0  0  0  0
    2.8539   -6.0456   48.1331 N   0  0  0  0  0  0  0  0  0  0  0  0
    7.8555   -8.6943   45.7274 C   0  0  0  0  0  0  0  0  0  0  0  0
   -4.2586   -4.8885   46.4790 C   0  0  2  0  0  0  0  0  0  0  0  0
   -4.0585   -3.4193   46.3995 N   0  0  0  0  0  0  0  0  0  0  0  0
    1.8923   -5.5511   45.8643 C   0  0  1  0  0  0  0  0  0  0  0  0
    0.5949   -5.2073   46.5022 O   0  0  0  0  0  0  0  0  0  0  0  0
    6.6901   -7.7778   46.3022 C   0  0  2  0  0  0  0  0  0  0  0  0
    6.4504   -8.0990   47.7255 N   0  0  0  0  0  0  0  0  0  0  0  0
   -2.9962   -5.6522   45.8806 C   0  0  1  0  0  0  0  0  0  0  0  0
   -1.7584   -5.3009   46.5507 O   0  0  0  0  0  0  0  0  0  0  0  0
    2.2053   -4.7281   44.5383 C   0  0  2  0  0  0  0  0  0  0  0  0
    1.1919   -4.9075   43.5653 O   0  0  0  0  0  0  0  0  0  0  0  0
    5.3636   -8.0037   45.4664 C   0  0  2  0  0  0  0  0  0  0  0  0
   -3.2456   -7.1892   45.9984 C   0  0  2  0  0  0  0  0  0  0  0  0
   -2.1571   -7.9215   45.4705 O   0  0  0  0  0  0  0  0  0  0  0  0
    3.6011   -5.1509   43.9410 C   0  0  2  0  0  0  0  0  0  0  0  0
    4.6570   -4.9668   44.9587 O   0  0  0  0  0  0  0  0  0  0  0  0
    5.6007   -7.6618   43.9687 C   0  0  2  0  0  0  0  0  0  0  0  0
    4.3572   -7.9299   43.2594 O   0  0  0  0  0  0  0  0  0  0  0  0
   -4.5921   -7.5753   45.2654 C   0  0  2  0  0  0  0  0  0  0  0  0
   -5.7215   -6.7957   45.8217 O   0  0  0  0  0  0  0  0  0  0  0  0
    3.9430   -4.3482   42.6865 C   0  0  0  0  0  0  0  0  0  0  0  0
    4.6343   -3.1674   43.0131 O   0  0  0  0  0  0  0  0  0  0  0  0
    6.7361   -8.5487   43.4063 C   0  0  1  0  0  0  0  0  0  0  0  0
    6.9349   -8.2150   42.0487 O   0  0  0  0  0  0  0  0  0  0  0  0
   -4.9000   -9.0596   45.3911 C   0  0  0  0  0  0  0  0  0  0  0  0
   -3.9071   -9.8232   44.7499 O   0  0  0  0  0  0  0  0  0  0  0  0
   -0.6176   -5.6203   45.7011 C   0  0  0  0  0  0  0  0  0  0  0  0
  1  2  1  6  0  0  0
  1  7  1  0  0  0  0
  1 24  1  0  0  0  0
  3  4  1  6  0  0  0
  3  9  1  0  0  0  0
  3 31  1  0  0  0  0
  5  6  1  6  0  0  0
  5 10  1  0  0  0  0
  5 28  1  0  0  0  0
  7  8  1  1  0  0  0
  7 12  1  0  0  0  0
  9 14  1  0  0  0  0
 10 11  1  6  0  0  0
 10 16  1  0  0  0  0
 12 13  1  1  0  0  0
 12 18  1  0  0  0  0
 13 35  1  0  0  0  0
 14 15  1  1  0  0  0
 14 20  1  0  0  0  0
 16 17  1  1  0  0  0
 16 21  1  0  0  0  0
 17 35  1  0  0  0  0
 18 19  1  6  0  0  0
 18 23  1  0  0  0  0
 20  2  1  1  0  0  0
 20 25  1  0  0  0  0
 21 22  1  6  0  0  0
 21 27  1  0  0  0  0
 23 24  1  0  0  0  0
 23 29  1  6  0  0  0
 25 26  1  6  0  0  0
 25 31  1  0  0  0  0
 27 28  1  0  0  0  0
 27 33  1  1  0  0  0
 29 30  1  0  0  0  0
 31 32  1  6  0  0  0
 33 34  1  0  0  0  0
M  END
>  <CHROM.1>
-179.37103829,-170.57049339,175.14654900,-159.57094288,179.80647501,53.40924935
89.29437893,-63.56696888,1.53146629,-6.51050079,45.16971866,-0.10551343,0.10302757
-0.01080507

>  <Name>
2o3v_lig

>  <RI>
0

>  <Rbt.Current_Directory>
/home/afrankz/demos/rdock_decoys_rna/rnas/2o3v

>  <Rbt.Executable>
rbdock ($Id: //depot/dev/client3/rdock/2013.1/src/exe/rbdock.cxx#4 $)

>  <Rbt.Library>
libRbt.so (2013.1, Build901 2013/11/27)

>  <Rbt.Parameter_File>
/export/apps/rDock/src/rDock_2013.1_src/data/scripts/dock_solv.prm

>  <Rbt.Receptor>
prm/pocket_docking_4.prm

>  <SCORE>
-10.5168

>  <SCORE.INTER>
-5.63533

>  <SCORE.INTER.CONST>
1

>  <SCORE.INTER.POLAR>
-0.944268

>  <SCORE.INTER.ROT>
8

>  <SCORE.INTER.SOLV>
14.5025

>  <SCORE.INTER.VDW>
-14.3768

>  <SCORE.INTER.norm>
-0.161009

>  <SCORE.INTRA>
-4.88147

>  <SCORE.INTRA.DIHEDRAL>
-7.85526

>  <SCORE.INTRA.DIHEDRAL.0>
13.1227

>  <SCORE.INTRA.POLAR>
0

>  <SCORE.INTRA.POLAR.0>
0

>  <SCORE.INTRA.REPUL>
0

>  <SCORE.INTRA.REPUL.0>
0

>  <SCORE.INTRA.SOLV>
-0.0537764

>  <SCORE.INTRA.SOLV.lig_0>
-89.1587

>  <SCORE.INTRA.VDW>
-0.926945

>  <SCORE.INTRA.VDW.0>
-0.838383

>  <SCORE.INTRA.norm>
-0.13947

>  <SCORE.RESTR>
0

>  <SCORE.RESTR.CAVITY>
0

>  <SCORE.RESTR.norm>
0

>  <SCORE.SYSTEM>
0

>  <SCORE.SYSTEM.CONST>
0

>  <SCORE.SYSTEM.DIHEDRAL>
0

>  <SCORE.SYSTEM.SOLV>
0

>  <SCORE.SYSTEM.norm>
0

>  <SCORE.heavy>
35

>  <SCORE.norm>
-0.30048

>  <RMSD>
4.101

$$$$
2o3v_lig
 OpenBabel02141814113D
libRbt.so/2013.1/901 2013/11/27
 35 37  0  0  0  0  0  0  0  0999 V2000
    3.1930   -5.6699   45.6128 C   0  0  2  0  0  0  0  0  0  0  0  0
    2.9347   -6.5361   44.4657 O   0  0  0  0  0  0  0  0  0  0  0  0
    6.8439   -7.8622   43.0921 C   0  0  2  0  0  0  0  0  0  0  0  0
    7.9161   -8.4332   42.2223 N   0  0  0  0  0  0  0  0  0  0  0  0
   -5.5886   -2.3759   45.9118 C   0  0  2  0  0  0  0  0  0  0  0  0
   -5.6361   -2.5578   44.4799 O   0  0  0  0  0  0  0  0  0  0  0  0
    1.8811   -5.7915   46.4510 C   0  0  2  0  0  0  0  0  0  0  0  0
    1.6213   -7.1981   46.8387 N   0  0  0  0  0  0  0  0  0  0  0  0
    5.7426   -8.9662   43.3980 C   0  0  0  0  0  0  0  0  0  0  0  0
   -4.2321   -2.9775   46.4182 C   0  0  2  0  0  0  0  0  0  0  0  0
   -3.0779   -2.3305   45.7443 N   0  0  0  0  0  0  0  0  0  0  0  0
    0.6280   -5.2121   45.6615 C   0  0  1  0  0  0  0  0  0  0  0  0
   -0.6161   -5.3774   46.4574 O   0  0  0  0  0  0  0  0  0  0  0  0
    4.6091   -8.3305   44.3142 C   0  0  2  0  0  0  0  0  0  0  0  0
    3.5669   -9.3393   44.6016 N   0  0  0  0  0  0  0  0  0  0  0  0
   -4.1789   -4.5555   46.2138 C   0  0  1  0  0  0  0  0  0  0  0  0
   -2.9470   -5.1437   46.7048 O   0  0  0  0  0  0  0  0  0  0  0  0
    0.9618   -3.7034   45.2792 C   0  0  2  0  0  0  0  0  0  0  0  0
   -0.0943   -3.1082   44.5470 O   0  0  0  0  0  0  0  0  0  0  0  0
    3.9645   -7.0800   43.5861 C   0  0  2  0  0  0  0  0  0  0  0  0
   -5.4006   -5.1918   46.9496 C   0  0  2  0  0  0  0  0  0  0  0  0
   -5.4113   -6.5971   46.7929 O   0  0  0  0  0  0  0  0  0  0  0  0
    2.2988   -3.6259   44.4485 C   0  0  2  0  0  0  0  0  0  0  0  0
    3.3991   -4.2509   45.2122 O   0  0  0  0  0  0  0  0  0  0  0  0
    5.0494   -6.0082   43.2852 C   0  0  2  0  0  0  0  0  0  0  0  0
    4.3951   -4.9124   42.5837 O   0  0  0  0  0  0  0  0  0  0  0  0
   -6.7448   -4.5553   46.4134 C   0  0  2  0  0  0  0  0  0  0  0  0
   -6.7168   -3.0836   46.5755 O   0  0  0  0  0  0  0  0  0  0  0  0
    2.6623   -2.1832   44.1001 C   0  0  0  0  0  0  0  0  0  0  0  0
    3.9307   -2.1117   43.4960 O   0  0  0  0  0  0  0  0  0  0  0  0
    6.1559   -6.6235   42.3969 C   0  0  1  0  0  0  0  0  0  0  0  0
    7.1298   -5.6328   42.1434 O   0  0  0  0  0  0  0  0  0  0  0  0
   -7.9627   -5.1139   47.1335 C   0  0  0  0  0  0  0  0  0  0  0  0
   -7.8787   -4.8549   48.5140 O   0  0  0  0  0  0  0  0  0  0  0  0
   -1.8720   -4.9381   45.7418 C   0  0  0  0  0  0  0  0  0  0  0  0
  1  2  1  6  0  0  0
  1  7  1  0  0  0  0
  1 24  1  0  0  0  0
  3  4  1  6  0  0  0
  3  9  1  0  0  0  0
  3 31  1  0  0  0  0
  5  6  1  6  0  0  0
  5 10  1  0  0  0  0
  5 28  1  0  0  0  0
  7  8  1  6  0  0  0
  7 12  1  0  0  0  0
  9 14  1  0  0  0  0
 10 11  1  6  0  0  0
 10 16  1  0  0  0  0
 12 13  1  1  0  0  0
 12 18  1  0  0  0  0
 13 35  1  0  0  0  0
 14 15  1  6  0  0  0
 14 20  1  0  0  0  0
 16 17  1  1  0  0  0
 16 21  1  0  0  0  0
 17 35  1  0  0  0  0
 18 19  1  6  0  0  0
 18 23  1  0  0  0  0
 20  2  1  1  0  0  0
 20 25  1  0  0  0  0
 21 22  1  6  0  0  0
 21 27  1  0  0  0  0
 23 24  1  0  0  0  0
 23 29  1  1  0  0  0
 25 26  1  6  0  0  0
 25 31  1  0  0  0  0
 27 28  1  0  0  0  0
 27 33  1  1  0  0  0
 29 30  1  0  0  0  0
 31 32  1  1  0  0  0
 33 34  1  0  0  0  0
M  END
>  <CHROM.1>
-161.26433631,-176.05651727,-178.22948514,-79.07962065,170.75560781,79.83338406
173.17003850,59.65991341,0.24651791,-5.17058805,45.08400833,0.14049732,-0.32003580
2.91049320

>  <Name>
2o3v_lig

>  <RI>
0

>  <Rbt.Current_Directory>
/home/afrankz/demos/rdock_decoys_rna/rnas/2o3v

>  <Rbt.Executable>
rbdock ($Id: //depot/dev/client3/rdock/2013.1/src/exe/rbdock.cxx#4 $)

>  <Rbt.Library>
libRbt.so (2013.1, Build901 2013/11/27)

>  <Rbt.Parameter_File>
/export/apps/rDock/src/rDock_2013.1_src/data/scripts/dock_solv.prm

>  <Rbt.Receptor>
prm/pocket_docking_7.prm

>  <SCORE>
-15.3776

>  <SCORE.INTER>
-12.1537

>  <SCORE.INTER.CONST>
1

>  <SCORE.INTER.POLAR>
-0.957966

>  <SCORE.INTER.ROT>
8

>  <SCORE.INTER.SOLV>
19.3079

>  <SCORE.INTER.VDW>
-20.2785

>  <SCORE.INTER.norm>
-0.347247

>  <SCORE.INTRA>
-3.22398

>  <SCORE.INTRA.DIHEDRAL>
-7.39096

>  <SCORE.INTRA.DIHEDRAL.0>
13.1227

>  <SCORE.INTRA.POLAR>
0

>  <SCORE.INTRA.POLAR.0>
0

>  <SCORE.INTRA.REPUL>
0.126161

>  <SCORE.INTRA.REPUL.0>
0

>  <SCORE.INTRA.SOLV>
2.56718

>  <SCORE.INTRA.SOLV.lig_0>
-89.1587

>  <SCORE.INTRA.VDW>
-1.44289

>  <SCORE.INTRA.VDW.0>
-0.838383

>  <SCORE.INTRA.norm>
-0.0921138

>  <SCORE.RESTR>
0

>  <SCORE.RESTR.CAVITY>
0

>  <SCORE.RESTR.norm>
0

>  <SCORE.SYSTEM>
0

>  <SCORE.SYSTEM.CONST>
0

>  <SCORE.SYSTEM.DIHEDRAL>
0

>  <SCORE.SYSTEM.SOLV>
0

>  <SCORE.SYSTEM.norm>
0

>  <SCORE.heavy>
35

>  <SCORE.norm>
-0.439361

>  <RMSD>
4.107

$$$$
2o3v_lig
 OpenBabel02141814113D
libRbt.so/2013.1/901 2013/11/27
 35 37  0  0  0  0  0  0  0  0999 V2000
    0.4894   -6.5016   47.4511 C   0  0  2  0  0  0  0  0  0  0  0  0
    1.2241   -7.0666   46.3224 O   0  0  0  0  0  0  0  0  0  0  0  0
    3.0905   -3.6309   44.4146 C   0  0  2  0  0  0  0  0  0  0  0  0
    3.9193   -2.8128   43.4786 N   0  0  0  0  0  0  0  0  0  0  0  0
   -5.9124   -8.2538   51.8034 C   0  0  2  0  0  0  0  0  0  0  0  0
   -4.9045   -7.5542   52.5651 O   0  0  0  0  0  0  0  0  0  0  0  0
   -0.1405   -7.7593   48.1291 C   0  0  2  0  0  0  0  0  0  0  0  0
    0.9051   -8.7229   48.5471 N   0  0  0  0  0  0  0  0  0  0  0  0
    4.0167   -4.6271   45.2363 C   0  0  0  0  0  0  0  0  0  0  0  0
   -5.1752   -9.0761   50.6904 C   0  0  2  0  0  0  0  0  0  0  0  0
   -4.1884  -10.0126   51.2855 N   0  0  0  0  0  0  0  0  0  0  0  0
   -1.1820   -8.4809   47.1678 C   0  0  1  0  0  0  0  0  0  0  0  0
   -1.7361   -9.6989   47.8141 O   0  0  0  0  0  0  0  0  0  0  0  0
    3.1102   -5.4927   46.2148 C   0  0  2  0  0  0  0  0  0  0  0  0
    3.9524   -6.4357   46.9816 N   0  0  0  0  0  0  0  0  0  0  0  0
   -4.4646   -8.1225   49.6318 C   0  0  1  0  0  0  0  0  0  0  0  0
   -3.8020   -8.8572   48.5708 O   0  0  0  0  0  0  0  0  0  0  0  0
   -2.2794   -7.4027   46.7594 C   0  0  2  0  0  0  0  0  0  0  0  0
   -3.2426   -7.9515   45.8780 O   0  0  0  0  0  0  0  0  0  0  0  0
    2.0261   -6.2917   45.3809 C   0  0  2  0  0  0  0  0  0  0  0  0
   -5.5408   -7.1680   49.0242 C   0  0  2  0  0  0  0  0  0  0  0  0
   -4.9630   -6.2871   48.0810 O   0  0  0  0  0  0  0  0  0  0  0  0
   -1.5999   -6.1461   46.0939 C   0  0  2  0  0  0  0  0  0  0  0  0
   -0.5922   -5.5769   47.0133 O   0  0  0  0  0  0  0  0  0  0  0  0
    1.1288   -5.3104   44.5757 C   0  0  2  0  0  0  0  0  0  0  0  0
    0.1877   -6.1131   43.8069 O   0  0  0  0  0  0  0  0  0  0  0  0
   -6.2617   -6.3631   50.1783 C   0  0  2  0  0  0  0  0  0  0  0  0
   -6.8547   -7.2969   51.1628 O   0  0  0  0  0  0  0  0  0  0  0  0
   -2.6291   -5.0784   45.7258 C   0  0  0  0  0  0  0  0  0  0  0  0
   -2.0031   -3.9206   45.2294 O   0  0  0  0  0  0  0  0  0  0  0  0
    2.0071   -4.4638   43.6250 C   0  0  1  0  0  0  0  0  0  0  0  0
    1.1701   -3.5786   42.9108 O   0  0  0  0  0  0  0  0  0  0  0  0
   -7.3512   -5.4500   49.6369 C   0  0  0  0  0  0  0  0  0  0  0  0
   -6.7907   -4.4382   48.8356 O   0  0  0  0  0  0  0  0  0  0  0  0
   -2.5502   -9.4247   49.0568 C   0  0  0  0  0  0  0  0  0  0  0  0
  1  2  1  6  0  0  0
  1  7  1  0  0  0  0
  1 24  1  0  0  0  0
  3  4  1  6  0  0  0
  3  9  1  0  0  0  0
  3 31  1  0  0  0  0
  5  6  1  6  0  0  0
  5 10  1  0  0  0  0
  5 28  1  0  0  0  0
  7  8  1  6  0  0  0
  7 12  1  0  0  0  0
  9 14  1  0  0  0  0
 10 11  1  1  0  0  0
 10 16  1  0  0  0  0
 12 13  1  1  0  0  0
 12 18  1  0  0  0  0
 13 35  1  0  0  0  0
 14 15  1  6  0  0  0
 14 20  1  0  0  0  0
 16 17  1  6  0  0  0
 16 21  1  0  0  0  0
 17 35  1  0  0  0  0
 18 19  1  6  0  0  0
 18 23  1  0  0  0  0
 20  2  1  1  0  0  0
 20 25  1  0  0  0  0
 21 22  1  6  0  0  0
 21 27  1  0  0  0  0
 23 24  1  0  0  0  0
 23 29  1  1  0  0  0
 25 26  1  6  0  0  0
 25 31  1  0  0  0  0
 27 28  1  0  0  0  0
 27 33  1  6  0  0  0
 29 30  1  0  0  0  0
 31 32  1  1  0  0  0
 33 34  1  0  0  0  0
M  END
>  <CHROM.1>
-178.36933790,64.19302318,73.51254346,-76.28509634,-159.71404568,56.59688289
175.39286448,-65.46025050,-1.68517318,-6.60391245,47.40511919,-0.60260410
-0.30643341,2.44232908

>  <Name>
2o3v_lig

>  <RI>
0

>  <Rbt.Current_Directory>
/home/afrankz/demos/rdock_decoys_rna/rnas/2o3v

>  <Rbt.Executable>
rbdock ($Id: //depot/dev/client3/rdock/2013.1/src/exe/rbdock.cxx#4 $)

>  <Rbt.Library>
libRbt.so (2013.1, Build901 2013/11/27)

>  <Rbt.Parameter_File>
/export/apps/rDock/src/rDock_2013.1_src/data/scripts/dock_solv.prm

>  <Rbt.Receptor>
prm/pocket_docking_4.prm

>  <SCORE>
-10.1211

>  <SCORE.INTER>
-5.0271

>  <SCORE.INTER.CONST>
1

>  <SCORE.INTER.POLAR>
-0.959166

>  <SCORE.INTER.ROT>
8

>  <SCORE.INTER.SOLV>
10.6528

>  <SCORE.INTER.VDW>
-12.6385

>  <SCORE.INTER.norm>
-0.143631

>  <SCORE.INTRA>
-5.09405

>  <SCORE.INTRA.DIHEDRAL>
-8.79832

>  <SCORE.INTRA.DIHEDRAL.0>
13.1227

>  <SCORE.INTRA.POLAR>
0

>  <SCORE.INTRA.POLAR.0>
0

>  <SCORE.INTRA.REPUL>
0

>  <SCORE.INTRA.REPUL.0>
0

>  <SCORE.INTRA.SOLV>
2.64444

>  <SCORE.INTRA.SOLV.lig_0>
-89.1587

>  <SCORE.INTRA.VDW>
-2.01711

>  <SCORE.INTRA.VDW.0>
-0.838383

>  <SCORE.INTRA.norm>
-0.145544

>  <SCORE.RESTR>
0

>  <SCORE.RESTR.CAVITY>
0

>  <SCORE.RESTR.norm>
0

>  <SCORE.SYSTEM>
0

>  <SCORE.SYSTEM.CONST>
0

>  <SCORE.SYSTEM.DIHEDRAL>
0

>  <SCORE.SYSTEM.SOLV>
0

>  <SCORE.SYSTEM.norm>
0

>  <SCORE.heavy>
35

>  <SCORE.norm>
-0.289176

>  <RMSD>
4.148

$$$$
2o3v_lig
 OpenBabel02141814113D
libRbt.so/2013.1/901 2013/11/27
 35 37  0  0  0  0  0  0  0  0999 V2000
    3.1422   -8.5067   46.3905 C   0  0  2  0  0  0  0  0  0  0  0  0
    3.7205   -7.2669   45.8794 O   0  0  0  0  0  0  0  0  0  0  0  0
    6.5609   -6.4459   42.6880 C   0  0  2  0  0  0  0  0  0  0  0  0
    7.1388   -6.2785   41.3204 N   0  0  0  0  0  0  0  0  0  0  0  0
   -3.0419   -4.0749   42.1570 C   0  0  2  0  0  0  0  0  0  0  0  0
   -2.0670   -4.6301   41.2476 O   0  0  0  0  0  0  0  0  0  0  0  0
    1.6126   -8.3122   46.1441 C   0  0  2  0  0  0  0  0  0  0  0  0
    1.3250   -8.0924   44.7070 N   0  0  0  0  0  0  0  0  0  0  0  0
    6.0850   -7.9472   42.9002 C   0  0  0  0  0  0  0  0  0  0  0  0
   -2.5561   -4.3854   43.6151 C   0  0  2  0  0  0  0  0  0  0  0  0
   -1.2012   -3.8274   43.8553 N   0  0  0  0  0  0  0  0  0  0  0  0
    1.0326   -7.1026   46.9986 C   0  0  1  0  0  0  0  0  0  0  0  0
   -0.4131   -6.9063   46.7165 O   0  0  0  0  0  0  0  0  0  0  0  0
    5.4644   -8.0952   44.3567 C   0  0  2  0  0  0  0  0  0  0  0  0
    5.0041   -9.4840   44.5708 N   0  0  0  0  0  0  0  0  0  0  0  0
   -2.5724   -5.9485   43.9172 C   0  0  1  0  0  0  0  0  0  0  0  0
   -2.1588   -6.2625   45.2719 O   0  0  0  0  0  0  0  0  0  0  0  0
    1.3646   -7.3971   48.5272 C   0  0  2  0  0  0  0  0  0  0  0  0
    0.9046   -6.3543   49.3679 O   0  0  0  0  0  0  0  0  0  0  0  0
    4.2518   -7.0911   44.5315 C   0  0  2  0  0  0  0  0  0  0  0  0
   -4.0165   -6.4868   43.6652 C   0  0  2  0  0  0  0  0  0  0  0  0
   -4.0889   -7.8778   43.9085 O   0  0  0  0  0  0  0  0  0  0  0  0
    2.9144   -7.6015   48.7276 C   0  0  2  0  0  0  0  0  0  0  0  0
    3.3936   -8.6873   47.8468 O   0  0  0  0  0  0  0  0  0  0  0  0
    4.7247   -5.6261   44.3162 C   0  0  2  0  0  0  0  0  0  0  0  0
    3.5560   -4.7676   44.4518 O   0  0  0  0  0  0  0  0  0  0  0  0
   -4.4680   -6.1493   42.1882 C   0  0  2  0  0  0  0  0  0  0  0  0
   -4.3794   -4.6914   41.9443 O   0  0  0  0  0  0  0  0  0  0  0  0
    3.2565   -7.9228   50.1817 C   0  0  0  0  0  0  0  0  0  0  0  0
    4.6486   -7.9943   50.3710 O   0  0  0  0  0  0  0  0  0  0  0  0
    5.3324   -5.4783   42.9017 C   0  0  1  0  0  0  0  0  0  0  0  0
    5.7583   -4.1424   42.7341 O   0  0  0  0  0  0  0  0  0  0  0  0
   -5.8885   -6.6168   41.9093 C   0  0  0  0  0  0  0  0  0  0  0  0
   -6.7971   -5.9622   42.7613 O   0  0  0  0  0  0  0  0  0  0  0  0
   -0.7046   -6.3253   45.3527 C   0  0  0  0  0  0  0  0  0  0  0  0
  1  2  1  1  0  0  0
  1  7  1  0  0  0  0
  1 24  1  0  0  0  0
  3  4  1  6  0  0  0
  3  9  1  0  0  0  0
  3 31  1  0  0  0  0
  5  6  1  6  0  0  0
  5 10  1  0  0  0  0
  5 28  1  0  0  0  0
  7  8  1  6  0  0  0
  7 12  1  0  0  0  0
  9 14  1  0  0  0  0
 10 11  1  6  0  0  0
 10 16  1  0  0  0  0
 12 13  1  1  0  0  0
 12 18  1  0  0  0  0
 13 35  1  0  0  0  0
 14 15  1  6  0  0  0
 14 20  1  0  0  0  0
 16 17  1  1  0  0  0
 16 21  1  0  0  0  0
 17 35  1  0  0  0  0
 18 19  1  1  0  0  0
 18 23  1  0  0  0  0
 20  2  1  1  0  0  0
 20 25  1  0  0  0  0
 21 22  1  6  0  0  0
 21 27  1  0  0  0  0
 23 24  1  0  0  0  0
 23 29  1  1  0  0  0
 25 26  1  6  0  0  0
 25 31  1  0  0  0  0
 27 28  1  0  0  0  0
 27 33  1  1  0  0  0
 29 30  1  0  0  0  0
 31 32  1  1  0  0  0
 33 34  1  0  0  0  0
M  END
>  <CHROM.1>
-94.77712697,-71.76910679,178.09970890,-83.96593240,-169.64873806,-61.81751973
-175.14032705,61.72838820,1.00252720,-6.57878677,44.83321656,0.32675380,-0.06094891
1.91067664

>  <Name>
2o3v_lig

>  <RI>
0

>  <Rbt.Current_Directory>
/home/afrankz/demos/rdock_decoys_rna/rnas/2o3v

>  <Rbt.Executable>
rbdock ($Id: //depot/dev/client3/rdock/2013.1/src/exe/rbdock.cxx#4 $)

>  <Rbt.Library>
libRbt.so (2013.1, Build901 2013/11/27)

>  <Rbt.Parameter_File>
/export/apps/rDock/src/rDock_2013.1_src/data/scripts/dock_solv.prm

>  <Rbt.Receptor>
prm/pocket_docking_6.prm

>  <SCORE>
-9.54672

>  <SCORE.INTER>
-8.12792

>  <SCORE.INTER.CONST>
1

>  <SCORE.INTER.POLAR>
-0.275337

>  <SCORE.INTER.ROT>
8

>  <SCORE.INTER.SOLV>
18.0823

>  <SCORE.INTER.VDW>
-19.4616

>  <SCORE.INTER.norm>
-0.232226

>  <SCORE.INTRA>
-1.4188

>  <SCORE.INTRA.DIHEDRAL>
-4.80978

>  <SCORE.INTRA.DIHEDRAL.0>
13.1227

>  <SCORE.INTRA.POLAR>
0

>  <SCORE.INTRA.POLAR.0>
0

>  <SCORE.INTRA.REPUL>
0

>  <SCORE.INTRA.REPUL.0>
0

>  <SCORE.INTRA.SOLV>
3.10709

>  <SCORE.INTRA.SOLV.lig_0>
-89.1587

>  <SCORE.INTRA.VDW>
-0.567457

>  <SCORE.INTRA.VDW.0>
-0.838383

>  <SCORE.INTRA.norm>
-0.0405372

>  <SCORE.RESTR>
0

>  <SCORE.RESTR.CAVITY>
0

>  <SCORE.RESTR.norm>
0

>  <SCORE.SYSTEM>
0

>  <SCORE.SYSTEM.CONST>
0

>  <SCORE.SYSTEM.DIHEDRAL>
0

>  <SCORE.SYSTEM.SOLV>
0

>  <SCORE.SYSTEM.norm>
0

>  <SCORE.heavy>
35

>  <SCORE.norm>
-0.272763

>  <RMSD>
4.154

$$$$
2o3v_lig
 OpenBabel02141814113D
libRbt.so/2013.1/901 2013/11/27
 35 37  0  0  0  0  0  0  0  0999 V2000
    2.5690   -4.8895   46.9335 C   0  0  2  0  0  0  0  0  0  0  0  0
    2.7272   -6.1878   46.2836 O   0  0  0  0  0  0  0  0  0  0  0  0
    5.7885   -9.2785   46.2272 C   0  0  2  0  0  0  0  0  0  0  0  0
    7.0811   -9.9812   45.9671 N   0  0  0  0  0  0  0  0  0  0  0  0
   -6.1911   -7.8162   44.3115 C   0  0  2  0  0  0  0  0  0  0  0  0
   -5.4106   -8.5654   43.3549 O   0  0  0  0  0  0  0  0  0  0  0  0
    1.0204   -4.7541   47.0820 C   0  0  2  0  0  0  0  0  0  0  0  0
    0.4591   -5.8696   47.8800 N   0  0  0  0  0  0  0  0  0  0  0  0
    5.0931   -8.8870   44.8530 C   0  0  0  0  0  0  0  0  0  0  0  0
   -5.3927   -6.5102   44.6510 C   0  0  2  0  0  0  0  0  0  0  0  0
   -5.1203   -5.7185   43.4246 N   0  0  0  0  0  0  0  0  0  0  0  0
    0.3010   -4.6928   45.6649 C   0  0  1  0  0  0  0  0  0  0  0  0
   -1.1736   -4.6088   45.8280 O   0  0  0  0  0  0  0  0  0  0  0  0
    3.7275   -8.1315   45.1577 C   0  0  2  0  0  0  0  0  0  0  0  0
    3.0690   -7.7476   43.8906 N   0  0  0  0  0  0  0  0  0  0  0  0
   -4.0331   -6.8364   45.4125 C   0  0  1  0  0  0  0  0  0  0  0  0
   -3.2893   -5.6429   45.7688 O   0  0  0  0  0  0  0  0  0  0  0  0
    0.9383   -3.4767   44.8595 C   0  0  2  0  0  0  0  0  0  0  0  0
    0.3731   -3.3583   43.5663 O   0  0  0  0  0  0  0  0  0  0  0  0
    4.0078   -6.8416   46.0334 C   0  0  2  0  0  0  0  0  0  0  0  0
   -4.3701   -7.6553   46.6987 C   0  0  2  0  0  0  0  0  0  0  0  0
   -3.1948   -7.9841   47.4130 O   0  0  0  0  0  0  0  0  0  0  0  0
    2.5011   -3.6460   44.7466 C   0  0  2  0  0  0  0  0  0  0  0  0
    3.0891   -3.7733   46.0966 O   0  0  0  0  0  0  0  0  0  0  0  0
    4.6934   -7.2330   47.3724 C   0  0  2  0  0  0  0  0  0  0  0  0
    4.9556   -6.0006   48.1030 O   0  0  0  0  0  0  0  0  0  0  0  0
   -5.1773   -8.9586   46.3127 C   0  0  2  0  0  0  0  0  0  0  0  0
   -6.4003   -8.6008   45.5584 O   0  0  0  0  0  0  0  0  0  0  0  0
    3.1428   -2.4716   44.0092 C   0  0  0  0  0  0  0  0  0  0  0  0
    4.4975   -2.7277   43.7299 O   0  0  0  0  0  0  0  0  0  0  0  0
    6.0207   -7.9714   47.0807 C   0  0  1  0  0  0  0  0  0  0  0  0
    6.6195   -8.3200   48.3111 O   0  0  0  0  0  0  0  0  0  0  0  0
   -5.5667   -9.7682   47.5403 C   0  0  0  0  0  0  0  0  0  0  0  0
   -6.4845   -9.0516   48.3303 O   0  0  0  0  0  0  0  0  0  0  0  0
   -1.8683   -5.9494   45.8792 C   0  0  0  0  0  0  0  0  0  0  0  0
  1  2  1  6  0  0  0
  1  7  1  0  0  0  0
  1 24  1  0  0  0  0
  3  4  1  6  0  0  0
  3  9  1  0  0  0  0
  3 31  1  0  0  0  0
  5  6  1  6  0  0  0
  5 10  1  0  0  0  0
  5 28  1  0  0  0  0
  7  8  1  1  0  0  0
  7 12  1  0  0  0  0
  9 14  1  0  0  0  0
 10 11  1  6  0  0  0
 10 16  1  0  0  0  0
 12 13  1  1  0  0  0
 12 18  1  0  0  0  0
 13 35  1  0  0  0  0
 14 15  1  6  0  0  0
 14 20  1  0  0  0  0
 16 17  1  1  0  0  0
 16 21  1  0  0  0  0
 17 35  1  0  0  0  0
 18 19  1  6  0  0  0
 18 23  1  0  0  0  0
 20  2  1  1  0  0  0
 20 25  1  0  0  0  0
 21 22  1  6  0  0  0
 21 27  1  0  0  0  0
 23 24  1  0  0  0  0
 23 29  1  1  0  0  0
 25 26  1  1  0  0  0
 25 31  1  0  0  0  0
 27 28  1  0  0  0  0
 27 33  1  1  0  0  0
 29 30  1  0  0  0  0
 31 32  1  1  0  0  0
 33 34  1  0  0  0  0
M  END
>  <CHROM.1>
-173.98297668,-89.91746717,-168.94145192,-154.03406619,163.24762838,-173.16143629
-170.77730711,65.99418536,0.22511403,-6.55248189,45.84521075,0.08669957,-0.08016137
-0.40415355

>  <Name>
2o3v_lig

>  <RI>
0

>  <Rbt.Current_Directory>
/home/afrankz/demos/rdock_decoys_rna/rnas/2o3v

>  <Rbt.Executable>
rbdock ($Id: //depot/dev/client3/rdock/2013.1/src/exe/rbdock.cxx#4 $)

>  <Rbt.Library>
libRbt.so (2013.1, Build901 2013/11/27)

>  <Rbt.Parameter_File>
/export/apps/rDock/src/rDock_2013.1_src/data/scripts/dock_solv.prm

>  <Rbt.Receptor>
prm/pocket_docking_4.prm

>  <SCORE>
-7.7935

>  <SCORE.INTER>
-4.10731

>  <SCORE.INTER.CONST>
1

>  <SCORE.INTER.POLAR>
-0.959166

>  <SCORE.INTER.ROT>
8

>  <SCORE.INTER.SOLV>
10.6343

>  <SCORE.INTER.VDW>
-12.0191

>  <SCORE.INTER.norm>
-0.117352

>  <SCORE.INTRA>
-3.71313

>  <SCORE.INTRA.DIHEDRAL>
-3.92135

>  <SCORE.INTRA.DIHEDRAL.0>
13.1227

>  <SCORE.INTRA.POLAR>
0

>  <SCORE.INTRA.POLAR.0>
0

>  <SCORE.INTRA.REPUL>
0.0285912

>  <SCORE.INTRA.REPUL.0>
0

>  <SCORE.INTRA.SOLV>
-0.731325

>  <SCORE.INTRA.SOLV.lig_0>
-89.1587

>  <SCORE.INTRA.VDW>
-1.52975

>  <SCORE.INTRA.VDW.0>
-0.838383

>  <SCORE.INTRA.norm>
-0.106089

>  <SCORE.RESTR>
0.0269436

>  <SCORE.RESTR.CAVITY>
0.0269436

>  <SCORE.RESTR.norm>
0.000769818

>  <SCORE.SYSTEM>
0

>  <SCORE.SYSTEM.CONST>
0

>  <SCORE.SYSTEM.DIHEDRAL>
0

>  <SCORE.SYSTEM.SOLV>
0

>  <SCORE.SYSTEM.norm>
0

>  <SCORE.heavy>
35

>  <SCORE.norm>
-0.222672

>  <RMSD>
4.168

$$$$
2o3v_lig
 OpenBabel02141814113D
libRbt.so/2013.1/901 2013/11/27
 35 37  0  0  0  0  0  0  0  0999 V2000
    2.2278   -3.3448   45.5458 C   0  0  2  0  0  0  0  0  0  0  0  0
    3.3234   -4.2779   45.7946 O   0  0  0  0  0  0  0  0  0  0  0  0
    6.0504   -7.1019   43.9197 C   0  0  2  0  0  0  0  0  0  0  0  0
    6.6299   -8.0628   42.9332 N   0  0  0  0  0  0  0  0  0  0  0  0
   -1.7683  -10.1936   47.1593 C   0  0  2  0  0  0  0  0  0  0  0  0
   -0.7722   -9.4962   47.9383 O   0  0  0  0  0  0  0  0  0  0  0  0
    0.9657   -4.2637   45.5777 C   0  0  2  0  0  0  0  0  0  0  0  0
    0.8434   -4.9612   46.8796 N   0  0  0  0  0  0  0  0  0  0  0  0
    4.6624   -7.6500   44.4659 C   0  0  0  0  0  0  0  0  0  0  0  0
   -1.4345   -9.9552   45.6460 C   0  0  2  0  0  0  0  0  0  0  0  0
   -0.0614  -10.4199   45.3238 N   0  0  0  0  0  0  0  0  0  0  0  0
    0.9897   -5.3299   44.3978 C   0  0  1  0  0  0  0  0  0  0  0  0
   -0.1964   -6.2221   44.4724 O   0  0  0  0  0  0  0  0  0  0  0  0
    4.0624   -6.6050   45.5034 C   0  0  2  0  0  0  0  0  0  0  0  0
    2.7634   -7.0910   46.0158 N   0  0  0  0  0  0  0  0  0  0  0  0
   -1.6100   -8.4253   45.2417 C   0  0  1  0  0  0  0  0  0  0  0  0
   -1.3395   -8.1814   43.8374 O   0  0  0  0  0  0  0  0  0  0  0  0
    1.1149   -4.5245   43.0306 C   0  0  2  0  0  0  0  0  0  0  0  0
    1.1688   -5.3982   41.9172 O   0  0  0  0  0  0  0  0  0  0  0  0
    3.8743   -5.1965   44.8033 C   0  0  2  0  0  0  0  0  0  0  0  0
   -3.0688   -7.9865   45.5850 C   0  0  2  0  0  0  0  0  0  0  0  0
   -3.2805   -6.6277   45.2557 O   0  0  0  0  0  0  0  0  0  0  0  0
    2.3914   -3.6003   43.0476 C   0  0  2  0  0  0  0  0  0  0  0  0
    2.3356   -2.6919   44.2121 O   0  0  0  0  0  0  0  0  0  0  0  0
    5.2352   -4.6709   44.2667 C   0  0  2  0  0  0  0  0  0  0  0  0
    4.9795   -3.3991   43.6046 O   0  0  0  0  0  0  0  0  0  0  0  0
   -3.3648   -8.2476   47.1158 C   0  0  2  0  0  0  0  0  0  0  0  0
   -3.1313   -9.6715   47.4487 O   0  0  0  0  0  0  0  0  0  0  0  0
    2.5148   -2.7872   41.7598 C   0  0  0  0  0  0  0  0  0  0  0  0
    1.4160   -1.9239   41.5981 O   0  0  0  0  0  0  0  0  0  0  0  0
    5.8242   -5.6862   43.2596 C   0  0  1  0  0  0  0  0  0  0  0  0
    7.0604   -5.1885   42.7924 O   0  0  0  0  0  0  0  0  0  0  0  0
   -4.7919   -7.8752   47.4884 C   0  0  0  0  0  0  0  0  0  0  0  0
   -5.0134   -8.0914   48.8610 O   0  0  0  0  0  0  0  0  0  0  0  0
   -0.0591   -7.5021   43.6817 C   0  0  0  0  0  0  0  0  0  0  0  0
  1  2  1  6  0  0  0
  1  7  1  0  0  0  0
  1 24  1  0  0  0  0
  3  4  1  6  0  0  0
  3  9  1  0  0  0  0
  3 31  1  0  0  0  0
  5  6  1  1  0  0  0
  5 10  1  0  0  0  0
  5 28  1  0  0  0  0
  7  8  1  1  0  0  0
  7 12  1  0  0  0  0
  9 14  1  0  0  0  0
 10 11  1  1  0  0  0
 10 16  1  0  0  0  0
 12 13  1  6  0  0  0
 12 18  1  0  0  0  0
 13 35  1  0  0  0  0
 14 15  1  6  0  0  0
 14 20  1  0  0  0  0
 16 17  1  6  0  0  0
 16 21  1  0  0  0  0
 17 35  1  0  0  0  0
 18 19  1  6  0  0  0
 18 23  1  0  0  0  0
 20  2  1  1  0  0  0
 20 25  1  0  0  0  0
 21 22  1  1  0  0  0
 21 27  1  0  0  0  0
 23 24  1  0  0  0  0
 23 29  1  6  0  0  0
 25 26  1  6  0  0  0
 25 31  1  0  0  0  0
 27 28  1  0  0  0  0
 27 33  1  6  0  0  0
 29 30  1  0  0  0  0
 31 32  1  1  0  0  0
 33 34  1  0  0  0  0
M  END
>  <CHROM.1>
76.95903109,-162.27522485,-177.21925646,-106.40864472,-58.71813315,-135.57351306
62.02348442,-178.70911594,1.12077247,-6.34142578,44.86307311,0.57628899,0.20969064
-0.38985939

>  <Name>
2o3v_lig

>  <RI>
0

>  <Rbt.Current_Directory>
/home/afrankz/demos/rdock_decoys_rna/rnas/2o3v

>  <Rbt.Executable>
rbdock ($Id: //depot/dev/client3/rdock/2013.1/src/exe/rbdock.cxx#4 $)

>  <Rbt.Library>
libRbt.so (2013.1, Build901 2013/11/27)

>  <Rbt.Parameter_File>
/export/apps/rDock/src/rDock_2013.1_src/data/scripts/dock_solv.prm

>  <Rbt.Receptor>
prm/pocket_docking_5.prm

>  <SCORE>
-8.76408

>  <SCORE.INTER>
-11.4989

>  <SCORE.INTER.CONST>
1

>  <SCORE.INTER.POLAR>
-1.81132

>  <SCORE.INTER.ROT>
8

>  <SCORE.INTER.SOLV>
10.7851

>  <SCORE.INTER.VDW>
-14.1566

>  <SCORE.INTER.norm>
-0.32854

>  <SCORE.INTRA>
2.73482

>  <SCORE.INTRA.DIHEDRAL>
2.14404

>  <SCORE.INTRA.DIHEDRAL.0>
13.1227

>  <SCORE.INTRA.POLAR>
0

>  <SCORE.INTRA.POLAR.0>
0

>  <SCORE.INTRA.REPUL>
0

>  <SCORE.INTRA.REPUL.0>
0

>  <SCORE.INTRA.SOLV>
5.67029

>  <SCORE.INTRA.SOLV.lig_0>
-89.1587

>  <SCORE.INTRA.VDW>
-1.17234

>  <SCORE.INTRA.VDW.0>
-0.838383

>  <SCORE.INTRA.norm>
0.0781379

>  <SCORE.RESTR>
0

>  <SCORE.RESTR.CAVITY>
0

>  <SCORE.RESTR.norm>
0

>  <SCORE.SYSTEM>
0

>  <SCORE.SYSTEM.CONST>
0

>  <SCORE.SYSTEM.DIHEDRAL>
0

>  <SCORE.SYSTEM.SOLV>
0

>  <SCORE.SYSTEM.norm>
0

>  <SCORE.heavy>
35

>  <SCORE.norm>
-0.250402

>  <RMSD>
4.241

$$$$
2o3v_lig
 OpenBabel02141814113D
libRbt.so/2013.1/901 2013/11/27
 35 37  0  0  0  0  0  0  0  0999 V2000
    1.3279   -5.2188   47.2295 C   0  0  2  0  0  0  0  0  0  0  0  0
    2.3147   -6.1455   46.6814 O   0  0  0  0  0  0  0  0  0  0  0  0
    5.3703   -5.7782   43.6065 C   0  0  2  0  0  0  0  0  0  0  0  0
    6.0175   -5.6801   42.2635 N   0  0  0  0  0  0  0  0  0  0  0  0
   -3.8482  -12.5110   47.3437 C   0  0  2  0  0  0  0  0  0  0  0  0
   -3.1090  -13.4475   48.1575 O   0  0  0  0  0  0  0  0  0  0  0  0
    0.7939   -5.9734   48.4880 C   0  0  2  0  0  0  0  0  0  0  0  0
    1.8908   -6.2744   49.4379 N   0  0  0  0  0  0  0  0  0  0  0  0
    4.6117   -7.1674   43.7473 C   0  0  0  0  0  0  0  0  0  0  0  0
   -3.0782  -11.1457   47.3798 C   0  0  2  0  0  0  0  0  0  0  0  0
   -1.6827  -11.3083   46.8989 N   0  0  0  0  0  0  0  0  0  0  0  0
    0.0458   -7.3188   48.0883 C   0  0  1  0  0  0  0  0  0  0  0  0
   -0.4153   -8.0433   49.3011 O   0  0  0  0  0  0  0  0  0  0  0  0
    3.9231   -7.2414   45.1787 C   0  0  2  0  0  0  0  0  0  0  0  0
    3.2010   -8.5233   45.3262 N   0  0  0  0  0  0  0  0  0  0  0  0
   -3.0902  -10.5050   48.8372 C   0  0  1  0  0  0  0  0  0  0  0  0
   -2.4126   -9.2234   48.8924 O   0  0  0  0  0  0  0  0  0  0  0  0
   -1.1208   -6.9326   47.0765 C   0  0  2  0  0  0  0  0  0  0  0  0
   -1.8319   -8.0782   46.6434 O   0  0  0  0  0  0  0  0  0  0  0  0
    2.9171   -6.0309   45.3570 C   0  0  2  0  0  0  0  0  0  0  0  0
   -4.5745  -10.3405   49.2938 C   0  0  2  0  0  0  0  0  0  0  0  0
   -4.6472   -9.7833   50.5914 O   0  0  0  0  0  0  0  0  0  0  0  0
   -0.5402   -6.1609   45.8310 C   0  0  2  0  0  0  0  0  0  0  0  0
    0.2049   -4.9678   46.2848 O   0  0  0  0  0  0  0  0  0  0  0  0
    3.6660   -4.6765   45.2116 C   0  0  2  0  0  0  0  0  0  0  0  0
    2.6769   -3.6161   45.3464 O   0  0  0  0  0  0  0  0  0  0  0  0
   -5.3141  -11.7366   49.2384 C   0  0  2  0  0  0  0  0  0  0  0  0
   -5.2231  -12.3125   47.8771 O   0  0  0  0  0  0  0  0  0  0  0  0
   -1.6453   -5.7454   44.8610 C   0  0  0  0  0  0  0  0  0  0  0  0
   -2.2231   -6.8677   44.2401 O   0  0  0  0  0  0  0  0  0  0  0  0
    4.3404   -4.6018   43.8218 C   0  0  1  0  0  0  0  0  0  0  0  0
    5.0171   -3.3668   43.7177 O   0  0  0  0  0  0  0  0  0  0  0  0
   -6.7782  -11.6182   49.6336 C   0  0  0  0  0  0  0  0  0  0  0  0
   -7.4577  -10.7601   48.7493 O   0  0  0  0  0  0  0  0  0  0  0  0
   -0.9742   -9.4195   49.0253 C   0  0  0  0  0  0  0  0  0  0  0  0
  1  2  1  6  0  0  0
  1  7  1  0  0  0  0
  1 24  1  0  0  0  0
  3  4  1  6  0  0  0
  3  9  1  0  0  0  0
  3 31  1  0  0  0  0
  5  6  1  1  0  0  0
  5 10  1  0  0  0  0
  5 28  1  0  0  0  0
  7  8  1  1  0  0  0
  7 12  1  0  0  0  0
  9 14  1  0  0  0  0
 10 11  1  1  0  0  0
 10 16  1  0  0  0  0
 12 13  1  1  0  0  0
 12 18  1  0  0  0  0
 13 35  1  0  0  0  0
 14 15  1  6  0  0  0
 14 20  1  0  0  0  0
 16 17  1  6  0  0  0
 16 21  1  0  0  0  0
 17 35  1  0  0  0  0
 18 19  1  6  0  0  0
 18 23  1  0  0  0  0
 20  2  1  1  0  0  0
 20 25  1  0  0  0  0
 21 22  1  1  0  0  0
 21 27  1  0  0  0  0
 23 24  1  0  0  0  0
 23 29  1  6  0  0  0
 25 26  1  6  0  0  0
 25 31  1  0  0  0  0
 27 28  1  0  0  0  0
 27 33  1  6  0  0  0
 29 30  1  0  0  0  0
 31 32  1  1  0  0  0
 33 34  1  0  0  0  0
M  END
>  <CHROM.1>
167.39837668,-172.32447220,-93.90188968,-82.58277235,-170.89130938,-179.91006886
-67.92909045,61.08249338,-0.39674509,-7.96861100,46.86603169,0.38250589,0.60642018
0.34754254

>  <Name>
2o3v_lig

>  <RI>
0

>  <Rbt.Current_Directory>
/home/afrankz/demos/rdock_decoys_rna/rnas/2o3v

>  <Rbt.Executable>
rbdock ($Id: //depot/dev/client3/rdock/2013.1/src/exe/rbdock.cxx#4 $)

>  <Rbt.Library>
libRbt.so (2013.1, Build901 2013/11/27)

>  <Rbt.Parameter_File>
/export/apps/rDock/src/rDock_2013.1_src/data/scripts/dock_solv.prm

>  <Rbt.Receptor>
prm/pocket_docking_5.prm

>  <SCORE>
-9.13527

>  <SCORE.INTER>
-5.77491

>  <SCORE.INTER.CONST>
1

>  <SCORE.INTER.POLAR>
-0.950999

>  <SCORE.INTER.ROT>
8

>  <SCORE.INTER.SOLV>
13.9577

>  <SCORE.INTER.VDW>
-14.2658

>  <SCORE.INTER.norm>
-0.164997

>  <SCORE.INTRA>
-3.36036

>  <SCORE.INTRA.DIHEDRAL>
-4.84267

>  <SCORE.INTRA.DIHEDRAL.0>
13.1227

>  <SCORE.INTRA.POLAR>
0

>  <SCORE.INTRA.POLAR.0>
0

>  <SCORE.INTRA.REPUL>
0

>  <SCORE.INTRA.REPUL.0>
0

>  <SCORE.INTRA.SOLV>
1.15222

>  <SCORE.INTRA.SOLV.lig_0>
-89.1587

>  <SCORE.INTRA.VDW>
-1.51514

>  <SCORE.INTRA.VDW.0>
-0.838383

>  <SCORE.INTRA.norm>
-0.0960103

>  <SCORE.RESTR>
0

>  <SCORE.RESTR.CAVITY>
0

>  <SCORE.RESTR.norm>
0

>  <SCORE.SYSTEM>
0

>  <SCORE.SYSTEM.CONST>
0

>  <SCORE.SYSTEM.DIHEDRAL>
0

>  <SCORE.SYSTEM.SOLV>
0

>  <SCORE.SYSTEM.norm>
0

>  <SCORE.heavy>
35

>  <SCORE.norm>
-0.261008

>  <RMSD>
4.277

$$$$
2o3v_lig
 OpenBabel02141814113D
libRbt.so/2013.1/901 2013/11/27
 35 37  0  0  0  0  0  0  0  0999 V2000
    2.0168   -5.0922   43.3485 C   0  0  2  0  0  0  0  0  0  0  0  0
    1.7541   -4.2083   42.2160 O   0  0  0  0  0  0  0  0  0  0  0  0
    3.8540   -1.9238   39.1667 C   0  0  2  0  0  0  0  0  0  0  0  0
    4.8442   -1.5546   38.1106 N   0  0  0  0  0  0  0  0  0  0  0  0
   -2.9465  -10.5653   47.2829 C   0  0  2  0  0  0  0  0  0  0  0  0
   -2.4168   -9.8725   48.4340 O   0  0  0  0  0  0  0  0  0  0  0  0
    0.7053   -5.9332   43.4534 C   0  0  2  0  0  0  0  0  0  0  0  0
    0.4403   -6.6717   42.1961 N   0  0  0  0  0  0  0  0  0  0  0  0
    4.6000   -2.2011   40.5422 C   0  0  0  0  0  0  0  0  0  0  0  0
   -2.6109   -9.7019   46.0179 C   0  0  2  0  0  0  0  0  0  0  0  0
   -1.1478   -9.4781   45.8986 N   0  0  0  0  0  0  0  0  0  0  0  0
   -0.5464   -5.0204   43.8137 C   0  0  1  0  0  0  0  0  0  0  0  0
   -1.7903   -5.8318   43.8650 O   0  0  0  0  0  0  0  0  0  0  0  0
    3.5265   -2.6027   41.6444 C   0  0  2  0  0  0  0  0  0  0  0  0
    4.2018   -2.8766   42.9310 N   0  0  0  0  0  0  0  0  0  0  0  0
   -3.3838   -8.3101   46.0372 C   0  0  1  0  0  0  0  0  0  0  0  0
   -3.1174   -7.5039   44.8609 O   0  0  0  0  0  0  0  0  0  0  0  0
   -0.2069   -4.2607   45.1706 C   0  0  2  0  0  0  0  0  0  0  0  0
   -1.2614   -3.3992   45.5603 O   0  0  0  0  0  0  0  0  0  0  0  0
    2.7219   -3.8832   41.1731 C   0  0  2  0  0  0  0  0  0  0  0  0
   -4.9150   -8.5953   46.1492 C   0  0  2  0  0  0  0  0  0  0  0  0
   -5.6544   -7.3904   46.1815 O   0  0  0  0  0  0  0  0  0  0  0  0
    1.1296   -3.4384   45.0252 C   0  0  2  0  0  0  0  0  0  0  0  0
    2.2281   -4.3380   44.6147 O   0  0  0  0  0  0  0  0  0  0  0  0
    2.0007   -3.6054   39.8244 C   0  0  2  0  0  0  0  0  0  0  0  0
    1.3188   -4.8320   39.4353 O   0  0  0  0  0  0  0  0  0  0  0  0
   -5.2085   -9.4704   47.4327 C   0  0  2  0  0  0  0  0  0  0  0  0
   -4.4221  -10.7245   47.3903 O   0  0  0  0  0  0  0  0  0  0  0  0
    1.4984   -2.7285   46.3270 C   0  0  0  0  0  0  0  0  0  0  0  0
    1.6078   -3.6436   47.3899 O   0  0  0  0  0  0  0  0  0  0  0  0
    3.0410   -3.2109   38.7501 C   0  0  1  0  0  0  0  0  0  0  0  0
    2.3607   -2.9589   37.5386 O   0  0  0  0  0  0  0  0  0  0  0  0
   -6.6855   -9.8113   47.5604 C   0  0  0  0  0  0  0  0  0  0  0  0
   -6.9403  -10.4362   48.7951 O   0  0  0  0  0  0  0  0  0  0  0  0
   -1.8217   -6.8470   44.9833 C   0  0  0  0  0  0  0  0  0  0  0  0
  1  2  1  6  0  0  0
  1  7  1  0  0  0  0
  1 24  1  0  0  0  0
  3  4  1  6  0  0  0
  3  9  1  0  0  0  0
  3 31  1  0  0  0  0
  5  6  1  1  0  0  0
  5 10  1  0  0  0  0
  5 28  1  0  0  0  0
  7  8  1  6  0  0  0
  7 12  1  0  0  0  0
  9 14  1  0  0  0  0
 10 11  1  1  0  0  0
 10 16  1  0  0  0  0
 12 13  1  1  0  0  0
 12 18  1  0  0  0  0
 13 35  1  0  0  0  0
 14 15  1  1  0  0  0
 14 20  1  0  0  0  0
 16 17  1  6  0  0  0
 16 21  1  0  0  0  0
 17 35  1  0  0  0  0
 18 19  1  6  0  0  0
 18 23  1  0  0  0  0
 20  2  1  1  0  0  0
 20 25  1  0  0  0  0
 21 22  1  1  0  0  0
 21 27  1  0  0  0  0
 23 24  1  0  0  0  0
 23 29  1  1  0  0  0
 25 26  1  6  0  0  0
 25 31  1  0  0  0  0
 27 28  1  0  0  0  0
 27 33  1  6  0  0  0
 29 30  1  0  0  0  0
 31 32  1  6  0  0  0
 33 34  1  0  0  0  0
M  END
>  <CHROM.1>
-138.08801850,66.05393696,179.12672054,-78.66059293,-168.43364073,-89.54689241
56.71566735,-172.30236074,-0.37848255,-5.82260226,44.01982694,-0.52397328
0.74763475,1.46702706

>  <Name>
2o3v_lig

>  <RI>
0

>  <Rbt.Current_Directory>
/home/afrankz/demos/rdock_decoys_rna/rnas/2o3v

>  <Rbt.Executable>
rbdock ($Id: //depot/dev/client3/rdock/2013.1/src/exe/rbdock.cxx#4 $)

>  <Rbt.Library>
libRbt.so (2013.1, Build901 2013/11/27)

>  <Rbt.Parameter_File>
/export/apps/rDock/src/rDock_2013.1_src/data/scripts/dock_solv.prm

>  <Rbt.Receptor>
prm/pocket_docking_8.prm

>  <SCORE>
-14.216

>  <SCORE.INTER>
-13.5296

>  <SCORE.INTER.CONST>
1

>  <SCORE.INTER.POLAR>
-2.61504

>  <SCORE.INTER.ROT>
8

>  <SCORE.INTER.SOLV>
18.4925

>  <SCORE.INTER.VDW>
-15.4005

>  <SCORE.INTER.norm>
-0.386561

>  <SCORE.INTRA>
-0.704302

>  <SCORE.INTRA.DIHEDRAL>
-1.2205

>  <SCORE.INTRA.DIHEDRAL.0>
13.1227

>  <SCORE.INTRA.POLAR>
0

>  <SCORE.INTRA.POLAR.0>
0

>  <SCORE.INTRA.REPUL>
0

>  <SCORE.INTRA.REPUL.0>
0

>  <SCORE.INTRA.SOLV>
2.47416

>  <SCORE.INTRA.SOLV.lig_0>
-89.1587

>  <SCORE.INTRA.VDW>
-1.33113

>  <SCORE.INTRA.VDW.0>
-0.838383

>  <SCORE.INTRA.norm>
-0.0201229

>  <SCORE.RESTR>
0.0179627

>  <SCORE.RESTR.CAVITY>
0.0179627

>  <SCORE.RESTR.norm>
0.000513219

>  <SCORE.SYSTEM>
0

>  <SCORE.SYSTEM.CONST>
0

>  <SCORE.SYSTEM.DIHEDRAL>
0

>  <SCORE.SYSTEM.SOLV>
0

>  <SCORE.SYSTEM.norm>
0

>  <SCORE.heavy>
35

>  <SCORE.norm>
-0.40617

>  <RMSD>
4.290

$$$$
2o3v_lig
 OpenBabel02141814113D
libRbt.so/2013.1/901 2013/11/27
 35 37  0  0  0  0  0  0  0  0999 V2000
    0.3495   -7.8332   43.5842 C   0  0  2  0  0  0  0  0  0  0  0  0
    0.5825   -6.5634   44.2668 O   0  0  0  0  0  0  0  0  0  0  0  0
    2.7231   -2.8275   43.6435 C   0  0  2  0  0  0  0  0  0  0  0  0
    3.8297   -1.8643   43.3608 N   0  0  0  0  0  0  0  0  0  0  0  0
   -6.6246   -9.3357   44.0666 C   0  0  2  0  0  0  0  0  0  0  0  0
   -5.6002   -9.7021   43.1169 O   0  0  0  0  0  0  0  0  0  0  0  0
   -0.9809   -8.3410   44.2250 C   0  0  2  0  0  0  0  0  0  0  0  0
   -2.0797   -7.3676   44.0209 N   0  0  0  0  0  0  0  0  0  0  0  0
    3.0540   -3.6725   44.9481 C   0  0  0  0  0  0  0  0  0  0  0  0
   -5.9400   -8.4885   45.1944 C   0  0  2  0  0  0  0  0  0  0  0  0
   -5.2646   -7.2938   44.6274 N   0  0  0  0  0  0  0  0  0  0  0  0
   -0.8060   -8.6350   45.7782 C   0  0  1  0  0  0  0  0  0  0  0  0
   -2.0930   -9.0741   46.3775 O   0  0  0  0  0  0  0  0  0  0  0  0
    1.8680   -4.6962   45.2195 C   0  0  2  0  0  0  0  0  0  0  0  0
    2.1618   -5.5016   46.4243 N   0  0  0  0  0  0  0  0  0  0  0  0
   -4.9076   -9.3603   46.0365 C   0  0  1  0  0  0  0  0  0  0  0  0
   -4.2833   -8.6093   47.1093 O   0  0  0  0  0  0  0  0  0  0  0  0
    0.3782   -9.6873   45.9333 C   0  0  2  0  0  0  0  0  0  0  0  0
    0.6247   -9.9935   47.2940 O   0  0  0  0  0  0  0  0  0  0  0  0
    1.6783   -5.6472   43.9669 C   0  0  2  0  0  0  0  0  0  0  0  0
   -5.6640  -10.5942   46.6229 C   0  0  2  0  0  0  0  0  0  0  0  0
   -4.7910  -11.4138   47.3750 O   0  0  0  0  0  0  0  0  0  0  0  0
    1.6949   -9.1418   45.2608 C   0  0  2  0  0  0  0  0  0  0  0  0
    1.4350   -8.8190   43.8420 O   0  0  0  0  0  0  0  0  0  0  0  0
    1.3612   -4.8124   42.6946 C   0  0  2  0  0  0  0  0  0  0  0  0
    1.2402   -5.7444   41.5821 O   0  0  0  0  0  0  0  0  0  0  0  0
   -6.3420  -11.4165   45.4553 C   0  0  2  0  0  0  0  0  0  0  0  0
   -7.2465  -10.5449   44.6710 O   0  0  0  0  0  0  0  0  0  0  0  0
    2.8386  -10.1500   45.3631 C   0  0  0  0  0  0  0  0  0  0  0  0
    3.2220  -10.3473   46.7021 O   0  0  0  0  0  0  0  0  0  0  0  0
    2.5109   -3.8126   42.4288 C   0  0  1  0  0  0  0  0  0  0  0  0
    2.1960   -3.0644   41.2733 O   0  0  0  0  0  0  0  0  0  0  0  0
   -7.1289  -12.6065   45.9832 C   0  0  0  0  0  0  0  0  0  0  0  0
   -6.2660  -13.5316   46.5992 O   0  0  0  0  0  0  0  0  0  0  0  0
   -3.0743   -7.9528   46.6273 C   0  0  0  0  0  0  0  0  0  0  0  0
  1  2  1  1  0  0  0
  1  7  1  0  0  0  0
  1 24  1  0  0  0  0
  3  4  1  6  0  0  0
  3  9  1  0  0  0  0
  3 31  1  0  0  0  0
  5  6  1  6  0  0  0
  5 10  1  0  0  0  0
  5 28  1  0  0  0  0
  7  8  1  1  0  0  0
  7 12  1  0  0  0  0
  9 14  1  0  0  0  0
 10 11  1  6  0  0  0
 10 16  1  0  0  0  0
 12 13  1  6  0  0  0
 12 18  1  0  0  0  0
 13 35  1  0  0  0  0
 14 15  1  1  0  0  0
 14 20  1  0  0  0  0
 16 17  1  1  0  0  0
 16 21  1  0  0  0  0
 17 35  1  0  0  0  0
 18 19  1  1  0  0  0
 18 23  1  0  0  0  0
 20  2  1  1  0  0  0
 20 25  1  0  0  0  0
 21 22  1  6  0  0  0
 21 27  1  0  0  0  0
 23 24  1  0  0  0  0
 23 29  1  6  0  0  0
 25 26  1  6  0  0  0
 25 31  1  0  0  0  0
 27 28  1  0  0  0  0
 27 33  1  1  0  0  0
 29 30  1  0  0  0  0
 31 32  1  6  0  0  0
 33 34  1  0  0  0  0
M  END
>  <CHROM.1>
-176.37305040,-76.99930745,175.68758558,-88.85309896,-69.56788651,-160.35279720
-65.48754774,-64.50544343,-1.31864393,-8.01266010,44.91735942,-0.63639487
0.16583545,2.58659674

>  <Name>
2o3v_lig

>  <RI>
0

>  <Rbt.Current_Directory>
/home/afrankz/demos/rdock_decoys_rna/rnas/2o3v

>  <Rbt.Executable>
rbdock ($Id: //depot/dev/client3/rdock/2013.1/src/exe/rbdock.cxx#4 $)

>  <Rbt.Library>
libRbt.so (2013.1, Build901 2013/11/27)

>  <Rbt.Parameter_File>
/export/apps/rDock/src/rDock_2013.1_src/data/scripts/dock_solv.prm

>  <Rbt.Receptor>
prm/pocket_docking_5.prm

>  <SCORE>
-10.0048

>  <SCORE.INTER>
-6.86701

>  <SCORE.INTER.CONST>
1

>  <SCORE.INTER.POLAR>
-1.81836

>  <SCORE.INTER.ROT>
8

>  <SCORE.INTER.SOLV>
11.5789

>  <SCORE.INTER.VDW>
-11.3098

>  <SCORE.INTER.norm>
-0.1962

>  <SCORE.INTRA>
-3.14043

>  <SCORE.INTRA.DIHEDRAL>
-5.84551

>  <SCORE.INTRA.DIHEDRAL.0>
13.1227

>  <SCORE.INTRA.POLAR>
0

>  <SCORE.INTRA.POLAR.0>
0

>  <SCORE.INTRA.REPUL>
0

>  <SCORE.INTRA.REPUL.0>
0

>  <SCORE.INTRA.SOLV>
3.20041

>  <SCORE.INTRA.SOLV.lig_0>
-89.1587

>  <SCORE.INTRA.VDW>
-1.81787

>  <SCORE.INTRA.VDW.0>
-0.838383

>  <SCORE.INTRA.norm>
-0.0897265

>  <SCORE.RESTR>
0.00264593

>  <SCORE.RESTR.CAVITY>
0.00264593

>  <SCORE.RESTR.norm>
7.5598e-05

>  <SCORE.SYSTEM>
0

>  <SCORE.SYSTEM.CONST>
0

>  <SCORE.SYSTEM.DIHEDRAL>
0

>  <SCORE.SYSTEM.SOLV>
0

>  <SCORE.SYSTEM.norm>
0

>  <SCORE.heavy>
35

>  <SCORE.norm>
-0.285851

>  <RMSD>
4.339

$$$$
2o3v_lig
 OpenBabel02141814113D
libRbt.so/2013.1/901 2013/11/27
 35 37  0  0  0  0  0  0  0  0999 V2000
    3.1169   -4.7412   46.0441 C   0  0  2  0  0  0  0  0  0  0  0  0
    3.2254   -5.8308   45.0779 O   0  0  0  0  0  0  0  0  0  0  0  0
    6.1448   -7.2973   42.2049 C   0  0  2  0  0  0  0  0  0  0  0  0
    7.4247   -7.8087   41.6281 N   0  0  0  0  0  0  0  0  0  0  0  0
   -4.2173   -9.3872   45.2495 C   0  0  2  0  0  0  0  0  0  0  0  0
   -4.6820   -9.5349   43.8902 O   0  0  0  0  0  0  0  0  0  0  0  0
    1.6666   -4.9034   46.5997 C   0  0  2  0  0  0  0  0  0  0  0  0
    1.4742   -6.2385   47.2136 N   0  0  0  0  0  0  0  0  0  0  0  0
    6.3642   -5.8505   42.8245 C   0  0  0  0  0  0  0  0  0  0  0  0
   -3.5411   -7.9773   45.3654 C   0  0  2  0  0  0  0  0  0  0  0  0
   -4.4902   -6.8989   44.9896 N   0  0  0  0  0  0  0  0  0  0  0  0
    0.5771   -4.6727   45.4642 C   0  0  1  0  0  0  0  0  0  0  0  0
   -0.7931   -4.8751   46.0026 O   0  0  0  0  0  0  0  0  0  0  0  0
    4.9920   -5.3350   43.4409 C   0  0  2  0  0  0  0  0  0  0  0  0
    5.1771   -3.9932   44.0339 N   0  0  0  0  0  0  0  0  0  0  0  0
   -2.2213   -7.8864   44.4797 C   0  0  1  0  0  0  0  0  0  0  0  0
   -1.5560   -6.6023   44.5942 O   0  0  0  0  0  0  0  0  0  0  0  0
    0.8291   -3.2264   44.8492 C   0  0  2  0  0  0  0  0  0  0  0  0
   -0.0848   -2.9402   43.8058 O   0  0  0  0  0  0  0  0  0  0  0  0
    4.4822   -6.3486   44.5464 C   0  0  2  0  0  0  0  0  0  0  0  0
   -1.2503   -9.0279   44.9190 C   0  0  2  0  0  0  0  0  0  0  0  0
   -0.0601   -9.0030   44.1559 O   0  0  0  0  0  0  0  0  0  0  0  0
    2.3066   -3.1017   44.3153 C   0  0  2  0  0  0  0  0  0  0  0  0
    3.2591   -3.4044   45.4042 O   0  0  0  0  0  0  0  0  0  0  0  0
    4.2763   -7.7621   43.9334 C   0  0  2  0  0  0  0  0  0  0  0  0
    3.8485   -8.6448   45.0100 O   0  0  0  0  0  0  0  0  0  0  0  0
   -1.9716  -10.4288   44.7913 C   0  0  2  0  0  0  0  0  0  0  0  0
   -3.2200  -10.4384   45.5878 O   0  0  0  0  0  0  0  0  0  0  0  0
    2.5863   -1.7088   43.7527 C   0  0  0  0  0  0  0  0  0  0  0  0
    3.8895   -1.6256   43.2298 O   0  0  0  0  0  0  0  0  0  0  0  0
    5.6080   -8.2660   43.3294 C   0  0  1  0  0  0  0  0  0  0  0  0
    5.3926   -9.5469   42.7754 O   0  0  0  0  0  0  0  0  0  0  0  0
   -1.0774  -11.5704   45.2508 C   0  0  0  0  0  0  0  0  0  0  0  0
   -1.7464  -12.8014   45.1203 O   0  0  0  0  0  0  0  0  0  0  0  0
   -1.2568   -6.3128   45.9913 C   0  0  0  0  0  0  0  0  0  0  0  0
  1  2  1  6  0  0  0
  1  7  1  0  0  0  0
  1 24  1  0  0  0  0
  3  4  1  1  0  0  0
  3  9  1  0  0  0  0
  3 31  1  0  0  0  0
  5  6  1  6  0  0  0
  5 10  1  0  0  0  0
  5 28  1  0  0  0  0
  7  8  1  6  0  0  0
  7 12  1  0  0  0  0
  9 14  1  0  0  0  0
 10 11  1  6  0  0  0
 10 16  1  0  0  0  0
 12 13  1  1  0  0  0
 12 18  1  0  0  0  0
 13 35  1  0  0  0  0
 14 15  1  1  0  0  0
 14 20  1  0  0  0  0
 16 17  1  1  0  0  0
 16 21  1  0  0  0  0
 17 35  1  0  0  0  0
 18 19  1  6  0  0  0
 18 23  1  0  0  0  0
 20  2  1  6  0  0  0
 20 25  1  0  0  0  0
 21 22  1  6  0  0  0
 21 27  1  0  0  0  0
 23 24  1  0  0  0  0
 23 29  1  1  0  0  0
 25 26  1  1  0  0  0
 25 31  1  0  0  0  0
 27 28  1  0  0  0  0
 27 33  1  1  0  0  0
 29 30  1  0  0  0  0
 31 32  1  6  0  0  0
 33 34  1  0  0  0  0
M  END
>  <CHROM.1>
-162.45999158,-85.48258535,-74.38498005,55.89029511,-170.60776769,-77.82510699
-177.59392923,-179.80205038,1.23624750,-6.76140515,44.56508049,0.48207660
0.23013055,0.10353112

>  <Name>
2o3v_lig

>  <RI>
0

>  <Rbt.Current_Directory>
/home/afrankz/demos/rdock_decoys_rna/rnas/2o3v

>  <Rbt.Executable>
rbdock ($Id: //depot/dev/client3/rdock/2013.1/src/exe/rbdock.cxx#4 $)

>  <Rbt.Library>
libRbt.so (2013.1, Build901 2013/11/27)

>  <Rbt.Parameter_File>
/export/apps/rDock/src/rDock_2013.1_src/data/scripts/dock_solv.prm

>  <Rbt.Receptor>
prm/pocket_docking_5.prm

>  <SCORE>
-17.3467

>  <SCORE.INTER>
-16.6527

>  <SCORE.INTER.CONST>
1

>  <SCORE.INTER.POLAR>
-1.51242

>  <SCORE.INTER.ROT>
8

>  <SCORE.INTER.SOLV>
18.5741

>  <SCORE.INTER.VDW>
-21.1851

>  <SCORE.INTER.norm>
-0.475793

>  <SCORE.INTRA>
-0.693962

>  <SCORE.INTRA.DIHEDRAL>
-5.94818

>  <SCORE.INTRA.DIHEDRAL.0>
13.1227

>  <SCORE.INTRA.POLAR>
0

>  <SCORE.INTRA.POLAR.0>
0

>  <SCORE.INTRA.REPUL>
0

>  <SCORE.INTRA.REPUL.0>
0

>  <SCORE.INTRA.SOLV>
4.25182

>  <SCORE.INTRA.SOLV.lig_0>
-89.1587

>  <SCORE.INTRA.VDW>
0.154221

>  <SCORE.INTRA.VDW.0>
-0.838383

>  <SCORE.INTRA.norm>
-0.0198275

>  <SCORE.RESTR>
0

>  <SCORE.RESTR.CAVITY>
0

>  <SCORE.RESTR.norm>
0

>  <SCORE.SYSTEM>
0

>  <SCORE.SYSTEM.CONST>
0

>  <SCORE.SYSTEM.DIHEDRAL>
0

>  <SCORE.SYSTEM.SOLV>
0

>  <SCORE.SYSTEM.norm>
0

>  <SCORE.heavy>
35

>  <SCORE.norm>
-0.49562

>  <RMSD>
4.399

$$$$
2o3v_lig
 OpenBabel02141814113D
libRbt.so/2013.1/901 2013/11/27
 35 37  0  0  0  0  0  0  0  0999 V2000
    2.8792   -4.4132   44.6783 C   0  0  2  0  0  0  0  0  0  0  0  0
    3.5801   -5.6915   44.7643 O   0  0  0  0  0  0  0  0  0  0  0  0
    6.8449   -7.7273   42.7336 C   0  0  2  0  0  0  0  0  0  0  0  0
    7.6599   -8.3603   41.6531 N   0  0  0  0  0  0  0  0  0  0  0  0
   -0.2532  -11.0620   48.1661 C   0  0  2  0  0  0  0  0  0  0  0  0
   -0.1432  -11.0446   49.6060 O   0  0  0  0  0  0  0  0  0  0  0  0
    2.2266   -4.2713   46.0898 C   0  0  2  0  0  0  0  0  0  0  0  0
    3.2524   -4.2947   47.1592 N   0  0  0  0  0  0  0  0  0  0  0  0
    5.4694   -8.5040   42.9067 C   0  0  0  0  0  0  0  0  0  0  0  0
    0.0748   -9.6177   47.6514 C   0  0  2  0  0  0  0  0  0  0  0  0
    1.4258   -9.1887   48.0934 N   0  0  0  0  0  0  0  0  0  0  0  0
    1.1507   -5.4127   46.3531 C   0  0  1  0  0  0  0  0  0  0  0  0
    0.5744   -5.2862   47.7170 O   0  0  0  0  0  0  0  0  0  0  0  0
    4.6175   -7.8043   44.0527 C   0  0  2  0  0  0  0  0  0  0  0  0
    3.3268   -8.5055   44.2222 N   0  0  0  0  0  0  0  0  0  0  0  0
   -1.0222   -8.5648   48.1234 C   0  0  1  0  0  0  0  0  0  0  0  0
   -0.7614   -7.2247   47.6328 O   0  0  0  0  0  0  0  0  0  0  0  0
    0.0764   -5.3339   45.1813 C   0  0  2  0  0  0  0  0  0  0  0  0
   -0.9154   -6.3357   45.3190 O   0  0  0  0  0  0  0  0  0  0  0  0
    4.3627   -6.2848   43.6846 C   0  0  2  0  0  0  0  0  0  0  0  0
   -2.4206   -9.0493   47.6250 C   0  0  2  0  0  0  0  0  0  0  0  0
   -3.4398   -8.1547   48.0257 O   0  0  0  0  0  0  0  0  0  0  0  0
    0.7787   -5.4660   43.7767 C   0  0  2  0  0  0  0  0  0  0  0  0
    1.8159   -4.4225   43.6361 O   0  0  0  0  0  0  0  0  0  0  0  0
    5.7129   -5.5344   43.5111 C   0  0  2  0  0  0  0  0  0  0  0  0
    5.4024   -4.1617   43.1364 O   0  0  0  0  0  0  0  0  0  0  0  0
   -2.7090  -10.5081   48.1616 C   0  0  2  0  0  0  0  0  0  0  0  0
   -1.6307  -11.4323   47.7423 O   0  0  0  0  0  0  0  0  0  0  0  0
   -0.2272   -5.3562   42.6317 C   0  0  0  0  0  0  0  0  0  0  0  0
    0.3172   -5.8448   41.4302 O   0  0  0  0  0  0  0  0  0  0  0  0
    6.5464   -6.2140   42.3996 C   0  0  1  0  0  0  0  0  0  0  0  0
    7.7678   -5.5178   42.2661 O   0  0  0  0  0  0  0  0  0  0  0  0
   -4.0445  -11.0408   47.6648 C   0  0  0  0  0  0  0  0  0  0  0  0
   -4.0584  -11.0967   46.2588 O   0  0  0  0  0  0  0  0  0  0  0  0
    0.3109   -6.6063   48.4028 C   0  0  0  0  0  0  0  0  0  0  0  0
  1  2  1  1  0  0  0
  1  7  1  0  0  0  0
  1 24  1  0  0  0  0
  3  4  1  6  0  0  0
  3  9  1  0  0  0  0
  3 31  1  0  0  0  0
  5  6  1  1  0  0  0
  5 10  1  0  0  0  0
  5 28  1  0  0  0  0
  7  8  1  1  0  0  0
  7 12  1  0  0  0  0
  9 14  1  0  0  0  0
 10 11  1  1  0  0  0
 10 16  1  0  0  0  0
 12 13  1  1  0  0  0
 12 18  1  0  0  0  0
 13 35  1  0  0  0  0
 14 15  1  6  0  0  0
 14 20  1  0  0  0  0
 16 17  1  6  0  0  0
 16 21  1  0  0  0  0
 17 35  1  0  0  0  0
 18 19  1  1  0  0  0
 18 23  1  0  0  0  0
 20  2  1  1  0  0  0
 20 25  1  0  0  0  0
 21 22  1  1  0  0  0
 21 27  1  0  0  0  0
 23 24  1  0  0  0  0
 23 29  1  6  0  0  0
 25 26  1  6  0  0  0
 25 31  1  0  0  0  0
 27 28  1  0  0  0  0
 27 33  1  6  0  0  0
 29 30  1  0  0  0  0
 31 32  1  1  0  0  0
 33 34  1  0  0  0  0
M  END
>  <CHROM.1>
-179.82245801,-142.32340869,-67.16984446,-76.41163425,174.70820064,-165.26691523
-163.18273417,60.32138946,1.50680059,-7.29431940,45.50551873,0.54232947,0.43657391
-0.30351334

>  <Name>
2o3v_lig

>  <RI>
0

>  <Rbt.Current_Directory>
/home/afrankz/demos/rdock_decoys_rna/rnas/2o3v

>  <Rbt.Executable>
rbdock ($Id: //depot/dev/client3/rdock/2013.1/src/exe/rbdock.cxx#4 $)

>  <Rbt.Library>
libRbt.so (2013.1, Build901 2013/11/27)

>  <Rbt.Parameter_File>
/export/apps/rDock/src/rDock_2013.1_src/data/scripts/dock_solv.prm

>  <Rbt.Receptor>
prm/pocket_docking_5.prm

>  <SCORE>
-16.4619

>  <SCORE.INTER>
-13.0097

>  <SCORE.INTER.CONST>
1

>  <SCORE.INTER.POLAR>
-1.371

>  <SCORE.INTER.ROT>
8

>  <SCORE.INTER.SOLV>
23.8975

>  <SCORE.INTER.VDW>
-21.0023

>  <SCORE.INTER.norm>
-0.371706

>  <SCORE.INTRA>
-3.4529

>  <SCORE.INTRA.DIHEDRAL>
-4.45057

>  <SCORE.INTRA.DIHEDRAL.0>
13.1227

>  <SCORE.INTRA.POLAR>
0

>  <SCORE.INTRA.POLAR.0>
0

>  <SCORE.INTRA.REPUL>
0

>  <SCORE.INTRA.REPUL.0>
0

>  <SCORE.INTRA.SOLV>
0.922827

>  <SCORE.INTRA.SOLV.lig_0>
-89.1587

>  <SCORE.INTRA.VDW>
-1.68903

>  <SCORE.INTRA.VDW.0>
-0.838383

>  <SCORE.INTRA.norm>
-0.0986544

>  <SCORE.RESTR>
0.000728439

>  <SCORE.RESTR.CAVITY>
0.000728439

>  <SCORE.RESTR.norm>
2.08125e-05

>  <SCORE.SYSTEM>
0

>  <SCORE.SYSTEM.CONST>
0

>  <SCORE.SYSTEM.DIHEDRAL>
0

>  <SCORE.SYSTEM.SOLV>
0

>  <SCORE.SYSTEM.norm>
0

>  <SCORE.heavy>
35

>  <SCORE.norm>
-0.47034

>  <RMSD>
4.417

$$$$
2o3v_lig
 OpenBabel02141814113D
libRbt.so/2013.1/901 2013/11/27
 35 37  0  0  0  0  0  0  0  0999 V2000
    2.2265   -3.8447   43.6654 C   0  0  2  0  0  0  0  0  0  0  0  0
    2.6394   -5.2090   43.9830 O   0  0  0  0  0  0  0  0  0  0  0  0
    6.2972   -7.4872   43.3851 C   0  0  2  0  0  0  0  0  0  0  0  0
    7.3888   -8.2548   42.7132 N   0  0  0  0  0  0  0  0  0  0  0  0
   -7.0376   -5.4318   47.2198 C   0  0  2  0  0  0  0  0  0  0  0  0
   -7.4639   -5.5237   45.8431 O   0  0  0  0  0  0  0  0  0  0  0  0
    1.1219   -3.5520   44.7297 C   0  0  2  0  0  0  0  0  0  0  0  0
    1.6548   -3.6866   46.1060 N   0  0  0  0  0  0  0  0  0  0  0  0
    4.9083   -8.2371   43.2004 C   0  0  0  0  0  0  0  0  0  0  0  0
   -5.7061   -4.6044   47.2463 C   0  0  2  0  0  0  0  0  0  0  0  0
   -5.9008   -3.2624   46.6413 N   0  0  0  0  0  0  0  0  0  0  0  0
   -0.1351   -4.5087   44.5449 C   0  0  1  0  0  0  0  0  0  0  0  0
   -1.1544   -4.2445   45.5935 O   0  0  0  0  0  0  0  0  0  0  0  0
    3.7636   -7.3949   43.9135 C   0  0  2  0  0  0  0  0  0  0  0  0
    2.4592   -8.0702   43.7433 N   0  0  0  0  0  0  0  0  0  0  0  0
   -4.5226   -5.3759   46.5122 C   0  0  1  0  0  0  0  0  0  0  0  0
   -3.2688   -4.6472   46.5507 O   0  0  0  0  0  0  0  0  0  0  0  0
   -0.6655   -4.3161   43.0566 C   0  0  2  0  0  0  0  0  0  0  0  0
   -1.7770   -5.1524   42.7900 O   0  0  0  0  0  0  0  0  0  0  0  0
    3.7018   -5.9372   43.2966 C   0  0  2  0  0  0  0  0  0  0  0  0
   -4.3460   -6.7718   47.1897 C   0  0  2  0  0  0  0  0  0  0  0  0
   -3.3111   -7.5092   46.5696 O   0  0  0  0  0  0  0  0  0  0  0  0
    0.4835   -4.6063   42.0176 C   0  0  2  0  0  0  0  0  0  0  0  0
    1.6442   -3.7357   42.2996 O   0  0  0  0  0  0  0  0  0  0  0  0
    5.0658   -5.2134   43.4760 C   0  0  2  0  0  0  0  0  0  0  0  0
    4.9475   -3.9023   42.8532 O   0  0  0  0  0  0  0  0  0  0  0  0
   -5.7101   -7.5696   47.1455 C   0  0  2  0  0  0  0  0  0  0  0  0
   -6.7865   -6.7830   47.7902 O   0  0  0  0  0  0  0  0  0  0  0  0
    0.0104   -4.3922   40.5806 C   0  0  0  0  0  0  0  0  0  0  0  0
    1.0446   -4.6504   39.6627 O   0  0  0  0  0  0  0  0  0  0  0  0
    6.1830   -6.0313   42.7868 C   0  0  1  0  0  0  0  0  0  0  0  0
    7.4099   -5.3563   42.9690 O   0  0  0  0  0  0  0  0  0  0  0  0
   -5.5984   -8.9214   47.8342 C   0  0  0  0  0  0  0  0  0  0  0  0
   -6.8236   -9.6100   47.7659 O   0  0  0  0  0  0  0  0  0  0  0  0
   -2.3645   -5.1462   45.5219 C   0  0  0  0  0  0  0  0  0  0  0  0
  1  2  1  1  0  0  0
  1  7  1  0  0  0  0
  1 24  1  0  0  0  0
  3  4  1  6  0  0  0
  3  9  1  0  0  0  0
  3 31  1  0  0  0  0
  5  6  1  6  0  0  0
  5 10  1  0  0  0  0
  5 28  1  0  0  0  0
  7  8  1  1  0  0  0
  7 12  1  0  0  0  0
  9 14  1  0  0  0  0
 10 11  1  6  0  0  0
 10 16  1  0  0  0  0
 12 13  1  1  0  0  0
 12 18  1  0  0  0  0
 13 35  1  0  0  0  0
 14 15  1  6  0  0  0
 14 20  1  0  0  0  0
 16 17  1  1  0  0  0
 16 21  1  0  0  0  0
 17 35  1  0  0  0  0
 18 19  1  6  0  0  0
 18 23  1  0  0  0  0
 20  2  1  1  0  0  0
 20 25  1  0  0  0  0
 21 22  1  6  0  0  0
 21 27  1  0  0  0  0
 23 24  1  0  0  0  0
 23 29  1  6  0  0  0
 25 26  1  6  0  0  0
 25 31  1  0  0  0  0
 27 28  1  0  0  0  0
 27 33  1  1  0  0  0
 29 30  1  0  0  0  0
 31 32  1  1  0  0  0
 33 34  1  0  0  0  0
M  END
>  <CHROM.1>
-177.53980041,-177.93129313,-175.36669781,-161.10698299,175.66764726,-177.30567365
179.83824258,-179.42980850,-0.32288008,-5.68181206,44.60102005,0.22515331
0.29880841,-0.54159491

>  <Name>
2o3v_lig

>  <RI>
0

>  <Rbt.Current_Directory>
/home/afrankz/demos/rdock_decoys_rna/rnas/2o3v

>  <Rbt.Executable>
rbdock ($Id: //depot/dev/client3/rdock/2013.1/src/exe/rbdock.cxx#4 $)

>  <Rbt.Library>
libRbt.so (2013.1, Build901 2013/11/27)

>  <Rbt.Parameter_File>
/export/apps/rDock/src/rDock_2013.1_src/data/scripts/dock_solv.prm

>  <Rbt.Receptor>
prm/pocket_docking_8.prm

>  <SCORE>
-15.5049

>  <SCORE.INTER>
-9.04383

>  <SCORE.INTER.CONST>
1

>  <SCORE.INTER.POLAR>
-0.677199

>  <SCORE.INTER.ROT>
8

>  <SCORE.INTER.SOLV>
16.5656

>  <SCORE.INTER.VDW>
-18.2271

>  <SCORE.INTER.norm>
-0.258395

>  <SCORE.INTRA>
-6.4611

>  <SCORE.INTRA.DIHEDRAL>
-11.1648

>  <SCORE.INTRA.DIHEDRAL.0>
13.1227

>  <SCORE.INTRA.POLAR>
0

>  <SCORE.INTRA.POLAR.0>
0

>  <SCORE.INTRA.REPUL>
0

>  <SCORE.INTRA.REPUL.0>
0

>  <SCORE.INTRA.SOLV>
-1.7814

>  <SCORE.INTRA.SOLV.lig_0>
-89.1587

>  <SCORE.INTRA.VDW>
0.0119808

>  <SCORE.INTRA.VDW.0>
-0.838383

>  <SCORE.INTRA.norm>
-0.184603

>  <SCORE.RESTR>
0

>  <SCORE.RESTR.CAVITY>
0

>  <SCORE.RESTR.norm>
0

>  <SCORE.SYSTEM>
0

>  <SCORE.SYSTEM.CONST>
0

>  <SCORE.SYSTEM.DIHEDRAL>
0

>  <SCORE.SYSTEM.SOLV>
0

>  <SCORE.SYSTEM.norm>
0

>  <SCORE.heavy>
35

>  <SCORE.norm>
-0.442998

>  <RMSD>
4.438

$$$$
2o3v_lig
 OpenBabel02141814113D
libRbt.so/2013.1/901 2013/11/27
 35 37  0  0  0  0  0  0  0  0999 V2000
    3.9830   -4.4874   45.6305 C   0  0  2  0  0  0  0  0  0  0  0  0
    4.1441   -5.8589   45.1551 O   0  0  0  0  0  0  0  0  0  0  0  0
    7.3782   -7.8746   43.0564 C   0  0  2  0  0  0  0  0  0  0  0  0
    8.2852   -8.3221   41.9567 N   0  0  0  0  0  0  0  0  0  0  0  0
   -4.0838   -8.8815   47.2775 C   0  0  2  0  0  0  0  0  0  0  0  0
   -4.0924   -9.4782   45.9624 O   0  0  0  0  0  0  0  0  0  0  0  0
    2.6309   -4.5392   46.4100 C   0  0  2  0  0  0  0  0  0  0  0  0
    2.6855   -5.5281   47.5125 N   0  0  0  0  0  0  0  0  0  0  0  0
    5.8875   -8.3372   42.7575 C   0  0  0  0  0  0  0  0  0  0  0  0
   -3.8339   -7.3444   47.0955 C   0  0  2  0  0  0  0  0  0  0  0  0
   -4.8703   -6.7358   46.2235 N   0  0  0  0  0  0  0  0  0  0  0  0
    1.4131   -4.8782   45.4448 C   0  0  1  0  0  0  0  0  0  0  0  0
    0.1438   -4.9665   46.2124 O   0  0  0  0  0  0  0  0  0  0  0  0
    4.9423   -7.8390   43.9351 C   0  0  2  0  0  0  0  0  0  0  0  0
    3.5466   -8.2496   43.6706 N   0  0  0  0  0  0  0  0  0  0  0  0
   -2.3806   -7.0522   46.5146 C   0  0  1  0  0  0  0  0  0  0  0  0
   -2.1098   -5.6346   46.3673 O   0  0  0  0  0  0  0  0  0  0  0  0
    1.4018   -3.7831   44.2897 C   0  0  2  0  0  0  0  0  0  0  0  0
    0.3586   -4.0193   43.3614 O   0  0  0  0  0  0  0  0  0  0  0  0
    5.0264   -6.2625   44.0648 C   0  0  2  0  0  0  0  0  0  0  0  0
   -1.3267   -7.6973   47.4694 C   0  0  2  0  0  0  0  0  0  0  0  0
   -0.0123   -7.4781   46.9961 O   0  0  0  0  0  0  0  0  0  0  0  0
    2.7881   -3.7545   43.5405 C   0  0  2  0  0  0  0  0  0  0  0  0
    3.8761   -3.5118   44.5110 O   0  0  0  0  0  0  0  0  0  0  0  0
    6.4884   -5.8185   44.3508 C   0  0  2  0  0  0  0  0  0  0  0  0
    6.4959   -4.3636   44.4170 O   0  0  0  0  0  0  0  0  0  0  0  0
   -1.6172   -9.2431   47.6285 C   0  0  2  0  0  0  0  0  0  0  0  0
   -2.9987   -9.4586   48.1163 O   0  0  0  0  0  0  0  0  0  0  0  0
    2.8166   -2.6848   42.4498 C   0  0  0  0  0  0  0  0  0  0  0  0
    2.5799   -1.4065   42.9872 O   0  0  0  0  0  0  0  0  0  0  0  0
    7.4121   -6.3041   43.2092 C   0  0  1  0  0  0  0  0  0  0  0  0
    8.7325   -5.8934   43.4956 O   0  0  0  0  0  0  0  0  0  0  0  0
   -0.6400   -9.9076   48.5863 C   0  0  0  0  0  0  0  0  0  0  0  0
   -0.9289  -11.2792   48.7094 O   0  0  0  0  0  0  0  0  0  0  0  0
   -1.0427   -5.4240   45.3967 C   0  0  0  0  0  0  0  0  0  0  0  0
  1  2  1  6  0  0  0
  1  7  1  0  0  0  0
  1 24  1  0  0  0  0
  3  4  1  6  0  0  0
  3  9  1  0  0  0  0
  3 31  1  0  0  0  0
  5  6  1  6  0  0  0
  5 10  1  0  0  0  0
  5 28  1  0  0  0  0
  7  8  1  1  0  0  0
  7 12  1  0  0  0  0
  9 14  1  0  0  0  0
 10 11  1  6  0  0  0
 10 16  1  0  0  0  0
 12 13  1  1  0  0  0
 12 18  1  0  0  0  0
 13 35  1  0  0  0  0
 14 15  1  6  0  0  0
 14 20  1  0  0  0  0
 16 17  1  1  0  0  0
 16 21  1  0  0  0  0
 17 35  1  0  0  0  0
 18 19  1  6  0  0  0
 18 23  1  0  0  0  0
 20  2  1  1  0  0  0
 20 25  1  0  0  0  0
 21 22  1  6  0  0  0
 21 27  1  0  0  0  0
 23 24  1  0  0  0  0
 23 29  1  6  0  0  0
 25 26  1  6  0  0  0
 25 31  1  0  0  0  0
 27 28  1  0  0  0  0
 27 33  1  1  0  0  0
 29 30  1  0  0  0  0
 31 32  1  1  0  0  0
 33 34  1  0  0  0  0
M  END
>  <CHROM.1>
161.23420859,-174.06561565,171.61884231,-158.28853706,-109.20552389,177.26115836
59.05735691,179.77003931,1.77424570,-6.39507944,45.28913135,0.36650687,0.29680266
-0.31542956

>  <Name>
2o3v_lig

>  <RI>
0

>  <Rbt.Current_Directory>
/home/afrankz/demos/rdock_decoys_rna/rnas/2o3v

>  <Rbt.Executable>
rbdock ($Id: //depot/dev/client3/rdock/2013.1/src/exe/rbdock.cxx#4 $)

>  <Rbt.Library>
libRbt.so (2013.1, Build901 2013/11/27)

>  <Rbt.Parameter_File>
/export/apps/rDock/src/rDock_2013.1_src/data/scripts/dock_solv.prm

>  <Rbt.Receptor>
prm/pocket_docking_4.prm

>  <SCORE>
-8.11557

>  <SCORE.INTER>
-6.16837

>  <SCORE.INTER.CONST>
1

>  <SCORE.INTER.POLAR>
0

>  <SCORE.INTER.ROT>
8

>  <SCORE.INTER.SOLV>
19.2767

>  <SCORE.INTER.VDW>
-19.4711

>  <SCORE.INTER.norm>
-0.176239

>  <SCORE.INTRA>
-1.95207

>  <SCORE.INTRA.DIHEDRAL>
-2.19887

>  <SCORE.INTRA.DIHEDRAL.0>
13.1227

>  <SCORE.INTRA.POLAR>
0

>  <SCORE.INTRA.POLAR.0>
0

>  <SCORE.INTRA.REPUL>
0

>  <SCORE.INTRA.REPUL.0>
0

>  <SCORE.INTRA.SOLV>
-0.0747244

>  <SCORE.INTRA.SOLV.lig_0>
-89.1587

>  <SCORE.INTRA.VDW>
-0.815267

>  <SCORE.INTRA.VDW.0>
-0.838383

>  <SCORE.INTRA.norm>
-0.0557733

>  <SCORE.RESTR>
0.00486593

>  <SCORE.RESTR.CAVITY>
0.00486593

>  <SCORE.RESTR.norm>
0.000139027

>  <SCORE.SYSTEM>
0

>  <SCORE.SYSTEM.CONST>
0

>  <SCORE.SYSTEM.DIHEDRAL>
0

>  <SCORE.SYSTEM.SOLV>
0

>  <SCORE.SYSTEM.norm>
0

>  <SCORE.heavy>
35

>  <SCORE.norm>
-0.231873

>  <RMSD>
4.461

$$$$
2o3v_lig
 OpenBabel02141814113D
libRbt.so/2013.1/901 2013/11/27
 35 37  0  0  0  0  0  0  0  0999 V2000
    3.5804   -4.8775   46.1847 C   0  0  2  0  0  0  0  0  0  0  0  0
    3.6266   -5.9641   45.2101 O   0  0  0  0  0  0  0  0  0  0  0  0
    6.3510   -7.2371   42.0661 C   0  0  2  0  0  0  0  0  0  0  0  0
    7.5871   -7.7165   41.3774 N   0  0  0  0  0  0  0  0  0  0  0  0
   -0.7811   -9.4532   44.3120 C   0  0  2  0  0  0  0  0  0  0  0  0
    0.5980   -9.2613   44.6951 O   0  0  0  0  0  0  0  0  0  0  0  0
    2.2249   -5.1195   46.9212 C   0  0  2  0  0  0  0  0  0  0  0  0
    2.1895   -6.4602   47.5517 N   0  0  0  0  0  0  0  0  0  0  0  0
    6.6283   -5.8447   42.7800 C   0  0  0  0  0  0  0  0  0  0  0  0
   -1.5177   -8.0821   44.5019 C   0  0  2  0  0  0  0  0  0  0  0  0
   -0.8690   -7.0135   43.7004 N   0  0  0  0  0  0  0  0  0  0  0  0
    0.9876   -4.9573   45.9351 C   0  0  1  0  0  0  0  0  0  0  0  0
   -0.2886   -5.2349   46.6441 O   0  0  0  0  0  0  0  0  0  0  0  0
    5.3025   -5.3632   43.5140 C   0  0  2  0  0  0  0  0  0  0  0  0
    5.5425   -4.0730   44.1954 N   0  0  0  0  0  0  0  0  0  0  0  0
   -1.5839   -7.6606   46.0357 C   0  0  1  0  0  0  0  0  0  0  0  0
   -2.2902   -6.4106   46.2441 O   0  0  0  0  0  0  0  0  0  0  0  0
    1.0754   -3.5021   45.2961 C   0  0  2  0  0  0  0  0  0  0  0  0
    0.0205   -3.2740   44.3790 O   0  0  0  0  0  0  0  0  0  0  0  0
    4.8423   -6.4532   44.5673 C   0  0  2  0  0  0  0  0  0  0  0  0
   -2.2844   -8.8053   46.8342 C   0  0  2  0  0  0  0  0  0  0  0  0
   -2.3622   -8.4895   48.2104 O   0  0  0  0  0  0  0  0  0  0  0  0
    2.4628   -3.2959   44.5776 C   0  0  2  0  0  0  0  0  0  0  0  0
    3.5626   -3.5381   45.5349 O   0  0  0  0  0  0  0  0  0  0  0  0
    4.5792   -7.8130   43.8617 C   0  0  2  0  0  0  0  0  0  0  0  0
    4.2012   -8.7711   44.8914 O   0  0  0  0  0  0  0  0  0  0  0  0
   -1.5142  -10.1678   46.6120 C   0  0  2  0  0  0  0  0  0  0  0  0
   -1.4325  -10.4820   45.1672 O   0  0  0  0  0  0  0  0  0  0  0  0
    2.5877   -1.8922   43.9869 C   0  0  0  0  0  0  0  0  0  0  0  0
    3.8677   -1.6838   43.4419 O   0  0  0  0  0  0  0  0  0  0  0  0
    5.8656   -8.2835   43.1434 C   0  0  1  0  0  0  0  0  0  0  0  0
    5.5986   -9.5156   42.5071 O   0  0  0  0  0  0  0  0  0  0  0  0
   -2.1868  -11.3236   47.3371 C   0  0  0  0  0  0  0  0  0  0  0  0
   -1.5190  -12.5312   47.0619 O   0  0  0  0  0  0  0  0  0  0  0  0
   -1.4983   -5.2947   45.7412 C   0  0  0  0  0  0  0  0  0  0  0  0
  1  2  1  6  0  0  0
  1  7  1  0  0  0  0
  1 24  1  0  0  0  0
  3  4  1  1  0  0  0
  3  9  1  0  0  0  0
  3 31  1  0  0  0  0
  5  6  1  1  0  0  0
  5 10  1  0  0  0  0
  5 28  1  0  0  0  0
  7  8  1  6  0  0  0
  7 12  1  0  0  0  0
  9 14  1  0  0  0  0
 10 11  1  6  0  0  0
 10 16  1  0  0  0  0
 12 13  1  1  0  0  0
 12 18  1  0  0  0  0
 13 35  1  0  0  0  0
 14 15  1  1  0  0  0
 14 20  1  0  0  0  0
 16 17  1  6  0  0  0
 16 21  1  0  0  0  0
 17 35  1  0  0  0  0
 18 19  1  6  0  0  0
 18 23  1  0  0  0  0
 20  2  1  6  0  0  0
 20 25  1  0  0  0  0
 21 22  1  1  0  0  0
 21 27  1  0  0  0  0
 23 24  1  0  0  0  0
 23 29  1  1  0  0  0
 25 26  1  1  0  0  0
 25 31  1  0  0  0  0
 27 28  1  0  0  0  0
 27 33  1  1  0  0  0
 29 30  1  0  0  0  0
 31 32  1  6  0  0  0
 33 34  1  0  0  0  0
M  END
>  <CHROM.1>
-159.45668357,-171.83402696,139.29505847,-70.70986465,-66.63939312,-72.73555564
175.31507346,176.88779123,1.76714044,-6.75550268,45.01774013,0.45753100,0.42030200
0.05628650

>  <Name>
2o3v_lig

>  <RI>
0

>  <Rbt.Current_Directory>
/home/afrankz/demos/rdock_decoys_rna/rnas/2o3v

>  <Rbt.Executable>
rbdock ($Id: //depot/dev/client3/rdock/2013.1/src/exe/rbdock.cxx#4 $)

>  <Rbt.Library>
libRbt.so (2013.1, Build901 2013/11/27)

>  <Rbt.Parameter_File>
/export/apps/rDock/src/rDock_2013.1_src/data/scripts/dock_solv.prm

>  <Rbt.Receptor>
prm/pocket_docking_4.prm

>  <SCORE>
-15.4243

>  <SCORE.INTER>
-15.7041

>  <SCORE.INTER.CONST>
1

>  <SCORE.INTER.POLAR>
-1.36334

>  <SCORE.INTER.ROT>
8

>  <SCORE.INTER.SOLV>
22.2343

>  <SCORE.INTER.VDW>
-22.2697

>  <SCORE.INTER.norm>
-0.448688

>  <SCORE.INTRA>
0.256726

>  <SCORE.INTRA.DIHEDRAL>
-3.70755

>  <SCORE.INTRA.DIHEDRAL.0>
13.1227

>  <SCORE.INTRA.POLAR>
0

>  <SCORE.INTRA.POLAR.0>
0

>  <SCORE.INTRA.REPUL>
0

>  <SCORE.INTRA.REPUL.0>
0

>  <SCORE.INTRA.SOLV>
5.29623

>  <SCORE.INTRA.SOLV.lig_0>
-89.1587

>  <SCORE.INTRA.VDW>
-0.537612

>  <SCORE.INTRA.VDW.0>
-0.838383

>  <SCORE.INTRA.norm>
0.00733504

>  <SCORE.RESTR>
0.0230455

>  <SCORE.RESTR.CAVITY>
0.0230455

>  <SCORE.RESTR.norm>
0.000658444

>  <SCORE.SYSTEM>
0

>  <SCORE.SYSTEM.CONST>
0

>  <SCORE.SYSTEM.DIHEDRAL>
0

>  <SCORE.SYSTEM.SOLV>
0

>  <SCORE.SYSTEM.norm>
0

>  <SCORE.heavy>
35

>  <SCORE.norm>
-0.440695

>  <RMSD>
4.462

$$$$
2o3v_lig
 OpenBabel02141814113D
libRbt.so/2013.1/901 2013/11/27
 35 37  0  0  0  0  0  0  0  0999 V2000
    4.1157   -4.0127   44.9706 C   0  0  2  0  0  0  0  0  0  0  0  0
    4.1043   -5.4295   44.6164 O   0  0  0  0  0  0  0  0  0  0  0  0
    7.3269   -7.9331   43.1085 C   0  0  2  0  0  0  0  0  0  0  0  0
    8.2672   -8.6071   42.1631 N   0  0  0  0  0  0  0  0  0  0  0  0
   -3.5774   -8.1251   45.3190 C   0  0  2  0  0  0  0  0  0  0  0  0
   -4.5204   -8.0848   46.4120 O   0  0  0  0  0  0  0  0  0  0  0  0
    2.7563   -3.8227   45.7150 C   0  0  2  0  0  0  0  0  0  0  0  0
    2.6642   -4.7111   46.8977 N   0  0  0  0  0  0  0  0  0  0  0  0
    5.8308   -8.3658   42.7924 C   0  0  0  0  0  0  0  0  0  0  0  0
   -2.4536   -7.0762   45.6277 C   0  0  2  0  0  0  0  0  0  0  0  0
   -1.7985   -7.3648   46.9286 N   0  0  0  0  0  0  0  0  0  0  0  0
    1.5201   -4.0849   44.7493 C   0  0  1  0  0  0  0  0  0  0  0  0
    0.2381   -3.9426   45.4872 O   0  0  0  0  0  0  0  0  0  0  0  0
    4.8510   -7.6267   43.8034 C   0  0  2  0  0  0  0  0  0  0  0  0
    3.4507   -8.0071   43.5187 N   0  0  0  0  0  0  0  0  0  0  0  0
   -3.0207   -5.5886   45.6117 C   0  0  1  0  0  0  0  0  0  0  0  0
   -1.9944   -4.5942   45.8616 O   0  0  0  0  0  0  0  0  0  0  0  0
    1.6698   -3.1017   43.5065 C   0  0  2  0  0  0  0  0  0  0  0  0
    0.6194   -3.2815   42.5736 O   0  0  0  0  0  0  0  0  0  0  0  0
    5.0222   -6.0575   43.6713 C   0  0  2  0  0  0  0  0  0  0  0  0
   -3.6859   -5.3271   44.2233 C   0  0  2  0  0  0  0  0  0  0  0  0
   -4.2190   -4.0191   44.1546 O   0  0  0  0  0  0  0  0  0  0  0  0
    3.0596   -3.3164   42.7951 C   0  0  2  0  0  0  0  0  0  0  0  0
    4.1544   -3.1322   43.7707 O   0  0  0  0  0  0  0  0  0  0  0  0
    6.4893   -5.6438   43.9758 C   0  0  2  0  0  0  0  0  0  0  0  0
    6.5804   -4.2014   43.7966 O   0  0  0  0  0  0  0  0  0  0  0  0
   -4.8076   -6.4072   43.9502 C   0  0  2  0  0  0  0  0  0  0  0  0
   -4.2380   -7.7716   44.0333 O   0  0  0  0  0  0  0  0  0  0  0  0
    3.2444   -2.3577   41.6197 C   0  0  0  0  0  0  0  0  0  0  0  0
    4.4757   -2.5768   40.9757 O   0  0  0  0  0  0  0  0  0  0  0  0
    7.4463   -6.3633   42.9968 C   0  0  1  0  0  0  0  0  0  0  0  0
    8.7703   -5.9754   43.2979 O   0  0  0  0  0  0  0  0  0  0  0  0
   -5.4555   -6.2188   42.5868 C   0  0  0  0  0  0  0  0  0  0  0  0
   -4.5043   -6.3869   41.5636 O   0  0  0  0  0  0  0  0  0  0  0  0
   -0.9022   -4.7470   44.9084 C   0  0  0  0  0  0  0  0  0  0  0  0
  1  2  1  6  0  0  0
  1  7  1  0  0  0  0
  1 24  1  0  0  0  0
  3  4  1  6  0  0  0
  3  9  1  0  0  0  0
  3 31  1  0  0  0  0
  5  6  1  1  0  0  0
  5 10  1  0  0  0  0
  5 28  1  0  0  0  0
  7  8  1  1  0  0  0
  7 12  1  0  0  0  0
  9 14  1  0  0  0  0
 10 11  1  1  0  0  0
 10 16  1  0  0  0  0
 12 13  1  1  0  0  0
 12 18  1  0  0  0  0
 13 35  1  0  0  0  0
 14 15  1  6  0  0  0
 14 20  1  0  0  0  0
 16 17  1  6  0  0  0
 16 21  1  0  0  0  0
 17 35  1  0  0  0  0
 18 19  1  6  0  0  0
 18 23  1  0  0  0  0
 20  2  1  1  0  0  0
 20 25  1  0  0  0  0
 21 22  1  1  0  0  0
 21 27  1  0  0  0  0
 23 24  1  0  0  0  0
 23 29  1  6  0  0  0
 25 26  1  6  0  0  0
 25 31  1  0  0  0  0
 27 28  1  0  0  0  0
 27 33  1  6  0  0  0
 29 30  1  0  0  0  0
 31 32  1  1  0  0  0
 33 34  1  0  0  0  0
M  END
>  <CHROM.1>
166.79667302,-153.28850132,173.28253364,55.35868042,-164.98432624,168.90697814
-178.78984652,62.44583352,1.42885372,-5.51913018,44.04167685,0.07011157,0.11598082
-0.19468451

>  <Name>
2o3v_lig

>  <RI>
0

>  <Rbt.Current_Directory>
/home/afrankz/demos/rdock_decoys_rna/rnas/2o3v

>  <Rbt.Executable>
rbdock ($Id: //depot/dev/client3/rdock/2013.1/src/exe/rbdock.cxx#4 $)

>  <Rbt.Library>
libRbt.so (2013.1, Build901 2013/11/27)

>  <Rbt.Parameter_File>
/export/apps/rDock/src/rDock_2013.1_src/data/scripts/dock_solv.prm

>  <Rbt.Receptor>
prm/pocket_docking_5.prm

>  <SCORE>
-15.8067

>  <SCORE.INTER>
-12.0779

>  <SCORE.INTER.CONST>
1

>  <SCORE.INTER.POLAR>
-0.959166

>  <SCORE.INTER.ROT>
8

>  <SCORE.INTER.SOLV>
24.1395

>  <SCORE.INTER.VDW>
-21.8346

>  <SCORE.INTER.norm>
-0.345084

>  <SCORE.INTRA>
-3.72873

>  <SCORE.INTRA.DIHEDRAL>
-7.26767

>  <SCORE.INTRA.DIHEDRAL.0>
13.1227

>  <SCORE.INTRA.POLAR>
0

>  <SCORE.INTRA.POLAR.0>
0

>  <SCORE.INTRA.REPUL>
0

>  <SCORE.INTRA.REPUL.0>
0

>  <SCORE.INTRA.SOLV>
-0.792611

>  <SCORE.INTRA.SOLV.lig_0>
-89.1587

>  <SCORE.INTRA.VDW>
0.301407

>  <SCORE.INTRA.VDW.0>
-0.838383

>  <SCORE.INTRA.norm>
-0.106535

>  <SCORE.RESTR>
0

>  <SCORE.RESTR.CAVITY>
0

>  <SCORE.RESTR.norm>
0

>  <SCORE.SYSTEM>
0

>  <SCORE.SYSTEM.CONST>
0

>  <SCORE.SYSTEM.DIHEDRAL>
0

>  <SCORE.SYSTEM.SOLV>
0

>  <SCORE.SYSTEM.norm>
0

>  <SCORE.heavy>
35

>  <SCORE.norm>
-0.451619

>  <RMSD>
4.477

$$$$
2o3v_lig
 OpenBabel02141814113D
libRbt.so/2013.1/901 2013/11/27
 35 37  0  0  0  0  0  0  0  0999 V2000
    4.1020   -3.9693   44.0783 C   0  0  2  0  0  0  0  0  0  0  0  0
    4.1639   -5.3485   43.6020 O   0  0  0  0  0  0  0  0  0  0  0  0
    7.7039   -7.4408   42.1814 C   0  0  2  0  0  0  0  0  0  0  0  0
    8.9451   -8.2724   42.1746 N   0  0  0  0  0  0  0  0  0  0  0  0
   -3.4944   -8.0778   45.2616 C   0  0  2  0  0  0  0  0  0  0  0  0
   -2.4974   -8.6103   46.1605 O   0  0  0  0  0  0  0  0  0  0  0  0
    2.5953   -3.7892   44.4470 C   0  0  2  0  0  0  0  0  0  0  0  0
    2.1735   -4.7720   45.4729 N   0  0  0  0  0  0  0  0  0  0  0  0
    7.9081   -6.1617   43.1021 C   0  0  0  0  0  0  0  0  0  0  0  0
   -2.8013   -6.9738   44.3903 C   0  0  2  0  0  0  0  0  0  0  0  0
   -1.6383   -7.5295   43.6530 N   0  0  0  0  0  0  0  0  0  0  0  0
    1.6614   -3.9163   43.1660 C   0  0  1  0  0  0  0  0  0  0  0  0
    0.2303   -3.7863   43.5447 O   0  0  0  0  0  0  0  0  0  0  0  0
    6.5709   -5.3013   43.1012 C   0  0  2  0  0  0  0  0  0  0  0  0
    6.7358   -4.1107   43.9625 N   0  0  0  0  0  0  0  0  0  0  0  0
   -2.3525   -5.7273   45.2732 C   0  0  1  0  0  0  0  0  0  0  0  0
   -1.7375   -4.6748   44.4865 O   0  0  0  0  0  0  0  0  0  0  0  0
    2.1564   -2.8362   42.1067 C   0  0  2  0  0  0  0  0  0  0  0  0
    1.3938   -2.8918   40.9145 O   0  0  0  0  0  0  0  0  0  0  0  0
    5.3618   -6.1820   43.6225 C   0  0  2  0  0  0  0  0  0  0  0  0
   -3.6074   -5.1695   46.0167 C   0  0  2  0  0  0  0  0  0  0  0  0
   -3.2659   -4.0628   46.8280 O   0  0  0  0  0  0  0  0  0  0  0  0
    3.6829   -3.0450   41.7754 C   0  0  2  0  0  0  0  0  0  0  0  0
    4.4769   -2.9906   43.0208 O   0  0  0  0  0  0  0  0  0  0  0  0
    5.1732   -7.4337   42.7202 C   0  0  2  0  0  0  0  0  0  0  0  0
    4.0770   -8.2120   43.2801 O   0  0  0  0  0  0  0  0  0  0  0  0
   -4.2772   -6.3135   46.8780 C   0  0  2  0  0  0  0  0  0  0  0  0
   -4.6218   -7.4689   46.0182 O   0  0  0  0  0  0  0  0  0  0  0  0
    4.1931   -1.9966   40.7878 C   0  0  0  0  0  0  0  0  0  0  0  0
    3.5601   -2.1268   39.5383 O   0  0  0  0  0  0  0  0  0  0  0  0
    6.4730   -8.2718   42.7154 C   0  0  1  0  0  0  0  0  0  0  0  0
    6.2773   -9.3976   41.8857 O   0  0  0  0  0  0  0  0  0  0  0  0
   -5.5317   -5.8275   47.5878 C   0  0  0  0  0  0  0  0  0  0  0  0
   -6.0119   -6.8150   48.4677 O   0  0  0  0  0  0  0  0  0  0  0  0
   -0.3683   -5.0381   44.1422 C   0  0  0  0  0  0  0  0  0  0  0  0
  1  2  1  6  0  0  0
  1  7  1  0  0  0  0
  1 24  1  0  0  0  0
  3  4  1  1  0  0  0
  3  9  1  0  0  0  0
  3 31  1  0  0  0  0
  5  6  1  1  0  0  0
  5 10  1  0  0  0  0
  5 28  1  0  0  0  0
  7  8  1  1  0  0  0
  7 12  1  0  0  0  0
  9 14  1  0  0  0  0
 10 11  1  1  0  0  0
 10 16  1  0  0  0  0
 12 13  1  1  0  0  0
 12 18  1  0  0  0  0
 13 35  1  0  0  0  0
 14 15  1  1  0  0  0
 14 20  1  0  0  0  0
 16 17  1  6  0  0  0
 16 21  1  0  0  0  0
 17 35  1  0  0  0  0
 18 19  1  6  0  0  0
 18 23  1  0  0  0  0
 20  2  1  6  0  0  0
 20 25  1  0  0  0  0
 21 22  1  1  0  0  0
 21 27  1  0  0  0  0
 23 24  1  0  0  0  0
 23 29  1  6  0  0  0
 25 26  1  1  0  0  0
 25 31  1  0  0  0  0
 27 28  1  0  0  0  0
 27 33  1  6  0  0  0
 29 30  1  0  0  0  0
 31 32  1  6  0  0  0
 33 34  1  0  0  0  0
M  END
>  <CHROM.1>
-154.95439136,-78.88812840,177.68408256,-76.97979974,-170.52447281,-44.47434503
-64.76699907,-172.95464615,1.57725240,-5.55482933,43.90147128,0.17336366
0.33148403,-0.35282465

>  <Name>
2o3v_lig

>  <RI>
0

>  <Rbt.Current_Directory>
/home/afrankz/demos/rdock_decoys_rna/rnas/2o3v

>  <Rbt.Executable>
rbdock ($Id: //depot/dev/client3/rdock/2013.1/src/exe/rbdock.cxx#4 $)

>  <Rbt.Library>
libRbt.so (2013.1, Build901 2013/11/27)

>  <Rbt.Parameter_File>
/export/apps/rDock/src/rDock_2013.1_src/data/scripts/dock_solv.prm

>  <Rbt.Receptor>
prm/blind_docking_80.prm

>  <SCORE>
-5.53978

>  <SCORE.INTER>
-7.84002

>  <SCORE.INTER.CONST>
1

>  <SCORE.INTER.POLAR>
-0.959166

>  <SCORE.INTER.ROT>
8

>  <SCORE.INTER.SOLV>
25.6805

>  <SCORE.INTER.VDW>
-19.523

>  <SCORE.INTER.norm>
-0.224

>  <SCORE.INTRA>
-1.22362

>  <SCORE.INTRA.DIHEDRAL>
-5.61148

>  <SCORE.INTRA.DIHEDRAL.0>
13.1227

>  <SCORE.INTRA.POLAR>
0

>  <SCORE.INTRA.POLAR.0>
0

>  <SCORE.INTRA.REPUL>
0

>  <SCORE.INTRA.REPUL.0>
0

>  <SCORE.INTRA.SOLV>
2.54936

>  <SCORE.INTRA.SOLV.lig_0>
-89.1587

>  <SCORE.INTRA.VDW>
0.307438

>  <SCORE.INTRA.VDW.0>
-0.838383

>  <SCORE.INTRA.norm>
-0.0349606

>  <SCORE.RESTR>
3.52385

>  <SCORE.RESTR.CAVITY>
3.52385

>  <SCORE.RESTR.norm>
0.100682

>  <SCORE.SYSTEM>
0

>  <SCORE.SYSTEM.CONST>
0

>  <SCORE.SYSTEM.DIHEDRAL>
0

>  <SCORE.SYSTEM.SOLV>
0

>  <SCORE.SYSTEM.norm>
0

>  <SCORE.heavy>
35

>  <SCORE.norm>
-0.15828

>  <RMSD>
4.490

$$$$
2o3v_lig
 OpenBabel02141814113D
libRbt.so/2013.1/901 2013/11/27
 35 37  0  0  0  0  0  0  0  0999 V2000
    2.6406   -4.0659   45.3827 C   0  0  2  0  0  0  0  0  0  0  0  0
    2.8928   -5.4018   44.8492 O   0  0  0  0  0  0  0  0  0  0  0  0
    6.0764   -6.9130   42.2980 C   0  0  2  0  0  0  0  0  0  0  0  0
    7.4133   -7.4088   41.8520 N   0  0  0  0  0  0  0  0  0  0  0  0
   -4.3340   -9.7767   45.7053 C   0  0  2  0  0  0  0  0  0  0  0  0
   -5.0226   -9.3059   44.5265 O   0  0  0  0  0  0  0  0  0  0  0  0
    1.3386   -4.2599   46.2227 C   0  0  2  0  0  0  0  0  0  0  0  0
    1.5319   -5.2765   47.2836 N   0  0  0  0  0  0  0  0  0  0  0  0
    6.2012   -5.4293   42.8533 C   0  0  0  0  0  0  0  0  0  0  0  0
   -3.4383   -8.6010   46.2285 C   0  0  2  0  0  0  0  0  0  0  0  0
   -4.2561   -7.3953   46.5155 N   0  0  0  0  0  0  0  0  0  0  0  0
    0.1068   -4.6703   45.3041 C   0  0  1  0  0  0  0  0  0  0  0  0
   -1.1104   -4.8932   46.1270 O   0  0  0  0  0  0  0  0  0  0  0  0
    4.7690   -4.9305   43.3312 C   0  0  2  0  0  0  0  0  0  0  0  0
    4.8650   -3.5541   43.8630 N   0  0  0  0  0  0  0  0  0  0  0  0
   -2.2750   -8.2488   45.2001 C   0  0  1  0  0  0  0  0  0  0  0  0
   -1.4096   -7.1855   45.6745 O   0  0  0  0  0  0  0  0  0  0  0  0
   -0.0550   -3.5425   44.1926 C   0  0  2  0  0  0  0  0  0  0  0  0
   -1.1200   -3.8368   43.3065 O   0  0  0  0  0  0  0  0  0  0  0  0
    4.2034   -5.9025   44.4468 C   0  0  2  0  0  0  0  0  0  0  0  0
   -1.4357   -9.5399   44.9405 C   0  0  2  0  0  0  0  0  0  0  0  0
   -0.3899   -9.2888   44.0224 O   0  0  0  0  0  0  0  0  0  0  0  0
    1.2844   -3.3697   43.3803 C   0  0  2  0  0  0  0  0  0  0  0  0
    2.3954   -3.0665   44.3067 O   0  0  0  0  0  0  0  0  0  0  0  0
    4.0904   -7.3522   43.8973 C   0  0  2  0  0  0  0  0  0  0  0  0
    3.6048   -8.1922   44.9835 O   0  0  0  0  0  0  0  0  0  0  0  0
   -2.3759  -10.6991   44.4196 C   0  0  2  0  0  0  0  0  0  0  0  0
   -3.4708  -10.9458   45.3857 O   0  0  0  0  0  0  0  0  0  0  0  0
    1.1676   -2.2658   42.3302 C   0  0  0  0  0  0  0  0  0  0  0  0
    0.9807   -1.0093   42.9344 O   0  0  0  0  0  0  0  0  0  0  0  0
    5.4809   -7.8402   43.4279 C   0  0  1  0  0  0  0  0  0  0  0  0
    5.3498   -9.1548   42.9292 O   0  0  0  0  0  0  0  0  0  0  0  0
   -1.6082  -11.9928   44.1938 C   0  0  0  0  0  0  0  0  0  0  0  0
   -2.4545  -12.9778   43.6519 O   0  0  0  0  0  0  0  0  0  0  0  0
   -2.0775   -5.8963   45.5432 C   0  0  0  0  0  0  0  0  0  0  0  0
  1  2  1  6  0  0  0
  1  7  1  0  0  0  0
  1 24  1  0  0  0  0
  3  4  1  1  0  0  0
  3  9  1  0  0  0  0
  3 31  1  0  0  0  0
  5  6  1  6  0  0  0
  5 10  1  0  0  0  0
  5 28  1  0  0  0  0
  7  8  1  1  0  0  0
  7 12  1  0  0  0  0
  9 14  1  0  0  0  0
 10 11  1  6  0  0  0
 10 16  1  0  0  0  0
 12 13  1  1  0  0  0
 12 18  1  0  0  0  0
 13 35  1  0  0  0  0
 14 15  1  1  0  0  0
 14 20  1  0  0  0  0
 16 17  1  1  0  0  0
 16 21  1  0  0  0  0
 17 35  1  0  0  0  0
 18 19  1  6  0  0  0
 18 23  1  0  0  0  0
 20  2  1  6  0  0  0
 20 25  1  0  0  0  0
 21 22  1  6  0  0  0
 21 27  1  0  0  0  0
 23 24  1  0  0  0  0
 23 29  1  6  0  0  0
 25 26  1  1  0  0  0
 25 31  1  0  0  0  0
 27 28  1  0  0  0  0
 27 33  1  1  0  0  0
 29 30  1  0  0  0  0
 31 32  1  6  0  0  0
 33 34  1  0  0  0  0
M  END
>  <CHROM.1>
-154.94153871,-150.88739652,70.16307909,-75.64708931,177.31522063,-57.93256803
64.81210221,-176.30219558,0.79835872,-6.71218705,44.43712855,0.53917017,0.25035822
0.06231813

>  <Name>
2o3v_lig

>  <RI>
0

>  <Rbt.Current_Directory>
/home/afrankz/demos/rdock_decoys_rna/rnas/2o3v

>  <Rbt.Executable>
rbdock ($Id: //depot/dev/client3/rdock/2013.1/src/exe/rbdock.cxx#4 $)

>  <Rbt.Library>
libRbt.so (2013.1, Build901 2013/11/27)

>  <Rbt.Parameter_File>
/export/apps/rDock/src/rDock_2013.1_src/data/scripts/dock_solv.prm

>  <Rbt.Receptor>
prm/pocket_docking_8.prm

>  <SCORE>
-13.9101

>  <SCORE.INTER>
-11.7843

>  <SCORE.INTER.CONST>
1

>  <SCORE.INTER.POLAR>
-0.959166

>  <SCORE.INTER.ROT>
8

>  <SCORE.INTER.SOLV>
17.5274

>  <SCORE.INTER.VDW>
-19.4348

>  <SCORE.INTER.norm>
-0.336695

>  <SCORE.INTRA>
-2.12576

>  <SCORE.INTRA.DIHEDRAL>
-5.14331

>  <SCORE.INTRA.DIHEDRAL.0>
13.1227

>  <SCORE.INTRA.POLAR>
0

>  <SCORE.INTRA.POLAR.0>
0

>  <SCORE.INTRA.REPUL>
0

>  <SCORE.INTRA.REPUL.0>
0

>  <SCORE.INTRA.SOLV>
2.64658

>  <SCORE.INTRA.SOLV.lig_0>
-89.1587

>  <SCORE.INTRA.VDW>
-0.877391

>  <SCORE.INTRA.VDW.0>
-0.838383

>  <SCORE.INTRA.norm>
-0.0607359

>  <SCORE.RESTR>
0

>  <SCORE.RESTR.CAVITY>
0

>  <SCORE.RESTR.norm>
0

>  <SCORE.SYSTEM>
0

>  <SCORE.SYSTEM.CONST>
0

>  <SCORE.SYSTEM.DIHEDRAL>
0

>  <SCORE.SYSTEM.SOLV>
0

>  <SCORE.SYSTEM.norm>
0

>  <SCORE.heavy>
35

>  <SCORE.norm>
-0.397431

>  <RMSD>
4.533

$$$$
2o3v_lig
 OpenBabel02141814113D
libRbt.so/2013.1/901 2013/11/27
 35 37  0  0  0  0  0  0  0  0999 V2000
    0.1956   -7.5215   46.5014 C   0  0  2  0  0  0  0  0  0  0  0  0
    0.3123   -8.9065   46.0531 O   0  0  0  0  0  0  0  0  0  0  0  0
    4.5859   -9.5552   45.5604 C   0  0  2  0  0  0  0  0  0  0  0  0
    5.8838  -10.2031   45.2031 N   0  0  0  0  0  0  0  0  0  0  0  0
   -9.0857   -7.6880   44.0766 C   0  0  2  0  0  0  0  0  0  0  0  0
   -8.6154   -8.4731   42.9595 O   0  0  0  0  0  0  0  0  0  0  0  0
   -1.2493   -7.4603   47.0904 C   0  0  2  0  0  0  0  0  0  0  0  0
   -1.4214   -8.4380   48.1907 N   0  0  0  0  0  0  0  0  0  0  0  0
    3.8128  -10.4358   46.6339 C   0  0  0  0  0  0  0  0  0  0  0  0
   -7.8336   -7.2881   44.9314 C   0  0  2  0  0  0  0  0  0  0  0  0
   -6.8461   -6.5406   44.1122 N   0  0  0  0  0  0  0  0  0  0  0  0
   -2.3482   -7.7153   45.9692 C   0  0  1  0  0  0  0  0  0  0  0  0
   -3.7126   -7.6970   46.5577 O   0  0  0  0  0  0  0  0  0  0  0  0
    2.4320   -9.7311   46.9876 C   0  0  2  0  0  0  0  0  0  0  0  0
    1.6905  -10.5414   47.9777 N   0  0  0  0  0  0  0  0  0  0  0  0
   -7.1489   -8.5614   45.5980 C   0  0  1  0  0  0  0  0  0  0  0  0
   -6.0062   -8.2168   46.4227 O   0  0  0  0  0  0  0  0  0  0  0  0
   -2.1180   -6.6356   44.8225 C   0  0  2  0  0  0  0  0  0  0  0  0
   -3.0415   -6.8012   43.7615 O   0  0  0  0  0  0  0  0  0  0  0  0
    1.5637   -9.5551   45.6745 C   0  0  2  0  0  0  0  0  0  0  0  0
   -8.2188   -9.3057   46.4583 C   0  0  2  0  0  0  0  0  0  0  0  0
   -7.6679  -10.4561   47.0688 O   0  0  0  0  0  0  0  0  0  0  0  0
   -0.6453   -6.7223   44.2682 C   0  0  2  0  0  0  0  0  0  0  0  0
    0.3172   -6.5532   45.3771 O   0  0  0  0  0  0  0  0  0  0  0  0
    2.3296   -8.6981   44.6280 C   0  0  2  0  0  0  0  0  0  0  0  0
    1.4924   -8.6129   43.4393 O   0  0  0  0  0  0  0  0  0  0  0  0
   -9.4635   -9.6860   45.5609 C   0  0  2  0  0  0  0  0  0  0  0  0
  -10.0251   -8.4742   44.9213 O   0  0  0  0  0  0  0  0  0  0  0  0
   -0.3865   -5.6702   43.1907 C   0  0  0  0  0  0  0  0  0  0  0  0
    0.7469   -5.9975   42.4245 O   0  0  0  0  0  0  0  0  0  0  0  0
    3.6753   -9.3782   44.2835 C   0  0  1  0  0  0  0  0  0  0  0  0
    4.3525   -8.5783   43.3371 O   0  0  0  0  0  0  0  0  0  0  0  0
  -10.5535  -10.3758   46.3671 C   0  0  0  0  0  0  0  0  0  0  0  0
  -11.0639   -9.5057   47.3481 O   0  0  0  0  0  0  0  0  0  0  0  0
   -4.8043   -8.1207   45.6033 C   0  0  0  0  0  0  0  0  0  0  0  0
  1  2  1  6  0  0  0
  1  7  1  0  0  0  0
  1 24  1  0  0  0  0
  3  4  1  6  0  0  0
  3  9  1  0  0  0  0
  3 31  1  0  0  0  0
  5  6  1  6  0  0  0
  5 10  1  0  0  0  0
  5 28  1  0  0  0  0
  7  8  1  1  0  0  0
  7 12  1  0  0  0  0
  9 14  1  0  0  0  0
 10 11  1  6  0  0  0
 10 16  1  0  0  0  0
 12 13  1  1  0  0  0
 12 18  1  0  0  0  0
 13 35  1  0  0  0  0
 14 15  1  1  0  0  0
 14 20  1  0  0  0  0
 16 17  1  1  0  0  0
 16 21  1  0  0  0  0
 17 35  1  0  0  0  0
 18 19  1  6  0  0  0
 18 23  1  0  0  0  0
 20  2  1  1  0  0  0
 20 25  1  0  0  0  0
 21 22  1  6  0  0  0
 21 27  1  0  0  0  0
 23 24  1  0  0  0  0
 23 29  1  6  0  0  0
 25 26  1  6  0  0  0
 25 31  1  0  0  0  0
 27 28  1  0  0  0  0
 27 33  1  1  0  0  0
 29 30  1  0  0  0  0
 31 32  1  6  0  0  0
 33 34  1  0  0  0  0
M  END
>  <CHROM.1>
-166.83234473,-171.89428493,172.06089808,-85.55165106,177.39898691,69.15309293
-161.95422302,63.44301223,-2.59814470,-8.39374334,45.38685446,-0.02348819
-0.02755001,2.28091436

>  <Name>
2o3v_lig

>  <RI>
0

>  <Rbt.Current_Directory>
/home/afrankz/demos/rdock_decoys_rna/rnas/2o3v

>  <Rbt.Executable>
rbdock ($Id: //depot/dev/client3/rdock/2013.1/src/exe/rbdock.cxx#4 $)

>  <Rbt.Library>
libRbt.so (2013.1, Build901 2013/11/27)

>  <Rbt.Parameter_File>
/export/apps/rDock/src/rDock_2013.1_src/data/scripts/dock_solv.prm

>  <Rbt.Receptor>
prm/pocket_docking_5.prm

>  <SCORE>
-5.79382

>  <SCORE.INTER>
-1.22631

>  <SCORE.INTER.CONST>
1

>  <SCORE.INTER.POLAR>
-0.87178

>  <SCORE.INTER.ROT>
8

>  <SCORE.INTER.SOLV>
7.84433

>  <SCORE.INTER.VDW>
-9.45972

>  <SCORE.INTER.norm>
-0.0350375

>  <SCORE.INTRA>
-4.56751

>  <SCORE.INTRA.DIHEDRAL>
-7.2777

>  <SCORE.INTRA.DIHEDRAL.0>
13.1227

>  <SCORE.INTRA.POLAR>
0

>  <SCORE.INTRA.POLAR.0>
0

>  <SCORE.INTRA.REPUL>
0.0494284

>  <SCORE.INTRA.REPUL.0>
0

>  <SCORE.INTRA.SOLV>
1.7347

>  <SCORE.INTRA.SOLV.lig_0>
-89.1587

>  <SCORE.INTRA.VDW>
-2.04315

>  <SCORE.INTRA.VDW.0>
-0.838383

>  <SCORE.INTRA.norm>
-0.1305

>  <SCORE.RESTR>
0

>  <SCORE.RESTR.CAVITY>
0

>  <SCORE.RESTR.norm>
0

>  <SCORE.SYSTEM>
0

>  <SCORE.SYSTEM.CONST>
0

>  <SCORE.SYSTEM.DIHEDRAL>
0

>  <SCORE.SYSTEM.SOLV>
0

>  <SCORE.SYSTEM.norm>
0

>  <SCORE.heavy>
35

>  <SCORE.norm>
-0.165538

>  <RMSD>
4.604

$$$$
2o3v_lig
 OpenBabel02141814113D
libRbt.so/2013.1/901 2013/11/27
 35 37  0  0  0  0  0  0  0  0999 V2000
    2.9781   -3.8341   45.4020 C   0  0  2  0  0  0  0  0  0  0  0  0
    3.0049   -5.1713   44.8155 O   0  0  0  0  0  0  0  0  0  0  0  0
    5.7903   -7.7150   42.6479 C   0  0  2  0  0  0  0  0  0  0  0  0
    7.0278   -8.4741   42.2946 N   0  0  0  0  0  0  0  0  0  0  0  0
   -4.2216   -8.2362   46.4516 C   0  0  2  0  0  0  0  0  0  0  0  0
   -4.3923   -8.6186   45.0695 O   0  0  0  0  0  0  0  0  0  0  0  0
    1.4941   -3.6790   45.8625 C   0  0  2  0  0  0  0  0  0  0  0  0
    1.1190   -4.7388   46.8281 N   0  0  0  0  0  0  0  0  0  0  0  0
    6.1100   -6.1611   42.7397 C   0  0  0  0  0  0  0  0  0  0  0  0
   -3.4594   -6.8662   46.4705 C   0  0  2  0  0  0  0  0  0  0  0  0
   -4.2007   -5.8336   45.7029 N   0  0  0  0  0  0  0  0  0  0  0  0
    0.4938   -3.7009   44.6262 C   0  0  1  0  0  0  0  0  0  0  0  0
   -0.9146   -3.5967   45.0887 O   0  0  0  0  0  0  0  0  0  0  0  0
    4.7812   -5.3787   43.1278 C   0  0  2  0  0  0  0  0  0  0  0  0
    5.0595   -3.9300   43.2299 N   0  0  0  0  0  0  0  0  0  0  0  0
   -1.9763   -7.0135   45.9105 C   0  0  1  0  0  0  0  0  0  0  0  0
   -1.2360   -5.7664   45.9476 O   0  0  0  0  0  0  0  0  0  0  0  0
    0.9409   -2.5417   43.6312 C   0  0  2  0  0  0  0  0  0  0  0  0
    0.1168   -2.5000   42.4801 O   0  0  0  0  0  0  0  0  0  0  0  0
    4.2194   -5.9195   44.5067 C   0  0  2  0  0  0  0  0  0  0  0  0
   -1.2334   -8.0968   46.7550 C   0  0  2  0  0  0  0  0  0  0  0  0
    0.0911   -8.2788   46.2942 O   0  0  0  0  0  0  0  0  0  0  0  0
    2.4465   -2.7285   43.2047 C   0  0  2  0  0  0  0  0  0  0  0  0
    3.3047   -2.7758   44.4071 O   0  0  0  0  0  0  0  0  0  0  0  0
    3.9155   -7.4408   44.4099 C   0  0  2  0  0  0  0  0  0  0  0  0
    3.4437   -7.8740   45.7179 O   0  0  0  0  0  0  0  0  0  0  0  0
   -2.0361   -9.4581   46.7130 C   0  0  2  0  0  0  0  0  0  0  0  0
   -3.4228   -9.2517   47.1897 O   0  0  0  0  0  0  0  0  0  0  0  0
    2.9124   -1.6067   42.2777 C   0  0  0  0  0  0  0  0  0  0  0  0
    2.9339   -0.3706   42.9488 O   0  0  0  0  0  0  0  0  0  0  0  0
    5.2048   -8.2055   44.0290 C   0  0  1  0  0  0  0  0  0  0  0  0
    4.9006   -9.5817   43.9424 O   0  0  0  0  0  0  0  0  0  0  0  0
   -1.3720  -10.5337   47.5592 C   0  0  0  0  0  0  0  0  0  0  0  0
   -1.3633  -10.1564   48.9147 O   0  0  0  0  0  0  0  0  0  0  0  0
   -1.7199   -4.8625   44.9113 C   0  0  0  0  0  0  0  0  0  0  0  0
  1  2  1  6  0  0  0
  1  7  1  0  0  0  0
  1 24  1  0  0  0  0
  3  4  1  1  0  0  0
  3  9  1  0  0  0  0
  3 31  1  0  0  0  0
  5  6  1  6  0  0  0
  5 10  1  0  0  0  0
  5 28  1  0  0  0  0
  7  8  1  1  0  0  0
  7 12  1  0  0  0  0
  9 14  1  0  0  0  0
 10 11  1  6  0  0  0
 10 16  1  0  0  0  0
 12 13  1  1  0  0  0
 12 18  1  0  0  0  0
 13 35  1  0  0  0  0
 14 15  1  1  0  0  0
 14 20  1  0  0  0  0
 16 17  1  1  0  0  0
 16 21  1  0  0  0  0
 17 35  1  0  0  0  0
 18 19  1  6  0  0  0
 18 23  1  0  0  0  0
 20  2  1  6  0  0  0
 20 25  1  0  0  0  0
 21 22  1  6  0  0  0
 21 27  1  0  0  0  0
 23 24  1  0  0  0  0
 23 29  1  6  0  0  0
 25 26  1  1  0  0  0
 25 31  1  0  0  0  0
 27 28  1  0  0  0  0
 27 33  1  1  0  0  0
 29 30  1  0  0  0  0
 31 32  1  6  0  0  0
 33 34  1  0  0  0  0
M  END
>  <CHROM.1>
-165.48773222,-110.10310145,73.98179774,-73.19420072,177.89291828,-80.45467866
66.09275334,63.38825458,1.13040286,-6.03126249,44.93250540,0.53111734,0.30076200
-0.28519452

>  <Name>
2o3v_lig

>  <RI>
0

>  <Rbt.Current_Directory>
/home/afrankz/demos/rdock_decoys_rna/rnas/2o3v

>  <Rbt.Executable>
rbdock ($Id: //depot/dev/client3/rdock/2013.1/src/exe/rbdock.cxx#4 $)

>  <Rbt.Library>
libRbt.so (2013.1, Build901 2013/11/27)

>  <Rbt.Parameter_File>
/export/apps/rDock/src/rDock_2013.1_src/data/scripts/dock_solv.prm

>  <Rbt.Receptor>
prm/pocket_docking_7.prm

>  <SCORE>
-9.69146

>  <SCORE.INTER>
-11.054

>  <SCORE.INTER.CONST>
1

>  <SCORE.INTER.POLAR>
-0.725743

>  <SCORE.INTER.ROT>
8

>  <SCORE.INTER.SOLV>
15.4602

>  <SCORE.INTER.VDW>
-19.0369

>  <SCORE.INTER.norm>
-0.315829

>  <SCORE.INTRA>
1.36253

>  <SCORE.INTRA.DIHEDRAL>
-1.54585

>  <SCORE.INTRA.DIHEDRAL.0>
13.1227

>  <SCORE.INTRA.POLAR>
0

>  <SCORE.INTRA.POLAR.0>
0

>  <SCORE.INTRA.REPUL>
0.00713315

>  <SCORE.INTRA.REPUL.0>
0

>  <SCORE.INTRA.SOLV>
6.30815

>  <SCORE.INTRA.SOLV.lig_0>
-89.1587

>  <SCORE.INTRA.VDW>
-1.05428

>  <SCORE.INTRA.VDW.0>
-0.838383

>  <SCORE.INTRA.norm>
0.0389296

>  <SCORE.RESTR>
0

>  <SCORE.RESTR.CAVITY>
0

>  <SCORE.RESTR.norm>
0

>  <SCORE.SYSTEM>
0

>  <SCORE.SYSTEM.CONST>
0

>  <SCORE.SYSTEM.DIHEDRAL>
0

>  <SCORE.SYSTEM.SOLV>
0

>  <SCORE.SYSTEM.norm>
0

>  <SCORE.heavy>
35

>  <SCORE.norm>
-0.276899

>  <RMSD>
4.618

$$$$
2o3v_lig
 OpenBabel02141814113D
libRbt.so/2013.1/901 2013/11/27
 35 37  0  0  0  0  0  0  0  0999 V2000
    4.0147   -4.0061   44.9914 C   0  0  2  0  0  0  0  0  0  0  0  0
    3.8504   -5.3793   44.5222 O   0  0  0  0  0  0  0  0  0  0  0  0
    6.5778   -7.7549   42.1046 C   0  0  2  0  0  0  0  0  0  0  0  0
    7.7066   -8.6560   41.7224 N   0  0  0  0  0  0  0  0  0  0  0  0
   -5.9700   -4.5564   45.6278 C   0  0  2  0  0  0  0  0  0  0  0  0
   -6.0567   -4.8337   44.2132 O   0  0  0  0  0  0  0  0  0  0  0  0
    2.6941   -3.7412   45.7813 C   0  0  2  0  0  0  0  0  0  0  0  0
    2.5281   -4.7119   46.8887 N   0  0  0  0  0  0  0  0  0  0  0  0
    7.1396   -6.4370   42.7924 C   0  0  0  0  0  0  0  0  0  0  0  0
   -4.7096   -3.6516   45.8540 C   0  0  2  0  0  0  0  0  0  0  0  0
   -4.7995   -2.4035   45.0546 N   0  0  0  0  0  0  0  0  0  0  0  0
    1.4226   -3.7928   44.8272 C   0  0  1  0  0  0  0  0  0  0  0  0
    0.1739   -3.5826   45.6049 O   0  0  0  0  0  0  0  0  0  0  0  0
    5.9195   -5.5020   43.1992 C   0  0  2  0  0  0  0  0  0  0  0  0
    6.4203   -4.2736   43.8523 N   0  0  0  0  0  0  0  0  0  0  0  0
   -3.3622   -4.4295   45.5159 C   0  0  1  0  0  0  0  0  0  0  0  0
   -2.1769   -3.6259   45.7484 O   0  0  0  0  0  0  0  0  0  0  0  0
    1.6548   -2.7289   43.6663 C   0  0  2  0  0  0  0  0  0  0  0  0
    0.5772   -2.7209   42.7473 O   0  0  0  0  0  0  0  0  0  0  0  0
    4.9484   -6.2783   44.1809 C   0  0  2  0  0  0  0  0  0  0  0  0
   -3.3053   -5.7236   46.3880 C   0  0  2  0  0  0  0  0  0  0  0  0
   -2.1301   -6.4635   46.1215 O   0  0  0  0  0  0  0  0  0  0  0  0
    3.0036   -3.0243   42.9065 C   0  0  2  0  0  0  0  0  0  0  0  0
    4.1265   -3.0362   43.8674 O   0  0  0  0  0  0  0  0  0  0  0  0
    4.4086   -7.5686   43.5027 C   0  0  2  0  0  0  0  0  0  0  0  0
    3.5600   -8.2471   44.4726 O   0  0  0  0  0  0  0  0  0  0  0  0
   -4.5940   -6.6031   46.1334 C   0  0  2  0  0  0  0  0  0  0  0  0
   -5.8168   -5.8142   46.4079 O   0  0  0  0  0  0  0  0  0  0  0  0
    3.2692   -1.9940   41.8098 C   0  0  0  0  0  0  0  0  0  0  0  0
    4.4404   -2.3048   41.0952 O   0  0  0  0  0  0  0  0  0  0  0  0
    5.5926   -8.4796   43.1021 C   0  0  1  0  0  0  0  0  0  0  0  0
    5.0763   -9.6398   42.4844 O   0  0  0  0  0  0  0  0  0  0  0  0
   -4.6042   -7.8562   46.9958 C   0  0  0  0  0  0  0  0  0  0  0  0
   -3.5163   -8.6864   46.6683 O   0  0  0  0  0  0  0  0  0  0  0  0
   -1.0711   -4.1117   44.9322 C   0  0  0  0  0  0  0  0  0  0  0  0
  1  2  1  6  0  0  0
  1  7  1  0  0  0  0
  1 24  1  0  0  0  0
  3  4  1  1  0  0  0
  3  9  1  0  0  0  0
  3 31  1  0  0  0  0
  5  6  1  6  0  0  0
  5 10  1  0  0  0  0
  5 28  1  0  0  0  0
  7  8  1  1  0  0  0
  7 12  1  0  0  0  0
  9 14  1  0  0  0  0
 10 11  1  6  0  0  0
 10 16  1  0  0  0  0
 12 13  1  1  0  0  0
 12 18  1  0  0  0  0
 13 35  1  0  0  0  0
 14 15  1  1  0  0  0
 14 20  1  0  0  0  0
 16 17  1  1  0  0  0
 16 21  1  0  0  0  0
 17 35  1  0  0  0  0
 18 19  1  6  0  0  0
 18 23  1  0  0  0  0
 20  2  1  6  0  0  0
 20 25  1  0  0  0  0
 21 22  1  6  0  0  0
 21 27  1  0  0  0  0
 23 24  1  0  0  0  0
 23 29  1  6  0  0  0
 25 26  1  1  0  0  0
 25 31  1  0  0  0  0
 27 28  1  0  0  0  0
 27 33  1  1  0  0  0
 29 30  1  0  0  0  0
 31 32  1  6  0  0  0
 33 34  1  0  0  0  0
M  END
>  <CHROM.1>
-155.74825881,-158.23034749,-171.54260121,-155.91821168,-159.52359042,-49.92807594
-177.07551908,-63.02414459,1.00991662,-5.22538395,44.45103666,-0.03814722
0.28600419,-0.17151243

>  <Name>
2o3v_lig

>  <RI>
0

>  <Rbt.Current_Directory>
/home/afrankz/demos/rdock_decoys_rna/rnas/2o3v

>  <Rbt.Executable>
rbdock ($Id: //depot/dev/client3/rdock/2013.1/src/exe/rbdock.cxx#4 $)

>  <Rbt.Library>
libRbt.so (2013.1, Build901 2013/11/27)

>  <Rbt.Parameter_File>
/export/apps/rDock/src/rDock_2013.1_src/data/scripts/dock_solv.prm

>  <Rbt.Receptor>
prm/pocket_docking_8.prm

>  <SCORE>
-15.8256

>  <SCORE.INTER>
-14.746

>  <SCORE.INTER.CONST>
1

>  <SCORE.INTER.POLAR>
-1.01312

>  <SCORE.INTER.ROT>
8

>  <SCORE.INTER.SOLV>
22.7063

>  <SCORE.INTER.VDW>
-22.9557

>  <SCORE.INTER.norm>
-0.421313

>  <SCORE.INTRA>
-1.18071

>  <SCORE.INTRA.DIHEDRAL>
-3.17959

>  <SCORE.INTRA.DIHEDRAL.0>
13.1227

>  <SCORE.INTRA.POLAR>
0

>  <SCORE.INTRA.POLAR.0>
0

>  <SCORE.INTRA.REPUL>
0

>  <SCORE.INTRA.REPUL.0>
0

>  <SCORE.INTRA.SOLV>
1.5274

>  <SCORE.INTRA.SOLV.lig_0>
-89.1587

>  <SCORE.INTRA.VDW>
-0.354617

>  <SCORE.INTRA.VDW.0>
-0.838383

>  <SCORE.INTRA.norm>
-0.0337346

>  <SCORE.RESTR>
0.101027

>  <SCORE.RESTR.CAVITY>
0.101027

>  <SCORE.RESTR.norm>
0.00288649

>  <SCORE.SYSTEM>
0

>  <SCORE.SYSTEM.CONST>
0

>  <SCORE.SYSTEM.DIHEDRAL>
0

>  <SCORE.SYSTEM.SOLV>
0

>  <SCORE.SYSTEM.norm>
0

>  <SCORE.heavy>
35

>  <SCORE.norm>
-0.452161

>  <RMSD>
4.630

$$$$
2o3v_lig
 OpenBabel02141814113D
libRbt.so/2013.1/901 2013/11/27
 35 37  0  0  0  0  0  0  0  0999 V2000
    0.8064   -8.1014   43.7080 C   0  0  2  0  0  0  0  0  0  0  0  0
    0.6789   -6.9605   44.6107 O   0  0  0  0  0  0  0  0  0  0  0  0
    3.2588   -3.9132   42.8828 C   0  0  2  0  0  0  0  0  0  0  0  0
    3.9388   -2.6027   42.6539 N   0  0  0  0  0  0  0  0  0  0  0  0
   -5.6420  -11.5022   45.5217 C   0  0  2  0  0  0  0  0  0  0  0  0
   -5.4643  -10.0768   45.6700 O   0  0  0  0  0  0  0  0  0  0  0  0
   -0.1782   -9.1482   44.3188 C   0  0  2  0  0  0  0  0  0  0  0  0
   -1.5590   -8.6135   44.3794 N   0  0  0  0  0  0  0  0  0  0  0  0
    1.6874   -3.7510   42.7102 C   0  0  0  0  0  0  0  0  0  0  0  0
   -4.4346  -12.2040   46.2346 C   0  0  2  0  0  0  0  0  0  0  0  0
   -4.3553  -11.8064   47.6631 N   0  0  0  0  0  0  0  0  0  0  0  0
    0.2838   -9.6070   45.7699 C   0  0  1  0  0  0  0  0  0  0  0  0
   -0.6889  -10.5685   46.3509 O   0  0  0  0  0  0  0  0  0  0  0  0
    0.9879   -5.1551   42.9701 C   0  0  2  0  0  0  0  0  0  0  0  0
   -0.4778   -5.0236   42.8256 N   0  0  0  0  0  0  0  0  0  0  0  0
   -3.0584  -11.8939   45.4967 C   0  0  1  0  0  0  0  0  0  0  0  0
   -1.9273  -12.5585   46.1162 O   0  0  0  0  0  0  0  0  0  0  0  0
    1.7649  -10.1758   45.6405 C   0  0  2  0  0  0  0  0  0  0  0  0
    2.2731  -10.5891   46.8961 O   0  0  0  0  0  0  0  0  0  0  0  0
    1.3430   -5.6743   44.4239 C   0  0  2  0  0  0  0  0  0  0  0  0
   -3.1844  -12.3404   44.0055 C   0  0  2  0  0  0  0  0  0  0  0  0
   -1.9901  -12.0784   43.2951 O   0  0  0  0  0  0  0  0  0  0  0  0
    2.7198   -9.0940   45.0067 C   0  0  2  0  0  0  0  0  0  0  0  0
    2.1861   -8.6609   43.6983 O   0  0  0  0  0  0  0  0  0  0  0  0
    2.8817   -5.8241   44.5861 C   0  0  2  0  0  0  0  0  0  0  0  0
    3.1342   -6.2638   45.9514 O   0  0  0  0  0  0  0  0  0  0  0  0
   -4.4139  -11.6145   43.3269 C   0  0  2  0  0  0  0  0  0  0  0  0
   -5.6556  -11.8900   44.0852 O   0  0  0  0  0  0  0  0  0  0  0  0
    4.1413   -9.6282   44.8369 C   0  0  0  0  0  0  0  0  0  0  0  0
    4.9604   -8.6903   44.1825 O   0  0  0  0  0  0  0  0  0  0  0  0
    3.5666   -4.4611   44.3306 C   0  0  1  0  0  0  0  0  0  0  0  0
    4.9613   -4.6257   44.4784 O   0  0  0  0  0  0  0  0  0  0  0  0
   -4.6034  -12.0521   41.8824 C   0  0  0  0  0  0  0  0  0  0  0  0
   -5.6421  -11.3190   41.2795 O   0  0  0  0  0  0  0  0  0  0  0  0
   -0.6813  -11.9295   45.6954 C   0  0  0  0  0  0  0  0  0  0  0  0
  1  2  1  1  0  0  0
  1  7  1  0  0  0  0
  1 24  1  0  0  0  0
  3  4  1  1  0  0  0
  3  9  1  0  0  0  0
  3 31  1  0  0  0  0
  5  6  1  6  0  0  0
  5 10  1  0  0  0  0
  5 28  1  0  0  0  0
  7  8  1  1  0  0  0
  7 12  1  0  0  0  0
  9 14  1  0  0  0  0
 10 11  1  1  0  0  0
 10 16  1  0  0  0  0
 12 13  1  6  0  0  0
 12 18  1  0  0  0  0
 13 35  1  0  0  0  0
 14 15  1  1  0  0  0
 14 20  1  0  0  0  0
 16 17  1  1  0  0  0
 16 21  1  0  0  0  0
 17 35  1  0  0  0  0
 18 19  1  1  0  0  0
 18 23  1  0  0  0  0
 20  2  1  6  0  0  0
 20 25  1  0  0  0  0
 21 22  1  6  0  0  0
 21 27  1  0  0  0  0
 23 24  1  0  0  0  0
 23 29  1  6  0  0  0
 25 26  1  1  0  0  0
 25 31  1  0  0  0  0
 27 28  1  0  0  0  0
 27 33  1  6  0  0  0
 29 30  1  0  0  0  0
 31 32  1  6  0  0  0
 33 34  1  0  0  0  0
M  END
>  <CHROM.1>
-175.96779084,70.89236127,-163.63662822,-161.99758887,69.27009308,53.56450431
175.71267768,-175.76072083,-0.24120538,-8.90451701,44.50843463,0.63843383
-0.32790828,-0.51011210

>  <Name>
2o3v_lig

>  <RI>
0

>  <Rbt.Current_Directory>
/home/afrankz/demos/rdock_decoys_rna/rnas/2o3v

>  <Rbt.Executable>
rbdock ($Id: //depot/dev/client3/rdock/2013.1/src/exe/rbdock.cxx#4 $)

>  <Rbt.Library>
libRbt.so (2013.1, Build901 2013/11/27)

>  <Rbt.Parameter_File>
/export/apps/rDock/src/rDock_2013.1_src/data/scripts/dock_solv.prm

>  <Rbt.Receptor>
prm/pocket_docking_7.prm

>  <SCORE>
-10.5153

>  <SCORE.INTER>
-5.66926

>  <SCORE.INTER.CONST>
1

>  <SCORE.INTER.POLAR>
-0.955614

>  <SCORE.INTER.ROT>
8

>  <SCORE.INTER.SOLV>
10.3213

>  <SCORE.INTER.VDW>
-12.9679

>  <SCORE.INTER.norm>
-0.161979

>  <SCORE.INTRA>
-4.84601

>  <SCORE.INTRA.DIHEDRAL>
-8.94853

>  <SCORE.INTRA.DIHEDRAL.0>
13.1227

>  <SCORE.INTRA.POLAR>
0

>  <SCORE.INTRA.POLAR.0>
0

>  <SCORE.INTRA.REPUL>
0

>  <SCORE.INTRA.REPUL.0>
0

>  <SCORE.INTRA.SOLV>
2.21646

>  <SCORE.INTRA.SOLV.lig_0>
-89.1587

>  <SCORE.INTRA.VDW>
-1.47998

>  <SCORE.INTRA.VDW.0>
-0.838383

>  <SCORE.INTRA.norm>
-0.138457

>  <SCORE.RESTR>
0

>  <SCORE.RESTR.CAVITY>
0

>  <SCORE.RESTR.norm>
0

>  <SCORE.SYSTEM>
0

>  <SCORE.SYSTEM.CONST>
0

>  <SCORE.SYSTEM.DIHEDRAL>
0

>  <SCORE.SYSTEM.SOLV>
0

>  <SCORE.SYSTEM.norm>
0

>  <SCORE.heavy>
35

>  <SCORE.norm>
-0.300436

>  <RMSD>
4.633

$$$$
2o3v_lig
 OpenBabel02141814113D
libRbt.so/2013.1/901 2013/11/27
 35 37  0  0  0  0  0  0  0  0999 V2000
   -0.3760   -6.3061   43.2960 C   0  0  2  0  0  0  0  0  0  0  0  0
   -0.2633   -5.2815   44.3305 O   0  0  0  0  0  0  0  0  0  0  0  0
    3.2616   -2.9861   43.2196 C   0  0  2  0  0  0  0  0  0  0  0  0
    4.2985   -1.9107   43.2019 N   0  0  0  0  0  0  0  0  0  0  0  0
   -6.5027  -10.3060   43.8668 C   0  0  2  0  0  0  0  0  0  0  0  0
   -5.4216  -10.5873   42.9516 O   0  0  0  0  0  0  0  0  0  0  0  0
   -1.5366   -7.2108   43.8184 C   0  0  2  0  0  0  0  0  0  0  0  0
   -2.7849   -6.4320   43.9956 N   0  0  0  0  0  0  0  0  0  0  0  0
    1.8331   -2.3733   42.8890 C   0  0  0  0  0  0  0  0  0  0  0  0
   -5.9801   -9.2521   44.9033 C   0  0  2  0  0  0  0  0  0  0  0  0
   -5.5059   -8.0223   44.2195 N   0  0  0  0  0  0  0  0  0  0  0  0
   -1.1504   -7.9243   45.1864 C   0  0  1  0  0  0  0  0  0  0  0  0
   -2.2832   -8.7444   45.6887 O   0  0  0  0  0  0  0  0  0  0  0  0
    0.7477   -3.5347   42.9257 C   0  0  2  0  0  0  0  0  0  0  0  0
   -0.5924   -2.9832   42.6317 N   0  0  0  0  0  0  0  0  0  0  0  0
   -4.8267   -9.8550   45.8204 C   0  0  1  0  0  0  0  0  0  0  0  0
   -4.3470   -8.9108   46.8120 O   0  0  0  0  0  0  0  0  0  0  0  0
    0.1884   -8.7471   44.9329 C   0  0  2  0  0  0  0  0  0  0  0  0
    0.6258   -9.4012   46.1105 O   0  0  0  0  0  0  0  0  0  0  0  0
    0.7462   -4.2276   44.3502 C   0  0  2  0  0  0  0  0  0  0  0  0
   -5.3746  -11.1348   46.5279 C   0  0  2  0  0  0  0  0  0  0  0  0
   -4.3860  -11.7217   47.3512 O   0  0  0  0  0  0  0  0  0  0  0  0
    1.3264   -7.7999   44.3931 C   0  0  2  0  0  0  0  0  0  0  0  0
    0.8671   -7.1152   43.1664 O   0  0  0  0  0  0  0  0  0  0  0  0
    2.1483   -4.8185   44.6680 C   0  0  2  0  0  0  0  0  0  0  0  0
    2.0829   -5.4003   46.0015 O   0  0  0  0  0  0  0  0  0  0  0  0
   -5.8943  -12.1671   45.4493 C   0  0  2  0  0  0  0  0  0  0  0  0
   -6.9222  -11.5375   44.5891 O   0  0  0  0  0  0  0  0  0  0  0  0
    2.6130   -8.5727   44.1059 C   0  0  0  0  0  0  0  0  0  0  0  0
    3.1698   -9.0880   45.2905 O   0  0  0  0  0  0  0  0  0  0  0  0
    3.2080   -3.6926   44.6299 C   0  0  1  0  0  0  0  0  0  0  0  0
    4.4710   -4.2558   44.9158 O   0  0  0  0  0  0  0  0  0  0  0  0
   -6.4789  -13.4145   46.0945 C   0  0  0  0  0  0  0  0  0  0  0  0
   -5.4892  -14.1006   46.8224 O   0  0  0  0  0  0  0  0  0  0  0  0
   -3.4571   -7.9372   46.1913 C   0  0  0  0  0  0  0  0  0  0  0  0
  1  2  1  1  0  0  0
  1  7  1  0  0  0  0
  1 24  1  0  0  0  0
  3  4  1  1  0  0  0
  3  9  1  0  0  0  0
  3 31  1  0  0  0  0
  5  6  1  6  0  0  0
  5 10  1  0  0  0  0
  5 28  1  0  0  0  0
  7  8  1  1  0  0  0
  7 12  1  0  0  0  0
  9 14  1  0  0  0  0
 10 11  1  6  0  0  0
 10 16  1  0  0  0  0
 12 13  1  6  0  0  0
 12 18  1  0  0  0  0
 13 35  1  0  0  0  0
 14 15  1  1  0  0  0
 14 20  1  0  0  0  0
 16 17  1  1  0  0  0
 16 21  1  0  0  0  0
 17 35  1  0  0  0  0
 18 19  1  1  0  0  0
 18 23  1  0  0  0  0
 20  2  1  6  0  0  0
 20 25  1  0  0  0  0
 21 22  1  6  0  0  0
 21 27  1  0  0  0  0
 23 24  1  0  0  0  0
 23 29  1  6  0  0  0
 25 26  1  1  0  0  0
 25 31  1  0  0  0  0
 27 28  1  0  0  0  0
 27 33  1  1  0  0  0
 29 30  1  0  0  0  0
 31 32  1  6  0  0  0
 33 34  1  0  0  0  0
M  END
>  <CHROM.1>
176.14424902,-70.33831505,-171.67146653,-77.34546326,-63.27017339,49.98795888
-65.79847980,-62.93141945,-1.37786456,-7.71686624,44.75921580,0.71777605
-0.17746429,-0.42719585

>  <Name>
2o3v_lig

>  <RI>
0

>  <Rbt.Current_Directory>
/home/afrankz/demos/rdock_decoys_rna/rnas/2o3v

>  <Rbt.Executable>
rbdock ($Id: //depot/dev/client3/rdock/2013.1/src/exe/rbdock.cxx#4 $)

>  <Rbt.Library>
libRbt.so (2013.1, Build901 2013/11/27)

>  <Rbt.Parameter_File>
/export/apps/rDock/src/rDock_2013.1_src/data/scripts/dock_solv.prm

>  <Rbt.Receptor>
prm/pocket_docking_5.prm

>  <SCORE>
-6.09858

>  <SCORE.INTER>
-2.44103

>  <SCORE.INTER.CONST>
1

>  <SCORE.INTER.POLAR>
-1.40766

>  <SCORE.INTER.ROT>
8

>  <SCORE.INTER.SOLV>
10.8971

>  <SCORE.INTER.VDW>
-9.50083

>  <SCORE.INTER.norm>
-0.0697436

>  <SCORE.INTRA>
-3.66161

>  <SCORE.INTRA.DIHEDRAL>
-10.0828

>  <SCORE.INTRA.DIHEDRAL.0>
13.1227

>  <SCORE.INTRA.POLAR>
0

>  <SCORE.INTRA.POLAR.0>
0

>  <SCORE.INTRA.REPUL>
0

>  <SCORE.INTRA.REPUL.0>
0

>  <SCORE.INTRA.SOLV>
4.24695

>  <SCORE.INTRA.SOLV.lig_0>
-89.1587

>  <SCORE.INTRA.VDW>
-0.743705

>  <SCORE.INTRA.VDW.0>
-0.838383

>  <SCORE.INTRA.norm>
-0.104617

>  <SCORE.RESTR>
0.00405467

>  <SCORE.RESTR.CAVITY>
0.00405467

>  <SCORE.RESTR.norm>
0.000115848

>  <SCORE.SYSTEM>
0

>  <SCORE.SYSTEM.CONST>
0

>  <SCORE.SYSTEM.DIHEDRAL>
0

>  <SCORE.SYSTEM.SOLV>
0

>  <SCORE.SYSTEM.norm>
0

>  <SCORE.heavy>
35

>  <SCORE.norm>
-0.174245

>  <RMSD>
4.640

$$$$
2o3v_lig
 OpenBabel02141814113D
libRbt.so/2013.1/901 2013/11/27
 35 37  0  0  0  0  0  0  0  0999 V2000
    4.2403   -4.1692   45.1802 C   0  0  2  0  0  0  0  0  0  0  0  0
    4.2099   -5.5699   44.7681 O   0  0  0  0  0  0  0  0  0  0  0  0
    7.4551   -7.9761   43.1537 C   0  0  2  0  0  0  0  0  0  0  0  0
    8.3844   -8.6210   42.1777 N   0  0  0  0  0  0  0  0  0  0  0  0
   -4.4864   -7.2658   44.8971 C   0  0  2  0  0  0  0  0  0  0  0  0
   -4.3981   -7.0457   43.4725 O   0  0  0  0  0  0  0  0  0  0  0  0
    2.9212   -4.0126   46.0011 C   0  0  2  0  0  0  0  0  0  0  0  0
    2.8899   -4.9498   47.1487 N   0  0  0  0  0  0  0  0  0  0  0  0
    5.9630   -8.4520   42.8840 C   0  0  0  0  0  0  0  0  0  0  0  0
   -3.3790   -6.3895   45.5785 C   0  0  2  0  0  0  0  0  0  0  0  0
   -3.5473   -4.9552   45.2332 N   0  0  0  0  0  0  0  0  0  0  0  0
    1.6366   -4.2362   45.0904 C   0  0  1  0  0  0  0  0  0  0  0  0
    0.3945   -4.1270   45.8988 O   0  0  0  0  0  0  0  0  0  0  0  0
    4.9944   -7.7433   43.9270 C   0  0  2  0  0  0  0  0  0  0  0  0
    3.5975   -8.1641   43.6857 N   0  0  0  0  0  0  0  0  0  0  0  0
   -1.9174   -6.8850   45.1874 C   0  0  1  0  0  0  0  0  0  0  0  0
   -0.8719   -6.1120   45.8311 O   0  0  0  0  0  0  0  0  0  0  0  0
    1.7224   -3.2017   43.8837 C   0  0  2  0  0  0  0  0  0  0  0  0
    0.6251   -3.3442   42.9996 O   0  0  0  0  0  0  0  0  0  0  0  0
    5.1154   -6.1695   43.7931 C   0  0  2  0  0  0  0  0  0  0  0  0
   -1.7828   -8.3902   45.5809 C   0  0  2  0  0  0  0  0  0  0  0  0
   -0.5030   -8.8896   45.2459 O   0  0  0  0  0  0  0  0  0  0  0  0
    3.0735   -3.3843   43.0931 C   0  0  2  0  0  0  0  0  0  0  0  0
    4.2174   -3.2392   44.0177 O   0  0  0  0  0  0  0  0  0  0  0  0
    6.5786   -5.7134   44.0522 C   0  0  2  0  0  0  0  0  0  0  0  0
    6.6218   -4.2687   43.8735 O   0  0  0  0  0  0  0  0  0  0  0  0
   -2.9187   -9.2355   44.8776 C   0  0  2  0  0  0  0  0  0  0  0  0
   -4.2525   -8.6971   45.2298 O   0  0  0  0  0  0  0  0  0  0  0  0
    3.1978   -2.3771   41.9508 C   0  0  0  0  0  0  0  0  0  0  0  0
    3.1913   -1.0568   42.4362 O   0  0  0  0  0  0  0  0  0  0  0  0
    7.5249   -6.4033   43.0419 C   0  0  1  0  0  0  0  0  0  0  0  0
    8.8458   -5.9771   43.3020 O   0  0  0  0  0  0  0  0  0  0  0  0
   -2.8546  -10.7047   45.2665 C   0  0  0  0  0  0  0  0  0  0  0  0
   -3.7701  -11.4546   44.5052 O   0  0  0  0  0  0  0  0  0  0  0  0
   -0.8161   -4.7702   45.2640 C   0  0  0  0  0  0  0  0  0  0  0  0
  1  2  1  6  0  0  0
  1  7  1  0  0  0  0
  1 24  1  0  0  0  0
  3  4  1  6  0  0  0
  3  9  1  0  0  0  0
  3 31  1  0  0  0  0
  5  6  1  6  0  0  0
  5 10  1  0  0  0  0
  5 28  1  0  0  0  0
  7  8  1  1  0  0  0
  7 12  1  0  0  0  0
  9 14  1  0  0  0  0
 10 11  1  6  0  0  0
 10 16  1  0  0  0  0
 12 13  1  1  0  0  0
 12 18  1  0  0  0  0
 13 35  1  0  0  0  0
 14 15  1  6  0  0  0
 14 20  1  0  0  0  0
 16 17  1  1  0  0  0
 16 21  1  0  0  0  0
 17 35  1  0  0  0  0
 18 19  1  6  0  0  0
 18 23  1  0  0  0  0
 20  2  1  1  0  0  0
 20 25  1  0  0  0  0
 21 22  1  6  0  0  0
 21 27  1  0  0  0  0
 23 24  1  0  0  0  0
 23 29  1  6  0  0  0
 25 26  1  6  0  0  0
 25 31  1  0  0  0  0
 27 28  1  0  0  0  0
 27 33  1  1  0  0  0
 29 30  1  0  0  0  0
 31 32  1  1  0  0  0
 33 34  1  0  0  0  0
M  END
>  <CHROM.1>
169.56747471,-160.20747685,94.54128140,-70.46424222,-173.88237700,165.29971695
61.14690141,-172.93342633,1.73259535,-6.09974063,44.35113955,0.24920660,0.16292775
-0.00534889

>  <Name>
2o3v_lig

>  <RI>
0

>  <Rbt.Current_Directory>
/home/afrankz/demos/rdock_decoys_rna/rnas/2o3v

>  <Rbt.Executable>
rbdock ($Id: //depot/dev/client3/rdock/2013.1/src/exe/rbdock.cxx#4 $)

>  <Rbt.Library>
libRbt.so (2013.1, Build901 2013/11/27)

>  <Rbt.Parameter_File>
/export/apps/rDock/src/rDock_2013.1_src/data/scripts/dock_solv.prm

>  <Rbt.Receptor>
prm/pocket_docking_4.prm

>  <SCORE>
-11.7512

>  <SCORE.INTER>
-9.90126

>  <SCORE.INTER.CONST>
1

>  <SCORE.INTER.POLAR>
-0.782351

>  <SCORE.INTER.ROT>
8

>  <SCORE.INTER.SOLV>
19.5622

>  <SCORE.INTER.VDW>
-19.4471

>  <SCORE.INTER.norm>
-0.282893

>  <SCORE.INTRA>
-2.52865

>  <SCORE.INTRA.DIHEDRAL>
-4.42584

>  <SCORE.INTRA.DIHEDRAL.0>
13.1227

>  <SCORE.INTRA.POLAR>
0

>  <SCORE.INTRA.POLAR.0>
0

>  <SCORE.INTRA.REPUL>
0.00345019

>  <SCORE.INTRA.REPUL.0>
0

>  <SCORE.INTRA.SOLV>
-0.366727

>  <SCORE.INTRA.SOLV.lig_0>
-89.1587

>  <SCORE.INTRA.VDW>
-0.149611

>  <SCORE.INTRA.VDW.0>
-0.838383

>  <SCORE.INTRA.norm>
-0.072247

>  <SCORE.RESTR>
0.678696

>  <SCORE.RESTR.CAVITY>
0.678696

>  <SCORE.RESTR.norm>
0.0193913

>  <SCORE.SYSTEM>
0

>  <SCORE.SYSTEM.CONST>
0

>  <SCORE.SYSTEM.DIHEDRAL>
0

>  <SCORE.SYSTEM.SOLV>
0

>  <SCORE.SYSTEM.norm>
0

>  <SCORE.heavy>
35

>  <SCORE.norm>
-0.335749

>  <RMSD>
4.717

$$$$
2o3v_lig
 OpenBabel02141814113D
libRbt.so/2013.1/901 2013/11/27
 35 37  0  0  0  0  0  0  0  0999 V2000
    2.2961   -4.0364   44.1690 C   0  0  2  0  0  0  0  0  0  0  0  0
    2.8265   -5.3724   44.4274 O   0  0  0  0  0  0  0  0  0  0  0  0
    6.3744   -7.6207   43.2938 C   0  0  2  0  0  0  0  0  0  0  0  0
    7.3802   -8.3456   42.4600 N   0  0  0  0  0  0  0  0  0  0  0  0
   -4.2759   -9.5287   47.4919 C   0  0  2  0  0  0  0  0  0  0  0  0
   -4.3238   -9.9494   46.1112 O   0  0  0  0  0  0  0  0  0  0  0  0
    1.1698   -3.8891   45.2404 C   0  0  2  0  0  0  0  0  0  0  0  0
    1.7118   -4.0380   46.6117 N   0  0  0  0  0  0  0  0  0  0  0  0
    4.9651   -8.3501   43.2070 C   0  0  0  0  0  0  0  0  0  0  0  0
   -3.6073   -8.1110   47.5293 C   0  0  2  0  0  0  0  0  0  0  0  0
   -4.3581   -7.1456   46.6872 N   0  0  0  0  0  0  0  0  0  0  0  0
    0.0013   -4.9426   45.0079 C   0  0  1  0  0  0  0  0  0  0  0  0
   -1.0377   -4.8155   46.0628 O   0  0  0  0  0  0  0  0  0  0  0  0
    3.9116   -7.5533   44.0923 C   0  0  2  0  0  0  0  0  0  0  0  0
    2.5888   -8.2097   44.0161 N   0  0  0  0  0  0  0  0  0  0  0  0
   -2.0820   -8.1709   47.0766 C   0  0  1  0  0  0  0  0  0  0  0  0
   -1.4286   -6.8769   47.1337 O   0  0  0  0  0  0  0  0  0  0  0  0
   -0.5434   -4.7308   43.5273 C   0  0  2  0  0  0  0  0  0  0  0  0
   -1.5775   -5.6481   43.2191 O   0  0  0  0  0  0  0  0  0  0  0  0
    3.8022   -6.0567   43.5849 C   0  0  2  0  0  0  0  0  0  0  0  0
   -1.3317   -9.1852   47.9968 C   0  0  2  0  0  0  0  0  0  0  0  0
    0.0309   -9.2881   47.6330 O   0  0  0  0  0  0  0  0  0  0  0  0
    0.6270   -4.8729   42.4815 C   0  0  2  0  0  0  0  0  0  0  0  0
    1.7070   -3.9178   42.8068 O   0  0  0  0  0  0  0  0  0  0  0  0
    5.1858   -5.3530   43.6673 C   0  0  2  0  0  0  0  0  0  0  0  0
    5.0178   -4.0019   43.1501 O   0  0  0  0  0  0  0  0  0  0  0  0
   -2.0396  -10.5973   47.9333 C   0  0  2  0  0  0  0  0  0  0  0  0
   -3.4668  -10.4739   48.3082 O   0  0  0  0  0  0  0  0  0  0  0  0
    0.1375   -4.6370   41.0534 C   0  0  0  0  0  0  0  0  0  0  0  0
   -0.4204   -3.3531   40.9144 O   0  0  0  0  0  0  0  0  0  0  0  0
    6.2147   -6.1269   42.8102 C   0  0  1  0  0  0  0  0  0  0  0  0
    7.4617   -5.4714   42.9066 O   0  0  0  0  0  0  0  0  0  0  0  0
   -1.3683  -11.6092   48.8496 C   0  0  0  0  0  0  0  0  0  0  0  0
   -0.0601  -11.8798   48.4077 O   0  0  0  0  0  0  0  0  0  0  0  0
   -1.9955   -5.9818   46.1324 C   0  0  0  0  0  0  0  0  0  0  0  0
  1  2  1  6  0  0  0
  1  7  1  0  0  0  0
  1 24  1  0  0  0  0
  3  4  1  6  0  0  0
  3  9  1  0  0  0  0
  3 31  1  0  0  0  0
  5  6  1  6  0  0  0
  5 10  1  0  0  0  0
  5 28  1  0  0  0  0
  7  8  1  1  0  0  0
  7 12  1  0  0  0  0
  9 14  1  0  0  0  0
 10 11  1  6  0  0  0
 10 16  1  0  0  0  0
 12 13  1  1  0  0  0
 12 18  1  0  0  0  0
 13 35  1  0  0  0  0
 14 15  1  6  0  0  0
 14 20  1  0  0  0  0
 16 17  1  1  0  0  0
 16 21  1  0  0  0  0
 17 35  1  0  0  0  0
 18 19  1  6  0  0  0
 18 23  1  0  0  0  0
 20  2  1  1  0  0  0
 20 25  1  0  0  0  0
 21 22  1  6  0  0  0
 21 27  1  0  0  0  0
 23 24  1  0  0  0  0
 23 29  1  6  0  0  0
 25 26  1  6  0  0  0
 25 31  1  0  0  0  0
 27 28  1  0  0  0  0
 27 33  1  1  0  0  0
 29 30  1  0  0  0  0
 31 32  1  1  0  0  0
 33 34  1  0  0  0  0
M  END
>  <CHROM.1>
172.31625467,-165.36605127,93.70500348,-67.30032863,-166.90216056,-170.71635237
59.20457978,-65.41487112,0.81507241,-6.86039615,45.03056954,0.63357499,0.24139496
-0.57179174

>  <Name>
2o3v_lig

>  <RI>
0

>  <Rbt.Current_Directory>
/home/afrankz/demos/rdock_decoys_rna/rnas/2o3v

>  <Rbt.Executable>
rbdock ($Id: //depot/dev/client3/rdock/2013.1/src/exe/rbdock.cxx#4 $)

>  <Rbt.Library>
libRbt.so (2013.1, Build901 2013/11/27)

>  <Rbt.Parameter_File>
/export/apps/rDock/src/rDock_2013.1_src/data/scripts/dock_solv.prm

>  <Rbt.Receptor>
prm/pocket_docking_6.prm

>  <SCORE>
-11.4211

>  <SCORE.INTER>
-8.24721

>  <SCORE.INTER.CONST>
1

>  <SCORE.INTER.POLAR>
-0.714894

>  <SCORE.INTER.ROT>
8

>  <SCORE.INTER.SOLV>
16.6469

>  <SCORE.INTER.VDW>
-17.5975

>  <SCORE.INTER.norm>
-0.235634

>  <SCORE.INTRA>
-3.18165

>  <SCORE.INTRA.DIHEDRAL>
-5.89369

>  <SCORE.INTRA.DIHEDRAL.0>
13.1227

>  <SCORE.INTRA.POLAR>
0

>  <SCORE.INTRA.POLAR.0>
0

>  <SCORE.INTRA.REPUL>
0

>  <SCORE.INTRA.REPUL.0>
0

>  <SCORE.INTRA.SOLV>
0.179179

>  <SCORE.INTRA.SOLV.lig_0>
-89.1587

>  <SCORE.INTRA.VDW>
-0.324395

>  <SCORE.INTRA.VDW.0>
-0.838383

>  <SCORE.INTRA.norm>
-0.0909042

>  <SCORE.RESTR>
0.00773098

>  <SCORE.RESTR.CAVITY>
0.00773098

>  <SCORE.RESTR.norm>
0.000220885

>  <SCORE.SYSTEM>
0

>  <SCORE.SYSTEM.CONST>
0

>  <SCORE.SYSTEM.DIHEDRAL>
0

>  <SCORE.SYSTEM.SOLV>
0

>  <SCORE.SYSTEM.norm>
0

>  <SCORE.heavy>
35

>  <SCORE.norm>
-0.326318

>  <RMSD>
4.770

$$$$
2o3v_lig
 OpenBabel02141814113D
libRbt.so/2013.1/901 2013/11/27
 35 37  0  0  0  0  0  0  0  0999 V2000
    1.5193   -9.3319   47.9381 C   0  0  2  0  0  0  0  0  0  0  0  0
    1.5775   -9.7632   46.5440 O   0  0  0  0  0  0  0  0  0  0  0  0
    5.5024  -11.5945   46.1334 C   0  0  2  0  0  0  0  0  0  0  0  0
    6.6606  -12.3360   45.5493 N   0  0  0  0  0  0  0  0  0  0  0  0
   -5.2467   -3.0283   44.1101 C   0  0  2  0  0  0  0  0  0  0  0  0
   -4.1987   -2.4346   43.3134 O   0  0  0  0  0  0  0  0  0  0  0  0
    0.1204   -8.6452   48.0384 C   0  0  2  0  0  0  0  0  0  0  0  0
   -0.9660   -9.5878   47.6815 N   0  0  0  0  0  0  0  0  0  0  0  0
    4.2363  -12.5496   46.2331 C   0  0  0  0  0  0  0  0  0  0  0  0
   -4.5868   -3.5791   45.4214 C   0  0  2  0  0  0  0  0  0  0  0  0
   -3.8827   -2.4988   46.1577 N   0  0  0  0  0  0  0  0  0  0  0  0
    0.0361   -7.3541   47.1135 C   0  0  1  0  0  0  0  0  0  0  0  0
   -1.3157   -6.7415   47.1891 O   0  0  0  0  0  0  0  0  0  0  0  0
    3.0165  -11.7341   46.8459 C   0  0  2  0  0  0  0  0  0  0  0  0
    1.8231  -12.6025   46.9367 N   0  0  0  0  0  0  0  0  0  0  0  0
   -3.5887   -4.7809   45.1143 C   0  0  1  0  0  0  0  0  0  0  0  0
   -2.9884   -5.3324   46.3144 O   0  0  0  0  0  0  0  0  0  0  0  0
    1.2185   -6.3802   47.5462 C   0  0  2  0  0  0  0  0  0  0  0  0
    1.2385   -5.2056   46.7552 O   0  0  0  0  0  0  0  0  0  0  0  0
    2.7000  -10.4739   45.9399 C   0  0  2  0  0  0  0  0  0  0  0  0
   -4.3747   -5.8956   44.3539 C   0  0  2  0  0  0  0  0  0  0  0  0
   -3.5327   -6.9885   44.0441 O   0  0  0  0  0  0  0  0  0  0  0  0
    2.6078   -7.1172   47.4446 C   0  0  2  0  0  0  0  0  0  0  0  0
    2.5841   -8.3447   48.2675 O   0  0  0  0  0  0  0  0  0  0  0  0
    3.9453   -9.5486   45.8427 C   0  0  2  0  0  0  0  0  0  0  0  0
    3.5950   -8.4388   44.9671 O   0  0  0  0  0  0  0  0  0  0  0  0
   -5.0265   -5.2980   43.0434 C   0  0  2  0  0  0  0  0  0  0  0  0
   -5.8985   -4.1498   43.3810 O   0  0  0  0  0  0  0  0  0  0  0  0
    3.7576   -6.2150   47.8906 C   0  0  0  0  0  0  0  0  0  0  0  0
    3.6981   -5.9644   49.2735 O   0  0  0  0  0  0  0  0  0  0  0  0
    5.1354  -10.3389   45.2503 C   0  0  1  0  0  0  0  0  0  0  0  0
    6.2531   -9.4789   45.1780 O   0  0  0  0  0  0  0  0  0  0  0  0
   -5.8409   -6.3391   42.2904 C   0  0  0  0  0  0  0  0  0  0  0  0
   -5.0061   -7.3699   41.8208 O   0  0  0  0  0  0  0  0  0  0  0  0
   -1.6563   -5.8466   46.0206 C   0  0  0  0  0  0  0  0  0  0  0  0
  1  2  1  6  0  0  0
  1  7  1  0  0  0  0
  1 24  1  0  0  0  0
  3  4  1  6  0  0  0
  3  9  1  0  0  0  0
  3 31  1  0  0  0  0
  5  6  1  6  0  0  0
  5 10  1  0  0  0  0
  5 28  1  0  0  0  0
  7  8  1  6  0  0  0
  7 12  1  0  0  0  0
  9 14  1  0  0  0  0
 10 11  1  6  0  0  0
 10 16  1  0  0  0  0
 12 13  1  1  0  0  0
 12 18  1  0  0  0  0
 13 35  1  0  0  0  0
 14 15  1  6  0  0  0
 14 20  1  0  0  0  0
 16 17  1  1  0  0  0
 16 21  1  0  0  0  0
 17 35  1  0  0  0  0
 18 19  1  6  0  0  0
 18 23  1  0  0  0  0
 20  2  1  1  0  0  0
 20 25  1  0  0  0  0
 21 22  1  6  0  0  0
 21 27  1  0  0  0  0
 23 24  1  0  0  0  0
 23 29  1  1  0  0  0
 25 26  1  6  0  0  0
 25 31  1  0  0  0  0
 27 28  1  0  0  0  0
 27 33  1  1  0  0  0
 29 30  1  0  0  0  0
 31 32  1  1  0  0  0
 33 34  1  0  0  0  0
M  END
>  <CHROM.1>
-179.66836569,-159.22262315,-178.48858723,-149.33298217,-163.44333682,52.52124743
68.58024239,-64.47117201,0.06558515,-7.47793354,45.86616036,-0.36163330,-0.50369773
0.50330663

>  <Name>
2o3v_lig

>  <RI>
0

>  <Rbt.Current_Directory>
/home/afrankz/demos/rdock_decoys_rna/rnas/2o3v

>  <Rbt.Executable>
rbdock ($Id: //depot/dev/client3/rdock/2013.1/src/exe/rbdock.cxx#4 $)

>  <Rbt.Library>
libRbt.so (2013.1, Build901 2013/11/27)

>  <Rbt.Parameter_File>
/export/apps/rDock/src/rDock_2013.1_src/data/scripts/dock_solv.prm

>  <Rbt.Receptor>
prm/pocket_docking_6.prm

>  <SCORE>
-7.80183

>  <SCORE.INTER>
-2.98513

>  <SCORE.INTER.CONST>
1

>  <SCORE.INTER.POLAR>
0

>  <SCORE.INTER.ROT>
8

>  <SCORE.INTER.SOLV>
9.96666

>  <SCORE.INTER.VDW>
-14.2456

>  <SCORE.INTER.norm>
-0.0852894

>  <SCORE.INTRA>
-4.8167

>  <SCORE.INTRA.DIHEDRAL>
-5.53559

>  <SCORE.INTRA.DIHEDRAL.0>
13.1227

>  <SCORE.INTRA.POLAR>
0

>  <SCORE.INTRA.POLAR.0>
0

>  <SCORE.INTRA.REPUL>
0

>  <SCORE.INTRA.REPUL.0>
0

>  <SCORE.INTRA.SOLV>
0.109101

>  <SCORE.INTRA.SOLV.lig_0>
-89.1587

>  <SCORE.INTRA.VDW>
-2.10346

>  <SCORE.INTRA.VDW.0>
-0.838383

>  <SCORE.INTRA.norm>
-0.13762

>  <SCORE.RESTR>
0

>  <SCORE.RESTR.CAVITY>
0

>  <SCORE.RESTR.norm>
0

>  <SCORE.SYSTEM>
0

>  <SCORE.SYSTEM.CONST>
0

>  <SCORE.SYSTEM.DIHEDRAL>
0

>  <SCORE.SYSTEM.SOLV>
0

>  <SCORE.SYSTEM.norm>
0

>  <SCORE.heavy>
35

>  <SCORE.norm>
-0.222909

>  <RMSD>
4.822

$$$$
2o3v_lig
 OpenBabel02141814113D
libRbt.so/2013.1/901 2013/11/27
 35 37  0  0  0  0  0  0  0  0999 V2000
    2.1435   -9.2790   45.2636 C   0  0  2  0  0  0  0  0  0  0  0  0
    2.0506   -8.4274   46.4463 O   0  0  0  0  0  0  0  0  0  0  0  0
    4.9233   -7.0604   49.4138 C   0  0  2  0  0  0  0  0  0  0  0  0
    5.8633   -7.0627   50.5752 N   0  0  0  0  0  0  0  0  0  0  0  0
   -5.3829   -5.1015   46.0790 C   0  0  2  0  0  0  0  0  0  0  0  0
   -5.5661   -4.9232   47.5004 O   0  0  0  0  0  0  0  0  0  0  0  0
    0.7840   -9.0270   44.5379 C   0  0  2  0  0  0  0  0  0  0  0  0
    0.6130   -7.5934   44.2031 N   0  0  0  0  0  0  0  0  0  0  0  0
    3.4520   -7.4117   49.9009 C   0  0  0  0  0  0  0  0  0  0  0  0
   -4.5838   -6.4343   45.8707 C   0  0  2  0  0  0  0  0  0  0  0  0
   -5.2980   -7.5845   46.4805 N   0  0  0  0  0  0  0  0  0  0  0  0
   -0.4466   -9.5240   45.4142 C   0  0  1  0  0  0  0  0  0  0  0  0
   -1.7317   -9.2350   44.7261 O   0  0  0  0  0  0  0  0  0  0  0  0
    2.4753   -7.4141   48.6462 C   0  0  2  0  0  0  0  0  0  0  0  0
    1.1012   -7.7506   49.0763 N   0  0  0  0  0  0  0  0  0  0  0  0
   -3.1061   -6.3282   46.4539 C   0  0  1  0  0  0  0  0  0  0  0  0
   -2.3322   -7.5374   46.2448 O   0  0  0  0  0  0  0  0  0  0  0  0
   -0.2111  -11.0651   45.7354 C   0  0  2  0  0  0  0  0  0  0  0  0
   -1.2518  -11.5924   46.5383 O   0  0  0  0  0  0  0  0  0  0  0  0
    2.9780   -8.4649   47.5727 C   0  0  2  0  0  0  0  0  0  0  0  0
   -2.3915   -5.1170   45.7751 C   0  0  2  0  0  0  0  0  0  0  0  0
   -1.0732   -4.9669   46.2642 O   0  0  0  0  0  0  0  0  0  0  0  0
    1.1765  -11.2752   46.4525 C   0  0  2  0  0  0  0  0  0  0  0  0
    2.2611  -10.7210   45.6153 O   0  0  0  0  0  0  0  0  0  0  0  0
    4.4197   -8.1174   47.1065 C   0  0  2  0  0  0  0  0  0  0  0  0
    4.8283   -9.1427   46.1563 O   0  0  0  0  0  0  0  0  0  0  0  0
   -3.2309   -3.7972   46.0049 C   0  0  2  0  0  0  0  0  0  0  0  0
   -4.6107   -3.9708   45.4963 O   0  0  0  0  0  0  0  0  0  0  0  0
    1.4442  -12.7520   46.7389 C   0  0  0  0  0  0  0  0  0  0  0  0
    0.5328  -13.2586   47.6832 O   0  0  0  0  0  0  0  0  0  0  0  0
    5.3726   -8.1105   48.3247 C   0  0  1  0  0  0  0  0  0  0  0  0
    6.6718   -7.7873   47.8755 O   0  0  0  0  0  0  0  0  0  0  0  0
   -2.5948   -2.5953   45.3230 C   0  0  0  0  0  0  0  0  0  0  0  0
   -3.3553   -1.4358   45.5619 O   0  0  0  0  0  0  0  0  0  0  0  0
   -2.1730   -7.7931   44.8185 C   0  0  0  0  0  0  0  0  0  0  0  0
  1  2  1  1  0  0  0
  1  7  1  0  0  0  0
  1 24  1  0  0  0  0
  3  4  1  1  0  0  0
  3  9  1  0  0  0  0
  3 31  1  0  0  0  0
  5  6  1  1  0  0  0
  5 10  1  0  0  0  0
  5 28  1  0  0  0  0
  7  8  1  1  0  0  0
  7 12  1  0  0  0  0
  9 14  1  0  0  0  0
 10 11  1  1  0  0  0
 10 16  1  0  0  0  0
 12 13  1  6  0  0  0
 12 18  1  0  0  0  0
 13 35  1  0  0  0  0
 14 15  1  1  0  0  0
 14 20  1  0  0  0  0
 16 17  1  6  0  0  0
 16 21  1  0  0  0  0
 17 35  1  0  0  0  0
 18 19  1  1  0  0  0
 18 23  1  0  0  0  0
 20  2  1  6  0  0  0
 20 25  1  0  0  0  0
 21 22  1  1  0  0  0
 21 27  1  0  0  0  0
 23 24  1  0  0  0  0
 23 29  1  6  0  0  0
 25 26  1  6  0  0  0
 25 31  1  0  0  0  0
 27 28  1  0  0  0  0
 27 33  1  6  0  0  0
 29 30  1  0  0  0  0
 31 32  1  6  0  0  0
 33 34  1  0  0  0  0
M  END
>  <CHROM.1>
169.38544195,-77.59430425,-60.73375725,62.29547134,-163.84869189,-178.13355370
-66.21766884,-179.19514188,0.08122515,-7.70557842,46.61293759,0.44813091
0.31032756,-2.96631923

>  <Name>
2o3v_lig

>  <RI>
0

>  <Rbt.Current_Directory>
/home/afrankz/demos/rdock_decoys_rna/rnas/2o3v

>  <Rbt.Executable>
rbdock ($Id: //depot/dev/client3/rdock/2013.1/src/exe/rbdock.cxx#4 $)

>  <Rbt.Library>
libRbt.so (2013.1, Build901 2013/11/27)

>  <Rbt.Parameter_File>
/export/apps/rDock/src/rDock_2013.1_src/data/scripts/dock_solv.prm

>  <Rbt.Receptor>
prm/pocket_docking_6.prm

>  <SCORE>
-9.91247

>  <SCORE.INTER>
-5.89478

>  <SCORE.INTER.CONST>
1

>  <SCORE.INTER.POLAR>
-0.893397

>  <SCORE.INTER.ROT>
8

>  <SCORE.INTER.SOLV>
10.6435

>  <SCORE.INTER.VDW>
-13.433

>  <SCORE.INTER.norm>
-0.168422

>  <SCORE.INTRA>
-4.01769

>  <SCORE.INTRA.DIHEDRAL>
-9.71605

>  <SCORE.INTRA.DIHEDRAL.0>
13.1227

>  <SCORE.INTRA.POLAR>
0

>  <SCORE.INTRA.POLAR.0>
0

>  <SCORE.INTRA.REPUL>
0

>  <SCORE.INTRA.REPUL.0>
0

>  <SCORE.INTRA.SOLV>
1.02207

>  <SCORE.INTRA.SOLV.lig_0>
-89.1587

>  <SCORE.INTRA.VDW>
0.329293

>  <SCORE.INTRA.VDW.0>
-0.838383

>  <SCORE.INTRA.norm>
-0.114791

>  <SCORE.RESTR>
0

>  <SCORE.RESTR.CAVITY>
0

>  <SCORE.RESTR.norm>
0

>  <SCORE.SYSTEM>
0

>  <SCORE.SYSTEM.CONST>
0

>  <SCORE.SYSTEM.DIHEDRAL>
0

>  <SCORE.SYSTEM.SOLV>
0

>  <SCORE.SYSTEM.norm>
0

>  <SCORE.heavy>
35

>  <SCORE.norm>
-0.283214

>  <RMSD>
4.844

$$$$
2o3v_lig
 OpenBabel02141814113D
libRbt.so/2013.1/901 2013/11/27
 35 37  0  0  0  0  0  0  0  0999 V2000
   -0.3363   -4.3193   45.3387 C   0  0  2  0  0  0  0  0  0  0  0  0
    0.0137   -4.5745   43.9440 O   0  0  0  0  0  0  0  0  0  0  0  0
    3.0322   -2.9793   41.2476 C   0  0  2  0  0  0  0  0  0  0  0  0
    3.7611   -2.0441   40.3385 N   0  0  0  0  0  0  0  0  0  0  0  0
   -5.1751  -10.5451   50.1531 C   0  0  2  0  0  0  0  0  0  0  0  0
   -3.9706  -10.3519   50.9260 O   0  0  0  0  0  0  0  0  0  0  0  0
   -1.0068   -5.6568   45.7862 C   0  0  2  0  0  0  0  0  0  0  0  0
   -0.0791   -6.8012   45.6256 N   0  0  0  0  0  0  0  0  0  0  0  0
    1.5960   -3.3104   40.6534 C   0  0  0  0  0  0  0  0  0  0  0  0
   -4.8104  -10.3110   48.6463 C   0  0  2  0  0  0  0  0  0  0  0  0
   -3.7265  -11.2283   48.2119 N   0  0  0  0  0  0  0  0  0  0  0  0
   -2.3484   -5.9360   44.9789 C   0  0  1  0  0  0  0  0  0  0  0  0
   -2.9466   -7.2335   45.3877 O   0  0  0  0  0  0  0  0  0  0  0  0
    0.8379   -4.2965   41.6441 C   0  0  2  0  0  0  0  0  0  0  0  0
   -0.5070   -4.6087   41.1149 N   0  0  0  0  0  0  0  0  0  0  0  0
   -4.3979   -8.7979   48.3720 C   0  0  1  0  0  0  0  0  0  0  0  0
   -4.0871   -8.5449   46.9777 O   0  0  0  0  0  0  0  0  0  0  0  0
   -3.3036   -4.6810   45.1939 C   0  0  2  0  0  0  0  0  0  0  0  0
   -4.5219   -4.8296   44.4871 O   0  0  0  0  0  0  0  0  0  0  0  0
    0.7141   -3.6324   43.0769 C   0  0  2  0  0  0  0  0  0  0  0  0
   -5.5705   -7.8739   48.8303 C   0  0  2  0  0  0  0  0  0  0  0  0
   -5.2549   -6.5117   48.6196 O   0  0  0  0  0  0  0  0  0  0  0  0
   -2.5829   -3.3535   44.7444 C   0  0  2  0  0  0  0  0  0  0  0  0
   -1.3099   -3.2019   45.4800 O   0  0  0  0  0  0  0  0  0  0  0  0
    2.1226   -3.3062   43.6477 C   0  0  2  0  0  0  0  0  0  0  0  0
    1.9298   -2.6653   44.9412 O   0  0  0  0  0  0  0  0  0  0  0  0
   -5.9085   -8.1448   50.3507 C   0  0  2  0  0  0  0  0  0  0  0  0
   -6.2286   -9.5756   50.5587 O   0  0  0  0  0  0  0  0  0  0  0  0
   -3.4656   -2.1278   44.9754 C   0  0  0  0  0  0  0  0  0  0  0  0
   -2.9097   -0.9827   44.3765 O   0  0  0  0  0  0  0  0  0  0  0  0
    2.8650   -2.3499   42.6852 C   0  0  1  0  0  0  0  0  0  0  0  0
    4.1413   -2.0744   43.2232 O   0  0  0  0  0  0  0  0  0  0  0  0
   -7.0764   -7.2968   50.8312 C   0  0  0  0  0  0  0  0  0  0  0  0
   -6.7243   -5.9345   50.8371 O   0  0  0  0  0  0  0  0  0  0  0  0
   -3.3290   -7.3065   46.8474 C   0  0  0  0  0  0  0  0  0  0  0  0
  1  2  1  6  0  0  0
  1  7  1  0  0  0  0
  1 24  1  0  0  0  0
  3  4  1  6  0  0  0
  3  9  1  0  0  0  0
  3 31  1  0  0  0  0
  5  6  1  1  0  0  0
  5 10  1  0  0  0  0
  5 28  1  0  0  0  0
  7  8  1  6  0  0  0
  7 12  1  0  0  0  0
  9 14  1  0  0  0  0
 10 11  1  1  0  0  0
 10 16  1  0  0  0  0
 12 13  1  1  0  0  0
 12 18  1  0  0  0  0
 13 35  1  0  0  0  0
 14 15  1  6  0  0  0
 14 20  1  0  0  0  0
 16 17  1  6  0  0  0
 16 21  1  0  0  0  0
 17 35  1  0  0  0  0
 18 19  1  6  0  0  0
 18 23  1  0  0  0  0
 20  2  1  1  0  0  0
 20 25  1  0  0  0  0
 21 22  1  1  0  0  0
 21 27  1  0  0  0  0
 23 24  1  0  0  0  0
 23 29  1  1  0  0  0
 25 26  1  1  0  0  0
 25 31  1  0  0  0  0
 27 28  1  0  0  0  0
 27 33  1  6  0  0  0
 29 30  1  0  0  0  0
 31 32  1  1  0  0  0
 33 34  1  0  0  0  0
M  END
>  <CHROM.1>
-177.87818335,61.03880949,170.69090760,-162.16762245,174.22270922,-178.02170339
-170.38940524,-66.60658484,-2.05555678,-5.63163449,45.84659132,0.76869602
0.56020165,-0.37780102

>  <Name>
2o3v_lig

>  <RI>
0

>  <Rbt.Current_Directory>
/home/afrankz/demos/rdock_decoys_rna/rnas/2o3v

>  <Rbt.Executable>
rbdock ($Id: //depot/dev/client3/rdock/2013.1/src/exe/rbdock.cxx#4 $)

>  <Rbt.Library>
libRbt.so (2013.1, Build901 2013/11/27)

>  <Rbt.Parameter_File>
/export/apps/rDock/src/rDock_2013.1_src/data/scripts/dock_solv.prm

>  <Rbt.Receptor>
prm/pocket_docking_6.prm

>  <SCORE>
-10.8521

>  <SCORE.INTER>
-5.00095

>  <SCORE.INTER.CONST>
1

>  <SCORE.INTER.POLAR>
-0.959166

>  <SCORE.INTER.ROT>
8

>  <SCORE.INTER.SOLV>
7.42732

>  <SCORE.INTER.VDW>
-11.5459

>  <SCORE.INTER.norm>
-0.142884

>  <SCORE.INTRA>
-5.85695

>  <SCORE.INTRA.DIHEDRAL>
-10.5021

>  <SCORE.INTRA.DIHEDRAL.0>
13.1227

>  <SCORE.INTRA.POLAR>
0

>  <SCORE.INTRA.POLAR.0>
0

>  <SCORE.INTRA.REPUL>
0

>  <SCORE.INTRA.REPUL.0>
0

>  <SCORE.INTRA.SOLV>
-1.06993

>  <SCORE.INTRA.SOLV.lig_0>
-89.1587

>  <SCORE.INTRA.VDW>
-0.0709104

>  <SCORE.INTRA.VDW.0>
-0.838383

>  <SCORE.INTRA.norm>
-0.167341

>  <SCORE.RESTR>
0.00575371

>  <SCORE.RESTR.CAVITY>
0.00575371

>  <SCORE.RESTR.norm>
0.000164392

>  <SCORE.SYSTEM>
0

>  <SCORE.SYSTEM.CONST>
0

>  <SCORE.SYSTEM.DIHEDRAL>
0

>  <SCORE.SYSTEM.SOLV>
0

>  <SCORE.SYSTEM.norm>
0

>  <SCORE.heavy>
35

>  <SCORE.norm>
-0.310061

>  <RMSD>
4.879

$$$$
2o3v_lig
 OpenBabel02141814113D
libRbt.so/2013.1/901 2013/11/27
 35 37  0  0  0  0  0  0  0  0999 V2000
    2.2205   -8.9335   45.0117 C   0  0  2  0  0  0  0  0  0  0  0  0
    2.3138   -7.9200   46.0590 O   0  0  0  0  0  0  0  0  0  0  0  0
    5.1257   -6.9499   49.2338 C   0  0  2  0  0  0  0  0  0  0  0  0
    5.9273   -7.0531   50.4904 N   0  0  0  0  0  0  0  0  0  0  0  0
   -6.7739   -5.8051   43.5076 C   0  0  2  0  0  0  0  0  0  0  0  0
   -6.7756   -5.6844   44.9467 O   0  0  0  0  0  0  0  0  0  0  0  0
    1.2879   -8.2643   43.9530 C   0  0  2  0  0  0  0  0  0  0  0  0
    1.8591   -6.9858   43.4676 N   0  0  0  0  0  0  0  0  0  0  0  0
    3.5738   -6.9320   49.5755 C   0  0  0  0  0  0  0  0  0  0  0  0
   -5.4021   -6.4390   43.0898 C   0  0  2  0  0  0  0  0  0  0  0  0
   -5.1992   -7.7530   43.7510 N   0  0  0  0  0  0  0  0  0  0  0  0
   -0.1708   -8.0137   44.5352 C   0  0  1  0  0  0  0  0  0  0  0  0
   -1.0287   -7.3366   43.5282 O   0  0  0  0  0  0  0  0  0  0  0  0
    2.7443   -6.8336   48.2225 C   0  0  2  0  0  0  0  0  0  0  0  0
    1.2954   -6.8272   48.5176 N   0  0  0  0  0  0  0  0  0  0  0  0
   -4.1848   -5.4643   43.4105 C   0  0  1  0  0  0  0  0  0  0  0  0
   -2.9047   -6.0123   43.0032 O   0  0  0  0  0  0  0  0  0  0  0  0
   -0.7328   -9.4174   45.0325 C   0  0  2  0  0  0  0  0  0  0  0  0
   -2.0269   -9.2886   45.5933 O   0  0  0  0  0  0  0  0  0  0  0  0
    3.0987   -8.0578   47.2817 C   0  0  2  0  0  0  0  0  0  0  0  0
   -4.4347   -4.1043   42.6848 C   0  0  2  0  0  0  0  0  0  0  0  0
   -3.3863   -3.1914   42.9433 O   0  0  0  0  0  0  0  0  0  0  0  0
    0.2450  -10.0632   46.0863 C   0  0  2  0  0  0  0  0  0  0  0  0
    1.5959  -10.1934   45.5009 O   0  0  0  0  0  0  0  0  0  0  0  0
    4.6189   -8.0712   46.9577 C   0  0  2  0  0  0  0  0  0  0  0  0
    4.8761   -9.2395   46.1270 O   0  0  0  0  0  0  0  0  0  0  0  0
   -5.8273   -3.5030   43.1301 C   0  0  2  0  0  0  0  0  0  0  0  0
   -6.9146   -4.4719   42.8619 O   0  0  0  0  0  0  0  0  0  0  0  0
   -0.2531  -11.4304   46.5526 C   0  0  0  0  0  0  0  0  0  0  0  0
    0.6013  -11.9754   47.5282 O   0  0  0  0  0  0  0  0  0  0  0  0
    5.4298   -8.1633   48.2714 C   0  0  1  0  0  0  0  0  0  0  0  0
    6.8049   -8.1682   47.9500 O   0  0  0  0  0  0  0  0  0  0  0  0
   -6.1350   -2.1964   42.4145 C   0  0  0  0  0  0  0  0  0  0  0  0
   -5.2098   -1.2034   42.7860 O   0  0  0  0  0  0  0  0  0  0  0  0
   -2.3363   -6.8166   44.0780 C   0  0  0  0  0  0  0  0  0  0  0  0
  1  2  1  1  0  0  0
  1  7  1  0  0  0  0
  1 24  1  0  0  0  0
  3  4  1  1  0  0  0
  3  9  1  0  0  0  0
  3 31  1  0  0  0  0
  5  6  1  1  0  0  0
  5 10  1  0  0  0  0
  5 28  1  0  0  0  0
  7  8  1  1  0  0  0
  7 12  1  0  0  0  0
  9 14  1  0  0  0  0
 10 11  1  1  0  0  0
 10 16  1  0  0  0  0
 12 13  1  6  0  0  0
 12 18  1  0  0  0  0
 13 35  1  0  0  0  0
 14 15  1  1  0  0  0
 14 20  1  0  0  0  0
 16 17  1  6  0  0  0
 16 21  1  0  0  0  0
 17 35  1  0  0  0  0
 18 19  1  1  0  0  0
 18 23  1  0  0  0  0
 20  2  1  6  0  0  0
 20 25  1  0  0  0  0
 21 22  1  1  0  0  0
 21 27  1  0  0  0  0
 23 24  1  0  0  0  0
 23 29  1  6  0  0  0
 25 26  1  6  0  0  0
 25 31  1  0  0  0  0
 27 28  1  0  0  0  0
 27 33  1  6  0  0  0
 29 30  1  0  0  0  0
 31 32  1  6  0  0  0
 33 34  1  0  0  0  0
M  END
>  <CHROM.1>
-179.15655002,-168.58597435,170.88165797,-88.36415715,179.36595272,-171.64097307
-177.85678123,-65.08428680,-0.49380386,-7.10215491,45.35166984,0.37030556
0.43924791,3.10910180

>  <Name>
2o3v_lig

>  <RI>
0

>  <Rbt.Current_Directory>
/home/afrankz/demos/rdock_decoys_rna/rnas/2o3v

>  <Rbt.Executable>
rbdock ($Id: //depot/dev/client3/rdock/2013.1/src/exe/rbdock.cxx#4 $)

>  <Rbt.Library>
libRbt.so (2013.1, Build901 2013/11/27)

>  <Rbt.Parameter_File>
/export/apps/rDock/src/rDock_2013.1_src/data/scripts/dock_solv.prm

>  <Rbt.Receptor>
prm/pocket_docking_7.prm

>  <SCORE>
-11.1284

>  <SCORE.INTER>
-5.39527

>  <SCORE.INTER.CONST>
1

>  <SCORE.INTER.POLAR>
-1.0454

>  <SCORE.INTER.ROT>
8

>  <SCORE.INTER.SOLV>
10.6001

>  <SCORE.INTER.VDW>
-12.5789

>  <SCORE.INTER.norm>
-0.154151

>  <SCORE.INTRA>
-5.73309

>  <SCORE.INTRA.DIHEDRAL>
-8.30615

>  <SCORE.INTRA.DIHEDRAL.0>
13.1227

>  <SCORE.INTRA.POLAR>
0

>  <SCORE.INTRA.POLAR.0>
0

>  <SCORE.INTRA.REPUL>
0.037567

>  <SCORE.INTRA.REPUL.0>
0

>  <SCORE.INTRA.SOLV>
-0.477771

>  <SCORE.INTRA.SOLV.lig_0>
-89.1587

>  <SCORE.INTRA.VDW>
-1.52896

>  <SCORE.INTRA.VDW.0>
-0.838383

>  <SCORE.INTRA.norm>
-0.163802

>  <SCORE.RESTR>
0

>  <SCORE.RESTR.CAVITY>
0

>  <SCORE.RESTR.norm>
0

>  <SCORE.SYSTEM>
0

>  <SCORE.SYSTEM.CONST>
0

>  <SCORE.SYSTEM.DIHEDRAL>
0

>  <SCORE.SYSTEM.SOLV>
0

>  <SCORE.SYSTEM.norm>
0

>  <SCORE.heavy>
35

>  <SCORE.norm>
-0.317953

>  <RMSD>
4.892

$$$$
2o3v_lig
 OpenBabel02141814113D
libRbt.so/2013.1/901 2013/11/27
 35 37  0  0  0  0  0  0  0  0999 V2000
    3.1093   -4.5826   44.8728 C   0  0  2  0  0  0  0  0  0  0  0  0
    3.8488   -5.8409   44.9240 O   0  0  0  0  0  0  0  0  0  0  0  0
    6.8381   -8.0024   42.6176 C   0  0  2  0  0  0  0  0  0  0  0  0
    7.5279   -8.6672   41.4711 N   0  0  0  0  0  0  0  0  0  0  0  0
    1.0969  -11.1763   48.4191 C   0  0  2  0  0  0  0  0  0  0  0  0
    1.5733  -11.2211   49.7816 O   0  0  0  0  0  0  0  0  0  0  0  0
    2.6091   -4.4057   46.3415 C   0  0  2  0  0  0  0  0  0  0  0  0
    3.7443   -4.3680   47.2933 N   0  0  0  0  0  0  0  0  0  0  0  0
    5.4549   -8.7255   42.9167 C   0  0  0  0  0  0  0  0  0  0  0  0
    1.0963   -9.6743   47.9695 C   0  0  2  0  0  0  0  0  0  0  0  0
    2.4509   -9.0795   48.0970 N   0  0  0  0  0  0  0  0  0  0  0  0
    1.5983   -5.5611   46.7572 C   0  0  1  0  0  0  0  0  0  0  0  0
    1.1691   -5.3996   48.1707 O   0  0  0  0  0  0  0  0  0  0  0  0
    4.7368   -7.9926   44.1314 C   0  0  2  0  0  0  0  0  0  0  0  0
    3.4406   -8.6435   44.4190 N   0  0  0  0  0  0  0  0  0  0  0  0
    0.0361   -8.8174   48.7919 C   0  0  1  0  0  0  0  0  0  0  0  0
   -0.0095   -7.4291   48.3731 O   0  0  0  0  0  0  0  0  0  0  0  0
    0.4022   -5.5482   45.7070 C   0  0  2  0  0  0  0  0  0  0  0  0
   -0.5422   -6.5666   45.9842 O   0  0  0  0  0  0  0  0  0  0  0  0
    4.5081   -6.4648   43.7811 C   0  0  2  0  0  0  0  0  0  0  0  0
   -1.3715   -9.4707   48.6169 C   0  0  2  0  0  0  0  0  0  0  0  0
   -2.3558   -8.7552   49.3372 O   0  0  0  0  0  0  0  0  0  0  0  0
    0.9523   -5.7140   44.2395 C   0  0  2  0  0  0  0  0  0  0  0  0
    1.9406   -4.6529   43.9531 O   0  0  0  0  0  0  0  0  0  0  0  0
    5.8650   -5.7669   43.4839 C   0  0  2  0  0  0  0  0  0  0  0  0
    5.5747   -4.3837   43.1327 O   0  0  0  0  0  0  0  0  0  0  0  0
   -1.3255  -10.9826   49.0765 C   0  0  2  0  0  0  0  0  0  0  0  0
   -0.2856  -11.7178   48.3209 O   0  0  0  0  0  0  0  0  0  0  0  0
   -0.1736   -5.6675   43.2076 C   0  0  0  0  0  0  0  0  0  0  0  0
    0.2964   -6.0166   41.9285 O   0  0  0  0  0  0  0  0  0  0  0  0
    6.5687   -6.4790   42.3051 C   0  0  1  0  0  0  0  0  0  0  0  0
    7.7989   -5.8304   42.0596 O   0  0  0  0  0  0  0  0  0  0  0  0
   -2.6664  -11.6745   48.8829 C   0  0  0  0  0  0  0  0  0  0  0  0
   -3.6327  -11.1225   49.7440 O   0  0  0  0  0  0  0  0  0  0  0  0
    1.1076   -6.6919   48.9508 C   0  0  0  0  0  0  0  0  0  0  0  0
  1  2  1  1  0  0  0
  1  7  1  0  0  0  0
  1 24  1  0  0  0  0
  3  4  1  6  0  0  0
  3  9  1  0  0  0  0
  3 31  1  0  0  0  0
  5  6  1  1  0  0  0
  5 10  1  0  0  0  0
  5 28  1  0  0  0  0
  7  8  1  1  0  0  0
  7 12  1  0  0  0  0
  9 14  1  0  0  0  0
 10 11  1  1  0  0  0
 10 16  1  0  0  0  0
 12 13  1  1  0  0  0
 12 18  1  0  0  0  0
 13 35  1  0  0  0  0
 14 15  1  6  0  0  0
 14 20  1  0  0  0  0
 16 17  1  6  0  0  0
 16 21  1  0  0  0  0
 17 35  1  0  0  0  0
 18 19  1  1  0  0  0
 18 23  1  0  0  0  0
 20  2  1  1  0  0  0
 20 25  1  0  0  0  0
 21 22  1  1  0  0  0
 21 27  1  0  0  0  0
 23 24  1  0  0  0  0
 23 29  1  6  0  0  0
 25 26  1  6  0  0  0
 25 31  1  0  0  0  0
 27 28  1  0  0  0  0
 27 33  1  6  0  0  0
 29 30  1  0  0  0  0
 31 32  1  1  0  0  0
 33 34  1  0  0  0  0
M  END
>  <CHROM.1>
179.16315346,-138.33212801,-68.92336073,-78.86989945,165.32801902,-160.60709678
-171.05849865,-66.46619829,2.03576707,-7.51617320,45.96607735,0.63644297
0.55916004,-0.38204319

>  <Name>
2o3v_lig

>  <RI>
0

>  <Rbt.Current_Directory>
/home/afrankz/demos/rdock_decoys_rna/rnas/2o3v

>  <Rbt.Executable>
rbdock ($Id: //depot/dev/client3/rdock/2013.1/src/exe/rbdock.cxx#4 $)

>  <Rbt.Library>
libRbt.so (2013.1, Build901 2013/11/27)

>  <Rbt.Parameter_File>
/export/apps/rDock/src/rDock_2013.1_src/data/scripts/dock_solv.prm

>  <Rbt.Receptor>
prm/pocket_docking_6.prm

>  <SCORE>
-16.7641

>  <SCORE.INTER>
-14.3378

>  <SCORE.INTER.CONST>
1

>  <SCORE.INTER.POLAR>
-1.05723

>  <SCORE.INTER.ROT>
8

>  <SCORE.INTER.SOLV>
25.1938

>  <SCORE.INTER.VDW>
-23.3657

>  <SCORE.INTER.norm>
-0.40965

>  <SCORE.INTRA>
-2.49588

>  <SCORE.INTRA.DIHEDRAL>
-2.26431

>  <SCORE.INTRA.DIHEDRAL.0>
13.1227

>  <SCORE.INTRA.POLAR>
0

>  <SCORE.INTRA.POLAR.0>
0

>  <SCORE.INTRA.REPUL>
0

>  <SCORE.INTRA.REPUL.0>
0

>  <SCORE.INTRA.SOLV>
2.036

>  <SCORE.INTRA.SOLV.lig_0>
-89.1587

>  <SCORE.INTRA.VDW>
-2.38173

>  <SCORE.INTRA.VDW.0>
-0.838383

>  <SCORE.INTRA.norm>
-0.0713109

>  <SCORE.RESTR>
0.0695795

>  <SCORE.RESTR.CAVITY>
0.0695795

>  <SCORE.RESTR.norm>
0.00198798

>  <SCORE.SYSTEM>
0

>  <SCORE.SYSTEM.CONST>
0

>  <SCORE.SYSTEM.DIHEDRAL>
0

>  <SCORE.SYSTEM.SOLV>
0

>  <SCORE.SYSTEM.norm>
0

>  <SCORE.heavy>
35

>  <SCORE.norm>
-0.478973

>  <RMSD>
4.909

$$$$
2o3v_lig
 OpenBabel02141814113D
libRbt.so/2013.1/901 2013/11/27
 35 37  0  0  0  0  0  0  0  0999 V2000
    4.0948   -4.1358   44.7434 C   0  0  2  0  0  0  0  0  0  0  0  0
    4.2224   -5.5816   44.5819 O   0  0  0  0  0  0  0  0  0  0  0  0
    7.5914   -8.1520   43.5970 C   0  0  2  0  0  0  0  0  0  0  0  0
    8.6454   -8.8583   42.8079 N   0  0  0  0  0  0  0  0  0  0  0  0
   -5.5906   -6.0018   42.8953 C   0  0  2  0  0  0  0  0  0  0  0  0
   -5.2138   -6.3854   41.5550 O   0  0  0  0  0  0  0  0  0  0  0  0
    2.5972   -3.9552   45.1471 C   0  0  2  0  0  0  0  0  0  0  0  0
    2.2826   -4.7030   46.3873 N   0  0  0  0  0  0  0  0  0  0  0  0
    6.1484   -8.5788   43.0861 C   0  0  0  0  0  0  0  0  0  0  0  0
   -4.5184   -4.9811   43.4121 C   0  0  2  0  0  0  0  0  0  0  0  0
   -4.4246   -3.8050   42.5105 N   0  0  0  0  0  0  0  0  0  0  0  0
    1.6186   -4.4144   43.9805 C   0  0  1  0  0  0  0  0  0  0  0  0
    0.1999   -4.2764   44.4007 O   0  0  0  0  0  0  0  0  0  0  0  0
    5.0470   -7.8055   43.9330 C   0  0  2  0  0  0  0  0  0  0  0  0
    3.6952   -8.1800   43.4652 N   0  0  0  0  0  0  0  0  0  0  0  0
   -3.0908   -5.6659   43.5788 C   0  0  1  0  0  0  0  0  0  0  0  0
   -2.0860   -4.7516   44.0879 O   0  0  0  0  0  0  0  0  0  0  0  0
    1.9987   -3.5757   42.6822 C   0  0  2  0  0  0  0  0  0  0  0  0
    1.1902   -3.9366   41.5767 O   0  0  0  0  0  0  0  0  0  0  0  0
    5.2547   -6.2417   43.7889 C   0  0  2  0  0  0  0  0  0  0  0  0
   -3.2359   -6.8853   44.5434 C   0  0  2  0  0  0  0  0  0  0  0  0
   -1.9961   -7.5415   44.7214 O   0  0  0  0  0  0  0  0  0  0  0  0
    3.5195   -3.7748   42.3202 C   0  0  2  0  0  0  0  0  0  0  0  0
    4.3617   -3.4015   43.4761 O   0  0  0  0  0  0  0  0  0  0  0  0
    6.6703   -5.8340   44.2849 C   0  0  2  0  0  0  0  0  0  0  0  0
    6.8037   -4.3974   44.0860 O   0  0  0  0  0  0  0  0  0  0  0  0
   -4.3276   -7.8852   43.9887 C   0  0  2  0  0  0  0  0  0  0  0  0
   -5.6178   -7.1837   43.7991 O   0  0  0  0  0  0  0  0  0  0  0  0
    3.9199   -2.9501   41.0978 C   0  0  0  0  0  0  0  0  0  0  0  0
    3.7550   -1.5740   41.3386 O   0  0  0  0  0  0  0  0  0  0  0  0
    7.7449   -6.5867   43.4659 C   0  0  1  0  0  0  0  0  0  0  0  0
    9.0191   -6.2035   43.9391 O   0  0  0  0  0  0  0  0  0  0  0  0
   -4.5356   -9.0702   44.9197 C   0  0  0  0  0  0  0  0  0  0  0  0
   -5.0611   -8.6401   46.1521 O   0  0  0  0  0  0  0  0  0  0  0  0
   -0.7604   -5.1588   43.6382 C   0  0  0  0  0  0  0  0  0  0  0  0
  1  2  1  6  0  0  0
  1  7  1  0  0  0  0
  1 24  1  0  0  0  0
  3  4  1  6  0  0  0
  3  9  1  0  0  0  0
  3 31  1  0  0  0  0
  5  6  1  6  0  0  0
  5 10  1  0  0  0  0
  5 28  1  0  0  0  0
  7  8  1  1  0  0  0
  7 12  1  0  0  0  0
  9 14  1  0  0  0  0
 10 11  1  6  0  0  0
 10 16  1  0  0  0  0
 12 13  1  1  0  0  0
 12 18  1  0  0  0  0
 13 35  1  0  0  0  0
 14 15  1  6  0  0  0
 14 20  1  0  0  0  0
 16 17  1  1  0  0  0
 16 21  1  0  0  0  0
 17 35  1  0  0  0  0
 18 19  1  6  0  0  0
 18 23  1  0  0  0  0
 20  2  1  1  0  0  0
 20 25  1  0  0  0  0
 21 22  1  6  0  0  0
 21 27  1  0  0  0  0
 23 24  1  0  0  0  0
 23 29  1  6  0  0  0
 25 26  1  6  0  0  0
 25 31  1  0  0  0  0
 27 28  1  0  0  0  0
 27 33  1  1  0  0  0
 29 30  1  0  0  0  0
 31 32  1  1  0  0  0
 33 34  1  0  0  0  0
M  END
>  <CHROM.1>
157.93344256,-156.95679624,-173.34227848,-152.78020266,-171.30621570,178.06048063
61.87430000,64.62276631,1.38834622,-5.72538431,43.65309499,0.05946103,0.00873493
-0.32646451

>  <Name>
2o3v_lig

>  <RI>
0

>  <Rbt.Current_Directory>
/home/afrankz/demos/rdock_decoys_rna/rnas/2o3v

>  <Rbt.Executable>
rbdock ($Id: //depot/dev/client3/rdock/2013.1/src/exe/rbdock.cxx#4 $)

>  <Rbt.Library>
libRbt.so (2013.1, Build901 2013/11/27)

>  <Rbt.Parameter_File>
/export/apps/rDock/src/rDock_2013.1_src/data/scripts/dock_solv.prm

>  <Rbt.Receptor>
prm/pocket_docking_8.prm

>  <SCORE>
-14.4352

>  <SCORE.INTER>
-10.0732

>  <SCORE.INTER.CONST>
1

>  <SCORE.INTER.POLAR>
-0.959657

>  <SCORE.INTER.ROT>
8

>  <SCORE.INTER.SOLV>
20.8788

>  <SCORE.INTER.VDW>
-19.4095

>  <SCORE.INTER.norm>
-0.287805

>  <SCORE.INTRA>
-4.36453

>  <SCORE.INTRA.DIHEDRAL>
-4.84963

>  <SCORE.INTRA.DIHEDRAL.0>
13.1227

>  <SCORE.INTRA.POLAR>
0

>  <SCORE.INTRA.POLAR.0>
0

>  <SCORE.INTRA.REPUL>
0

>  <SCORE.INTRA.REPUL.0>
0

>  <SCORE.INTRA.SOLV>
-0.837241

>  <SCORE.INTRA.SOLV.lig_0>
-89.1587

>  <SCORE.INTRA.VDW>
-1.5211

>  <SCORE.INTRA.VDW.0>
-0.838383

>  <SCORE.INTRA.norm>
-0.124701

>  <SCORE.RESTR>
0.00257306

>  <SCORE.RESTR.CAVITY>
0.00257306

>  <SCORE.RESTR.norm>
7.35161e-05

>  <SCORE.SYSTEM>
0

>  <SCORE.SYSTEM.CONST>
0

>  <SCORE.SYSTEM.DIHEDRAL>
0

>  <SCORE.SYSTEM.SOLV>
0

>  <SCORE.SYSTEM.norm>
0

>  <SCORE.heavy>
35

>  <SCORE.norm>
-0.412433

>  <RMSD>
4.943

$$$$
2o3v_lig
 OpenBabel02141814113D
libRbt.so/2013.1/901 2013/11/27
 35 37  0  0  0  0  0  0  0  0999 V2000
    0.1845   -6.3502   46.5562 C   0  0  2  0  0  0  0  0  0  0  0  0
    0.9173   -6.2086   45.3009 O   0  0  0  0  0  0  0  0  0  0  0  0
    3.1816   -3.1059   43.2580 C   0  0  2  0  0  0  0  0  0  0  0  0
    4.2134   -2.0616   42.9805 N   0  0  0  0  0  0  0  0  0  0  0  0
   -1.5210  -13.5255   47.7504 C   0  0  2  0  0  0  0  0  0  0  0  0
   -1.4497  -12.4017   48.6546 O   0  0  0  0  0  0  0  0  0  0  0  0
   -0.4266   -7.7833   46.4499 C   0  0  2  0  0  0  0  0  0  0  0  0
    0.6325   -8.8064   46.2830 N   0  0  0  0  0  0  0  0  0  0  0  0
    2.3080   -2.6895   44.5185 C   0  0  0  0  0  0  0  0  0  0  0  0
   -1.0982  -13.0145   46.3297 C   0  0  2  0  0  0  0  0  0  0  0  0
    0.2623  -12.4203   46.3605 N   0  0  0  0  0  0  0  0  0  0  0  0
   -1.4668   -7.8871   45.2512 C   0  0  1  0  0  0  0  0  0  0  0  0
   -2.0029   -9.2686   45.1396 O   0  0  0  0  0  0  0  0  0  0  0  0
    1.2270   -3.8214   44.7989 C   0  0  2  0  0  0  0  0  0  0  0  0
    0.4097   -3.4587   45.9766 N   0  0  0  0  0  0  0  0  0  0  0  0
   -2.1466  -11.9667   45.7485 C   0  0  1  0  0  0  0  0  0  0  0  0
   -1.7973  -11.5019   44.4193 O   0  0  0  0  0  0  0  0  0  0  0  0
   -2.5790   -6.7732   45.4880 C   0  0  2  0  0  0  0  0  0  0  0  0
   -3.5423   -6.7734   44.4498 O   0  0  0  0  0  0  0  0  0  0  0  0
    1.9500   -5.2084   45.0495 C   0  0  2  0  0  0  0  0  0  0  0  0
   -3.5559  -12.6389   45.7221 C   0  0  2  0  0  0  0  0  0  0  0  0
   -4.5336  -11.7477   45.2227 O   0  0  0  0  0  0  0  0  0  0  0  0
   -1.9182   -5.3472   45.6042 C   0  0  2  0  0  0  0  0  0  0  0  0
   -0.9104   -5.3496   46.6854 O   0  0  0  0  0  0  0  0  0  0  0  0
    2.8069   -5.6048   43.8146 C   0  0  2  0  0  0  0  0  0  0  0  0
    3.4698   -6.8624   44.1311 O   0  0  0  0  0  0  0  0  0  0  0  0
   -3.9407  -13.1428   47.1703 C   0  0  2  0  0  0  0  0  0  0  0  0
   -2.9050  -14.0680   47.6843 O   0  0  0  0  0  0  0  0  0  0  0  0
   -2.9618   -4.2630   45.8692 C   0  0  0  0  0  0  0  0  0  0  0  0
   -3.8015   -4.0846   44.7547 O   0  0  0  0  0  0  0  0  0  0  0  0
    3.8577   -4.5046   43.5360 C   0  0  1  0  0  0  0  0  0  0  0  0
    4.6176   -4.8859   42.4084 O   0  0  0  0  0  0  0  0  0  0  0  0
   -5.2899  -13.8452   47.1858 C   0  0  0  0  0  0  0  0  0  0  0  0
   -5.7267  -14.0405   48.5091 O   0  0  0  0  0  0  0  0  0  0  0  0
   -1.0501  -10.2529   44.5028 C   0  0  0  0  0  0  0  0  0  0  0  0
  1  2  1  6  0  0  0
  1  7  1  0  0  0  0
  1 24  1  0  0  0  0
  3  4  1  1  0  0  0
  3  9  1  0  0  0  0
  3 31  1  0  0  0  0
  5  6  1  1  0  0  0
  5 10  1  0  0  0  0
  5 28  1  0  0  0  0
  7  8  1  6  0  0  0
  7 12  1  0  0  0  0
  9 14  1  0  0  0  0
 10 11  1  1  0  0  0
 10 16  1  0  0  0  0
 12 13  1  1  0  0  0
 12 18  1  0  0  0  0
 13 35  1  0  0  0  0
 14 15  1  1  0  0  0
 14 20  1  0  0  0  0
 16 17  1  6  0  0  0
 16 21  1  0  0  0  0
 17 35  1  0  0  0  0
 18 19  1  6  0  0  0
 18 23  1  0  0  0  0
 20  2  1  6  0  0  0
 20 25  1  0  0  0  0
 21 22  1  1  0  0  0
 21 27  1  0  0  0  0
 23 24  1  0  0  0  0
 23 29  1  1  0  0  0
 25 26  1  1  0  0  0
 25 31  1  0  0  0  0
 27 28  1  0  0  0  0
 27 33  1  6  0  0  0
 29 30  1  0  0  0  0
 31 32  1  6  0  0  0
 33 34  1  0  0  0  0
M  END
>  <CHROM.1>
-162.84600749,-76.64753083,-176.62255274,-94.75694425,-62.48156085,-76.59296359
-67.86994151,-168.18446738,-0.74954581,-8.20217274,45.53521708,1.02431561
0.21912335,-0.16717389

>  <Name>
2o3v_lig

>  <RI>
0

>  <Rbt.Current_Directory>
/home/afrankz/demos/rdock_decoys_rna/rnas/2o3v

>  <Rbt.Executable>
rbdock ($Id: //depot/dev/client3/rdock/2013.1/src/exe/rbdock.cxx#4 $)

>  <Rbt.Library>
libRbt.so (2013.1, Build901 2013/11/27)

>  <Rbt.Parameter_File>
/export/apps/rDock/src/rDock_2013.1_src/data/scripts/dock_solv.prm

>  <Rbt.Receptor>
prm/pocket_docking_5.prm

>  <SCORE>
-2.3381

>  <SCORE.INTER>
-1.96104

>  <SCORE.INTER.CONST>
1

>  <SCORE.INTER.POLAR>
-0.914208

>  <SCORE.INTER.ROT>
8

>  <SCORE.INTER.SOLV>
12.165

>  <SCORE.INTER.VDW>
-11.2484

>  <SCORE.INTER.norm>
-0.0560298

>  <SCORE.INTRA>
-0.377053

>  <SCORE.INTRA.DIHEDRAL>
-3.88515

>  <SCORE.INTRA.DIHEDRAL.0>
13.1227

>  <SCORE.INTRA.POLAR>
0

>  <SCORE.INTRA.POLAR.0>
0

>  <SCORE.INTRA.REPUL>
0

>  <SCORE.INTRA.REPUL.0>
0

>  <SCORE.INTRA.SOLV>
4.95502

>  <SCORE.INTRA.SOLV.lig_0>
-89.1587

>  <SCORE.INTRA.VDW>
-0.911989

>  <SCORE.INTRA.VDW.0>
-0.838383

>  <SCORE.INTRA.norm>
-0.0107729

>  <SCORE.RESTR>
0

>  <SCORE.RESTR.CAVITY>
0

>  <SCORE.RESTR.norm>
0

>  <SCORE.SYSTEM>
0

>  <SCORE.SYSTEM.CONST>
0

>  <SCORE.SYSTEM.DIHEDRAL>
0

>  <SCORE.SYSTEM.SOLV>
0

>  <SCORE.SYSTEM.norm>
0

>  <SCORE.heavy>
35

>  <SCORE.norm>
-0.0668028

>  <RMSD>
4.948

$$$$
2o3v_lig
 OpenBabel02141814113D
libRbt.so/2013.1/901 2013/11/27
 35 37  0  0  0  0  0  0  0  0999 V2000
    1.2882   -4.5678   42.6684 C   0  0  2  0  0  0  0  0  0  0  0  0
    1.6611   -3.3322   41.9850 O   0  0  0  0  0  0  0  0  0  0  0  0
    4.1268   -1.7359   38.7757 C   0  0  2  0  0  0  0  0  0  0  0  0
    5.2586   -1.5668   37.8151 N   0  0  0  0  0  0  0  0  0  0  0  0
   -3.5931   -8.2093   45.4851 C   0  0  2  0  0  0  0  0  0  0  0  0
   -4.5671   -7.7495   46.4470 O   0  0  0  0  0  0  0  0  0  0  0  0
   -0.1275   -4.2424   43.2414 C   0  0  2  0  0  0  0  0  0  0  0  0
   -1.0718   -3.8750   42.1599 N   0  0  0  0  0  0  0  0  0  0  0  0
    4.6503   -1.5861   40.2687 C   0  0  0  0  0  0  0  0  0  0  0  0
   -2.6326   -7.0090   45.1769 C   0  0  2  0  0  0  0  0  0  0  0  0
   -1.9861   -6.5118   46.4178 N   0  0  0  0  0  0  0  0  0  0  0  0
   -0.0666   -3.0752   44.3201 C   0  0  1  0  0  0  0  0  0  0  0  0
   -1.4280   -2.7508   44.8198 O   0  0  0  0  0  0  0  0  0  0  0  0
    3.4304   -1.7816   41.2697 C   0  0  2  0  0  0  0  0  0  0  0  0
    3.8985   -1.6573   42.6668 N   0  0  0  0  0  0  0  0  0  0  0  0
   -3.3958   -5.8234   44.4374 C   0  0  1  0  0  0  0  0  0  0  0  0
   -2.5227   -4.7121   44.1099 O   0  0  0  0  0  0  0  0  0  0  0  0
    0.9538   -3.5281   45.4547 C   0  0  2  0  0  0  0  0  0  0  0  0
    1.0927   -2.5341   46.4539 O   0  0  0  0  0  0  0  0  0  0  0  0
    2.7706   -3.2042   41.0455 C   0  0  2  0  0  0  0  0  0  0  0  0
   -4.0458   -6.3891   43.1350 C   0  0  2  0  0  0  0  0  0  0  0  0
   -4.7492   -5.3788   42.4392 O   0  0  0  0  0  0  0  0  0  0  0  0
    2.3626   -3.8607   44.8315 C   0  0  2  0  0  0  0  0  0  0  0  0
    2.2153   -4.8954   43.7863 O   0  0  0  0  0  0  0  0  0  0  0  0
    2.2672   -3.3445   39.5815 C   0  0  2  0  0  0  0  0  0  0  0  0
    1.7126   -4.6836   39.4389 O   0  0  0  0  0  0  0  0  0  0  0  0
   -5.0009   -7.5979   43.4896 C   0  0  2  0  0  0  0  0  0  0  0  0
   -4.2542   -8.6441   44.2249 O   0  0  0  0  0  0  0  0  0  0  0  0
    3.3513   -4.3344   45.8958 C   0  0  0  0  0  0  0  0  0  0  0  0
    3.3178   -3.4985   47.0267 O   0  0  0  0  0  0  0  0  0  0  0  0
    3.4502   -3.1514   38.6041 C   0  0  1  0  0  0  0  0  0  0  0  0
    2.9659   -3.2779   37.2837 O   0  0  0  0  0  0  0  0  0  0  0  0
   -5.6247   -8.2110   42.2450 C   0  0  0  0  0  0  0  0  0  0  0  0
   -6.1169   -7.2033   41.3951 O   0  0  0  0  0  0  0  0  0  0  0  0
   -2.2089   -3.9473   45.3107 C   0  0  0  0  0  0  0  0  0  0  0  0
  1  2  1  1  0  0  0
  1  7  1  0  0  0  0
  1 24  1  0  0  0  0
  3  4  1  6  0  0  0
  3  9  1  0  0  0  0
  3 31  1  0  0  0  0
  5  6  1  1  0  0  0
  5 10  1  0  0  0  0
  5 28  1  0  0  0  0
  7  8  1  6  0  0  0
  7 12  1  0  0  0  0
  9 14  1  0  0  0  0
 10 11  1  1  0  0  0
 10 16  1  0  0  0  0
 12 13  1  1  0  0  0
 12 18  1  0  0  0  0
 13 35  1  0  0  0  0
 14 15  1  1  0  0  0
 14 20  1  0  0  0  0
 16 17  1  6  0  0  0
 16 21  1  0  0  0  0
 17 35  1  0  0  0  0
 18 19  1  1  0  0  0
 18 23  1  0  0  0  0
 20  2  1  1  0  0  0
 20 25  1  0  0  0  0
 21 22  1  1  0  0  0
 21 27  1  0  0  0  0
 23 24  1  0  0  0  0
 23 29  1  1  0  0  0
 25 26  1  1  0  0  0
 25 31  1  0  0  0  0
 27 28  1  0  0  0  0
 27 33  1  6  0  0  0
 29 30  1  0  0  0  0
 31 32  1  6  0  0  0
 33 34  1  0  0  0  0
M  END
>  <CHROM.1>
-166.35417585,51.99648676,-70.05023493,-74.67333715,-174.12928947,-143.15685749
-46.45914750,-46.23006094,-0.11954936,-4.52894839,42.98430889,-0.40851930
0.51441079,1.57897056

>  <Name>
2o3v_lig

>  <RI>
0

>  <Rbt.Current_Directory>
/home/afrankz/demos/rdock_decoys_rna/rnas/2o3v

>  <Rbt.Executable>
rbdock ($Id: //depot/dev/client3/rdock/2013.1/src/exe/rbdock.cxx#4 $)

>  <Rbt.Library>
libRbt.so (2013.1, Build901 2013/11/27)

>  <Rbt.Parameter_File>
/export/apps/rDock/src/rDock_2013.1_src/data/scripts/dock_solv.prm

>  <Rbt.Receptor>
prm/blind_docking_80.prm

>  <SCORE>
-5.3153

>  <SCORE.INTER>
-10.458

>  <SCORE.INTER.CONST>
1

>  <SCORE.INTER.POLAR>
-1.77536

>  <SCORE.INTER.ROT>
8

>  <SCORE.INTER.SOLV>
22.1947

>  <SCORE.INTER.VDW>
-17.3857

>  <SCORE.INTER.norm>
-0.298799

>  <SCORE.INTRA>
2.01965

>  <SCORE.INTRA.DIHEDRAL>
-4.05247

>  <SCORE.INTRA.DIHEDRAL.0>
13.1227

>  <SCORE.INTRA.POLAR>
0

>  <SCORE.INTRA.POLAR.0>
0

>  <SCORE.INTRA.REPUL>
0

>  <SCORE.INTRA.REPUL.0>
0

>  <SCORE.INTRA.SOLV>
4.82266

>  <SCORE.INTRA.SOLV.lig_0>
-89.1587

>  <SCORE.INTRA.VDW>
1.63456

>  <SCORE.INTRA.VDW.0>
-0.838383

>  <SCORE.INTRA.norm>
0.0577044

>  <SCORE.RESTR>
3.12301

>  <SCORE.RESTR.CAVITY>
3.12301

>  <SCORE.RESTR.norm>
0.0892289

>  <SCORE.SYSTEM>
0

>  <SCORE.SYSTEM.CONST>
0

>  <SCORE.SYSTEM.DIHEDRAL>
0

>  <SCORE.SYSTEM.SOLV>
0

>  <SCORE.SYSTEM.norm>
0

>  <SCORE.heavy>
35

>  <SCORE.norm>
-0.151866

>  <RMSD>
5.041

$$$$
2o3v_lig
 OpenBabel02141814113D
libRbt.so/2013.1/901 2013/11/27
 35 37  0  0  0  0  0  0  0  0999 V2000
    1.8729   -7.9624   46.0549 C   0  0  2  0  0  0  0  0  0  0  0  0
    1.3762   -6.7015   45.5107 O   0  0  0  0  0  0  0  0  0  0  0  0
    3.1024   -3.4389   43.2080 C   0  0  2  0  0  0  0  0  0  0  0  0
    3.9305   -2.2488   42.8470 N   0  0  0  0  0  0  0  0  0  0  0  0
   -4.0130  -14.3213   49.2613 C   0  0  2  0  0  0  0  0  0  0  0  0
   -3.2703  -15.0211   48.2394 O   0  0  0  0  0  0  0  0  0  0  0  0
    0.5644   -8.7665   46.3370 C   0  0  2  0  0  0  0  0  0  0  0  0
   -0.2309   -8.9471   45.0996 N   0  0  0  0  0  0  0  0  0  0  0  0
    2.1129   -3.0756   44.3972 C   0  0  0  0  0  0  0  0  0  0  0  0
   -4.0960  -12.8148   48.8349 C   0  0  2  0  0  0  0  0  0  0  0  0
   -4.7316  -12.6732   47.5004 N   0  0  0  0  0  0  0  0  0  0  0  0
   -0.3265   -8.0604   47.4493 C   0  0  1  0  0  0  0  0  0  0  0  0
   -1.5863   -8.8167   47.6709 O   0  0  0  0  0  0  0  0  0  0  0  0
    1.2529   -4.3603   44.7691 C   0  0  2  0  0  0  0  0  0  0  0  0
    0.3323   -4.0467   45.8830 N   0  0  0  0  0  0  0  0  0  0  0  0
   -2.6612  -12.1248   48.8405 C   0  0  1  0  0  0  0  0  0  0  0  0
   -2.7127  -10.7201   48.4817 O   0  0  0  0  0  0  0  0  0  0  0  0
    0.5755   -7.9002   48.7510 C   0  0  2  0  0  0  0  0  0  0  0  0
   -0.1308   -7.2543   49.7949 O   0  0  0  0  0  0  0  0  0  0  0  0
    2.2123   -5.5518   45.1802 C   0  0  2  0  0  0  0  0  0  0  0  0
   -2.0395  -12.2864   50.2639 C   0  0  2  0  0  0  0  0  0  0  0  0
   -0.7546  -11.6992   50.3257 O   0  0  0  0  0  0  0  0  0  0  0  0
    1.8901   -7.0974   48.4181 C   0  0  2  0  0  0  0  0  0  0  0  0
    2.6241   -7.7705   47.3259 O   0  0  0  0  0  0  0  0  0  0  0  0
    3.1806   -5.8963   44.0140 C   0  0  2  0  0  0  0  0  0  0  0  0
    4.0538   -6.9665   44.4757 O   0  0  0  0  0  0  0  0  0  0  0  0
   -1.9786  -13.8167   50.6557 C   0  0  2  0  0  0  0  0  0  0  0  0
   -3.3284  -14.4209   50.5787 O   0  0  0  0  0  0  0  0  0  0  0  0
    2.7924   -6.9615   49.6437 C   0  0  0  0  0  0  0  0  0  0  0  0
    3.9221   -6.1740   49.3567 O   0  0  0  0  0  0  0  0  0  0  0  0
    4.0168   -4.6482   43.6465 C   0  0  1  0  0  0  0  0  0  0  0  0
    4.8824   -4.9859   42.5831 O   0  0  0  0  0  0  0  0  0  0  0  0
   -1.4191  -14.0213   52.0554 C   0  0  0  0  0  0  0  0  0  0  0  0
   -0.0780  -13.5995   52.1146 O   0  0  0  0  0  0  0  0  0  0  0  0
   -1.3809  -10.2401   48.1335 C   0  0  0  0  0  0  0  0  0  0  0  0
  1  2  1  1  0  0  0
  1  7  1  0  0  0  0
  1 24  1  0  0  0  0
  3  4  1  1  0  0  0
  3  9  1  0  0  0  0
  3 31  1  0  0  0  0
  5  6  1  6  0  0  0
  5 10  1  0  0  0  0
  5 28  1  0  0  0  0
  7  8  1  6  0  0  0
  7 12  1  0  0  0  0
  9 14  1  0  0  0  0
 10 11  1  6  0  0  0
 10 16  1  0  0  0  0
 12 13  1  1  0  0  0
 12 18  1  0  0  0  0
 13 35  1  0  0  0  0
 14 15  1  1  0  0  0
 14 20  1  0  0  0  0
 16 17  1  1  0  0  0
 16 21  1  0  0  0  0
 17 35  1  0  0  0  0
 18 19  1  1  0  0  0
 18 23  1  0  0  0  0
 20  2  1  6  0  0  0
 20 25  1  0  0  0  0
 21 22  1  6  0  0  0
 21 27  1  0  0  0  0
 23 24  1  0  0  0  0
 23 29  1  1  0  0  0
 25 26  1  1  0  0  0
 25 31  1  0  0  0  0
 27 28  1  0  0  0  0
 27 33  1  1  0  0  0
 29 30  1  0  0  0  0
 31 32  1  6  0  0  0
 33 34  1  0  0  0  0
M  END
>  <CHROM.1>
174.95794730,60.12182207,171.56707026,-163.91258231,175.32085241,-174.13687437
-176.36756338,-64.60623816,0.29222937,-8.76668109,47.40485980,0.88376749
-0.68618661,-1.03909310

>  <Name>
2o3v_lig

>  <RI>
0

>  <Rbt.Current_Directory>
/home/afrankz/demos/rdock_decoys_rna/rnas/2o3v

>  <Rbt.Executable>
rbdock ($Id: //depot/dev/client3/rdock/2013.1/src/exe/rbdock.cxx#4 $)

>  <Rbt.Library>
libRbt.so (2013.1, Build901 2013/11/27)

>  <Rbt.Parameter_File>
/export/apps/rDock/src/rDock_2013.1_src/data/scripts/dock_solv.prm

>  <Rbt.Receptor>
prm/pocket_docking_7.prm

>  <SCORE>
-9.92693

>  <SCORE.INTER>
-4.02253

>  <SCORE.INTER.CONST>
1

>  <SCORE.INTER.POLAR>
-0.955238

>  <SCORE.INTER.ROT>
8

>  <SCORE.INTER.SOLV>
11.857

>  <SCORE.INTER.VDW>
-12.3832

>  <SCORE.INTER.norm>
-0.114929

>  <SCORE.INTRA>
-5.90441

>  <SCORE.INTRA.DIHEDRAL>
-11.0015

>  <SCORE.INTRA.DIHEDRAL.0>
13.1227

>  <SCORE.INTRA.POLAR>
0

>  <SCORE.INTRA.POLAR.0>
0

>  <SCORE.INTRA.REPUL>
0

>  <SCORE.INTRA.REPUL.0>
0

>  <SCORE.INTRA.SOLV>
-0.89264

>  <SCORE.INTRA.SOLV.lig_0>
-89.1587

>  <SCORE.INTRA.VDW>
0.0426409

>  <SCORE.INTRA.VDW.0>
-0.838383

>  <SCORE.INTRA.norm>
-0.168697

>  <SCORE.RESTR>
0

>  <SCORE.RESTR.CAVITY>
0

>  <SCORE.RESTR.norm>
0

>  <SCORE.SYSTEM>
0

>  <SCORE.SYSTEM.CONST>
0

>  <SCORE.SYSTEM.DIHEDRAL>
0

>  <SCORE.SYSTEM.SOLV>
0

>  <SCORE.SYSTEM.norm>
0

>  <SCORE.heavy>
35

>  <SCORE.norm>
-0.283627

>  <RMSD>
5.042

$$$$
2o3v_lig
 OpenBabel02141814113D
libRbt.so/2013.1/901 2013/11/27
 35 37  0  0  0  0  0  0  0  0999 V2000
    5.9828   -5.3229   44.0627 C   0  0  2  0  0  0  0  0  0  0  0  0
    5.7858   -5.0789   45.4890 O   0  0  0  0  0  0  0  0  0  0  0  0
    8.3814   -5.0614   48.9805 C   0  0  2  0  0  0  0  0  0  0  0  0
    9.2649   -5.5413   50.0856 N   0  0  0  0  0  0  0  0  0  0  0  0
   -2.5542   -8.5237   44.9626 C   0  0  2  0  0  0  0  0  0  0  0  0
   -2.5052   -8.0987   46.3419 O   0  0  0  0  0  0  0  0  0  0  0  0
    4.7032   -4.7030   43.4171 C   0  0  2  0  0  0  0  0  0  0  0  0
    4.5826   -3.2624   43.7435 N   0  0  0  0  0  0  0  0  0  0  0  0
    6.9300   -5.6915   49.1284 C   0  0  0  0  0  0  0  0  0  0  0  0
   -1.1473   -8.2389   44.3318 C   0  0  2  0  0  0  0  0  0  0  0  0
   -0.0750   -8.9384   45.0839 N   0  0  0  0  0  0  0  0  0  0  0  0
    3.3875   -5.4694   43.8767 C   0  0  1  0  0  0  0  0  0  0  0  0
    2.1788   -4.8371   43.2872 O   0  0  0  0  0  0  0  0  0  0  0  0
    6.0145   -5.1749   47.9354 C   0  0  2  0  0  0  0  0  0  0  0  0
    4.6609   -5.7593   48.0479 N   0  0  0  0  0  0  0  0  0  0  0  0
   -0.8438   -6.6777   44.2584 C   0  0  1  0  0  0  0  0  0  0  0  0
    0.4389   -6.3836   43.6477 O   0  0  0  0  0  0  0  0  0  0  0  0
    3.5725   -7.0037   43.4956 C   0  0  2  0  0  0  0  0  0  0  0  0
    2.4525   -7.7750   43.8916 O   0  0  0  0  0  0  0  0  0  0  0  0
    6.6618   -5.5744   46.5460 C   0  0  2  0  0  0  0  0  0  0  0  0
   -1.9873   -5.9883   43.4488 C   0  0  2  0  0  0  0  0  0  0  0  0
   -1.7756   -4.5930   43.3596 O   0  0  0  0  0  0  0  0  0  0  0  0
    4.8813   -7.5838   44.1544 C   0  0  2  0  0  0  0  0  0  0  0  0
    6.0485   -6.7756   43.7434 O   0  0  0  0  0  0  0  0  0  0  0  0
    8.0831   -4.9593   46.4123 C   0  0  2  0  0  0  0  0  0  0  0  0
    8.6290   -5.3995   45.1358 O   0  0  0  0  0  0  0  0  0  0  0  0
   -3.3860   -6.3040   44.1146 C   0  0  2  0  0  0  0  0  0  0  0  0
   -3.5912   -7.7675   44.2095 O   0  0  0  0  0  0  0  0  0  0  0  0
    5.1024   -9.0470   43.7736 C   0  0  0  0  0  0  0  0  0  0  0  0
    6.1656   -9.6062   44.5056 O   0  0  0  0  0  0  0  0  0  0  0  0
    8.9762   -5.4566   47.5730 C   0  0  1  0  0  0  0  0  0  0  0  0
   10.2574   -4.8799   47.4314 O   0  0  0  0  0  0  0  0  0  0  0  0
   -4.5370   -5.6880   43.3338 C   0  0  0  0  0  0  0  0  0  0  0  0
   -4.4174   -4.2862   43.3067 O   0  0  0  0  0  0  0  0  0  0  0  0
    0.9108   -5.0719   44.0743 C   0  0  0  0  0  0  0  0  0  0  0  0
  1  2  1  1  0  0  0
  1  7  1  0  0  0  0
  1 24  1  0  0  0  0
  3  4  1  1  0  0  0
  3  9  1  0  0  0  0
  3 31  1  0  0  0  0
  5  6  1  1  0  0  0
  5 10  1  0  0  0  0
  5 28  1  0  0  0  0
  7  8  1  1  0  0  0
  7 12  1  0  0  0  0
  9 14  1  0  0  0  0
 10 11  1  1  0  0  0
 10 16  1  0  0  0  0
 12 13  1  6  0  0  0
 12 18  1  0  0  0  0
 13 35  1  0  0  0  0
 14 15  1  1  0  0  0
 14 20  1  0  0  0  0
 16 17  1  6  0  0  0
 16 21  1  0  0  0  0
 17 35  1  0  0  0  0
 18 19  1  1  0  0  0
 18 23  1  0  0  0  0
 20  2  1  6  0  0  0
 20 25  1  0  0  0  0
 21 22  1  1  0  0  0
 21 27  1  0  0  0  0
 23 24  1  0  0  0  0
 23 29  1  6  0  0  0
 25 26  1  6  0  0  0
 25 31  1  0  0  0  0
 27 28  1  0  0  0  0
 27 33  1  6  0  0  0
 29 30  1  0  0  0  0
 31 32  1  6  0  0  0
 33 34  1  0  0  0  0
M  END
>  <CHROM.1>
174.48748196,-155.24875301,-82.84683465,-157.05389838,-175.31818624,-175.58409086
-172.00784462,-61.70725099,3.02587008,-6.19286121,45.08990117,-0.19824357
-0.21137158,-1.07867861

>  <Name>
2o3v_lig

>  <RI>
0

>  <Rbt.Current_Directory>
/home/afrankz/demos/rdock_decoys_rna/rnas/2o3v

>  <Rbt.Executable>
rbdock ($Id: //depot/dev/client3/rdock/2013.1/src/exe/rbdock.cxx#4 $)

>  <Rbt.Library>
libRbt.so (2013.1, Build901 2013/11/27)

>  <Rbt.Parameter_File>
/export/apps/rDock/src/rDock_2013.1_src/data/scripts/dock_solv.prm

>  <Rbt.Receptor>
prm/pocket_docking_7.prm

>  <SCORE>
-14.235

>  <SCORE.INTER>
-10.8088

>  <SCORE.INTER.CONST>
1

>  <SCORE.INTER.POLAR>
-0.958193

>  <SCORE.INTER.ROT>
8

>  <SCORE.INTER.SOLV>
13.9661

>  <SCORE.INTER.VDW>
-17.6006

>  <SCORE.INTER.norm>
-0.308823

>  <SCORE.INTRA>
-3.42623

>  <SCORE.INTRA.DIHEDRAL>
-5.27876

>  <SCORE.INTRA.DIHEDRAL.0>
13.1227

>  <SCORE.INTRA.POLAR>
0

>  <SCORE.INTRA.POLAR.0>
0

>  <SCORE.INTRA.REPUL>
0

>  <SCORE.INTRA.REPUL.0>
0

>  <SCORE.INTRA.SOLV>
0.415884

>  <SCORE.INTRA.SOLV.lig_0>
-89.1587

>  <SCORE.INTRA.VDW>
-0.994789

>  <SCORE.INTRA.VDW.0>
-0.838383

>  <SCORE.INTRA.norm>
-0.0978922

>  <SCORE.RESTR>
0

>  <SCORE.RESTR.CAVITY>
0

>  <SCORE.RESTR.norm>
0

>  <SCORE.SYSTEM>
0

>  <SCORE.SYSTEM.CONST>
0

>  <SCORE.SYSTEM.DIHEDRAL>
0

>  <SCORE.SYSTEM.SOLV>
0

>  <SCORE.SYSTEM.norm>
0

>  <SCORE.heavy>
35

>  <SCORE.norm>
-0.406715

>  <RMSD>
5.176

$$$$
2o3v_lig
 OpenBabel02141814113D
libRbt.so/2013.1/901 2013/11/27
 35 37  0  0  0  0  0  0  0  0999 V2000
    3.5817   -3.8948   43.5968 C   0  0  2  0  0  0  0  0  0  0  0  0
    3.6522   -5.3070   43.2313 O   0  0  0  0  0  0  0  0  0  0  0  0
    7.0104   -7.8631   42.1749 C   0  0  2  0  0  0  0  0  0  0  0  0
    8.2334   -8.7120   42.3012 N   0  0  0  0  0  0  0  0  0  0  0  0
   -3.9400   -5.8853   45.4707 C   0  0  2  0  0  0  0  0  0  0  0  0
   -3.4240   -6.4528   46.6943 O   0  0  0  0  0  0  0  0  0  0  0  0
    2.0455   -3.6258   43.6766 C   0  0  2  0  0  0  0  0  0  0  0  0
    1.3975   -4.5114   44.6727 N   0  0  0  0  0  0  0  0  0  0  0  0
    7.3197   -6.3831   42.6642 C   0  0  0  0  0  0  0  0  0  0  0  0
   -2.8849   -6.1581   44.3435 C   0  0  2  0  0  0  0  0  0  0  0  0
   -2.6180   -7.6121   44.2042 N   0  0  0  0  0  0  0  0  0  0  0  0
    1.3462   -3.8093   42.2600 C   0  0  1  0  0  0  0  0  0  0  0  0
   -0.1201   -3.5927   42.3665 O   0  0  0  0  0  0  0  0  0  0  0  0
    6.0009   -5.5048   42.5306 C   0  0  2  0  0  0  0  0  0  0  0  0
    6.2641   -4.1249   42.9923 N   0  0  0  0  0  0  0  0  0  0  0  0
   -1.5276   -5.3692   44.6086 C   0  0  1  0  0  0  0  0  0  0  0  0
   -0.5441   -5.5772   43.5626 O   0  0  0  0  0  0  0  0  0  0  0  0
    2.0772   -2.8324   41.2379 C   0  0  2  0  0  0  0  0  0  0  0  0
    1.5345   -2.9451   39.9345 O   0  0  0  0  0  0  0  0  0  0  0  0
    4.8346   -6.1482   43.3879 C   0  0  2  0  0  0  0  0  0  0  0  0
   -1.8554   -3.8475   44.7337 C   0  0  2  0  0  0  0  0  0  0  0  0
   -0.6840   -3.0951   44.9813 O   0  0  0  0  0  0  0  0  0  0  0  0
    3.6248   -3.1280   41.2002 C   0  0  2  0  0  0  0  0  0  0  0  0
    4.1890   -3.0138   42.5616 O   0  0  0  0  0  0  0  0  0  0  0  0
    4.5430   -7.5973   42.9069 C   0  0  2  0  0  0  0  0  0  0  0  0
    3.4941   -8.1363   43.7616 O   0  0  0  0  0  0  0  0  0  0  0  0
   -2.9240   -3.6177   45.8758 C   0  0  2  0  0  0  0  0  0  0  0  0
   -4.1414   -4.4174   45.6087 O   0  0  0  0  0  0  0  0  0  0  0  0
    4.3565   -2.1779   40.2533 C   0  0  0  0  0  0  0  0  0  0  0  0
    3.9023   -2.3311   38.9307 O   0  0  0  0  0  0  0  0  0  0  0  0
    5.8243   -8.4544   43.0319 C   0  0  1  0  0  0  0  0  0  0  0  0
    5.5344   -9.7619   42.5842 O   0  0  0  0  0  0  0  0  0  0  0  0
   -3.3082   -2.1516   46.0055 C   0  0  0  0  0  0  0  0  0  0  0  0
   -4.0024   -1.9305   47.2093 O   0  0  0  0  0  0  0  0  0  0  0  0
   -0.9365   -4.8637   42.3534 C   0  0  0  0  0  0  0  0  0  0  0  0
  1  2  1  6  0  0  0
  1  7  1  0  0  0  0
  1 24  1  0  0  0  0
  3  4  1  1  0  0  0
  3  9  1  0  0  0  0
  3 31  1  0  0  0  0
  5  6  1  1  0  0  0
  5 10  1  0  0  0  0
  5 28  1  0  0  0  0
  7  8  1  1  0  0  0
  7 12  1  0  0  0  0
  9 14  1  0  0  0  0
 10 11  1  1  0  0  0
 10 16  1  0  0  0  0
 12 13  1  1  0  0  0
 12 18  1  0  0  0  0
 13 35  1  0  0  0  0
 14 15  1  1  0  0  0
 14 20  1  0  0  0  0
 16 17  1  6  0  0  0
 16 21  1  0  0  0  0
 17 35  1  0  0  0  0
 18 19  1  6  0  0  0
 18 23  1  0  0  0  0
 20  2  1  6  0  0  0
 20 25  1  0  0  0  0
 21 22  1  1  0  0  0
 21 27  1  0  0  0  0
 23 24  1  0  0  0  0
 23 29  1  6  0  0  0
 25 26  1  1  0  0  0
 25 31  1  0  0  0  0
 27 28  1  0  0  0  0
 27 33  1  6  0  0  0
 29 30  1  0  0  0  0
 31 32  1  6  0  0  0
 33 34  1  0  0  0  0
M  END
>  <CHROM.1>
-162.04265082,-103.39035962,64.17756789,72.60198035,99.52203005,-59.69664473
-62.00977395,-166.14981816,1.60551175,-4.97600916,43.37173986,-0.04327707
0.40216339,-0.43917337

>  <Name>
2o3v_lig

>  <RI>
0

>  <Rbt.Current_Directory>
/home/afrankz/demos/rdock_decoys_rna/rnas/2o3v

>  <Rbt.Executable>
rbdock ($Id: //depot/dev/client3/rdock/2013.1/src/exe/rbdock.cxx#4 $)

>  <Rbt.Library>
libRbt.so (2013.1, Build901 2013/11/27)

>  <Rbt.Parameter_File>
/export/apps/rDock/src/rDock_2013.1_src/data/scripts/dock_solv.prm

>  <Rbt.Receptor>
prm/blind_docking_100.prm

>  <SCORE>
-1.52727

>  <SCORE.INTER>
-12.1801

>  <SCORE.INTER.CONST>
1

>  <SCORE.INTER.POLAR>
-0.98629

>  <SCORE.INTER.ROT>
8

>  <SCORE.INTER.SOLV>
23.9802

>  <SCORE.INTER.VDW>
-21.7592

>  <SCORE.INTER.norm>
-0.348003

>  <SCORE.INTRA>
7.1735

>  <SCORE.INTRA.DIHEDRAL>
1.15889

>  <SCORE.INTRA.DIHEDRAL.0>
13.1227

>  <SCORE.INTRA.POLAR>
0

>  <SCORE.INTRA.POLAR.0>
0

>  <SCORE.INTRA.REPUL>
0.123201

>  <SCORE.INTRA.REPUL.0>
0

>  <SCORE.INTRA.SOLV>
6.95873

>  <SCORE.INTRA.SOLV.lig_0>
-89.1587

>  <SCORE.INTRA.VDW>
2.49869

>  <SCORE.INTRA.VDW.0>
-0.838383

>  <SCORE.INTRA.norm>
0.204957

>  <SCORE.RESTR>
3.47932

>  <SCORE.RESTR.CAVITY>
3.47932

>  <SCORE.RESTR.norm>
0.0994092

>  <SCORE.SYSTEM>
0

>  <SCORE.SYSTEM.CONST>
0

>  <SCORE.SYSTEM.DIHEDRAL>
0

>  <SCORE.SYSTEM.SOLV>
0

>  <SCORE.SYSTEM.norm>
0

>  <SCORE.heavy>
35

>  <SCORE.norm>
-0.0436364

>  <RMSD>
5.222

$$$$
2o3v_lig
 OpenBabel02141814113D
libRbt.so/2013.1/901 2013/11/27
 35 37  0  0  0  0  0  0  0  0999 V2000
    1.3856   -5.0143   42.4684 C   0  0  2  0  0  0  0  0  0  0  0  0
    2.2596   -4.7675   43.6122 O   0  0  0  0  0  0  0  0  0  0  0  0
    5.9530   -6.8545   42.6475 C   0  0  2  0  0  0  0  0  0  0  0  0
    7.3264   -7.4281   42.7782 N   0  0  0  0  0  0  0  0  0  0  0  0
   -6.0143   -1.4219   42.6805 C   0  0  2  0  0  0  0  0  0  0  0  0
   -5.1902   -1.7357   41.5368 O   0  0  0  0  0  0  0  0  0  0  0  0
    0.2305   -3.9844   42.6766 C   0  0  2  0  0  0  0  0  0  0  0  0
    0.7500   -2.5970   42.7154 N   0  0  0  0  0  0  0  0  0  0  0  0
    6.0039   -5.2738   42.8034 C   0  0  0  0  0  0  0  0  0  0  0  0
   -5.0586   -1.2049   43.9043 C   0  0  2  0  0  0  0  0  0  0  0  0
   -4.0731   -0.1294   43.6263 N   0  0  0  0  0  0  0  0  0  0  0  0
   -0.5898   -4.2876   44.0050 C   0  0  1  0  0  0  0  0  0  0  0  0
   -1.6550   -3.2714   44.2077 O   0  0  0  0  0  0  0  0  0  0  0  0
    4.5305   -4.6905   42.6721 C   0  0  2  0  0  0  0  0  0  0  0  0
    4.5538   -3.2200   42.8259 N   0  0  0  0  0  0  0  0  0  0  0  0
   -4.3098   -2.5506   44.3083 C   0  0  1  0  0  0  0  0  0  0  0  0
   -3.4431   -2.3865   45.4600 O   0  0  0  0  0  0  0  0  0  0  0  0
   -1.1260   -5.7828   43.9028 C   0  0  2  0  0  0  0  0  0  0  0  0
   -1.8530   -6.1532   45.0604 O   0  0  0  0  0  0  0  0  0  0  0  0
    3.5945   -5.3344   43.7760 C   0  0  2  0  0  0  0  0  0  0  0  0
   -5.3836   -3.6452   44.6041 C   0  0  2  0  0  0  0  0  0  0  0  0
   -4.7740   -4.8707   44.9594 O   0  0  0  0  0  0  0  0  0  0  0  0
    0.0692   -6.7853   43.6782 C   0  0  2  0  0  0  0  0  0  0  0  0
    0.8292   -6.3952   42.4721 O   0  0  0  0  0  0  0  0  0  0  0  0
    3.5554   -6.8805   43.6201 C   0  0  2  0  0  0  0  0  0  0  0  0
    2.7131   -7.4039   44.6867 O   0  0  0  0  0  0  0  0  0  0  0  0
   -6.3270   -3.8289   43.3489 C   0  0  2  0  0  0  0  0  0  0  0  0
   -6.9518   -2.5373   42.9825 O   0  0  0  0  0  0  0  0  0  0  0  0
   -0.4225   -8.2254   43.5393 C   0  0  0  0  0  0  0  0  0  0  0  0
    0.6563   -9.1190   43.4104 O   0  0  0  0  0  0  0  0  0  0  0  0
    4.9873   -7.4519   43.7436 C   0  0  1  0  0  0  0  0  0  0  0  0
    4.9247   -8.8546   43.5931 O   0  0  0  0  0  0  0  0  0  0  0  0
   -7.4187   -4.8565   43.6063 C   0  0  0  0  0  0  0  0  0  0  0  0
   -8.1950   -5.0487   42.4485 O   0  0  0  0  0  0  0  0  0  0  0  0
   -2.4379   -3.4419   45.4884 C   0  0  0  0  0  0  0  0  0  0  0  0
  1  2  1  1  0  0  0
  1  7  1  0  0  0  0
  1 24  1  0  0  0  0
  3  4  1  1  0  0  0
  3  9  1  0  0  0  0
  3 31  1  0  0  0  0
  5  6  1  6  0  0  0
  5 10  1  0  0  0  0
  5 28  1  0  0  0  0
  7  8  1  1  0  0  0
  7 12  1  0  0  0  0
  9 14  1  0  0  0  0
 10 11  1  6  0  0  0
 10 16  1  0  0  0  0
 12 13  1  6  0  0  0
 12 18  1  0  0  0  0
 13 35  1  0  0  0  0
 14 15  1  1  0  0  0
 14 20  1  0  0  0  0
 16 17  1  1  0  0  0
 16 21  1  0  0  0  0
 17 35  1  0  0  0  0
 18 19  1  1  0  0  0
 18 23  1  0  0  0  0
 20  2  1  6  0  0  0
 20 25  1  0  0  0  0
 21 22  1  6  0  0  0
 21 27  1  0  0  0  0
 23 24  1  0  0  0  0
 23 29  1  6  0  0  0
 25 26  1  1  0  0  0
 25 31  1  0  0  0  0
 27 28  1  0  0  0  0
 27 33  1  1  0  0  0
 29 30  1  0  0  0  0
 31 32  1  6  0  0  0
 33 34  1  0  0  0  0
M  END
>  <CHROM.1>
-170.11353338,-176.92671899,-178.04603433,-158.93138738,60.94575726,67.72467483
-176.87392517,-176.84076332,-0.65997982,-4.80846258,43.54851753,-0.33756398
0.06662569,-0.10058446

>  <Name>
2o3v_lig

>  <RI>
0

>  <Rbt.Current_Directory>
/home/afrankz/demos/rdock_decoys_rna/rnas/2o3v

>  <Rbt.Executable>
rbdock ($Id: //depot/dev/client3/rdock/2013.1/src/exe/rbdock.cxx#4 $)

>  <Rbt.Library>
libRbt.so (2013.1, Build901 2013/11/27)

>  <Rbt.Parameter_File>
/export/apps/rDock/src/rDock_2013.1_src/data/scripts/dock_solv.prm

>  <Rbt.Receptor>
prm/pocket_docking_8.prm

>  <SCORE>
-20.037

>  <SCORE.INTER>
-14.3777

>  <SCORE.INTER.CONST>
1

>  <SCORE.INTER.POLAR>
-1.83095

>  <SCORE.INTER.ROT>
8

>  <SCORE.INTER.SOLV>
13.8257

>  <SCORE.INTER.VDW>
-17.0239

>  <SCORE.INTER.norm>
-0.410792

>  <SCORE.INTRA>
-5.65926

>  <SCORE.INTRA.DIHEDRAL>
-10.1911

>  <SCORE.INTRA.DIHEDRAL.0>
13.1227

>  <SCORE.INTRA.POLAR>
0

>  <SCORE.INTRA.POLAR.0>
0

>  <SCORE.INTRA.REPUL>
0

>  <SCORE.INTRA.REPUL.0>
0

>  <SCORE.INTRA.SOLV>
1.09983

>  <SCORE.INTRA.SOLV.lig_0>
-89.1587

>  <SCORE.INTRA.VDW>
-1.11363

>  <SCORE.INTRA.VDW.0>
-0.838383

>  <SCORE.INTRA.norm>
-0.161693

>  <SCORE.RESTR>
0

>  <SCORE.RESTR.CAVITY>
0

>  <SCORE.RESTR.norm>
0

>  <SCORE.SYSTEM>
0

>  <SCORE.SYSTEM.CONST>
0

>  <SCORE.SYSTEM.DIHEDRAL>
0

>  <SCORE.SYSTEM.SOLV>
0

>  <SCORE.SYSTEM.norm>
0

>  <SCORE.heavy>
35

>  <SCORE.norm>
-0.572485

>  <RMSD>
5.260

$$$$
2o3v_lig
 OpenBabel02141814113D
libRbt.so/2013.1/901 2013/11/27
 35 37  0  0  0  0  0  0  0  0999 V2000
    5.3055   -5.7157   44.4126 C   0  0  2  0  0  0  0  0  0  0  0  0
    5.4918   -6.2395   45.7630 O   0  0  0  0  0  0  0  0  0  0  0  0
    8.6217   -6.1500   48.7835 C   0  0  2  0  0  0  0  0  0  0  0  0
    9.6148   -5.6335   49.7730 N   0  0  0  0  0  0  0  0  0  0  0  0
   -3.1629   -9.2952   45.7199 C   0  0  2  0  0  0  0  0  0  0  0  0
   -2.7981   -9.0798   47.1005 O   0  0  0  0  0  0  0  0  0  0  0  0
    3.9170   -6.2961   43.9959 C   0  0  2  0  0  0  0  0  0  0  0  0
    2.8528   -5.8644   44.9327 N   0  0  0  0  0  0  0  0  0  0  0  0
    8.9674   -5.6099   47.3295 C   0  0  0  0  0  0  0  0  0  0  0  0
   -1.8758   -9.7715   44.9616 C   0  0  2  0  0  0  0  0  0  0  0  0
   -1.3175  -11.0007   45.5799 N   0  0  0  0  0  0  0  0  0  0  0  0
    3.9485   -7.8841   43.9144 C   0  0  1  0  0  0  0  0  0  0  0  0
    2.6078   -8.4182   43.5602 O   0  0  0  0  0  0  0  0  0  0  0  0
    7.8904   -6.1639   46.2991 C   0  0  2  0  0  0  0  0  0  0  0  0
    8.1875   -5.6630   44.9399 N   0  0  0  0  0  0  0  0  0  0  0  0
   -0.7701   -8.6272   44.9090 C   0  0  1  0  0  0  0  0  0  0  0  0
    0.4200   -9.0297   44.1834 O   0  0  0  0  0  0  0  0  0  0  0  0
    5.1012   -8.2857   42.8928 C   0  0  2  0  0  0  0  0  0  0  0  0
    5.2211   -9.6919   42.7731 O   0  0  0  0  0  0  0  0  0  0  0  0
    6.4385   -5.7071   46.7379 C   0  0  2  0  0  0  0  0  0  0  0  0
   -1.3970   -7.3630   44.2402 C   0  0  2  0  0  0  0  0  0  0  0  0
   -0.4599   -6.3059   44.1757 O   0  0  0  0  0  0  0  0  0  0  0  0
    6.4794   -7.6677   43.3425 C   0  0  2  0  0  0  0  0  0  0  0  0
    6.3516   -6.2008   43.4707 O   0  0  0  0  0  0  0  0  0  0  0  0
    6.1111   -6.2343   48.1631 C   0  0  2  0  0  0  0  0  0  0  0  0
    4.7850   -5.7447   48.5138 O   0  0  0  0  0  0  0  0  0  0  0  0
   -2.6919   -6.9198   45.0315 C   0  0  2  0  0  0  0  0  0  0  0  0
   -3.6605   -8.0379   45.0989 O   0  0  0  0  0  0  0  0  0  0  0  0
    7.5970   -8.0077   42.3575 C   0  0  0  0  0  0  0  0  0  0  0  0
    8.8445   -7.5656   42.8341 O   0  0  0  0  0  0  0  0  0  0  0  0
    7.1585   -5.7006   49.1683 C   0  0  1  0  0  0  0  0  0  0  0  0
    6.8420   -6.1976   50.4516 O   0  0  0  0  0  0  0  0  0  0  0  0
   -3.3634   -5.7152   44.3898 C   0  0  0  0  0  0  0  0  0  0  0  0
   -4.4811   -5.3156   45.1455 O   0  0  0  0  0  0  0  0  0  0  0  0
    1.5759   -8.2766   44.6544 C   0  0  0  0  0  0  0  0  0  0  0  0
  1  2  1  1  0  0  0
  1  7  1  0  0  0  0
  1 24  1  0  0  0  0
  3  4  1  1  0  0  0
  3  9  1  0  0  0  0
  3 31  1  0  0  0  0
  5  6  1  1  0  0  0
  5 10  1  0  0  0  0
  5 28  1  0  0  0  0
  7  8  1  1  0  0  0
  7 12  1  0  0  0  0
  9 14  1  0  0  0  0
 10 11  1  1  0  0  0
 10 16  1  0  0  0  0
 12 13  1  6  0  0  0
 12 18  1  0  0  0  0
 13 35  1  0  0  0  0
 14 15  1  6  0  0  0
 14 20  1  0  0  0  0
 16 17  1  6  0  0  0
 16 21  1  0  0  0  0
 17 35  1  0  0  0  0
 18 19  1  1  0  0  0
 18 23  1  0  0  0  0
 20  2  1  6  0  0  0
 20 25  1  0  0  0  0
 21 22  1  1  0  0  0
 21 27  1  0  0  0  0
 23 24  1  0  0  0  0
 23 29  1  6  0  0  0
 25 26  1  1  0  0  0
 25 31  1  0  0  0  0
 27 28  1  0  0  0  0
 27 33  1  6  0  0  0
 29 30  1  0  0  0  0
 31 32  1  1  0  0  0
 33 34  1  0  0  0  0
M  END
>  <CHROM.1>
-162.00722803,-70.19977809,-171.75526318,-153.98325776,-161.40355577,-74.50630668
-174.15918183,-177.75572678,3.22312140,-7.18869435,45.40667800,-0.18861867
-0.10233100,-1.91443010

>  <Name>
2o3v_lig

>  <RI>
0

>  <Rbt.Current_Directory>
/home/afrankz/demos/rdock_decoys_rna/rnas/2o3v

>  <Rbt.Executable>
rbdock ($Id: //depot/dev/client3/rdock/2013.1/src/exe/rbdock.cxx#4 $)

>  <Rbt.Library>
libRbt.so (2013.1, Build901 2013/11/27)

>  <Rbt.Parameter_File>
/export/apps/rDock/src/rDock_2013.1_src/data/scripts/dock_solv.prm

>  <Rbt.Receptor>
prm/pocket_docking_7.prm

>  <SCORE>
-12.6507

>  <SCORE.INTER>
-12.058

>  <SCORE.INTER.CONST>
1

>  <SCORE.INTER.POLAR>
-0.578634

>  <SCORE.INTER.ROT>
8

>  <SCORE.INTER.SOLV>
10.7079

>  <SCORE.INTER.VDW>
-18.6125

>  <SCORE.INTER.norm>
-0.344513

>  <SCORE.INTRA>
-0.592758

>  <SCORE.INTRA.DIHEDRAL>
-5.20204

>  <SCORE.INTRA.DIHEDRAL.0>
13.1227

>  <SCORE.INTRA.POLAR>
0

>  <SCORE.INTRA.POLAR.0>
0

>  <SCORE.INTRA.REPUL>
0.0208846

>  <SCORE.INTRA.REPUL.0>
0

>  <SCORE.INTRA.SOLV>
4.25703

>  <SCORE.INTRA.SOLV.lig_0>
-89.1587

>  <SCORE.INTRA.VDW>
-0.224675

>  <SCORE.INTRA.VDW.0>
-0.838383

>  <SCORE.INTRA.norm>
-0.0169359

>  <SCORE.RESTR>
0

>  <SCORE.RESTR.CAVITY>
0

>  <SCORE.RESTR.norm>
0

>  <SCORE.SYSTEM>
0

>  <SCORE.SYSTEM.CONST>
0

>  <SCORE.SYSTEM.DIHEDRAL>
0

>  <SCORE.SYSTEM.SOLV>
0

>  <SCORE.SYSTEM.norm>
0

>  <SCORE.heavy>
35

>  <SCORE.norm>
-0.361449

>  <RMSD>
5.295

$$$$
2o3v_lig
 OpenBabel02141814113D
libRbt.so/2013.1/901 2013/11/27
 35 37  0  0  0  0  0  0  0  0999 V2000
    4.0884   -3.5637   43.6438 C   0  0  2  0  0  0  0  0  0  0  0  0
    3.9084   -5.0057   43.4991 O   0  0  0  0  0  0  0  0  0  0  0  0
    6.8892   -7.8443   42.0905 C   0  0  2  0  0  0  0  0  0  0  0  0
    8.0078   -8.8347   42.0922 N   0  0  0  0  0  0  0  0  0  0  0  0
   -4.0417   -5.3498   45.8999 C   0  0  2  0  0  0  0  0  0  0  0  0
   -3.0689   -5.7592   46.8856 O   0  0  0  0  0  0  0  0  0  0  0  0
    2.6276   -3.0398   43.8166 C   0  0  2  0  0  0  0  0  0  0  0  0
    1.9718   -3.6589   44.9926 N   0  0  0  0  0  0  0  0  0  0  0  0
    7.3932   -6.4498   42.6622 C   0  0  0  0  0  0  0  0  0  0  0  0
   -3.2535   -4.8378   44.6449 C   0  0  2  0  0  0  0  0  0  0  0  0
   -2.3483   -5.8905   44.1184 N   0  0  0  0  0  0  0  0  0  0  0  0
    1.7544   -3.3046   42.5139 C   0  0  1  0  0  0  0  0  0  0  0  0
    0.3574   -2.8394   42.7149 O   0  0  0  0  0  0  0  0  0  0  0  0
    6.1826   -5.4188   42.6604 C   0  0  2  0  0  0  0  0  0  0  0  0
    6.6278   -4.1161   43.2002 N   0  0  0  0  0  0  0  0  0  0  0  0
   -2.4319   -3.5133   44.9697 C   0  0  1  0  0  0  0  0  0  0  0  0
   -1.7189   -2.9981   43.8161 O   0  0  0  0  0  0  0  0  0  0  0  0
    2.5023   -2.6134   41.2906 C   0  0  2  0  0  0  0  0  0  0  0  0
    1.8061   -2.8186   40.0744 O   0  0  0  0  0  0  0  0  0  0  0  0
    4.9890   -5.9861   43.5337 C   0  0  2  0  0  0  0  0  0  0  0  0
   -3.4247   -2.4334   45.5054 C   0  0  2  0  0  0  0  0  0  0  0  0
   -2.7467   -1.2336   45.8219 O   0  0  0  0  0  0  0  0  0  0  0  0
    3.9752   -3.1592   41.1625 C   0  0  2  0  0  0  0  0  0  0  0  0
    4.6991   -2.9478   42.4336 O   0  0  0  0  0  0  0  0  0  0  0  0
    4.5066   -7.3526   42.9715 C   0  0  2  0  0  0  0  0  0  0  0  0
    3.4417   -7.8297   43.8429 O   0  0  0  0  0  0  0  0  0  0  0  0
   -4.2003   -2.9909   46.7652 C   0  0  2  0  0  0  0  0  0  0  0  0
   -4.8984   -4.2511   46.4224 O   0  0  0  0  0  0  0  0  0  0  0  0
    4.7282   -2.4837   40.0173 C   0  0  0  0  0  0  0  0  0  0  0  0
    4.3400   -3.0135   38.7733 O   0  0  0  0  0  0  0  0  0  0  0  0
    5.6821   -8.3577   42.9681 C   0  0  1  0  0  0  0  0  0  0  0  0
    5.2195   -9.5866   42.4486 O   0  0  0  0  0  0  0  0  0  0  0  0
   -5.2128   -1.9878   47.2967 C   0  0  0  0  0  0  0  0  0  0  0  0
   -6.3165   -1.8971   46.4286 O   0  0  0  0  0  0  0  0  0  0  0  0
   -0.4559   -3.7064   43.6472 C   0  0  0  0  0  0  0  0  0  0  0  0
  1  2  1  6  0  0  0
  1  7  1  0  0  0  0
  1 24  1  0  0  0  0
  3  4  1  1  0  0  0
  3  9  1  0  0  0  0
  3 31  1  0  0  0  0
  5  6  1  1  0  0  0
  5 10  1  0  0  0  0
  5 28  1  0  0  0  0
  7  8  1  1  0  0  0
  7 12  1  0  0  0  0
  9 14  1  0  0  0  0
 10 11  1  1  0  0  0
 10 16  1  0  0  0  0
 12 13  1  1  0  0  0
 12 18  1  0  0  0  0
 13 35  1  0  0  0  0
 14 15  1  1  0  0  0
 14 20  1  0  0  0  0
 16 17  1  6  0  0  0
 16 21  1  0  0  0  0
 17 35  1  0  0  0  0
 18 19  1  6  0  0  0
 18 23  1  0  0  0  0
 20  2  1  6  0  0  0
 20 25  1  0  0  0  0
 21 22  1  1  0  0  0
 21 27  1  0  0  0  0
 23 24  1  0  0  0  0
 23 29  1  6  0  0  0
 25 26  1  1  0  0  0
 25 31  1  0  0  0  0
 27 28  1  0  0  0  0
 27 33  1  6  0  0  0
 29 30  1  0  0  0  0
 31 32  1  6  0  0  0
 33 34  1  0  0  0  0
M  END
>  <CHROM.1>
-169.15562144,-72.32141068,173.87866404,-82.40397795,-163.62274216,-43.78487650
-77.45416957,72.64092245,1.41581421,-4.46818212,43.58842784,-0.07232187,0.44382417
-0.47490308

>  <Name>
2o3v_lig

>  <RI>
0

>  <Rbt.Current_Directory>
/home/afrankz/demos/rdock_decoys_rna/rnas/2o3v

>  <Rbt.Executable>
rbdock ($Id: //depot/dev/client3/rdock/2013.1/src/exe/rbdock.cxx#4 $)

>  <Rbt.Library>
libRbt.so (2013.1, Build901 2013/11/27)

>  <Rbt.Parameter_File>
/export/apps/rDock/src/rDock_2013.1_src/data/scripts/dock_solv.prm

>  <Rbt.Receptor>
prm/blind_docking_60.prm

>  <SCORE>
-6.43433

>  <SCORE.INTER>
-9.88761

>  <SCORE.INTER.CONST>
1

>  <SCORE.INTER.POLAR>
-1.01818

>  <SCORE.INTER.ROT>
8

>  <SCORE.INTER.SOLV>
25.9675

>  <SCORE.INTER.VDW>
-20.787

>  <SCORE.INTER.norm>
-0.282503

>  <SCORE.INTRA>
0.550153

>  <SCORE.INTRA.DIHEDRAL>
-5.35714

>  <SCORE.INTRA.DIHEDRAL.0>
13.1227

>  <SCORE.INTRA.POLAR>
0

>  <SCORE.INTRA.POLAR.0>
0

>  <SCORE.INTRA.REPUL>
0

>  <SCORE.INTRA.REPUL.0>
0

>  <SCORE.INTRA.SOLV>
3.60668

>  <SCORE.INTRA.SOLV.lig_0>
-89.1587

>  <SCORE.INTRA.VDW>
1.42539

>  <SCORE.INTRA.VDW.0>
-0.838383

>  <SCORE.INTRA.norm>
0.0157187

>  <SCORE.RESTR>
2.90312

>  <SCORE.RESTR.CAVITY>
2.90312

>  <SCORE.RESTR.norm>
0.0829464

>  <SCORE.SYSTEM>
0

>  <SCORE.SYSTEM.CONST>
0

>  <SCORE.SYSTEM.DIHEDRAL>
0

>  <SCORE.SYSTEM.SOLV>
0

>  <SCORE.SYSTEM.norm>
0

>  <SCORE.heavy>
35

>  <SCORE.norm>
-0.183838

>  <RMSD>
5.355

$$$$
2o3v_lig
 OpenBabel02141814113D
libRbt.so/2013.1/901 2013/11/27
 35 37  0  0  0  0  0  0  0  0999 V2000
    5.5978   -6.3622   45.2718 C   0  0  2  0  0  0  0  0  0  0  0  0
    4.2263   -5.8627   45.2267 O   0  0  0  0  0  0  0  0  0  0  0  0
    2.0434   -2.6195   43.3177 C   0  0  2  0  0  0  0  0  0  0  0  0
    1.6196   -1.2417   42.9250 N   0  0  0  0  0  0  0  0  0  0  0  0
   -0.3281  -12.1879   49.0957 C   0  0  2  0  0  0  0  0  0  0  0  0
    0.2323  -12.0442   50.4189 O   0  0  0  0  0  0  0  0  0  0  0  0
    5.4103   -7.9124   45.2777 C   0  0  2  0  0  0  0  0  0  0  0  0
    4.6711   -8.3673   44.0765 N   0  0  0  0  0  0  0  0  0  0  0  0
    1.8717   -2.8182   44.8850 C   0  0  0  0  0  0  0  0  0  0  0  0
    0.7899  -11.8022   48.0664 C   0  0  2  0  0  0  0  0  0  0  0  0
    1.9955  -12.6501   48.2469 N   0  0  0  0  0  0  0  0  0  0  0  0
    4.6574   -8.4045   46.5894 C   0  0  1  0  0  0  0  0  0  0  0  0
    4.4497   -9.8756   46.5548 O   0  0  0  0  0  0  0  0  0  0  0  0
    2.3399   -4.2862   45.2777 C   0  0  2  0  0  0  0  0  0  0  0  0
    2.1989   -4.4883   46.7357 N   0  0  0  0  0  0  0  0  0  0  0  0
    1.1763  -10.2613   48.1716 C   0  0  1  0  0  0  0  0  0  0  0  0
    2.1861   -9.8688   47.2067 O   0  0  0  0  0  0  0  0  0  0  0  0
    5.4981   -7.8939   47.8409 C   0  0  2  0  0  0  0  0  0  0  0  0
    4.8868   -8.2665   49.0630 O   0  0  0  0  0  0  0  0  0  0  0  0
    3.8478   -4.5057   44.8451 C   0  0  2  0  0  0  0  0  0  0  0  0
   -0.1166   -9.4110   47.9619 C   0  0  2  0  0  0  0  0  0  0  0  0
    0.1649   -8.0284   48.0556 O   0  0  0  0  0  0  0  0  0  0  0  0
    5.6759   -6.3289   47.7870 C   0  0  2  0  0  0  0  0  0  0  0  0
    6.3103   -5.9415   46.5096 O   0  0  0  0  0  0  0  0  0  0  0  0
    4.0079   -4.3035   43.3122 C   0  0  2  0  0  0  0  0  0  0  0  0
    5.4183   -4.4804   42.9952 O   0  0  0  0  0  0  0  0  0  0  0  0
   -1.2174   -9.8340   49.0149 C   0  0  2  0  0  0  0  0  0  0  0  0
   -1.4963  -11.2847   48.9118 O   0  0  0  0  0  0  0  0  0  0  0  0
    6.5121   -5.8166   48.9588 C   0  0  0  0  0  0  0  0  0  0  0  0
    5.9308   -6.1716   50.1897 O   0  0  0  0  0  0  0  0  0  0  0  0
    3.5502   -2.8777   42.9253 C   0  0  1  0  0  0  0  0  0  0  0  0
    3.7001   -2.7220   41.5298 O   0  0  0  0  0  0  0  0  0  0  0  0
   -2.5133   -9.0613   48.8211 C   0  0  0  0  0  0  0  0  0  0  0  0
   -3.4430   -9.4032   49.8205 O   0  0  0  0  0  0  0  0  0  0  0  0
    3.4891  -10.3901   47.6012 C   0  0  0  0  0  0  0  0  0  0  0  0
  1  2  1  1  0  0  0
  1  7  1  0  0  0  0
  1 24  1  0  0  0  0
  3  4  1  1  0  0  0
  3  9  1  0  0  0  0
  3 31  1  0  0  0  0
  5  6  1  1  0  0  0
  5 10  1  0  0  0  0
  5 28  1  0  0  0  0
  7  8  1  6  0  0  0
  7 12  1  0  0  0  0
  9 14  1  0  0  0  0
 10 11  1  1  0  0  0
 10 16  1  0  0  0  0
 12 13  1  6  0  0  0
 12 18  1  0  0  0  0
 13 35  1  0  0  0  0
 14 15  1  1  0  0  0
 14 20  1  0  0  0  0
 16 17  1  6  0  0  0
 16 21  1  0  0  0  0
 17 35  1  0  0  0  0
 18 19  1  1  0  0  0
 18 23  1  0  0  0  0
 20  2  1  6  0  0  0
 20 25  1  0  0  0  0
 21 22  1  1  0  0  0
 21 27  1  0  0  0  0
 23 24  1  0  0  0  0
 23 29  1  1  0  0  0
 25 26  1  1  0  0  0
 25 31  1  0  0  0  0
 27 28  1  0  0  0  0
 27 33  1  6  0  0  0
 29 30  1  0  0  0  0
 31 32  1  6  0  0  0
 33 34  1  0  0  0  0
M  END
>  <CHROM.1>
-162.54124919,-167.40476972,68.07545451,-73.55984459,-178.01263292,-166.00262451
-57.97746487,-176.52614204,2.71945737,-7.39008630,46.70738331,-1.12079315
0.00933595,2.52042524

>  <Name>
2o3v_lig

>  <RI>
0

>  <Rbt.Current_Directory>
/home/afrankz/demos/rdock_decoys_rna/rnas/2o3v

>  <Rbt.Executable>
rbdock ($Id: //depot/dev/client3/rdock/2013.1/src/exe/rbdock.cxx#4 $)

>  <Rbt.Library>
libRbt.so (2013.1, Build901 2013/11/27)

>  <Rbt.Parameter_File>
/export/apps/rDock/src/rDock_2013.1_src/data/scripts/dock_solv.prm

>  <Rbt.Receptor>
prm/pocket_docking_7.prm

>  <SCORE>
-8.33102

>  <SCORE.INTER>
-3.35289

>  <SCORE.INTER.CONST>
1

>  <SCORE.INTER.POLAR>
-0.503645

>  <SCORE.INTER.ROT>
8

>  <SCORE.INTER.SOLV>
10.2178

>  <SCORE.INTER.VDW>
-12.8957

>  <SCORE.INTER.norm>
-0.0957969

>  <SCORE.INTRA>
-4.97813

>  <SCORE.INTRA.DIHEDRAL>
-8.72986

>  <SCORE.INTRA.DIHEDRAL.0>
13.1227

>  <SCORE.INTRA.POLAR>
0

>  <SCORE.INTRA.POLAR.0>
0

>  <SCORE.INTRA.REPUL>
0

>  <SCORE.INTRA.REPUL.0>
0

>  <SCORE.INTRA.SOLV>
0.249776

>  <SCORE.INTRA.SOLV.lig_0>
-89.1587

>  <SCORE.INTRA.VDW>
-0.738087

>  <SCORE.INTRA.VDW.0>
-0.838383

>  <SCORE.INTRA.norm>
-0.142232

>  <SCORE.RESTR>
0

>  <SCORE.RESTR.CAVITY>
0

>  <SCORE.RESTR.norm>
0

>  <SCORE.SYSTEM>
0

>  <SCORE.SYSTEM.CONST>
0

>  <SCORE.SYSTEM.DIHEDRAL>
0

>  <SCORE.SYSTEM.SOLV>
0

>  <SCORE.SYSTEM.norm>
0

>  <SCORE.heavy>
35

>  <SCORE.norm>
-0.238029

>  <RMSD>
5.360

$$$$
2o3v_lig
 OpenBabel02141814113D
libRbt.so/2013.1/901 2013/11/27
 35 37  0  0  0  0  0  0  0  0999 V2000
   -0.1187   -6.1651   43.0373 C   0  0  2  0  0  0  0  0  0  0  0  0
    0.4239   -4.9192   43.5723 O   0  0  0  0  0  0  0  0  0  0  0  0
    2.7698   -1.7712   41.6978 C   0  0  2  0  0  0  0  0  0  0  0  0
    3.9361   -1.0152   41.1496 N   0  0  0  0  0  0  0  0  0  0  0  0
   -4.6060  -12.1055   44.6990 C   0  0  2  0  0  0  0  0  0  0  0  0
   -5.3755  -11.3747   43.7195 O   0  0  0  0  0  0  0  0  0  0  0  0
   -1.3340   -6.4535   43.9745 C   0  0  2  0  0  0  0  0  0  0  0  0
   -2.3111   -5.3397   43.9432 N   0  0  0  0  0  0  0  0  0  0  0  0
    2.9677   -2.0283   43.2534 C   0  0  0  0  0  0  0  0  0  0  0  0
   -3.9323  -11.0548   45.6479 C   0  0  2  0  0  0  0  0  0  0  0  0
   -4.9513  -10.1848   46.2882 N   0  0  0  0  0  0  0  0  0  0  0  0
   -0.8671   -6.7159   45.4721 C   0  0  1  0  0  0  0  0  0  0  0  0
   -2.0402   -6.9441   46.3553 O   0  0  0  0  0  0  0  0  0  0  0  0
    1.7203   -2.8432   43.8088 C   0  0  2  0  0  0  0  0  0  0  0  0
    1.8901   -3.1035   45.2544 N   0  0  0  0  0  0  0  0  0  0  0  0
   -2.8578  -10.1710   44.8739 C   0  0  1  0  0  0  0  0  0  0  0  0
   -2.1941   -9.2117   45.7364 O   0  0  0  0  0  0  0  0  0  0  0  0
    0.1715   -7.9217   45.4428 C   0  0  2  0  0  0  0  0  0  0  0  0
    0.6642   -8.2132   46.7383 O   0  0  0  0  0  0  0  0  0  0  0  0
    1.5785   -4.2131   43.0261 C   0  0  2  0  0  0  0  0  0  0  0  0
   -1.8022  -11.1254   44.2308 C   0  0  2  0  0  0  0  0  0  0  0  0
   -0.8244  -10.3936   43.5182 O   0  0  0  0  0  0  0  0  0  0  0  0
    1.3717   -7.5952   44.4750 C   0  0  2  0  0  0  0  0  0  0  0  0
    0.8556   -7.2874   43.1246 O   0  0  0  0  0  0  0  0  0  0  0  0
    1.3917   -3.9526   41.5051 C   0  0  2  0  0  0  0  0  0  0  0  0
    1.3092   -5.2500   40.8487 O   0  0  0  0  0  0  0  0  0  0  0  0
   -2.5226  -12.1694   43.2872 C   0  0  2  0  0  0  0  0  0  0  0  0
   -3.5492  -12.9224   44.0434 O   0  0  0  0  0  0  0  0  0  0  0  0
    2.3655   -8.7534   44.3999 C   0  0  0  0  0  0  0  0  0  0  0  0
    3.4857   -8.4103   43.6212 O   0  0  0  0  0  0  0  0  0  0  0  0
    2.6014   -3.1569   40.9614 C   0  0  1  0  0  0  0  0  0  0  0  0
    2.4045   -2.9291   39.5817 O   0  0  0  0  0  0  0  0  0  0  0  0
   -1.5368  -13.1503   42.6708 C   0  0  0  0  0  0  0  0  0  0  0  0
   -2.2162  -14.1050   41.8917 O   0  0  0  0  0  0  0  0  0  0  0  0
   -2.9967   -8.0004   45.8539 C   0  0  0  0  0  0  0  0  0  0  0  0
  1  2  1  1  0  0  0
  1  7  1  0  0  0  0
  1 24  1  0  0  0  0
  3  4  1  6  0  0  0
  3  9  1  0  0  0  0
  3 31  1  0  0  0  0
  5  6  1  6  0  0  0
  5 10  1  0  0  0  0
  5 28  1  0  0  0  0
  7  8  1  1  0  0  0
  7 12  1  0  0  0  0
  9 14  1  0  0  0  0
 10 11  1  6  0  0  0
 10 16  1  0  0  0  0
 12 13  1  1  0  0  0
 12 18  1  0  0  0  0
 13 35  1  0  0  0  0
 14 15  1  1  0  0  0
 14 20  1  0  0  0  0
 16 17  1  1  0  0  0
 16 21  1  0  0  0  0
 17 35  1  0  0  0  0
 18 19  1  1  0  0  0
 18 23  1  0  0  0  0
 20  2  1  1  0  0  0
 20 25  1  0  0  0  0
 21 22  1  6  0  0  0
 21 27  1  0  0  0  0
 23 24  1  0  0  0  0
 23 29  1  6  0  0  0
 25 26  1  6  0  0  0
 25 31  1  0  0  0  0
 27 28  1  0  0  0  0
 27 33  1  1  0  0  0
 29 30  1  0  0  0  0
 31 32  1  6  0  0  0
 33 34  1  0  0  0  0
M  END
>  <CHROM.1>
-179.28762420,51.78639243,58.43427542,-84.48201850,-161.56324131,174.00517926
-175.17852534,177.05235425,-0.41166471,-7.51441731,43.75403911,-0.68561976
-0.80584182,-2.66301767

>  <Name>
2o3v_lig

>  <RI>
0

>  <Rbt.Current_Directory>
/home/afrankz/demos/rdock_decoys_rna/rnas/2o3v

>  <Rbt.Executable>
rbdock ($Id: //depot/dev/client3/rdock/2013.1/src/exe/rbdock.cxx#4 $)

>  <Rbt.Library>
libRbt.so (2013.1, Build901 2013/11/27)

>  <Rbt.Parameter_File>
/export/apps/rDock/src/rDock_2013.1_src/data/scripts/dock_solv.prm

>  <Rbt.Receptor>
prm/pocket_docking_7.prm

>  <SCORE>
-14.6605

>  <SCORE.INTER>
-9.42615

>  <SCORE.INTER.CONST>
1

>  <SCORE.INTER.POLAR>
-1.15579

>  <SCORE.INTER.ROT>
8

>  <SCORE.INTER.SOLV>
12.5204

>  <SCORE.INTER.VDW>
-15.5383

>  <SCORE.INTER.norm>
-0.269318

>  <SCORE.INTRA>
-5.23436

>  <SCORE.INTRA.DIHEDRAL>
-8.31551

>  <SCORE.INTRA.DIHEDRAL.0>
13.1227

>  <SCORE.INTRA.POLAR>
0

>  <SCORE.INTRA.POLAR.0>
0

>  <SCORE.INTRA.REPUL>
0

>  <SCORE.INTRA.REPUL.0>
0

>  <SCORE.INTRA.SOLV>
0.461659

>  <SCORE.INTRA.SOLV.lig_0>
-89.1587

>  <SCORE.INTRA.VDW>
-1.30744

>  <SCORE.INTRA.VDW.0>
-0.838383

>  <SCORE.INTRA.norm>
-0.149553

>  <SCORE.RESTR>
0

>  <SCORE.RESTR.CAVITY>
0

>  <SCORE.RESTR.norm>
0

>  <SCORE.SYSTEM>
0

>  <SCORE.SYSTEM.CONST>
0

>  <SCORE.SYSTEM.DIHEDRAL>
0

>  <SCORE.SYSTEM.SOLV>
0

>  <SCORE.SYSTEM.norm>
0

>  <SCORE.heavy>
35

>  <SCORE.norm>
-0.418872

>  <RMSD>
5.367

$$$$
2o3v_lig
 OpenBabel02141814113D
libRbt.so/2013.1/901 2013/11/27
 35 37  0  0  0  0  0  0  0  0999 V2000
    3.3814   -3.0730   44.0402 C   0  0  2  0  0  0  0  0  0  0  0  0
    3.0502   -4.4953   44.0357 O   0  0  0  0  0  0  0  0  0  0  0  0
    5.6985   -7.9315   44.3619 C   0  0  2  0  0  0  0  0  0  0  0  0
    6.6212   -9.0441   43.9838 N   0  0  0  0  0  0  0  0  0  0  0  0
   -3.4790   -6.6439   45.2308 C   0  0  2  0  0  0  0  0  0  0  0  0
   -4.3110   -5.7204   45.9660 O   0  0  0  0  0  0  0  0  0  0  0  0
    1.9873   -2.3850   44.1869 C   0  0  2  0  0  0  0  0  0  0  0  0
    1.3026   -2.8206   45.4269 N   0  0  0  0  0  0  0  0  0  0  0  0
    4.2807   -8.1403   43.6752 C   0  0  0  0  0  0  0  0  0  0  0  0
   -2.2512   -5.8375   44.6824 C   0  0  2  0  0  0  0  0  0  0  0  0
   -1.5042   -5.1869   45.7885 N   0  0  0  0  0  0  0  0  0  0  0  0
    1.0575   -2.6760   42.9298 C   0  0  1  0  0  0  0  0  0  0  0  0
   -0.2784   -2.0503   43.1090 O   0  0  0  0  0  0  0  0  0  0  0  0
    3.3228   -6.9386   44.0837 C   0  0  2  0  0  0  0  0  0  0  0  0
    1.9999   -7.1076   43.4451 N   0  0  0  0  0  0  0  0  0  0  0  0
   -2.6966   -4.7547   43.6035 C   0  0  1  0  0  0  0  0  0  0  0  0
   -1.5755   -4.0159   43.0541 O   0  0  0  0  0  0  0  0  0  0  0  0
    1.8400   -2.1831   41.6343 C   0  0  2  0  0  0  0  0  0  0  0  0
    1.0946   -2.4257   40.4547 O   0  0  0  0  0  0  0  0  0  0  0  0
    3.9654   -5.5608   43.6390 C   0  0  2  0  0  0  0  0  0  0  0  0
   -3.4639   -5.4852   42.4561 C   0  0  2  0  0  0  0  0  0  0  0  0
   -3.8948   -4.5679   41.4700 O   0  0  0  0  0  0  0  0  0  0  0  0
    3.2450   -2.8899   41.5340 C   0  0  2  0  0  0  0  0  0  0  0  0
    4.0201   -2.6391   42.7673 O   0  0  0  0  0  0  0  0  0  0  0  0
    5.3541   -5.3676   44.3102 C   0  0  2  0  0  0  0  0  0  0  0  0
    5.8991   -4.1066   43.8266 O   0  0  0  0  0  0  0  0  0  0  0  0
   -4.6887   -6.2880   43.0518 C   0  0  2  0  0  0  0  0  0  0  0  0
   -4.2248   -7.2381   44.0885 O   0  0  0  0  0  0  0  0  0  0  0  0
    4.0331   -2.4059   40.3176 C   0  0  0  0  0  0  0  0  0  0  0  0
    4.3065   -1.0289   40.4060 O   0  0  0  0  0  0  0  0  0  0  0  0
    6.2881   -6.5364   43.9182 C   0  0  1  0  0  0  0  0  0  0  0  0
    7.5386   -6.3401   44.5443 O   0  0  0  0  0  0  0  0  0  0  0  0
   -5.4423   -7.0530   41.9745 C   0  0  0  0  0  0  0  0  0  0  0  0
   -6.5007   -7.7862   42.5422 O   0  0  0  0  0  0  0  0  0  0  0  0
   -1.2497   -2.8832   43.9121 C   0  0  0  0  0  0  0  0  0  0  0  0
  1  2  1  6  0  0  0
  1  7  1  0  0  0  0
  1 24  1  0  0  0  0
  3  4  1  6  0  0  0
  3  9  1  0  0  0  0
  3 31  1  0  0  0  0
  5  6  1  6  0  0  0
  5 10  1  0  0  0  0
  5 28  1  0  0  0  0
  7  8  1  1  0  0  0
  7 12  1  0  0  0  0
  9 14  1  0  0  0  0
 10 11  1  1  0  0  0
 10 16  1  0  0  0  0
 12 13  1  1  0  0  0
 12 18  1  0  0  0  0
 13 35  1  0  0  0  0
 14 15  1  6  0  0  0
 14 20  1  0  0  0  0
 16 17  1  6  0  0  0
 16 21  1  0  0  0  0
 17 35  1  0  0  0  0
 18 19  1  6  0  0  0
 18 23  1  0  0  0  0
 20  2  1  1  0  0  0
 20 25  1  0  0  0  0
 21 22  1  6  0  0  0
 21 27  1  0  0  0  0
 23 24  1  0  0  0  0
 23 29  1  6  0  0  0
 25 26  1  6  0  0  0
 25 31  1  0  0  0  0
 27 28  1  0  0  0  0
 27 33  1  6  0  0  0
 29 30  1  0  0  0  0
 31 32  1  1  0  0  0
 33 34  1  0  0  0  0
M  END
>  <CHROM.1>
166.30914091,-84.06599720,-69.85076633,-85.58642242,-168.91464551,167.70296722
62.34839895,178.29682349,0.95576396,-4.87548608,43.36108052,0.09070702,-0.02865971
-0.42184813

>  <Name>
2o3v_lig

>  <RI>
0

>  <Rbt.Current_Directory>
/home/afrankz/demos/rdock_decoys_rna/rnas/2o3v

>  <Rbt.Executable>
rbdock ($Id: //depot/dev/client3/rdock/2013.1/src/exe/rbdock.cxx#4 $)

>  <Rbt.Library>
libRbt.so (2013.1, Build901 2013/11/27)

>  <Rbt.Parameter_File>
/export/apps/rDock/src/rDock_2013.1_src/data/scripts/dock_solv.prm

>  <Rbt.Receptor>
prm/pocket_docking_7.prm

>  <SCORE>
-15.5931

>  <SCORE.INTER>
-12.5365

>  <SCORE.INTER.CONST>
1

>  <SCORE.INTER.POLAR>
-1.47787

>  <SCORE.INTER.ROT>
8

>  <SCORE.INTER.SOLV>
17.0833

>  <SCORE.INTER.VDW>
-18.0592

>  <SCORE.INTER.norm>
-0.358185

>  <SCORE.INTRA>
-3.05658

>  <SCORE.INTRA.DIHEDRAL>
-5.11256

>  <SCORE.INTRA.DIHEDRAL.0>
13.1227

>  <SCORE.INTRA.POLAR>
0

>  <SCORE.INTRA.POLAR.0>
0

>  <SCORE.INTRA.REPUL>
0.0558065

>  <SCORE.INTRA.REPUL.0>
0

>  <SCORE.INTRA.SOLV>
1.05144

>  <SCORE.INTRA.SOLV.lig_0>
-89.1587

>  <SCORE.INTRA.VDW>
-1.30506

>  <SCORE.INTRA.VDW.0>
-0.838383

>  <SCORE.INTRA.norm>
-0.087331

>  <SCORE.RESTR>
0

>  <SCORE.RESTR.CAVITY>
0

>  <SCORE.RESTR.norm>
0

>  <SCORE.SYSTEM>
0

>  <SCORE.SYSTEM.CONST>
0

>  <SCORE.SYSTEM.DIHEDRAL>
0

>  <SCORE.SYSTEM.SOLV>
0

>  <SCORE.SYSTEM.norm>
0

>  <SCORE.heavy>
35

>  <SCORE.norm>
-0.445516

>  <RMSD>
5.402

$$$$
2o3v_lig
 OpenBabel02141814113D
libRbt.so/2013.1/901 2013/11/27
 35 37  0  0  0  0  0  0  0  0999 V2000
    3.6725   -3.7241   44.9517 C   0  0  2  0  0  0  0  0  0  0  0  0
    3.5833   -5.1415   44.6111 O   0  0  0  0  0  0  0  0  0  0  0  0
    6.7829   -7.8812   43.5232 C   0  0  2  0  0  0  0  0  0  0  0  0
    7.7676   -8.6471   42.7009 N   0  0  0  0  0  0  0  0  0  0  0  0
   -4.6843   -2.7473   42.9161 C   0  0  2  0  0  0  0  0  0  0  0  0
   -3.7286   -2.6525   41.8376 O   0  0  0  0  0  0  0  0  0  0  0  0
    2.2220   -3.3794   45.4161 C   0  0  2  0  0  0  0  0  0  0  0  0
    1.8122   -4.2227   46.5638 N   0  0  0  0  0  0  0  0  0  0  0  0
    5.3008   -8.2463   43.0813 C   0  0  0  0  0  0  0  0  0  0  0  0
   -3.8824   -2.6910   44.2622 C   0  0  2  0  0  0  0  0  0  0  0  0
   -3.0768   -1.4468   44.3506 N   0  0  0  0  0  0  0  0  0  0  0  0
    1.1750   -3.5418   44.2300 C   0  0  1  0  0  0  0  0  0  0  0  0
   -0.2036   -3.2525   44.7034 O   0  0  0  0  0  0  0  0  0  0  0  0
    4.2744   -7.4104   43.9624 C   0  0  2  0  0  0  0  0  0  0  0  0
    2.8876   -7.7270   43.5589 N   0  0  0  0  0  0  0  0  0  0  0  0
   -2.9492   -3.9684   44.4417 C   0  0  1  0  0  0  0  0  0  0  0  0
   -2.2198   -3.9587   45.6957 O   0  0  0  0  0  0  0  0  0  0  0  0
    1.6624   -2.6116   43.0338 C   0  0  2  0  0  0  0  0  0  0  0  0
    0.7989   -2.7098   41.9155 O   0  0  0  0  0  0  0  0  0  0  0  0
    4.5482   -5.8603   43.7850 C   0  0  2  0  0  0  0  0  0  0  0  0
   -3.8397   -5.2483   44.3557 C   0  0  2  0  0  0  0  0  0  0  0  0
   -3.0599   -6.4192   44.4984 O   0  0  0  0  0  0  0  0  0  0  0  0
    3.1336   -2.9830   42.6079 C   0  0  2  0  0  0  0  0  0  0  0  0
    4.0328   -2.8838   43.7767 O   0  0  0  0  0  0  0  0  0  0  0  0
    6.0016   -5.5131   44.2134 C   0  0  2  0  0  0  0  0  0  0  0  0
    6.1929   -4.0873   43.9865 O   0  0  0  0  0  0  0  0  0  0  0  0
   -4.6327   -5.2633   42.9882 C   0  0  2  0  0  0  0  0  0  0  0  0
   -5.4380   -4.0285   42.8478 O   0  0  0  0  0  0  0  0  0  0  0  0
    3.6397   -2.0790   41.4848 C   0  0  0  0  0  0  0  0  0  0  0  0
    4.9188   -2.4747   41.0531 O   0  0  0  0  0  0  0  0  0  0  0  0
    7.0033   -6.3268   43.3611 C   0  0  1  0  0  0  0  0  0  0  0  0
    8.3133   -5.9977   43.7733 O   0  0  0  0  0  0  0  0  0  0  0  0
   -5.5491   -6.4724   42.8779 C   0  0  0  0  0  0  0  0  0  0  0  0
   -4.8051   -7.6629   42.9740 O   0  0  0  0  0  0  0  0  0  0  0  0
   -0.8413   -4.3807   45.4797 C   0  0  0  0  0  0  0  0  0  0  0  0
  1  2  1  6  0  0  0
  1  7  1  0  0  0  0
  1 24  1  0  0  0  0
  3  4  1  6  0  0  0
  3  9  1  0  0  0  0
  3 31  1  0  0  0  0
  5  6  1  6  0  0  0
  5 10  1  0  0  0  0
  5 28  1  0  0  0  0
  7  8  1  1  0  0  0
  7 12  1  0  0  0  0
  9 14  1  0  0  0  0
 10 11  1  6  0  0  0
 10 16  1  0  0  0  0
 12 13  1  1  0  0  0
 12 18  1  0  0  0  0
 13 35  1  0  0  0  0
 14 15  1  6  0  0  0
 14 20  1  0  0  0  0
 16 17  1  1  0  0  0
 16 21  1  0  0  0  0
 17 35  1  0  0  0  0
 18 19  1  6  0  0  0
 18 23  1  0  0  0  0
 20  2  1  1  0  0  0
 20 25  1  0  0  0  0
 21 22  1  6  0  0  0
 21 27  1  0  0  0  0
 23 24  1  0  0  0  0
 23 29  1  6  0  0  0
 25 26  1  6  0  0  0
 25 31  1  0  0  0  0
 27 28  1  0  0  0  0
 27 33  1  1  0  0  0
 29 30  1  0  0  0  0
 31 32  1  1  0  0  0
 33 34  1  0  0  0  0
M  END
>  <CHROM.1>
162.14476264,-78.23903240,-173.10868861,-137.32178336,69.56036212,166.34286723
-176.14507164,-59.12811158,1.13770284,-4.65819681,43.69295714,-0.14694081
0.02405516,-0.07727095

>  <Name>
2o3v_lig

>  <RI>
0

>  <Rbt.Current_Directory>
/home/afrankz/demos/rdock_decoys_rna/rnas/2o3v

>  <Rbt.Executable>
rbdock ($Id: //depot/dev/client3/rdock/2013.1/src/exe/rbdock.cxx#4 $)

>  <Rbt.Library>
libRbt.so (2013.1, Build901 2013/11/27)

>  <Rbt.Parameter_File>
/export/apps/rDock/src/rDock_2013.1_src/data/scripts/dock_solv.prm

>  <Rbt.Receptor>
prm/pocket_docking_8.prm

>  <SCORE>
-14.5465

>  <SCORE.INTER>
-12.9011

>  <SCORE.INTER.CONST>
1

>  <SCORE.INTER.POLAR>
-1.14102

>  <SCORE.INTER.ROT>
8

>  <SCORE.INTER.SOLV>
20.1859

>  <SCORE.INTER.VDW>
-20.4593

>  <SCORE.INTER.norm>
-0.368603

>  <SCORE.INTRA>
-1.7114

>  <SCORE.INTRA.DIHEDRAL>
-2.6719

>  <SCORE.INTRA.DIHEDRAL.0>
13.1227

>  <SCORE.INTRA.POLAR>
0

>  <SCORE.INTRA.POLAR.0>
0

>  <SCORE.INTRA.REPUL>
0

>  <SCORE.INTRA.REPUL.0>
0

>  <SCORE.INTRA.SOLV>
0.520133

>  <SCORE.INTRA.SOLV.lig_0>
-89.1587

>  <SCORE.INTRA.VDW>
-0.635514

>  <SCORE.INTRA.VDW.0>
-0.838383

>  <SCORE.INTRA.norm>
-0.0488971

>  <SCORE.RESTR>
0.0660361

>  <SCORE.RESTR.CAVITY>
0.0660361

>  <SCORE.RESTR.norm>
0.00188674

>  <SCORE.SYSTEM>
0

>  <SCORE.SYSTEM.CONST>
0

>  <SCORE.SYSTEM.DIHEDRAL>
0

>  <SCORE.SYSTEM.SOLV>
0

>  <SCORE.SYSTEM.norm>
0

>  <SCORE.heavy>
35

>  <SCORE.norm>
-0.415613

>  <RMSD>
5.441

$$$$
2o3v_lig
 OpenBabel02141814113D
libRbt.so/2013.1/901 2013/11/27
 35 37  0  0  0  0  0  0  0  0999 V2000
    4.0166   -3.3660   44.0689 C   0  0  2  0  0  0  0  0  0  0  0  0
    3.9094   -4.8222   44.0413 O   0  0  0  0  0  0  0  0  0  0  0  0
    6.8701   -7.8107   42.9325 C   0  0  2  0  0  0  0  0  0  0  0  0
    7.7021   -8.7348   42.1041 N   0  0  0  0  0  0  0  0  0  0  0  0
   -4.8346   -5.2890   42.2623 C   0  0  2  0  0  0  0  0  0  0  0  0
   -4.1244   -5.6312   41.0523 O   0  0  0  0  0  0  0  0  0  0  0  0
    2.6592   -2.9227   44.7009 C   0  0  2  0  0  0  0  0  0  0  0  0
    2.4775   -3.5123   46.0483 N   0  0  0  0  0  0  0  0  0  0  0  0
    5.3333   -8.1934   42.8015 C   0  0  0  0  0  0  0  0  0  0  0  0
   -3.8930   -4.3727   43.1179 C   0  0  2  0  0  0  0  0  0  0  0  0
   -3.4915   -3.1628   42.3564 N   0  0  0  0  0  0  0  0  0  0  0  0
    1.4279   -3.3141   43.7734 C   0  0  1  0  0  0  0  0  0  0  0  0
    0.1443   -2.9238   44.4125 O   0  0  0  0  0  0  0  0  0  0  0  0
    4.4704   -7.1891   43.6820 C   0  0  2  0  0  0  0  0  0  0  0  0
    3.0342   -7.5209   43.5649 N   0  0  0  0  0  0  0  0  0  0  0  0
   -2.6053   -5.1630   43.6201 C   0  0  1  0  0  0  0  0  0  0  0  0
   -1.7320   -4.3477   44.4430 O   0  0  0  0  0  0  0  0  0  0  0  0
    1.6751   -2.6498   42.3482 C   0  0  2  0  0  0  0  0  0  0  0  0
    0.6344   -2.9660   41.4411 O   0  0  0  0  0  0  0  0  0  0  0  0
    4.7215   -5.6998   43.2044 C   0  0  2  0  0  0  0  0  0  0  0  0
   -3.0757   -6.4157   44.4253 C   0  0  2  0  0  0  0  0  0  0  0  0
   -1.9699   -7.1650   44.8891 O   0  0  0  0  0  0  0  0  0  0  0  0
    3.0603   -3.1116   41.7550 C   0  0  2  0  0  0  0  0  0  0  0  0
    4.1448   -2.7844   42.7044 O   0  0  0  0  0  0  0  0  0  0  0  0
    6.2276   -5.3361   43.3299 C   0  0  2  0  0  0  0  0  0  0  0  0
    6.3884   -3.9746   42.8383 O   0  0  0  0  0  0  0  0  0  0  0  0
   -4.0245   -7.3081   43.5293 C   0  0  2  0  0  0  0  0  0  0  0  0
   -5.1730   -6.5094   43.0436 O   0  0  0  0  0  0  0  0  0  0  0  0
    3.3393   -2.4582   40.4022 C   0  0  0  0  0  0  0  0  0  0  0  0
    4.6093   -2.8199   39.9170 O   0  0  0  0  0  0  0  0  0  0  0  0
    7.0712   -6.3128   42.4776 C   0  0  1  0  0  0  0  0  0  0  0  0
    8.4330   -5.9648   42.6133 O   0  0  0  0  0  0  0  0  0  0  0  0
   -4.5442   -8.5202   44.2874 C   0  0  0  0  0  0  0  0  0  0  0  0
   -3.4735   -9.2664   44.8135 O   0  0  0  0  0  0  0  0  0  0  0  0
   -1.0842   -3.3253   43.6303 C   0  0  0  0  0  0  0  0  0  0  0  0
  1  2  1  6  0  0  0
  1  7  1  0  0  0  0
  1 24  1  0  0  0  0
  3  4  1  6  0  0  0
  3  9  1  0  0  0  0
  3 31  1  0  0  0  0
  5  6  1  6  0  0  0
  5 10  1  0  0  0  0
  5 28  1  0  0  0  0
  7  8  1  1  0  0  0
  7 12  1  0  0  0  0
  9 14  1  0  0  0  0
 10 11  1  6  0  0  0
 10 16  1  0  0  0  0
 12 13  1  1  0  0  0
 12 18  1  0  0  0  0
 13 35  1  0  0  0  0
 14 15  1  6  0  0  0
 14 20  1  0  0  0  0
 16 17  1  1  0  0  0
 16 21  1  0  0  0  0
 17 35  1  0  0  0  0
 18 19  1  6  0  0  0
 18 23  1  0  0  0  0
 20  2  1  1  0  0  0
 20 25  1  0  0  0  0
 21 22  1  6  0  0  0
 21 27  1  0  0  0  0
 23 24  1  0  0  0  0
 23 29  1  6  0  0  0
 25 26  1  6  0  0  0
 25 31  1  0  0  0  0
 27 28  1  0  0  0  0
 27 33  1  1  0  0  0
 29 30  1  0  0  0  0
 31 32  1  1  0  0  0
 33 34  1  0  0  0  0
M  END
>  <CHROM.1>
161.07414827,-176.94107588,112.22275828,-69.84422952,-158.45785341,169.60812586
176.76027527,-54.97561431,1.35546659,-5.15879236,43.15039999,0.06959428,0.06260077
-0.22911596

>  <Name>
2o3v_lig

>  <RI>
0

>  <Rbt.Current_Directory>
/home/afrankz/demos/rdock_decoys_rna/rnas/2o3v

>  <Rbt.Executable>
rbdock ($Id: //depot/dev/client3/rdock/2013.1/src/exe/rbdock.cxx#4 $)

>  <Rbt.Library>
libRbt.so (2013.1, Build901 2013/11/27)

>  <Rbt.Parameter_File>
/export/apps/rDock/src/rDock_2013.1_src/data/scripts/dock_solv.prm

>  <Rbt.Receptor>
prm/blind_docking_100.prm

>  <SCORE>
-2.91585

>  <SCORE.INTER>
-6.80056

>  <SCORE.INTER.CONST>
1

>  <SCORE.INTER.POLAR>
-0.959166

>  <SCORE.INTER.ROT>
8

>  <SCORE.INTER.SOLV>
26.2217

>  <SCORE.INTER.VDW>
-19.0104

>  <SCORE.INTER.norm>
-0.194302

>  <SCORE.INTRA>
0.196687

>  <SCORE.INTRA.DIHEDRAL>
-1.3249

>  <SCORE.INTRA.DIHEDRAL.0>
13.1227

>  <SCORE.INTRA.POLAR>
0

>  <SCORE.INTRA.POLAR.0>
0

>  <SCORE.INTRA.REPUL>
0

>  <SCORE.INTRA.REPUL.0>
0

>  <SCORE.INTRA.SOLV>
-0.157409

>  <SCORE.INTRA.SOLV.lig_0>
-89.1587

>  <SCORE.INTRA.VDW>
0.937841

>  <SCORE.INTRA.VDW.0>
-0.838383

>  <SCORE.INTRA.norm>
0.00561964

>  <SCORE.RESTR>
3.68802

>  <SCORE.RESTR.CAVITY>
3.68802

>  <SCORE.RESTR.norm>
0.105372

>  <SCORE.SYSTEM>
0

>  <SCORE.SYSTEM.CONST>
0

>  <SCORE.SYSTEM.DIHEDRAL>
0

>  <SCORE.SYSTEM.SOLV>
0

>  <SCORE.SYSTEM.norm>
0

>  <SCORE.heavy>
35

>  <SCORE.norm>
-0.0833101

>  <RMSD>
5.518

$$$$
2o3v_lig
 OpenBabel02141814113D
libRbt.so/2013.1/901 2013/11/27
 35 37  0  0  0  0  0  0  0  0999 V2000
    2.5461   -8.9466   44.8695 C   0  0  2  0  0  0  0  0  0  0  0  0
    2.5164   -7.9500   45.9366 O   0  0  0  0  0  0  0  0  0  0  0  0
    5.2584   -6.8237   49.1210 C   0  0  2  0  0  0  0  0  0  0  0  0
    6.0431   -6.8716   50.3915 N   0  0  0  0  0  0  0  0  0  0  0  0
   -5.2284   -3.6282   43.1526 C   0  0  2  0  0  0  0  0  0  0  0  0
   -4.9533   -3.0884   44.4635 O   0  0  0  0  0  0  0  0  0  0  0  0
    1.3197   -8.5557   43.9855 C   0  0  2  0  0  0  0  0  0  0  0  0
    1.4435   -7.1679   43.4808 N   0  0  0  0  0  0  0  0  0  0  0  0
    3.7015   -6.8302   49.4397 C   0  0  0  0  0  0  0  0  0  0  0  0
   -4.8006   -5.1366   43.1652 C   0  0  2  0  0  0  0  0  0  0  0  0
   -5.5179   -5.8848   44.2285 N   0  0  0  0  0  0  0  0  0  0  0  0
   -0.0483   -8.7177   44.7804 C   0  0  1  0  0  0  0  0  0  0  0  0
   -1.1981   -8.2990   43.9372 O   0  0  0  0  0  0  0  0  0  0  0  0
    2.8905   -6.7906   48.0726 C   0  0  2  0  0  0  0  0  0  0  0  0
    1.4376   -6.8077   48.3465 N   0  0  0  0  0  0  0  0  0  0  0  0
   -3.2265   -5.2972   43.3412 C   0  0  1  0  0  0  0  0  0  0  0  0
   -2.7983   -6.6833   43.3229 O   0  0  0  0  0  0  0  0  0  0  0  0
   -0.1276  -10.2236   45.2900 C   0  0  2  0  0  0  0  0  0  0  0  0
   -1.3092  -10.4574   46.0350 O   0  0  0  0  0  0  0  0  0  0  0  0
    3.2857   -8.0339   47.1741 C   0  0  2  0  0  0  0  0  0  0  0  0
   -2.5168   -4.5076   42.1960 C   0  0  2  0  0  0  0  0  0  0  0  0
   -1.1107   -4.6061   42.3078 O   0  0  0  0  0  0  0  0  0  0  0  0
    1.1348  -10.5794   46.1638 C   0  0  2  0  0  0  0  0  0  0  0  0
    2.3671  -10.3313   45.3864 O   0  0  0  0  0  0  0  0  0  0  0  0
    4.8105   -8.0231   46.8725 C   0  0  2  0  0  0  0  0  0  0  0  0
    5.1056   -9.2095   46.0811 O   0  0  0  0  0  0  0  0  0  0  0  0
   -2.9787   -2.9958   42.2163 C   0  0  2  0  0  0  0  0  0  0  0  0
   -4.4528   -2.9075   42.1071 O   0  0  0  0  0  0  0  0  0  0  0  0
    1.1017  -12.0325   46.6353 C   0  0  0  0  0  0  0  0  0  0  0  0
    2.2179  -12.3305   47.4379 O   0  0  0  0  0  0  0  0  0  0  0  0
    5.6034   -8.0580   48.2000 C   0  0  1  0  0  0  0  0  0  0  0  0
    6.9829   -8.0418   47.8987 O   0  0  0  0  0  0  0  0  0  0  0  0
   -2.3455   -2.1948   41.0887 C   0  0  0  0  0  0  0  0  0  0  0  0
   -0.9536   -2.1029   41.2732 O   0  0  0  0  0  0  0  0  0  0  0  0
   -1.5340   -6.8293   44.0337 C   0  0  0  0  0  0  0  0  0  0  0  0
  1  2  1  1  0  0  0
  1  7  1  0  0  0  0
  1 24  1  0  0  0  0
  3  4  1  1  0  0  0
  3  9  1  0  0  0  0
  3 31  1  0  0  0  0
  5  6  1  1  0  0  0
  5 10  1  0  0  0  0
  5 28  1  0  0  0  0
  7  8  1  1  0  0  0
  7 12  1  0  0  0  0
  9 14  1  0  0  0  0
 10 11  1  1  0  0  0
 10 16  1  0  0  0  0
 12 13  1  6  0  0  0
 12 18  1  0  0  0  0
 13 35  1  0  0  0  0
 14 15  1  1  0  0  0
 14 20  1  0  0  0  0
 16 17  1  6  0  0  0
 16 21  1  0  0  0  0
 17 35  1  0  0  0  0
 18 19  1  1  0  0  0
 18 23  1  0  0  0  0
 20  2  1  6  0  0  0
 20 25  1  0  0  0  0
 21 22  1  1  0  0  0
 21 27  1  0  0  0  0
 23 24  1  0  0  0  0
 23 29  1  6  0  0  0
 25 26  1  6  0  0  0
 25 31  1  0  0  0  0
 27 28  1  0  0  0  0
 27 33  1  6  0  0  0
 29 30  1  0  0  0  0
 31 32  1  6  0  0  0
 33 34  1  0  0  0  0
M  END
>  <CHROM.1>
166.72977446,-88.60489351,-170.83664298,-155.57426765,-179.73595772,-176.90568421
-178.71859707,-65.92216971,0.40533575,-7.05992880,45.18617654,0.56850282
0.48243050,2.96101118

>  <Name>
2o3v_lig

>  <RI>
0

>  <Rbt.Current_Directory>
/home/afrankz/demos/rdock_decoys_rna/rnas/2o3v

>  <Rbt.Executable>
rbdock ($Id: //depot/dev/client3/rdock/2013.1/src/exe/rbdock.cxx#4 $)

>  <Rbt.Library>
libRbt.so (2013.1, Build901 2013/11/27)

>  <Rbt.Parameter_File>
/export/apps/rDock/src/rDock_2013.1_src/data/scripts/dock_solv.prm

>  <Rbt.Receptor>
prm/pocket_docking_8.prm

>  <SCORE>
-10.1441

>  <SCORE.INTER>
-6.65653

>  <SCORE.INTER.CONST>
1

>  <SCORE.INTER.POLAR>
-1.05188

>  <SCORE.INTER.ROT>
8

>  <SCORE.INTER.SOLV>
10.2276

>  <SCORE.INTER.VDW>
-13.274

>  <SCORE.INTER.norm>
-0.190186

>  <SCORE.INTRA>
-3.48753

>  <SCORE.INTRA.DIHEDRAL>
-5.76571

>  <SCORE.INTRA.DIHEDRAL.0>
13.1227

>  <SCORE.INTRA.POLAR>
0

>  <SCORE.INTRA.POLAR.0>
0

>  <SCORE.INTRA.REPUL>
0.191655

>  <SCORE.INTRA.REPUL.0>
0

>  <SCORE.INTRA.SOLV>
-0.300621

>  <SCORE.INTRA.SOLV.lig_0>
-89.1587

>  <SCORE.INTRA.VDW>
-1.41264

>  <SCORE.INTRA.VDW.0>
-0.838383

>  <SCORE.INTRA.norm>
-0.0996438

>  <SCORE.RESTR>
0

>  <SCORE.RESTR.CAVITY>
0

>  <SCORE.RESTR.norm>
0

>  <SCORE.SYSTEM>
0

>  <SCORE.SYSTEM.CONST>
0

>  <SCORE.SYSTEM.DIHEDRAL>
0

>  <SCORE.SYSTEM.SOLV>
0

>  <SCORE.SYSTEM.norm>
0

>  <SCORE.heavy>
35

>  <SCORE.norm>
-0.28983

>  <RMSD>
5.527

$$$$
2o3v_lig
 OpenBabel02141814113D
libRbt.so/2013.1/901 2013/11/27
 35 37  0  0  0  0  0  0  0  0999 V2000
    4.1136   -5.9730   46.1707 C   0  0  2  0  0  0  0  0  0  0  0  0
    3.4998   -6.6378   47.3170 O   0  0  0  0  0  0  0  0  0  0  0  0
    4.8866   -8.0754   51.1819 C   0  0  2  0  0  0  0  0  0  0  0  0
    5.5988   -8.8883   52.2135 N   0  0  0  0  0  0  0  0  0  0  0  0
   -5.2982   -6.0093   42.6451 C   0  0  2  0  0  0  0  0  0  0  0  0
   -5.0729   -7.2283   41.9042 O   0  0  0  0  0  0  0  0  0  0  0  0
    2.9152   -5.2142   45.5177 C   0  0  2  0  0  0  0  0  0  0  0  0
    2.2988   -4.2632   46.4726 N   0  0  0  0  0  0  0  0  0  0  0  0
    3.8905   -8.9954   50.3533 C   0  0  0  0  0  0  0  0  0  0  0  0
   -3.9248   -5.2599   42.7475 C   0  0  2  0  0  0  0  0  0  0  0  0
   -3.3648   -4.9873   41.3995 N   0  0  0  0  0  0  0  0  0  0  0  0
    1.8109   -6.2226   44.9763 C   0  0  1  0  0  0  0  0  0  0  0  0
    0.6600   -5.4804   44.3993 O   0  0  0  0  0  0  0  0  0  0  0  0
    3.1551   -8.1098   49.2563 C   0  0  2  0  0  0  0  0  0  0  0  0
    2.2307   -8.9502   48.4653 N   0  0  0  0  0  0  0  0  0  0  0  0
   -2.8775   -6.0746   43.6274 C   0  0  1  0  0  0  0  0  0  0  0  0
   -1.6073   -5.3877   43.7669 O   0  0  0  0  0  0  0  0  0  0  0  0
    2.5279   -7.2105   43.9547 C   0  0  2  0  0  0  0  0  0  0  0  0
    1.6216   -8.1671   43.4356 O   0  0  0  0  0  0  0  0  0  0  0  0
    4.2241   -7.4359   48.3011 C   0  0  2  0  0  0  0  0  0  0  0  0
   -3.5027   -6.3248   45.0363 C   0  0  2  0  0  0  0  0  0  0  0  0
   -2.6177   -7.0567   45.8613 O   0  0  0  0  0  0  0  0  0  0  0  0
    3.7383   -7.9425   44.6497 C   0  0  2  0  0  0  0  0  0  0  0  0
    4.6812   -6.9430   45.1942 O   0  0  0  0  0  0  0  0  0  0  0  0
    5.1978   -6.5431   49.1203 C   0  0  2  0  0  0  0  0  0  0  0  0
    6.1711   -5.9918   48.1876 O   0  0  0  0  0  0  0  0  0  0  0  0
   -4.8853   -7.0769   44.8874 C   0  0  2  0  0  0  0  0  0  0  0  0
   -5.7990   -6.3043   44.0149 O   0  0  0  0  0  0  0  0  0  0  0  0
    4.4677   -8.8701   43.6789 C   0  0  0  0  0  0  0  0  0  0  0  0
    5.1610   -8.1353   42.7000 O   0  0  0  0  0  0  0  0  0  0  0  0
    5.9128   -7.4000   50.1911 C   0  0  1  0  0  0  0  0  0  0  0  0
    6.7856   -6.5657   50.9234 O   0  0  0  0  0  0  0  0  0  0  0  0
   -5.5545   -7.3043   46.2344 C   0  0  0  0  0  0  0  0  0  0  0  0
   -4.7727   -8.1592   47.0330 O   0  0  0  0  0  0  0  0  0  0  0  0
   -0.5649   -6.3302   44.1544 C   0  0  0  0  0  0  0  0  0  0  0  0
  1  2  1  1  0  0  0
  1  7  1  0  0  0  0
  1 24  1  0  0  0  0
  3  4  1  1  0  0  0
  3  9  1  0  0  0  0
  3 31  1  0  0  0  0
  5  6  1  6  0  0  0
  5 10  1  0  0  0  0
  5 28  1  0  0  0  0
  7  8  1  1  0  0  0
  7 12  1  0  0  0  0
  9 14  1  0  0  0  0
 10 11  1  6  0  0  0
 10 16  1  0  0  0  0
 12 13  1  6  0  0  0
 12 18  1  0  0  0  0
 13 35  1  0  0  0  0
 14 15  1  6  0  0  0
 14 20  1  0  0  0  0
 16 17  1  1  0  0  0
 16 21  1  0  0  0  0
 17 35  1  0  0  0  0
 18 19  1  1  0  0  0
 18 23  1  0  0  0  0
 20  2  1  6  0  0  0
 20 25  1  0  0  0  0
 21 22  1  1  0  0  0
 21 27  1  0  0  0  0
 23 24  1  0  0  0  0
 23 29  1  6  0  0  0
 25 26  1  6  0  0  0
 25 31  1  0  0  0  0
 27 28  1  0  0  0  0
 27 33  1  1  0  0  0
 29 30  1  0  0  0  0
 31 32  1  1  0  0  0
 33 34  1  0  0  0  0
M  END
>  <CHROM.1>
-176.95319341,-166.56438186,172.63627648,-160.25795028,-174.52462311,-173.10476613
69.49784684,-64.07254065,1.00070091,-6.90291560,45.96579395,-0.51197423,0.00566430
-1.38639304

>  <Name>
2o3v_lig

>  <RI>
0

>  <Rbt.Current_Directory>
/home/afrankz/demos/rdock_decoys_rna/rnas/2o3v

>  <Rbt.Executable>
rbdock ($Id: //depot/dev/client3/rdock/2013.1/src/exe/rbdock.cxx#4 $)

>  <Rbt.Library>
libRbt.so (2013.1, Build901 2013/11/27)

>  <Rbt.Parameter_File>
/export/apps/rDock/src/rDock_2013.1_src/data/scripts/dock_solv.prm

>  <Rbt.Receptor>
prm/pocket_docking_6.prm

>  <SCORE>
-11.2927

>  <SCORE.INTER>
-5.38156

>  <SCORE.INTER.CONST>
1

>  <SCORE.INTER.POLAR>
-0.306978

>  <SCORE.INTER.ROT>
8

>  <SCORE.INTER.SOLV>
17.2472

>  <SCORE.INTER.VDW>
-17.2468

>  <SCORE.INTER.norm>
-0.153759

>  <SCORE.INTRA>
-5.91111

>  <SCORE.INTRA.DIHEDRAL>
-9.39211

>  <SCORE.INTRA.DIHEDRAL.0>
13.1227

>  <SCORE.INTRA.POLAR>
0

>  <SCORE.INTRA.POLAR.0>
0

>  <SCORE.INTRA.REPUL>
0

>  <SCORE.INTRA.REPUL.0>
0

>  <SCORE.INTRA.SOLV>
-1.03803

>  <SCORE.INTRA.SOLV.lig_0>
-89.1587

>  <SCORE.INTRA.VDW>
-0.696043

>  <SCORE.INTRA.VDW.0>
-0.838383

>  <SCORE.INTRA.norm>
-0.168889

>  <SCORE.RESTR>
0

>  <SCORE.RESTR.CAVITY>
0

>  <SCORE.RESTR.norm>
0

>  <SCORE.SYSTEM>
0

>  <SCORE.SYSTEM.CONST>
0

>  <SCORE.SYSTEM.DIHEDRAL>
0

>  <SCORE.SYSTEM.SOLV>
0

>  <SCORE.SYSTEM.norm>
0

>  <SCORE.heavy>
35

>  <SCORE.norm>
-0.322648

>  <RMSD>
5.529

$$$$
2o3v_lig
 OpenBabel02141814113D
libRbt.so/2013.1/901 2013/11/27
 35 37  0  0  0  0  0  0  0  0999 V2000
    1.8924   -7.7418   44.0115 C   0  0  2  0  0  0  0  0  0  0  0  0
    1.8704   -6.9630   45.2466 O   0  0  0  0  0  0  0  0  0  0  0  0
    2.1823   -2.8241   43.9428 C   0  0  2  0  0  0  0  0  0  0  0  0
    2.3130   -1.3364   43.9849 N   0  0  0  0  0  0  0  0  0  0  0  0
   -2.0550  -12.3656   50.2565 C   0  0  2  0  0  0  0  0  0  0  0  0
   -2.8293  -11.1889   49.9380 O   0  0  0  0  0  0  0  0  0  0  0  0
    1.3746   -9.1429   44.4668 C   0  0  2  0  0  0  0  0  0  0  0  0
    0.0210   -9.0463   45.0625 N   0  0  0  0  0  0  0  0  0  0  0  0
    0.8538   -3.2772   44.6880 C   0  0  0  0  0  0  0  0  0  0  0  0
   -0.7337  -12.3019   49.4147 C   0  0  2  0  0  0  0  0  0  0  0  0
    0.0202  -11.0549   49.7003 N   0  0  0  0  0  0  0  0  0  0  0  0
    2.3697   -9.8245   45.5034 C   0  0  1  0  0  0  0  0  0  0  0  0
    1.8374  -11.1355   45.9576 O   0  0  0  0  0  0  0  0  0  0  0  0
    0.7449   -4.8628   44.6390 C   0  0  2  0  0  0  0  0  0  0  0  0
   -0.4802   -5.3068   45.3379 N   0  0  0  0  0  0  0  0  0  0  0  0
   -1.0268  -12.4264   47.8547 C   0  0  1  0  0  0  0  0  0  0  0  0
    0.1821  -12.4039   47.0531 O   0  0  0  0  0  0  0  0  0  0  0  0
    3.7991   -9.9066   44.8079 C   0  0  2  0  0  0  0  0  0  0  0  0
    4.7635  -10.4816   45.6712 O   0  0  0  0  0  0  0  0  0  0  0  0
    2.0200   -5.5129   45.3179 C   0  0  2  0  0  0  0  0  0  0  0  0
   -1.8065  -13.7556   47.6018 C   0  0  2  0  0  0  0  0  0  0  0  0
   -2.1047  -13.9152   46.2288 O   0  0  0  0  0  0  0  0  0  0  0  0
    4.2755   -8.4755   44.3514 C   0  0  2  0  0  0  0  0  0  0  0  0
    3.2664   -7.8752   43.4538 O   0  0  0  0  0  0  0  0  0  0  0  0
    3.3147   -5.0596   44.5868 C   0  0  2  0  0  0  0  0  0  0  0  0
    4.4420   -5.6605   45.2864 O   0  0  0  0  0  0  0  0  0  0  0  0
   -3.1265  -13.7808   48.4713 C   0  0  2  0  0  0  0  0  0  0  0  0
   -2.8008  -13.6043   49.9050 O   0  0  0  0  0  0  0  0  0  0  0  0
    5.6301   -8.5313   43.6466 C   0  0  0  0  0  0  0  0  0  0  0  0
    5.5546   -9.2869   42.4625 O   0  0  0  0  0  0  0  0  0  0  0  0
    3.4230   -3.5174   44.6291 C   0  0  1  0  0  0  0  0  0  0  0  0
    4.6024   -3.1322   43.9547 O   0  0  0  0  0  0  0  0  0  0  0  0
   -3.8991  -15.0787   48.2908 C   0  0  0  0  0  0  0  0  0  0  0  0
   -5.0909  -15.0488   49.0382 O   0  0  0  0  0  0  0  0  0  0  0  0
    0.6516  -11.0337   46.8881 C   0  0  0  0  0  0  0  0  0  0  0  0
  1  2  1  1  0  0  0
  1  7  1  0  0  0  0
  1 24  1  0  0  0  0
  3  4  1  1  0  0  0
  3  9  1  0  0  0  0
  3 31  1  0  0  0  0
  5  6  1  6  0  0  0
  5 10  1  0  0  0  0
  5 28  1  0  0  0  0
  7  8  1  1  0  0  0
  7 12  1  0  0  0  0
  9 14  1  0  0  0  0
 10 11  1  6  0  0  0
 10 16  1  0  0  0  0
 12 13  1  6  0  0  0
 12 18  1  0  0  0  0
 13 35  1  0  0  0  0
 14 15  1  1  0  0  0
 14 20  1  0  0  0  0
 16 17  1  6  0  0  0
 16 21  1  0  0  0  0
 17 35  1  0  0  0  0
 18 19  1  1  0  0  0
 18 23  1  0  0  0  0
 20  2  1  6  0  0  0
 20 25  1  0  0  0  0
 21 22  1  6  0  0  0
 21 27  1  0  0  0  0
 23 24  1  0  0  0  0
 23 29  1  6  0  0  0
 25 26  1  1  0  0  0
 25 31  1  0  0  0  0
 27 28  1  0  0  0  0
 27 33  1  1  0  0  0
 29 30  1  0  0  0  0
 31 32  1  6  0  0  0
 33 34  1  0  0  0  0
M  END
>  <CHROM.1>
-167.64585430,-72.02143628,172.25838527,-79.64808040,-175.73435051,67.08819104
63.05708531,-177.82702652,1.01611586,-9.10982580,46.05532622,-0.94175713
-0.51071570,2.99851463

>  <Name>
2o3v_lig

>  <RI>
0

>  <Rbt.Current_Directory>
/home/afrankz/demos/rdock_decoys_rna/rnas/2o3v

>  <Rbt.Executable>
rbdock ($Id: //depot/dev/client3/rdock/2013.1/src/exe/rbdock.cxx#4 $)

>  <Rbt.Library>
libRbt.so (2013.1, Build901 2013/11/27)

>  <Rbt.Parameter_File>
/export/apps/rDock/src/rDock_2013.1_src/data/scripts/dock_solv.prm

>  <Rbt.Receptor>
prm/pocket_docking_6.prm

>  <SCORE>
-11.3523

>  <SCORE.INTER>
-6.65452

>  <SCORE.INTER.CONST>
1

>  <SCORE.INTER.POLAR>
-0.959166

>  <SCORE.INTER.ROT>
8

>  <SCORE.INTER.SOLV>
13.6301

>  <SCORE.INTER.VDW>
-14.7158

>  <SCORE.INTER.norm>
-0.190129

>  <SCORE.INTRA>
-4.69781

>  <SCORE.INTRA.DIHEDRAL>
-9.23689

>  <SCORE.INTRA.DIHEDRAL.0>
13.1227

>  <SCORE.INTRA.POLAR>
0

>  <SCORE.INTRA.POLAR.0>
0

>  <SCORE.INTRA.REPUL>
0

>  <SCORE.INTRA.REPUL.0>
0

>  <SCORE.INTRA.SOLV>
2.08254

>  <SCORE.INTRA.SOLV.lig_0>
-89.1587

>  <SCORE.INTRA.VDW>
-1.12064

>  <SCORE.INTRA.VDW.0>
-0.838383

>  <SCORE.INTRA.norm>
-0.134223

>  <SCORE.RESTR>
0

>  <SCORE.RESTR.CAVITY>
0

>  <SCORE.RESTR.norm>
0

>  <SCORE.SYSTEM>
0

>  <SCORE.SYSTEM.CONST>
0

>  <SCORE.SYSTEM.DIHEDRAL>
0

>  <SCORE.SYSTEM.SOLV>
0

>  <SCORE.SYSTEM.norm>
0

>  <SCORE.heavy>
35

>  <SCORE.norm>
-0.324352

>  <RMSD>
5.536

$$$$
2o3v_lig
 OpenBabel02141814113D
libRbt.so/2013.1/901 2013/11/27
 35 37  0  0  0  0  0  0  0  0999 V2000
    3.6628   -4.4384   46.4641 C   0  0  2  0  0  0  0  0  0  0  0  0
    2.9166   -5.4518   47.2050 O   0  0  0  0  0  0  0  0  0  0  0  0
    3.7790   -8.3457   50.3369 C   0  0  2  0  0  0  0  0  0  0  0  0
    4.3613   -9.5213   51.0518 N   0  0  0  0  0  0  0  0  0  0  0  0
   -4.8614   -5.7555   43.5840 C   0  0  2  0  0  0  0  0  0  0  0  0
   -4.3911   -6.7466   42.6448 O   0  0  0  0  0  0  0  0  0  0  0  0
    2.5366   -3.5567   45.8374 C   0  0  2  0  0  0  0  0  0  0  0  0
    1.6639   -2.9773   46.8858 N   0  0  0  0  0  0  0  0  0  0  0  0
    2.9424   -8.8322   49.0763 C   0  0  0  0  0  0  0  0  0  0  0  0
   -3.6648   -4.7886   43.8868 C   0  0  2  0  0  0  0  0  0  0  0  0
   -3.1554   -4.1645   42.6394 N   0  0  0  0  0  0  0  0  0  0  0  0
    1.6560   -4.3830   44.8024 C   0  0  1  0  0  0  0  0  0  0  0  0
    0.5639   -3.5392   44.2514 O   0  0  0  0  0  0  0  0  0  0  0  0
    2.3443   -7.5632   48.3278 C   0  0  2  0  0  0  0  0  0  0  0  0
    1.5707   -7.9936   47.1434 N   0  0  0  0  0  0  0  0  0  0  0  0
   -2.4865   -5.5372   44.6523 C   0  0  1  0  0  0  0  0  0  0  0  0
   -1.3791   -4.6574   44.9751 O   0  0  0  0  0  0  0  0  0  0  0  0
    2.6430   -4.9727   43.7017 C   0  0  2  0  0  0  0  0  0  0  0  0
    1.9468   -5.7497   42.7438 O   0  0  0  0  0  0  0  0  0  0  0  0
    3.5173   -6.5953   47.8845 C   0  0  2  0  0  0  0  0  0  0  0  0
   -3.0650   -6.1637   45.9605 C   0  0  2  0  0  0  0  0  0  0  0  0
   -2.0615   -6.8535   46.6793 O   0  0  0  0  0  0  0  0  0  0  0  0
    3.7705   -5.8418   44.3779 C   0  0  2  0  0  0  0  0  0  0  0  0
    4.4936   -5.0308   45.3799 O   0  0  0  0  0  0  0  0  0  0  0  0
    4.3339   -6.1294   49.1224 C   0  0  2  0  0  0  0  0  0  0  0  0
    5.4129   -5.2802   48.6369 O   0  0  0  0  0  0  0  0  0  0  0  0
   -4.2696   -7.1262   45.6111 C   0  0  2  0  0  0  0  0  0  0  0  0
   -5.3086   -6.3938   44.8515 O   0  0  0  0  0  0  0  0  0  0  0  0
    4.7544   -6.3899   43.3452 C   0  0  0  0  0  0  0  0  0  0  0  0
    4.4069   -7.6968   42.9579 O   0  0  0  0  0  0  0  0  0  0  0  0
    4.9148   -7.3611   49.8556 C   0  0  1  0  0  0  0  0  0  0  0  0
    5.6459   -6.9115   50.9770 O   0  0  0  0  0  0  0  0  0  0  0  0
   -4.8950   -7.7275   46.8605 C   0  0  0  0  0  0  0  0  0  0  0  0
   -3.9893   -8.6000   47.4918 O   0  0  0  0  0  0  0  0  0  0  0  0
   -0.6365   -4.3185   43.7673 C   0  0  0  0  0  0  0  0  0  0  0  0
  1  2  1  6  0  0  0
  1  7  1  0  0  0  0
  1 24  1  0  0  0  0
  3  4  1  6  0  0  0
  3  9  1  0  0  0  0
  3 31  1  0  0  0  0
  5  6  1  6  0  0  0
  5 10  1  0  0  0  0
  5 28  1  0  0  0  0
  7  8  1  1  0  0  0
  7 12  1  0  0  0  0
  9 14  1  0  0  0  0
 10 11  1  6  0  0  0
 10 16  1  0  0  0  0
 12 13  1  6  0  0  0
 12 18  1  0  0  0  0
 13 35  1  0  0  0  0
 14 15  1  6  0  0  0
 14 20  1  0  0  0  0
 16 17  1  1  0  0  0
 16 21  1  0  0  0  0
 17 35  1  0  0  0  0
 18 19  1  6  0  0  0
 18 23  1  0  0  0  0
 20  2  1  1  0  0  0
 20 25  1  0  0  0  0
 21 22  1  6  0  0  0
 21 27  1  0  0  0  0
 23 24  1  0  0  0  0
 23 29  1  6  0  0  0
 25 26  1  6  0  0  0
 25 31  1  0  0  0  0
 27 28  1  0  0  0  0
 27 33  1  1  0  0  0
 29 30  1  0  0  0  0
 31 32  1  1  0  0  0
 33 34  1  0  0  0  0
M  END
>  <CHROM.1>
174.49692567,-154.72499964,78.80385410,-72.21984898,-173.80623247,-169.98777243
-95.60489268,-66.83869531,0.83597766,-6.10182046,46.08978267,-0.42348570
-0.15584238,-1.04465031

>  <Name>
2o3v_lig

>  <RI>
0

>  <Rbt.Current_Directory>
/home/afrankz/demos/rdock_decoys_rna/rnas/2o3v

>  <Rbt.Executable>
rbdock ($Id: //depot/dev/client3/rdock/2013.1/src/exe/rbdock.cxx#4 $)

>  <Rbt.Library>
libRbt.so (2013.1, Build901 2013/11/27)

>  <Rbt.Parameter_File>
/export/apps/rDock/src/rDock_2013.1_src/data/scripts/dock_solv.prm

>  <Rbt.Receptor>
prm/pocket_docking_5.prm

>  <SCORE>
-11.1524

>  <SCORE.INTER>
-8.3448

>  <SCORE.INTER.CONST>
1

>  <SCORE.INTER.POLAR>
-1.07321

>  <SCORE.INTER.ROT>
8

>  <SCORE.INTER.SOLV>
16.5293

>  <SCORE.INTER.VDW>
-16.4289

>  <SCORE.INTER.norm>
-0.238423

>  <SCORE.INTRA>
-2.8076

>  <SCORE.INTRA.DIHEDRAL>
-3.67887

>  <SCORE.INTRA.DIHEDRAL.0>
13.1227

>  <SCORE.INTRA.POLAR>
0

>  <SCORE.INTRA.POLAR.0>
0

>  <SCORE.INTRA.REPUL>
0.0094346

>  <SCORE.INTRA.REPUL.0>
0

>  <SCORE.INTRA.SOLV>
0.547306

>  <SCORE.INTRA.SOLV.lig_0>
-89.1587

>  <SCORE.INTRA.VDW>
-1.28899

>  <SCORE.INTRA.VDW.0>
-0.838383

>  <SCORE.INTRA.norm>
-0.080217

>  <SCORE.RESTR>
0

>  <SCORE.RESTR.CAVITY>
0

>  <SCORE.RESTR.norm>
0

>  <SCORE.SYSTEM>
0

>  <SCORE.SYSTEM.CONST>
0

>  <SCORE.SYSTEM.DIHEDRAL>
0

>  <SCORE.SYSTEM.SOLV>
0

>  <SCORE.SYSTEM.norm>
0

>  <SCORE.heavy>
35

>  <SCORE.norm>
-0.31864

>  <RMSD>
5.598

$$$$
2o3v_lig
 OpenBabel02141814113D
libRbt.so/2013.1/901 2013/11/27
 35 37  0  0  0  0  0  0  0  0999 V2000
    1.1919   -6.8853   48.1020 C   0  0  2  0  0  0  0  0  0  0  0  0
    1.8725   -8.1738   48.1977 O   0  0  0  0  0  0  0  0  0  0  0  0
    5.5650   -9.4151   50.1348 C   0  0  2  0  0  0  0  0  0  0  0  0
    7.0210   -9.6220   50.3981 N   0  0  0  0  0  0  0  0  0  0  0  0
   -4.9033   -4.5235   42.8161 C   0  0  2  0  0  0  0  0  0  0  0  0
   -6.1748   -4.6662   43.4857 O   0  0  0  0  0  0  0  0  0  0  0  0
   -0.3148   -7.2861   48.0132 C   0  0  2  0  0  0  0  0  0  0  0  0
   -0.7313   -8.0705   49.1996 N   0  0  0  0  0  0  0  0  0  0  0  0
    5.1448  -10.1426   48.7859 C   0  0  0  0  0  0  0  0  0  0  0  0
   -4.0548   -5.8017   43.1392 C   0  0  2  0  0  0  0  0  0  0  0  0
   -4.7646   -7.0341   42.7122 N   0  0  0  0  0  0  0  0  0  0  0  0
   -0.6223   -8.1116   46.6891 C   0  0  1  0  0  0  0  0  0  0  0  0
   -2.0502   -8.5211   46.6455 O   0  0  0  0  0  0  0  0  0  0  0  0
    3.5958   -9.8974   48.5233 C   0  0  2  0  0  0  0  0  0  0  0  0
    3.1861  -10.5573   47.2651 N   0  0  0  0  0  0  0  0  0  0  0  0
   -3.6851   -5.8837   44.6857 C   0  0  1  0  0  0  0  0  0  0  0  0
   -2.8711   -7.0406   45.0075 O   0  0  0  0  0  0  0  0  0  0  0  0
   -0.1618   -7.2194   45.4539 C   0  0  2  0  0  0  0  0  0  0  0  0
   -0.3758   -7.8874   44.2235 O   0  0  0  0  0  0  0  0  0  0  0  0
    3.3019   -8.3431   48.4388 C   0  0  2  0  0  0  0  0  0  0  0  0
   -2.9301   -4.5762   45.0844 C   0  0  2  0  0  0  0  0  0  0  0  0
   -2.5845   -4.5881   46.4555 O   0  0  0  0  0  0  0  0  0  0  0  0
    1.3580   -6.8258   45.5916 C   0  0  2  0  0  0  0  0  0  0  0  0
    1.5804   -6.1324   46.8777 O   0  0  0  0  0  0  0  0  0  0  0  0
    3.7215   -7.6387   49.7594 C   0  0  2  0  0  0  0  0  0  0  0  0
    3.4611   -6.2152   49.5946 O   0  0  0  0  0  0  0  0  0  0  0  0
   -3.8168   -3.3140   44.7383 C   0  0  2  0  0  0  0  0  0  0  0  0
   -4.1784   -3.3183   43.3023 O   0  0  0  0  0  0  0  0  0  0  0  0
    1.8162   -5.9371   44.4361 C   0  0  0  0  0  0  0  0  0  0  0  0
    1.5735   -6.5538   43.1953 O   0  0  0  0  0  0  0  0  0  0  0  0
    5.2271   -7.8776   50.0206 C   0  0  1  0  0  0  0  0  0  0  0  0
    5.5806   -7.2333   51.2264 O   0  0  0  0  0  0  0  0  0  0  0  0
   -3.1031   -2.0121   45.0696 C   0  0  0  0  0  0  0  0  0  0  0  0
   -3.0351   -1.8303   46.4633 O   0  0  0  0  0  0  0  0  0  0  0  0
   -3.0147   -7.3808   46.4177 C   0  0  0  0  0  0  0  0  0  0  0  0
  1  2  1  6  0  0  0
  1  7  1  0  0  0  0
  1 24  1  0  0  0  0
  3  4  1  6  0  0  0
  3  9  1  0  0  0  0
  3 31  1  0  0  0  0
  5  6  1  1  0  0  0
  5 10  1  0  0  0  0
  5 28  1  0  0  0  0
  7  8  1  1  0  0  0
  7 12  1  0  0  0  0
  9 14  1  0  0  0  0
 10 11  1  1  0  0  0
 10 16  1  0  0  0  0
 12 13  1  6  0  0  0
 12 18  1  0  0  0  0
 13 35  1  0  0  0  0
 14 15  1  6  0  0  0
 14 20  1  0  0  0  0
 16 17  1  6  0  0  0
 16 21  1  0  0  0  0
 17 35  1  0  0  0  0
 18 19  1  6  0  0  0
 18 23  1  0  0  0  0
 20  2  1  1  0  0  0
 20 25  1  0  0  0  0
 21 22  1  1  0  0  0
 21 27  1  0  0  0  0
 23 24  1  0  0  0  0
 23 29  1  6  0  0  0
 25 26  1  6  0  0  0
 25 31  1  0  0  0  0
 27 28  1  0  0  0  0
 27 33  1  6  0  0  0
 29 30  1  0  0  0  0
 31 32  1  1  0  0  0
 33 34  1  0  0  0  0
M  END
>  <CHROM.1>
-173.50707802,70.30848646,74.40387743,-156.75316604,-175.89636131,177.79659920
-55.93933095,-71.86404147,0.01559726,-6.71748596,46.55370141,-0.13242571
-0.64468807,0.42804199

>  <Name>
2o3v_lig

>  <RI>
0

>  <Rbt.Current_Directory>
/home/afrankz/demos/rdock_decoys_rna/rnas/2o3v

>  <Rbt.Executable>
rbdock ($Id: //depot/dev/client3/rdock/2013.1/src/exe/rbdock.cxx#4 $)

>  <Rbt.Library>
libRbt.so (2013.1, Build901 2013/11/27)

>  <Rbt.Parameter_File>
/export/apps/rDock/src/rDock_2013.1_src/data/scripts/dock_solv.prm

>  <Rbt.Receptor>
prm/pocket_docking_8.prm

>  <SCORE>
-12.3489

>  <SCORE.INTER>
-7.59865

>  <SCORE.INTER.CONST>
1

>  <SCORE.INTER.POLAR>
-1.45302

>  <SCORE.INTER.ROT>
8

>  <SCORE.INTER.SOLV>
13.2804

>  <SCORE.INTER.VDW>
-13.5825

>  <SCORE.INTER.norm>
-0.217104

>  <SCORE.INTRA>
-4.75025

>  <SCORE.INTRA.DIHEDRAL>
-8.37743

>  <SCORE.INTRA.DIHEDRAL.0>
13.1227

>  <SCORE.INTRA.POLAR>
0

>  <SCORE.INTRA.POLAR.0>
0

>  <SCORE.INTRA.REPUL>
0

>  <SCORE.INTRA.REPUL.0>
0

>  <SCORE.INTRA.SOLV>
0.0646759

>  <SCORE.INTRA.SOLV.lig_0>
-89.1587

>  <SCORE.INTRA.VDW>
-0.593879

>  <SCORE.INTRA.VDW.0>
-0.838383

>  <SCORE.INTRA.norm>
-0.135722

>  <SCORE.RESTR>
0

>  <SCORE.RESTR.CAVITY>
0

>  <SCORE.RESTR.norm>
0

>  <SCORE.SYSTEM>
0

>  <SCORE.SYSTEM.CONST>
0

>  <SCORE.SYSTEM.DIHEDRAL>
0

>  <SCORE.SYSTEM.SOLV>
0

>  <SCORE.SYSTEM.norm>
0

>  <SCORE.heavy>
35

>  <SCORE.norm>
-0.352826

>  <RMSD>
5.604

$$$$
2o3v_lig
 OpenBabel02141814113D
libRbt.so/2013.1/901 2013/11/27
 35 37  0  0  0  0  0  0  0  0999 V2000
    2.8842   -5.2588   47.6469 C   0  0  2  0  0  0  0  0  0  0  0  0
    3.3397   -6.6278   47.4213 O   0  0  0  0  0  0  0  0  0  0  0  0
    6.3478   -9.0600   49.4121 C   0  0  2  0  0  0  0  0  0  0  0  0
    7.6750   -9.6202   49.8081 N   0  0  0  0  0  0  0  0  0  0  0  0
   -0.7472  -11.5442   48.3901 C   0  0  2  0  0  0  0  0  0  0  0  0
   -2.1294  -11.4229   48.7903 O   0  0  0  0  0  0  0  0  0  0  0  0
    1.3288   -5.3972   47.6398 C   0  0  2  0  0  0  0  0  0  0  0  0
    0.8697   -6.3370   48.6896 N   0  0  0  0  0  0  0  0  0  0  0  0
    6.0923   -9.3034   47.8626 C   0  0  0  0  0  0  0  0  0  0  0  0
   -0.2718  -10.1313   47.9043 C   0  0  2  0  0  0  0  0  0  0  0  0
   -0.4468   -9.1143   48.9719 N   0  0  0  0  0  0  0  0  0  0  0  0
    0.7914   -5.8736   46.2207 C   0  0  1  0  0  0  0  0  0  0  0  0
   -0.6848   -6.0417   46.2478 O   0  0  0  0  0  0  0  0  0  0  0  0
    4.6807   -8.6885   47.4653 C   0  0  2  0  0  0  0  0  0  0  0  0
    4.4281   -8.8942   46.0230 N   0  0  0  0  0  0  0  0  0  0  0  0
   -1.0329   -9.6807   46.5805 C   0  0  1  0  0  0  0  0  0  0  0  0
   -0.5883   -8.3900   46.0894 O   0  0  0  0  0  0  0  0  0  0  0  0
    1.3087   -4.8262   45.1395 C   0  0  2  0  0  0  0  0  0  0  0  0
    0.8969   -5.1840   43.8325 O   0  0  0  0  0  0  0  0  0  0  0  0
    4.6513   -7.1412   47.8037 C   0  0  2  0  0  0  0  0  0  0  0  0
   -0.8093  -10.7709   45.4851 C   0  0  2  0  0  0  0  0  0  0  0  0
   -1.4741  -10.4279   44.2851 O   0  0  0  0  0  0  0  0  0  0  0  0
    2.8793   -4.7068   45.1915 C   0  0  2  0  0  0  0  0  0  0  0  0
    3.3077   -4.3372   46.5570 O   0  0  0  0  0  0  0  0  0  0  0  0
    4.9082   -6.9120   49.3195 C   0  0  2  0  0  0  0  0  0  0  0  0
    4.9068   -5.4737   49.5481 O   0  0  0  0  0  0  0  0  0  0  0  0
   -1.2968  -12.1778   46.0164 C   0  0  2  0  0  0  0  0  0  0  0  0
   -0.5994  -12.5206   47.2770 O   0  0  0  0  0  0  0  0  0  0  0  0
    3.3994   -3.6790   44.1877 C   0  0  0  0  0  0  0  0  0  0  0  0
    4.8015   -3.5801   44.2439 O   0  0  0  0  0  0  0  0  0  0  0  0
    6.2789   -7.5119   49.7111 C   0  0  1  0  0  0  0  0  0  0  0  0
    6.4850   -7.2956   51.0913 O   0  0  0  0  0  0  0  0  0  0  0  0
   -1.0581  -13.2818   44.9975 C   0  0  0  0  0  0  0  0  0  0  0  0
   -1.6293  -14.4896   45.4393 O   0  0  0  0  0  0  0  0  0  0  0  0
   -1.1505   -7.3201   46.9045 C   0  0  0  0  0  0  0  0  0  0  0  0
  1  2  1  6  0  0  0
  1  7  1  0  0  0  0
  1 24  1  0  0  0  0
  3  4  1  6  0  0  0
  3  9  1  0  0  0  0
  3 31  1  0  0  0  0
  5  6  1  6  0  0  0
  5 10  1  0  0  0  0
  5 28  1  0  0  0  0
  7  8  1  1  0  0  0
  7 12  1  0  0  0  0
  9 14  1  0  0  0  0
 10 11  1  1  0  0  0
 10 16  1  0  0  0  0
 12 13  1  1  0  0  0
 12 18  1  0  0  0  0
 13 35  1  0  0  0  0
 14 15  1  6  0  0  0
 14 20  1  0  0  0  0
 16 17  1  6  0  0  0
 16 21  1  0  0  0  0
 17 35  1  0  0  0  0
 18 19  1  6  0  0  0
 18 23  1  0  0  0  0
 20  2  1  1  0  0  0
 20 25  1  0  0  0  0
 21 22  1  6  0  0  0
 21 27  1  0  0  0  0
 23 24  1  0  0  0  0
 23 29  1  6  0  0  0
 25 26  1  6  0  0  0
 25 31  1  0  0  0  0
 27 28  1  0  0  0  0
 27 33  1  6  0  0  0
 29 30  1  0  0  0  0
 31 32  1  1  0  0  0
 33 34  1  0  0  0  0
M  END
>  <CHROM.1>
-156.82856333,-78.16196610,-61.79059744,-76.20021226,-176.74225766,176.09588399
179.94498663,-173.73796123,1.92031551,-8.08461750,47.06699751,0.56883739
-0.50709671,-0.40757460

>  <Name>
2o3v_lig

>  <RI>
0

>  <Rbt.Current_Directory>
/home/afrankz/demos/rdock_decoys_rna/rnas/2o3v

>  <Rbt.Executable>
rbdock ($Id: //depot/dev/client3/rdock/2013.1/src/exe/rbdock.cxx#4 $)

>  <Rbt.Library>
libRbt.so (2013.1, Build901 2013/11/27)

>  <Rbt.Parameter_File>
/export/apps/rDock/src/rDock_2013.1_src/data/scripts/dock_solv.prm

>  <Rbt.Receptor>
prm/pocket_docking_7.prm

>  <SCORE>
-10.0748

>  <SCORE.INTER>
-6.61598

>  <SCORE.INTER.CONST>
1

>  <SCORE.INTER.POLAR>
-1.85839

>  <SCORE.INTER.ROT>
8

>  <SCORE.INTER.SOLV>
9.75371

>  <SCORE.INTER.VDW>
-10.4006

>  <SCORE.INTER.norm>
-0.189028

>  <SCORE.INTRA>
-3.45883

>  <SCORE.INTRA.DIHEDRAL>
-7.72929

>  <SCORE.INTRA.DIHEDRAL.0>
13.1227

>  <SCORE.INTRA.POLAR>
0

>  <SCORE.INTRA.POLAR.0>
0

>  <SCORE.INTRA.REPUL>
0.000447836

>  <SCORE.INTRA.REPUL.0>
0

>  <SCORE.INTRA.SOLV>
2.53326

>  <SCORE.INTRA.SOLV.lig_0>
-89.1587

>  <SCORE.INTRA.VDW>
-0.863053

>  <SCORE.INTRA.VDW.0>
-0.838383

>  <SCORE.INTRA.norm>
-0.0988236

>  <SCORE.RESTR>
0

>  <SCORE.RESTR.CAVITY>
0

>  <SCORE.RESTR.norm>
0

>  <SCORE.SYSTEM>
0

>  <SCORE.SYSTEM.CONST>
0

>  <SCORE.SYSTEM.DIHEDRAL>
0

>  <SCORE.SYSTEM.SOLV>
0

>  <SCORE.SYSTEM.norm>
0

>  <SCORE.heavy>
35

>  <SCORE.norm>
-0.287851

>  <RMSD>
5.648

$$$$
2o3v_lig
 OpenBabel02141814113D
libRbt.so/2013.1/901 2013/11/27
 35 37  0  0  0  0  0  0  0  0999 V2000
    3.3674   -4.3168   46.1676 C   0  0  2  0  0  0  0  0  0  0  0  0
    2.6309   -5.2348   47.0323 O   0  0  0  0  0  0  0  0  0  0  0  0
    3.8982   -7.7389   50.3566 C   0  0  2  0  0  0  0  0  0  0  0  0
    4.4807   -8.8831   51.1207 N   0  0  0  0  0  0  0  0  0  0  0  0
   -5.0881   -5.7309   42.8495 C   0  0  2  0  0  0  0  0  0  0  0  0
   -4.7211   -6.1255   41.5097 O   0  0  0  0  0  0  0  0  0  0  0  0
    2.2360   -3.4640   45.5111 C   0  0  2  0  0  0  0  0  0  0  0  0
    1.4280   -2.7644   46.5378 N   0  0  0  0  0  0  0  0  0  0  0  0
    2.6875   -8.2416   49.4583 C   0  0  0  0  0  0  0  0  0  0  0  0
   -3.8773   -4.9407   43.4560 C   0  0  2  0  0  0  0  0  0  0  0  0
   -3.5310   -3.7678   42.6137 N   0  0  0  0  0  0  0  0  0  0  0  0
    1.2875   -4.3560   44.5978 C   0  0  1  0  0  0  0  0  0  0  0  0
    0.1927   -3.5349   44.0186 O   0  0  0  0  0  0  0  0  0  0  0  0
    2.0940   -7.0089   48.6481 C   0  0  2  0  0  0  0  0  0  0  0  0
    0.9720   -7.4577   47.7959 N   0  0  0  0  0  0  0  0  0  0  0  0
   -2.6048   -5.8778   43.6498 C   0  0  1  0  0  0  0  0  0  0  0  0
   -1.4788   -5.1798   44.2411 O   0  0  0  0  0  0  0  0  0  0  0  0
    2.2070   -5.0741   43.5149 C   0  0  2  0  0  0  0  0  0  0  0  0
    1.4475   -5.9154   42.6657 O   0  0  0  0  0  0  0  0  0  0  0  0
    3.2257   -6.3566   47.7521 C   0  0  2  0  0  0  0  0  0  0  0  0
   -3.0123   -7.0863   44.5509 C   0  0  2  0  0  0  0  0  0  0  0  0
   -1.9198   -7.9619   44.7495 O   0  0  0  0  0  0  0  0  0  0  0  0
    3.3423   -5.9098   44.2195 C   0  0  2  0  0  0  0  0  0  0  0  0
    4.1315   -5.0313   45.1082 O   0  0  0  0  0  0  0  0  0  0  0  0
    4.4084   -5.8734   48.6377 C   0  0  2  0  0  0  0  0  0  0  0  0
    5.4223   -5.3249   47.7476 O   0  0  0  0  0  0  0  0  0  0  0  0
   -4.2367   -7.8511   43.9066 C   0  0  2  0  0  0  0  0  0  0  0  0
   -5.3700   -6.9215   43.6963 O   0  0  0  0  0  0  0  0  0  0  0  0
    4.2628   -6.5800   43.2005 C   0  0  0  0  0  0  0  0  0  0  0  0
    5.2142   -7.3973   43.8374 O   0  0  0  0  0  0  0  0  0  0  0  0
    4.9865   -7.0690   49.4304 C   0  0  1  0  0  0  0  0  0  0  0  0
    6.0535   -6.6030   50.2294 O   0  0  0  0  0  0  0  0  0  0  0  0
   -4.6982   -9.0132   44.7730 C   0  0  0  0  0  0  0  0  0  0  0  0
   -5.1228   -8.5489   46.0317 O   0  0  0  0  0  0  0  0  0  0  0  0
   -0.8354   -4.3290   43.2474 C   0  0  0  0  0  0  0  0  0  0  0  0
  1  2  1  1  0  0  0
  1  7  1  0  0  0  0
  1 24  1  0  0  0  0
  3  4  1  6  0  0  0
  3  9  1  0  0  0  0
  3 31  1  0  0  0  0
  5  6  1  6  0  0  0
  5 10  1  0  0  0  0
  5 28  1  0  0  0  0
  7  8  1  1  0  0  0
  7 12  1  0  0  0  0
  9 14  1  0  0  0  0
 10 11  1  6  0  0  0
 10 16  1  0  0  0  0
 12 13  1  6  0  0  0
 12 18  1  0  0  0  0
 13 35  1  0  0  0  0
 14 15  1  6  0  0  0
 14 20  1  0  0  0  0
 16 17  1  1  0  0  0
 16 21  1  0  0  0  0
 17 35  1  0  0  0  0
 18 19  1  1  0  0  0
 18 23  1  0  0  0  0
 20  2  1  1  0  0  0
 20 25  1  0  0  0  0
 21 22  1  6  0  0  0
 21 27  1  0  0  0  0
 23 24  1  0  0  0  0
 23 29  1  6  0  0  0
 25 26  1  6  0  0  0
 25 31  1  0  0  0  0
 27 28  1  0  0  0  0
 27 33  1  1  0  0  0
 29 30  1  0  0  0  0
 31 32  1  1  0  0  0
 33 34  1  0  0  0  0
M  END
>  <CHROM.1>
172.23329626,-174.23078914,65.22217689,-76.13582196,173.00357960,175.70404086
-175.88244594,61.09426123,0.66025806,-6.10726156,45.59244312,-0.42855373
-0.29443525,-0.97209828

>  <Name>
2o3v_lig

>  <RI>
0

>  <Rbt.Current_Directory>
/home/afrankz/demos/rdock_decoys_rna/rnas/2o3v

>  <Rbt.Executable>
rbdock ($Id: //depot/dev/client3/rdock/2013.1/src/exe/rbdock.cxx#4 $)

>  <Rbt.Library>
libRbt.so (2013.1, Build901 2013/11/27)

>  <Rbt.Parameter_File>
/export/apps/rDock/src/rDock_2013.1_src/data/scripts/dock_solv.prm

>  <Rbt.Receptor>
prm/pocket_docking_6.prm

>  <SCORE>
-16.2876

>  <SCORE.INTER>
-10.16

>  <SCORE.INTER.CONST>
1

>  <SCORE.INTER.POLAR>
-1.22789

>  <SCORE.INTER.ROT>
8

>  <SCORE.INTER.SOLV>
16.0937

>  <SCORE.INTER.VDW>
-16.9782

>  <SCORE.INTER.norm>
-0.290285

>  <SCORE.INTRA>
-6.12759

>  <SCORE.INTRA.DIHEDRAL>
-10.8751

>  <SCORE.INTRA.DIHEDRAL.0>
13.1227

>  <SCORE.INTRA.POLAR>
0

>  <SCORE.INTRA.POLAR.0>
0

>  <SCORE.INTRA.REPUL>
0.032214

>  <SCORE.INTRA.REPUL.0>
0

>  <SCORE.INTRA.SOLV>
-0.20222

>  <SCORE.INTRA.SOLV.lig_0>
-89.1587

>  <SCORE.INTRA.VDW>
-0.749979

>  <SCORE.INTRA.VDW.0>
-0.838383

>  <SCORE.INTRA.norm>
-0.175074

>  <SCORE.RESTR>
0

>  <SCORE.RESTR.CAVITY>
0

>  <SCORE.RESTR.norm>
0

>  <SCORE.SYSTEM>
0

>  <SCORE.SYSTEM.CONST>
0

>  <SCORE.SYSTEM.DIHEDRAL>
0

>  <SCORE.SYSTEM.SOLV>
0

>  <SCORE.SYSTEM.norm>
0

>  <SCORE.heavy>
35

>  <SCORE.norm>
-0.465359

>  <RMSD>
5.649

$$$$
2o3v_lig
 OpenBabel02141814113D
libRbt.so/2013.1/901 2013/11/27
 35 37  0  0  0  0  0  0  0  0999 V2000
    4.1005   -3.9011   43.9261 C   0  0  2  0  0  0  0  0  0  0  0  0
    4.0614   -5.3310   43.6318 O   0  0  0  0  0  0  0  0  0  0  0  0
    7.6014   -7.7869   43.0284 C   0  0  2  0  0  0  0  0  0  0  0  0
    8.6814   -8.5649   42.3498 N   0  0  0  0  0  0  0  0  0  0  0  0
   -3.2631   -1.0155   44.5352 C   0  0  2  0  0  0  0  0  0  0  0  0
   -4.0874   -1.2612   43.3751 O   0  0  0  0  0  0  0  0  0  0  0  0
    2.7390   -3.6506   44.6485 C   0  0  2  0  0  0  0  0  0  0  0  0
    2.6170   -4.4860   45.8665 N   0  0  0  0  0  0  0  0  0  0  0  0
    6.1824   -8.4248   42.7046 C   0  0  0  0  0  0  0  0  0  0  0  0
   -2.1865   -2.1536   44.5975 C   0  0  2  0  0  0  0  0  0  0  0  0
   -1.3812   -2.1939   43.3506 N   0  0  0  0  0  0  0  0  0  0  0  0
    1.5060   -3.9269   43.6825 C   0  0  1  0  0  0  0  0  0  0  0  0
    0.2209   -3.7260   44.4011 O   0  0  0  0  0  0  0  0  0  0  0  0
    5.0516   -7.5725   43.4281 C   0  0  2  0  0  0  0  0  0  0  0  0
    3.7205   -8.1431   43.1299 N   0  0  0  0  0  0  0  0  0  0  0  0
   -2.8512   -3.5739   44.8730 C   0  0  1  0  0  0  0  0  0  0  0  0
   -1.8739   -4.6417   44.9689 O   0  0  0  0  0  0  0  0  0  0  0  0
    1.6882   -3.0006   42.4010 C   0  0  2  0  0  0  0  0  0  0  0  0
    0.6425   -3.1972   41.4662 O   0  0  0  0  0  0  0  0  0  0  0  0
    5.1155   -6.0667   42.9406 C   0  0  2  0  0  0  0  0  0  0  0  0
   -3.6739   -3.4872   46.1975 C   0  0  2  0  0  0  0  0  0  0  0  0
   -4.2982   -4.7221   46.4885 O   0  0  0  0  0  0  0  0  0  0  0  0
    3.0793   -3.2749   41.7129 C   0  0  2  0  0  0  0  0  0  0  0  0
    4.1692   -3.0731   42.6906 O   0  0  0  0  0  0  0  0  0  0  0  0
    6.5084   -5.4526   43.2555 C   0  0  2  0  0  0  0  0  0  0  0  0
    6.5072   -4.0882   42.7461 O   0  0  0  0  0  0  0  0  0  0  0  0
   -4.7425   -2.3267   46.0941 C   0  0  2  0  0  0  0  0  0  0  0  0
   -4.0766   -1.0416   45.7808 O   0  0  0  0  0  0  0  0  0  0  0  0
    3.2954   -2.3711   40.5000 C   0  0  0  0  0  0  0  0  0  0  0  0
    3.8996   -3.0765   39.4435 O   0  0  0  0  0  0  0  0  0  0  0  0
    7.6118   -6.2808   42.5564 C   0  0  1  0  0  0  0  0  0  0  0  0
    8.8650   -5.7065   42.8625 O   0  0  0  0  0  0  0  0  0  0  0  0
   -5.5405   -2.1751   47.3802 C   0  0  0  0  0  0  0  0  0  0  0  0
   -4.7693   -1.5277   48.3632 O   0  0  0  0  0  0  0  0  0  0  0  0
   -0.9235   -4.5551   43.8669 C   0  0  0  0  0  0  0  0  0  0  0  0
  1  2  1  6  0  0  0
  1  7  1  0  0  0  0
  1 24  1  0  0  0  0
  3  4  1  6  0  0  0
  3  9  1  0  0  0  0
  3 31  1  0  0  0  0
  5  6  1  6  0  0  0
  5 10  1  0  0  0  0
  5 28  1  0  0  0  0
  7  8  1  1  0  0  0
  7 12  1  0  0  0  0
  9 14  1  0  0  0  0
 10 11  1  6  0  0  0
 10 16  1  0  0  0  0
 12 13  1  1  0  0  0
 12 18  1  0  0  0  0
 13 35  1  0  0  0  0
 14 15  1  6  0  0  0
 14 20  1  0  0  0  0
 16 17  1  1  0  0  0
 16 21  1  0  0  0  0
 17 35  1  0  0  0  0
 18 19  1  6  0  0  0
 18 23  1  0  0  0  0
 20  2  1  1  0  0  0
 20 25  1  0  0  0  0
 21 22  1  6  0  0  0
 21 27  1  0  0  0  0
 23 24  1  0  0  0  0
 23 29  1  6  0  0  0
 25 26  1  6  0  0  0
 25 31  1  0  0  0  0
 27 28  1  0  0  0  0
 27 33  1  1  0  0  0
 29 30  1  0  0  0  0
 31 32  1  1  0  0  0
 33 34  1  0  0  0  0
M  END
>  <CHROM.1>
179.44479542,-151.86966691,157.70311076,-47.04810435,92.54425074,152.82112852
-139.71181569,76.14062615,1.50113947,-4.12886812,43.80754800,-0.05744910
0.44007581,-0.74849763

>  <Name>
2o3v_lig

>  <RI>
0

>  <Rbt.Current_Directory>
/home/afrankz/demos/rdock_decoys_rna/rnas/2o3v

>  <Rbt.Executable>
rbdock ($Id: //depot/dev/client3/rdock/2013.1/src/exe/rbdock.cxx#4 $)

>  <Rbt.Library>
libRbt.so (2013.1, Build901 2013/11/27)

>  <Rbt.Parameter_File>
/export/apps/rDock/src/rDock_2013.1_src/data/scripts/dock_solv.prm

>  <Rbt.Receptor>
prm/blind_docking_60.prm

>  <SCORE>
5.15191

>  <SCORE.INTER>
-7.35861

>  <SCORE.INTER.CONST>
1

>  <SCORE.INTER.POLAR>
-0.959166

>  <SCORE.INTER.ROT>
8

>  <SCORE.INTER.SOLV>
24.5243

>  <SCORE.INTER.VDW>
-18.8166

>  <SCORE.INTER.norm>
-0.210246

>  <SCORE.INTRA>
9.57471

>  <SCORE.INTRA.DIHEDRAL>
5.18695

>  <SCORE.INTRA.DIHEDRAL.0>
13.1227

>  <SCORE.INTRA.POLAR>
0

>  <SCORE.INTRA.POLAR.0>
0

>  <SCORE.INTRA.REPUL>
0

>  <SCORE.INTRA.REPUL.0>
0

>  <SCORE.INTRA.SOLV>
3.03687

>  <SCORE.INTRA.SOLV.lig_0>
-89.1587

>  <SCORE.INTRA.VDW>
5.4628

>  <SCORE.INTRA.VDW.0>
-0.838383

>  <SCORE.INTRA.norm>
0.273563

>  <SCORE.RESTR>
2.93581

>  <SCORE.RESTR.CAVITY>
2.93581

>  <SCORE.RESTR.norm>
0.0838803

>  <SCORE.SYSTEM>
0

>  <SCORE.SYSTEM.CONST>
0

>  <SCORE.SYSTEM.DIHEDRAL>
0

>  <SCORE.SYSTEM.SOLV>
0

>  <SCORE.SYSTEM.norm>
0

>  <SCORE.heavy>
35

>  <SCORE.norm>
0.147197

>  <RMSD>
5.729

$$$$
2o3v_lig
 OpenBabel02141814113D
libRbt.so/2013.1/901 2013/11/27
 35 37  0  0  0  0  0  0  0  0999 V2000
    4.6738   -5.4044   46.9066 C   0  0  2  0  0  0  0  0  0  0  0  0
    4.5355   -6.6375   46.1364 O   0  0  0  0  0  0  0  0  0  0  0  0
    6.8930   -8.2275   42.8438 C   0  0  2  0  0  0  0  0  0  0  0  0
    7.4114   -8.4617   41.4622 N   0  0  0  0  0  0  0  0  0  0  0  0
   -0.1405   -9.1913   45.5405 C   0  0  2  0  0  0  0  0  0  0  0  0
    0.6858   -8.1534   44.9699 O   0  0  0  0  0  0  0  0  0  0  0  0
    4.0604   -5.7815   48.2922 C   0  0  2  0  0  0  0  0  0  0  0  0
    4.7784   -6.9251   48.9027 N   0  0  0  0  0  0  0  0  0  0  0  0
    5.3561   -8.6236   42.9252 C   0  0  0  0  0  0  0  0  0  0  0  0
   -0.4800   -8.7677   47.0114 C   0  0  2  0  0  0  0  0  0  0  0  0
   -1.1583   -7.4471   47.0423 N   0  0  0  0  0  0  0  0  0  0  0  0
    2.5116   -6.1226   48.1718 C   0  0  1  0  0  0  0  0  0  0  0  0
    1.9578   -6.5213   49.4918 O   0  0  0  0  0  0  0  0  0  0  0  0
    4.8270   -8.3543   44.4003 C   0  0  2  0  0  0  0  0  0  0  0  0
    3.3938   -8.7059   44.4948 N   0  0  0  0  0  0  0  0  0  0  0  0
    0.8211   -8.7431   47.9287 C   0  0  1  0  0  0  0  0  0  0  0  0
    0.5310   -8.3863   49.3046 O   0  0  0  0  0  0  0  0  0  0  0  0
    1.7953   -4.8602   47.5185 C   0  0  2  0  0  0  0  0  0  0  0  0
    0.4070   -5.0824   47.3481 O   0  0  0  0  0  0  0  0  0  0  0  0
    5.0356   -6.8304   44.7789 C   0  0  2  0  0  0  0  0  0  0  0  0
    1.4909  -10.1528   47.8761 C   0  0  2  0  0  0  0  0  0  0  0  0
    2.6624  -10.1875   48.6674 O   0  0  0  0  0  0  0  0  0  0  0  0
    2.4545   -4.5061   46.1315 C   0  0  2  0  0  0  0  0  0  0  0  0
    3.9038   -4.2783   46.3103 O   0  0  0  0  0  0  0  0  0  0  0  0
    6.5402   -6.4501   44.6907 C   0  0  2  0  0  0  0  0  0  0  0  0
    6.6501   -5.0336   45.0109 O   0  0  0  0  0  0  0  0  0  0  0  0
    1.8118  -10.5423   46.3779 C   0  0  2  0  0  0  0  0  0  0  0  0
    0.5789  -10.4937   45.5591 O   0  0  0  0  0  0  0  0  0  0  0  0
    1.8089   -3.2736   45.4997 C   0  0  0  0  0  0  0  0  0  0  0  0
    2.4180   -2.9554   44.2722 O   0  0  0  0  0  0  0  0  0  0  0  0
    7.0600   -6.7138   43.2581 C   0  0  1  0  0  0  0  0  0  0  0  0
    8.4277   -6.3661   43.2065 O   0  0  0  0  0  0  0  0  0  0  0  0
    2.4269  -11.9296   46.2726 C   0  0  0  0  0  0  0  0  0  0  0  0
    3.7067  -11.9450   46.8574 O   0  0  0  0  0  0  0  0  0  0  0  0
    0.5057   -6.9364   49.4543 C   0  0  0  0  0  0  0  0  0  0  0  0
  1  2  1  6  0  0  0
  1  7  1  0  0  0  0
  1 24  1  0  0  0  0
  3  4  1  6  0  0  0
  3  9  1  0  0  0  0
  3 31  1  0  0  0  0
  5  6  1  1  0  0  0
  5 10  1  0  0  0  0
  5 28  1  0  0  0  0
  7  8  1  6  0  0  0
  7 12  1  0  0  0  0
  9 14  1  0  0  0  0
 10 11  1  6  0  0  0
 10 16  1  0  0  0  0
 12 13  1  1  0  0  0
 12 18  1  0  0  0  0
 13 35  1  0  0  0  0
 14 15  1  6  0  0  0
 14 20  1  0  0  0  0
 16 17  1  1  0  0  0
 16 21  1  0  0  0  0
 17 35  1  0  0  0  0
 18 19  1  6  0  0  0
 18 23  1  0  0  0  0
 20  2  1  1  0  0  0
 20 25  1  0  0  0  0
 21 22  1  1  0  0  0
 21 27  1  0  0  0  0
 23 24  1  0  0  0  0
 23 29  1  1  0  0  0
 25 26  1  6  0  0  0
 25 31  1  0  0  0  0
 27 28  1  0  0  0  0
 27 33  1  1  0  0  0
 29 30  1  0  0  0  0
 31 32  1  1  0  0  0
 33 34  1  0  0  0  0
M  END
>  <CHROM.1>
-176.30616125,-176.82511752,94.09863497,-85.14208631,-77.85885601,173.23942129
179.13395416,-67.23763173,3.14299625,-7.38949134,46.15493437,0.16376514,0.64088116
0.14042539

>  <Name>
2o3v_lig

>  <RI>
0

>  <Rbt.Current_Directory>
/home/afrankz/demos/rdock_decoys_rna/rnas/2o3v

>  <Rbt.Executable>
rbdock ($Id: //depot/dev/client3/rdock/2013.1/src/exe/rbdock.cxx#4 $)

>  <Rbt.Library>
libRbt.so (2013.1, Build901 2013/11/27)

>  <Rbt.Parameter_File>
/export/apps/rDock/src/rDock_2013.1_src/data/scripts/dock_solv.prm

>  <Rbt.Receptor>
prm/pocket_docking_5.prm

>  <SCORE>
-12.0693

>  <SCORE.INTER>
-10.3388

>  <SCORE.INTER.CONST>
1

>  <SCORE.INTER.POLAR>
0

>  <SCORE.INTER.ROT>
8

>  <SCORE.INTER.SOLV>
19.8356

>  <SCORE.INTER.VDW>
-22.4377

>  <SCORE.INTER.norm>
-0.295395

>  <SCORE.INTRA>
-1.7305

>  <SCORE.INTRA.DIHEDRAL>
-4.02844

>  <SCORE.INTRA.DIHEDRAL.0>
13.1227

>  <SCORE.INTRA.POLAR>
0

>  <SCORE.INTRA.POLAR.0>
0

>  <SCORE.INTRA.REPUL>
0.00757997

>  <SCORE.INTRA.REPUL.0>
0

>  <SCORE.INTRA.SOLV>
6.16622

>  <SCORE.INTRA.SOLV.lig_0>
-89.1587

>  <SCORE.INTRA.VDW>
-2.83729

>  <SCORE.INTRA.VDW.0>
-0.838383

>  <SCORE.INTRA.norm>
-0.0494428

>  <SCORE.RESTR>
0

>  <SCORE.RESTR.CAVITY>
0

>  <SCORE.RESTR.norm>
0

>  <SCORE.SYSTEM>
0

>  <SCORE.SYSTEM.CONST>
0

>  <SCORE.SYSTEM.DIHEDRAL>
0

>  <SCORE.SYSTEM.SOLV>
0

>  <SCORE.SYSTEM.norm>
0

>  <SCORE.heavy>
35

>  <SCORE.norm>
-0.344837

>  <RMSD>
5.729

$$$$
2o3v_lig
 OpenBabel02141814113D
libRbt.so/2013.1/901 2013/11/27
 35 37  0  0  0  0  0  0  0  0999 V2000
    2.4705   -5.4770   44.4631 C   0  0  2  0  0  0  0  0  0  0  0  0
    2.3142   -5.4753   45.9151 O   0  0  0  0  0  0  0  0  0  0  0  0
    4.8508   -6.1429   49.3860 C   0  0  2  0  0  0  0  0  0  0  0  0
    5.7484   -6.8204   50.3697 N   0  0  0  0  0  0  0  0  0  0  0  0
   -6.0640   -4.0932   43.4333 C   0  0  2  0  0  0  0  0  0  0  0  0
   -5.7606   -3.6453   44.7723 O   0  0  0  0  0  0  0  0  0  0  0  0
    1.4480   -4.3934   43.9954 C   0  0  2  0  0  0  0  0  0  0  0  0
    1.7469   -3.0761   44.6051 N   0  0  0  0  0  0  0  0  0  0  0  0
    3.4434   -6.8791   49.3333 C   0  0  0  0  0  0  0  0  0  0  0  0
   -4.7910   -4.8235   42.8812 C   0  0  2  0  0  0  0  0  0  0  0  0
   -4.4006   -5.9529   43.7626 N   0  0  0  0  0  0  0  0  0  0  0  0
   -0.0470   -4.8156   44.3361 C   0  0  1  0  0  0  0  0  0  0  0  0
   -0.9998   -3.7524   43.9235 O   0  0  0  0  0  0  0  0  0  0  0  0
    2.5127   -6.1468   48.2722 C   0  0  2  0  0  0  0  0  0  0  0  0
    1.2003   -6.8240   48.1990 N   0  0  0  0  0  0  0  0  0  0  0  0
   -3.5713   -3.8165   42.6990 C   0  0  1  0  0  0  0  0  0  0  0  0
   -2.3890   -4.4595   42.1574 O   0  0  0  0  0  0  0  0  0  0  0  0
   -0.3105   -6.2286   43.6520 C   0  0  2  0  0  0  0  0  0  0  0  0
   -1.6182   -6.7001   43.9231 O   0  0  0  0  0  0  0  0  0  0  0  0
    3.2061   -6.1568   46.8480 C   0  0  2  0  0  0  0  0  0  0  0  0
   -4.0232   -2.6565   41.7562 C   0  0  2  0  0  0  0  0  0  0  0  0
   -2.9793   -1.7219   41.5658 O   0  0  0  0  0  0  0  0  0  0  0  0
    0.7513   -7.2862   44.1397 C   0  0  2  0  0  0  0  0  0  0  0  0
    2.1154   -6.7910   43.8596 O   0  0  0  0  0  0  0  0  0  0  0  0
    4.5842   -5.4404   46.9101 C   0  0  2  0  0  0  0  0  0  0  0  0
    5.1775   -5.5234   45.5826 O   0  0  0  0  0  0  0  0  0  0  0  0
   -5.3093   -1.9515   42.3463 C   0  0  2  0  0  0  0  0  0  0  0  0
   -6.3911   -2.9423   42.5487 O   0  0  0  0  0  0  0  0  0  0  0  0
    0.5433   -8.6432   43.4688 C   0  0  0  0  0  0  0  0  0  0  0  0
   -0.6721   -9.2264   43.8709 O   0  0  0  0  0  0  0  0  0  0  0  0
    5.4917   -6.1475   47.9437 C   0  0  1  0  0  0  0  0  0  0  0  0
    6.7329   -5.4753   47.9846 O   0  0  0  0  0  0  0  0  0  0  0  0
   -5.8134   -0.8404   41.4378 C   0  0  0  0  0  0  0  0  0  0  0  0
   -6.9214   -0.1961   42.0184 O   0  0  0  0  0  0  0  0  0  0  0  0
   -1.2066   -3.6516   42.4304 C   0  0  0  0  0  0  0  0  0  0  0  0
  1  2  1  1  0  0  0
  1  7  1  0  0  0  0
  1 24  1  0  0  0  0
  3  4  1  1  0  0  0
  3  9  1  0  0  0  0
  3 31  1  0  0  0  0
  5  6  1  1  0  0  0
  5 10  1  0  0  0  0
  5 28  1  0  0  0  0
  7  8  1  1  0  0  0
  7 12  1  0  0  0  0
  9 14  1  0  0  0  0
 10 11  1  1  0  0  0
 10 16  1  0  0  0  0
 12 13  1  6  0  0  0
 12 18  1  0  0  0  0
 13 35  1  0  0  0  0
 14 15  1  6  0  0  0
 14 20  1  0  0  0  0
 16 17  1  6  0  0  0
 16 21  1  0  0  0  0
 17 35  1  0  0  0  0
 18 19  1  1  0  0  0
 18 23  1  0  0  0  0
 20  2  1  6  0  0  0
 20 25  1  0  0  0  0
 21 22  1  1  0  0  0
 21 27  1  0  0  0  0
 23 24  1  0  0  0  0
 23 29  1  6  0  0  0
 25 26  1  6  0  0  0
 25 31  1  0  0  0  0
 27 28  1  0  0  0  0
 27 33  1  6  0  0  0
 29 30  1  0  0  0  0
 31 32  1  1  0  0  0
 33 34  1  0  0  0  0
M  END
>  <CHROM.1>
-169.20752740,73.28071115,94.50629123,-160.70713766,69.50746277,-168.58368824
-66.32824497,-177.43270910,-0.29843561,-4.95934622,44.66997084,-0.33269948
-0.48745738,-0.04234591

>  <Name>
2o3v_lig

>  <RI>
0

>  <Rbt.Current_Directory>
/home/afrankz/demos/rdock_decoys_rna/rnas/2o3v

>  <Rbt.Executable>
rbdock ($Id: //depot/dev/client3/rdock/2013.1/src/exe/rbdock.cxx#4 $)

>  <Rbt.Library>
libRbt.so (2013.1, Build901 2013/11/27)

>  <Rbt.Parameter_File>
/export/apps/rDock/src/rDock_2013.1_src/data/scripts/dock_solv.prm

>  <Rbt.Receptor>
prm/pocket_docking_8.prm

>  <SCORE>
-9.57983

>  <SCORE.INTER>
-7.23349

>  <SCORE.INTER.CONST>
1

>  <SCORE.INTER.POLAR>
-0.437065

>  <SCORE.INTER.ROT>
8

>  <SCORE.INTER.SOLV>
10.7793

>  <SCORE.INTER.VDW>
-15.8919

>  <SCORE.INTER.norm>
-0.206671

>  <SCORE.INTRA>
-2.34634

>  <SCORE.INTRA.DIHEDRAL>
-4.32847

>  <SCORE.INTRA.DIHEDRAL.0>
13.1227

>  <SCORE.INTRA.POLAR>
0

>  <SCORE.INTRA.POLAR.0>
0

>  <SCORE.INTRA.REPUL>
0

>  <SCORE.INTRA.REPUL.0>
0

>  <SCORE.INTRA.SOLV>
1.36236

>  <SCORE.INTRA.SOLV.lig_0>
-89.1587

>  <SCORE.INTRA.VDW>
-0.86328

>  <SCORE.INTRA.VDW.0>
-0.838383

>  <SCORE.INTRA.norm>
-0.0670382

>  <SCORE.RESTR>
0

>  <SCORE.RESTR.CAVITY>
0

>  <SCORE.RESTR.norm>
0

>  <SCORE.SYSTEM>
0

>  <SCORE.SYSTEM.CONST>
0

>  <SCORE.SYSTEM.DIHEDRAL>
0

>  <SCORE.SYSTEM.SOLV>
0

>  <SCORE.SYSTEM.norm>
0

>  <SCORE.heavy>
35

>  <SCORE.norm>
-0.273709

>  <RMSD>
5.807

$$$$
2o3v_lig
 OpenBabel02141814113D
libRbt.so/2013.1/901 2013/11/27
 35 37  0  0  0  0  0  0  0  0999 V2000
   -1.1588   -9.0012   48.4417 C   0  0  2  0  0  0  0  0  0  0  0  0
   -0.4562   -9.8427   47.4769 O   0  0  0  0  0  0  0  0  0  0  0  0
    2.7864  -11.6489   49.7463 C   0  0  2  0  0  0  0  0  0  0  0  0
    3.9307  -12.5376   50.1110 N   0  0  0  0  0  0  0  0  0  0  0  0
   -4.7268   -1.4445   47.0335 C   0  0  2  0  0  0  0  0  0  0  0  0
   -5.5279   -0.8803   45.9727 O   0  0  0  0  0  0  0  0  0  0  0  0
   -2.1408   -8.1804   47.5470 C   0  0  2  0  0  0  0  0  0  0  0  0
   -3.0510   -9.0734   46.7917 N   0  0  0  0  0  0  0  0  0  0  0  0
    1.4829  -12.5179   49.4802 C   0  0  0  0  0  0  0  0  0  0  0  0
   -3.8751   -2.6059   46.4136 C   0  0  2  0  0  0  0  0  0  0  0  0
   -3.0340   -2.1109   45.2945 N   0  0  0  0  0  0  0  0  0  0  0  0
   -1.3579   -7.2335   46.5372 C   0  0  1  0  0  0  0  0  0  0  0  0
   -2.3085   -6.4953   45.6657 O   0  0  0  0  0  0  0  0  0  0  0  0
    0.2849  -11.5506   49.0832 C   0  0  2  0  0  0  0  0  0  0  0  0
   -0.9366  -12.3412   48.8197 N   0  0  0  0  0  0  0  0  0  0  0  0
   -4.7951   -3.8096   45.9241 C   0  0  1  0  0  0  0  0  0  0  0  0
   -4.0300   -4.9136   45.3760 O   0  0  0  0  0  0  0  0  0  0  0  0
   -0.4055   -6.2973   47.4033 C   0  0  2  0  0  0  0  0  0  0  0  0
    0.3555   -5.4300   46.5819 O   0  0  0  0  0  0  0  0  0  0  0  0
    0.6726  -10.7105   47.7975 C   0  0  2  0  0  0  0  0  0  0  0  0
   -5.6484   -4.3048   47.1345 C   0  0  2  0  0  0  0  0  0  0  0  0
   -6.4962   -5.3710   46.7549 O   0  0  0  0  0  0  0  0  0  0  0  0
    0.5565   -7.1651   48.3006 C   0  0  2  0  0  0  0  0  0  0  0  0
   -0.2389   -8.0723   49.1543 O   0  0  0  0  0  0  0  0  0  0  0  0
    1.9518   -9.8686   48.0644 C   0  0  2  0  0  0  0  0  0  0  0  0
    2.2693   -9.1580   46.8334 O   0  0  0  0  0  0  0  0  0  0  0  0
   -6.4863   -3.1043   47.7312 C   0  0  2  0  0  0  0  0  0  0  0  0
   -5.5877   -1.9922   48.1165 O   0  0  0  0  0  0  0  0  0  0  0  0
    1.4570   -6.2894   49.1708 C   0  0  0  0  0  0  0  0  0  0  0  0
    2.4369   -5.6427   48.3960 O   0  0  0  0  0  0  0  0  0  0  0  0
    3.1189  -10.8055   48.4544 C   0  0  1  0  0  0  0  0  0  0  0  0
    4.2650  -10.0168   48.6965 O   0  0  0  0  0  0  0  0  0  0  0  0
   -7.3021   -3.5298   48.9426 C   0  0  0  0  0  0  0  0  0  0  0  0
   -6.4554   -3.9921   49.9670 O   0  0  0  0  0  0  0  0  0  0  0  0
   -3.1355   -5.4589   46.3898 C   0  0  0  0  0  0  0  0  0  0  0  0
  1  2  1  6  0  0  0
  1  7  1  0  0  0  0
  1 24  1  0  0  0  0
  3  4  1  6  0  0  0
  3  9  1  0  0  0  0
  3 31  1  0  0  0  0
  5  6  1  6  0  0  0
  5 10  1  0  0  0  0
  5 28  1  0  0  0  0
  7  8  1  6  0  0  0
  7 12  1  0  0  0  0
  9 14  1  0  0  0  0
 10 11  1  6  0  0  0
 10 16  1  0  0  0  0
 12 13  1  1  0  0  0
 12 18  1  0  0  0  0
 13 35  1  0  0  0  0
 14 15  1  6  0  0  0
 14 20  1  0  0  0  0
 16 17  1  1  0  0  0
 16 21  1  0  0  0  0
 17 35  1  0  0  0  0
 18 19  1  6  0  0  0
 18 23  1  0  0  0  0
 20  2  1  1  0  0  0
 20 25  1  0  0  0  0
 21 22  1  6  0  0  0
 21 27  1  0  0  0  0
 23 24  1  0  0  0  0
 23 29  1  1  0  0  0
 25 26  1  6  0  0  0
 25 31  1  0  0  0  0
 27 28  1  0  0  0  0
 27 33  1  1  0  0  0
 29 30  1  0  0  0  0
 31 32  1  1  0  0  0
 33 34  1  0  0  0  0
M  END
>  <CHROM.1>
173.62223356,68.68583026,-177.26046685,61.02659303,-174.57676147,48.21071709
-71.56138798,60.85496064,-1.54811158,-6.90097822,47.68922919,0.81066898,-0.06625657
2.86022548

>  <Name>
2o3v_lig

>  <RI>
0

>  <Rbt.Current_Directory>
/home/afrankz/demos/rdock_decoys_rna/rnas/2o3v

>  <Rbt.Executable>
rbdock ($Id: //depot/dev/client3/rdock/2013.1/src/exe/rbdock.cxx#4 $)

>  <Rbt.Library>
libRbt.so (2013.1, Build901 2013/11/27)

>  <Rbt.Parameter_File>
/export/apps/rDock/src/rDock_2013.1_src/data/scripts/dock_solv.prm

>  <Rbt.Receptor>
prm/pocket_docking_6.prm

>  <SCORE>
-10.116

>  <SCORE.INTER>
-4.91095

>  <SCORE.INTER.CONST>
1

>  <SCORE.INTER.POLAR>
0

>  <SCORE.INTER.ROT>
8

>  <SCORE.INTER.SOLV>
8.21176

>  <SCORE.INTER.VDW>
-14.9446

>  <SCORE.INTER.norm>
-0.140313

>  <SCORE.INTRA>
-5.21604

>  <SCORE.INTRA.DIHEDRAL>
-11.1939

>  <SCORE.INTRA.DIHEDRAL.0>
13.1227

>  <SCORE.INTRA.POLAR>
0

>  <SCORE.INTRA.POLAR.0>
0

>  <SCORE.INTRA.REPUL>
0

>  <SCORE.INTRA.REPUL.0>
0

>  <SCORE.INTRA.SOLV>
0.657685

>  <SCORE.INTRA.SOLV.lig_0>
-89.1587

>  <SCORE.INTRA.VDW>
0.0520764

>  <SCORE.INTRA.VDW.0>
-0.838383

>  <SCORE.INTRA.norm>
-0.14903

>  <SCORE.RESTR>
0.0109844

>  <SCORE.RESTR.CAVITY>
0.0109844

>  <SCORE.RESTR.norm>
0.00031384

>  <SCORE.SYSTEM>
0

>  <SCORE.SYSTEM.CONST>
0

>  <SCORE.SYSTEM.DIHEDRAL>
0

>  <SCORE.SYSTEM.SOLV>
0

>  <SCORE.SYSTEM.norm>
0

>  <SCORE.heavy>
35

>  <SCORE.norm>
-0.289029

>  <RMSD>
5.890

$$$$
2o3v_lig
 OpenBabel02141814113D
libRbt.so/2013.1/901 2013/11/27
 35 37  0  0  0  0  0  0  0  0999 V2000
    6.3847   -5.2962   43.9661 C   0  0  2  0  0  0  0  0  0  0  0  0
    5.9140   -4.9116   45.2940 O   0  0  0  0  0  0  0  0  0  0  0  0
    7.1903   -5.2052   49.4427 C   0  0  2  0  0  0  0  0  0  0  0  0
    7.6466   -5.7845   50.7421 N   0  0  0  0  0  0  0  0  0  0  0  0
   -2.3663   -3.9231   44.0257 C   0  0  2  0  0  0  0  0  0  0  0  0
   -3.3281   -3.9856   42.9503 O   0  0  0  0  0  0  0  0  0  0  0  0
    5.1206   -5.0984   43.0710 C   0  0  2  0  0  0  0  0  0  0  0  0
    4.6376   -3.6985   43.1275 N   0  0  0  0  0  0  0  0  0  0  0  0
    5.7654   -5.7913   49.0535 C   0  0  0  0  0  0  0  0  0  0  0  0
   -0.9595   -4.2571   43.4192 C   0  0  2  0  0  0  0  0  0  0  0  0
   -0.6165   -3.3185   42.3209 N   0  0  0  0  0  0  0  0  0  0  0  0
    3.9480   -6.0880   43.4898 C   0  0  1  0  0  0  0  0  0  0  0  0
    2.7404   -5.8535   42.6561 O   0  0  0  0  0  0  0  0  0  0  0  0
    5.3089   -5.1687   47.6634 C   0  0  2  0  0  0  0  0  0  0  0  0
    3.9885   -5.7104   47.2766 N   0  0  0  0  0  0  0  0  0  0  0  0
   -0.8862   -5.7619   42.9044 C   0  0  1  0  0  0  0  0  0  0  0  0
    0.4164   -6.1086   42.3680 O   0  0  0  0  0  0  0  0  0  0  0  0
    4.5221   -7.5701   43.4037 C   0  0  2  0  0  0  0  0  0  0  0  0
    3.5492   -8.5260   43.7854 O   0  0  0  0  0  0  0  0  0  0  0  0
    6.3791   -5.5033   46.5445 C   0  0  2  0  0  0  0  0  0  0  0  0
   -1.2397   -6.7101   44.0937 C   0  0  2  0  0  0  0  0  0  0  0  0
   -1.2008   -8.0650   43.6910 O   0  0  0  0  0  0  0  0  0  0  0  0
    5.8036   -7.7207   44.3086 C   0  0  2  0  0  0  0  0  0  0  0  0
    6.8164   -6.7200   43.9117 O   0  0  0  0  0  0  0  0  0  0  0  0
    7.7707   -4.9320   46.9360 C   0  0  2  0  0  0  0  0  0  0  0  0
    8.7070   -5.3105   45.8867 O   0  0  0  0  0  0  0  0  0  0  0  0
   -2.6606   -6.3369   44.6775 C   0  0  2  0  0  0  0  0  0  0  0  0
   -2.6902   -4.9142   45.0873 O   0  0  0  0  0  0  0  0  0  0  0  0
    6.3970   -9.1257   44.2150 C   0  0  0  0  0  0  0  0  0  0  0  0
    5.4934  -10.0905   44.6961 O   0  0  0  0  0  0  0  0  0  0  0  0
    8.2171   -5.5324   48.2896 C   0  0  1  0  0  0  0  0  0  0  0  0
    9.4789   -4.9940   48.6244 O   0  0  0  0  0  0  0  0  0  0  0  0
   -3.0301   -7.2075   45.8690 C   0  0  0  0  0  0  0  0  0  0  0  0
   -2.0700   -7.0764   46.8894 O   0  0  0  0  0  0  0  0  0  0  0  0
    1.4352   -5.9915   43.4042 C   0  0  0  0  0  0  0  0  0  0  0  0
  1  2  1  1  0  0  0
  1  7  1  0  0  0  0
  1 24  1  0  0  0  0
  3  4  1  1  0  0  0
  3  9  1  0  0  0  0
  3 31  1  0  0  0  0
  5  6  1  6  0  0  0
  5 10  1  0  0  0  0
  5 28  1  0  0  0  0
  7  8  1  1  0  0  0
  7 12  1  0  0  0  0
  9 14  1  0  0  0  0
 10 11  1  6  0  0  0
 10 16  1  0  0  0  0
 12 13  1  6  0  0  0
 12 18  1  0  0  0  0
 13 35  1  0  0  0  0
 14 15  1  6  0  0  0
 14 20  1  0  0  0  0
 16 17  1  1  0  0  0
 16 21  1  0  0  0  0
 17 35  1  0  0  0  0
 18 19  1  1  0  0  0
 18 23  1  0  0  0  0
 20  2  1  6  0  0  0
 20 25  1  0  0  0  0
 21 22  1  6  0  0  0
 21 27  1  0  0  0  0
 23 24  1  0  0  0  0
 23 29  1  6  0  0  0
 25 26  1  6  0  0  0
 25 31  1  0  0  0  0
 27 28  1  0  0  0  0
 27 33  1  1  0  0  0
 29 30  1  0  0  0  0
 31 32  1  1  0  0  0
 33 34  1  0  0  0  0
M  END
>  <CHROM.1>
146.98194029,-142.76494649,-164.21346758,61.93157128,-159.23066505,-161.46684595
-63.04254713,58.57639393,3.18905336,-5.98001682,45.06758439,-0.31187074,0.10630884
-1.81176022

>  <Name>
2o3v_lig

>  <RI>
0

>  <Rbt.Current_Directory>
/home/afrankz/demos/rdock_decoys_rna/rnas/2o3v

>  <Rbt.Executable>
rbdock ($Id: //depot/dev/client3/rdock/2013.1/src/exe/rbdock.cxx#4 $)

>  <Rbt.Library>
libRbt.so (2013.1, Build901 2013/11/27)

>  <Rbt.Parameter_File>
/export/apps/rDock/src/rDock_2013.1_src/data/scripts/dock_solv.prm

>  <Rbt.Receptor>
prm/pocket_docking_6.prm

>  <SCORE>
-12.8561

>  <SCORE.INTER>
-13.0861

>  <SCORE.INTER.CONST>
1

>  <SCORE.INTER.POLAR>
-2.16413

>  <SCORE.INTER.ROT>
8

>  <SCORE.INTER.SOLV>
16.4812

>  <SCORE.INTER.VDW>
-15.9374

>  <SCORE.INTER.norm>
-0.373889

>  <SCORE.INTRA>
0.206535

>  <SCORE.INTRA.DIHEDRAL>
0.710227

>  <SCORE.INTRA.DIHEDRAL.0>
13.1227

>  <SCORE.INTRA.POLAR>
0

>  <SCORE.INTRA.POLAR.0>
0

>  <SCORE.INTRA.REPUL>
0

>  <SCORE.INTRA.REPUL.0>
0

>  <SCORE.INTRA.SOLV>
0.650144

>  <SCORE.INTRA.SOLV.lig_0>
-89.1587

>  <SCORE.INTRA.VDW>
-0.47365

>  <SCORE.INTRA.VDW.0>
-0.838383

>  <SCORE.INTRA.norm>
0.00590101

>  <SCORE.RESTR>
0.0234761

>  <SCORE.RESTR.CAVITY>
0.0234761

>  <SCORE.RESTR.norm>
0.000670746

>  <SCORE.SYSTEM>
0

>  <SCORE.SYSTEM.CONST>
0

>  <SCORE.SYSTEM.DIHEDRAL>
0

>  <SCORE.SYSTEM.SOLV>
0

>  <SCORE.SYSTEM.norm>
0

>  <SCORE.heavy>
35

>  <SCORE.norm>
-0.367317

>  <RMSD>
5.905

$$$$
2o3v_lig
 OpenBabel02141814113D
libRbt.so/2013.1/901 2013/11/27
 35 37  0  0  0  0  0  0  0  0999 V2000
    6.4222   -6.9563   45.8198 C   0  0  2  0  0  0  0  0  0  0  0  0
    5.3027   -7.8917   45.8880 O   0  0  0  0  0  0  0  0  0  0  0  0
    4.6487  -11.9210   47.3926 C   0  0  2  0  0  0  0  0  0  0  0  0
    4.7478  -13.4036   47.5483 N   0  0  0  0  0  0  0  0  0  0  0  0
    0.1096   -7.1656   47.8870 C   0  0  2  0  0  0  0  0  0  0  0  0
    0.0880   -6.3196   49.0572 O   0  0  0  0  0  0  0  0  0  0  0  0
    5.7438   -5.5729   46.0737 C   0  0  2  0  0  0  0  0  0  0  0  0
    5.0516   -5.5478   47.3838 N   0  0  0  0  0  0  0  0  0  0  0  0
    4.0884  -11.5593   45.9502 C   0  0  0  0  0  0  0  0  0  0  0  0
    1.2148   -6.6093   46.9241 C   0  0  2  0  0  0  0  0  0  0  0  0
    2.5376   -6.5703   47.5976 N   0  0  0  0  0  0  0  0  0  0  0  0
    4.7163   -5.2053   44.9167 C   0  0  1  0  0  0  0  0  0  0  0  0
    4.0496   -3.9076   45.1994 O   0  0  0  0  0  0  0  0  0  0  0  0
    4.0038   -9.9780   45.8065 C   0  0  2  0  0  0  0  0  0  0  0  0
    3.4950   -9.6192   44.4653 N   0  0  0  0  0  0  0  0  0  0  0  0
    0.8345   -5.1669   46.3675 C   0  0  1  0  0  0  0  0  0  0  0  0
    1.8250   -4.6416   45.4468 O   0  0  0  0  0  0  0  0  0  0  0  0
    5.5155   -5.2417   43.5406 C   0  0  2  0  0  0  0  0  0  0  0  0
    4.6706   -4.9490   42.4423 O   0  0  0  0  0  0  0  0  0  0  0  0
    5.4356   -9.3382   46.0302 C   0  0  2  0  0  0  0  0  0  0  0  0
   -0.5532   -5.2600   45.6575 C   0  0  2  0  0  0  0  0  0  0  0  0
   -0.9489   -4.0007   45.1504 O   0  0  0  0  0  0  0  0  0  0  0  0
    6.1954   -6.6482   43.3325 C   0  0  2  0  0  0  0  0  0  0  0  0
    7.0738   -6.9539   44.4812 O   0  0  0  0  0  0  0  0  0  0  0  0
    5.9785   -9.7020   47.4405 C   0  0  2  0  0  0  0  0  0  0  0  0
    7.3070   -9.1170   47.5592 O   0  0  0  0  0  0  0  0  0  0  0  0
   -1.6353   -5.8285   46.6600 C   0  0  2  0  0  0  0  0  0  0  0  0
   -1.2047   -7.1426   47.1897 O   0  0  0  0  0  0  0  0  0  0  0  0
    7.0009   -6.6976   42.0349 C   0  0  0  0  0  0  0  0  0  0  0  0
    7.3921   -8.0142   41.7310 O   0  0  0  0  0  0  0  0  0  0  0  0
    6.0591  -11.2397   47.5859 C   0  0  1  0  0  0  0  0  0  0  0  0
    6.5489  -11.5429   48.8752 O   0  0  0  0  0  0  0  0  0  0  0  0
   -2.9969   -5.9785   45.9986 C   0  0  0  0  0  0  0  0  0  0  0  0
   -2.9254   -6.8898   44.9288 O   0  0  0  0  0  0  0  0  0  0  0  0
    2.9070   -3.9999   46.1834 C   0  0  0  0  0  0  0  0  0  0  0  0
  1  2  1  6  0  0  0
  1  7  1  0  0  0  0
  1 24  1  0  0  0  0
  3  4  1  6  0  0  0
  3  9  1  0  0  0  0
  3 31  1  0  0  0  0
  5  6  1  1  0  0  0
  5 10  1  0  0  0  0
  5 28  1  0  0  0  0
  7  8  1  1  0  0  0
  7 12  1  0  0  0  0
  9 14  1  0  0  0  0
 10 11  1  1  0  0  0
 10 16  1  0  0  0  0
 12 13  1  1  0  0  0
 12 18  1  0  0  0  0
 13 35  1  0  0  0  0
 14 15  1  6  0  0  0
 14 20  1  0  0  0  0
 16 17  1  6  0  0  0
 16 21  1  0  0  0  0
 17 35  1  0  0  0  0
 18 19  1  6  0  0  0
 18 23  1  0  0  0  0
 20  2  1  1  0  0  0
 20 25  1  0  0  0  0
 21 22  1  1  0  0  0
 21 27  1  0  0  0  0
 23 24  1  0  0  0  0
 23 29  1  6  0  0  0
 25 26  1  6  0  0  0
 25 31  1  0  0  0  0
 27 28  1  0  0  0  0
 27 33  1  6  0  0  0
 29 30  1  0  0  0  0
 31 32  1  1  0  0  0
 33 34  1  0  0  0  0
M  END
>  <CHROM.1>
-164.79959015,-80.27654397,-73.26031541,-84.11284431,162.06145114,-170.23570548
-168.91178017,61.57739568,3.43378790,-7.30078124,45.88397909,-0.38827708
0.32045334,-0.54729427

>  <Name>
2o3v_lig

>  <RI>
0

>  <Rbt.Current_Directory>
/home/afrankz/demos/rdock_decoys_rna/rnas/2o3v

>  <Rbt.Executable>
rbdock ($Id: //depot/dev/client3/rdock/2013.1/src/exe/rbdock.cxx#4 $)

>  <Rbt.Library>
libRbt.so (2013.1, Build901 2013/11/27)

>  <Rbt.Parameter_File>
/export/apps/rDock/src/rDock_2013.1_src/data/scripts/dock_solv.prm

>  <Rbt.Receptor>
prm/pocket_docking_6.prm

>  <SCORE>
-6.96097

>  <SCORE.INTER>
-4.92496

>  <SCORE.INTER.CONST>
1

>  <SCORE.INTER.POLAR>
0

>  <SCORE.INTER.ROT>
8

>  <SCORE.INTER.SOLV>
13.4221

>  <SCORE.INTER.VDW>
-16.6907

>  <SCORE.INTER.norm>
-0.140713

>  <SCORE.INTRA>
-2.03601

>  <SCORE.INTRA.DIHEDRAL>
-4.43117

>  <SCORE.INTRA.DIHEDRAL.0>
13.1227

>  <SCORE.INTRA.POLAR>
0

>  <SCORE.INTRA.POLAR.0>
0

>  <SCORE.INTRA.REPUL>
0

>  <SCORE.INTRA.REPUL.0>
0

>  <SCORE.INTRA.SOLV>
5.08094

>  <SCORE.INTRA.SOLV.lig_0>
-89.1587

>  <SCORE.INTRA.VDW>
-2.3609

>  <SCORE.INTRA.VDW.0>
-0.838383

>  <SCORE.INTRA.norm>
-0.0581717

>  <SCORE.RESTR>
0

>  <SCORE.RESTR.CAVITY>
0

>  <SCORE.RESTR.norm>
0

>  <SCORE.SYSTEM>
0

>  <SCORE.SYSTEM.CONST>
0

>  <SCORE.SYSTEM.DIHEDRAL>
0

>  <SCORE.SYSTEM.SOLV>
0

>  <SCORE.SYSTEM.norm>
0

>  <SCORE.heavy>
35

>  <SCORE.norm>
-0.198885

>  <RMSD>
6.039

$$$$
2o3v_lig
 OpenBabel02141814113D
libRbt.so/2013.1/901 2013/11/27
 35 37  0  0  0  0  0  0  0  0999 V2000
   -0.1371   -5.6155   46.4097 C   0  0  2  0  0  0  0  0  0  0  0  0
    0.8552   -6.3860   45.6652 O   0  0  0  0  0  0  0  0  0  0  0  0
    3.0789   -3.4017   43.4120 C   0  0  2  0  0  0  0  0  0  0  0  0
    4.1035   -2.7804   42.5195 N   0  0  0  0  0  0  0  0  0  0  0  0
    0.0943  -14.2813   45.5671 C   0  0  2  0  0  0  0  0  0  0  0  0
   -0.8191  -14.9573   46.4583 O   0  0  0  0  0  0  0  0  0  0  0  0
   -0.8301   -6.6959   47.2990 C   0  0  2  0  0  0  0  0  0  0  0  0
    0.1502   -7.3748   48.1790 N   0  0  0  0  0  0  0  0  0  0  0  0
    3.7830   -4.0689   44.6707 C   0  0  0  0  0  0  0  0  0  0  0  0
    0.1911  -12.7882   46.0357 C   0  0  2  0  0  0  0  0  0  0  0  0
    0.6381  -12.7014   47.4491 N   0  0  0  0  0  0  0  0  0  0  0  0
   -1.5965   -7.7746   46.4167 C   0  0  1  0  0  0  0  0  0  0  0  0
   -2.2110   -8.8173   47.2789 O   0  0  0  0  0  0  0  0  0  0  0  0
    2.6734   -4.7319   45.5968 C   0  0  2  0  0  0  0  0  0  0  0  0
    3.3093   -5.3692   46.7697 N   0  0  0  0  0  0  0  0  0  0  0  0
   -1.1925  -12.0239   45.8450 C   0  0  1  0  0  0  0  0  0  0  0  0
   -1.1225  -10.6297   46.2399 O   0  0  0  0  0  0  0  0  0  0  0  0
   -2.6357   -6.9897   45.5014 C   0  0  2  0  0  0  0  0  0  0  0  0
   -3.3526   -7.8723   44.6569 O   0  0  0  0  0  0  0  0  0  0  0  0
    1.8563   -5.8101   44.7727 C   0  0  2  0  0  0  0  0  0  0  0  0
   -1.6143  -12.1298   44.3451 C   0  0  2  0  0  0  0  0  0  0  0  0
   -2.8468  -11.4752   44.1174 O   0  0  0  0  0  0  0  0  0  0  0  0
   -1.8970   -5.9011   44.6336 C   0  0  2  0  0  0  0  0  0  0  0  0
   -1.1462   -4.9834   45.5159 O   0  0  0  0  0  0  0  0  0  0  0  0
    1.1762   -5.1505   43.5404 C   0  0  2  0  0  0  0  0  0  0  0  0
    0.4806   -6.2029   42.8126 O   0  0  0  0  0  0  0  0  0  0  0  0
   -1.6952  -13.6485   43.9133 C   0  0  2  0  0  0  0  0  0  0  0  0
   -0.4015  -14.3237   44.1648 O   0  0  0  0  0  0  0  0  0  0  0  0
   -2.8780   -5.1071   43.7722 C   0  0  0  0  0  0  0  0  0  0  0  0
   -3.5000   -5.9341   42.8193 O   0  0  0  0  0  0  0  0  0  0  0  0
    2.2518   -4.5011   42.6385 C   0  0  1  0  0  0  0  0  0  0  0  0
    1.6085   -3.9055   41.5315 O   0  0  0  0  0  0  0  0  0  0  0  0
   -2.0610  -13.8011   42.4446 C   0  0  0  0  0  0  0  0  0  0  0  0
   -1.0051  -13.3576   41.6270 O   0  0  0  0  0  0  0  0  0  0  0  0
   -2.4509  -10.1355   46.5811 C   0  0  0  0  0  0  0  0  0  0  0  0
  1  2  1  6  0  0  0
  1  7  1  0  0  0  0
  1 24  1  0  0  0  0
  3  4  1  6  0  0  0
  3  9  1  0  0  0  0
  3 31  1  0  0  0  0
  5  6  1  1  0  0  0
  5 10  1  0  0  0  0
  5 28  1  0  0  0  0
  7  8  1  6  0  0  0
  7 12  1  0  0  0  0
  9 14  1  0  0  0  0
 10 11  1  1  0  0  0
 10 16  1  0  0  0  0
 12 13  1  1  0  0  0
 12 18  1  0  0  0  0
 13 35  1  0  0  0  0
 14 15  1  1  0  0  0
 14 20  1  0  0  0  0
 16 17  1  6  0  0  0
 16 21  1  0  0  0  0
 17 35  1  0  0  0  0
 18 19  1  6  0  0  0
 18 23  1  0  0  0  0
 20  2  1  1  0  0  0
 20 25  1  0  0  0  0
 21 22  1  1  0  0  0
 21 27  1  0  0  0  0
 23 24  1  0  0  0  0
 23 29  1  1  0  0  0
 25 26  1  6  0  0  0
 25 31  1  0  0  0  0
 27 28  1  0  0  0  0
 27 33  1  6  0  0  0
 29 30  1  0  0  0  0
 31 32  1  6  0  0  0
 33 34  1  0  0  0  0
M  END
>  <CHROM.1>
-174.20550906,-156.04606038,64.37893421,-156.38867193,166.80937603,55.17210711
-64.51768439,68.95302218,-0.30972857,-8.37454702,44.86312099,1.26152372,0.02765965
-0.08615640

>  <Name>
2o3v_lig

>  <RI>
0

>  <Rbt.Current_Directory>
/home/afrankz/demos/rdock_decoys_rna/rnas/2o3v

>  <Rbt.Executable>
rbdock ($Id: //depot/dev/client3/rdock/2013.1/src/exe/rbdock.cxx#4 $)

>  <Rbt.Library>
libRbt.so (2013.1, Build901 2013/11/27)

>  <Rbt.Parameter_File>
/export/apps/rDock/src/rDock_2013.1_src/data/scripts/dock_solv.prm

>  <Rbt.Receptor>
prm/pocket_docking_8.prm

>  <SCORE>
-9.42888

>  <SCORE.INTER>
-4.73088

>  <SCORE.INTER.CONST>
1

>  <SCORE.INTER.POLAR>
-0.906827

>  <SCORE.INTER.ROT>
8

>  <SCORE.INTER.SOLV>
11.0131

>  <SCORE.INTER.VDW>
-12.7355

>  <SCORE.INTER.norm>
-0.135168

>  <SCORE.INTRA>
-4.69799

>  <SCORE.INTRA.DIHEDRAL>
-6.62303

>  <SCORE.INTRA.DIHEDRAL.0>
13.1227

>  <SCORE.INTRA.POLAR>
0

>  <SCORE.INTRA.POLAR.0>
0

>  <SCORE.INTRA.REPUL>
0.0281859

>  <SCORE.INTRA.REPUL.0>
0

>  <SCORE.INTRA.SOLV>
0.877881

>  <SCORE.INTRA.SOLV.lig_0>
-89.1587

>  <SCORE.INTRA.VDW>
-1.96635

>  <SCORE.INTRA.VDW.0>
-0.838383

>  <SCORE.INTRA.norm>
-0.134228

>  <SCORE.RESTR>
0

>  <SCORE.RESTR.CAVITY>
0

>  <SCORE.RESTR.norm>
0

>  <SCORE.SYSTEM>
0

>  <SCORE.SYSTEM.CONST>
0

>  <SCORE.SYSTEM.DIHEDRAL>
0

>  <SCORE.SYSTEM.SOLV>
0

>  <SCORE.SYSTEM.norm>
0

>  <SCORE.heavy>
35

>  <SCORE.norm>
-0.269397

>  <RMSD>
6.047

$$$$
2o3v_lig
 OpenBabel02141814113D
libRbt.so/2013.1/901 2013/11/27
 35 37  0  0  0  0  0  0  0  0999 V2000
    6.3527   -5.5127   45.2266 C   0  0  2  0  0  0  0  0  0  0  0  0
    6.1300   -6.2442   46.4708 O   0  0  0  0  0  0  0  0  0  0  0  0
    8.0354   -6.3570   50.3803 C   0  0  2  0  0  0  0  0  0  0  0  0
    9.0483   -6.6018   51.4510 N   0  0  0  0  0  0  0  0  0  0  0  0
   -1.9081   -6.5432   45.8143 C   0  0  2  0  0  0  0  0  0  0  0  0
   -1.0505   -5.8094   46.7151 O   0  0  0  0  0  0  0  0  0  0  0  0
    4.9076   -5.3132   44.6695 C   0  0  2  0  0  0  0  0  0  0  0  0
    4.0605   -4.5690   45.6311 N   0  0  0  0  0  0  0  0  0  0  0  0
    7.5919   -7.7340   49.7225 C   0  0  0  0  0  0  0  0  0  0  0  0
   -0.9890   -7.4406   44.9153 C   0  0  2  0  0  0  0  0  0  0  0  0
   -0.1574   -8.3498   45.7441 N   0  0  0  0  0  0  0  0  0  0  0  0
    4.2218   -6.7034   44.3140 C   0  0  1  0  0  0  0  0  0  0  0  0
    2.8331   -6.4946   43.8279 O   0  0  0  0  0  0  0  0  0  0  0  0
    6.5241   -7.4447   48.5803 C   0  0  2  0  0  0  0  0  0  0  0  0
    6.1061   -8.7136   47.9466 N   0  0  0  0  0  0  0  0  0  0  0  0
   -0.0656   -6.5620   43.9612 C   0  0  1  0  0  0  0  0  0  0  0  0
    0.7724   -7.3681   43.0936 O   0  0  0  0  0  0  0  0  0  0  0  0
    5.1702   -7.4510   43.2771 C   0  0  2  0  0  0  0  0  0  0  0  0
    4.6495   -8.7184   42.9187 O   0  0  0  0  0  0  0  0  0  0  0  0
    7.1466   -6.4765   47.4920 C   0  0  2  0  0  0  0  0  0  0  0  0
   -0.9820   -5.6347   43.1017 C   0  0  2  0  0  0  0  0  0  0  0  0
   -0.2128   -4.8200   42.2390 O   0  0  0  0  0  0  0  0  0  0  0  0
    6.6196   -7.6173   43.8730 C   0  0  2  0  0  0  0  0  0  0  0  0
    7.1601   -6.2944   44.2501 O   0  0  0  0  0  0  0  0  0  0  0  0
    7.5832   -5.1351   48.1448 C   0  0  2  0  0  0  0  0  0  0  0  0
    8.1793   -4.3161   47.0984 O   0  0  0  0  0  0  0  0  0  0  0  0
   -1.8935   -4.7523   44.0450 C   0  0  2  0  0  0  0  0  0  0  0  0
   -2.6868   -5.6169   44.9483 O   0  0  0  0  0  0  0  0  0  0  0  0
    7.5610   -8.2997   42.8816 C   0  0  0  0  0  0  0  0  0  0  0  0
    8.8256   -8.5241   43.4556 O   0  0  0  0  0  0  0  0  0  0  0  0
    8.6194   -5.4121   49.2591 C   0  0  1  0  0  0  0  0  0  0  0  0
    8.9946   -4.1802   49.8385 O   0  0  0  0  0  0  0  0  0  0  0  0
   -2.8367   -3.8620   43.2503 C   0  0  0  0  0  0  0  0  0  0  0  0
   -3.6894   -4.6425   42.4480 O   0  0  0  0  0  0  0  0  0  0  0  0
    1.9953   -7.7511   43.7884 C   0  0  0  0  0  0  0  0  0  0  0  0
  1  2  1  1  0  0  0
  1  7  1  0  0  0  0
  1 24  1  0  0  0  0
  3  4  1  1  0  0  0
  3  9  1  0  0  0  0
  3 31  1  0  0  0  0
  5  6  1  1  0  0  0
  5 10  1  0  0  0  0
  5 28  1  0  0  0  0
  7  8  1  1  0  0  0
  7 12  1  0  0  0  0
  9 14  1  0  0  0  0
 10 11  1  1  0  0  0
 10 16  1  0  0  0  0
 12 13  1  6  0  0  0
 12 18  1  0  0  0  0
 13 35  1  0  0  0  0
 14 15  1  6  0  0  0
 14 20  1  0  0  0  0
 16 17  1  6  0  0  0
 16 21  1  0  0  0  0
 17 35  1  0  0  0  0
 18 19  1  1  0  0  0
 18 23  1  0  0  0  0
 20  2  1  6  0  0  0
 20 25  1  0  0  0  0
 21 22  1  1  0  0  0
 21 27  1  0  0  0  0
 23 24  1  0  0  0  0
 23 29  1  6  0  0  0
 25 26  1  6  0  0  0
 25 31  1  0  0  0  0
 27 28  1  0  0  0  0
 27 33  1  6  0  0  0
 29 30  1  0  0  0  0
 31 32  1  1  0  0  0
 33 34  1  0  0  0  0
M  END
>  <CHROM.1>
-168.82688260,-165.79344798,-171.18212235,-84.84614023,-74.19025007,-173.61523888
-176.03058529,60.33935585,3.76183647,-6.36770034,45.51997222,-0.37046161
0.18250458,-1.86012685

>  <Name>
2o3v_lig

>  <RI>
0

>  <Rbt.Current_Directory>
/home/afrankz/demos/rdock_decoys_rna/rnas/2o3v

>  <Rbt.Executable>
rbdock ($Id: //depot/dev/client3/rdock/2013.1/src/exe/rbdock.cxx#4 $)

>  <Rbt.Library>
libRbt.so (2013.1, Build901 2013/11/27)

>  <Rbt.Parameter_File>
/export/apps/rDock/src/rDock_2013.1_src/data/scripts/dock_solv.prm

>  <Rbt.Receptor>
prm/pocket_docking_7.prm

>  <SCORE>
-11.027

>  <SCORE.INTER>
-5.6409

>  <SCORE.INTER.CONST>
1

>  <SCORE.INTER.POLAR>
-0.488109

>  <SCORE.INTER.ROT>
8

>  <SCORE.INTER.SOLV>
11.224

>  <SCORE.INTER.VDW>
-14.8082

>  <SCORE.INTER.norm>
-0.161169

>  <SCORE.INTRA>
-5.38831

>  <SCORE.INTRA.DIHEDRAL>
-7.30364

>  <SCORE.INTRA.DIHEDRAL.0>
13.1227

>  <SCORE.INTRA.POLAR>
0

>  <SCORE.INTRA.POLAR.0>
0

>  <SCORE.INTRA.REPUL>
0

>  <SCORE.INTRA.REPUL.0>
0

>  <SCORE.INTRA.SOLV>
-0.26693

>  <SCORE.INTRA.SOLV.lig_0>
-89.1587

>  <SCORE.INTRA.VDW>
-1.60303

>  <SCORE.INTRA.VDW.0>
-0.838383

>  <SCORE.INTRA.norm>
-0.153952

>  <SCORE.RESTR>
0.00216692

>  <SCORE.RESTR.CAVITY>
0.00216692

>  <SCORE.RESTR.norm>
6.19121e-05

>  <SCORE.SYSTEM>
0

>  <SCORE.SYSTEM.CONST>
0

>  <SCORE.SYSTEM.DIHEDRAL>
0

>  <SCORE.SYSTEM.SOLV>
0

>  <SCORE.SYSTEM.norm>
0

>  <SCORE.heavy>
35

>  <SCORE.norm>
-0.315058

>  <RMSD>
6.137

$$$$
2o3v_lig
 OpenBabel02141814113D
libRbt.so/2013.1/901 2013/11/27
 35 37  0  0  0  0  0  0  0  0999 V2000
    2.1870   -1.9276   42.2457 C   0  0  2  0  0  0  0  0  0  0  0  0
    2.9025   -2.8278   43.1460 O   0  0  0  0  0  0  0  0  0  0  0  0
    5.0034   -6.6266   43.4347 C   0  0  2  0  0  0  0  0  0  0  0  0
    5.4958   -7.9969   43.1001 N   0  0  0  0  0  0  0  0  0  0  0  0
   -3.0226   -3.8021   44.8867 C   0  0  2  0  0  0  0  0  0  0  0  0
   -4.2849   -3.1215   45.0563 O   0  0  0  0  0  0  0  0  0  0  0  0
    0.7227   -2.4676   42.2948 C   0  0  2  0  0  0  0  0  0  0  0  0
    0.1887   -2.4437   43.6770 N   0  0  0  0  0  0  0  0  0  0  0  0
    3.4201   -6.6332   43.5717 C   0  0  0  0  0  0  0  0  0  0  0  0
   -2.3705   -3.2630   43.5667 C   0  0  2  0  0  0  0  0  0  0  0  0
   -2.1965   -1.7893   43.6218 N   0  0  0  0  0  0  0  0  0  0  0  0
    0.6241   -3.9421   41.7068 C   0  0  1  0  0  0  0  0  0  0  0  0
   -0.7678   -4.4537   41.8033 O   0  0  0  0  0  0  0  0  0  0  0  0
    2.9216   -5.1630   43.9160 C   0  0  2  0  0  0  0  0  0  0  0  0
    1.4480   -5.1446   44.0366 N   0  0  0  0  0  0  0  0  0  0  0  0
   -3.2206   -3.6722   42.2842 C   0  0  1  0  0  0  0  0  0  0  0  0
   -2.6218   -3.2144   41.0446 O   0  0  0  0  0  0  0  0  0  0  0  0
    1.2034   -3.9035   40.2247 C   0  0  2  0  0  0  0  0  0  0  0  0
    1.1788   -5.1862   39.6248 O   0  0  0  0  0  0  0  0  0  0  0  0
    3.3836   -4.1571   42.7829 C   0  0  2  0  0  0  0  0  0  0  0  0
   -3.3650   -5.2269   42.2611 C   0  0  2  0  0  0  0  0  0  0  0  0
   -4.1232   -5.6493   41.1448 O   0  0  0  0  0  0  0  0  0  0  0  0
    2.6748   -3.3390   40.2201 C   0  0  2  0  0  0  0  0  0  0  0  0
    2.6995   -2.0021   40.8499 O   0  0  0  0  0  0  0  0  0  0  0  0
    4.9325   -4.1615   42.6515 C   0  0  2  0  0  0  0  0  0  0  0  0
    5.2797   -3.2494   41.5705 O   0  0  0  0  0  0  0  0  0  0  0  0
   -4.0210   -5.7281   43.6094 C   0  0  2  0  0  0  0  0  0  0  0  0
   -3.2223   -5.2720   44.7699 O   0  0  0  0  0  0  0  0  0  0  0  0
    3.2417   -3.2565   38.8035 C   0  0  0  0  0  0  0  0  0  0  0  0
    4.5671   -2.7854   38.8146 O   0  0  0  0  0  0  0  0  0  0  0  0
    5.4221   -5.5907   42.3201 C   0  0  1  0  0  0  0  0  0  0  0  0
    6.8299   -5.5683   42.2117 O   0  0  0  0  0  0  0  0  0  0  0  0
   -4.1422   -7.2438   43.6512 C   0  0  0  0  0  0  0  0  0  0  0  0
   -4.6792   -7.6597   44.8836 O   0  0  0  0  0  0  0  0  0  0  0  0
   -1.6182   -4.1680   40.5878 C   0  0  0  0  0  0  0  0  0  0  0  0
  1  2  1  1  0  0  0
  1  7  1  0  0  0  0
  1 24  1  0  0  0  0
  3  4  1  6  0  0  0
  3  9  1  0  0  0  0
  3 31  1  0  0  0  0
  5  6  1  6  0  0  0
  5 10  1  0  0  0  0
  5 28  1  0  0  0  0
  7  8  1  1  0  0  0
  7 12  1  0  0  0  0
  9 14  1  0  0  0  0
 10 11  1  1  0  0  0
 10 16  1  0  0  0  0
 12 13  1  6  0  0  0
 12 18  1  0  0  0  0
 13 35  1  0  0  0  0
 14 15  1  6  0  0  0
 14 20  1  0  0  0  0
 16 17  1  6  0  0  0
 16 21  1  0  0  0  0
 17 35  1  0  0  0  0
 18 19  1  1  0  0  0
 18 23  1  0  0  0  0
 20  2  1  1  0  0  0
 20 25  1  0  0  0  0
 21 22  1  6  0  0  0
 21 27  1  0  0  0  0
 23 24  1  0  0  0  0
 23 29  1  6  0  0  0
 25 26  1  6  0  0  0
 25 31  1  0  0  0  0
 27 28  1  0  0  0  0
 27 33  1  6  0  0  0
 29 30  1  0  0  0  0
 31 32  1  1  0  0  0
 33 34  1  0  0  0  0
M  END
>  <CHROM.1>
80.85450517,90.81968402,-112.25893390,84.65379965,-48.18386268,-131.24600122
-178.41965324,177.64579441,0.62502034,-4.36067945,42.39015768,0.16894896
0.13072422,-0.71193828

>  <Name>
2o3v_lig

>  <RI>
0

>  <Rbt.Current_Directory>
/home/afrankz/demos/rdock_decoys_rna/rnas/2o3v

>  <Rbt.Executable>
rbdock ($Id: //depot/dev/client3/rdock/2013.1/src/exe/rbdock.cxx#4 $)

>  <Rbt.Library>
libRbt.so (2013.1, Build901 2013/11/27)

>  <Rbt.Parameter_File>
/export/apps/rDock/src/rDock_2013.1_src/data/scripts/dock_solv.prm

>  <Rbt.Receptor>
prm/blind_docking_100.prm

>  <SCORE>
16.727

>  <SCORE.INTER>
-3.27294

>  <SCORE.INTER.CONST>
1

>  <SCORE.INTER.POLAR>
-0.584989

>  <SCORE.INTER.ROT>
8

>  <SCORE.INTER.SOLV>
17.2882

>  <SCORE.INTER.VDW>
-14.9281

>  <SCORE.INTER.norm>
-0.0935126

>  <SCORE.INTRA>
17.0094

>  <SCORE.INTRA.DIHEDRAL>
9.40609

>  <SCORE.INTRA.DIHEDRAL.0>
13.1227

>  <SCORE.INTRA.POLAR>
0

>  <SCORE.INTRA.POLAR.0>
0

>  <SCORE.INTRA.REPUL>
0

>  <SCORE.INTRA.REPUL.0>
0

>  <SCORE.INTRA.SOLV>
11.6446

>  <SCORE.INTRA.SOLV.lig_0>
-89.1587

>  <SCORE.INTRA.VDW>
6.48406

>  <SCORE.INTRA.VDW.0>
-0.838383

>  <SCORE.INTRA.norm>
0.485983

>  <SCORE.RESTR>
2.99056

>  <SCORE.RESTR.CAVITY>
2.99056

>  <SCORE.RESTR.norm>
0.0854445

>  <SCORE.SYSTEM>
0

>  <SCORE.SYSTEM.CONST>
0

>  <SCORE.SYSTEM.DIHEDRAL>
0

>  <SCORE.SYSTEM.SOLV>
0

>  <SCORE.SYSTEM.norm>
0

>  <SCORE.heavy>
35

>  <SCORE.norm>
0.477915

>  <RMSD>
6.185

$$$$
2o3v_lig
 OpenBabel02141814113D
libRbt.so/2013.1/901 2013/11/27
 35 37  0  0  0  0  0  0  0  0999 V2000
    6.3004   -4.8979   44.5681 C   0  0  2  0  0  0  0  0  0  0  0  0
    5.9020   -5.3428   45.9008 O   0  0  0  0  0  0  0  0  0  0  0  0
    7.8952   -5.6055   49.7589 C   0  0  2  0  0  0  0  0  0  0  0  0
    8.8137   -6.0610   50.8457 N   0  0  0  0  0  0  0  0  0  0  0  0
   -2.2476   -6.6726   45.5014 C   0  0  2  0  0  0  0  0  0  0  0  0
   -3.3558   -6.5117   44.5895 O   0  0  0  0  0  0  0  0  0  0  0  0
    4.9398   -4.7879   43.8098 C   0  0  2  0  0  0  0  0  0  0  0  0
    4.0255   -3.8367   44.4848 N   0  0  0  0  0  0  0  0  0  0  0  0
    6.9193   -6.7867   49.3373 C   0  0  0  0  0  0  0  0  0  0  0  0
   -0.9620   -6.1398   44.7790 C   0  0  2  0  0  0  0  0  0  0  0  0
   -1.1315   -4.7237   44.3657 N   0  0  0  0  0  0  0  0  0  0  0  0
    4.2324   -6.2056   43.6709 C   0  0  1  0  0  0  0  0  0  0  0  0
    2.9201   -6.0726   42.9865 O   0  0  0  0  0  0  0  0  0  0  0  0
    5.9618   -6.2801   48.1733 C   0  0  2  0  0  0  0  0  0  0  0  0
    5.0520   -7.3691   47.7577 N   0  0  0  0  0  0  0  0  0  0  0  0
   -0.5803   -7.0409   43.5232 C   0  0  1  0  0  0  0  0  0  0  0  0
    0.6257   -6.5899   42.8548 O   0  0  0  0  0  0  0  0  0  0  0  0
    5.2556   -7.1784   42.9359 C   0  0  2  0  0  0  0  0  0  0  0  0
    4.7183   -8.4806   42.7887 O   0  0  0  0  0  0  0  0  0  0  0  0
    6.8251   -5.7956   46.9366 C   0  0  2  0  0  0  0  0  0  0  0  0
   -0.3990   -8.5144   44.0076 C   0  0  2  0  0  0  0  0  0  0  0  0
   -0.0680   -9.3660   42.9283 O   0  0  0  0  0  0  0  0  0  0  0  0
    6.6177   -7.2480   43.7254 C   0  0  2  0  0  0  0  0  0  0  0  0
    7.1752   -5.8880   43.8816 O   0  0  0  0  0  0  0  0  0  0  0  0
    7.7809   -4.6449   47.3591 C   0  0  2  0  0  0  0  0  0  0  0  0
    8.5664   -4.2802   46.1882 O   0  0  0  0  0  0  0  0  0  0  0  0
   -1.7135   -9.0097   44.7328 C   0  0  2  0  0  0  0  0  0  0  0  0
   -2.0532   -8.1049   45.8548 O   0  0  0  0  0  0  0  0  0  0  0  0
    7.6319   -8.1473   43.0202 C   0  0  0  0  0  0  0  0  0  0  0  0
    7.8449   -7.7285   41.6942 O   0  0  0  0  0  0  0  0  0  0  0  0
    8.7118   -5.1324   48.4939 C   0  0  1  0  0  0  0  0  0  0  0  0
    9.5644   -4.0686   48.8623 O   0  0  0  0  0  0  0  0  0  0  0  0
   -1.5684  -10.4285   45.2619 C   0  0  0  0  0  0  0  0  0  0  0  0
   -1.4408  -11.3391   44.1967 O   0  0  0  0  0  0  0  0  0  0  0  0
    1.7501   -6.6014   43.7826 C   0  0  0  0  0  0  0  0  0  0  0  0
  1  2  1  1  0  0  0
  1  7  1  0  0  0  0
  1 24  1  0  0  0  0
  3  4  1  1  0  0  0
  3  9  1  0  0  0  0
  3 31  1  0  0  0  0
  5  6  1  6  0  0  0
  5 10  1  0  0  0  0
  5 28  1  0  0  0  0
  7  8  1  1  0  0  0
  7 12  1  0  0  0  0
  9 14  1  0  0  0  0
 10 11  1  6  0  0  0
 10 16  1  0  0  0  0
 12 13  1  6  0  0  0
 12 18  1  0  0  0  0
 13 35  1  0  0  0  0
 14 15  1  6  0  0  0
 14 20  1  0  0  0  0
 16 17  1  1  0  0  0
 16 21  1  0  0  0  0
 17 35  1  0  0  0  0
 18 19  1  1  0  0  0
 18 23  1  0  0  0  0
 20  2  1  6  0  0  0
 20 25  1  0  0  0  0
 21 22  1  6  0  0  0
 21 27  1  0  0  0  0
 23 24  1  0  0  0  0
 23 29  1  6  0  0  0
 25 26  1  6  0  0  0
 25 31  1  0  0  0  0
 27 28  1  0  0  0  0
 27 33  1  1  0  0  0
 29 30  1  0  0  0  0
 31 32  1  1  0  0  0
 33 34  1  0  0  0  0
M  END
>  <CHROM.1>
170.02559484,-123.07438450,-170.43232146,58.95454754,-178.14343714,-175.92142609
55.81702214,-66.27894731,3.70619569,-6.67883720,45.19725486,-0.34214527,-0.19811131
-1.77301252

>  <Name>
2o3v_lig

>  <RI>
0

>  <Rbt.Current_Directory>
/home/afrankz/demos/rdock_decoys_rna/rnas/2o3v

>  <Rbt.Executable>
rbdock ($Id: //depot/dev/client3/rdock/2013.1/src/exe/rbdock.cxx#4 $)

>  <Rbt.Library>
libRbt.so (2013.1, Build901 2013/11/27)

>  <Rbt.Parameter_File>
/export/apps/rDock/src/rDock_2013.1_src/data/scripts/dock_solv.prm

>  <Rbt.Receptor>
prm/pocket_docking_6.prm

>  <SCORE>
-17.5589

>  <SCORE.INTER>
-15.3398

>  <SCORE.INTER.CONST>
1

>  <SCORE.INTER.POLAR>
-1.06807

>  <SCORE.INTER.ROT>
8

>  <SCORE.INTER.SOLV>
16.0098

>  <SCORE.INTER.VDW>
-20.9362

>  <SCORE.INTER.norm>
-0.43828

>  <SCORE.INTRA>
-2.68034

>  <SCORE.INTRA.DIHEDRAL>
-4.70905

>  <SCORE.INTRA.DIHEDRAL.0>
13.1227

>  <SCORE.INTRA.POLAR>
0

>  <SCORE.INTRA.POLAR.0>
0

>  <SCORE.INTRA.REPUL>
0

>  <SCORE.INTRA.REPUL.0>
0

>  <SCORE.INTRA.SOLV>
-0.303099

>  <SCORE.INTRA.SOLV.lig_0>
-89.1587

>  <SCORE.INTRA.VDW>
-0.174262

>  <SCORE.INTRA.VDW.0>
-0.838383

>  <SCORE.INTRA.norm>
-0.0765811

>  <SCORE.RESTR>
0.46123

>  <SCORE.RESTR.CAVITY>
0.46123

>  <SCORE.RESTR.norm>
0.013178

>  <SCORE.SYSTEM>
0

>  <SCORE.SYSTEM.CONST>
0

>  <SCORE.SYSTEM.DIHEDRAL>
0

>  <SCORE.SYSTEM.SOLV>
0

>  <SCORE.SYSTEM.norm>
0

>  <SCORE.heavy>
35

>  <SCORE.norm>
-0.501683

>  <RMSD>
6.192

$$$$
2o3v_lig
 OpenBabel02141814113D
libRbt.so/2013.1/901 2013/11/27
 35 37  0  0  0  0  0  0  0  0999 V2000
    5.3017   -5.7780   44.7049 C   0  0  2  0  0  0  0  0  0  0  0  0
    5.2936   -6.3588   46.0448 O   0  0  0  0  0  0  0  0  0  0  0  0
    7.9095   -5.6259   49.4429 C   0  0  2  0  0  0  0  0  0  0  0  0
    9.0792   -5.7105   50.3686 N   0  0  0  0  0  0  0  0  0  0  0  0
   -0.4320   -8.3533   48.5245 C   0  0  2  0  0  0  0  0  0  0  0  0
   -1.6986   -8.4473   47.8372 O   0  0  0  0  0  0  0  0  0  0  0  0
    3.9361   -6.2444   44.1083 C   0  0  2  0  0  0  0  0  0  0  0  0
    2.8006   -5.7704   44.9344 N   0  0  0  0  0  0  0  0  0  0  0  0
    7.1884   -7.0385   49.3429 C   0  0  0  0  0  0  0  0  0  0  0  0
    0.6757   -8.1168   47.4403 C   0  0  2  0  0  0  0  0  0  0  0  0
    0.3907   -6.8955   46.6452 N   0  0  0  0  0  0  0  0  0  0  0  0
    3.8715   -7.8270   43.9649 C   0  0  1  0  0  0  0  0  0  0  0  0
    2.5490   -8.2528   43.4377 O   0  0  0  0  0  0  0  0  0  0  0  0
    5.9563   -6.9240   48.3443 C   0  0  2  0  0  0  0  0  0  0  0  0
    5.2773   -8.2324   48.2278 N   0  0  0  0  0  0  0  0  0  0  0  0
    0.8342   -9.3773   46.4807 C   0  0  1  0  0  0  0  0  0  0  0  0
    1.8766   -9.1989   45.4875 O   0  0  0  0  0  0  0  0  0  0  0  0
    5.1066   -8.2745   43.0661 C   0  0  2  0  0  0  0  0  0  0  0  0
    5.1463   -9.6808   42.9025 O   0  0  0  0  0  0  0  0  0  0  0  0
    6.4585   -6.4471   46.9197 C   0  0  2  0  0  0  0  0  0  0  0  0
    1.1461  -10.6313   47.3576 C   0  0  2  0  0  0  0  0  0  0  0  0
    1.2873  -11.7880   46.5565 O   0  0  0  0  0  0  0  0  0  0  0  0
    6.4607   -7.7710   43.6958 C   0  0  2  0  0  0  0  0  0  0  0  0
    6.4163   -6.3039   43.8695 O   0  0  0  0  0  0  0  0  0  0  0  0
    7.1678   -5.0682   47.0276 C   0  0  2  0  0  0  0  0  0  0  0  0
    7.6354   -4.7142   45.6945 O   0  0  0  0  0  0  0  0  0  0  0  0
    0.0095  -10.8303   48.4382 C   0  0  2  0  0  0  0  0  0  0  0  0
   -0.1336   -9.6096   49.2641 O   0  0  0  0  0  0  0  0  0  0  0  0
    7.6608   -8.1557   42.8319 C   0  0  0  0  0  0  0  0  0  0  0  0
    8.8609   -7.6792   43.3902 O   0  0  0  0  0  0  0  0  0  0  0  0
    8.3651   -5.1741   48.0009 C   0  0  1  0  0  0  0  0  0  0  0  0
    8.9874   -3.9093   48.0852 O   0  0  0  0  0  0  0  0  0  0  0  0
    0.2929  -12.0173   49.3464 C   0  0  0  0  0  0  0  0  0  0  0  0
   -0.7262  -12.1550   50.3070 O   0  0  0  0  0  0  0  0  0  0  0  0
    1.4429   -8.2527   44.4668 C   0  0  0  0  0  0  0  0  0  0  0  0
  1  2  1  1  0  0  0
  1  7  1  0  0  0  0
  1 24  1  0  0  0  0
  3  4  1  1  0  0  0
  3  9  1  0  0  0  0
  3 31  1  0  0  0  0
  5  6  1  6  0  0  0
  5 10  1  0  0  0  0
  5 28  1  0  0  0  0
  7  8  1  1  0  0  0
  7 12  1  0  0  0  0
  9 14  1  0  0  0  0
 10 11  1  6  0  0  0
 10 16  1  0  0  0  0
 12 13  1  6  0  0  0
 12 18  1  0  0  0  0
 13 35  1  0  0  0  0
 14 15  1  6  0  0  0
 14 20  1  0  0  0  0
 16 17  1  6  0  0  0
 16 21  1  0  0  0  0
 17 35  1  0  0  0  0
 18 19  1  1  0  0  0
 18 23  1  0  0  0  0
 20  2  1  6  0  0  0
 20 25  1  0  0  0  0
 21 22  1  6  0  0  0
 21 27  1  0  0  0  0
 23 24  1  0  0  0  0
 23 29  1  6  0  0  0
 25 26  1  6  0  0  0
 25 31  1  0  0  0  0
 27 28  1  0  0  0  0
 27 33  1  1  0  0  0
 29 30  1  0  0  0  0
 31 32  1  1  0  0  0
 33 34  1  0  0  0  0
M  END
>  <CHROM.1>
166.91937686,-78.05703088,-60.53263455,-72.85845706,-174.91255681,171.01429446
178.87010173,179.16546635,4.05169877,-7.81630795,46.45309337,0.15433968,-0.50576989
-1.64750685

>  <Name>
2o3v_lig

>  <RI>
0

>  <Rbt.Current_Directory>
/home/afrankz/demos/rdock_decoys_rna/rnas/2o3v

>  <Rbt.Executable>
rbdock ($Id: //depot/dev/client3/rdock/2013.1/src/exe/rbdock.cxx#4 $)

>  <Rbt.Library>
libRbt.so (2013.1, Build901 2013/11/27)

>  <Rbt.Parameter_File>
/export/apps/rDock/src/rDock_2013.1_src/data/scripts/dock_solv.prm

>  <Rbt.Receptor>
prm/pocket_docking_6.prm

>  <SCORE>
-11.8411

>  <SCORE.INTER>
-7.68564

>  <SCORE.INTER.CONST>
1

>  <SCORE.INTER.POLAR>
0

>  <SCORE.INTER.ROT>
8

>  <SCORE.INTER.SOLV>
10.1371

>  <SCORE.INTER.VDW>
-17.4361

>  <SCORE.INTER.norm>
-0.21959

>  <SCORE.INTRA>
-4.15546

>  <SCORE.INTRA.DIHEDRAL>
-9.46278

>  <SCORE.INTRA.DIHEDRAL.0>
13.1227

>  <SCORE.INTRA.POLAR>
0

>  <SCORE.INTRA.POLAR.0>
0

>  <SCORE.INTRA.REPUL>
0

>  <SCORE.INTRA.REPUL.0>
0

>  <SCORE.INTRA.SOLV>
2.44672

>  <SCORE.INTRA.SOLV.lig_0>
-89.1587

>  <SCORE.INTRA.VDW>
-0.64743

>  <SCORE.INTRA.VDW.0>
-0.838383

>  <SCORE.INTRA.norm>
-0.118727

>  <SCORE.RESTR>
0

>  <SCORE.RESTR.CAVITY>
0

>  <SCORE.RESTR.norm>
0

>  <SCORE.SYSTEM>
0

>  <SCORE.SYSTEM.CONST>
0

>  <SCORE.SYSTEM.DIHEDRAL>
0

>  <SCORE.SYSTEM.SOLV>
0

>  <SCORE.SYSTEM.norm>
0

>  <SCORE.heavy>
35

>  <SCORE.norm>
-0.338317

>  <RMSD>
6.218

$$$$
2o3v_lig
 OpenBabel02141814113D
libRbt.so/2013.1/901 2013/11/27
 35 37  0  0  0  0  0  0  0  0999 V2000
    0.9903   -3.1779   43.5440 C   0  0  2  0  0  0  0  0  0  0  0  0
    1.9463   -4.1623   43.0441 O   0  0  0  0  0  0  0  0  0  0  0  0
    3.3053   -2.5259   39.2490 C   0  0  2  0  0  0  0  0  0  0  0  0
    4.0683   -2.3594   37.9753 N   0  0  0  0  0  0  0  0  0  0  0  0
    2.1231  -10.4435   48.3825 C   0  0  2  0  0  0  0  0  0  0  0  0
    2.6084  -10.4567   49.7426 O   0  0  0  0  0  0  0  0  0  0  0  0
    0.8734   -3.5355   45.0596 C   0  0  2  0  0  0  0  0  0  0  0  0
    2.1910   -3.4520   45.7330 N   0  0  0  0  0  0  0  0  0  0  0  0
    4.2944   -2.4598   40.4911 C   0  0  0  0  0  0  0  0  0  0  0  0
    1.9019   -8.9454   47.9761 C   0  0  2  0  0  0  0  0  0  0  0  0
    3.1564   -8.1639   48.1189 N   0  0  0  0  0  0  0  0  0  0  0  0
    0.2532   -4.9846   45.2715 C   0  0  1  0  0  0  0  0  0  0  0  0
    0.1918   -5.3230   46.7172 O   0  0  0  0  0  0  0  0  0  0  0  0
    3.4601   -2.6511   41.8311 C   0  0  2  0  0  0  0  0  0  0  0  0
    4.3644   -2.6043   43.0001 N   0  0  0  0  0  0  0  0  0  0  0  0
    0.7329   -8.2752   48.8240 C   0  0  1  0  0  0  0  0  0  0  0  0
    0.4839   -6.8971   48.4451 O   0  0  0  0  0  0  0  0  0  0  0  0
   -1.1576   -5.0112   44.5350 C   0  0  2  0  0  0  0  0  0  0  0  0
   -1.7785   -6.2790   44.6495 O   0  0  0  0  0  0  0  0  0  0  0  0
    2.6931   -4.0367   41.7965 C   0  0  2  0  0  0  0  0  0  0  0  0
   -0.5658   -9.1210   48.6323 C   0  0  2  0  0  0  0  0  0  0  0  0
   -1.6397   -8.5767   49.3739 O   0  0  0  0  0  0  0  0  0  0  0  0
   -0.9955   -4.6303   43.0144 C   0  0  2  0  0  0  0  0  0  0  0  0
   -0.3440   -3.3089   42.8965 O   0  0  0  0  0  0  0  0  0  0  0  0
    1.7329   -4.0953   40.5754 C   0  0  2  0  0  0  0  0  0  0  0  0
    1.0961   -5.4051   40.5857 O   0  0  0  0  0  0  0  0  0  0  0  0
   -0.2982  -10.6225   49.0483 C   0  0  2  0  0  0  0  0  0  0  0  0
    0.8334  -11.1772   48.2707 O   0  0  0  0  0  0  0  0  0  0  0  0
   -2.3418   -4.6120   42.2919 C   0  0  0  0  0  0  0  0  0  0  0  0
   -3.1832   -3.6125   42.8132 O   0  0  0  0  0  0  0  0  0  0  0  0
    2.5400   -3.9061   39.2697 C   0  0  1  0  0  0  0  0  0  0  0  0
    1.6453   -3.9578   38.1784 O   0  0  0  0  0  0  0  0  0  0  0  0
   -1.5253  -11.4963   48.8368 C   0  0  0  0  0  0  0  0  0  0  0  0
   -1.8928  -11.5062   47.4785 O   0  0  0  0  0  0  0  0  0  0  0  0
    0.2488   -6.8041   47.0094 C   0  0  0  0  0  0  0  0  0  0  0  0
  1  2  1  6  0  0  0
  1  7  1  0  0  0  0
  1 24  1  0  0  0  0
  3  4  1  6  0  0  0
  3  9  1  0  0  0  0
  3 31  1  0  0  0  0
  5  6  1  1  0  0  0
  5 10  1  0  0  0  0
  5 28  1  0  0  0  0
  7  8  1  6  0  0  0
  7 12  1  0  0  0  0
  9 14  1  0  0  0  0
 10 11  1  1  0  0  0
 10 16  1  0  0  0  0
 12 13  1  1  0  0  0
 12 18  1  0  0  0  0
 13 35  1  0  0  0  0
 14 15  1  1  0  0  0
 14 20  1  0  0  0  0
 16 17  1  6  0  0  0
 16 21  1  0  0  0  0
 17 35  1  0  0  0  0
 18 19  1  6  0  0  0
 18 23  1  0  0  0  0
 20  2  1  1  0  0  0
 20 25  1  0  0  0  0
 21 22  1  1  0  0  0
 21 27  1  0  0  0  0
 23 24  1  0  0  0  0
 23 29  1  1  0  0  0
 25 26  1  6  0  0  0
 25 31  1  0  0  0  0
 27 28  1  0  0  0  0
 27 33  1  6  0  0  0
 29 30  1  0  0  0  0
 31 32  1  6  0  0  0
 33 34  1  0  0  0  0
M  END
>  <CHROM.1>
-161.34310313,-152.88542794,167.39586099,53.65388164,-172.56577974,54.60814909
64.00060666,61.01219797,0.86292890,-6.00268458,44.67845795,1.38006754,-0.02248911
-0.89607611

>  <Name>
2o3v_lig

>  <RI>
0

>  <Rbt.Current_Directory>
/home/afrankz/demos/rdock_decoys_rna/rnas/2o3v

>  <Rbt.Executable>
rbdock ($Id: //depot/dev/client3/rdock/2013.1/src/exe/rbdock.cxx#4 $)

>  <Rbt.Library>
libRbt.so (2013.1, Build901 2013/11/27)

>  <Rbt.Parameter_File>
/export/apps/rDock/src/rDock_2013.1_src/data/scripts/dock_solv.prm

>  <Rbt.Receptor>
prm/pocket_docking_7.prm

>  <SCORE>
-18.3724

>  <SCORE.INTER>
-15.0266

>  <SCORE.INTER.CONST>
1

>  <SCORE.INTER.POLAR>
-2.48906

>  <SCORE.INTER.ROT>
8

>  <SCORE.INTER.SOLV>
17.4328

>  <SCORE.INTER.VDW>
-16.4652

>  <SCORE.INTER.norm>
-0.429331

>  <SCORE.INTRA>
-3.34584

>  <SCORE.INTRA.DIHEDRAL>
-7.01038

>  <SCORE.INTRA.DIHEDRAL.0>
13.1227

>  <SCORE.INTRA.POLAR>
0

>  <SCORE.INTRA.POLAR.0>
0

>  <SCORE.INTRA.REPUL>
0

>  <SCORE.INTRA.REPUL.0>
0

>  <SCORE.INTRA.SOLV>
1.4567

>  <SCORE.INTRA.SOLV.lig_0>
-89.1587

>  <SCORE.INTRA.VDW>
-0.568999

>  <SCORE.INTRA.VDW.0>
-0.838383

>  <SCORE.INTRA.norm>
-0.0955953

>  <SCORE.RESTR>
0

>  <SCORE.RESTR.CAVITY>
0

>  <SCORE.RESTR.norm>
0

>  <SCORE.SYSTEM>
0

>  <SCORE.SYSTEM.CONST>
0

>  <SCORE.SYSTEM.DIHEDRAL>
0

>  <SCORE.SYSTEM.SOLV>
0

>  <SCORE.SYSTEM.norm>
0

>  <SCORE.heavy>
35

>  <SCORE.norm>
-0.524927

>  <RMSD>
6.230

$$$$
2o3v_lig
 OpenBabel02141814113D
libRbt.so/2013.1/901 2013/11/27
 35 37  0  0  0  0  0  0  0  0999 V2000
    7.0422   -5.2942   44.5269 C   0  0  2  0  0  0  0  0  0  0  0  0
    6.5953   -5.3433   45.9164 O   0  0  0  0  0  0  0  0  0  0  0  0
    8.6736   -4.7336   49.6895 C   0  0  2  0  0  0  0  0  0  0  0  0
    9.5383   -4.9841   50.8819 N   0  0  0  0  0  0  0  0  0  0  0  0
   -0.5545   -7.2565   47.5535 C   0  0  2  0  0  0  0  0  0  0  0  0
   -1.1117   -6.0010   47.1076 O   0  0  0  0  0  0  0  0  0  0  0  0
    5.7402   -5.6104   43.7247 C   0  0  2  0  0  0  0  0  0  0  0  0
    4.6748   -4.6241   44.0220 N   0  0  0  0  0  0  0  0  0  0  0  0
    7.4770   -5.7787   49.6531 C   0  0  0  0  0  0  0  0  0  0  0  0
    0.9630   -7.2646   47.1595 C   0  0  2  0  0  0  0  0  0  0  0  0
    1.6744   -6.1057   47.7559 N   0  0  0  0  0  0  0  0  0  0  0  0
    5.2109   -7.0795   44.0263 C   0  0  1  0  0  0  0  0  0  0  0  0
    3.9485   -7.3444   43.2883 O   0  0  0  0  0  0  0  0  0  0  0  0
    6.5801   -5.4981   48.3704 C   0  0  2  0  0  0  0  0  0  0  0  0
    5.4658   -6.4683   48.3111 N   0  0  0  0  0  0  0  0  0  0  0  0
    1.1576   -7.2799   45.5794 C   0  0  1  0  0  0  0  0  0  0  0  0
    2.5534   -7.3213   45.1862 O   0  0  0  0  0  0  0  0  0  0  0  0
    6.3912   -8.0908   43.6832 C   0  0  2  0  0  0  0  0  0  0  0  0
    6.0180   -9.4316   43.9457 O   0  0  0  0  0  0  0  0  0  0  0  0
    7.4629   -5.6083   47.0597 C   0  0  2  0  0  0  0  0  0  0  0  0
    0.4061   -8.5200   44.9997 C   0  0  2  0  0  0  0  0  0  0  0  0
    0.5357   -8.5796   43.5929 O   0  0  0  0  0  0  0  0  0  0  0  0
    7.6877   -7.7265   44.5019 C   0  0  2  0  0  0  0  0  0  0  0  0
    8.0737   -6.3259   44.2299 O   0  0  0  0  0  0  0  0  0  0  0  0
    8.6341   -4.5874   47.1065 C   0  0  2  0  0  0  0  0  0  0  0  0
    9.4212   -4.7730   45.8953 O   0  0  0  0  0  0  0  0  0  0  0  0
   -1.1163   -8.4752   45.4235 C   0  0  2  0  0  0  0  0  0  0  0  0
   -1.2374   -8.4044   46.8976 O   0  0  0  0  0  0  0  0  0  0  0  0
    8.8486   -8.6605   44.1629 C   0  0  0  0  0  0  0  0  0  0  0  0
    8.6840   -9.9164   44.7749 O   0  0  0  0  0  0  0  0  0  0  0  0
    9.5072   -4.8545   48.3548 C   0  0  1  0  0  0  0  0  0  0  0  0
   10.5585   -3.9120   48.3765 O   0  0  0  0  0  0  0  0  0  0  0  0
   -1.8812   -9.6887   44.9173 C   0  0  0  0  0  0  0  0  0  0  0  0
   -1.3440  -10.8699   45.4615 O   0  0  0  0  0  0  0  0  0  0  0  0
    2.7301   -6.6823   43.8879 C   0  0  0  0  0  0  0  0  0  0  0  0
  1  2  1  1  0  0  0
  1  7  1  0  0  0  0
  1 24  1  0  0  0  0
  3  4  1  1  0  0  0
  3  9  1  0  0  0  0
  3 31  1  0  0  0  0
  5  6  1  6  0  0  0
  5 10  1  0  0  0  0
  5 28  1  0  0  0  0
  7  8  1  1  0  0  0
  7 12  1  0  0  0  0
  9 14  1  0  0  0  0
 10 11  1  6  0  0  0
 10 16  1  0  0  0  0
 12 13  1  6  0  0  0
 12 18  1  0  0  0  0
 13 35  1  0  0  0  0
 14 15  1  6  0  0  0
 14 20  1  0  0  0  0
 16 17  1  1  0  0  0
 16 21  1  0  0  0  0
 17 35  1  0  0  0  0
 18 19  1  1  0  0  0
 18 23  1  0  0  0  0
 20  2  1  6  0  0  0
 20 25  1  0  0  0  0
 21 22  1  6  0  0  0
 21 27  1  0  0  0  0
 23 24  1  0  0  0  0
 23 29  1  6  0  0  0
 25 26  1  6  0  0  0
 25 31  1  0  0  0  0
 27 28  1  0  0  0  0
 27 33  1  1  0  0  0
 29 30  1  0  0  0  0
 31 32  1  1  0  0  0
 33 34  1  0  0  0  0
M  END
>  <CHROM.1>
156.12486706,-76.03388492,-65.35368887,-151.55131094,-152.85097957,177.29895415
-76.02698353,61.29101172,4.69292583,-6.86542905,45.96790363,-0.28450894,-0.18343453
-2.06660572

>  <Name>
2o3v_lig

>  <RI>
0

>  <Rbt.Current_Directory>
/home/afrankz/demos/rdock_decoys_rna/rnas/2o3v

>  <Rbt.Executable>
rbdock ($Id: //depot/dev/client3/rdock/2013.1/src/exe/rbdock.cxx#4 $)

>  <Rbt.Library>
libRbt.so (2013.1, Build901 2013/11/27)

>  <Rbt.Parameter_File>
/export/apps/rDock/src/rDock_2013.1_src/data/scripts/dock_solv.prm

>  <Rbt.Receptor>
prm/pocket_docking_7.prm

>  <SCORE>
-9.70031

>  <SCORE.INTER>
-8.20839

>  <SCORE.INTER.CONST>
1

>  <SCORE.INTER.POLAR>
-0.397926

>  <SCORE.INTER.ROT>
8

>  <SCORE.INTER.SOLV>
13.2276

>  <SCORE.INTER.VDW>
-17.4884

>  <SCORE.INTER.norm>
-0.234525

>  <SCORE.INTRA>
-1.49451

>  <SCORE.INTRA.DIHEDRAL>
-2.0071

>  <SCORE.INTRA.DIHEDRAL.0>
13.1227

>  <SCORE.INTRA.POLAR>
0

>  <SCORE.INTRA.POLAR.0>
0

>  <SCORE.INTRA.REPUL>
0.0323655

>  <SCORE.INTRA.REPUL.0>
0

>  <SCORE.INTRA.SOLV>
1.16268

>  <SCORE.INTRA.SOLV.lig_0>
-89.1587

>  <SCORE.INTRA.VDW>
-1.23413

>  <SCORE.INTRA.VDW.0>
-0.838383

>  <SCORE.INTRA.norm>
-0.0427003

>  <SCORE.RESTR>
0.00259171

>  <SCORE.RESTR.CAVITY>
0.00259171

>  <SCORE.RESTR.norm>
7.4049e-05

>  <SCORE.SYSTEM>
0

>  <SCORE.SYSTEM.CONST>
0

>  <SCORE.SYSTEM.DIHEDRAL>
0

>  <SCORE.SYSTEM.SOLV>
0

>  <SCORE.SYSTEM.norm>
0

>  <SCORE.heavy>
35

>  <SCORE.norm>
-0.277152

>  <RMSD>
6.382

$$$$
2o3v_lig
 OpenBabel02141814113D
libRbt.so/2013.1/901 2013/11/27
 35 37  0  0  0  0  0  0  0  0999 V2000
    5.3327   -9.5062   45.3103 C   0  0  2  0  0  0  0  0  0  0  0  0
    5.8215   -8.1301   45.3067 O   0  0  0  0  0  0  0  0  0  0  0  0
    9.7007   -6.2606   45.9270 C   0  0  2  0  0  0  0  0  0  0  0  0
   10.9370   -5.7642   46.6033 N   0  0  0  0  0  0  0  0  0  0  0  0
   -0.5888   -3.0927   43.1900 C   0  0  2  0  0  0  0  0  0  0  0  0
   -1.0139   -3.2028   44.5658 O   0  0  0  0  0  0  0  0  0  0  0  0
    4.1879   -9.4784   44.2487 C   0  0  2  0  0  0  0  0  0  0  0  0
    4.6962   -9.0514   42.9237 N   0  0  0  0  0  0  0  0  0  0  0  0
    8.4190   -5.5493   46.5408 C   0  0  0  0  0  0  0  0  0  0  0  0
   -0.0565   -4.4995   42.7475 C   0  0  2  0  0  0  0  0  0  0  0  0
   -1.1005   -5.5417   42.9176 N   0  0  0  0  0  0  0  0  0  0  0  0
    2.9969   -8.5254   44.6991 C   0  0  1  0  0  0  0  0  0  0  0  0
    1.9393   -8.4783   43.6563 O   0  0  0  0  0  0  0  0  0  0  0  0
    7.1182   -6.1030   45.8130 C   0  0  2  0  0  0  0  0  0  0  0  0
    5.9116   -5.4616   46.3780 N   0  0  0  0  0  0  0  0  0  0  0  0
    1.2627   -4.9029   43.5424 C   0  0  1  0  0  0  0  0  0  0  0  0
    1.7965   -6.1869   43.1289 O   0  0  0  0  0  0  0  0  0  0  0  0
    2.4901   -9.0353   46.1193 C   0  0  2  0  0  0  0  0  0  0  0  0
    1.4387   -8.2265   46.6156 O   0  0  0  0  0  0  0  0  0  0  0  0
    7.0279   -7.6746   45.9903 C   0  0  2  0  0  0  0  0  0  0  0  0
    2.3336   -3.7877   43.3232 C   0  0  2  0  0  0  0  0  0  0  0  0
    3.5283   -4.0882   44.0175 O   0  0  0  0  0  0  0  0  0  0  0  0
    3.6785   -9.0620   47.1541 C   0  0  2  0  0  0  0  0  0  0  0  0
    4.7764   -9.9032   46.6331 O   0  0  0  0  0  0  0  0  0  0  0  0
    8.2879   -8.3615   45.3930 C   0  0  2  0  0  0  0  0  0  0  0  0
    8.1547   -9.7929   45.6268 O   0  0  0  0  0  0  0  0  0  0  0  0
    1.7557   -2.3879   43.7769 C   0  0  2  0  0  0  0  0  0  0  0  0
    0.5012   -2.0896   43.0488 O   0  0  0  0  0  0  0  0  0  0  0  0
    3.2263   -9.5837   48.5173 C   0  0  0  0  0  0  0  0  0  0  0  0
    2.8078  -10.9241   48.4336 O   0  0  0  0  0  0  0  0  0  0  0  0
    9.5561   -7.8232   46.0958 C   0  0  1  0  0  0  0  0  0  0  0  0
   10.6846   -8.4579   45.5320 O   0  0  0  0  0  0  0  0  0  0  0  0
    2.7500   -1.2611   43.5408 C   0  0  0  0  0  0  0  0  0  0  0  0
    3.0141   -1.1192   42.1660 O   0  0  0  0  0  0  0  0  0  0  0  0
    1.0374   -7.2693   43.7432 C   0  0  0  0  0  0  0  0  0  0  0  0
  1  2  1  1  0  0  0
  1  7  1  0  0  0  0
  1 24  1  0  0  0  0
  3  4  1  1  0  0  0
  3  9  1  0  0  0  0
  3 31  1  0  0  0  0
  5  6  1  1  0  0  0
  5 10  1  0  0  0  0
  5 28  1  0  0  0  0
  7  8  1  6  0  0  0
  7 12  1  0  0  0  0
  9 14  1  0  0  0  0
 10 11  1  1  0  0  0
 10 16  1  0  0  0  0
 12 13  1  6  0  0  0
 12 18  1  0  0  0  0
 13 35  1  0  0  0  0
 14 15  1  1  0  0  0
 14 20  1  0  0  0  0
 16 17  1  6  0  0  0
 16 21  1  0  0  0  0
 17 35  1  0  0  0  0
 18 19  1  1  0  0  0
 18 23  1  0  0  0  0
 20  2  1  6  0  0  0
 20 25  1  0  0  0  0
 21 22  1  1  0  0  0
 21 27  1  0  0  0  0
 23 24  1  0  0  0  0
 23 29  1  1  0  0  0
 25 26  1  1  0  0  0
 25 31  1  0  0  0  0
 27 28  1  0  0  0  0
 27 33  1  6  0  0  0
 29 30  1  0  0  0  0
 31 32  1  6  0  0  0
 33 34  1  0  0  0  0
M  END
>  <CHROM.1>
-170.53746604,-159.24957303,79.69744565,-78.90237779,-160.57218411,-175.83341567
64.01268282,63.38190515,4.09544469,-6.59080567,44.94859516,0.62839848,0.13595011
2.77807150

>  <Name>
2o3v_lig

>  <RI>
0

>  <Rbt.Current_Directory>
/home/afrankz/demos/rdock_decoys_rna/rnas/2o3v

>  <Rbt.Executable>
rbdock ($Id: //depot/dev/client3/rdock/2013.1/src/exe/rbdock.cxx#4 $)

>  <Rbt.Library>
libRbt.so (2013.1, Build901 2013/11/27)

>  <Rbt.Parameter_File>
/export/apps/rDock/src/rDock_2013.1_src/data/scripts/dock_solv.prm

>  <Rbt.Receptor>
prm/pocket_docking_8.prm

>  <SCORE>
-8.85496

>  <SCORE.INTER>
-4.64652

>  <SCORE.INTER.CONST>
1

>  <SCORE.INTER.POLAR>
-0.549335

>  <SCORE.INTER.ROT>
8

>  <SCORE.INTER.SOLV>
15.3478

>  <SCORE.INTER.VDW>
-15.3158

>  <SCORE.INTER.norm>
-0.132758

>  <SCORE.INTRA>
-4.20844

>  <SCORE.INTRA.DIHEDRAL>
-5.44963

>  <SCORE.INTRA.DIHEDRAL.0>
13.1227

>  <SCORE.INTRA.POLAR>
0

>  <SCORE.INTRA.POLAR.0>
0

>  <SCORE.INTRA.REPUL>
0

>  <SCORE.INTRA.REPUL.0>
0

>  <SCORE.INTRA.SOLV>
0.45592

>  <SCORE.INTRA.SOLV.lig_0>
-89.1587

>  <SCORE.INTRA.VDW>
-1.71158

>  <SCORE.INTRA.VDW.0>
-0.838383

>  <SCORE.INTRA.norm>
-0.120241

>  <SCORE.RESTR>
0

>  <SCORE.RESTR.CAVITY>
0

>  <SCORE.RESTR.norm>
0

>  <SCORE.SYSTEM>
0

>  <SCORE.SYSTEM.CONST>
0

>  <SCORE.SYSTEM.DIHEDRAL>
0

>  <SCORE.SYSTEM.SOLV>
0

>  <SCORE.SYSTEM.norm>
0

>  <SCORE.heavy>
35

>  <SCORE.norm>
-0.252999

>  <RMSD>
6.385

$$$$
2o3v_lig
 OpenBabel02141814113D
libRbt.so/2013.1/901 2013/11/27
 35 37  0  0  0  0  0  0  0  0999 V2000
    3.5419   -3.9615   43.5124 C   0  0  2  0  0  0  0  0  0  0  0  0
    3.6293   -5.3771   43.1641 O   0  0  0  0  0  0  0  0  0  0  0  0
    7.0401   -7.9417   42.3176 C   0  0  2  0  0  0  0  0  0  0  0  0
    8.2523   -8.7915   42.5191 N   0  0  0  0  0  0  0  0  0  0  0  0
   -3.1863   -1.0739   42.6737 C   0  0  2  0  0  0  0  0  0  0  0  0
   -4.5928   -1.1967   42.3697 O   0  0  0  0  0  0  0  0  0  0  0  0
    2.0089   -3.6731   43.4412 C   0  0  2  0  0  0  0  0  0  0  0  0
    1.2559   -4.5433   44.3750 N   0  0  0  0  0  0  0  0  0  0  0  0
    7.3222   -6.4600   42.8180 C   0  0  0  0  0  0  0  0  0  0  0  0
   -2.3975   -1.8852   41.5883 C   0  0  2  0  0  0  0  0  0  0  0  0
   -2.7091   -1.3912   40.2231 N   0  0  0  0  0  0  0  0  0  0  0  0
    1.4479   -3.8583   41.9645 C   0  0  1  0  0  0  0  0  0  0  0  0
   -0.0189   -3.6229   41.9268 O   0  0  0  0  0  0  0  0  0  0  0  0
    6.0148   -5.5807   42.6034 C   0  0  2  0  0  0  0  0  0  0  0  0
    6.2524   -4.1992   43.0739 N   0  0  0  0  0  0  0  0  0  0  0  0
   -2.6943   -3.4458   41.6933 C   0  0  1  0  0  0  0  0  0  0  0  0
   -1.9509   -4.2251   40.7213 O   0  0  0  0  0  0  0  0  0  0  0  0
    2.2872   -2.8979   41.0122 C   0  0  2  0  0  0  0  0  0  0  0  0
    1.8721   -3.0135   39.6631 O   0  0  0  0  0  0  0  0  0  0  0  0
    4.7992   -6.2190   43.3935 C   0  0  2  0  0  0  0  0  0  0  0  0
   -2.3394   -3.9215   43.1378 C   0  0  2  0  0  0  0  0  0  0  0  0
   -2.5940   -5.3037   43.2935 O   0  0  0  0  0  0  0  0  0  0  0  0
    3.8272   -3.2128   41.1268 C   0  0  2  0  0  0  0  0  0  0  0  0
    4.2581   -3.0957   42.5357 O   0  0  0  0  0  0  0  0  0  0  0  0
    4.5343   -7.6698   42.9023 C   0  0  2  0  0  0  0  0  0  0  0  0
    3.4363   -8.2039   43.6961 O   0  0  0  0  0  0  0  0  0  0  0  0
   -3.1513   -3.0764   44.1990 C   0  0  2  0  0  0  0  0  0  0  0  0
   -2.8823   -1.6314   44.0194 O   0  0  0  0  0  0  0  0  0  0  0  0
    4.6596   -2.2788   40.2496 C   0  0  0  0  0  0  0  0  0  0  0  0
    4.6877   -2.7268   38.9164 O   0  0  0  0  0  0  0  0  0  0  0  0
    5.8049   -8.5279   43.1059 C   0  0  1  0  0  0  0  0  0  0  0  0
    5.5398   -9.8370   42.6475 O   0  0  0  0  0  0  0  0  0  0  0  0
   -2.8050   -3.4754   45.6255 C   0  0  0  0  0  0  0  0  0  0  0  0
   -3.6811   -2.8550   46.5352 O   0  0  0  0  0  0  0  0  0  0  0  0
   -0.6173   -3.6647   40.5403 C   0  0  0  0  0  0  0  0  0  0  0  0
  1  2  1  6  0  0  0
  1  7  1  0  0  0  0
  1 24  1  0  0  0  0
  3  4  1  1  0  0  0
  3  9  1  0  0  0  0
  3 31  1  0  0  0  0
  5  6  1  6  0  0  0
  5 10  1  0  0  0  0
  5 28  1  0  0  0  0
  7  8  1  1  0  0  0
  7 12  1  0  0  0  0
  9 14  1  0  0  0  0
 10 11  1  6  0  0  0
 10 16  1  0  0  0  0
 12 13  1  1  0  0  0
 12 18  1  0  0  0  0
 13 35  1  0  0  0  0
 14 15  1  1  0  0  0
 14 20  1  0  0  0  0
 16 17  1  6  0  0  0
 16 21  1  0  0  0  0
 17 35  1  0  0  0  0
 18 19  1  6  0  0  0
 18 23  1  0  0  0  0
 20  2  1  6  0  0  0
 20 25  1  0  0  0  0
 21 22  1  6  0  0  0
 21 27  1  0  0  0  0
 23 24  1  0  0  0  0
 23 29  1  6  0  0  0
 25 26  1  1  0  0  0
 25 31  1  0  0  0  0
 27 28  1  0  0  0  0
 27 33  1  1  0  0  0
 29 30  1  0  0  0  0
 31 32  1  6  0  0  0
 33 34  1  0  0  0  0
M  END
>  <CHROM.1>
-164.51726793,175.14683504,146.26928203,37.21826484,55.27232733,-59.35778275
-82.15013472,-171.16607356,1.57109917,-4.35864985,42.49800550,-0.29462417
0.34614344,-0.74127016

>  <Name>
2o3v_lig

>  <RI>
0

>  <Rbt.Current_Directory>
/home/afrankz/demos/rdock_decoys_rna/rnas/2o3v

>  <Rbt.Executable>
rbdock ($Id: //depot/dev/client3/rdock/2013.1/src/exe/rbdock.cxx#4 $)

>  <Rbt.Library>
libRbt.so (2013.1, Build901 2013/11/27)

>  <Rbt.Parameter_File>
/export/apps/rDock/src/rDock_2013.1_src/data/scripts/dock_solv.prm

>  <Rbt.Receptor>
prm/blind_docking_60.prm

>  <SCORE>
-6.17981

>  <SCORE.INTER>
-14.2883

>  <SCORE.INTER.CONST>
1

>  <SCORE.INTER.POLAR>
-1.43069

>  <SCORE.INTER.ROT>
8

>  <SCORE.INTER.SOLV>
22.4714

>  <SCORE.INTER.VDW>
-21.1804

>  <SCORE.INTER.norm>
-0.408238

>  <SCORE.INTRA>
5.14076

>  <SCORE.INTRA.DIHEDRAL>
-3.31141

>  <SCORE.INTRA.DIHEDRAL.0>
13.1227

>  <SCORE.INTRA.POLAR>
0

>  <SCORE.INTRA.POLAR.0>
0

>  <SCORE.INTRA.REPUL>
0

>  <SCORE.INTRA.REPUL.0>
0

>  <SCORE.INTRA.SOLV>
3.97114

>  <SCORE.INTRA.SOLV.lig_0>
-89.1587

>  <SCORE.INTRA.VDW>
4.81089

>  <SCORE.INTRA.VDW.0>
-0.838383

>  <SCORE.INTRA.norm>
0.146879

>  <SCORE.RESTR>
2.96775

>  <SCORE.RESTR.CAVITY>
2.96775

>  <SCORE.RESTR.norm>
0.0847929

>  <SCORE.SYSTEM>
0

>  <SCORE.SYSTEM.CONST>
0

>  <SCORE.SYSTEM.DIHEDRAL>
0

>  <SCORE.SYSTEM.SOLV>
0

>  <SCORE.SYSTEM.norm>
0

>  <SCORE.heavy>
35

>  <SCORE.norm>
-0.176566

>  <RMSD>
6.401

$$$$
2o3v_lig
 OpenBabel02141814113D
libRbt.so/2013.1/901 2013/11/27
 35 37  0  0  0  0  0  0  0  0999 V2000
    4.4900   -7.5958   44.2574 C   0  0  2  0  0  0  0  0  0  0  0  0
    5.8553   -7.6900   44.7670 O   0  0  0  0  0  0  0  0  0  0  0  0
    8.1473  -11.1436   46.0886 C   0  0  2  0  0  0  0  0  0  0  0  0
    8.6852  -12.2325   46.9589 N   0  0  0  0  0  0  0  0  0  0  0  0
   -0.4293   -1.3703   42.1266 C   0  0  2  0  0  0  0  0  0  0  0  0
   -0.4356   -2.1848   40.9341 O   0  0  0  0  0  0  0  0  0  0  0  0
    4.4729   -6.2064   43.5448 C   0  0  2  0  0  0  0  0  0  0  0  0
    5.4935   -6.1418   42.4722 N   0  0  0  0  0  0  0  0  0  0  0  0
    8.5095   -9.7237   46.7033 C   0  0  0  0  0  0  0  0  0  0  0  0
    0.9640   -1.5611   42.8199 C   0  0  2  0  0  0  0  0  0  0  0  0
    2.0711   -1.1960   41.9000 N   0  0  0  0  0  0  0  0  0  0  0  0
    4.7027   -5.0181   44.5766 C   0  0  1  0  0  0  0  0  0  0  0  0
    4.7273   -3.7094   43.8731 O   0  0  0  0  0  0  0  0  0  0  0  0
    7.9166   -8.5844   45.7658 C   0  0  2  0  0  0  0  0  0  0  0  0
    8.2329   -7.2533   46.3267 N   0  0  0  0  0  0  0  0  0  0  0  0
    1.1545   -3.0496   43.3516 C   0  0  1  0  0  0  0  0  0  0  0  0
    2.4229   -3.2459   44.0278 O   0  0  0  0  0  0  0  0  0  0  0  0
    3.5777   -5.1354   45.6965 C   0  0  2  0  0  0  0  0  0  0  0  0
    3.7177   -4.1259   46.6799 O   0  0  0  0  0  0  0  0  0  0  0  0
    6.3474   -8.7561   45.6338 C   0  0  2  0  0  0  0  0  0  0  0  0
   -0.0218   -3.3829   44.3232 C   0  0  2  0  0  0  0  0  0  0  0  0
    0.0894   -4.7018   44.8206 O   0  0  0  0  0  0  0  0  0  0  0  0
    3.6210   -6.5558   46.3780 C   0  0  2  0  0  0  0  0  0  0  0  0
    3.4787   -7.6082   45.3500 O   0  0  0  0  0  0  0  0  0  0  0  0
    6.0020  -10.1496   45.0378 C   0  0  2  0  0  0  0  0  0  0  0  0
    4.5502  -10.2514   44.9836 O   0  0  0  0  0  0  0  0  0  0  0  0
   -1.4053   -3.1735   43.5873 C   0  0  2  0  0  0  0  0  0  0  0  0
   -1.5051   -1.7918   43.0643 O   0  0  0  0  0  0  0  0  0  0  0  0
    2.5257   -6.7080   47.4324 C   0  0  0  0  0  0  0  0  0  0  0  0
    2.5939   -7.9671   48.0560 O   0  0  0  0  0  0  0  0  0  0  0  0
    6.5800  -11.2609   45.9449 C   0  0  1  0  0  0  0  0  0  0  0  0
    6.2577  -12.5140   45.3793 O   0  0  0  0  0  0  0  0  0  0  0  0
   -2.5842   -3.4447   44.5096 C   0  0  0  0  0  0  0  0  0  0  0  0
   -2.5579   -2.5689   45.6107 O   0  0  0  0  0  0  0  0  0  0  0  0
    3.4914   -3.4243   43.0523 C   0  0  0  0  0  0  0  0  0  0  0  0
  1  2  1  1  0  0  0
  1  7  1  0  0  0  0
  1 24  1  0  0  0  0
  3  4  1  1  0  0  0
  3  9  1  0  0  0  0
  3 31  1  0  0  0  0
  5  6  1  6  0  0  0
  5 10  1  0  0  0  0
  5 28  1  0  0  0  0
  7  8  1  6  0  0  0
  7 12  1  0  0  0  0
  9 14  1  0  0  0  0
 10 11  1  6  0  0  0
 10 16  1  0  0  0  0
 12 13  1  6  0  0  0
 12 18  1  0  0  0  0
 13 35  1  0  0  0  0
 14 15  1  1  0  0  0
 14 20  1  0  0  0  0
 16 17  1  1  0  0  0
 16 21  1  0  0  0  0
 17 35  1  0  0  0  0
 18 19  1  1  0  0  0
 18 23  1  0  0  0  0
 20  2  1  6  0  0  0
 20 25  1  0  0  0  0
 21 22  1  6  0  0  0
 21 27  1  0  0  0  0
 23 24  1  0  0  0  0
 23 29  1  1  0  0  0
 25 26  1  1  0  0  0
 25 31  1  0  0  0  0
 27 28  1  0  0  0  0
 27 33  1  1  0  0  0
 29 30  1  0  0  0  0
 31 32  1  6  0  0  0
 33 34  1  0  0  0  0
M  END
>  <CHROM.1>
173.54094169,56.21893055,68.18292940,-79.67738694,-176.30626583,171.77794786
-178.59760391,60.51050693,3.42032411,-6.01964241,44.75043742,-0.79810438
0.29862147,-0.60247357

>  <Name>
2o3v_lig

>  <RI>
0

>  <Rbt.Current_Directory>
/home/afrankz/demos/rdock_decoys_rna/rnas/2o3v

>  <Rbt.Executable>
rbdock ($Id: //depot/dev/client3/rdock/2013.1/src/exe/rbdock.cxx#4 $)

>  <Rbt.Library>
libRbt.so (2013.1, Build901 2013/11/27)

>  <Rbt.Parameter_File>
/export/apps/rDock/src/rDock_2013.1_src/data/scripts/dock_solv.prm

>  <Rbt.Receptor>
prm/pocket_docking_7.prm

>  <SCORE>
-11.2385

>  <SCORE.INTER>
-5.3012

>  <SCORE.INTER.CONST>
1

>  <SCORE.INTER.POLAR>
-0.959166

>  <SCORE.INTER.ROT>
8

>  <SCORE.INTER.SOLV>
9.5861

>  <SCORE.INTER.VDW>
-12.4656

>  <SCORE.INTER.norm>
-0.151463

>  <SCORE.INTRA>
-5.94153

>  <SCORE.INTRA.DIHEDRAL>
-10.3221

>  <SCORE.INTRA.DIHEDRAL.0>
13.1227

>  <SCORE.INTRA.POLAR>
0

>  <SCORE.INTRA.POLAR.0>
0

>  <SCORE.INTRA.REPUL>
0

>  <SCORE.INTRA.REPUL.0>
0

>  <SCORE.INTRA.SOLV>
0.501978

>  <SCORE.INTRA.SOLV.lig_0>
-89.1587

>  <SCORE.INTRA.VDW>
-1.03149

>  <SCORE.INTRA.VDW.0>
-0.838383

>  <SCORE.INTRA.norm>
-0.169758

>  <SCORE.RESTR>
0.00425811

>  <SCORE.RESTR.CAVITY>
0.00425811

>  <SCORE.RESTR.norm>
0.00012166

>  <SCORE.SYSTEM>
0

>  <SCORE.SYSTEM.CONST>
0

>  <SCORE.SYSTEM.DIHEDRAL>
0

>  <SCORE.SYSTEM.SOLV>
0

>  <SCORE.SYSTEM.norm>
0

>  <SCORE.heavy>
35

>  <SCORE.norm>
-0.321099

>  <RMSD>
6.544

$$$$
2o3v_lig
 OpenBabel02141814113D
libRbt.so/2013.1/901 2013/11/27
 35 37  0  0  0  0  0  0  0  0999 V2000
    2.5072   -3.9071   40.8605 C   0  0  2  0  0  0  0  0  0  0  0  0
    2.4576   -2.5143   40.4240 O   0  0  0  0  0  0  0  0  0  0  0  0
    4.5780    0.3254   37.9007 C   0  0  2  0  0  0  0  0  0  0  0  0
    5.6916    1.0901   37.2624 N   0  0  0  0  0  0  0  0  0  0  0  0
   -4.2255   -4.2882   46.2347 C   0  0  2  0  0  0  0  0  0  0  0  0
   -2.9203   -4.7892   46.5966 O   0  0  0  0  0  0  0  0  0  0  0  0
    1.0014   -4.2703   41.0580 C   0  0  2  0  0  0  0  0  0  0  0  0
    0.2368   -4.0876   39.8017 N   0  0  0  0  0  0  0  0  0  0  0  0
    4.5728    0.5753   39.4700 C   0  0  0  0  0  0  0  0  0  0  0  0
   -4.2815   -4.2070   44.6699 C   0  0  2  0  0  0  0  0  0  0  0  0
   -4.0137   -5.5332   44.0579 N   0  0  0  0  0  0  0  0  0  0  0  0
    0.3401   -3.4077   42.2191 C   0  0  1  0  0  0  0  0  0  0  0  0
   -1.1021   -3.7365   42.3610 O   0  0  0  0  0  0  0  0  0  0  0  0
    3.3875   -0.2576   40.1255 C   0  0  2  0  0  0  0  0  0  0  0  0
    3.3720   -0.0480   41.5892 N   0  0  0  0  0  0  0  0  0  0  0  0
   -3.2651   -3.1205   44.1032 C   0  0  1  0  0  0  0  0  0  0  0  0
   -3.3199   -3.0006   42.6584 O   0  0  0  0  0  0  0  0  0  0  0  0
    1.1969   -3.6489   43.5387 C   0  0  2  0  0  0  0  0  0  0  0  0
    0.6940   -2.8966   44.6282 O   0  0  0  0  0  0  0  0  0  0  0  0
    3.5667   -1.7979   39.8021 C   0  0  2  0  0  0  0  0  0  0  0  0
   -3.5934   -1.7436   44.7627 C   0  0  2  0  0  0  0  0  0  0  0  0
   -2.7118   -0.7381   44.3030 O   0  0  0  0  0  0  0  0  0  0  0  0
    2.7100   -3.2848   43.2905 C   0  0  2  0  0  0  0  0  0  0  0  0
    3.2323   -4.0677   42.1508 O   0  0  0  0  0  0  0  0  0  0  0  0
    3.5769   -2.0325   38.2655 C   0  0  2  0  0  0  0  0  0  0  0  0
    3.7844   -3.4570   38.0445 O   0  0  0  0  0  0  0  0  0  0  0  0
   -3.5304   -1.8707   46.3372 C   0  0  2  0  0  0  0  0  0  0  0  0
   -4.4513   -2.9321   46.8042 O   0  0  0  0  0  0  0  0  0  0  0  0
    3.5622   -3.5430   44.5322 C   0  0  0  0  0  0  0  0  0  0  0  0
    4.0528   -4.8613   44.5451 O   0  0  0  0  0  0  0  0  0  0  0  0
    4.7264   -1.2212   37.6233 C   0  0  1  0  0  0  0  0  0  0  0  0
    4.7101   -1.4470   36.2294 O   0  0  0  0  0  0  0  0  0  0  0  0
   -3.8866   -0.5619   47.0259 C   0  0  0  0  0  0  0  0  0  0  0  0
   -3.8414   -0.7145   48.4240 O   0  0  0  0  0  0  0  0  0  0  0  0
   -2.0292   -2.5644   42.1400 C   0  0  0  0  0  0  0  0  0  0  0  0
  1  2  1  1  0  0  0
  1  7  1  0  0  0  0
  1 24  1  0  0  0  0
  3  4  1  6  0  0  0
  3  9  1  0  0  0  0
  3 31  1  0  0  0  0
  5  6  1  6  0  0  0
  5 10  1  0  0  0  0
  5 28  1  0  0  0  0
  7  8  1  6  0  0  0
  7 12  1  0  0  0  0
  9 14  1  0  0  0  0
 10 11  1  6  0  0  0
 10 16  1  0  0  0  0
 12 13  1  1  0  0  0
 12 18  1  0  0  0  0
 13 35  1  0  0  0  0
 14 15  1  1  0  0  0
 14 20  1  0  0  0  0
 16 17  1  6  0  0  0
 16 21  1  0  0  0  0
 17 35  1  0  0  0  0
 18 19  1  1  0  0  0
 18 23  1  0  0  0  0
 20  2  1  1  0  0  0
 20 25  1  0  0  0  0
 21 22  1  6  0  0  0
 21 27  1  0  0  0  0
 23 24  1  0  0  0  0
 23 29  1  1  0  0  0
 25 26  1  1  0  0  0
 25 31  1  0  0  0  0
 27 28  1  0  0  0  0
 27 33  1  1  0  0  0
 29 30  1  0  0  0  0
 31 32  1  6  0  0  0
 33 34  1  0  0  0  0
M  END
>  <CHROM.1>
-164.58207197,-119.82318415,-165.59690126,-151.77014083,69.15132562,-152.87971160
88.95133705,179.08318005,0.45600171,-2.54771089,42.43935574,-0.46931639,-0.60492102
2.62118657

>  <Name>
2o3v_lig

>  <RI>
0

>  <Rbt.Current_Directory>
/home/afrankz/demos/rdock_decoys_rna/rnas/2o3v

>  <Rbt.Executable>
rbdock ($Id: //depot/dev/client3/rdock/2013.1/src/exe/rbdock.cxx#4 $)

>  <Rbt.Library>
libRbt.so (2013.1, Build901 2013/11/27)

>  <Rbt.Parameter_File>
/export/apps/rDock/src/rDock_2013.1_src/data/scripts/dock_solv.prm

>  <Rbt.Receptor>
prm/blind_docking_60.prm

>  <SCORE>
-2.72642

>  <SCORE.INTER>
-3.85654

>  <SCORE.INTER.CONST>
1

>  <SCORE.INTER.POLAR>
-0.119162

>  <SCORE.INTER.ROT>
8

>  <SCORE.INTER.SOLV>
19.615

>  <SCORE.INTER.VDW>
-17.6455

>  <SCORE.INTER.norm>
-0.110187

>  <SCORE.INTRA>
0.574699

>  <SCORE.INTRA.DIHEDRAL>
5.42541

>  <SCORE.INTRA.DIHEDRAL.0>
13.1227

>  <SCORE.INTRA.POLAR>
0

>  <SCORE.INTRA.POLAR.0>
0

>  <SCORE.INTRA.REPUL>
0

>  <SCORE.INTRA.REPUL.0>
0

>  <SCORE.INTRA.SOLV>
0.463978

>  <SCORE.INTRA.SOLV.lig_0>
-89.1587

>  <SCORE.INTRA.VDW>
-2.36999

>  <SCORE.INTRA.VDW.0>
-0.838383

>  <SCORE.INTRA.norm>
0.01642

>  <SCORE.RESTR>
0.555419

>  <SCORE.RESTR.CAVITY>
0.555419

>  <SCORE.RESTR.norm>
0.0158691

>  <SCORE.SYSTEM>
0

>  <SCORE.SYSTEM.CONST>
0

>  <SCORE.SYSTEM.DIHEDRAL>
0

>  <SCORE.SYSTEM.SOLV>
0

>  <SCORE.SYSTEM.norm>
0

>  <SCORE.heavy>
35

>  <SCORE.norm>
-0.0778977

>  <RMSD>
6.567

$$$$
2o3v_lig
 OpenBabel02141814113D
libRbt.so/2013.1/901 2013/11/27
 35 37  0  0  0  0  0  0  0  0999 V2000
    5.3100   -5.5302   44.0831 C   0  0  2  0  0  0  0  0  0  0  0  0
    5.4776   -5.1650   45.4871 O   0  0  0  0  0  0  0  0  0  0  0  0
    8.7715   -5.0451   48.3267 C   0  0  2  0  0  0  0  0  0  0  0  0
    9.8764   -5.4925   49.2274 N   0  0  0  0  0  0  0  0  0  0  0  0
   -3.0389   -4.1851   41.2999 C   0  0  2  0  0  0  0  0  0  0  0  0
   -2.9610   -2.7524   41.4634 O   0  0  0  0  0  0  0  0  0  0  0  0
    4.1371   -4.6115   43.6156 C   0  0  2  0  0  0  0  0  0  0  0  0
    4.4708   -3.1797   43.8022 N   0  0  0  0  0  0  0  0  0  0  0  0
    7.3897   -5.6657   48.8072 C   0  0  0  0  0  0  0  0  0  0  0  0
   -2.4791   -4.8397   42.6101 C   0  0  2  0  0  0  0  0  0  0  0  0
   -3.2382   -4.3811   43.8010 N   0  0  0  0  0  0  0  0  0  0  0  0
    2.7867   -4.9523   44.3837 C   0  0  1  0  0  0  0  0  0  0  0  0
    1.6952   -4.0386   43.9569 O   0  0  0  0  0  0  0  0  0  0  0  0
    6.2342   -5.1842   47.8267 C   0  0  2  0  0  0  0  0  0  0  0  0
    4.9399   -5.7606   48.2498 N   0  0  0  0  0  0  0  0  0  0  0  0
   -0.9260   -4.5424   42.7956 C   0  0  1  0  0  0  0  0  0  0  0  0
   -0.3736   -5.1648   43.9840 O   0  0  0  0  0  0  0  0  0  0  0  0
    2.4776   -6.4949   44.1420 C   0  0  2  0  0  0  0  0  0  0  0  0
    1.2976   -6.8986   44.8132 O   0  0  0  0  0  0  0  0  0  0  0  0
    6.5648   -5.6296   46.3429 C   0  0  2  0  0  0  0  0  0  0  0  0
   -0.1691   -5.0531   41.5287 C   0  0  2  0  0  0  0  0  0  0  0  0
    1.2191   -4.8051   41.6330 O   0  0  0  0  0  0  0  0  0  0  0  0
    3.6914   -7.3830   44.6130 C   0  0  2  0  0  0  0  0  0  0  0  0
    4.9227   -6.9579   43.9146 O   0  0  0  0  0  0  0  0  0  0  0  0
    7.9204   -5.0234   45.8834 C   0  0  2  0  0  0  0  0  0  0  0  0
    8.1767   -5.5055   44.5332 O   0  0  0  0  0  0  0  0  0  0  0  0
   -0.7666   -4.3732   40.2325 C   0  0  2  0  0  0  0  0  0  0  0  0
   -2.2215   -4.6333   40.1401 O   0  0  0  0  0  0  0  0  0  0  0  0
    3.4353   -8.8675   44.3574 C   0  0  0  0  0  0  0  0  0  0  0  0
    4.4410   -9.6624   44.9368 O   0  0  0  0  0  0  0  0  0  0  0  0
    9.0468   -5.4865   46.8367 C   0  0  1  0  0  0  0  0  0  0  0  0
   10.2642   -4.9186   46.4012 O   0  0  0  0  0  0  0  0  0  0  0  0
   -0.0884   -4.8739   38.9663 C   0  0  0  0  0  0  0  0  0  0  0  0
    1.2350   -4.4006   38.8981 O   0  0  0  0  0  0  0  0  0  0  0  0
    0.4129   -4.1976   44.7398 C   0  0  0  0  0  0  0  0  0  0  0  0
  1  2  1  1  0  0  0
  1  7  1  0  0  0  0
  1 24  1  0  0  0  0
  3  4  1  1  0  0  0
  3  9  1  0  0  0  0
  3 31  1  0  0  0  0
  5  6  1  1  0  0  0
  5 10  1  0  0  0  0
  5 28  1  0  0  0  0
  7  8  1  1  0  0  0
  7 12  1  0  0  0  0
  9 14  1  0  0  0  0
 10 11  1  1  0  0  0
 10 16  1  0  0  0  0
 12 13  1  6  0  0  0
 12 18  1  0  0  0  0
 13 35  1  0  0  0  0
 14 15  1  1  0  0  0
 14 20  1  0  0  0  0
 16 17  1  1  0  0  0
 16 21  1  0  0  0  0
 17 35  1  0  0  0  0
 18 19  1  1  0  0  0
 18 23  1  0  0  0  0
 20  2  1  6  0  0  0
 20 25  1  0  0  0  0
 21 22  1  1  0  0  0
 21 27  1  0  0  0  0
 23 24  1  0  0  0  0
 23 29  1  6  0  0  0
 25 26  1  6  0  0  0
 25 31  1  0  0  0  0
 27 28  1  0  0  0  0
 27 33  1  6  0  0  0
 29 30  1  0  0  0  0
 31 32  1  6  0  0  0
 33 34  1  0  0  0  0
M  END
>  <CHROM.1>
-172.21436661,-173.99729335,-92.01608534,-131.80947889,-74.91087390,-171.12969691
-172.27364446,-69.75251671,3.11799054,-5.31195779,44.14585271,-0.54570719
0.01171520,-1.37994811

>  <Name>
2o3v_lig

>  <RI>
0

>  <Rbt.Current_Directory>
/home/afrankz/demos/rdock_decoys_rna/rnas/2o3v

>  <Rbt.Executable>
rbdock ($Id: //depot/dev/client3/rdock/2013.1/src/exe/rbdock.cxx#4 $)

>  <Rbt.Library>
libRbt.so (2013.1, Build901 2013/11/27)

>  <Rbt.Parameter_File>
/export/apps/rDock/src/rDock_2013.1_src/data/scripts/dock_solv.prm

>  <Rbt.Receptor>
prm/pocket_docking_7.prm

>  <SCORE>
-13.589

>  <SCORE.INTER>
-12.0667

>  <SCORE.INTER.CONST>
1

>  <SCORE.INTER.POLAR>
-0.959166

>  <SCORE.INTER.ROT>
8

>  <SCORE.INTER.SOLV>
15.1085

>  <SCORE.INTER.VDW>
-18.8168

>  <SCORE.INTER.norm>
-0.344764

>  <SCORE.INTRA>
-1.52231

>  <SCORE.INTRA.DIHEDRAL>
-0.127478

>  <SCORE.INTRA.DIHEDRAL.0>
13.1227

>  <SCORE.INTRA.POLAR>
0

>  <SCORE.INTRA.POLAR.0>
0

>  <SCORE.INTRA.REPUL>
0

>  <SCORE.INTRA.REPUL.0>
0

>  <SCORE.INTRA.SOLV>
0.450664

>  <SCORE.INTRA.SOLV.lig_0>
-89.1587

>  <SCORE.INTRA.VDW>
-1.6839

>  <SCORE.INTRA.VDW.0>
-0.838383

>  <SCORE.INTRA.norm>
-0.0434944

>  <SCORE.RESTR>
0

>  <SCORE.RESTR.CAVITY>
0

>  <SCORE.RESTR.norm>
0

>  <SCORE.SYSTEM>
0

>  <SCORE.SYSTEM.CONST>
0

>  <SCORE.SYSTEM.DIHEDRAL>
0

>  <SCORE.SYSTEM.SOLV>
0

>  <SCORE.SYSTEM.norm>
0

>  <SCORE.heavy>
35

>  <SCORE.norm>
-0.388258

>  <RMSD>
6.569

$$$$
2o3v_lig
 OpenBabel02141814113D
libRbt.so/2013.1/901 2013/11/27
 35 37  0  0  0  0  0  0  0  0999 V2000
    7.0456   -4.9973   44.4259 C   0  0  2  0  0  0  0  0  0  0  0  0
    6.5972   -5.0563   45.8145 O   0  0  0  0  0  0  0  0  0  0  0  0
    8.6610   -4.7628   49.6331 C   0  0  2  0  0  0  0  0  0  0  0  0
    9.5031   -5.1205   50.8143 N   0  0  0  0  0  0  0  0  0  0  0  0
    1.3635  -10.8858   46.6044 C   0  0  2  0  0  0  0  0  0  0  0  0
    1.3169  -10.0020   47.7455 O   0  0  0  0  0  0  0  0  0  0  0  0
    5.7076   -5.0040   43.6209 C   0  0  2  0  0  0  0  0  0  0  0  0
    4.8496   -3.8560   43.9981 N   0  0  0  0  0  0  0  0  0  0  0  0
    7.4234   -5.7537   49.5241 C   0  0  0  0  0  0  0  0  0  0  0  0
    2.3587  -10.2619   45.5658 C   0  0  2  0  0  0  0  0  0  0  0  0
    3.7032  -10.0690   46.1659 N   0  0  0  0  0  0  0  0  0  0  0  0
    4.9078   -6.3629   43.8289 C   0  0  1  0  0  0  0  0  0  0  0  0
    3.6183   -6.3313   43.0910 O   0  0  0  0  0  0  0  0  0  0  0  0
    6.5514   -5.3591   48.2543 C   0  0  2  0  0  0  0  0  0  0  0  0
    5.3994   -6.2773   48.1277 N   0  0  0  0  0  0  0  0  0  0  0  0
    1.8102   -8.8856   44.9831 C   0  0  1  0  0  0  0  0  0  0  0  0
    2.6965   -8.3021   43.9938 O   0  0  0  0  0  0  0  0  0  0  0  0
    5.8739   -7.5541   43.4030 C   0  0  2  0  0  0  0  0  0  0  0  0
    5.2519   -8.8143   43.5787 O   0  0  0  0  0  0  0  0  0  0  0  0
    7.4419   -5.4257   46.9460 C   0  0  2  0  0  0  0  0  0  0  0  0
    0.4047   -9.1400   44.3518 C   0  0  2  0  0  0  0  0  0  0  0  0
   -0.1386   -7.9454   43.8253 O   0  0  0  0  0  0  0  0  0  0  0  0
    7.2158   -7.5003   44.2277 C   0  0  2  0  0  0  0  0  0  0  0  0
    7.8617   -6.1834   44.0465 O   0  0  0  0  0  0  0  0  0  0  0  0
    8.6530   -4.4585   47.0637 C   0  0  2  0  0  0  0  0  0  0  0  0
    9.4439   -4.6023   45.8492 O   0  0  0  0  0  0  0  0  0  0  0  0
   -0.5643   -9.7722   45.4291 C   0  0  2  0  0  0  0  0  0  0  0  0
    0.0201  -11.0172   45.9781 O   0  0  0  0  0  0  0  0  0  0  0  0
    8.1774   -8.6124   43.8113 C   0  0  0  0  0  0  0  0  0  0  0  0
    8.5463   -8.4838   42.4599 O   0  0  0  0  0  0  0  0  0  0  0  0
    9.5022   -4.8366   48.2998 C   0  0  1  0  0  0  0  0  0  0  0  0
   10.5906   -3.9410   48.3868 O   0  0  0  0  0  0  0  0  0  0  0  0
   -1.9358  -10.0789   44.8468 C   0  0  0  0  0  0  0  0  0  0  0  0
   -2.6905   -8.8981   44.7197 O   0  0  0  0  0  0  0  0  0  0  0  0
    2.4440   -6.8714   43.8729 C   0  0  0  0  0  0  0  0  0  0  0  0
  1  2  1  1  0  0  0
  1  7  1  0  0  0  0
  1 24  1  0  0  0  0
  3  4  1  1  0  0  0
  3  9  1  0  0  0  0
  3 31  1  0  0  0  0
  5  6  1  1  0  0  0
  5 10  1  0  0  0  0
  5 28  1  0  0  0  0
  7  8  1  1  0  0  0
  7 12  1  0  0  0  0
  9 14  1  0  0  0  0
 10 11  1  1  0  0  0
 10 16  1  0  0  0  0
 12 13  1  6  0  0  0
 12 18  1  0  0  0  0
 13 35  1  0  0  0  0
 14 15  1  6  0  0  0
 14 20  1  0  0  0  0
 16 17  1  6  0  0  0
 16 21  1  0  0  0  0
 17 35  1  0  0  0  0
 18 19  1  1  0  0  0
 18 23  1  0  0  0  0
 20  2  1  6  0  0  0
 20 25  1  0  0  0  0
 21 22  1  1  0  0  0
 21 27  1  0  0  0  0
 23 24  1  0  0  0  0
 23 29  1  6  0  0  0
 25 26  1  6  0  0  0
 25 31  1  0  0  0  0
 27 28  1  0  0  0  0
 27 33  1  6  0  0  0
 29 30  1  0  0  0  0
 31 32  1  1  0  0  0
 33 34  1  0  0  0  0
M  END
>  <CHROM.1>
162.93583974,-136.52538171,-68.80053322,-158.43386139,166.71715399,-179.92403320
61.85168802,-76.81469859,4.81741825,-7.20211957,45.60011432,-0.24042033,-0.46684236
-1.60799452

>  <Name>
2o3v_lig

>  <RI>
0

>  <Rbt.Current_Directory>
/home/afrankz/demos/rdock_decoys_rna/rnas/2o3v

>  <Rbt.Executable>
rbdock ($Id: //depot/dev/client3/rdock/2013.1/src/exe/rbdock.cxx#4 $)

>  <Rbt.Library>
libRbt.so (2013.1, Build901 2013/11/27)

>  <Rbt.Parameter_File>
/export/apps/rDock/src/rDock_2013.1_src/data/scripts/dock_solv.prm

>  <Rbt.Receptor>
prm/pocket_docking_7.prm

>  <SCORE>
-16.0652

>  <SCORE.INTER>
-13.7939

>  <SCORE.INTER.CONST>
1

>  <SCORE.INTER.POLAR>
-0.889779

>  <SCORE.INTER.ROT>
8

>  <SCORE.INTER.SOLV>
16.2268

>  <SCORE.INTER.VDW>
-20.5723

>  <SCORE.INTER.norm>
-0.394112

>  <SCORE.INTRA>
-2.27877

>  <SCORE.INTRA.DIHEDRAL>
-1.58177

>  <SCORE.INTRA.DIHEDRAL.0>
13.1227

>  <SCORE.INTRA.POLAR>
0

>  <SCORE.INTRA.POLAR.0>
0

>  <SCORE.INTRA.REPUL>
0

>  <SCORE.INTRA.REPUL.0>
0

>  <SCORE.INTRA.SOLV>
0.653648

>  <SCORE.INTRA.SOLV.lig_0>
-89.1587

>  <SCORE.INTRA.VDW>
-1.81471

>  <SCORE.INTRA.VDW.0>
-0.838383

>  <SCORE.INTRA.norm>
-0.0651077

>  <SCORE.RESTR>
0.00746131

>  <SCORE.RESTR.CAVITY>
0.00746131

>  <SCORE.RESTR.norm>
0.00021318

>  <SCORE.SYSTEM>
0

>  <SCORE.SYSTEM.CONST>
0

>  <SCORE.SYSTEM.DIHEDRAL>
0

>  <SCORE.SYSTEM.SOLV>
0

>  <SCORE.SYSTEM.norm>
0

>  <SCORE.heavy>
35

>  <SCORE.norm>
-0.459006

>  <RMSD>
6.574

$$$$
2o3v_lig
 OpenBabel02141814113D
libRbt.so/2013.1/901 2013/11/27
 35 37  0  0  0  0  0  0  0  0999 V2000
    2.4993   -3.7850   40.9892 C   0  0  2  0  0  0  0  0  0  0  0  0
    2.4967   -2.3697   40.6290 O   0  0  0  0  0  0  0  0  0  0  0  0
    4.5012    0.3332   37.8716 C   0  0  2  0  0  0  0  0  0  0  0  0
    5.5849    1.0602   37.1440 N   0  0  0  0  0  0  0  0  0  0  0  0
   -2.8091   -3.9528   45.6277 C   0  0  2  0  0  0  0  0  0  0  0  0
   -4.1508   -3.8278   46.1472 O   0  0  0  0  0  0  0  0  0  0  0  0
    1.0006   -4.1938   40.8305 C   0  0  2  0  0  0  0  0  0  0  0  0
    0.5228   -3.9523   39.4486 N   0  0  0  0  0  0  0  0  0  0  0  0
    4.5726    0.6587   39.4254 C   0  0  0  0  0  0  0  0  0  0  0  0
   -2.7583   -3.1811   44.2639 C   0  0  2  0  0  0  0  0  0  0  0  0
   -3.1478   -1.7592   44.4416 N   0  0  0  0  0  0  0  0  0  0  0  0
    0.0716   -3.4187   41.8628 C   0  0  1  0  0  0  0  0  0  0  0  0
   -1.3542   -3.7883   41.6658 O   0  0  0  0  0  0  0  0  0  0  0  0
    3.4179   -0.1351   40.1768 C   0  0  2  0  0  0  0  0  0  0  0  0
    3.4738    0.1451   41.6276 N   0  0  0  0  0  0  0  0  0  0  0  0
   -3.6786   -3.8737   43.1646 C   0  0  1  0  0  0  0  0  0  0  0  0
   -3.6247   -3.1988   41.8815 O   0  0  0  0  0  0  0  0  0  0  0  0
    0.6276   -3.7203   43.3235 C   0  0  2  0  0  0  0  0  0  0  0  0
   -0.1275   -3.0474   44.3149 O   0  0  0  0  0  0  0  0  0  0  0  0
    3.5766   -1.6902   39.9204 C   0  0  2  0  0  0  0  0  0  0  0  0
   -3.2240   -5.3588   43.0024 C   0  0  2  0  0  0  0  0  0  0  0  0
   -4.0162   -6.0297   42.0423 O   0  0  0  0  0  0  0  0  0  0  0  0
    2.1445   -3.3074   43.4344 C   0  0  2  0  0  0  0  0  0  0  0  0
    2.9305   -4.0074   42.3968 O   0  0  0  0  0  0  0  0  0  0  0  0
    3.5118   -1.9989   38.3982 C   0  0  2  0  0  0  0  0  0  0  0  0
    3.7041   -3.4335   38.2370 O   0  0  0  0  0  0  0  0  0  0  0  0
   -3.2857   -6.0977   44.3987 C   0  0  2  0  0  0  0  0  0  0  0  0
   -2.4591   -5.3805   45.3964 O   0  0  0  0  0  0  0  0  0  0  0  0
    2.7136   -3.6213   44.8173 C   0  0  0  0  0  0  0  0  0  0  0  0
    2.0803   -2.8544   45.8121 O   0  0  0  0  0  0  0  0  0  0  0  0
    4.6314   -1.2257   37.6628 C   0  0  1  0  0  0  0  0  0  0  0  0
    4.5470   -1.5186   36.2839 O   0  0  0  0  0  0  0  0  0  0  0  0
   -2.8091   -7.5388   44.2986 C   0  0  0  0  0  0  0  0  0  0  0  0
   -1.4415   -7.5820   43.9702 O   0  0  0  0  0  0  0  0  0  0  0  0
   -2.3052   -2.6144   41.6749 C   0  0  0  0  0  0  0  0  0  0  0  0
  1  2  1  1  0  0  0
  1  7  1  0  0  0  0
  1 24  1  0  0  0  0
  3  4  1  6  0  0  0
  3  9  1  0  0  0  0
  3 31  1  0  0  0  0
  5  6  1  6  0  0  0
  5 10  1  0  0  0  0
  5 28  1  0  0  0  0
  7  8  1  6  0  0  0
  7 12  1  0  0  0  0
  9 14  1  0  0  0  0
 10 11  1  1  0  0  0
 10 16  1  0  0  0  0
 12 13  1  1  0  0  0
 12 18  1  0  0  0  0
 13 35  1  0  0  0  0
 14 15  1  1  0  0  0
 14 20  1  0  0  0  0
 16 17  1  6  0  0  0
 16 21  1  0  0  0  0
 17 35  1  0  0  0  0
 18 19  1  1  0  0  0
 18 23  1  0  0  0  0
 20  2  1  1  0  0  0
 20 25  1  0  0  0  0
 21 22  1  6  0  0  0
 21 27  1  0  0  0  0
 23 24  1  0  0  0  0
 23 29  1  1  0  0  0
 25 26  1  1  0  0  0
 25 31  1  0  0  0  0
 27 28  1  0  0  0  0
 27 33  1  6  0  0  0
 29 30  1  0  0  0  0
 31 32  1  6  0  0  0
 33 34  1  0  0  0  0
M  END
>  <CHROM.1>
-144.72009904,-135.19791045,-163.14047211,32.07541314,62.23279773,-160.55765355
-64.49328399,65.57626342,0.46269370,-3.19058947,41.93334302,-0.58627854,0.53006715
1.52730347

>  <Name>
2o3v_lig

>  <RI>
0

>  <Rbt.Current_Directory>
/home/afrankz/demos/rdock_decoys_rna/rnas/2o3v

>  <Rbt.Executable>
rbdock ($Id: //depot/dev/client3/rdock/2013.1/src/exe/rbdock.cxx#4 $)

>  <Rbt.Library>
libRbt.so (2013.1, Build901 2013/11/27)

>  <Rbt.Parameter_File>
/export/apps/rDock/src/rDock_2013.1_src/data/scripts/dock_solv.prm

>  <Rbt.Receptor>
prm/blind_docking_100.prm

>  <SCORE>
2.33065

>  <SCORE.INTER>
-3.58493

>  <SCORE.INTER.CONST>
1

>  <SCORE.INTER.POLAR>
-0.114617

>  <SCORE.INTER.ROT>
8

>  <SCORE.INTER.SOLV>
20.1017

>  <SCORE.INTER.VDW>
-17.6418

>  <SCORE.INTER.norm>
-0.102427

>  <SCORE.INTRA>
5.08278

>  <SCORE.INTRA.DIHEDRAL>
4.03868

>  <SCORE.INTRA.DIHEDRAL.0>
13.1227

>  <SCORE.INTRA.POLAR>
0

>  <SCORE.INTRA.POLAR.0>
0

>  <SCORE.INTRA.REPUL>
0

>  <SCORE.INTRA.REPUL.0>
0

>  <SCORE.INTRA.SOLV>
3.49954

>  <SCORE.INTRA.SOLV.lig_0>
-89.1587

>  <SCORE.INTRA.VDW>
1.31367

>  <SCORE.INTRA.VDW.0>
-0.838383

>  <SCORE.INTRA.norm>
0.145222

>  <SCORE.RESTR>
0.832802

>  <SCORE.RESTR.CAVITY>
0.832802

>  <SCORE.RESTR.norm>
0.0237943

>  <SCORE.SYSTEM>
0

>  <SCORE.SYSTEM.CONST>
0

>  <SCORE.SYSTEM.DIHEDRAL>
0

>  <SCORE.SYSTEM.SOLV>
0

>  <SCORE.SYSTEM.norm>
0

>  <SCORE.heavy>
35

>  <SCORE.norm>
0.0665901

>  <RMSD>
6.631

$$$$
2o3v_lig
 OpenBabel02141814113D
libRbt.so/2013.1/901 2013/11/27
 35 37  0  0  0  0  0  0  0  0999 V2000
    6.7721   -4.9320   44.4062 C   0  0  2  0  0  0  0  0  0  0  0  0
    6.1853   -5.1453   45.7265 O   0  0  0  0  0  0  0  0  0  0  0  0
    7.7392   -5.2586   49.7885 C   0  0  2  0  0  0  0  0  0  0  0  0
    8.4653   -5.7193   51.0102 N   0  0  0  0  0  0  0  0  0  0  0  0
   -1.2624   -2.9701   43.9058 C   0  0  2  0  0  0  0  0  0  0  0  0
   -2.3283   -3.1144   42.9421 O   0  0  0  0  0  0  0  0  0  0  0  0
    5.5222   -4.8155   43.4776 C   0  0  2  0  0  0  0  0  0  0  0  0
    4.6408   -3.7024   43.9025 N   0  0  0  0  0  0  0  0  0  0  0  0
    6.6274   -6.3186   49.3813 C   0  0  0  0  0  0  0  0  0  0  0  0
    0.0483   -3.5201   43.2442 C   0  0  2  0  0  0  0  0  0  0  0  0
    0.3497   -2.8006   41.9807 N   0  0  0  0  0  0  0  0  0  0  0  0
    4.6933   -6.1724   43.4411 C   0  0  1  0  0  0  0  0  0  0  0  0
    3.4853   -6.0268   42.5880 O   0  0  0  0  0  0  0  0  0  0  0  0
    5.8786   -5.8108   48.0737 C   0  0  2  0  0  0  0  0  0  0  0  0
    4.8463   -6.7897   47.6705 N   0  0  0  0  0  0  0  0  0  0  0  0
   -0.0423   -5.0876   42.9803 C   0  0  1  0  0  0  0  0  0  0  0  0
    1.1711   -5.6298   42.3987 O   0  0  0  0  0  0  0  0  0  0  0  0
    5.6868   -7.3248   42.9735 C   0  0  2  0  0  0  0  0  0  0  0  0
    5.0389   -8.5837   42.9345 O   0  0  0  0  0  0  0  0  0  0  0  0
    6.9212   -5.6099   46.8981 C   0  0  2  0  0  0  0  0  0  0  0  0
   -0.3458   -5.8013   44.3357 C   0  0  2  0  0  0  0  0  0  0  0  0
   -0.4483   -7.2007   44.1602 O   0  0  0  0  0  0  0  0  0  0  0  0
    6.9390   -7.3971   43.9277 C   0  0  2  0  0  0  0  0  0  0  0  0
    7.6117   -6.0817   43.9704 O   0  0  0  0  0  0  0  0  0  0  0  0
    8.0081   -4.5766   47.3070 C   0  0  2  0  0  0  0  0  0  0  0  0
    8.9487   -4.4738   46.1999 O   0  0  0  0  0  0  0  0  0  0  0  0
   -1.6700   -5.2150   44.9698 C   0  0  2  0  0  0  0  0  0  0  0  0
   -1.5525   -3.7487   45.1402 O   0  0  0  0  0  0  0  0  0  0  0  0
    7.9277   -8.4720   43.4786 C   0  0  0  0  0  0  0  0  0  0  0  0
    8.3740   -8.2336   42.1660 O   0  0  0  0  0  0  0  0  0  0  0  0
    8.7368   -5.0650   48.5809 C   0  0  1  0  0  0  0  0  0  0  0  0
    9.7131   -4.1077   48.9335 O   0  0  0  0  0  0  0  0  0  0  0  0
   -1.9832   -5.8507   46.3158 C   0  0  0  0  0  0  0  0  0  0  0  0
   -2.2332   -7.2269   46.1627 O   0  0  0  0  0  0  0  0  0  0  0  0
    2.3013   -5.4062   43.2918 C   0  0  0  0  0  0  0  0  0  0  0  0
  1  2  1  1  0  0  0
  1  7  1  0  0  0  0
  1 24  1  0  0  0  0
  3  4  1  1  0  0  0
  3  9  1  0  0  0  0
  3 31  1  0  0  0  0
  5  6  1  6  0  0  0
  5 10  1  0  0  0  0
  5 28  1  0  0  0  0
  7  8  1  1  0  0  0
  7 12  1  0  0  0  0
  9 14  1  0  0  0  0
 10 11  1  6  0  0  0
 10 16  1  0  0  0  0
 12 13  1  6  0  0  0
 12 18  1  0  0  0  0
 13 35  1  0  0  0  0
 14 15  1  6  0  0  0
 14 20  1  0  0  0  0
 16 17  1  1  0  0  0
 16 21  1  0  0  0  0
 17 35  1  0  0  0  0
 18 19  1  1  0  0  0
 18 23  1  0  0  0  0
 20  2  1  6  0  0  0
 20 25  1  0  0  0  0
 21 22  1  6  0  0  0
 21 27  1  0  0  0  0
 23 24  1  0  0  0  0
 23 29  1  6  0  0  0
 25 26  1  6  0  0  0
 25 31  1  0  0  0  0
 27 28  1  0  0  0  0
 27 33  1  1  0  0  0
 29 30  1  0  0  0  0
 31 32  1  1  0  0  0
 33 34  1  0  0  0  0
M  END
>  <CHROM.1>
165.65750715,-83.43394469,-167.69616232,60.18200179,179.22826939,-175.50325187
58.47724883,-63.53848151,3.99817288,-5.56762519,45.06966993,-0.29582578,0.17975496
-1.81368024

>  <Name>
2o3v_lig

>  <RI>
0

>  <Rbt.Current_Directory>
/home/afrankz/demos/rdock_decoys_rna/rnas/2o3v

>  <Rbt.Executable>
rbdock ($Id: //depot/dev/client3/rdock/2013.1/src/exe/rbdock.cxx#4 $)

>  <Rbt.Library>
libRbt.so (2013.1, Build901 2013/11/27)

>  <Rbt.Parameter_File>
/export/apps/rDock/src/rDock_2013.1_src/data/scripts/dock_solv.prm

>  <Rbt.Receptor>
prm/pocket_docking_6.prm

>  <SCORE>
-18.1044

>  <SCORE.INTER>
-14.5504

>  <SCORE.INTER.CONST>
1

>  <SCORE.INTER.POLAR>
-1.45493

>  <SCORE.INTER.ROT>
8

>  <SCORE.INTER.SOLV>
16.0016

>  <SCORE.INTER.VDW>
-19.1177

>  <SCORE.INTER.norm>
-0.415727

>  <SCORE.INTRA>
-4.1529

>  <SCORE.INTRA.DIHEDRAL>
-8.85072

>  <SCORE.INTRA.DIHEDRAL.0>
13.1227

>  <SCORE.INTRA.POLAR>
0

>  <SCORE.INTRA.POLAR.0>
0

>  <SCORE.INTRA.REPUL>
0

>  <SCORE.INTRA.REPUL.0>
0

>  <SCORE.INTRA.SOLV>
0.21252

>  <SCORE.INTRA.SOLV.lig_0>
-89.1587

>  <SCORE.INTRA.VDW>
0.166199

>  <SCORE.INTRA.VDW.0>
-0.838383

>  <SCORE.INTRA.norm>
-0.118654

>  <SCORE.RESTR>
0.5989

>  <SCORE.RESTR.CAVITY>
0.5989

>  <SCORE.RESTR.norm>
0.0171114

>  <SCORE.SYSTEM>
0

>  <SCORE.SYSTEM.CONST>
0

>  <SCORE.SYSTEM.DIHEDRAL>
0

>  <SCORE.SYSTEM.SOLV>
0

>  <SCORE.SYSTEM.norm>
0

>  <SCORE.heavy>
35

>  <SCORE.norm>
-0.51727

>  <RMSD>
6.688

$$$$
2o3v_lig
 OpenBabel02141814113D
libRbt.so/2013.1/901 2013/11/27
 35 37  0  0  0  0  0  0  0  0999 V2000
    4.0374   -3.4196   43.4720 C   0  0  2  0  0  0  0  0  0  0  0  0
    3.1685   -4.5721   43.2493 O   0  0  0  0  0  0  0  0  0  0  0  0
    4.9999   -8.4838   43.7712 C   0  0  2  0  0  0  0  0  0  0  0  0
    5.4728   -9.8714   43.4829 N   0  0  0  0  0  0  0  0  0  0  0  0
   -2.9075   -4.3512   41.2986 C   0  0  2  0  0  0  0  0  0  0  0  0
   -1.7343   -4.8084   40.5914 O   0  0  0  0  0  0  0  0  0  0  0  0
    3.0412   -2.3087   43.9324 C   0  0  2  0  0  0  0  0  0  0  0  0
    2.3064   -2.7198   45.1519 N   0  0  0  0  0  0  0  0  0  0  0  0
    3.4178   -8.4079   43.6428 C   0  0  0  0  0  0  0  0  0  0  0  0
   -2.6796   -2.8436   41.6637 C   0  0  2  0  0  0  0  0  0  0  0  0
   -2.4224   -2.0336   40.4460 N   0  0  0  0  0  0  0  0  0  0  0  0
    2.0073   -1.9383   42.7820 C   0  0  1  0  0  0  0  0  0  0  0  0
    1.0416   -0.9125   43.2546 O   0  0  0  0  0  0  0  0  0  0  0  0
    2.9423   -6.9204   43.9426 C   0  0  2  0  0  0  0  0  0  0  0  0
    1.4721   -6.8251   43.8170 N   0  0  0  0  0  0  0  0  0  0  0  0
   -1.4900   -2.6672   42.7070 C   0  0  1  0  0  0  0  0  0  0  0  0
   -1.2787   -1.2835   43.0885 O   0  0  0  0  0  0  0  0  0  0  0  0
    2.8517   -1.5001   41.5058 C   0  0  2  0  0  0  0  0  0  0  0  0
    2.0101   -1.1730   40.4147 O   0  0  0  0  0  0  0  0  0  0  0  0
    3.6370   -5.9176   42.9323 C   0  0  2  0  0  0  0  0  0  0  0  0
   -1.8104   -3.5235   43.9730 C   0  0  2  0  0  0  0  0  0  0  0  0
   -0.7789   -3.4137   44.9340 O   0  0  0  0  0  0  0  0  0  0  0  0
    3.8528   -2.6424   41.0855 C   0  0  2  0  0  0  0  0  0  0  0  0
    4.7276   -2.9853   42.2264 O   0  0  0  0  0  0  0  0  0  0  0  0
    5.1839   -6.0028   43.0601 C   0  0  2  0  0  0  0  0  0  0  0  0
    5.7522   -5.0885   42.0792 O   0  0  0  0  0  0  0  0  0  0  0  0
   -2.0372   -5.0327   43.5604 C   0  0  2  0  0  0  0  0  0  0  0  0
   -3.1134   -5.1324   42.5482 O   0  0  0  0  0  0  0  0  0  0  0  0
    4.7028   -2.2321   39.8839 C   0  0  0  0  0  0  0  0  0  0  0  0
    3.9164   -2.1134   38.7236 O   0  0  0  0  0  0  0  0  0  0  0  0
    5.6505   -7.4490   42.7727 C   0  0  1  0  0  0  0  0  0  0  0  0
    7.0559   -7.5004   42.9006 O   0  0  0  0  0  0  0  0  0  0  0  0
   -2.3961   -5.8995   44.7579 C   0  0  0  0  0  0  0  0  0  0  0  0
   -3.5432   -5.3986   45.4005 O   0  0  0  0  0  0  0  0  0  0  0  0
   -0.1535   -0.7237   42.3499 C   0  0  0  0  0  0  0  0  0  0  0  0
  1  2  1  6  0  0  0
  1  7  1  0  0  0  0
  1 24  1  0  0  0  0
  3  4  1  6  0  0  0
  3  9  1  0  0  0  0
  3 31  1  0  0  0  0
  5  6  1  1  0  0  0
  5 10  1  0  0  0  0
  5 28  1  0  0  0  0
  7  8  1  1  0  0  0
  7 12  1  0  0  0  0
  9 14  1  0  0  0  0
 10 11  1  6  0  0  0
 10 16  1  0  0  0  0
 12 13  1  1  0  0  0
 12 18  1  0  0  0  0
 13 35  1  0  0  0  0
 14 15  1  6  0  0  0
 14 20  1  0  0  0  0
 16 17  1  1  0  0  0
 16 21  1  0  0  0  0
 17 35  1  0  0  0  0
 18 19  1  6  0  0  0
 18 23  1  0  0  0  0
 20  2  1  1  0  0  0
 20 25  1  0  0  0  0
 21 22  1  1  0  0  0
 21 27  1  0  0  0  0
 23 24  1  0  0  0  0
 23 29  1  6  0  0  0
 25 26  1  6  0  0  0
 25 31  1  0  0  0  0
 27 28  1  0  0  0  0
 27 33  1  1  0  0  0
 29 30  1  0  0  0  0
 31 32  1  1  0  0  0
 33 34  1  0  0  0  0
M  END
>  <CHROM.1>
-173.54695015,-167.07540358,109.31917948,-100.22368319,-94.04638541,128.74173899
-67.70208538,57.12723365,1.61092378,-4.20277352,42.70949824,-0.37477779,0.17760996
-0.42781614

>  <Name>
2o3v_lig

>  <RI>
0

>  <Rbt.Current_Directory>
/home/afrankz/demos/rdock_decoys_rna/rnas/2o3v

>  <Rbt.Executable>
rbdock ($Id: //depot/dev/client3/rdock/2013.1/src/exe/rbdock.cxx#4 $)

>  <Rbt.Library>
libRbt.so (2013.1, Build901 2013/11/27)

>  <Rbt.Parameter_File>
/export/apps/rDock/src/rDock_2013.1_src/data/scripts/dock_solv.prm

>  <Rbt.Receptor>
prm/blind_docking_80.prm

>  <SCORE>
4.08624

>  <SCORE.INTER>
-7.52617

>  <SCORE.INTER.CONST>
1

>  <SCORE.INTER.POLAR>
-0.620655

>  <SCORE.INTER.ROT>
8

>  <SCORE.INTER.SOLV>
20.1384

>  <SCORE.INTER.VDW>
-18.5947

>  <SCORE.INTER.norm>
-0.215033

>  <SCORE.INTRA>
6.29696

>  <SCORE.INTRA.DIHEDRAL>
11.4211

>  <SCORE.INTRA.DIHEDRAL.0>
13.1227

>  <SCORE.INTRA.POLAR>
0

>  <SCORE.INTRA.POLAR.0>
0

>  <SCORE.INTRA.REPUL>
0

>  <SCORE.INTRA.REPUL.0>
0

>  <SCORE.INTRA.SOLV>
2.01789

>  <SCORE.INTRA.SOLV.lig_0>
-89.1587

>  <SCORE.INTRA.VDW>
-0.422558

>  <SCORE.INTRA.VDW.0>
-0.838383

>  <SCORE.INTRA.norm>
0.179913

>  <SCORE.RESTR>
5.31545

>  <SCORE.RESTR.CAVITY>
5.31545

>  <SCORE.RESTR.norm>
0.15187

>  <SCORE.SYSTEM>
0

>  <SCORE.SYSTEM.CONST>
0

>  <SCORE.SYSTEM.DIHEDRAL>
0

>  <SCORE.SYSTEM.SOLV>
0

>  <SCORE.SYSTEM.norm>
0

>  <SCORE.heavy>
35

>  <SCORE.norm>
0.11675

>  <RMSD>
6.728

$$$$
2o3v_lig
 OpenBabel02141814113D
libRbt.so/2013.1/901 2013/11/27
 35 37  0  0  0  0  0  0  0  0999 V2000
    7.3503   -5.1586   44.4421 C   0  0  2  0  0  0  0  0  0  0  0  0
    6.8425   -5.0777   45.8090 O   0  0  0  0  0  0  0  0  0  0  0  0
    8.6620   -4.5897   49.7305 C   0  0  2  0  0  0  0  0  0  0  0  0
    9.4345   -4.8833   50.9751 N   0  0  0  0  0  0  0  0  0  0  0  0
   -1.3641   -4.8810   44.8581 C   0  0  2  0  0  0  0  0  0  0  0  0
   -0.8697   -3.5912   45.2794 O   0  0  0  0  0  0  0  0  0  0  0  0
    6.0481   -5.2474   43.5849 C   0  0  2  0  0  0  0  0  0  0  0  0
    5.1788   -4.0679   43.8073 N   0  0  0  0  0  0  0  0  0  0  0  0
    7.4480   -5.6054   49.5885 C   0  0  0  0  0  0  0  0  0  0  0  0
   -0.1241   -5.7517   44.4547 C   0  0  2  0  0  0  0  0  0  0  0  0
    0.8320   -5.8727   45.5844 N   0  0  0  0  0  0  0  0  0  0  0  0
    5.2353   -6.5790   43.8940 C   0  0  1  0  0  0  0  0  0  0  0  0
    3.9788   -6.6229   43.1017 O   0  0  0  0  0  0  0  0  0  0  0  0
    6.6505   -5.2791   48.2521 C   0  0  2  0  0  0  0  0  0  0  0  0
    5.5219   -6.2215   48.0946 N   0  0  0  0  0  0  0  0  0  0  0  0
    0.6096   -5.1656   43.1691 C   0  0  1  0  0  0  0  0  0  0  0  0
    1.7422   -5.9712   42.7532 O   0  0  0  0  0  0  0  0  0  0  0  0
    6.2145   -7.8063   43.6321 C   0  0  2  0  0  0  0  0  0  0  0  0
    5.5810   -9.0429   43.9068 O   0  0  0  0  0  0  0  0  0  0  0  0
    7.6210   -5.3851   47.0046 C   0  0  2  0  0  0  0  0  0  0  0  0
   -0.4288   -5.0700   42.0066 C   0  0  2  0  0  0  0  0  0  0  0  0
    0.1664   -4.5436   40.8369 O   0  0  0  0  0  0  0  0  0  0  0  0
    7.5199   -7.6687   44.5044 C   0  0  2  0  0  0  0  0  0  0  0  0
    8.1777   -6.3762   44.2195 O   0  0  0  0  0  0  0  0  0  0  0  0
    8.8083   -4.3931   47.1547 C   0  0  2  0  0  0  0  0  0  0  0  0
    9.6747   -4.5739   45.9981 O   0  0  0  0  0  0  0  0  0  0  0  0
   -1.6623   -4.1891   42.4559 C   0  0  2  0  0  0  0  0  0  0  0  0
   -2.2705   -4.7462   43.6858 O   0  0  0  0  0  0  0  0  0  0  0  0
    8.4946   -8.8163   44.2439 C   0  0  0  0  0  0  0  0  0  0  0  0
    8.1394   -9.9602   44.9814 O   0  0  0  0  0  0  0  0  0  0  0  0
    9.5849   -4.7046   48.4554 C   0  0  1  0  0  0  0  0  0  0  0  0
   10.6527   -3.7877   48.5704 O   0  0  0  0  0  0  0  0  0  0  0  0
   -2.7229   -4.1033   41.3689 C   0  0  0  0  0  0  0  0  0  0  0  0
   -3.7951   -3.2961   41.7917 O   0  0  0  0  0  0  0  0  0  0  0  0
    2.8764   -5.7412   43.6397 C   0  0  0  0  0  0  0  0  0  0  0  0
  1  2  1  1  0  0  0
  1  7  1  0  0  0  0
  1 24  1  0  0  0  0
  3  4  1  1  0  0  0
  3  9  1  0  0  0  0
  3 31  1  0  0  0  0
  5  6  1  6  0  0  0
  5 10  1  0  0  0  0
  5 28  1  0  0  0  0
  7  8  1  1  0  0  0
  7 12  1  0  0  0  0
  9 14  1  0  0  0  0
 10 11  1  1  0  0  0
 10 16  1  0  0  0  0
 12 13  1  6  0  0  0
 12 18  1  0  0  0  0
 13 35  1  0  0  0  0
 14 15  1  6  0  0  0
 14 20  1  0  0  0  0
 16 17  1  6  0  0  0
 16 21  1  0  0  0  0
 17 35  1  0  0  0  0
 18 19  1  1  0  0  0
 18 23  1  0  0  0  0
 20  2  1  6  0  0  0
 20 25  1  0  0  0  0
 21 22  1  6  0  0  0
 21 27  1  0  0  0  0
 23 24  1  0  0  0  0
 23 29  1  6  0  0  0
 25 26  1  6  0  0  0
 25 31  1  0  0  0  0
 27 28  1  0  0  0  0
 27 33  1  6  0  0  0
 29 30  1  0  0  0  0
 31 32  1  1  0  0  0
 33 34  1  0  0  0  0
M  END
>  <CHROM.1>
160.23129156,-77.04139281,-178.07173851,-76.09357112,-179.75324988,-175.48206209
-81.86684800,-179.04859943,4.42224033,-5.57135329,44.98206697,-0.29464516
0.33054022,-2.15880585

>  <Name>
2o3v_lig

>  <RI>
0

>  <Rbt.Current_Directory>
/home/afrankz/demos/rdock_decoys_rna/rnas/2o3v

>  <Rbt.Executable>
rbdock ($Id: //depot/dev/client3/rdock/2013.1/src/exe/rbdock.cxx#4 $)

>  <Rbt.Library>
libRbt.so (2013.1, Build901 2013/11/27)

>  <Rbt.Parameter_File>
/export/apps/rDock/src/rDock_2013.1_src/data/scripts/dock_solv.prm

>  <Rbt.Receptor>
prm/pocket_docking_8.prm

>  <SCORE>
-19.0909

>  <SCORE.INTER>
-14.8013

>  <SCORE.INTER.CONST>
1

>  <SCORE.INTER.POLAR>
-1.74369

>  <SCORE.INTER.ROT>
8

>  <SCORE.INTER.SOLV>
15.3046

>  <SCORE.INTER.VDW>
-18.0901

>  <SCORE.INTER.norm>
-0.422894

>  <SCORE.INTRA>
-4.28959

>  <SCORE.INTRA.DIHEDRAL>
-7.12032

>  <SCORE.INTRA.DIHEDRAL.0>
13.1227

>  <SCORE.INTRA.POLAR>
0

>  <SCORE.INTRA.POLAR.0>
0

>  <SCORE.INTRA.REPUL>
0

>  <SCORE.INTRA.REPUL.0>
0

>  <SCORE.INTRA.SOLV>
0.494251

>  <SCORE.INTRA.SOLV.lig_0>
-89.1587

>  <SCORE.INTRA.VDW>
-0.976552

>  <SCORE.INTRA.VDW.0>
-0.838383

>  <SCORE.INTRA.norm>
-0.12256

>  <SCORE.RESTR>
0

>  <SCORE.RESTR.CAVITY>
0

>  <SCORE.RESTR.norm>
0

>  <SCORE.SYSTEM>
0

>  <SCORE.SYSTEM.CONST>
0

>  <SCORE.SYSTEM.DIHEDRAL>
0

>  <SCORE.SYSTEM.SOLV>
0

>  <SCORE.SYSTEM.norm>
0

>  <SCORE.heavy>
35

>  <SCORE.norm>
-0.545454

>  <RMSD>
6.746

$$$$
2o3v_lig
 OpenBabel02141814113D
libRbt.so/2013.1/901 2013/11/27
 35 37  0  0  0  0  0  0  0  0999 V2000
   -0.5812   -5.0723   41.9770 C   0  0  2  0  0  0  0  0  0  0  0  0
    0.1214   -3.9326   42.5602 O   0  0  0  0  0  0  0  0  0  0  0  0
    3.3890   -1.4447   41.1249 C   0  0  2  0  0  0  0  0  0  0  0  0
    4.7678   -0.9892   40.7733 N   0  0  0  0  0  0  0  0  0  0  0  0
   -4.0900    1.0790   46.1691 C   0  0  2  0  0  0  0  0  0  0  0  0
   -5.4587    1.4347   45.8766 O   0  0  0  0  0  0  0  0  0  0  0  0
   -1.9355   -4.4518   41.5089 C   0  0  2  0  0  0  0  0  0  0  0  0
   -1.7148   -3.3536   40.5385 N   0  0  0  0  0  0  0  0  0  0  0  0
    3.2859   -1.7191   42.6868 C   0  0  0  0  0  0  0  0  0  0  0  0
   -3.6641   -0.0330   45.1491 C   0  0  2  0  0  0  0  0  0  0  0  0
   -3.8215    0.4389   43.7500 N   0  0  0  0  0  0  0  0  0  0  0  0
   -2.7891   -3.9170   42.7397 C   0  0  1  0  0  0  0  0  0  0  0  0
   -4.0524   -3.2911   42.2699 O   0  0  0  0  0  0  0  0  0  0  0  0
    1.8144   -2.2129   43.0321 C   0  0  2  0  0  0  0  0  0  0  0  0
    1.7001   -2.4853   44.4810 N   0  0  0  0  0  0  0  0  0  0  0  0
   -4.4838   -1.3792   45.3745 C   0  0  1  0  0  0  0  0  0  0  0  0
   -4.0862   -2.4372   44.4650 O   0  0  0  0  0  0  0  0  0  0  0  0
   -2.9986   -5.1372   43.7400 C   0  0  2  0  0  0  0  0  0  0  0  0
   -3.7328   -4.7474   44.8868 O   0  0  0  0  0  0  0  0  0  0  0  0
    1.4772   -3.5229   42.2078 C   0  0  2  0  0  0  0  0  0  0  0  0
   -4.2772   -1.8435   46.8511 C   0  0  2  0  0  0  0  0  0  0  0  0
   -4.9936   -3.0341   47.1133 O   0  0  0  0  0  0  0  0  0  0  0  0
   -1.6095   -5.7418   44.1742 C   0  0  2  0  0  0  0  0  0  0  0  0
   -0.8430   -6.1444   42.9763 O   0  0  0  0  0  0  0  0  0  0  0  0
    1.5865   -3.2473   40.6819 C   0  0  2  0  0  0  0  0  0  0  0  0
    1.3041   -4.4989   39.9928 O   0  0  0  0  0  0  0  0  0  0  0  0
   -4.7135   -0.6936   47.8445 C   0  0  2  0  0  0  0  0  0  0  0  0
   -3.9624    0.5490   47.5536 O   0  0  0  0  0  0  0  0  0  0  0  0
   -1.7836   -6.9398   45.1065 C   0  0  0  0  0  0  0  0  0  0  0  0
   -2.4786   -6.5764   46.2743 O   0  0  0  0  0  0  0  0  0  0  0  0
    3.0155   -2.7632   40.3420 C   0  0  1  0  0  0  0  0  0  0  0  0
    3.0864   -2.5151   38.9536 O   0  0  0  0  0  0  0  0  0  0  0  0
   -4.4888   -1.0845   49.2973 C   0  0  0  0  0  0  0  0  0  0  0  0
   -3.2156   -0.6671   49.7268 O   0  0  0  0  0  0  0  0  0  0  0  0
   -4.5126   -2.1209   43.1073 C   0  0  0  0  0  0  0  0  0  0  0  0
  1  2  1  1  0  0  0
  1  7  1  0  0  0  0
  1 24  1  0  0  0  0
  3  4  1  1  0  0  0
  3  9  1  0  0  0  0
  3 31  1  0  0  0  0
  5  6  1  6  0  0  0
  5 10  1  0  0  0  0
  5 28  1  0  0  0  0
  7  8  1  6  0  0  0
  7 12  1  0  0  0  0
  9 14  1  0  0  0  0
 10 11  1  6  0  0  0
 10 16  1  0  0  0  0
 12 13  1  6  0  0  0
 12 18  1  0  0  0  0
 13 35  1  0  0  0  0
 14 15  1  1  0  0  0
 14 20  1  0  0  0  0
 16 17  1  6  0  0  0
 16 21  1  0  0  0  0
 17 35  1  0  0  0  0
 18 19  1  1  0  0  0
 18 23  1  0  0  0  0
 20  2  1  6  0  0  0
 20 25  1  0  0  0  0
 21 22  1  1  0  0  0
 21 27  1  0  0  0  0
 23 24  1  0  0  0  0
 23 29  1  1  0  0  0
 25 26  1  6  0  0  0
 25 31  1  0  0  0  0
 27 28  1  0  0  0  0
 27 33  1  1  0  0  0
 29 30  1  0  0  0  0
 31 32  1  6  0  0  0
 33 34  1  0  0  0  0
M  END
>  <CHROM.1>
-127.96398458,-146.08109036,-32.78365244,-69.82874457,-179.61395600,177.66212793
-59.61623605,91.83804762,-1.60922762,-2.71396481,43.90110465,0.43302895,-0.65110275
-2.82466558

>  <Name>
2o3v_lig

>  <RI>
0

>  <Rbt.Current_Directory>
/home/afrankz/demos/rdock_decoys_rna/rnas/2o3v

>  <Rbt.Executable>
rbdock ($Id: //depot/dev/client3/rdock/2013.1/src/exe/rbdock.cxx#4 $)

>  <Rbt.Library>
libRbt.so (2013.1, Build901 2013/11/27)

>  <Rbt.Parameter_File>
/export/apps/rDock/src/rDock_2013.1_src/data/scripts/dock_solv.prm

>  <Rbt.Receptor>
prm/blind_docking_60.prm

>  <SCORE>
7.29885

>  <SCORE.INTER>
0.111659

>  <SCORE.INTER.CONST>
1

>  <SCORE.INTER.POLAR>
0

>  <SCORE.INTER.ROT>
8

>  <SCORE.INTER.SOLV>
16.935

>  <SCORE.INTER.VDW>
-14.5039

>  <SCORE.INTER.norm>
0.00319026

>  <SCORE.INTRA>
4.8859

>  <SCORE.INTRA.DIHEDRAL>
4.58182

>  <SCORE.INTRA.DIHEDRAL.0>
13.1227

>  <SCORE.INTRA.POLAR>
0

>  <SCORE.INTRA.POLAR.0>
0

>  <SCORE.INTRA.REPUL>
0

>  <SCORE.INTRA.REPUL.0>
0

>  <SCORE.INTRA.SOLV>
2.44975

>  <SCORE.INTRA.SOLV.lig_0>
-89.1587

>  <SCORE.INTRA.VDW>
1.37012

>  <SCORE.INTRA.VDW.0>
-0.838383

>  <SCORE.INTRA.norm>
0.139597

>  <SCORE.RESTR>
2.30129

>  <SCORE.RESTR.CAVITY>
2.30129

>  <SCORE.RESTR.norm>
0.065751

>  <SCORE.SYSTEM>
0

>  <SCORE.SYSTEM.CONST>
0

>  <SCORE.SYSTEM.DIHEDRAL>
0

>  <SCORE.SYSTEM.SOLV>
0

>  <SCORE.SYSTEM.norm>
0

>  <SCORE.heavy>
35

>  <SCORE.norm>
0.208538

>  <RMSD>
6.831

$$$$
2o3v_lig
 OpenBabel02141814113D
libRbt.so/2013.1/901 2013/11/27
 35 37  0  0  0  0  0  0  0  0999 V2000
    6.3232   -5.6517   44.2165 C   0  0  2  0  0  0  0  0  0  0  0  0
    6.0696   -5.2953   45.6098 O   0  0  0  0  0  0  0  0  0  0  0  0
    8.5182   -4.6766   49.1523 C   0  0  2  0  0  0  0  0  0  0  0  0
    9.4219   -4.9514   50.3098 N   0  0  0  0  0  0  0  0  0  0  0  0
   -1.7769   -3.1688   42.6899 C   0  0  2  0  0  0  0  0  0  0  0  0
   -0.7285   -2.2192   42.9806 O   0  0  0  0  0  0  0  0  0  0  0  0
    5.0133   -5.2060   43.4927 C   0  0  2  0  0  0  0  0  0  0  0  0
    4.7639   -3.7572   43.6802 N   0  0  0  0  0  0  0  0  0  0  0  0
    7.1641   -5.4931   49.3102 C   0  0  0  0  0  0  0  0  0  0  0  0
   -1.2548   -4.5881   43.1038 C   0  0  2  0  0  0  0  0  0  0  0  0
   -0.8704   -4.6169   44.5378 N   0  0  0  0  0  0  0  0  0  0  0  0
    3.7551   -6.0370   43.9984 C   0  0  1  0  0  0  0  0  0  0  0  0
    2.5132   -5.5678   43.3306 O   0  0  0  0  0  0  0  0  0  0  0  0
    6.2266   -5.1923   48.0616 C   0  0  2  0  0  0  0  0  0  0  0  0
    4.9641   -5.9524   48.1832 N   0  0  0  0  0  0  0  0  0  0  0  0
   -0.0329   -5.0508   42.1940 C   0  0  1  0  0  0  0  0  0  0  0  0
    0.4492   -6.3763   42.5336 O   0  0  0  0  0  0  0  0  0  0  0  0
    4.0778   -7.5783   43.7663 C   0  0  2  0  0  0  0  0  0  0  0  0
    3.0167   -8.4032   44.2127 O   0  0  0  0  0  0  0  0  0  0  0  0
    6.9696   -5.5900   46.7204 C   0  0  2  0  0  0  0  0  0  0  0  0
   -0.4875   -5.0182   40.7003 C   0  0  2  0  0  0  0  0  0  0  0  0
    0.5648   -5.4111   39.8413 O   0  0  0  0  0  0  0  0  0  0  0  0
    5.4132   -7.9808   44.5001 C   0  0  2  0  0  0  0  0  0  0  0  0
    6.5188   -7.1165   44.0361 O   0  0  0  0  0  0  0  0  0  0  0  0
    8.2956   -4.7916   46.5770 C   0  0  2  0  0  0  0  0  0  0  0  0
    8.9401   -5.2360   45.3488 O   0  0  0  0  0  0  0  0  0  0  0  0
   -1.0097   -3.5736   40.3265 C   0  0  2  0  0  0  0  0  0  0  0  0
   -2.1048   -3.1714   41.2385 O   0  0  0  0  0  0  0  0  0  0  0  0
    5.7661   -9.4483   44.2622 C   0  0  0  0  0  0  0  0  0  0  0  0
    4.8800  -10.3000   44.9466 O   0  0  0  0  0  0  0  0  0  0  0  0
    9.2093   -5.0785   47.7914 C   0  0  1  0  0  0  0  0  0  0  0  0
   10.4022   -4.3383   47.6396 O   0  0  0  0  0  0  0  0  0  0  0  0
   -1.5053   -3.5045   38.8900 C   0  0  0  0  0  0  0  0  0  0  0  0
   -0.4370   -3.6877   37.9927 O   0  0  0  0  0  0  0  0  0  0  0  0
    1.2685   -6.3208   43.7381 C   0  0  0  0  0  0  0  0  0  0  0  0
  1  2  1  1  0  0  0
  1  7  1  0  0  0  0
  1 24  1  0  0  0  0
  3  4  1  1  0  0  0
  3  9  1  0  0  0  0
  3 31  1  0  0  0  0
  5  6  1  6  0  0  0
  5 10  1  0  0  0  0
  5 28  1  0  0  0  0
  7  8  1  1  0  0  0
  7 12  1  0  0  0  0
  9 14  1  0  0  0  0
 10 11  1  1  0  0  0
 10 16  1  0  0  0  0
 12 13  1  6  0  0  0
 12 18  1  0  0  0  0
 13 35  1  0  0  0  0
 14 15  1  1  0  0  0
 14 20  1  0  0  0  0
 16 17  1  1  0  0  0
 16 21  1  0  0  0  0
 17 35  1  0  0  0  0
 18 19  1  1  0  0  0
 18 23  1  0  0  0  0
 20  2  1  6  0  0  0
 20 25  1  0  0  0  0
 21 22  1  6  0  0  0
 21 27  1  0  0  0  0
 23 24  1  0  0  0  0
 23 29  1  6  0  0  0
 25 26  1  6  0  0  0
 25 31  1  0  0  0  0
 27 28  1  0  0  0  0
 27 33  1  6  0  0  0
 29 30  1  0  0  0  0
 31 32  1  6  0  0  0
 33 34  1  0  0  0  0
M  END
>  <CHROM.1>
175.82957052,179.07974951,-145.12369403,-77.61876808,-68.36160970,-173.08468289
-70.78747745,-66.34994293,3.69766206,-5.45085397,44.23055203,-0.14806617
0.62116572,-2.67134529

>  <Name>
2o3v_lig

>  <RI>
0

>  <Rbt.Current_Directory>
/home/afrankz/demos/rdock_decoys_rna/rnas/2o3v

>  <Rbt.Executable>
rbdock ($Id: //depot/dev/client3/rdock/2013.1/src/exe/rbdock.cxx#4 $)

>  <Rbt.Library>
libRbt.so (2013.1, Build901 2013/11/27)

>  <Rbt.Parameter_File>
/export/apps/rDock/src/rDock_2013.1_src/data/scripts/dock_solv.prm

>  <Rbt.Receptor>
prm/pocket_docking_8.prm

>  <SCORE>
-18.221

>  <SCORE.INTER>
-15.1046

>  <SCORE.INTER.CONST>
1

>  <SCORE.INTER.POLAR>
-1.82714

>  <SCORE.INTER.ROT>
8

>  <SCORE.INTER.SOLV>
15.697

>  <SCORE.INTER.VDW>
-18.1449

>  <SCORE.INTER.norm>
-0.431559

>  <SCORE.INTRA>
-3.12946

>  <SCORE.INTRA.DIHEDRAL>
-5.9344

>  <SCORE.INTRA.DIHEDRAL.0>
13.1227

>  <SCORE.INTRA.POLAR>
0

>  <SCORE.INTRA.POLAR.0>
0

>  <SCORE.INTRA.REPUL>
0

>  <SCORE.INTRA.REPUL.0>
0

>  <SCORE.INTRA.SOLV>
0.315754

>  <SCORE.INTRA.SOLV.lig_0>
-89.1587

>  <SCORE.INTRA.VDW>
-0.320142

>  <SCORE.INTRA.VDW.0>
-0.838383

>  <SCORE.INTRA.norm>
-0.0894133

>  <SCORE.RESTR>
0.0130697

>  <SCORE.RESTR.CAVITY>
0.0130697

>  <SCORE.RESTR.norm>
0.000373419

>  <SCORE.SYSTEM>
0

>  <SCORE.SYSTEM.CONST>
0

>  <SCORE.SYSTEM.DIHEDRAL>
0

>  <SCORE.SYSTEM.SOLV>
0

>  <SCORE.SYSTEM.norm>
0

>  <SCORE.heavy>
35

>  <SCORE.norm>
-0.520599

>  <RMSD>
6.904

$$$$
2o3v_lig
 OpenBabel02141814113D
libRbt.so/2013.1/901 2013/11/27
 35 37  0  0  0  0  0  0  0  0999 V2000
    2.8927   -8.7264   45.0570 C   0  0  2  0  0  0  0  0  0  0  0  0
    2.8610   -7.7577   46.1494 O   0  0  0  0  0  0  0  0  0  0  0  0
    5.5911   -6.6713   49.3578 C   0  0  2  0  0  0  0  0  0  0  0  0
    6.3853   -6.7435   50.6212 N   0  0  0  0  0  0  0  0  0  0  0  0
   -1.9575   -2.1990   40.6239 C   0  0  2  0  0  0  0  0  0  0  0  0
   -1.0440   -1.3691   41.3737 O   0  0  0  0  0  0  0  0  0  0  0  0
    1.9002   -8.1188   44.0157 C   0  0  2  0  0  0  0  0  0  0  0  0
    2.3275   -6.7634   43.5957 N   0  0  0  0  0  0  0  0  0  0  0  0
    4.0372   -6.7340   49.6847 C   0  0  0  0  0  0  0  0  0  0  0  0
   -2.3514   -3.4106   41.5379 C   0  0  2  0  0  0  0  0  0  0  0  0
   -2.9542   -2.9430   42.8118 N   0  0  0  0  0  0  0  0  0  0  0  0
    0.4172   -8.0610   44.5874 C   0  0  1  0  0  0  0  0  0  0  0  0
   -0.5024   -7.4396   43.5992 O   0  0  0  0  0  0  0  0  0  0  0  0
    3.2163   -6.6673   48.3245 C   0  0  2  0  0  0  0  0  0  0  0  0
    1.7663   -6.7360   48.6058 N   0  0  0  0  0  0  0  0  0  0  0  0
   -1.1025   -4.3538   41.8301 C   0  0  1  0  0  0  0  0  0  0  0  0
   -1.4458   -5.5025   42.6470 O   0  0  0  0  0  0  0  0  0  0  0  0
    0.0131   -9.5403   45.0139 C   0  0  2  0  0  0  0  0  0  0  0  0
   -1.2924   -9.5838   45.5613 O   0  0  0  0  0  0  0  0  0  0  0  0
    3.6406   -7.8650   47.3786 C   0  0  2  0  0  0  0  0  0  0  0  0
   -0.5120   -4.8309   40.4654 C   0  0  2  0  0  0  0  0  0  0  0  0
    0.6111   -5.6670   40.6632 O   0  0  0  0  0  0  0  0  0  0  0  0
    1.0479  -10.1193   46.0520 C   0  0  2  0  0  0  0  0  0  0  0  0
    2.4102  -10.0696   45.4808 O   0  0  0  0  0  0  0  0  0  0  0  0
    5.1625   -7.7995   47.0690 C   0  0  2  0  0  0  0  0  0  0  0  0
    5.4858   -8.9471   46.2327 O   0  0  0  0  0  0  0  0  0  0  0  0
   -0.1333   -3.5808   39.5747 C   0  0  2  0  0  0  0  0  0  0  0  0
   -1.3154   -2.7099   39.3826 O   0  0  0  0  0  0  0  0  0  0  0  0
    0.7034  -11.5537   46.4500 C   0  0  0  0  0  0  0  0  0  0  0  0
    1.6475  -12.0687   47.3569 O   0  0  0  0  0  0  0  0  0  0  0  0
    5.9648   -7.8606   48.3898 C   0  0  1  0  0  0  0  0  0  0  0  0
    7.3413   -7.7939   48.0816 O   0  0  0  0  0  0  0  0  0  0  0  0
    0.4068   -3.9969   38.2149 C   0  0  0  0  0  0  0  0  0  0  0  0
    1.6416   -4.6562   38.3577 O   0  0  0  0  0  0  0  0  0  0  0  0
   -0.2771   -5.9607   43.3883 C   0  0  0  0  0  0  0  0  0  0  0  0
  1  2  1  1  0  0  0
  1  7  1  0  0  0  0
  1 24  1  0  0  0  0
  3  4  1  1  0  0  0
  3  9  1  0  0  0  0
  3 31  1  0  0  0  0
  5  6  1  1  0  0  0
  5 10  1  0  0  0  0
  5 28  1  0  0  0  0
  7  8  1  1  0  0  0
  7 12  1  0  0  0  0
  9 14  1  0  0  0  0
 10 11  1  1  0  0  0
 10 16  1  0  0  0  0
 12 13  1  6  0  0  0
 12 18  1  0  0  0  0
 13 35  1  0  0  0  0
 14 15  1  1  0  0  0
 14 20  1  0  0  0  0
 16 17  1  1  0  0  0
 16 21  1  0  0  0  0
 17 35  1  0  0  0  0
 18 19  1  1  0  0  0
 18 23  1  0  0  0  0
 20  2  1  6  0  0  0
 20 25  1  0  0  0  0
 21 22  1  1  0  0  0
 21 27  1  0  0  0  0
 23 24  1  0  0  0  0
 23 29  1  6  0  0  0
 25 26  1  6  0  0  0
 25 31  1  0  0  0  0
 27 28  1  0  0  0  0
 27 33  1  6  0  0  0
 29 30  1  0  0  0  0
 31 32  1  6  0  0  0
 33 34  1  0  0  0  0
M  END
>  <CHROM.1>
-179.44837300,-69.52989697,-167.30465861,-153.54195055,-151.89153580,-175.67209643
178.87676120,-66.45570563,1.49336155,-6.72250983,44.46111594,0.88731914,0.65077617
2.59229642

>  <Name>
2o3v_lig

>  <RI>
0

>  <Rbt.Current_Directory>
/home/afrankz/demos/rdock_decoys_rna/rnas/2o3v

>  <Rbt.Executable>
rbdock ($Id: //depot/dev/client3/rdock/2013.1/src/exe/rbdock.cxx#4 $)

>  <Rbt.Library>
libRbt.so (2013.1, Build901 2013/11/27)

>  <Rbt.Parameter_File>
/export/apps/rDock/src/rDock_2013.1_src/data/scripts/dock_solv.prm

>  <Rbt.Receptor>
prm/pocket_docking_8.prm

>  <SCORE>
-18.2522

>  <SCORE.INTER>
-15.0731

>  <SCORE.INTER.CONST>
1

>  <SCORE.INTER.POLAR>
-2.5862

>  <SCORE.INTER.ROT>
8

>  <SCORE.INTER.SOLV>
11.9444

>  <SCORE.INTER.VDW>
-14.3428

>  <SCORE.INTER.norm>
-0.430659

>  <SCORE.INTRA>
-3.17915

>  <SCORE.INTRA.DIHEDRAL>
-5.44857

>  <SCORE.INTRA.DIHEDRAL.0>
13.1227

>  <SCORE.INTRA.POLAR>
0

>  <SCORE.INTRA.POLAR.0>
0

>  <SCORE.INTRA.REPUL>
0

>  <SCORE.INTRA.REPUL.0>
0

>  <SCORE.INTRA.SOLV>
0.164495

>  <SCORE.INTRA.SOLV.lig_0>
-89.1587

>  <SCORE.INTRA.VDW>
-0.537115

>  <SCORE.INTRA.VDW.0>
-0.838383

>  <SCORE.INTRA.norm>
-0.0908329

>  <SCORE.RESTR>
0

>  <SCORE.RESTR.CAVITY>
0

>  <SCORE.RESTR.norm>
0

>  <SCORE.SYSTEM>
0

>  <SCORE.SYSTEM.CONST>
0

>  <SCORE.SYSTEM.DIHEDRAL>
0

>  <SCORE.SYSTEM.SOLV>
0

>  <SCORE.SYSTEM.norm>
0

>  <SCORE.heavy>
35

>  <SCORE.norm>
-0.521492

>  <RMSD>
6.914

$$$$
2o3v_lig
 OpenBabel02141814113D
libRbt.so/2013.1/901 2013/11/27
 35 37  0  0  0  0  0  0  0  0999 V2000
   -3.0781   -6.8530   46.1269 C   0  0  2  0  0  0  0  0  0  0  0  0
   -1.7699   -7.3524   45.7121 O   0  0  0  0  0  0  0  0  0  0  0  0
    0.9177   -6.1434   48.9125 C   0  0  2  0  0  0  0  0  0  0  0  0
    2.1561   -5.9899   49.7341 N   0  0  0  0  0  0  0  0  0  0  0  0
  -10.3803   -7.6406   40.5756 C   0  0  2  0  0  0  0  0  0  0  0  0
  -10.8062   -8.1796   41.8459 O   0  0  0  0  0  0  0  0  0  0  0  0
   -4.0129   -7.2934   44.9562 C   0  0  2  0  0  0  0  0  0  0  0  0
   -3.9889   -8.7642   44.7756 N   0  0  0  0  0  0  0  0  0  0  0  0
    0.5166   -7.6776   48.8098 C   0  0  0  0  0  0  0  0  0  0  0  0
   -8.8324   -7.8640   40.4644 C   0  0  2  0  0  0  0  0  0  0  0  0
   -8.4914   -9.3036   40.5919 N   0  0  0  0  0  0  0  0  0  0  0  0
   -3.6165   -6.5786   43.5919 C   0  0  1  0  0  0  0  0  0  0  0  0
   -4.4887   -7.0443   42.4825 O   0  0  0  0  0  0  0  0  0  0  0  0
   -0.7955   -7.8141   47.9220 C   0  0  2  0  0  0  0  0  0  0  0  0
   -1.1799   -9.2370   47.8041 N   0  0  0  0  0  0  0  0  0  0  0  0
   -8.0382   -7.0092   41.5477 C   0  0  1  0  0  0  0  0  0  0  0  0
   -6.6001   -7.1712   41.4459 O   0  0  0  0  0  0  0  0  0  0  0  0
   -3.6661   -5.0079   43.8452 C   0  0  2  0  0  0  0  0  0  0  0  0
   -3.3013   -4.2837   42.6840 O   0  0  0  0  0  0  0  0  0  0  0  0
   -0.5399   -7.2024   46.4834 C   0  0  2  0  0  0  0  0  0  0  0  0
   -8.4168   -5.5051   41.3663 C   0  0  2  0  0  0  0  0  0  0  0  0
   -7.7466   -4.6957   42.3125 O   0  0  0  0  0  0  0  0  0  0  0  0
   -2.7216   -4.6102   45.0424 C   0  0  2  0  0  0  0  0  0  0  0  0
   -3.1011   -5.3697   46.2523 O   0  0  0  0  0  0  0  0  0  0  0  0
   -0.1423   -5.7037   46.5934 C   0  0  2  0  0  0  0  0  0  0  0  0
    0.1148   -5.2218   45.2433 O   0  0  0  0  0  0  0  0  0  0  0  0
   -9.9833   -5.3253   41.4808 C   0  0  2  0  0  0  0  0  0  0  0  0
  -10.6727   -6.1841   40.4908 O   0  0  0  0  0  0  0  0  0  0  0  0
   -2.7793   -3.1108   45.3309 C   0  0  0  0  0  0  0  0  0  0  0  0
   -4.0706   -2.7206   45.7296 O   0  0  0  0  0  0  0  0  0  0  0  0
    1.1319   -5.5660   47.4593 C   0  0  1  0  0  0  0  0  0  0  0  0
    1.4678   -4.1973   47.5479 O   0  0  0  0  0  0  0  0  0  0  0  0
  -10.4047   -3.8794   41.2669 C   0  0  0  0  0  0  0  0  0  0  0  0
   -9.9333   -3.0700   42.3169 O   0  0  0  0  0  0  0  0  0  0  0  0
   -5.9574   -6.7553   42.6865 C   0  0  0  0  0  0  0  0  0  0  0  0
  1  2  1  6  0  0  0
  1  7  1  0  0  0  0
  1 24  1  0  0  0  0
  3  4  1  1  0  0  0
  3  9  1  0  0  0  0
  3 31  1  0  0  0  0
  5  6  1  1  0  0  0
  5 10  1  0  0  0  0
  5 28  1  0  0  0  0
  7  8  1  6  0  0  0
  7 12  1  0  0  0  0
  9 14  1  0  0  0  0
 10 11  1  1  0  0  0
 10 16  1  0  0  0  0
 12 13  1  6  0  0  0
 12 18  1  0  0  0  0
 13 35  1  0  0  0  0
 14 15  1  6  0  0  0
 14 20  1  0  0  0  0
 16 17  1  6  0  0  0
 16 21  1  0  0  0  0
 17 35  1  0  0  0  0
 18 19  1  6  0  0  0
 18 23  1  0  0  0  0
 20  2  1  6  0  0  0
 20 25  1  0  0  0  0
 21 22  1  1  0  0  0
 21 27  1  0  0  0  0
 23 24  1  0  0  0  0
 23 29  1  1  0  0  0
 25 26  1  6  0  0  0
 25 31  1  0  0  0  0
 27 28  1  0  0  0  0
 27 33  1  6  0  0  0
 29 30  1  0  0  0  0
 31 32  1  1  0  0  0
 33 34  1  0  0  0  0
M  END
>  <CHROM.1>
-179.52635110,60.74697996,174.73452171,-161.04906485,176.86697389,55.47368850
62.71031066,-66.80952988,-4.41784623,-6.13921887,44.29238115,-0.01333236
0.58415988,3.14074286

>  <Name>
2o3v_lig

>  <RI>
0

>  <Rbt.Current_Directory>
/home/afrankz/demos/rdock_decoys_rna/rnas/2o3v

>  <Rbt.Executable>
rbdock ($Id: //depot/dev/client3/rdock/2013.1/src/exe/rbdock.cxx#4 $)

>  <Rbt.Library>
libRbt.so (2013.1, Build901 2013/11/27)

>  <Rbt.Parameter_File>
/export/apps/rDock/src/rDock_2013.1_src/data/scripts/dock_solv.prm

>  <Rbt.Receptor>
prm/pocket_docking_8.prm

>  <SCORE>
-10.8753

>  <SCORE.INTER>
-4.85623

>  <SCORE.INTER.CONST>
1

>  <SCORE.INTER.POLAR>
0

>  <SCORE.INTER.ROT>
8

>  <SCORE.INTER.SOLV>
11.5857

>  <SCORE.INTER.VDW>
-16.0327

>  <SCORE.INTER.norm>
-0.13875

>  <SCORE.INTRA>
-6.0191

>  <SCORE.INTRA.DIHEDRAL>
-10.9644

>  <SCORE.INTRA.DIHEDRAL.0>
13.1227

>  <SCORE.INTRA.POLAR>
0

>  <SCORE.INTRA.POLAR.0>
0

>  <SCORE.INTRA.REPUL>
0

>  <SCORE.INTRA.REPUL.0>
0

>  <SCORE.INTRA.SOLV>
0.474255

>  <SCORE.INTRA.SOLV.lig_0>
-89.1587

>  <SCORE.INTRA.VDW>
-0.774014

>  <SCORE.INTRA.VDW.0>
-0.838383

>  <SCORE.INTRA.norm>
-0.171974

>  <SCORE.RESTR>
0

>  <SCORE.RESTR.CAVITY>
0

>  <SCORE.RESTR.norm>
0

>  <SCORE.SYSTEM>
0

>  <SCORE.SYSTEM.CONST>
0

>  <SCORE.SYSTEM.DIHEDRAL>
0

>  <SCORE.SYSTEM.SOLV>
0

>  <SCORE.SYSTEM.norm>
0

>  <SCORE.heavy>
35

>  <SCORE.norm>
-0.310724

>  <RMSD>
6.976

$$$$
2o3v_lig
 OpenBabel02141814113D
libRbt.so/2013.1/901 2013/11/27
 35 37  0  0  0  0  0  0  0  0999 V2000
    3.7265   -2.5483   43.2984 C   0  0  2  0  0  0  0  0  0  0  0  0
    2.9489   -3.7805   43.2003 O   0  0  0  0  0  0  0  0  0  0  0  0
    4.9299   -7.6050   43.8137 C   0  0  2  0  0  0  0  0  0  0  0  0
    5.4938   -8.9623   43.5453 N   0  0  0  0  0  0  0  0  0  0  0  0
   -5.0152   -2.1890   42.5906 C   0  0  2  0  0  0  0  0  0  0  0  0
   -5.1758   -1.7054   41.2393 O   0  0  0  0  0  0  0  0  0  0  0  0
    2.6509   -1.4793   43.6708 C   0  0  2  0  0  0  0  0  0  0  0  0
    1.9638   -1.8288   44.9365 N   0  0  0  0  0  0  0  0  0  0  0  0
    3.3610   -7.6054   43.5611 C   0  0  0  0  0  0  0  0  0  0  0  0
   -3.6141   -1.7042   43.1009 C   0  0  2  0  0  0  0  0  0  0  0  0
   -3.5042   -0.2250   43.0306 N   0  0  0  0  0  0  0  0  0  0  0  0
    1.5787   -1.3007   42.5097 C   0  0  1  0  0  0  0  0  0  0  0  0
    0.5401   -0.3127   42.9017 O   0  0  0  0  0  0  0  0  0  0  0  0
    2.7885   -6.1488   43.8421 C   0  0  2  0  0  0  0  0  0  0  0  0
    1.3297   -6.1244   43.6014 N   0  0  0  0  0  0  0  0  0  0  0  0
   -2.4270   -2.3865   42.2885 C   0  0  1  0  0  0  0  0  0  0  0  0
   -1.1171   -1.9809   42.7623 O   0  0  0  0  0  0  0  0  0  0  0  0
    2.3721   -0.9212   41.1830 C   0  0  2  0  0  0  0  0  0  0  0  0
    1.4957   -0.7652   40.0815 O   0  0  0  0  0  0  0  0  0  0  0  0
    3.5087   -5.0954   42.9036 C   0  0  2  0  0  0  0  0  0  0  0  0
   -2.5757   -3.9368   42.4024 C   0  0  2  0  0  0  0  0  0  0  0  0
   -1.5503   -4.5986   41.6882 O   0  0  0  0  0  0  0  0  0  0  0  0
    3.4556   -2.0172   40.8534 C   0  0  2  0  0  0  0  0  0  0  0  0
    4.3670   -2.1817   42.0053 O   0  0  0  0  0  0  0  0  0  0  0  0
    5.0430   -5.1060   43.1527 C   0  0  2  0  0  0  0  0  0  0  0  0
    5.6395   -4.1478   42.2323 O   0  0  0  0  0  0  0  0  0  0  0  0
   -4.0010   -4.3818   41.8829 C   0  0  2  0  0  0  0  0  0  0  0  0
   -5.0647   -3.6756   42.6329 O   0  0  0  0  0  0  0  0  0  0  0  0
    4.2577   -1.6579   39.6035 C   0  0  0  0  0  0  0  0  0  0  0  0
    4.6526   -0.3079   39.6254 O   0  0  0  0  0  0  0  0  0  0  0  0
    5.6036   -6.5222   42.8839 C   0  0  1  0  0  0  0  0  0  0  0  0
    6.9954   -6.5060   43.1223 O   0  0  0  0  0  0  0  0  0  0  0  0
   -4.2090   -5.8829   42.0154 C   0  0  0  0  0  0  0  0  0  0  0  0
   -3.6354   -6.3545   43.2106 O   0  0  0  0  0  0  0  0  0  0  0  0
   -0.8358   -0.6102   42.3535 C   0  0  0  0  0  0  0  0  0  0  0  0
  1  2  1  6  0  0  0
  1  7  1  0  0  0  0
  1 24  1  0  0  0  0
  3  4  1  6  0  0  0
  3  9  1  0  0  0  0
  3 31  1  0  0  0  0
  5  6  1  6  0  0  0
  5 10  1  0  0  0  0
  5 28  1  0  0  0  0
  7  8  1  1  0  0  0
  7 12  1  0  0  0  0
  9 14  1  0  0  0  0
 10 11  1  6  0  0  0
 10 16  1  0  0  0  0
 12 13  1  1  0  0  0
 12 18  1  0  0  0  0
 13 35  1  0  0  0  0
 14 15  1  6  0  0  0
 14 20  1  0  0  0  0
 16 17  1  1  0  0  0
 16 21  1  0  0  0  0
 17 35  1  0  0  0  0
 18 19  1  6  0  0  0
 18 23  1  0  0  0  0
 20  2  1  1  0  0  0
 20 25  1  0  0  0  0
 21 22  1  6  0  0  0
 21 27  1  0  0  0  0
 23 24  1  0  0  0  0
 23 29  1  6  0  0  0
 25 26  1  6  0  0  0
 25 31  1  0  0  0  0
 27 28  1  0  0  0  0
 27 33  1  1  0  0  0
 29 30  1  0  0  0  0
 31 32  1  1  0  0  0
 33 34  1  0  0  0  0
M  END
>  <CHROM.1>
-178.33058276,-146.55252633,53.62062461,-73.23678573,-179.97876710,138.91430025
45.26709327,38.33062323,1.01376976,-3.47729095,42.47940339,-0.26734858,0.03536212
-0.28546609

>  <Name>
2o3v_lig

>  <RI>
0

>  <Rbt.Current_Directory>
/home/afrankz/demos/rdock_decoys_rna/rnas/2o3v

>  <Rbt.Executable>
rbdock ($Id: //depot/dev/client3/rdock/2013.1/src/exe/rbdock.cxx#4 $)

>  <Rbt.Library>
libRbt.so (2013.1, Build901 2013/11/27)

>  <Rbt.Parameter_File>
/export/apps/rDock/src/rDock_2013.1_src/data/scripts/dock_solv.prm

>  <Rbt.Receptor>
prm/blind_docking_60.prm

>  <SCORE>
-0.615374

>  <SCORE.INTER>
-7.49479

>  <SCORE.INTER.CONST>
1

>  <SCORE.INTER.POLAR>
-0.511475

>  <SCORE.INTER.ROT>
8

>  <SCORE.INTER.SOLV>
18.4508

>  <SCORE.INTER.VDW>
-18.3752

>  <SCORE.INTER.norm>
-0.214137

>  <SCORE.INTRA>
2.09976

>  <SCORE.INTRA.DIHEDRAL>
0.0205287

>  <SCORE.INTRA.DIHEDRAL.0>
13.1227

>  <SCORE.INTRA.POLAR>
0

>  <SCORE.INTRA.POLAR.0>
0

>  <SCORE.INTRA.REPUL>
0

>  <SCORE.INTRA.REPUL.0>
0

>  <SCORE.INTRA.SOLV>
1.21258

>  <SCORE.INTRA.SOLV.lig_0>
-89.1587

>  <SCORE.INTRA.VDW>
1.4832

>  <SCORE.INTRA.VDW.0>
-0.838383

>  <SCORE.INTRA.norm>
0.059993

>  <SCORE.RESTR>
4.77966

>  <SCORE.RESTR.CAVITY>
4.77966

>  <SCORE.RESTR.norm>
0.136562

>  <SCORE.SYSTEM>
0

>  <SCORE.SYSTEM.CONST>
0

>  <SCORE.SYSTEM.DIHEDRAL>
0

>  <SCORE.SYSTEM.SOLV>
0

>  <SCORE.SYSTEM.norm>
0

>  <SCORE.heavy>
35

>  <SCORE.norm>
-0.0175821

>  <RMSD>
7.001

$$$$
2o3v_lig
 OpenBabel02141814113D
libRbt.so/2013.1/901 2013/11/27
 35 37  0  0  0  0  0  0  0  0999 V2000
    3.9768   -3.7920   42.8594 C   0  0  2  0  0  0  0  0  0  0  0  0
    4.1398   -5.2081   42.5421 O   0  0  0  0  0  0  0  0  0  0  0  0
    7.3997   -8.0811   42.7575 C   0  0  2  0  0  0  0  0  0  0  0  0
    8.4697   -8.9636   43.3128 N   0  0  0  0  0  0  0  0  0  0  0  0
   -3.9063   -1.8907   41.4268 C   0  0  2  0  0  0  0  0  0  0  0  0
   -4.5930   -1.8685   42.6971 O   0  0  0  0  0  0  0  0  0  0  0  0
    2.5228   -3.7206   43.4245 C   0  0  2  0  0  0  0  0  0  0  0  0
    2.3643   -4.5978   44.6084 N   0  0  0  0  0  0  0  0  0  0  0  0
    7.7173   -6.5604   43.0919 C   0  0  0  0  0  0  0  0  0  0  0  0
   -2.4410   -2.3814   41.6922 C   0  0  2  0  0  0  0  0  0  0  0  0
   -2.4358   -3.7164   42.3424 N   0  0  0  0  0  0  0  0  0  0  0  0
    1.4472   -4.1106   42.3197 C   0  0  1  0  0  0  0  0  0  0  0  0
    0.0749   -4.0796   42.8891 O   0  0  0  0  0  0  0  0  0  0  0  0
    6.5593   -5.6449   42.5010 C   0  0  2  0  0  0  0  0  0  0  0  0
    6.8299   -4.2248   42.8116 N   0  0  0  0  0  0  0  0  0  0  0  0
   -1.6232   -1.3350   42.5704 C   0  0  1  0  0  0  0  0  0  0  0  0
   -0.2522   -1.7484   42.8035 O   0  0  0  0  0  0  0  0  0  0  0  0
    1.6615   -3.1344   41.0809 C   0  0  2  0  0  0  0  0  0  0  0  0
    0.7577   -3.4246   40.0297 O   0  0  0  0  0  0  0  0  0  0  0  0
    5.1640   -6.0759   43.1149 C   0  0  2  0  0  0  0  0  0  0  0  0
   -1.6443    0.0462   41.8422 C   0  0  2  0  0  0  0  0  0  0  0  0
   -0.9392    1.0217   42.5844 O   0  0  0  0  0  0  0  0  0  0  0  0
    3.1435   -3.2271   40.5530 C   0  0  2  0  0  0  0  0  0  0  0  0
    4.0854   -2.9278   41.6520 O   0  0  0  0  0  0  0  0  0  0  0  0
    4.8642   -7.5658   42.7885 C   0  0  2  0  0  0  0  0  0  0  0  0
    3.5928   -7.9008   43.4149 O   0  0  0  0  0  0  0  0  0  0  0  0
   -3.1373    0.5009   41.5904 C   0  0  2  0  0  0  0  0  0  0  0  0
   -3.8661   -0.5327   40.8200 O   0  0  0  0  0  0  0  0  0  0  0  0
    3.3862   -2.2712   39.3859 C   0  0  0  0  0  0  0  0  0  0  0  0
    4.6011   -2.5601   38.7383 O   0  0  0  0  0  0  0  0  0  0  0  0
    5.9903   -8.4598   43.3586 C   0  0  1  0  0  0  0  0  0  0  0  0
    5.6972   -9.8049   43.0442 O   0  0  0  0  0  0  0  0  0  0  0  0
   -3.2083    1.8237   40.8427 C   0  0  0  0  0  0  0  0  0  0  0  0
   -4.4889    2.0067   40.2890 O   0  0  0  0  0  0  0  0  0  0  0  0
   -0.2153   -2.8652   43.7397 C   0  0  0  0  0  0  0  0  0  0  0  0
  1  2  1  6  0  0  0
  1  7  1  0  0  0  0
  1 24  1  0  0  0  0
  3  4  1  1  0  0  0
  3  9  1  0  0  0  0
  3 31  1  0  0  0  0
  5  6  1  1  0  0  0
  5 10  1  0  0  0  0
  5 28  1  0  0  0  0
  7  8  1  1  0  0  0
  7 12  1  0  0  0  0
  9 14  1  0  0  0  0
 10 11  1  1  0  0  0
 10 16  1  0  0  0  0
 12 13  1  1  0  0  0
 12 18  1  0  0  0  0
 13 35  1  0  0  0  0
 14 15  1  1  0  0  0
 14 20  1  0  0  0  0
 16 17  1  6  0  0  0
 16 21  1  0  0  0  0
 17 35  1  0  0  0  0
 18 19  1  6  0  0  0
 18 23  1  0  0  0  0
 20  2  1  6  0  0  0
 20 25  1  0  0  0  0
 21 22  1  1  0  0  0
 21 27  1  0  0  0  0
 23 24  1  0  0  0  0
 23 29  1  6  0  0  0
 25 26  1  1  0  0  0
 25 31  1  0  0  0  0
 27 28  1  0  0  0  0
 27 33  1  6  0  0  0
 29 30  1  0  0  0  0
 31 32  1  6  0  0  0
 33 34  1  0  0  0  0
M  END
>  <CHROM.1>
-120.75973352,45.02580387,69.20117680,-71.82422963,104.73290388,-71.02040292
-167.20849332,162.53181821,1.70648389,-3.60130238,42.13713349,-0.60897150
0.23670591,-0.51342798

>  <Name>
2o3v_lig

>  <RI>
0

>  <Rbt.Current_Directory>
/home/afrankz/demos/rdock_decoys_rna/rnas/2o3v

>  <Rbt.Executable>
rbdock ($Id: //depot/dev/client3/rdock/2013.1/src/exe/rbdock.cxx#4 $)

>  <Rbt.Library>
libRbt.so (2013.1, Build901 2013/11/27)

>  <Rbt.Parameter_File>
/export/apps/rDock/src/rDock_2013.1_src/data/scripts/dock_solv.prm

>  <Rbt.Receptor>
prm/blind_docking_60.prm

>  <SCORE>
4.72126

>  <SCORE.INTER>
-3.10701

>  <SCORE.INTER.CONST>
1

>  <SCORE.INTER.POLAR>
-0.755091

>  <SCORE.INTER.ROT>
8

>  <SCORE.INTER.SOLV>
20.4477

>  <SCORE.INTER.VDW>
-15.3036

>  <SCORE.INTER.norm>
-0.0887717

>  <SCORE.INTRA>
4.28004

>  <SCORE.INTRA.DIHEDRAL>
4.50209

>  <SCORE.INTRA.DIHEDRAL.0>
13.1227

>  <SCORE.INTRA.POLAR>
0

>  <SCORE.INTRA.POLAR.0>
0

>  <SCORE.INTRA.REPUL>
0

>  <SCORE.INTRA.REPUL.0>
0

>  <SCORE.INTRA.SOLV>
4.34663

>  <SCORE.INTRA.SOLV.lig_0>
-89.1587

>  <SCORE.INTRA.VDW>
-0.144324

>  <SCORE.INTRA.VDW.0>
-0.838383

>  <SCORE.INTRA.norm>
0.122287

>  <SCORE.RESTR>
3.54824

>  <SCORE.RESTR.CAVITY>
3.54824

>  <SCORE.RESTR.norm>
0.101378

>  <SCORE.SYSTEM>
0

>  <SCORE.SYSTEM.CONST>
0

>  <SCORE.SYSTEM.DIHEDRAL>
0

>  <SCORE.SYSTEM.SOLV>
0

>  <SCORE.SYSTEM.norm>
0

>  <SCORE.heavy>
35

>  <SCORE.norm>
0.134893

>  <RMSD>
7.231

$$$$
2o3v_lig
 OpenBabel02141814113D
libRbt.so/2013.1/901 2013/11/27
 35 37  0  0  0  0  0  0  0  0999 V2000
    3.9707   -3.1477   41.4796 C   0  0  2  0  0  0  0  0  0  0  0  0
    3.2061   -3.7407   40.3858 O   0  0  0  0  0  0  0  0  0  0  0  0
    2.2008   -2.8466   36.2485 C   0  0  2  0  0  0  0  0  0  0  0  0
    1.6828   -2.1295   35.0444 N   0  0  0  0  0  0  0  0  0  0  0  0
   -2.9582   -5.8067   44.7977 C   0  0  2  0  0  0  0  0  0  0  0  0
   -3.8340   -4.8546   45.4396 O   0  0  0  0  0  0  0  0  0  0  0  0
    2.9983   -3.2646   42.6958 C   0  0  2  0  0  0  0  0  0  0  0  0
    2.6277   -4.6765   42.9517 N   0  0  0  0  0  0  0  0  0  0  0  0
    1.0127   -3.1423   37.2615 C   0  0  0  0  0  0  0  0  0  0  0  0
   -1.7537   -5.0054   44.1932 C   0  0  2  0  0  0  0  0  0  0  0  0
   -1.0468   -4.2320   45.2454 N   0  0  0  0  0  0  0  0  0  0  0  0
    1.6840   -2.3958   42.4782 C   0  0  1  0  0  0  0  0  0  0  0  0
    0.7532   -2.5556   43.6255 O   0  0  0  0  0  0  0  0  0  0  0  0
    1.5918   -3.8944   38.5372 C   0  0  2  0  0  0  0  0  0  0  0  0
    0.5030   -4.1692   39.4992 N   0  0  0  0  0  0  0  0  0  0  0  0
   -2.2238   -4.0396   43.0181 C   0  0  1  0  0  0  0  0  0  0  0  0
   -1.1232   -3.3097   42.4175 O   0  0  0  0  0  0  0  0  0  0  0  0
    2.1436   -0.8946   42.2156 C   0  0  2  0  0  0  0  0  0  0  0  0
    1.0338   -0.0454   41.9850 O   0  0  0  0  0  0  0  0  0  0  0  0
    2.7098   -3.0078   39.2253 C   0  0  2  0  0  0  0  0  0  0  0  0
   -2.9473   -4.8969   41.9318 C   0  0  2  0  0  0  0  0  0  0  0  0
   -3.3981   -4.0872   40.8639 O   0  0  0  0  0  0  0  0  0  0  0  0
    3.1338   -0.8250   40.9916 C   0  0  2  0  0  0  0  0  0  0  0  0
    4.2894   -1.7146   41.2321 O   0  0  0  0  0  0  0  0  0  0  0  0
    3.8646   -2.7182   38.2259 C   0  0  2  0  0  0  0  0  0  0  0  0
    4.8302   -1.8702   38.9112 O   0  0  0  0  0  0  0  0  0  0  0  0
   -4.1497   -5.6904   42.5831 C   0  0  2  0  0  0  0  0  0  0  0  0
   -3.6654   -6.5272   43.7047 O   0  0  0  0  0  0  0  0  0  0  0  0
    3.6199    0.6019   40.7411 C   0  0  0  0  0  0  0  0  0  0  0  0
    2.6322    1.3678   40.0957 O   0  0  0  0  0  0  0  0  0  0  0  0
    3.3050   -1.9897   36.9816 C   0  0  1  0  0  0  0  0  0  0  0  0
    4.3712   -1.7439   36.0889 O   0  0  0  0  0  0  0  0  0  0  0  0
   -4.8594   -6.5755   41.5697 C   0  0  0  0  0  0  0  0  0  0  0  0
   -5.8458   -7.3538   42.2032 O   0  0  0  0  0  0  0  0  0  0  0  0
   -0.6878   -2.2366   43.3029 C   0  0  0  0  0  0  0  0  0  0  0  0
  1  2  1  6  0  0  0
  1  7  1  0  0  0  0
  1 24  1  0  0  0  0
  3  4  1  6  0  0  0
  3  9  1  0  0  0  0
  3 31  1  0  0  0  0
  5  6  1  6  0  0  0
  5 10  1  0  0  0  0
  5 28  1  0  0  0  0
  7  8  1  6  0  0  0
  7 12  1  0  0  0  0
  9 14  1  0  0  0  0
 10 11  1  1  0  0  0
 10 16  1  0  0  0  0
 12 13  1  1  0  0  0
 12 18  1  0  0  0  0
 13 35  1  0  0  0  0
 14 15  1  1  0  0  0
 14 20  1  0  0  0  0
 16 17  1  6  0  0  0
 16 21  1  0  0  0  0
 17 35  1  0  0  0  0
 18 19  1  6  0  0  0
 18 23  1  0  0  0  0
 20  2  1  1  0  0  0
 20 25  1  0  0  0  0
 21 22  1  6  0  0  0
 21 27  1  0  0  0  0
 23 24  1  0  0  0  0
 23 29  1  1  0  0  0
 25 26  1  1  0  0  0
 25 31  1  0  0  0  0
 27 28  1  0  0  0  0
 27 33  1  6  0  0  0
 29 30  1  0  0  0  0
 31 32  1  6  0  0  0
 33 34  1  0  0  0  0
M  END
>  <CHROM.1>
113.24202243,-157.43228880,69.47694501,-75.02842935,118.99873495,-163.01869327
-77.10469735,174.85788457,0.53778687,-3.22707442,41.10749529,-0.45943119
0.57621094,1.41461430

>  <Name>
2o3v_lig

>  <RI>
0

>  <Rbt.Current_Directory>
/home/afrankz/demos/rdock_decoys_rna/rnas/2o3v

>  <Rbt.Executable>
rbdock ($Id: //depot/dev/client3/rdock/2013.1/src/exe/rbdock.cxx#4 $)

>  <Rbt.Library>
libRbt.so (2013.1, Build901 2013/11/27)

>  <Rbt.Parameter_File>
/export/apps/rDock/src/rDock_2013.1_src/data/scripts/dock_solv.prm

>  <Rbt.Receptor>
prm/blind_docking_60.prm

>  <SCORE>
12.0226

>  <SCORE.INTER>
-2.05226

>  <SCORE.INTER.CONST>
1

>  <SCORE.INTER.POLAR>
0

>  <SCORE.INTER.ROT>
8

>  <SCORE.INTER.SOLV>
15.706

>  <SCORE.INTER.VDW>
-15.5368

>  <SCORE.INTER.norm>
-0.0586359

>  <SCORE.INTRA>
9.64942

>  <SCORE.INTRA.DIHEDRAL>
7.19026

>  <SCORE.INTRA.DIHEDRAL.0>
13.1227

>  <SCORE.INTRA.POLAR>
0

>  <SCORE.INTRA.POLAR.0>
0

>  <SCORE.INTRA.REPUL>
0.944758

>  <SCORE.INTRA.REPUL.0>
0

>  <SCORE.INTRA.SOLV>
3.9769

>  <SCORE.INTRA.SOLV.lig_0>
-89.1587

>  <SCORE.INTRA.VDW>
-0.657948

>  <SCORE.INTRA.VDW.0>
-0.838383

>  <SCORE.INTRA.norm>
0.275698

>  <SCORE.RESTR>
4.42542

>  <SCORE.RESTR.CAVITY>
4.42542

>  <SCORE.RESTR.norm>
0.12644

>  <SCORE.SYSTEM>
0

>  <SCORE.SYSTEM.CONST>
0

>  <SCORE.SYSTEM.DIHEDRAL>
0

>  <SCORE.SYSTEM.SOLV>
0

>  <SCORE.SYSTEM.norm>
0

>  <SCORE.heavy>
35

>  <SCORE.norm>
0.343502

>  <RMSD>
7.332

$$$$
2o3v_lig
 OpenBabel02141814113D
libRbt.so/2013.1/901 2013/11/27
 35 37  0  0  0  0  0  0  0  0999 V2000
    2.0425   -5.7607   44.7295 C   0  0  2  0  0  0  0  0  0  0  0  0
    2.7000   -5.7257   43.4260 O   0  0  0  0  0  0  0  0  0  0  0  0
    1.5845   -1.8684   41.7515 C   0  0  2  0  0  0  0  0  0  0  0  0
    1.5100   -0.7005   40.8227 N   0  0  0  0  0  0  0  0  0  0  0  0
    4.3804  -10.9030   49.2498 C   0  0  2  0  0  0  0  0  0  0  0  0
    3.3195   -9.9428   49.4449 O   0  0  0  0  0  0  0  0  0  0  0  0
    2.4794   -7.1431   45.3097 C   0  0  2  0  0  0  0  0  0  0  0  0
    3.9549   -7.2415   45.4064 N   0  0  0  0  0  0  0  0  0  0  0  0
    3.0732   -2.0562   42.2748 C   0  0  0  0  0  0  0  0  0  0  0  0
    4.8341  -10.8058   47.7522 C   0  0  2  0  0  0  0  0  0  0  0  0
    5.2730   -9.4274   47.4170 N   0  0  0  0  0  0  0  0  0  0  0  0
    1.9173   -8.3471   44.4357 C   0  0  1  0  0  0  0  0  0  0  0  0
    2.3806   -9.6507   44.9784 O   0  0  0  0  0  0  0  0  0  0  0  0
    3.1273   -3.3105   43.2506 C   0  0  2  0  0  0  0  0  0  0  0  0
    4.5080   -3.5103   43.7405 N   0  0  0  0  0  0  0  0  0  0  0  0
    3.6817  -11.2763   46.7595 C   0  0  1  0  0  0  0  0  0  0  0  0
    4.0862  -11.2282   45.3671 O   0  0  0  0  0  0  0  0  0  0  0  0
    0.3343   -8.1922   44.3736 C   0  0  2  0  0  0  0  0  0  0  0  0
   -0.2563   -9.2136   43.5902 O   0  0  0  0  0  0  0  0  0  0  0  0
    2.6309   -4.6082   42.4897 C   0  0  2  0  0  0  0  0  0  0  0  0
    3.2636  -12.7319   47.1405 C   0  0  2  0  0  0  0  0  0  0  0  0
    2.2312  -13.2006   46.2955 O   0  0  0  0  0  0  0  0  0  0  0  0
   -0.0614   -6.7797   43.7974 C   0  0  2  0  0  0  0  0  0  0  0  0
    0.5588   -5.7150   44.6137 O   0  0  0  0  0  0  0  0  0  0  0  0
    1.1767   -4.4136   41.9761 C   0  0  2  0  0  0  0  0  0  0  0  0
    0.8042   -5.6237   41.2564 O   0  0  0  0  0  0  0  0  0  0  0  0
    2.8185  -12.7862   48.6565 C   0  0  2  0  0  0  0  0  0  0  0  0
    3.9049  -12.2851   49.5291 O   0  0  0  0  0  0  0  0  0  0  0  0
   -1.5772   -6.5907   43.7620 C   0  0  0  0  0  0  0  0  0  0  0  0
   -2.1193   -6.5972   45.0600 O   0  0  0  0  0  0  0  0  0  0  0  0
    1.1189   -3.1921   41.0291 C   0  0  1  0  0  0  0  0  0  0  0  0
   -0.2112   -3.0343   40.5819 O   0  0  0  0  0  0  0  0  0  0  0  0
    2.4429  -14.1962   49.0864 C   0  0  0  0  0  0  0  0  0  0  0  0
    1.2912  -14.6277   48.4027 O   0  0  0  0  0  0  0  0  0  0  0  0
    3.8636   -9.8939   44.8238 C   0  0  0  0  0  0  0  0  0  0  0  0
  1  2  1  6  0  0  0
  1  7  1  0  0  0  0
  1 24  1  0  0  0  0
  3  4  1  6  0  0  0
  3  9  1  0  0  0  0
  3 31  1  0  0  0  0
  5  6  1  6  0  0  0
  5 10  1  0  0  0  0
  5 28  1  0  0  0  0
  7  8  1  6  0  0  0
  7 12  1  0  0  0  0
  9 14  1  0  0  0  0
 10 11  1  6  0  0  0
 10 16  1  0  0  0  0
 12 13  1  1  0  0  0
 12 18  1  0  0  0  0
 13 35  1  0  0  0  0
 14 15  1  6  0  0  0
 14 20  1  0  0  0  0
 16 17  1  6  0  0  0
 16 21  1  0  0  0  0
 17 35  1  0  0  0  0
 18 19  1  6  0  0  0
 18 23  1  0  0  0  0
 20  2  1  1  0  0  0
 20 25  1  0  0  0  0
 21 22  1  6  0  0  0
 21 27  1  0  0  0  0
 23 24  1  0  0  0  0
 23 29  1  1  0  0  0
 25 26  1  6  0  0  0
 25 31  1  0  0  0  0
 27 28  1  0  0  0  0
 27 33  1  1  0  0  0
 29 30  1  0  0  0  0
 31 32  1  1  0  0  0
 33 34  1  0  0  0  0
M  END
>  <CHROM.1>
-178.39982097,-68.43677803,-177.89094995,-85.93940945,-59.79127269,55.68544685
64.19345572,-65.91113254,2.16645439,-7.85079321,44.94686357,-1.75088785,0.38174369
2.62023089

>  <Name>
2o3v_lig

>  <RI>
0

>  <Rbt.Current_Directory>
/home/afrankz/demos/rdock_decoys_rna/rnas/2o3v

>  <Rbt.Executable>
rbdock ($Id: //depot/dev/client3/rdock/2013.1/src/exe/rbdock.cxx#4 $)

>  <Rbt.Library>
libRbt.so (2013.1, Build901 2013/11/27)

>  <Rbt.Parameter_File>
/export/apps/rDock/src/rDock_2013.1_src/data/scripts/dock_solv.prm

>  <Rbt.Receptor>
prm/pocket_docking_7.prm

>  <SCORE>
-13.3513

>  <SCORE.INTER>
-9.55135

>  <SCORE.INTER.CONST>
1

>  <SCORE.INTER.POLAR>
-1.82575

>  <SCORE.INTER.ROT>
8

>  <SCORE.INTER.SOLV>
9.78752

>  <SCORE.INTER.VDW>
-12.4776

>  <SCORE.INTER.norm>
-0.272896

>  <SCORE.INTRA>
-3.79992

>  <SCORE.INTRA.DIHEDRAL>
-9.57669

>  <SCORE.INTRA.DIHEDRAL.0>
13.1227

>  <SCORE.INTRA.POLAR>
0

>  <SCORE.INTRA.POLAR.0>
0

>  <SCORE.INTRA.REPUL>
0

>  <SCORE.INTRA.REPUL.0>
0

>  <SCORE.INTRA.SOLV>
4.08976

>  <SCORE.INTRA.SOLV.lig_0>
-89.1587

>  <SCORE.INTRA.VDW>
-1.05646

>  <SCORE.INTRA.VDW.0>
-0.838383

>  <SCORE.INTRA.norm>
-0.108569

>  <SCORE.RESTR>
0

>  <SCORE.RESTR.CAVITY>
0

>  <SCORE.RESTR.norm>
0

>  <SCORE.SYSTEM>
0

>  <SCORE.SYSTEM.CONST>
0

>  <SCORE.SYSTEM.DIHEDRAL>
0

>  <SCORE.SYSTEM.SOLV>
0

>  <SCORE.SYSTEM.norm>
0

>  <SCORE.heavy>
35

>  <SCORE.norm>
-0.381465

>  <RMSD>
7.456

$$$$
2o3v_lig
 OpenBabel02141814113D
libRbt.so/2013.1/901 2013/11/27
 35 37  0  0  0  0  0  0  0  0999 V2000
   -2.3286   -9.0468   47.2661 C   0  0  2  0  0  0  0  0  0  0  0  0
   -1.4290   -8.3688   48.1955 O   0  0  0  0  0  0  0  0  0  0  0  0
    2.7534   -8.6384   49.3626 C   0  0  2  0  0  0  0  0  0  0  0  0
    4.2450   -8.6538   49.2776 N   0  0  0  0  0  0  0  0  0  0  0  0
    0.8465   -4.2069   42.0385 C   0  0  2  0  0  0  0  0  0  0  0  0
    1.0701   -5.6021   42.3364 O   0  0  0  0  0  0  0  0  0  0  0  0
   -2.1859   -8.2061   45.9579 C   0  0  2  0  0  0  0  0  0  0  0  0
   -0.7811   -8.1833   45.4862 N   0  0  0  0  0  0  0  0  0  0  0  0
    2.1438   -9.8121   48.4815 C   0  0  0  0  0  0  0  0  0  0  0  0
   -0.1893   -3.6626   43.0822 C   0  0  2  0  0  0  0  0  0  0  0  0
    0.3016   -3.8556   44.4702 N   0  0  0  0  0  0  0  0  0  0  0  0
   -2.7082   -6.7176   46.1605 C   0  0  1  0  0  0  0  0  0  0  0  0
   -2.5228   -5.9227   44.9187 O   0  0  0  0  0  0  0  0  0  0  0  0
    0.5574   -9.7662   48.5798 C   0  0  2  0  0  0  0  0  0  0  0  0
   -0.0311  -10.8446   47.7568 N   0  0  0  0  0  0  0  0  0  0  0  0
   -1.6168   -4.3438   42.9003 C   0  0  1  0  0  0  0  0  0  0  0  0
   -2.6046   -3.8341   43.8325 O   0  0  0  0  0  0  0  0  0  0  0  0
   -4.2173   -6.8062   46.6589 C   0  0  2  0  0  0  0  0  0  0  0  0
   -4.7630   -5.5200   46.8913 O   0  0  0  0  0  0  0  0  0  0  0  0
    0.0263   -8.3581   48.0854 C   0  0  2  0  0  0  0  0  0  0  0  0
   -2.0972   -4.1033   41.4340 C   0  0  2  0  0  0  0  0  0  0  0  0
   -3.3605   -4.6978   41.2103 O   0  0  0  0  0  0  0  0  0  0  0  0
   -4.3171   -7.6745   47.9703 C   0  0  2  0  0  0  0  0  0  0  0  0
   -3.7438   -9.0149   47.7273 O   0  0  0  0  0  0  0  0  0  0  0  0
    0.6322   -7.2159   48.9483 C   0  0  2  0  0  0  0  0  0  0  0  0
    0.1339   -5.9561   48.4137 O   0  0  0  0  0  0  0  0  0  0  0  0
   -1.0241   -4.6616   40.4161 C   0  0  2  0  0  0  0  0  0  0  0  0
    0.2952   -4.0375   40.6668 O   0  0  0  0  0  0  0  0  0  0  0  0
   -5.7620   -7.8064   48.4495 C   0  0  0  0  0  0  0  0  0  0  0  0
   -6.2788   -6.5610   48.8505 O   0  0  0  0  0  0  0  0  0  0  0  0
    2.1756   -7.2590   48.8584 C   0  0  1  0  0  0  0  0  0  0  0  0
    2.7002   -6.2168   49.6538 O   0  0  0  0  0  0  0  0  0  0  0  0
   -1.4290   -4.4103   38.9715 C   0  0  0  0  0  0  0  0  0  0  0  0
   -0.5139   -5.0179   38.0922 O   0  0  0  0  0  0  0  0  0  0  0  0
   -2.4127   -4.4334   45.1474 C   0  0  0  0  0  0  0  0  0  0  0  0
  1  2  1  1  0  0  0
  1  7  1  0  0  0  0
  1 24  1  0  0  0  0
  3  4  1  6  0  0  0
  3  9  1  0  0  0  0
  3 31  1  0  0  0  0
  5  6  1  1  0  0  0
  5 10  1  0  0  0  0
  5 28  1  0  0  0  0
  7  8  1  1  0  0  0
  7 12  1  0  0  0  0
  9 14  1  0  0  0  0
 10 11  1  1  0  0  0
 10 16  1  0  0  0  0
 12 13  1  6  0  0  0
 12 18  1  0  0  0  0
 13 35  1  0  0  0  0
 14 15  1  6  0  0  0
 14 20  1  0  0  0  0
 16 17  1  1  0  0  0
 16 21  1  0  0  0  0
 17 35  1  0  0  0  0
 18 19  1  1  0  0  0
 18 23  1  0  0  0  0
 20  2  1  1  0  0  0
 20 25  1  0  0  0  0
 21 22  1  1  0  0  0
 21 27  1  0  0  0  0
 23 24  1  0  0  0  0
 23 29  1  6  0  0  0
 25 26  1  6  0  0  0
 25 31  1  0  0  0  0
 27 28  1  0  0  0  0
 27 33  1  6  0  0  0
 29 30  1  0  0  0  0
 31 32  1  1  0  0  0
 33 34  1  0  0  0  0
M  END
>  <CHROM.1>
-68.95358340,-154.96132203,-165.02283176,-78.07717313,-57.75880452,-76.64213656
-65.46447470,-174.95910275,-1.13506357,-6.51856963,45.58240086,1.45624914
-0.06399414,2.04196258

>  <Name>
2o3v_lig

>  <RI>
0

>  <Rbt.Current_Directory>
/home/afrankz/demos/rdock_decoys_rna/rnas/2o3v

>  <Rbt.Executable>
rbdock ($Id: //depot/dev/client3/rdock/2013.1/src/exe/rbdock.cxx#4 $)

>  <Rbt.Library>
libRbt.so (2013.1, Build901 2013/11/27)

>  <Rbt.Parameter_File>
/export/apps/rDock/src/rDock_2013.1_src/data/scripts/dock_solv.prm

>  <Rbt.Receptor>
prm/pocket_docking_8.prm

>  <SCORE>
-12.582

>  <SCORE.INTER>
-10.8455

>  <SCORE.INTER.CONST>
1

>  <SCORE.INTER.POLAR>
-0.87178

>  <SCORE.INTER.ROT>
8

>  <SCORE.INTER.SOLV>
9.16192

>  <SCORE.INTER.VDW>
-16.3117

>  <SCORE.INTER.norm>
-0.309871

>  <SCORE.INTRA>
-1.73647

>  <SCORE.INTRA.DIHEDRAL>
-5.96343

>  <SCORE.INTRA.DIHEDRAL.0>
13.1227

>  <SCORE.INTRA.POLAR>
0

>  <SCORE.INTRA.POLAR.0>
0

>  <SCORE.INTRA.REPUL>
0

>  <SCORE.INTRA.REPUL.0>
0

>  <SCORE.INTRA.SOLV>
4.22945

>  <SCORE.INTRA.SOLV.lig_0>
-89.1587

>  <SCORE.INTRA.VDW>
-0.869481

>  <SCORE.INTRA.VDW.0>
-0.838383

>  <SCORE.INTRA.norm>
-0.0496135

>  <SCORE.RESTR>
0

>  <SCORE.RESTR.CAVITY>
0

>  <SCORE.RESTR.norm>
0

>  <SCORE.SYSTEM>
0

>  <SCORE.SYSTEM.CONST>
0

>  <SCORE.SYSTEM.DIHEDRAL>
0

>  <SCORE.SYSTEM.SOLV>
0

>  <SCORE.SYSTEM.norm>
0

>  <SCORE.heavy>
35

>  <SCORE.norm>
-0.359485

>  <RMSD>
7.508

$$$$
2o3v_lig
 OpenBabel02141814113D
libRbt.so/2013.1/901 2013/11/27
 35 37  0  0  0  0  0  0  0  0999 V2000
   -1.7695   -3.1917   43.1405 C   0  0  2  0  0  0  0  0  0  0  0  0
   -0.5134   -2.8810   43.8176 O   0  0  0  0  0  0  0  0  0  0  0  0
    3.6386   -3.0806   42.5338 C   0  0  2  0  0  0  0  0  0  0  0  0
    4.9838   -3.6288   42.1842 N   0  0  0  0  0  0  0  0  0  0  0  0
   -3.0875    0.6610   51.0011 C   0  0  2  0  0  0  0  0  0  0  0  0
   -1.8813   -0.1300   50.9314 O   0  0  0  0  0  0  0  0  0  0  0  0
   -2.7966   -2.2550   43.8520 C   0  0  2  0  0  0  0  0  0  0  0  0
   -2.4066   -0.8316   43.7171 N   0  0  0  0  0  0  0  0  0  0  0  0
    3.3120   -3.3673   44.0623 C   0  0  0  0  0  0  0  0  0  0  0  0
   -4.2241   -0.1496   50.2875 C   0  0  2  0  0  0  0  0  0  0  0  0
   -4.4043   -1.4820   50.9178 N   0  0  0  0  0  0  0  0  0  0  0  0
   -2.9555   -2.6245   45.3907 C   0  0  1  0  0  0  0  0  0  0  0  0
   -3.9026   -1.6945   46.0588 O   0  0  0  0  0  0  0  0  0  0  0  0
    1.8725   -2.7851   44.4048 C   0  0  2  0  0  0  0  0  0  0  0  0
    1.5437   -3.0519   45.8215 N   0  0  0  0  0  0  0  0  0  0  0  0
   -3.9400   -0.3086   48.7290 C   0  0  1  0  0  0  0  0  0  0  0  0
   -4.9935   -1.0268   48.0369 O   0  0  0  0  0  0  0  0  0  0  0  0
   -3.3798   -4.1566   45.4713 C   0  0  2  0  0  0  0  0  0  0  0  0
   -3.5219   -4.5853   46.8136 O   0  0  0  0  0  0  0  0  0  0  0  0
    0.7842   -3.4475   43.4635 C   0  0  2  0  0  0  0  0  0  0  0  0
   -3.7720    1.1146   48.1085 C   0  0  2  0  0  0  0  0  0  0  0  0
   -3.5060    1.0351   46.7220 O   0  0  0  0  0  0  0  0  0  0  0  0
   -2.3254   -5.0627   44.7291 C   0  0  2  0  0  0  0  0  0  0  0  0
   -2.1754   -4.6116   43.3296 O   0  0  0  0  0  0  0  0  0  0  0  0
    1.1147   -3.1675   41.9706 C   0  0  2  0  0  0  0  0  0  0  0  0
    0.1003   -3.8366   41.1679 O   0  0  0  0  0  0  0  0  0  0  0  0
   -2.6216    1.8979   48.8584 C   0  0  2  0  0  0  0  0  0  0  0  0
   -2.9083    1.9664   50.3096 O   0  0  0  0  0  0  0  0  0  0  0  0
   -2.7289   -6.5362   44.7595 C   0  0  0  0  0  0  0  0  0  0  0  0
   -2.8986   -6.9880   46.0809 O   0  0  0  0  0  0  0  0  0  0  0  0
    2.5158   -3.7292   41.6340 C   0  0  1  0  0  0  0  0  0  0  0  0
    2.7934   -3.4573   40.2764 O   0  0  0  0  0  0  0  0  0  0  0  0
   -2.4504    3.3088   48.3161 C   0  0  0  0  0  0  0  0  0  0  0  0
   -1.3678    3.9492   48.9468 O   0  0  0  0  0  0  0  0  0  0  0  0
   -4.4479   -2.2040   47.3724 C   0  0  0  0  0  0  0  0  0  0  0  0
  1  2  1  1  0  0  0
  1  7  1  0  0  0  0
  1 24  1  0  0  0  0
  3  4  1  6  0  0  0
  3  9  1  0  0  0  0
  3 31  1  0  0  0  0
  5  6  1  6  0  0  0
  5 10  1  0  0  0  0
  5 28  1  0  0  0  0
  7  8  1  1  0  0  0
  7 12  1  0  0  0  0
  9 14  1  0  0  0  0
 10 11  1  1  0  0  0
 10 16  1  0  0  0  0
 12 13  1  6  0  0  0
 12 18  1  0  0  0  0
 13 35  1  0  0  0  0
 14 15  1  1  0  0  0
 14 20  1  0  0  0  0
 16 17  1  6  0  0  0
 16 21  1  0  0  0  0
 17 35  1  0  0  0  0
 18 19  1  1  0  0  0
 18 23  1  0  0  0  0
 20  2  1  1  0  0  0
 20 25  1  0  0  0  0
 21 22  1  6  0  0  0
 21 27  1  0  0  0  0
 23 24  1  0  0  0  0
 23 29  1  6  0  0  0
 25 26  1  6  0  0  0
 25 31  1  0  0  0  0
 27 28  1  0  0  0  0
 27 33  1  6  0  0  0
 29 30  1  0  0  0  0
 31 32  1  6  0  0  0
 33 34  1  0  0  0  0
M  END
>  <CHROM.1>
-176.43649140,161.84026838,163.03749119,-122.11250453,-83.42412578,177.28474230
-57.09365547,-176.40573999,-1.52507890,-2.00202585,45.82445722,0.92954337
-0.55676011,-2.53948387

>  <Name>
2o3v_lig

>  <RI>
0

>  <Rbt.Current_Directory>
/home/afrankz/demos/rdock_decoys_rna/rnas/2o3v

>  <Rbt.Executable>
rbdock ($Id: //depot/dev/client3/rdock/2013.1/src/exe/rbdock.cxx#4 $)

>  <Rbt.Library>
libRbt.so (2013.1, Build901 2013/11/27)

>  <Rbt.Parameter_File>
/export/apps/rDock/src/rDock_2013.1_src/data/scripts/dock_solv.prm

>  <Rbt.Receptor>
prm/blind_docking_100.prm

>  <SCORE>
3.00042

>  <SCORE.INTER>
-0.171034

>  <SCORE.INTER.CONST>
1

>  <SCORE.INTER.POLAR>
-0.147881

>  <SCORE.INTER.ROT>
8

>  <SCORE.INTER.SOLV>
23.3104

>  <SCORE.INTER.VDW>
-16.3245

>  <SCORE.INTER.norm>
-0.00488669

>  <SCORE.INTRA>
0.23004

>  <SCORE.INTRA.DIHEDRAL>
-0.501914

>  <SCORE.INTRA.DIHEDRAL.0>
13.1227

>  <SCORE.INTRA.POLAR>
0

>  <SCORE.INTRA.POLAR.0>
0

>  <SCORE.INTRA.REPUL>
0

>  <SCORE.INTRA.REPUL.0>
0

>  <SCORE.INTRA.SOLV>
-0.434263

>  <SCORE.INTRA.SOLV.lig_0>
-89.1587

>  <SCORE.INTRA.VDW>
0.698129

>  <SCORE.INTRA.VDW.0>
-0.838383

>  <SCORE.INTRA.norm>
0.00657258

>  <SCORE.RESTR>
2.94142

>  <SCORE.RESTR.CAVITY>
2.94142

>  <SCORE.RESTR.norm>
0.0840405

>  <SCORE.SYSTEM>
0

>  <SCORE.SYSTEM.CONST>
0

>  <SCORE.SYSTEM.DIHEDRAL>
0

>  <SCORE.SYSTEM.SOLV>
0

>  <SCORE.SYSTEM.norm>
0

>  <SCORE.heavy>
35

>  <SCORE.norm>
0.0857264

>  <RMSD>
7.606

$$$$
2o3v_lig
 OpenBabel02141814113D
libRbt.so/2013.1/901 2013/11/27
 35 37  0  0  0  0  0  0  0  0999 V2000
    4.1490  -10.9588   47.1403 C   0  0  2  0  0  0  0  0  0  0  0  0
    4.7976  -11.3776   45.9006 O   0  0  0  0  0  0  0  0  0  0  0  0
    7.9585  -14.0766   47.1856 C   0  0  2  0  0  0  0  0  0  0  0  0
    9.0852  -15.0565   47.1365 N   0  0  0  0  0  0  0  0  0  0  0  0
    2.7269   -2.0943   43.8975 C   0  0  2  0  0  0  0  0  0  0  0  0
    4.0734   -2.2082   43.3879 O   0  0  0  0  0  0  0  0  0  0  0  0
    3.0485   -9.9669   46.6468 C   0  0  2  0  0  0  0  0  0  0  0  0
    2.1155  -10.6277   45.7038 N   0  0  0  0  0  0  0  0  0  0  0  0
    6.6575  -14.7063   46.5251 C   0  0  0  0  0  0  0  0  0  0  0  0
    2.3738   -3.4498   44.6021 C   0  0  2  0  0  0  0  0  0  0  0  0
    3.3453   -3.7576   45.6821 N   0  0  0  0  0  0  0  0  0  0  0  0
    3.6860   -8.6822   45.9594 C   0  0  1  0  0  0  0  0  0  0  0  0
    2.6228   -7.7732   45.4578 O   0  0  0  0  0  0  0  0  0  0  0  0
    5.4786  -13.6406   46.5797 C   0  0  2  0  0  0  0  0  0  0  0  0
    4.2601  -14.2031   45.9589 N   0  0  0  0  0  0  0  0  0  0  0  0
    2.3062   -4.6512   43.5596 C   0  0  1  0  0  0  0  0  0  0  0  0
    1.9482   -5.9129   44.1799 O   0  0  0  0  0  0  0  0  0  0  0  0
    4.6692   -8.0141   47.0181 C   0  0  2  0  0  0  0  0  0  0  0  0
    5.3065   -6.8683   46.4826 O   0  0  0  0  0  0  0  0  0  0  0  0
    5.9103  -12.3186   45.8213 C   0  0  2  0  0  0  0  0  0  0  0  0
    1.2648   -4.2894   42.4536 C   0  0  2  0  0  0  0  0  0  0  0  0
    1.1697   -5.3199   41.4900 O   0  0  0  0  0  0  0  0  0  0  0  0
    5.7524   -9.0526   47.4997 C   0  0  2  0  0  0  0  0  0  0  0  0
    5.0858  -10.2494   48.0545 O   0  0  0  0  0  0  0  0  0  0  0  0
    7.1867  -11.7130   46.4696 C   0  0  2  0  0  0  0  0  0  0  0  0
    7.5457  -10.5298   45.7000 O   0  0  0  0  0  0  0  0  0  0  0  0
    1.6550   -2.9168   41.7733 C   0  0  2  0  0  0  0  0  0  0  0  0
    1.7595   -1.8489   42.7939 O   0  0  0  0  0  0  0  0  0  0  0  0
    6.6873   -8.4468   48.5455 C   0  0  0  0  0  0  0  0  0  0  0  0
    7.6945   -9.3574   48.9131 O   0  0  0  0  0  0  0  0  0  0  0  0
    8.3352  -12.7477   46.4219 C   0  0  1  0  0  0  0  0  0  0  0  0
    9.4789  -12.1758   47.0209 O   0  0  0  0  0  0  0  0  0  0  0  0
    0.6429   -2.5004   40.7167 C   0  0  0  0  0  0  0  0  0  0  0  0
   -0.6188   -2.2876   41.3021 O   0  0  0  0  0  0  0  0  0  0  0  0
    3.1402   -6.5797   44.6895 C   0  0  0  0  0  0  0  0  0  0  0  0
  1  2  1  6  0  0  0
  1  7  1  0  0  0  0
  1 24  1  0  0  0  0
  3  4  1  6  0  0  0
  3  9  1  0  0  0  0
  3 31  1  0  0  0  0
  5  6  1  6  0  0  0
  5 10  1  0  0  0  0
  5 28  1  0  0  0  0
  7  8  1  6  0  0  0
  7 12  1  0  0  0  0
  9 14  1  0  0  0  0
 10 11  1  1  0  0  0
 10 16  1  0  0  0  0
 12 13  1  1  0  0  0
 12 18  1  0  0  0  0
 13 35  1  0  0  0  0
 14 15  1  6  0  0  0
 14 20  1  0  0  0  0
 16 17  1  1  0  0  0
 16 21  1  0  0  0  0
 17 35  1  0  0  0  0
 18 19  1  6  0  0  0
 18 23  1  0  0  0  0
 20  2  1  1  0  0  0
 20 25  1  0  0  0  0
 21 22  1  6  0  0  0
 21 27  1  0  0  0  0
 23 24  1  0  0  0  0
 23 29  1  1  0  0  0
 25 26  1  6  0  0  0
 25 31  1  0  0  0  0
 27 28  1  0  0  0  0
 27 33  1  6  0  0  0
 29 30  1  0  0  0  0
 31 32  1  1  0  0  0
 33 34  1  0  0  0  0
M  END
>  <CHROM.1>
-179.96932958,-175.27591559,174.27822281,-86.55247295,172.91414078,53.88641183
-176.71748692,62.69458231,4.37160159,-8.23333344,45.37026016,0.96817028,0.62812133
3.10640343

>  <Name>
2o3v_lig

>  <RI>
0

>  <Rbt.Current_Directory>
/home/afrankz/demos/rdock_decoys_rna/rnas/2o3v

>  <Rbt.Executable>
rbdock ($Id: //depot/dev/client3/rdock/2013.1/src/exe/rbdock.cxx#4 $)

>  <Rbt.Library>
libRbt.so (2013.1, Build901 2013/11/27)

>  <Rbt.Parameter_File>
/export/apps/rDock/src/rDock_2013.1_src/data/scripts/dock_solv.prm

>  <Rbt.Receptor>
prm/pocket_docking_8.prm

>  <SCORE>
-10.7319

>  <SCORE.INTER>
-4.69968

>  <SCORE.INTER.CONST>
1

>  <SCORE.INTER.POLAR>
-1.82541

>  <SCORE.INTER.ROT>
8

>  <SCORE.INTER.SOLV>
8.73141

>  <SCORE.INTER.VDW>
-8.89224

>  <SCORE.INTER.norm>
-0.134277

>  <SCORE.INTRA>
-6.03218

>  <SCORE.INTRA.DIHEDRAL>
-9.35429

>  <SCORE.INTRA.DIHEDRAL.0>
13.1227

>  <SCORE.INTRA.POLAR>
0

>  <SCORE.INTRA.POLAR.0>
0

>  <SCORE.INTRA.REPUL>
0.0103409

>  <SCORE.INTRA.REPUL.0>
0

>  <SCORE.INTRA.SOLV>
1.28163

>  <SCORE.INTRA.SOLV.lig_0>
-89.1587

>  <SCORE.INTRA.VDW>
-2.04756

>  <SCORE.INTRA.VDW.0>
-0.838383

>  <SCORE.INTRA.norm>
-0.172348

>  <SCORE.RESTR>
0

>  <SCORE.RESTR.CAVITY>
0

>  <SCORE.RESTR.norm>
0

>  <SCORE.SYSTEM>
0

>  <SCORE.SYSTEM.CONST>
0

>  <SCORE.SYSTEM.DIHEDRAL>
0

>  <SCORE.SYSTEM.SOLV>
0

>  <SCORE.SYSTEM.norm>
0

>  <SCORE.heavy>
35

>  <SCORE.norm>
-0.306625

>  <RMSD>
7.696

$$$$
2o3v_lig
 OpenBabel02141814113D
libRbt.so/2013.1/901 2013/11/27
 35 37  0  0  0  0  0  0  0  0999 V2000
    3.9489   -7.2518   44.4411 C   0  0  2  0  0  0  0  0  0  0  0  0
    4.7474   -7.1102   45.6556 O   0  0  0  0  0  0  0  0  0  0  0  0
    6.3137   -9.6965   48.7837 C   0  0  2  0  0  0  0  0  0  0  0  0
    6.3671  -10.6637   49.9212 N   0  0  0  0  0  0  0  0  0  0  0  0
    1.4763   -2.6534   38.4114 C   0  0  2  0  0  0  0  0  0  0  0  0
    2.2067   -3.7072   37.7470 O   0  0  0  0  0  0  0  0  0  0  0  0
    4.4305   -6.0567   43.5590 C   0  0  2  0  0  0  0  0  0  0  0  0
    5.8880   -6.1336   43.3019 N   0  0  0  0  0  0  0  0  0  0  0  0
    5.5300   -8.3842   49.2185 C   0  0  0  0  0  0  0  0  0  0  0  0
    2.1741   -2.3943   39.7913 C   0  0  2  0  0  0  0  0  0  0  0  0
    3.6040   -2.0389   39.6067 N   0  0  0  0  0  0  0  0  0  0  0  0
    4.0765   -4.6577   44.2276 C   0  0  1  0  0  0  0  0  0  0  0  0
    4.5820   -3.5352   43.3952 O   0  0  0  0  0  0  0  0  0  0  0  0
    5.4775   -7.3781   47.9883 C   0  0  2  0  0  0  0  0  0  0  0  0
    4.7414   -6.1533   48.3686 N   0  0  0  0  0  0  0  0  0  0  0  0
    2.0365   -3.6490   40.7617 C   0  0  1  0  0  0  0  0  0  0  0  0
    2.6450   -3.4243   42.0593 O   0  0  0  0  0  0  0  0  0  0  0  0
    2.5040   -4.6312   44.4727 C   0  0  2  0  0  0  0  0  0  0  0  0
    2.0960   -3.4246   45.0920 O   0  0  0  0  0  0  0  0  0  0  0  0
    4.7696   -8.0722   46.7529 C   0  0  2  0  0  0  0  0  0  0  0  0
    0.5195   -3.9759   40.9366 C   0  0  2  0  0  0  0  0  0  0  0  0
    0.3359   -5.0931   41.7837 O   0  0  0  0  0  0  0  0  0  0  0  0
    2.0602   -5.8608   45.3528 C   0  0  2  0  0  0  0  0  0  0  0  0
    2.4900   -7.1190   44.7072 O   0  0  0  0  0  0  0  0  0  0  0  0
    5.5388   -9.3578   46.3383 C   0  0  2  0  0  0  0  0  0  0  0  0
    4.8122   -9.9607   45.2295 O   0  0  0  0  0  0  0  0  0  0  0  0
   -0.1452   -4.2253   39.5240 C   0  0  2  0  0  0  0  0  0  0  0  0
    0.0617   -3.0520   38.6446 O   0  0  0  0  0  0  0  0  0  0  0  0
    0.5481   -5.8796   45.5721 C   0  0  0  0  0  0  0  0  0  0  0  0
    0.1757   -6.9161   46.4472 O   0  0  0  0  0  0  0  0  0  0  0  0
    5.5954  -10.3380   47.5333 C   0  0  1  0  0  0  0  0  0  0  0  0
    6.3028  -11.4927   47.1328 O   0  0  0  0  0  0  0  0  0  0  0  0
   -1.6358   -4.5051   39.6409 C   0  0  0  0  0  0  0  0  0  0  0  0
   -2.1968   -4.7177   38.3680 O   0  0  0  0  0  0  0  0  0  0  0  0
    4.0939   -3.5557   41.9657 C   0  0  0  0  0  0  0  0  0  0  0  0
  1  2  1  1  0  0  0
  1  7  1  0  0  0  0
  1 24  1  0  0  0  0
  3  4  1  1  0  0  0
  3  9  1  0  0  0  0
  3 31  1  0  0  0  0
  5  6  1  1  0  0  0
  5 10  1  0  0  0  0
  5 28  1  0  0  0  0
  7  8  1  1  0  0  0
  7 12  1  0  0  0  0
  9 14  1  0  0  0  0
 10 11  1  6  0  0  0
 10 16  1  0  0  0  0
 12 13  1  6  0  0  0
 12 18  1  0  0  0  0
 13 35  1  0  0  0  0
 14 15  1  1  0  0  0
 14 20  1  0  0  0  0
 16 17  1  1  0  0  0
 16 21  1  0  0  0  0
 17 35  1  0  0  0  0
 18 19  1  1  0  0  0
 18 23  1  0  0  0  0
 20  2  1  6  0  0  0
 20 25  1  0  0  0  0
 21 22  1  1  0  0  0
 21 27  1  0  0  0  0
 23 24  1  0  0  0  0
 23 29  1  6  0  0  0
 25 26  1  6  0  0  0
 25 31  1  0  0  0  0
 27 28  1  0  0  0  0
 27 33  1  1  0  0  0
 29 30  1  0  0  0  0
 31 32  1  6  0  0  0
 33 34  1  0  0  0  0
M  END
>  <CHROM.1>
-173.47342221,55.55541097,62.10986747,-77.48225049,-170.71627785,-166.75863215
-175.17559976,179.79739163,3.04648980,-5.90748119,43.75157385,-1.12398293
-0.19753034,-0.87388171

>  <Name>
2o3v_lig

>  <RI>
0

>  <Rbt.Current_Directory>
/home/afrankz/demos/rdock_decoys_rna/rnas/2o3v

>  <Rbt.Executable>
rbdock ($Id: //depot/dev/client3/rdock/2013.1/src/exe/rbdock.cxx#4 $)

>  <Rbt.Library>
libRbt.so (2013.1, Build901 2013/11/27)

>  <Rbt.Parameter_File>
/export/apps/rDock/src/rDock_2013.1_src/data/scripts/dock_solv.prm

>  <Rbt.Receptor>
prm/pocket_docking_8.prm

>  <SCORE>
-16.9344

>  <SCORE.INTER>
-11.051

>  <SCORE.INTER.CONST>
1

>  <SCORE.INTER.POLAR>
-1.9984

>  <SCORE.INTER.ROT>
8

>  <SCORE.INTER.SOLV>
9.99633

>  <SCORE.INTER.VDW>
-12.9715

>  <SCORE.INTER.norm>
-0.315743

>  <SCORE.INTRA>
-5.88336

>  <SCORE.INTRA.DIHEDRAL>
-10.0065

>  <SCORE.INTRA.DIHEDRAL.0>
13.1227

>  <SCORE.INTRA.POLAR>
0

>  <SCORE.INTRA.POLAR.0>
0

>  <SCORE.INTRA.REPUL>
0

>  <SCORE.INTRA.REPUL.0>
0

>  <SCORE.INTRA.SOLV>
0.673621

>  <SCORE.INTRA.SOLV.lig_0>
-89.1587

>  <SCORE.INTRA.VDW>
-1.21693

>  <SCORE.INTRA.VDW.0>
-0.838383

>  <SCORE.INTRA.norm>
-0.168096

>  <SCORE.RESTR>
0

>  <SCORE.RESTR.CAVITY>
0

>  <SCORE.RESTR.norm>
0

>  <SCORE.SYSTEM>
0

>  <SCORE.SYSTEM.CONST>
0

>  <SCORE.SYSTEM.DIHEDRAL>
0

>  <SCORE.SYSTEM.SOLV>
0

>  <SCORE.SYSTEM.norm>
0

>  <SCORE.heavy>
35

>  <SCORE.norm>
-0.483839

>  <RMSD>
7.807

$$$$
2o3v_lig
 OpenBabel02141814113D
libRbt.so/2013.1/901 2013/11/27
 35 37  0  0  0  0  0  0  0  0999 V2000
    7.0819   -4.8935   44.5144 C   0  0  2  0  0  0  0  0  0  0  0  0
    6.6255   -5.2319   45.8598 O   0  0  0  0  0  0  0  0  0  0  0  0
    8.7070   -4.8295   49.6589 C   0  0  2  0  0  0  0  0  0  0  0  0
    9.5832   -5.1393   50.8286 N   0  0  0  0  0  0  0  0  0  0  0  0
    0.3062   -2.1809   42.5714 C   0  0  2  0  0  0  0  0  0  0  0  0
    1.6220   -1.6012   42.4369 O   0  0  0  0  0  0  0  0  0  0  0  0
    5.7536   -4.8268   43.6961 C   0  0  2  0  0  0  0  0  0  0  0  0
    4.8266   -3.8177   44.2604 N   0  0  0  0  0  0  0  0  0  0  0  0
    7.5355   -5.8983   49.5554 C   0  0  0  0  0  0  0  0  0  0  0  0
    0.4786   -3.5918   43.2332 C   0  0  2  0  0  0  0  0  0  0  0  0
    1.1676   -3.4845   44.5442 N   0  0  0  0  0  0  0  0  0  0  0  0
    5.0330   -6.2434   43.6361 C   0  0  1  0  0  0  0  0  0  0  0  0
    3.7505   -6.1488   42.8916 O   0  0  0  0  0  0  0  0  0  0  0  0
    6.6259   -5.5530   48.2977 C   0  0  2  0  0  0  0  0  0  0  0  0
    5.5348   -6.5436   48.1762 N   0  0  0  0  0  0  0  0  0  0  0  0
    1.2616   -4.5954   42.2770 C   0  0  1  0  0  0  0  0  0  0  0  0
    1.4064   -5.9198   42.8512 O   0  0  0  0  0  0  0  0  0  0  0  0
    6.0709   -7.2799   43.0180 C   0  0  2  0  0  0  0  0  0  0  0  0
    5.5223   -8.5837   42.9479 O   0  0  0  0  0  0  0  0  0  0  0  0
    7.5047   -5.5529   46.9797 C   0  0  2  0  0  0  0  0  0  0  0  0
    0.4944   -4.6866   40.9198 C   0  0  2  0  0  0  0  0  0  0  0  0
    1.1525   -5.5596   40.0229 O   0  0  0  0  0  0  0  0  0  0  0  0
    7.4001   -7.3038   43.8645 C   0  0  2  0  0  0  0  0  0  0  0  0
    7.9693   -5.9419   43.9401 O   0  0  0  0  0  0  0  0  0  0  0  0
    8.6514   -4.5094   47.0919 C   0  0  2  0  0  0  0  0  0  0  0  0
    9.4368   -4.5934   45.8683 O   0  0  0  0  0  0  0  0  0  0  0  0
    0.3388   -3.2449   40.2900 C   0  0  2  0  0  0  0  0  0  0  0  0
   -0.3437   -2.3392   41.2422 O   0  0  0  0  0  0  0  0  0  0  0  0
    8.4289   -8.2646   43.2702 C   0  0  0  0  0  0  0  0  0  0  0  0
    8.7447   -9.2931   44.1765 O   0  0  0  0  0  0  0  0  0  0  0  0
    9.5367   -4.8395   48.3164 C   0  0  1  0  0  0  0  0  0  0  0  0
   10.5653   -3.8754   48.3986 O   0  0  0  0  0  0  0  0  0  0  0  0
   -0.4423   -3.2781   38.9851 C   0  0  0  0  0  0  0  0  0  0  0  0
   -0.4883   -1.9958   38.4075 O   0  0  0  0  0  0  0  0  0  0  0  0
    2.5377   -5.9493   43.7701 C   0  0  0  0  0  0  0  0  0  0  0  0
  1  2  1  1  0  0  0
  1  7  1  0  0  0  0
  1 24  1  0  0  0  0
  3  4  1  1  0  0  0
  3  9  1  0  0  0  0
  3 31  1  0  0  0  0
  5  6  1  6  0  0  0
  5 10  1  0  0  0  0
  5 28  1  0  0  0  0
  7  8  1  1  0  0  0
  7 12  1  0  0  0  0
  9 14  1  0  0  0  0
 10 11  1  1  0  0  0
 10 16  1  0  0  0  0
 12 13  1  6  0  0  0
 12 18  1  0  0  0  0
 13 35  1  0  0  0  0
 14 15  1  6  0  0  0
 14 20  1  0  0  0  0
 16 17  1  1  0  0  0
 16 21  1  0  0  0  0
 17 35  1  0  0  0  0
 18 19  1  1  0  0  0
 18 23  1  0  0  0  0
 20  2  1  6  0  0  0
 20 25  1  0  0  0  0
 21 22  1  6  0  0  0
 21 27  1  0  0  0  0
 23 24  1  0  0  0  0
 23 29  1  6  0  0  0
 25 26  1  6  0  0  0
 25 31  1  0  0  0  0
 27 28  1  0  0  0  0
 27 33  1  6  0  0  0
 29 30  1  0  0  0  0
 31 32  1  1  0  0  0
 33 34  1  0  0  0  0
M  END
>  <CHROM.1>
173.08635214,-95.33680414,-178.56355877,-82.18028912,-82.45372875,168.24848655
-118.49307696,-176.19528720,4.85375694,-5.07883913,44.25055405,-0.35788359
0.61626699,-2.25454241

>  <Name>
2o3v_lig

>  <RI>
0

>  <Rbt.Current_Directory>
/home/afrankz/demos/rdock_decoys_rna/rnas/2o3v

>  <Rbt.Executable>
rbdock ($Id: //depot/dev/client3/rdock/2013.1/src/exe/rbdock.cxx#4 $)

>  <Rbt.Library>
libRbt.so (2013.1, Build901 2013/11/27)

>  <Rbt.Parameter_File>
/export/apps/rDock/src/rDock_2013.1_src/data/scripts/dock_solv.prm

>  <Rbt.Receptor>
prm/pocket_docking_8.prm

>  <SCORE>
-15.5898

>  <SCORE.INTER>
-15.4832

>  <SCORE.INTER.CONST>
1

>  <SCORE.INTER.POLAR>
-1.4379

>  <SCORE.INTER.ROT>
8

>  <SCORE.INTER.SOLV>
15.3749

>  <SCORE.INTER.VDW>
-19.5874

>  <SCORE.INTER.norm>
-0.442377

>  <SCORE.INTRA>
-0.106568

>  <SCORE.INTRA.DIHEDRAL>
2.10077

>  <SCORE.INTRA.DIHEDRAL.0>
13.1227

>  <SCORE.INTRA.POLAR>
0

>  <SCORE.INTRA.POLAR.0>
0

>  <SCORE.INTRA.REPUL>
0

>  <SCORE.INTRA.REPUL.0>
0

>  <SCORE.INTRA.SOLV>
0.881982

>  <SCORE.INTRA.SOLV.lig_0>
-89.1587

>  <SCORE.INTRA.VDW>
-1.59795

>  <SCORE.INTRA.VDW.0>
-0.838383

>  <SCORE.INTRA.norm>
-0.0030448

>  <SCORE.RESTR>
0

>  <SCORE.RESTR.CAVITY>
0

>  <SCORE.RESTR.norm>
0

>  <SCORE.SYSTEM>
0

>  <SCORE.SYSTEM.CONST>
0

>  <SCORE.SYSTEM.DIHEDRAL>
0

>  <SCORE.SYSTEM.SOLV>
0

>  <SCORE.SYSTEM.norm>
0

>  <SCORE.heavy>
35

>  <SCORE.norm>
-0.445422

>  <RMSD>
7.884

$$$$
2o3v_lig
 OpenBabel02141814113D
libRbt.so/2013.1/901 2013/11/27
 35 37  0  0  0  0  0  0  0  0999 V2000
    5.3047   -7.3709   43.3618 C   0  0  2  0  0  0  0  0  0  0  0  0
    5.8567   -7.1746   44.6995 O   0  0  0  0  0  0  0  0  0  0  0  0
    7.2592  -10.0019   47.6940 C   0  0  2  0  0  0  0  0  0  0  0  0
    7.2533  -11.0045   48.8017 N   0  0  0  0  0  0  0  0  0  0  0  0
    1.3166   -2.6991   38.0353 C   0  0  2  0  0  0  0  0  0  0  0  0
    2.2463   -3.4985   37.2722 O   0  0  0  0  0  0  0  0  0  0  0  0
    5.3354   -5.9338   42.7515 C   0  0  2  0  0  0  0  0  0  0  0  0
    6.7137   -5.3895   42.7315 N   0  0  0  0  0  0  0  0  0  0  0  0
    6.6288   -8.6315   48.1940 C   0  0  0  0  0  0  0  0  0  0  0  0
    1.9287   -2.5013   39.4651 C   0  0  2  0  0  0  0  0  0  0  0  0
    3.2670   -1.8626   39.3880 N   0  0  0  0  0  0  0  0  0  0  0  0
    4.3781   -4.9420   43.5448 C   0  0  1  0  0  0  0  0  0  0  0  0
    4.4555   -3.5711   42.9766 O   0  0  0  0  0  0  0  0  0  0  0  0
    6.6363   -7.5873   46.9948 C   0  0  2  0  0  0  0  0  0  0  0  0
    6.0424   -6.3070   47.4361 N   0  0  0  0  0  0  0  0  0  0  0  0
    2.0176   -3.8782   40.2596 C   0  0  1  0  0  0  0  0  0  0  0  0
    2.5500   -3.7194   41.5997 O   0  0  0  0  0  0  0  0  0  0  0  0
    2.9172   -5.5739   43.5268 C   0  0  2  0  0  0  0  0  0  0  0  0
    1.9943   -4.7665   44.2355 O   0  0  0  0  0  0  0  0  0  0  0  0
    5.8188   -8.1677   45.7684 C   0  0  2  0  0  0  0  0  0  0  0  0
    0.5885   -4.5041   40.3272 C   0  0  2  0  0  0  0  0  0  0  0  0
    0.6079   -5.7393   41.0153 O   0  0  0  0  0  0  0  0  0  0  0  0
    2.9352   -7.0270   44.1365 C   0  0  2  0  0  0  0  0  0  0  0  0
    3.9015   -7.8671   43.3984 O   0  0  0  0  0  0  0  0  0  0  0  0
    6.4382   -9.5107   45.2899 C   0  0  2  0  0  0  0  0  0  0  0  0
    5.6159  -10.0024   44.1931 O   0  0  0  0  0  0  0  0  0  0  0  0
    0.0076   -4.6819   38.8677 C   0  0  2  0  0  0  0  0  0  0  0  0
    0.0008   -3.3834   38.1558 O   0  0  0  0  0  0  0  0  0  0  0  0
    1.5502   -7.6713   44.0969 C   0  0  0  0  0  0  0  0  0  0  0  0
    1.5624   -8.9375   44.7096 O   0  0  0  0  0  0  0  0  0  0  0  0
    6.4362  -10.5284   46.4545 C   0  0  1  0  0  0  0  0  0  0  0  0
    7.0079  -11.7355   45.9959 O   0  0  0  0  0  0  0  0  0  0  0  0
   -1.4037   -5.2493   38.8849 C   0  0  0  0  0  0  0  0  0  0  0  0
   -2.2699   -4.3901   39.5858 O   0  0  0  0  0  0  0  0  0  0  0  0
    3.9847   -3.4666   41.5450 C   0  0  0  0  0  0  0  0  0  0  0  0
  1  2  1  1  0  0  0
  1  7  1  0  0  0  0
  1 24  1  0  0  0  0
  3  4  1  1  0  0  0
  3  9  1  0  0  0  0
  3 31  1  0  0  0  0
  5  6  1  6  0  0  0
  5 10  1  0  0  0  0
  5 28  1  0  0  0  0
  7  8  1  1  0  0  0
  7 12  1  0  0  0  0
  9 14  1  0  0  0  0
 10 11  1  6  0  0  0
 10 16  1  0  0  0  0
 12 13  1  6  0  0  0
 12 18  1  0  0  0  0
 13 35  1  0  0  0  0
 14 15  1  1  0  0  0
 14 20  1  0  0  0  0
 16 17  1  1  0  0  0
 16 21  1  0  0  0  0
 17 35  1  0  0  0  0
 18 19  1  1  0  0  0
 18 23  1  0  0  0  0
 20  2  1  6  0  0  0
 20 25  1  0  0  0  0
 21 22  1  6  0  0  0
 21 27  1  0  0  0  0
 23 24  1  0  0  0  0
 23 29  1  6  0  0  0
 25 26  1  6  0  0  0
 25 31  1  0  0  0  0
 27 28  1  0  0  0  0
 27 33  1  1  0  0  0
 29 30  1  0  0  0  0
 31 32  1  6  0  0  0
 33 34  1  0  0  0  0
M  END
>  <CHROM.1>
168.23365793,63.04566121,67.87379703,-73.38839086,-170.04145771,175.17035770
-176.75144443,60.19639128,3.57552566,-6.26159588,42.97556449,-0.96072798
-0.44716070,-0.61786548

>  <Name>
2o3v_lig

>  <RI>
0

>  <Rbt.Current_Directory>
/home/afrankz/demos/rdock_decoys_rna/rnas/2o3v

>  <Rbt.Executable>
rbdock ($Id: //depot/dev/client3/rdock/2013.1/src/exe/rbdock.cxx#4 $)

>  <Rbt.Library>
libRbt.so (2013.1, Build901 2013/11/27)

>  <Rbt.Parameter_File>
/export/apps/rDock/src/rDock_2013.1_src/data/scripts/dock_solv.prm

>  <Rbt.Receptor>
prm/pocket_docking_8.prm

>  <SCORE>
-25.6011

>  <SCORE.INTER>
-20.1494

>  <SCORE.INTER.CONST>
1

>  <SCORE.INTER.POLAR>
-2.69259

>  <SCORE.INTER.ROT>
8

>  <SCORE.INTER.SOLV>
13.5911

>  <SCORE.INTER.VDW>
-17.9213

>  <SCORE.INTER.norm>
-0.575698

>  <SCORE.INTRA>
-5.46764

>  <SCORE.INTRA.DIHEDRAL>
-10.5836

>  <SCORE.INTRA.DIHEDRAL.0>
13.1227

>  <SCORE.INTRA.POLAR>
0

>  <SCORE.INTRA.POLAR.0>
0

>  <SCORE.INTRA.REPUL>
0

>  <SCORE.INTRA.REPUL.0>
0

>  <SCORE.INTRA.SOLV>
0.912413

>  <SCORE.INTRA.SOLV.lig_0>
-89.1587

>  <SCORE.INTRA.VDW>
-0.632048

>  <SCORE.INTRA.VDW.0>
-0.838383

>  <SCORE.INTRA.norm>
-0.156218

>  <SCORE.RESTR>
0.0160089

>  <SCORE.RESTR.CAVITY>
0.0160089

>  <SCORE.RESTR.norm>
0.000457396

>  <SCORE.SYSTEM>
0

>  <SCORE.SYSTEM.CONST>
0

>  <SCORE.SYSTEM.DIHEDRAL>
0

>  <SCORE.SYSTEM.SOLV>
0

>  <SCORE.SYSTEM.norm>
0

>  <SCORE.heavy>
35

>  <SCORE.norm>
-0.731459

>  <RMSD>
7.914

$$$$
2o3v_lig
 OpenBabel02141814113D
libRbt.so/2013.1/901 2013/11/27
 35 37  0  0  0  0  0  0  0  0999 V2000
    1.2630   -4.8657   46.5909 C   0  0  2  0  0  0  0  0  0  0  0  0
    1.7736   -4.9640   45.2262 O   0  0  0  0  0  0  0  0  0  0  0  0
    2.8964   -2.1110   42.1397 C   0  0  2  0  0  0  0  0  0  0  0  0
    2.7922   -1.0599   41.0831 N   0  0  0  0  0  0  0  0  0  0  0  0
    5.9650  -10.9476   49.5464 C   0  0  2  0  0  0  0  0  0  0  0  0
    6.4580  -10.2171   48.4023 O   0  0  0  0  0  0  0  0  0  0  0  0
    1.8463   -6.1398   47.2801 C   0  0  2  0  0  0  0  0  0  0  0  0
    3.3270   -6.1517   47.2189 N   0  0  0  0  0  0  0  0  0  0  0  0
    2.0849   -3.4060   41.7041 C   0  0  0  0  0  0  0  0  0  0  0  0
    4.4365  -11.2096   49.3149 C   0  0  2  0  0  0  0  0  0  0  0  0
    4.2091  -11.9528   48.0496 N   0  0  0  0  0  0  0  0  0  0  0  0
    1.2714   -7.4715   46.6278 C   0  0  1  0  0  0  0  0  0  0  0  0
    1.8719   -8.6709   47.2675 O   0  0  0  0  0  0  0  0  0  0  0  0
    2.2022   -4.5030   42.8492 C   0  0  2  0  0  0  0  0  0  0  0  0
    1.4434   -5.7137   42.4685 N   0  0  0  0  0  0  0  0  0  0  0  0
    3.6030   -9.8531   49.3173 C   0  0  1  0  0  0  0  0  0  0  0  0
    2.1796  -10.0688   49.1383 O   0  0  0  0  0  0  0  0  0  0  0  0
   -0.3157   -7.4045   46.7285 C   0  0  2  0  0  0  0  0  0  0  0  0
   -0.9208   -8.5452   46.1467 O   0  0  0  0  0  0  0  0  0  0  0  0
    1.6435   -3.9218   44.2128 C   0  0  2  0  0  0  0  0  0  0  0  0
    3.8619   -9.1151   50.6690 C   0  0  2  0  0  0  0  0  0  0  0  0
    3.1524   -7.8931   50.7236 O   0  0  0  0  0  0  0  0  0  0  0  0
   -0.8597   -6.0980   46.0349 C   0  0  2  0  0  0  0  0  0  0  0  0
   -0.2244   -4.9088   46.6405 O   0  0  0  0  0  0  0  0  0  0  0  0
    2.4385   -2.6523   44.6281 C   0  0  2  0  0  0  0  0  0  0  0  0
    1.8468   -2.1530   45.8617 O   0  0  0  0  0  0  0  0  0  0  0  0
    5.4122   -8.8753   50.8646 C   0  0  2  0  0  0  0  0  0  0  0  0
    6.1436  -10.1611   50.7968 O   0  0  0  0  0  0  0  0  0  0  0  0
   -2.3795   -5.9905   46.1502 C   0  0  0  0  0  0  0  0  0  0  0  0
   -3.0161   -7.0240   45.4392 O   0  0  0  0  0  0  0  0  0  0  0  0
    2.3300   -1.5837   43.5153 C   0  0  1  0  0  0  0  0  0  0  0  0
    3.0639   -0.4451   43.9142 O   0  0  0  0  0  0  0  0  0  0  0  0
    5.7174   -8.1965   52.1913 C   0  0  0  0  0  0  0  0  0  0  0  0
    7.1031   -7.9974   52.3337 O   0  0  0  0  0  0  0  0  0  0  0  0
    1.5298   -8.8293   48.7304 C   0  0  0  0  0  0  0  0  0  0  0  0
  1  2  1  6  0  0  0
  1  7  1  0  0  0  0
  1 24  1  0  0  0  0
  3  4  1  6  0  0  0
  3  9  1  0  0  0  0
  3 31  1  0  0  0  0
  5  6  1  6  0  0  0
  5 10  1  0  0  0  0
  5 28  1  0  0  0  0
  7  8  1  6  0  0  0
  7 12  1  0  0  0  0
  9 14  1  0  0  0  0
 10 11  1  6  0  0  0
 10 16  1  0  0  0  0
 12 13  1  1  0  0  0
 12 18  1  0  0  0  0
 13 35  1  0  0  0  0
 14 15  1  6  0  0  0
 14 20  1  0  0  0  0
 16 17  1  1  0  0  0
 16 21  1  0  0  0  0
 17 35  1  0  0  0  0
 18 19  1  6  0  0  0
 18 23  1  0  0  0  0
 20  2  1  1  0  0  0
 20 25  1  0  0  0  0
 21 22  1  6  0  0  0
 21 27  1  0  0  0  0
 23 24  1  0  0  0  0
 23 29  1  1  0  0  0
 25 26  1  1  0  0  0
 25 31  1  0  0  0  0
 27 28  1  0  0  0  0
 27 33  1  1  0  0  0
 29 30  1  0  0  0  0
 31 32  1  1  0  0  0
 33 34  1  0  0  0  0
M  END
>  <CHROM.1>
-172.22767143,64.13148798,178.41798309,-162.15962489,76.74651985,-174.31492065
-65.24362042,-179.97400337,2.45877226,-6.62263602,46.89511952,1.93611633
-0.34169131,-0.65576605

>  <Name>
2o3v_lig

>  <RI>
0

>  <Rbt.Current_Directory>
/home/afrankz/demos/rdock_decoys_rna/rnas/2o3v

>  <Rbt.Executable>
rbdock ($Id: //depot/dev/client3/rdock/2013.1/src/exe/rbdock.cxx#4 $)

>  <Rbt.Library>
libRbt.so (2013.1, Build901 2013/11/27)

>  <Rbt.Parameter_File>
/export/apps/rDock/src/rDock_2013.1_src/data/scripts/dock_solv.prm

>  <Rbt.Receptor>
prm/pocket_docking_8.prm

>  <SCORE>
-13.1851

>  <SCORE.INTER>
-8.01644

>  <SCORE.INTER.CONST>
1

>  <SCORE.INTER.POLAR>
-0.87178

>  <SCORE.INTER.ROT>
8

>  <SCORE.INTER.SOLV>
11.5343

>  <SCORE.INTER.VDW>
-15.2165

>  <SCORE.INTER.norm>
-0.229041

>  <SCORE.INTRA>
-5.16865

>  <SCORE.INTRA.DIHEDRAL>
-9.67334

>  <SCORE.INTRA.DIHEDRAL.0>
13.1227

>  <SCORE.INTRA.POLAR>
0

>  <SCORE.INTRA.POLAR.0>
0

>  <SCORE.INTRA.REPUL>
0

>  <SCORE.INTRA.REPUL.0>
0

>  <SCORE.INTRA.SOLV>
-0.0962578

>  <SCORE.INTRA.SOLV.lig_0>
-89.1587

>  <SCORE.INTRA.VDW>
-0.283847

>  <SCORE.INTRA.VDW.0>
-0.838383

>  <SCORE.INTRA.norm>
-0.147676

>  <SCORE.RESTR>
0

>  <SCORE.RESTR.CAVITY>
0

>  <SCORE.RESTR.norm>
0

>  <SCORE.SYSTEM>
0

>  <SCORE.SYSTEM.CONST>
0

>  <SCORE.SYSTEM.DIHEDRAL>
0

>  <SCORE.SYSTEM.SOLV>
0

>  <SCORE.SYSTEM.norm>
0

>  <SCORE.heavy>
35

>  <SCORE.norm>
-0.376717

>  <RMSD>
8.012

$$$$
2o3v_lig
 OpenBabel02141814113D
libRbt.so/2013.1/901 2013/11/27
 35 37  0  0  0  0  0  0  0  0999 V2000
    6.2109   -6.5610   46.6320 C   0  0  2  0  0  0  0  0  0  0  0  0
    5.4058   -7.6096   46.0115 O   0  0  0  0  0  0  0  0  0  0  0  0
    3.3248  -11.1472   47.4544 C   0  0  2  0  0  0  0  0  0  0  0  0
    3.0780  -12.5121   48.0097 N   0  0  0  0  0  0  0  0  0  0  0  0
    0.8682   -1.9275   42.8118 C   0  0  2  0  0  0  0  0  0  0  0  0
    0.9679   -1.7633   41.3805 O   0  0  0  0  0  0  0  0  0  0  0  0
    6.0588   -5.3641   45.6407 C   0  0  2  0  0  0  0  0  0  0  0  0
    4.6368   -4.9789   45.4799 N   0  0  0  0  0  0  0  0  0  0  0  0
    4.1159  -11.2512   46.0801 C   0  0  0  0  0  0  0  0  0  0  0  0
    2.3268   -2.0425   43.3753 C   0  0  2  0  0  0  0  0  0  0  0  0
    3.1329   -0.8487   43.0146 N   0  0  0  0  0  0  0  0  0  0  0  0
    6.6880   -5.6998   44.2191 C   0  0  1  0  0  0  0  0  0  0  0  0
    6.4937   -4.5662   43.2782 O   0  0  0  0  0  0  0  0  0  0  0  0
    4.3755   -9.7869   45.5172 C   0  0  2  0  0  0  0  0  0  0  0  0
    5.1217   -9.8606   44.2427 N   0  0  0  0  0  0  0  0  0  0  0  0
    3.0468   -3.3696   42.8699 C   0  0  1  0  0  0  0  0  0  0  0  0
    4.3876   -3.5186   43.4034 O   0  0  0  0  0  0  0  0  0  0  0  0
    8.2110   -6.0982   44.4545 C   0  0  2  0  0  0  0  0  0  0  0  0
    8.8515   -6.4398   43.2383 O   0  0  0  0  0  0  0  0  0  0  0  0
    5.1953   -8.9394   46.5750 C   0  0  2  0  0  0  0  0  0  0  0  0
    2.1722   -4.5956   43.2830 C   0  0  2  0  0  0  0  0  0  0  0  0
    2.7595   -5.8066   42.8493 O   0  0  0  0  0  0  0  0  0  0  0  0
    8.3186   -7.2978   45.4710 C   0  0  2  0  0  0  0  0  0  0  0  0
    7.6465   -6.9413   46.7381 O   0  0  0  0  0  0  0  0  0  0  0  0
    4.4174   -8.8480   47.9177 C   0  0  2  0  0  0  0  0  0  0  0  0
    5.2447   -8.0933   48.8489 O   0  0  0  0  0  0  0  0  0  0  0  0
    0.7115   -4.4376   42.6994 C   0  0  2  0  0  0  0  0  0  0  0  0
    0.1118   -3.1623   43.1541 O   0  0  0  0  0  0  0  0  0  0  0  0
    9.7738   -7.6761   45.7433 C   0  0  0  0  0  0  0  0  0  0  0  0
    9.8571   -8.7618   46.6339 O   0  0  0  0  0  0  0  0  0  0  0  0
    4.1596  -10.2706   48.4671 C   0  0  1  0  0  0  0  0  0  0  0  0
    3.4481  -10.1597   49.6819 O   0  0  0  0  0  0  0  0  0  0  0  0
   -0.1916   -5.5897   43.1133 C   0  0  0  0  0  0  0  0  0  0  0  0
    0.2574   -6.7950   42.5426 O   0  0  0  0  0  0  0  0  0  0  0  0
    5.1250   -4.5183   42.6405 C   0  0  0  0  0  0  0  0  0  0  0  0
  1  2  1  6  0  0  0
  1  7  1  0  0  0  0
  1 24  1  0  0  0  0
  3  4  1  1  0  0  0
  3  9  1  0  0  0  0
  3 31  1  0  0  0  0
  5  6  1  6  0  0  0
  5 10  1  0  0  0  0
  5 28  1  0  0  0  0
  7  8  1  6  0  0  0
  7 12  1  0  0  0  0
  9 14  1  0  0  0  0
 10 11  1  6  0  0  0
 10 16  1  0  0  0  0
 12 13  1  6  0  0  0
 12 18  1  0  0  0  0
 13 35  1  0  0  0  0
 14 15  1  6  0  0  0
 14 20  1  0  0  0  0
 16 17  1  1  0  0  0
 16 21  1  0  0  0  0
 17 35  1  0  0  0  0
 18 19  1  6  0  0  0
 18 23  1  0  0  0  0
 20  2  1  6  0  0  0
 20 25  1  0  0  0  0
 21 22  1  6  0  0  0
 21 27  1  0  0  0  0
 23 24  1  0  0  0  0
 23 29  1  1  0  0  0
 25 26  1  1  0  0  0
 25 31  1  0  0  0  0
 27 28  1  0  0  0  0
 27 33  1  1  0  0  0
 29 30  1  0  0  0  0
 31 32  1  1  0  0  0
 33 34  1  0  0  0  0
M  END
>  <CHROM.1>
-178.44618199,-81.05742781,99.91514058,-164.23129273,179.34626487,-174.93488636
-179.00683306,-65.49922951,4.47516700,-6.47751808,44.94340984,-1.08263525
-0.07446347,-0.57577001

>  <Name>
2o3v_lig

>  <RI>
0

>  <Rbt.Current_Directory>
/home/afrankz/demos/rdock_decoys_rna/rnas/2o3v

>  <Rbt.Executable>
rbdock ($Id: //depot/dev/client3/rdock/2013.1/src/exe/rbdock.cxx#4 $)

>  <Rbt.Library>
libRbt.so (2013.1, Build901 2013/11/27)

>  <Rbt.Parameter_File>
/export/apps/rDock/src/rDock_2013.1_src/data/scripts/dock_solv.prm

>  <Rbt.Receptor>
prm/pocket_docking_6.prm

>  <SCORE>
-11.579

>  <SCORE.INTER>
-10.271

>  <SCORE.INTER.CONST>
1

>  <SCORE.INTER.POLAR>
-1.87415

>  <SCORE.INTER.ROT>
8

>  <SCORE.INTER.SOLV>
14.4079

>  <SCORE.INTER.VDW>
-14.3361

>  <SCORE.INTER.norm>
-0.293457

>  <SCORE.INTRA>
-1.30797

>  <SCORE.INTRA.DIHEDRAL>
-4.3074

>  <SCORE.INTRA.DIHEDRAL.0>
13.1227

>  <SCORE.INTRA.POLAR>
0

>  <SCORE.INTRA.POLAR.0>
0

>  <SCORE.INTRA.REPUL>
0

>  <SCORE.INTRA.REPUL.0>
0

>  <SCORE.INTRA.SOLV>
2.50785

>  <SCORE.INTRA.SOLV.lig_0>
-89.1587

>  <SCORE.INTRA.VDW>
-0.408194

>  <SCORE.INTRA.VDW.0>
-0.838383

>  <SCORE.INTRA.norm>
-0.0373705

>  <SCORE.RESTR>
0

>  <SCORE.RESTR.CAVITY>
0

>  <SCORE.RESTR.norm>
0

>  <SCORE.SYSTEM>
0

>  <SCORE.SYSTEM.CONST>
0

>  <SCORE.SYSTEM.DIHEDRAL>
0

>  <SCORE.SYSTEM.SOLV>
0

>  <SCORE.SYSTEM.norm>
0

>  <SCORE.heavy>
35

>  <SCORE.norm>
-0.330828

>  <RMSD>
8.100

$$$$
2o3v_lig
 OpenBabel02141814113D
libRbt.so/2013.1/901 2013/11/27
 35 37  0  0  0  0  0  0  0  0999 V2000
    2.9072   -7.6982   49.0813 C   0  0  2  0  0  0  0  0  0  0  0  0
    3.0425   -8.7596   48.0874 O   0  0  0  0  0  0  0  0  0  0  0  0
    4.3431  -12.9091   48.2192 C   0  0  2  0  0  0  0  0  0  0  0  0
    5.2261  -14.1094   48.3285 N   0  0  0  0  0  0  0  0  0  0  0  0
    2.2901   -1.3266   41.3439 C   0  0  2  0  0  0  0  0  0  0  0  0
    3.7177   -1.4895   41.1989 O   0  0  0  0  0  0  0  0  0  0  0  0
    2.0983   -6.6009   48.3199 C   0  0  2  0  0  0  0  0  0  0  0  0
    0.7920   -7.1240   47.8548 N   0  0  0  0  0  0  0  0  0  0  0  0
    4.7696  -12.0293   46.9665 C   0  0  0  0  0  0  0  0  0  0  0  0
    1.9248   -1.6739   42.8286 C   0  0  2  0  0  0  0  0  0  0  0  0
    2.6747   -0.8121   43.7772 N   0  0  0  0  0  0  0  0  0  0  0  0
    2.9165   -6.0245   47.0838 C   0  0  1  0  0  0  0  0  0  0  0  0
    2.1127   -5.0148   46.3472 O   0  0  0  0  0  0  0  0  0  0  0  0
    3.8233  -10.7543   46.8799 C   0  0  2  0  0  0  0  0  0  0  0  0
    4.2111   -9.9149   45.7260 N   0  0  0  0  0  0  0  0  0  0  0  0
    2.1865   -3.2108   43.1517 C   0  0  1  0  0  0  0  0  0  0  0  0
    1.8253   -3.5679   44.5106 O   0  0  0  0  0  0  0  0  0  0  0  0
    4.3007   -5.4736   47.6441 C   0  0  2  0  0  0  0  0  0  0  0  0
    5.1130   -4.9590   46.6043 O   0  0  0  0  0  0  0  0  0  0  0  0
    3.9264   -9.9136   48.2185 C   0  0  2  0  0  0  0  0  0  0  0  0
    1.3689   -4.0757   42.1407 C   0  0  2  0  0  0  0  0  0  0  0  0
    1.5716   -5.4556   42.3739 O   0  0  0  0  0  0  0  0  0  0  0  0
    5.0757   -6.6075   48.4169 C   0  0  2  0  0  0  0  0  0  0  0  0
    4.2253   -7.1462   49.4991 O   0  0  0  0  0  0  0  0  0  0  0  0
    3.5137  -10.7833   49.4390 C   0  0  2  0  0  0  0  0  0  0  0  0
    3.6708   -9.9618   50.6313 O   0  0  0  0  0  0  0  0  0  0  0  0
    1.7636   -3.6913   40.6589 C   0  0  2  0  0  0  0  0  0  0  0  0
    1.5547   -2.2431   40.4309 O   0  0  0  0  0  0  0  0  0  0  0  0
    6.3925   -6.0942   48.9976 C   0  0  0  0  0  0  0  0  0  0  0  0
    7.2975   -5.7518   47.9765 O   0  0  0  0  0  0  0  0  0  0  0  0
    4.4295  -12.0267   49.5249 C   0  0  1  0  0  0  0  0  0  0  0  0
    4.0307  -12.8011   50.6364 O   0  0  0  0  0  0  0  0  0  0  0  0
    0.9594   -4.4790   39.6359 C   0  0  0  0  0  0  0  0  0  0  0  0
    1.0094   -5.8550   39.9259 O   0  0  0  0  0  0  0  0  0  0  0  0
    2.6481   -4.6780   44.9752 C   0  0  0  0  0  0  0  0  0  0  0  0
  1  2  1  6  0  0  0
  1  7  1  0  0  0  0
  1 24  1  0  0  0  0
  3  4  1  1  0  0  0
  3  9  1  0  0  0  0
  3 31  1  0  0  0  0
  5  6  1  1  0  0  0
  5 10  1  0  0  0  0
  5 28  1  0  0  0  0
  7  8  1  6  0  0  0
  7 12  1  0  0  0  0
  9 14  1  0  0  0  0
 10 11  1  1  0  0  0
 10 16  1  0  0  0  0
 12 13  1  1  0  0  0
 12 18  1  0  0  0  0
 13 35  1  0  0  0  0
 14 15  1  6  0  0  0
 14 20  1  0  0  0  0
 16 17  1  1  0  0  0
 16 21  1  0  0  0  0
 17 35  1  0  0  0  0
 18 19  1  6  0  0  0
 18 23  1  0  0  0  0
 20  2  1  6  0  0  0
 20 25  1  0  0  0  0
 21 22  1  1  0  0  0
 21 27  1  0  0  0  0
 23 24  1  0  0  0  0
 23 29  1  1  0  0  0
 25 26  1  1  0  0  0
 25 31  1  0  0  0  0
 27 28  1  0  0  0  0
 27 33  1  6  0  0  0
 29 30  1  0  0  0  0
 31 32  1  1  0  0  0
 33 34  1  0  0  0  0
M  END
>  <CHROM.1>
168.33882441,-164.96330684,-173.04104077,-151.27624228,-176.06531333,-176.51425325
-66.37795108,-50.59939520,3.25344346,-6.68049984,45.90703530,-0.99746116
-1.17361479,-0.20563855

>  <Name>
2o3v_lig

>  <RI>
0

>  <Rbt.Current_Directory>
/home/afrankz/demos/rdock_decoys_rna/rnas/2o3v

>  <Rbt.Executable>
rbdock ($Id: //depot/dev/client3/rdock/2013.1/src/exe/rbdock.cxx#4 $)

>  <Rbt.Library>
libRbt.so (2013.1, Build901 2013/11/27)

>  <Rbt.Parameter_File>
/export/apps/rDock/src/rDock_2013.1_src/data/scripts/dock_solv.prm

>  <Rbt.Receptor>
prm/pocket_docking_8.prm

>  <SCORE>
-12.6524

>  <SCORE.INTER>
-7.8052

>  <SCORE.INTER.CONST>
1

>  <SCORE.INTER.POLAR>
-1.03637

>  <SCORE.INTER.ROT>
8

>  <SCORE.INTER.SOLV>
11.6509

>  <SCORE.INTER.VDW>
-14.5659

>  <SCORE.INTER.norm>
-0.223006

>  <SCORE.INTRA>
-4.84722

>  <SCORE.INTRA.DIHEDRAL>
-7.17806

>  <SCORE.INTRA.DIHEDRAL.0>
13.1227

>  <SCORE.INTRA.POLAR>
0

>  <SCORE.INTRA.POLAR.0>
0

>  <SCORE.INTRA.REPUL>
0

>  <SCORE.INTRA.REPUL.0>
0

>  <SCORE.INTRA.SOLV>
-0.848029

>  <SCORE.INTRA.SOLV.lig_0>
-89.1587

>  <SCORE.INTRA.VDW>
-0.834173

>  <SCORE.INTRA.VDW.0>
-0.838383

>  <SCORE.INTRA.norm>
-0.138492

>  <SCORE.RESTR>
0

>  <SCORE.RESTR.CAVITY>
0

>  <SCORE.RESTR.norm>
0

>  <SCORE.SYSTEM>
0

>  <SCORE.SYSTEM.CONST>
0

>  <SCORE.SYSTEM.DIHEDRAL>
0

>  <SCORE.SYSTEM.SOLV>
0

>  <SCORE.SYSTEM.norm>
0

>  <SCORE.heavy>
35

>  <SCORE.norm>
-0.361498

>  <RMSD>
8.140

$$$$
2o3v_lig
 OpenBabel02141814113D
libRbt.so/2013.1/901 2013/11/27
 35 37  0  0  0  0  0  0  0  0999 V2000
    3.3657  -10.1843   49.1656 C   0  0  2  0  0  0  0  0  0  0  0  0
    4.3930  -10.3931   48.1488 O   0  0  0  0  0  0  0  0  0  0  0  0
    5.9901  -13.8998   46.1290 C   0  0  2  0  0  0  0  0  0  0  0  0
    6.7393  -15.1688   45.8831 N   0  0  0  0  0  0  0  0  0  0  0  0
    4.5648   -4.2040   43.2078 C   0  0  2  0  0  0  0  0  0  0  0  0
    3.7845   -5.1892   42.4965 O   0  0  0  0  0  0  0  0  0  0  0  0
    2.7433   -8.8098   48.7635 C   0  0  2  0  0  0  0  0  0  0  0  0
    2.1920   -8.8529   47.3885 N   0  0  0  0  0  0  0  0  0  0  0  0
    6.9992  -12.7370   46.5230 C   0  0  0  0  0  0  0  0  0  0  0  0
    4.5190   -4.5763   44.7301 C   0  0  2  0  0  0  0  0  0  0  0  0
    5.0317   -5.9512   44.9578 N   0  0  0  0  0  0  0  0  0  0  0  0
    3.8054   -7.6316   48.8791 C   0  0  1  0  0  0  0  0  0  0  0  0
    3.2066   -6.3410   48.4501 O   0  0  0  0  0  0  0  0  0  0  0  0
    6.1766  -11.4027   46.7902 C   0  0  2  0  0  0  0  0  0  0  0  0
    7.0969  -10.3095   47.1701 N   0  0  0  0  0  0  0  0  0  0  0  0
    3.0497   -4.4280   45.3251 C   0  0  1  0  0  0  0  0  0  0  0  0
    2.9844   -4.7346   46.7416 O   0  0  0  0  0  0  0  0  0  0  0  0
    4.3551   -7.6309   50.3729 C   0  0  2  0  0  0  0  0  0  0  0  0
    5.3318   -6.6235   50.5654 O   0  0  0  0  0  0  0  0  0  0  0  0
    5.1179  -11.6431   47.9438 C   0  0  2  0  0  0  0  0  0  0  0  0
    2.5594   -2.9666   45.0755 C   0  0  2  0  0  0  0  0  0  0  0  0
    1.2503   -2.7784   45.5757 O   0  0  0  0  0  0  0  0  0  0  0  0
    4.9594   -9.0391   50.7410 C   0  0  2  0  0  0  0  0  0  0  0  0
    3.9402  -10.0897   50.5359 O   0  0  0  0  0  0  0  0  0  0  0  0
    4.1391  -12.7857   47.5530 C   0  0  2  0  0  0  0  0  0  0  0  0
    3.2253  -12.9767   48.6708 O   0  0  0  0  0  0  0  0  0  0  0  0
    2.6259   -2.6313   43.5319 C   0  0  2  0  0  0  0  0  0  0  0  0
    3.9993   -2.8405   43.0194 O   0  0  0  0  0  0  0  0  0  0  0  0
    5.4611   -9.0766   52.1838 C   0  0  0  0  0  0  0  0  0  0  0  0
    4.4228   -8.7914   53.0891 O   0  0  0  0  0  0  0  0  0  0  0  0
    4.9356  -14.0849   47.2886 C   0  0  1  0  0  0  0  0  0  0  0  0
    4.0254  -15.1036   46.9308 O   0  0  0  0  0  0  0  0  0  0  0  0
    2.1981   -1.2002   43.2441 C   0  0  0  0  0  0  0  0  0  0  0  0
    3.0865   -0.2912   43.8479 O   0  0  0  0  0  0  0  0  0  0  0  0
    3.1078   -6.1718   46.9521 C   0  0  0  0  0  0  0  0  0  0  0  0
  1  2  1  6  0  0  0
  1  7  1  0  0  0  0
  1 24  1  0  0  0  0
  3  4  1  1  0  0  0
  3  9  1  0  0  0  0
  3 31  1  0  0  0  0
  5  6  1  6  0  0  0
  5 10  1  0  0  0  0
  5 28  1  0  0  0  0
  7  8  1  6  0  0  0
  7 12  1  0  0  0  0
  9 14  1  0  0  0  0
 10 11  1  6  0  0  0
 10 16  1  0  0  0  0
 12 13  1  1  0  0  0
 12 18  1  0  0  0  0
 13 35  1  0  0  0  0
 14 15  1  1  0  0  0
 14 20  1  0  0  0  0
 16 17  1  1  0  0  0
 16 21  1  0  0  0  0
 17 35  1  0  0  0  0
 18 19  1  6  0  0  0
 18 23  1  0  0  0  0
 20  2  1  6  0  0  0
 20 25  1  0  0  0  0
 21 22  1  6  0  0  0
 21 27  1  0  0  0  0
 23 24  1  0  0  0  0
 23 29  1  1  0  0  0
 25 26  1  1  0  0  0
 25 31  1  0  0  0  0
 27 28  1  0  0  0  0
 27 33  1  1  0  0  0
 29 30  1  0  0  0  0
 31 32  1  6  0  0  0
 33 34  1  0  0  0  0
M  END
>  <CHROM.1>
-169.26473235,-77.98989700,-159.61417962,-73.23603503,172.85498040,-177.39190041
59.00682996,63.69968948,4.12794213,-7.99204846,47.09584341,0.68296874,-1.32700416
1.86973521

>  <Name>
2o3v_lig

>  <RI>
0

>  <Rbt.Current_Directory>
/home/afrankz/demos/rdock_decoys_rna/rnas/2o3v

>  <Rbt.Executable>
rbdock ($Id: //depot/dev/client3/rdock/2013.1/src/exe/rbdock.cxx#4 $)

>  <Rbt.Library>
libRbt.so (2013.1, Build901 2013/11/27)

>  <Rbt.Parameter_File>
/export/apps/rDock/src/rDock_2013.1_src/data/scripts/dock_solv.prm

>  <Rbt.Receptor>
prm/pocket_docking_8.prm

>  <SCORE>
-16.6398

>  <SCORE.INTER>
-12.4455

>  <SCORE.INTER.CONST>
1

>  <SCORE.INTER.POLAR>
-1.47126

>  <SCORE.INTER.ROT>
8

>  <SCORE.INTER.SOLV>
10.1295

>  <SCORE.INTER.VDW>
-15.7026

>  <SCORE.INTER.norm>
-0.355585

>  <SCORE.INTRA>
-4.19431

>  <SCORE.INTRA.DIHEDRAL>
-8.00929

>  <SCORE.INTRA.DIHEDRAL.0>
13.1227

>  <SCORE.INTRA.POLAR>
0

>  <SCORE.INTRA.POLAR.0>
0

>  <SCORE.INTRA.REPUL>
0

>  <SCORE.INTRA.REPUL.0>
0

>  <SCORE.INTRA.SOLV>
0.753258

>  <SCORE.INTRA.SOLV.lig_0>
-89.1587

>  <SCORE.INTRA.VDW>
-0.566299

>  <SCORE.INTRA.VDW.0>
-0.838383

>  <SCORE.INTRA.norm>
-0.119838

>  <SCORE.RESTR>
0

>  <SCORE.RESTR.CAVITY>
0

>  <SCORE.RESTR.norm>
0

>  <SCORE.SYSTEM>
0

>  <SCORE.SYSTEM.CONST>
0

>  <SCORE.SYSTEM.DIHEDRAL>
0

>  <SCORE.SYSTEM.SOLV>
0

>  <SCORE.SYSTEM.norm>
0

>  <SCORE.heavy>
35

>  <SCORE.norm>
-0.475422

>  <RMSD>
8.166

$$$$
2o3v_lig
 OpenBabel02141814113D
libRbt.so/2013.1/901 2013/11/27
 35 37  0  0  0  0  0  0  0  0999 V2000
    1.5721  -10.7293   48.2134 C   0  0  2  0  0  0  0  0  0  0  0  0
    2.2799   -9.5679   48.7456 O   0  0  0  0  0  0  0  0  0  0  0  0
    5.9136   -9.3731   51.1300 C   0  0  2  0  0  0  0  0  0  0  0  0
    7.3612   -9.3617   51.4995 N   0  0  0  0  0  0  0  0  0  0  0  0
    5.6422   -4.7843   44.1466 C   0  0  2  0  0  0  0  0  0  0  0  0
    6.3902   -5.4187   43.0866 O   0  0  0  0  0  0  0  0  0  0  0  0
    2.0555  -10.7895   46.7298 C   0  0  2  0  0  0  0  0  0  0  0  0
    3.5290  -10.9275   46.6515 N   0  0  0  0  0  0  0  0  0  0  0  0
    5.5324  -10.7611   50.4565 C   0  0  0  0  0  0  0  0  0  0  0  0
    4.6760   -5.8611   44.7509 C   0  0  2  0  0  0  0  0  0  0  0  0
    5.4332   -7.0399   45.2430 N   0  0  0  0  0  0  0  0  0  0  0  0
    1.5925   -9.5062   45.9123 C   0  0  1  0  0  0  0  0  0  0  0  0
    2.0997   -9.5617   44.5166 O   0  0  0  0  0  0  0  0  0  0  0  0
    3.9919  -10.7427   50.0630 C   0  0  2  0  0  0  0  0  0  0  0  0
    3.6187  -12.0225   49.4233 N   0  0  0  0  0  0  0  0  0  0  0  0
    3.5712   -6.3135   43.6975 C   0  0  1  0  0  0  0  0  0  0  0  0
    2.6421   -7.2860   44.2414 O   0  0  0  0  0  0  0  0  0  0  0  0
    0.0076   -9.4147   46.0270 C   0  0  2  0  0  0  0  0  0  0  0  0
   -0.4970   -8.2805   45.3452 O   0  0  0  0  0  0  0  0  0  0  0  0
    3.7016   -9.5395   49.0743 C   0  0  2  0  0  0  0  0  0  0  0  0
    2.7936   -5.0461   43.2202 C   0  0  2  0  0  0  0  0  0  0  0  0
    1.8021   -5.3869   42.2714 O   0  0  0  0  0  0  0  0  0  0  0  0
   -0.4364   -9.3715   47.5385 C   0  0  2  0  0  0  0  0  0  0  0  0
    0.0941  -10.5537   48.2495 O   0  0  0  0  0  0  0  0  0  0  0  0
    4.0829   -8.1869   49.7385 C   0  0  2  0  0  0  0  0  0  0  0  0
    3.8283   -7.1363   48.7625 O   0  0  0  0  0  0  0  0  0  0  0  0
    3.8034   -3.9863   42.6233 C   0  0  2  0  0  0  0  0  0  0  0  0
    4.8406   -3.6449   43.6236 O   0  0  0  0  0  0  0  0  0  0  0  0
   -1.9573   -9.3211   47.6773 C   0  0  0  0  0  0  0  0  0  0  0  0
   -2.3401   -9.2234   49.0274 O   0  0  0  0  0  0  0  0  0  0  0  0
    5.5801   -8.2018   50.1262 C   0  0  1  0  0  0  0  0  0  0  0  0
    5.8987   -6.9663   50.7313 O   0  0  0  0  0  0  0  0  0  0  0  0
    3.0952   -2.7138   42.1841 C   0  0  0  0  0  0  0  0  0  0  0  0
    2.5284   -2.0593   43.2934 O   0  0  0  0  0  0  0  0  0  0  0  0
    3.2424   -8.6144   44.2348 C   0  0  0  0  0  0  0  0  0  0  0  0
  1  2  1  6  0  0  0
  1  7  1  0  0  0  0
  1 24  1  0  0  0  0
  3  4  1  6  0  0  0
  3  9  1  0  0  0  0
  3 31  1  0  0  0  0
  5  6  1  6  0  0  0
  5 10  1  0  0  0  0
  5 28  1  0  0  0  0
  7  8  1  1  0  0  0
  7 12  1  0  0  0  0
  9 14  1  0  0  0  0
 10 11  1  6  0  0  0
 10 16  1  0  0  0  0
 12 13  1  6  0  0  0
 12 18  1  0  0  0  0
 13 35  1  0  0  0  0
 14 15  1  6  0  0  0
 14 20  1  0  0  0  0
 16 17  1  1  0  0  0
 16 21  1  0  0  0  0
 17 35  1  0  0  0  0
 18 19  1  6  0  0  0
 18 23  1  0  0  0  0
 20  2  1  1  0  0  0
 20 25  1  0  0  0  0
 21 22  1  6  0  0  0
 21 27  1  0  0  0  0
 23 24  1  0  0  0  0
 23 29  1  6  0  0  0
 25 26  1  6  0  0  0
 25 31  1  0  0  0  0
 27 28  1  0  0  0  0
 27 33  1  1  0  0  0
 29 30  1  0  0  0  0
 31 32  1  1  0  0  0
 33 34  1  0  0  0  0
M  END
>  <CHROM.1>
-74.33954429,-106.11384383,-71.11902891,-79.51867276,-167.55426365,-53.92501608
-177.39939366,64.59671190,3.05051081,-7.88809312,46.59810785,1.63099481,0.38299531
2.26159287

>  <Name>
2o3v_lig

>  <RI>
0

>  <Rbt.Current_Directory>
/home/afrankz/demos/rdock_decoys_rna/rnas/2o3v

>  <Rbt.Executable>
rbdock ($Id: //depot/dev/client3/rdock/2013.1/src/exe/rbdock.cxx#4 $)

>  <Rbt.Library>
libRbt.so (2013.1, Build901 2013/11/27)

>  <Rbt.Parameter_File>
/export/apps/rDock/src/rDock_2013.1_src/data/scripts/dock_solv.prm

>  <Rbt.Receptor>
prm/pocket_docking_6.prm

>  <SCORE>
-17.5766

>  <SCORE.INTER>
-17.7456

>  <SCORE.INTER.CONST>
1

>  <SCORE.INTER.POLAR>
-2.58635

>  <SCORE.INTER.ROT>
8

>  <SCORE.INTER.SOLV>
8.29612

>  <SCORE.INTER.VDW>
-14.908

>  <SCORE.INTER.norm>
-0.507017

>  <SCORE.INTRA>
0.168968

>  <SCORE.INTRA.DIHEDRAL>
-2.49148

>  <SCORE.INTRA.DIHEDRAL.0>
13.1227

>  <SCORE.INTRA.POLAR>
0

>  <SCORE.INTRA.POLAR.0>
0

>  <SCORE.INTRA.REPUL>
0

>  <SCORE.INTRA.REPUL.0>
0

>  <SCORE.INTRA.SOLV>
5.03897

>  <SCORE.INTRA.SOLV.lig_0>
-89.1587

>  <SCORE.INTRA.VDW>
-1.10478

>  <SCORE.INTRA.VDW.0>
-0.838383

>  <SCORE.INTRA.norm>
0.00482767

>  <SCORE.RESTR>
0

>  <SCORE.RESTR.CAVITY>
0

>  <SCORE.RESTR.norm>
0

>  <SCORE.SYSTEM>
0

>  <SCORE.SYSTEM.CONST>
0

>  <SCORE.SYSTEM.DIHEDRAL>
0

>  <SCORE.SYSTEM.SOLV>
0

>  <SCORE.SYSTEM.norm>
0

>  <SCORE.heavy>
35

>  <SCORE.norm>
-0.50219

>  <RMSD>
8.176

$$$$
2o3v_lig
 OpenBabel02141814113D
libRbt.so/2013.1/901 2013/11/27
 35 37  0  0  0  0  0  0  0  0999 V2000
    5.5316   -9.6530   45.8050 C   0  0  2  0  0  0  0  0  0  0  0  0
    5.4785   -8.8003   46.9894 O   0  0  0  0  0  0  0  0  0  0  0  0
    6.7372   -9.4184   51.1078 C   0  0  2  0  0  0  0  0  0  0  0  0
    7.6125   -9.5766   52.3082 N   0  0  0  0  0  0  0  0  0  0  0  0
    3.4886   -2.4508   41.2922 C   0  0  2  0  0  0  0  0  0  0  0  0
    4.6408   -3.1492   40.7723 O   0  0  0  0  0  0  0  0  0  0  0  0
    4.9005   -8.7556   44.6938 C   0  0  2  0  0  0  0  0  0  0  0  0
    5.6595   -7.4934   44.5290 N   0  0  0  0  0  0  0  0  0  0  0  0
    7.0504  -10.5610   50.0487 C   0  0  0  0  0  0  0  0  0  0  0  0
    3.0517   -3.1790   42.6102 C   0  0  2  0  0  0  0  0  0  0  0  0
    4.1634   -3.2123   43.5940 N   0  0  0  0  0  0  0  0  0  0  0  0
    3.3753   -8.4281   45.0040 C   0  0  1  0  0  0  0  0  0  0  0  0
    2.8066   -7.5377   43.9590 O   0  0  0  0  0  0  0  0  0  0  0  0
    6.1152  -10.3630   48.7780 C   0  0  2  0  0  0  0  0  0  0  0  0
    6.3990  -11.4106   47.7739 N   0  0  0  0  0  0  0  0  0  0  0  0
    2.5270   -4.6536   42.3180 C   0  0  1  0  0  0  0  0  0  0  0  0
    2.0843   -5.3395   43.5173 O   0  0  0  0  0  0  0  0  0  0  0  0
    2.6130   -9.8163   45.1634 C   0  0  2  0  0  0  0  0  0  0  0  0
    1.2432   -9.6237   45.4676 O   0  0  0  0  0  0  0  0  0  0  0  0
    6.3574   -8.9302   48.1474 C   0  0  2  0  0  0  0  0  0  0  0  0
    1.3528   -4.5673   41.2922 C   0  0  2  0  0  0  0  0  0  0  0  0
    0.8517   -5.8536   40.9856 O   0  0  0  0  0  0  0  0  0  0  0  0
    3.2910  -10.6948   46.2824 C   0  0  2  0  0  0  0  0  0  0  0  0
    4.7212  -10.8916   45.9656 O   0  0  0  0  0  0  0  0  0  0  0  0
    6.0548   -7.8192   49.1916 C   0  0  2  0  0  0  0  0  0  0  0  0
    6.3364   -6.5385   48.5577 O   0  0  0  0  0  0  0  0  0  0  0  0
    1.8338   -3.8237   39.9826 C   0  0  2  0  0  0  0  0  0  0  0  0
    2.3636   -2.4823   40.3187 O   0  0  0  0  0  0  0  0  0  0  0  0
    2.6004  -12.0498   46.4300 C   0  0  0  0  0  0  0  0  0  0  0  0
    2.9726  -12.9241   45.3928 O   0  0  0  0  0  0  0  0  0  0  0  0
    6.9600   -8.0101   50.4310 C   0  0  1  0  0  0  0  0  0  0  0  0
    6.6619   -6.9934   51.3646 O   0  0  0  0  0  0  0  0  0  0  0  0
    0.7091   -3.6767   38.9690 C   0  0  0  0  0  0  0  0  0  0  0  0
   -0.3142   -2.8608   39.4859 O   0  0  0  0  0  0  0  0  0  0  0  0
    3.1894   -6.0840   44.1086 C   0  0  0  0  0  0  0  0  0  0  0  0
  1  2  1  1  0  0  0
  1  7  1  0  0  0  0
  1 24  1  0  0  0  0
  3  4  1  1  0  0  0
  3  9  1  0  0  0  0
  3 31  1  0  0  0  0
  5  6  1  6  0  0  0
  5 10  1  0  0  0  0
  5 28  1  0  0  0  0
  7  8  1  1  0  0  0
  7 12  1  0  0  0  0
  9 14  1  0  0  0  0
 10 11  1  1  0  0  0
 10 16  1  0  0  0  0
 12 13  1  6  0  0  0
 12 18  1  0  0  0  0
 13 35  1  0  0  0  0
 14 15  1  6  0  0  0
 14 20  1  0  0  0  0
 16 17  1  1  0  0  0
 16 21  1  0  0  0  0
 17 35  1  0  0  0  0
 18 19  1  1  0  0  0
 18 23  1  0  0  0  0
 20  2  1  6  0  0  0
 20 25  1  0  0  0  0
 21 22  1  6  0  0  0
 21 27  1  0  0  0  0
 23 24  1  0  0  0  0
 23 29  1  6  0  0  0
 25 26  1  6  0  0  0
 25 31  1  0  0  0  0
 27 28  1  0  0  0  0
 27 33  1  6  0  0  0
 29 30  1  0  0  0  0
 31 32  1  1  0  0  0
 33 34  1  0  0  0  0
M  END
>  <CHROM.1>
-155.75324657,-78.48580696,-151.62836218,-90.99909160,-113.46419468,-61.54960402
76.93856045,63.89106470,3.99890345,-7.33917255,45.17132196,0.91764681,0.90740386
2.73625898

>  <Name>
2o3v_lig

>  <RI>
0

>  <Rbt.Current_Directory>
/home/afrankz/demos/rdock_decoys_rna/rnas/2o3v

>  <Rbt.Executable>
rbdock ($Id: //depot/dev/client3/rdock/2013.1/src/exe/rbdock.cxx#4 $)

>  <Rbt.Library>
libRbt.so (2013.1, Build901 2013/11/27)

>  <Rbt.Parameter_File>
/export/apps/rDock/src/rDock_2013.1_src/data/scripts/dock_solv.prm

>  <Rbt.Receptor>
prm/pocket_docking_7.prm

>  <SCORE>
-11.055

>  <SCORE.INTER>
-14.5329

>  <SCORE.INTER.CONST>
1

>  <SCORE.INTER.POLAR>
-2.73768

>  <SCORE.INTER.ROT>
8

>  <SCORE.INTER.SOLV>
12.1757

>  <SCORE.INTER.VDW>
-13.5549

>  <SCORE.INTER.norm>
-0.415225

>  <SCORE.INTRA>
3.47789

>  <SCORE.INTRA.DIHEDRAL>
6.12175

>  <SCORE.INTRA.DIHEDRAL.0>
13.1227

>  <SCORE.INTRA.POLAR>
0

>  <SCORE.INTRA.POLAR.0>
0

>  <SCORE.INTRA.REPUL>
0

>  <SCORE.INTRA.REPUL.0>
0

>  <SCORE.INTRA.SOLV>
3.05368

>  <SCORE.INTRA.SOLV.lig_0>
-89.1587

>  <SCORE.INTRA.VDW>
-1.10983

>  <SCORE.INTRA.VDW.0>
-0.838383

>  <SCORE.INTRA.norm>
0.0993682

>  <SCORE.RESTR>
0

>  <SCORE.RESTR.CAVITY>
0

>  <SCORE.RESTR.norm>
0

>  <SCORE.SYSTEM>
0

>  <SCORE.SYSTEM.CONST>
0

>  <SCORE.SYSTEM.DIHEDRAL>
0

>  <SCORE.SYSTEM.SOLV>
0

>  <SCORE.SYSTEM.norm>
0

>  <SCORE.heavy>
35

>  <SCORE.norm>
-0.315857

>  <RMSD>
8.273

$$$$
2o3v_lig
 OpenBabel02141814113D
libRbt.so/2013.1/901 2013/11/27
 35 37  0  0  0  0  0  0  0  0999 V2000
    4.2122   -8.0681   48.0317 C   0  0  2  0  0  0  0  0  0  0  0  0
    5.2900   -7.3832   48.7404 O   0  0  0  0  0  0  0  0  0  0  0  0
    6.8965   -7.7531   52.7665 C   0  0  2  0  0  0  0  0  0  0  0  0
    7.6170   -8.3027   53.9543 N   0  0  0  0  0  0  0  0  0  0  0  0
    3.4300   -2.3728   41.6026 C   0  0  2  0  0  0  0  0  0  0  0  0
    4.5128   -2.9676   40.8547 O   0  0  0  0  0  0  0  0  0  0  0  0
    4.4077   -7.6025   46.5541 C   0  0  2  0  0  0  0  0  0  0  0  0
    5.7523   -7.9692   46.0502 N   0  0  0  0  0  0  0  0  0  0  0  0
    5.7277   -8.7383   52.3323 C   0  0  0  0  0  0  0  0  0  0  0  0
    3.2137   -3.2416   42.8897 C   0  0  2  0  0  0  0  0  0  0  0  0
    4.4588   -3.3200   43.6949 N   0  0  0  0  0  0  0  0  0  0  0  0
    4.1867   -6.0349   46.4018 C   0  0  1  0  0  0  0  0  0  0  0  0
    4.4206   -5.6056   44.9985 O   0  0  0  0  0  0  0  0  0  0  0  0
    4.9856   -8.1368   51.0611 C   0  0  2  0  0  0  0  0  0  0  0  0
    3.9001   -9.0451   50.6331 N   0  0  0  0  0  0  0  0  0  0  0  0
    2.6949   -4.7031   42.5292 C   0  0  1  0  0  0  0  0  0  0  0  0
    2.4542   -5.5188   43.7045 O   0  0  0  0  0  0  0  0  0  0  0  0
    2.7297   -5.7038   46.9508 C   0  0  2  0  0  0  0  0  0  0  0  0
    2.4507   -4.3172   46.8776 O   0  0  0  0  0  0  0  0  0  0  0  0
    6.0192   -7.9349   49.8779 C   0  0  2  0  0  0  0  0  0  0  0  0
    1.3802   -4.5707   41.6969 C   0  0  2  0  0  0  0  0  0  0  0  0
    0.8772   -5.8425   41.3377 O   0  0  0  0  0  0  0  0  0  0  0  0
    2.5714   -6.2035   48.4370 C   0  0  2  0  0  0  0  0  0  0  0  0
    2.8667   -7.6498   48.5125 O   0  0  0  0  0  0  0  0  0  0  0  0
    7.1620   -6.9752   50.3130 C   0  0  2  0  0  0  0  0  0  0  0  0
    8.0899   -6.8693   49.1955 O   0  0  0  0  0  0  0  0  0  0  0  0
    1.6409   -3.6854   40.4133 C   0  0  2  0  0  0  0  0  0  0  0  0
    2.1751   -2.3604   40.8030 O   0  0  0  0  0  0  0  0  0  0  0  0
    1.1679   -5.9310   48.9762 C   0  0  0  0  0  0  0  0  0  0  0  0
    1.0265   -6.4152   50.2893 O   0  0  0  0  0  0  0  0  0  0  0  0
    7.8844   -7.5549   51.5516 C   0  0  1  0  0  0  0  0  0  0  0  0
    8.9122   -6.6631   51.9292 O   0  0  0  0  0  0  0  0  0  0  0  0
    0.3752   -3.4917   39.5921 C   0  0  0  0  0  0  0  0  0  0  0  0
   -0.5892   -2.7862   40.3353 O   0  0  0  0  0  0  0  0  0  0  0  0
    3.6096   -6.3655   43.9752 C   0  0  0  0  0  0  0  0  0  0  0  0
  1  2  1  1  0  0  0
  1  7  1  0  0  0  0
  1 24  1  0  0  0  0
  3  4  1  1  0  0  0
  3  9  1  0  0  0  0
  3 31  1  0  0  0  0
  5  6  1  6  0  0  0
  5 10  1  0  0  0  0
  5 28  1  0  0  0  0
  7  8  1  1  0  0  0
  7 12  1  0  0  0  0
  9 14  1  0  0  0  0
 10 11  1  6  0  0  0
 10 16  1  0  0  0  0
 12 13  1  6  0  0  0
 12 18  1  0  0  0  0
 13 35  1  0  0  0  0
 14 15  1  6  0  0  0
 14 20  1  0  0  0  0
 16 17  1  1  0  0  0
 16 21  1  0  0  0  0
 17 35  1  0  0  0  0
 18 19  1  1  0  0  0
 18 23  1  0  0  0  0
 20  2  1  6  0  0  0
 20 25  1  0  0  0  0
 21 22  1  6  0  0  0
 21 27  1  0  0  0  0
 23 24  1  0  0  0  0
 23 29  1  6  0  0  0
 25 26  1  6  0  0  0
 25 31  1  0  0  0  0
 27 28  1  0  0  0  0
 27 33  1  1  0  0  0
 29 30  1  0  0  0  0
 31 32  1  1  0  0  0
 33 34  1  0  0  0  0
M  END
>  <CHROM.1>
-145.33885064,54.04095020,97.31245689,-96.58169839,95.52833840,-63.26676435
178.31122024,63.28320242,3.92926112,-5.91479496,46.46149211,1.18234862,0.09304702
1.99921073

>  <Name>
2o3v_lig

>  <RI>
0

>  <Rbt.Current_Directory>
/home/afrankz/demos/rdock_decoys_rna/rnas/2o3v

>  <Rbt.Executable>
rbdock ($Id: //depot/dev/client3/rdock/2013.1/src/exe/rbdock.cxx#4 $)

>  <Rbt.Library>
libRbt.so (2013.1, Build901 2013/11/27)

>  <Rbt.Parameter_File>
/export/apps/rDock/src/rDock_2013.1_src/data/scripts/dock_solv.prm

>  <Rbt.Receptor>
prm/pocket_docking_8.prm

>  <SCORE>
-11.5894

>  <SCORE.INTER>
-15.2542

>  <SCORE.INTER.CONST>
1

>  <SCORE.INTER.POLAR>
-1.83095

>  <SCORE.INTER.ROT>
8

>  <SCORE.INTER.SOLV>
15.8251

>  <SCORE.INTER.VDW>
-18.2746

>  <SCORE.INTER.norm>
-0.435833

>  <SCORE.INTRA>
3.66472

>  <SCORE.INTRA.DIHEDRAL>
6.03898

>  <SCORE.INTRA.DIHEDRAL.0>
13.1227

>  <SCORE.INTRA.POLAR>
0

>  <SCORE.INTRA.POLAR.0>
0

>  <SCORE.INTRA.REPUL>
0

>  <SCORE.INTRA.REPUL.0>
0

>  <SCORE.INTRA.SOLV>
4.61664

>  <SCORE.INTRA.SOLV.lig_0>
-89.1587

>  <SCORE.INTRA.VDW>
-1.66309

>  <SCORE.INTRA.VDW.0>
-0.838383

>  <SCORE.INTRA.norm>
0.104706

>  <SCORE.RESTR>
0

>  <SCORE.RESTR.CAVITY>
0

>  <SCORE.RESTR.norm>
0

>  <SCORE.SYSTEM>
0

>  <SCORE.SYSTEM.CONST>
0

>  <SCORE.SYSTEM.DIHEDRAL>
0

>  <SCORE.SYSTEM.SOLV>
0

>  <SCORE.SYSTEM.norm>
0

>  <SCORE.heavy>
35

>  <SCORE.norm>
-0.331127

>  <RMSD>
8.299

$$$$
2o3v_lig
 OpenBabel02141814113D
libRbt.so/2013.1/901 2013/11/27
 35 37  0  0  0  0  0  0  0  0999 V2000
   -0.8184   -4.8881   42.3771 C   0  0  2  0  0  0  0  0  0  0  0  0
   -0.2686   -3.7466   41.6508 O   0  0  0  0  0  0  0  0  0  0  0  0
    3.0157   -2.4188   39.1255 C   0  0  2  0  0  0  0  0  0  0  0  0
    4.3580   -2.3541   38.4725 N   0  0  0  0  0  0  0  0  0  0  0  0
   -4.9340    0.0896   39.8392 C   0  0  2  0  0  0  0  0  0  0  0  0
   -6.1960    0.5992   40.3219 O   0  0  0  0  0  0  0  0  0  0  0  0
   -2.3349   -4.5353   42.4961 C   0  0  2  0  0  0  0  0  0  0  0  0
   -2.9492   -4.3531   41.1598 N   0  0  0  0  0  0  0  0  0  0  0  0
    3.1648   -2.2516   40.6988 C   0  0  0  0  0  0  0  0  0  0  0  0
   -4.3033   -0.7713   40.9879 C   0  0  2  0  0  0  0  0  0  0  0  0
   -5.2181   -1.8677   41.3954 N   0  0  0  0  0  0  0  0  0  0  0  0
   -2.5633   -3.2292   43.3744 C   0  0  1  0  0  0  0  0  0  0  0  0
   -4.0077   -2.8857   43.4384 O   0  0  0  0  0  0  0  0  0  0  0  0
    1.7256   -2.3358   41.3696 C   0  0  2  0  0  0  0  0  0  0  0  0
    1.8430   -2.1939   42.8367 N   0  0  0  0  0  0  0  0  0  0  0  0
   -3.9176    0.1243   42.2465 C   0  0  1  0  0  0  0  0  0  0  0  0
   -3.3007   -0.6422   43.3126 O   0  0  0  0  0  0  0  0  0  0  0  0
   -1.8906   -3.4862   44.7939 C   0  0  2  0  0  0  0  0  0  0  0  0
   -2.0231   -2.3596   45.6420 O   0  0  0  0  0  0  0  0  0  0  0  0
    1.0441   -3.7207   41.0134 C   0  0  2  0  0  0  0  0  0  0  0  0
   -2.9464    1.2518   41.7731 C   0  0  2  0  0  0  0  0  0  0  0  0
   -2.5767    2.0885   42.8515 O   0  0  0  0  0  0  0  0  0  0  0  0
   -0.3672   -3.8532   44.6262 C   0  0  2  0  0  0  0  0  0  0  0  0
   -0.2304   -5.0265   43.7378 O   0  0  0  0  0  0  0  0  0  0  0  0
    0.9079   -3.8786   39.4731 C   0  0  2  0  0  0  0  0  0  0  0  0
    0.3137   -5.1841   39.2207 O   0  0  0  0  0  0  0  0  0  0  0  0
   -3.6180    2.0911   40.6139 C   0  0  2  0  0  0  0  0  0  0  0  0
   -4.0076    1.2022   39.4955 O   0  0  0  0  0  0  0  0  0  0  0  0
    0.2940   -4.1415   45.9732 C   0  0  0  0  0  0  0  0  0  0  0  0
    1.0319   -3.0317   46.4235 O   0  0  0  0  0  0  0  0  0  0  0  0
    2.3054   -3.7938   38.8161 C   0  0  1  0  0  0  0  0  0  0  0  0
    2.1533   -3.9342   37.4192 O   0  0  0  0  0  0  0  0  0  0  0  0
   -2.6899    3.1762   40.0894 C   0  0  0  0  0  0  0  0  0  0  0  0
   -3.3341    3.9346   39.0944 O   0  0  0  0  0  0  0  0  0  0  0  0
   -4.2912   -1.4956   43.9575 C   0  0  0  0  0  0  0  0  0  0  0  0
  1  2  1  1  0  0  0
  1  7  1  0  0  0  0
  1 24  1  0  0  0  0
  3  4  1  6  0  0  0
  3  9  1  0  0  0  0
  3 31  1  0  0  0  0
  5  6  1  1  0  0  0
  5 10  1  0  0  0  0
  5 28  1  0  0  0  0
  7  8  1  6  0  0  0
  7 12  1  0  0  0  0
  9 14  1  0  0  0  0
 10 11  1  1  0  0  0
 10 16  1  0  0  0  0
 12 13  1  1  0  0  0
 12 18  1  0  0  0  0
 13 35  1  0  0  0  0
 14 15  1  1  0  0  0
 14 20  1  0  0  0  0
 16 17  1  1  0  0  0
 16 21  1  0  0  0  0
 17 35  1  0  0  0  0
 18 19  1  1  0  0  0
 18 23  1  0  0  0  0
 20  2  1  1  0  0  0
 20 25  1  0  0  0  0
 21 22  1  1  0  0  0
 21 27  1  0  0  0  0
 23 24  1  0  0  0  0
 23 29  1  1  0  0  0
 25 26  1  1  0  0  0
 25 31  1  0  0  0  0
 27 28  1  0  0  0  0
 27 33  1  6  0  0  0
 29 30  1  0  0  0  0
 31 32  1  6  0  0  0
 33 34  1  0  0  0  0
M  END
>  <CHROM.1>
-165.09191955,-165.89268577,42.42408297,-71.27866603,104.29919795,-135.68685193
-100.39522070,-177.86665223,-1.36052324,-1.91212560,41.73138000,0.39673782
-0.58914893,2.19400121

>  <Name>
2o3v_lig

>  <RI>
0

>  <Rbt.Current_Directory>
/home/afrankz/demos/rdock_decoys_rna/rnas/2o3v

>  <Rbt.Executable>
rbdock ($Id: //depot/dev/client3/rdock/2013.1/src/exe/rbdock.cxx#4 $)

>  <Rbt.Library>
libRbt.so (2013.1, Build901 2013/11/27)

>  <Rbt.Parameter_File>
/export/apps/rDock/src/rDock_2013.1_src/data/scripts/dock_solv.prm

>  <Rbt.Receptor>
prm/blind_docking_60.prm

>  <SCORE>
1.96002

>  <SCORE.INTER>
-5.5431

>  <SCORE.INTER.CONST>
1

>  <SCORE.INTER.POLAR>
-0.998822

>  <SCORE.INTER.ROT>
8

>  <SCORE.INTER.SOLV>
17.4174

>  <SCORE.INTER.VDW>
-15.1051

>  <SCORE.INTER.norm>
-0.158374

>  <SCORE.INTRA>
5.02213

>  <SCORE.INTRA.DIHEDRAL>
7.03051

>  <SCORE.INTRA.DIHEDRAL.0>
13.1227

>  <SCORE.INTRA.POLAR>
0

>  <SCORE.INTRA.POLAR.0>
0

>  <SCORE.INTRA.REPUL>
0

>  <SCORE.INTRA.REPUL.0>
0

>  <SCORE.INTRA.SOLV>
5.67225

>  <SCORE.INTRA.SOLV.lig_0>
-89.1587

>  <SCORE.INTRA.VDW>
-1.32925

>  <SCORE.INTRA.VDW.0>
-0.838383

>  <SCORE.INTRA.norm>
0.143489

>  <SCORE.RESTR>
2.481

>  <SCORE.RESTR.CAVITY>
2.481

>  <SCORE.RESTR.norm>
0.0708856

>  <SCORE.SYSTEM>
0

>  <SCORE.SYSTEM.CONST>
0

>  <SCORE.SYSTEM.DIHEDRAL>
0

>  <SCORE.SYSTEM.SOLV>
0

>  <SCORE.SYSTEM.norm>
0

>  <SCORE.heavy>
35

>  <SCORE.norm>
0.0560006

>  <RMSD>
8.305

$$$$
2o3v_lig
 OpenBabel02141814113D
libRbt.so/2013.1/901 2013/11/27
 35 37  0  0  0  0  0  0  0  0999 V2000
    2.3167   -7.4243   49.6613 C   0  0  2  0  0  0  0  0  0  0  0  0
    1.8893   -8.3127   48.5839 O   0  0  0  0  0  0  0  0  0  0  0  0
    1.4704  -12.5824   47.8615 C   0  0  2  0  0  0  0  0  0  0  0  0
    1.0679  -14.0109   48.0338 N   0  0  0  0  0  0  0  0  0  0  0  0
    2.0580   -1.2473   41.8709 C   0  0  2  0  0  0  0  0  0  0  0  0
    3.4215   -1.4920   41.4626 O   0  0  0  0  0  0  0  0  0  0  0  0
    2.0036   -6.0035   49.0942 C   0  0  2  0  0  0  0  0  0  0  0  0
    0.5650   -5.8619   48.7677 N   0  0  0  0  0  0  0  0  0  0  0  0
    2.3624  -12.1140   49.0904 C   0  0  0  0  0  0  0  0  0  0  0  0
    2.0107   -1.3419   43.4352 C   0  0  2  0  0  0  0  0  0  0  0  0
    2.9515   -0.3752   44.0560 N   0  0  0  0  0  0  0  0  0  0  0  0
    2.8802   -5.6826   47.8065 C   0  0  1  0  0  0  0  0  0  0  0  0
    2.5357   -4.3456   47.2568 O   0  0  0  0  0  0  0  0  0  0  0  0
    2.7669  -10.5895   48.8885 C   0  0  2  0  0  0  0  0  0  0  0  0
    3.5889  -10.1297   50.0284 N   0  0  0  0  0  0  0  0  0  0  0  0
    2.3207   -2.8190   43.9420 C   0  0  1  0  0  0  0  0  0  0  0  0
    2.2508   -2.9432   45.3858 O   0  0  0  0  0  0  0  0  0  0  0  0
    4.4091   -5.8439   48.2189 C   0  0  2  0  0  0  0  0  0  0  0  0
    5.2707   -5.5998   47.1216 O   0  0  0  0  0  0  0  0  0  0  0  0
    1.4639   -9.6968   48.7671 C   0  0  2  0  0  0  0  0  0  0  0  0
    1.3006   -3.7957   43.2756 C   0  0  2  0  0  0  0  0  0  0  0  0
    1.5354   -5.1294   43.6824 O   0  0  0  0  0  0  0  0  0  0  0  0
    4.6769   -7.2845   48.7991 C   0  0  2  0  0  0  0  0  0  0  0  0
    3.7744   -7.5391   49.9416 O   0  0  0  0  0  0  0  0  0  0  0  0
    0.5945  -10.1656   47.5668 C   0  0  2  0  0  0  0  0  0  0  0  0
   -0.5985   -9.3305   47.5418 O   0  0  0  0  0  0  0  0  0  0  0  0
    1.3776   -3.6652   41.7020 C   0  0  2  0  0  0  0  0  0  0  0  0
    1.1385   -2.2630   41.2904 O   0  0  0  0  0  0  0  0  0  0  0  0
    6.1308   -7.4535   49.2378 C   0  0  0  0  0  0  0  0  0  0  0  0
    6.3959   -6.7185   50.4076 O   0  0  0  0  0  0  0  0  0  0  0  0
    0.2017  -11.6493   47.7574 C   0  0  1  0  0  0  0  0  0  0  0  0
   -0.5813  -12.0511   46.6531 O   0  0  0  0  0  0  0  0  0  0  0  0
    0.3687   -4.5682   41.0086 C   0  0  0  0  0  0  0  0  0  0  0  0
    0.7120   -5.9203   41.1925 O   0  0  0  0  0  0  0  0  0  0  0  0
    2.9659   -4.1355   45.8240 C   0  0  0  0  0  0  0  0  0  0  0  0
  1  2  1  6  0  0  0
  1  7  1  0  0  0  0
  1 24  1  0  0  0  0
  3  4  1  1  0  0  0
  3  9  1  0  0  0  0
  3 31  1  0  0  0  0
  5  6  1  6  0  0  0
  5 10  1  0  0  0  0
  5 28  1  0  0  0  0
  7  8  1  6  0  0  0
  7 12  1  0  0  0  0
  9 14  1  0  0  0  0
 10 11  1  1  0  0  0
 10 16  1  0  0  0  0
 12 13  1  1  0  0  0
 12 18  1  0  0  0  0
 13 35  1  0  0  0  0
 14 15  1  1  0  0  0
 14 20  1  0  0  0  0
 16 17  1  1  0  0  0
 16 21  1  0  0  0  0
 17 35  1  0  0  0  0
 18 19  1  6  0  0  0
 18 23  1  0  0  0  0
 20  2  1  6  0  0  0
 20 25  1  0  0  0  0
 21 22  1  6  0  0  0
 21 27  1  0  0  0  0
 23 24  1  0  0  0  0
 23 29  1  1  0  0  0
 25 26  1  1  0  0  0
 25 31  1  0  0  0  0
 27 28  1  0  0  0  0
 27 33  1  6  0  0  0
 29 30  1  0  0  0  0
 31 32  1  6  0  0  0
 33 34  1  0  0  0  0
M  END
>  <CHROM.1>
-154.20952720,-161.26371009,165.93634430,-160.63289272,-166.13749618,-80.60976202
71.70644551,-67.88117258,2.28060146,-6.54270816,46.40372602,-1.55639768,-0.86383507
-0.64575163

>  <Name>
2o3v_lig

>  <RI>
0

>  <Rbt.Current_Directory>
/home/afrankz/demos/rdock_decoys_rna/rnas/2o3v

>  <Rbt.Executable>
rbdock ($Id: //depot/dev/client3/rdock/2013.1/src/exe/rbdock.cxx#4 $)

>  <Rbt.Library>
libRbt.so (2013.1, Build901 2013/11/27)

>  <Rbt.Parameter_File>
/export/apps/rDock/src/rDock_2013.1_src/data/scripts/dock_solv.prm

>  <Rbt.Receptor>
prm/pocket_docking_6.prm

>  <SCORE>
-14.1326

>  <SCORE.INTER>
-12.8371

>  <SCORE.INTER.CONST>
1

>  <SCORE.INTER.POLAR>
-1.74579

>  <SCORE.INTER.ROT>
8

>  <SCORE.INTER.SOLV>
16.7905

>  <SCORE.INTER.VDW>
-17.2689

>  <SCORE.INTER.norm>
-0.366774

>  <SCORE.INTRA>
-1.30229

>  <SCORE.INTRA.DIHEDRAL>
-2.53932

>  <SCORE.INTRA.DIHEDRAL.0>
13.1227

>  <SCORE.INTRA.POLAR>
0

>  <SCORE.INTRA.POLAR.0>
0

>  <SCORE.INTRA.REPUL>
0

>  <SCORE.INTRA.REPUL.0>
0

>  <SCORE.INTRA.SOLV>
2.10462

>  <SCORE.INTRA.SOLV.lig_0>
-89.1587

>  <SCORE.INTRA.VDW>
-1.08494

>  <SCORE.INTRA.VDW.0>
-0.838383

>  <SCORE.INTRA.norm>
-0.0372083

>  <SCORE.RESTR>
0.00677992

>  <SCORE.RESTR.CAVITY>
0.00677992

>  <SCORE.RESTR.norm>
0.000193712

>  <SCORE.SYSTEM>
0

>  <SCORE.SYSTEM.CONST>
0

>  <SCORE.SYSTEM.DIHEDRAL>
0

>  <SCORE.SYSTEM.SOLV>
0

>  <SCORE.SYSTEM.norm>
0

>  <SCORE.heavy>
35

>  <SCORE.norm>
-0.403789

>  <RMSD>
8.310

$$$$
2o3v_lig
 OpenBabel02141814113D
libRbt.so/2013.1/901 2013/11/27
 35 37  0  0  0  0  0  0  0  0999 V2000
    2.8578   -8.7324   45.0153 C   0  0  2  0  0  0  0  0  0  0  0  0
    2.7808   -7.8587   46.1830 O   0  0  0  0  0  0  0  0  0  0  0  0
    4.1208   -8.2063   50.3074 C   0  0  2  0  0  0  0  0  0  0  0  0
    4.1976   -8.6384   51.7356 N   0  0  0  0  0  0  0  0  0  0  0  0
    3.0711   -1.4070   43.0056 C   0  0  2  0  0  0  0  0  0  0  0  0
    4.0557   -2.3263   43.5261 O   0  0  0  0  0  0  0  0  0  0  0  0
    2.8392   -7.7282   43.8196 C   0  0  2  0  0  0  0  0  0  0  0  0
    3.9718   -6.7759   43.9019 N   0  0  0  0  0  0  0  0  0  0  0  0
    2.7326   -7.4850   50.0285 C   0  0  0  0  0  0  0  0  0  0  0  0
    1.7267   -2.1977   42.8454 C   0  0  2  0  0  0  0  0  0  0  0  0
    1.2978   -2.7867   44.1393 N   0  0  0  0  0  0  0  0  0  0  0  0
    1.4675   -6.9261   43.7520 C   0  0  1  0  0  0  0  0  0  0  0  0
    1.4872   -5.9455   42.6357 O   0  0  0  0  0  0  0  0  0  0  0  0
    2.6718   -7.0463   48.5013 C   0  0  2  0  0  0  0  0  0  0  0  0
    1.3814   -6.3825   48.2174 N   0  0  0  0  0  0  0  0  0  0  0  0
    1.8429   -3.3309   41.7331 C   0  0  1  0  0  0  0  0  0  0  0  0
    0.6020   -4.0573   41.5403 O   0  0  0  0  0  0  0  0  0  0  0  0
    0.2937   -7.9971   43.6585 C   0  0  2  0  0  0  0  0  0  0  0  0
   -0.9766   -7.3720   43.6184 O   0  0  0  0  0  0  0  0  0  0  0  0
    2.8438   -8.3147   47.5680 C   0  0  2  0  0  0  0  0  0  0  0  0
    2.2815   -2.6643   40.3908 C   0  0  2  0  0  0  0  0  0  0  0  0
    2.4118   -3.6283   39.3646 O   0  0  0  0  0  0  0  0  0  0  0  0
    0.3592   -8.9978   44.8743 C   0  0  2  0  0  0  0  0  0  0  0  0
    1.6867   -9.6464   44.9171 O   0  0  0  0  0  0  0  0  0  0  0  0
    4.2010   -9.0174   47.8517 C   0  0  2  0  0  0  0  0  0  0  0  0
    4.2715  -10.1902   46.9910 O   0  0  0  0  0  0  0  0  0  0  0  0
    3.6358   -1.8754   40.5973 C   0  0  2  0  0  0  0  0  0  0  0  0
    3.4881   -0.8756   41.6797 O   0  0  0  0  0  0  0  0  0  0  0  0
   -0.7356  -10.0603   44.7886 C   0  0  0  0  0  0  0  0  0  0  0  0
   -0.6804  -10.9348   45.8890 O   0  0  0  0  0  0  0  0  0  0  0  0
    4.2658   -9.4428   49.3372 C   0  0  1  0  0  0  0  0  0  0  0  0
    5.5083  -10.0724   49.5694 O   0  0  0  0  0  0  0  0  0  0  0  0
    4.0810   -1.1712   39.3245 C   0  0  0  0  0  0  0  0  0  0  0  0
    4.5792   -2.1038   38.3960 O   0  0  0  0  0  0  0  0  0  0  0  0
    0.3565   -4.9441   42.6710 C   0  0  0  0  0  0  0  0  0  0  0  0
  1  2  1  1  0  0  0
  1  7  1  0  0  0  0
  1 24  1  0  0  0  0
  3  4  1  1  0  0  0
  3  9  1  0  0  0  0
  3 31  1  0  0  0  0
  5  6  1  6  0  0  0
  5 10  1  0  0  0  0
  5 28  1  0  0  0  0
  7  8  1  1  0  0  0
  7 12  1  0  0  0  0
  9 14  1  0  0  0  0
 10 11  1  1  0  0  0
 10 16  1  0  0  0  0
 12 13  1  6  0  0  0
 12 18  1  0  0  0  0
 13 35  1  0  0  0  0
 14 15  1  1  0  0  0
 14 20  1  0  0  0  0
 16 17  1  6  0  0  0
 16 21  1  0  0  0  0
 17 35  1  0  0  0  0
 18 19  1  1  0  0  0
 18 23  1  0  0  0  0
 20  2  1  6  0  0  0
 20 25  1  0  0  0  0
 21 22  1  6  0  0  0
 21 27  1  0  0  0  0
 23 24  1  0  0  0  0
 23 29  1  6  0  0  0
 25 26  1  6  0  0  0
 25 31  1  0  0  0  0
 27 28  1  0  0  0  0
 27 33  1  6  0  0  0
 29 30  1  0  0  0  0
 31 32  1  6  0  0  0
 33 34  1  0  0  0  0
M  END
>  <CHROM.1>
-176.28691418,-167.77271883,177.50392414,-72.87770677,-64.18089711,-178.05982580
-179.08130012,-73.73808298,2.42399960,-6.20456512,44.58661354,1.53973524
0.79431597,2.32208072

>  <Name>
2o3v_lig

>  <RI>
0

>  <Rbt.Current_Directory>
/home/afrankz/demos/rdock_decoys_rna/rnas/2o3v

>  <Rbt.Executable>
rbdock ($Id: //depot/dev/client3/rdock/2013.1/src/exe/rbdock.cxx#4 $)

>  <Rbt.Library>
libRbt.so (2013.1, Build901 2013/11/27)

>  <Rbt.Parameter_File>
/export/apps/rDock/src/rDock_2013.1_src/data/scripts/dock_solv.prm

>  <Rbt.Receptor>
prm/pocket_docking_7.prm

>  <SCORE>
-25.8415

>  <SCORE.INTER>
-19.9727

>  <SCORE.INTER.CONST>
1

>  <SCORE.INTER.POLAR>
-2.74101

>  <SCORE.INTER.ROT>
8

>  <SCORE.INTER.SOLV>
15.0654

>  <SCORE.INTER.VDW>
-18.1336

>  <SCORE.INTER.norm>
-0.570649

>  <SCORE.INTRA>
-5.86882

>  <SCORE.INTRA.DIHEDRAL>
-10.7251

>  <SCORE.INTRA.DIHEDRAL.0>
13.1227

>  <SCORE.INTRA.POLAR>
0

>  <SCORE.INTRA.POLAR.0>
0

>  <SCORE.INTRA.REPUL>
0

>  <SCORE.INTRA.REPUL.0>
0

>  <SCORE.INTRA.SOLV>
0.163282

>  <SCORE.INTRA.SOLV.lig_0>
-89.1587

>  <SCORE.INTRA.VDW>
-0.587923

>  <SCORE.INTRA.VDW.0>
-0.838383

>  <SCORE.INTRA.norm>
-0.16768

>  <SCORE.RESTR>
0

>  <SCORE.RESTR.CAVITY>
0

>  <SCORE.RESTR.norm>
0

>  <SCORE.SYSTEM>
0

>  <SCORE.SYSTEM.CONST>
0

>  <SCORE.SYSTEM.DIHEDRAL>
0

>  <SCORE.SYSTEM.SOLV>
0

>  <SCORE.SYSTEM.norm>
0

>  <SCORE.heavy>
35

>  <SCORE.norm>
-0.73833

>  <RMSD>
8.366

$$$$
2o3v_lig
 OpenBabel02141814113D
libRbt.so/2013.1/901 2013/11/27
 35 37  0  0  0  0  0  0  0  0999 V2000
   -1.1351   -8.4822   44.5011 C   0  0  2  0  0  0  0  0  0  0  0  0
   -0.0529   -8.4453   45.4811 O   0  0  0  0  0  0  0  0  0  0  0  0
    1.7933  -11.3871   48.1011 C   0  0  2  0  0  0  0  0  0  0  0  0
    1.9915  -12.3460   49.2296 N   0  0  0  0  0  0  0  0  0  0  0  0
    3.9611   -3.5489   44.1654 C   0  0  2  0  0  0  0  0  0  0  0  0
    3.8351   -4.9712   43.9490 O   0  0  0  0  0  0  0  0  0  0  0  0
   -0.8147   -7.2676   43.5736 C   0  0  2  0  0  0  0  0  0  0  0  0
    0.5258   -7.4036   42.9564 N   0  0  0  0  0  0  0  0  0  0  0  0
    1.5659   -9.9189   48.6651 C   0  0  0  0  0  0  0  0  0  0  0  0
    2.5202   -2.9801   44.4077 C   0  0  2  0  0  0  0  0  0  0  0  0
    1.8677   -3.6547   45.5584 N   0  0  0  0  0  0  0  0  0  0  0  0
   -0.9046   -5.8901   44.3634 C   0  0  1  0  0  0  0  0  0  0  0  0
   -0.5534   -4.7517   43.4750 O   0  0  0  0  0  0  0  0  0  0  0  0
    1.3464   -8.9217   47.4462 C   0  0  2  0  0  0  0  0  0  0  0  0
    1.1211   -7.5499   47.9501 N   0  0  0  0  0  0  0  0  0  0  0  0
    1.6138   -3.1074   43.1050 C   0  0  1  0  0  0  0  0  0  0  0  0
    0.2841   -2.5578   43.2907 O   0  0  0  0  0  0  0  0  0  0  0  0
   -2.3624   -5.7980   44.9958 C   0  0  2  0  0  0  0  0  0  0  0  0
   -2.5288   -4.6070   45.7440 O   0  0  0  0  0  0  0  0  0  0  0  0
    0.1044   -9.3905   46.5820 C   0  0  2  0  0  0  0  0  0  0  0  0
    2.3317   -2.3733   41.9284 C   0  0  2  0  0  0  0  0  0  0  0  0
    1.5746   -2.4628   40.7375 O   0  0  0  0  0  0  0  0  0  0  0  0
   -2.6489   -7.0488   45.9107 C   0  0  2  0  0  0  0  0  0  0  0  0
   -2.4712   -8.2909   45.1296 O   0  0  0  0  0  0  0  0  0  0  0  0
    0.3324  -10.8294   46.0397 C   0  0  2  0  0  0  0  0  0  0  0  0
   -0.8598  -11.2066   45.2931 O   0  0  0  0  0  0  0  0  0  0  0  0
    3.7797   -2.9732   41.7213 C   0  0  2  0  0  0  0  0  0  0  0  0
    4.5584   -2.8809   42.9775 O   0  0  0  0  0  0  0  0  0  0  0  0
   -4.0575   -7.0036   46.5013 C   0  0  0  0  0  0  0  0  0  0  0  0
   -4.2791   -8.0898   47.3672 O   0  0  0  0  0  0  0  0  0  0  0  0
    0.5500  -11.8023   47.2221 C   0  0  1  0  0  0  0  0  0  0  0  0
    0.7599  -13.0987   46.7031 O   0  0  0  0  0  0  0  0  0  0  0  0
    4.5356   -2.2584   40.6115 C   0  0  0  0  0  0  0  0  0  0  0  0
    3.9175   -2.4893   39.3687 O   0  0  0  0  0  0  0  0  0  0  0  0
   -0.4959   -3.4144   44.1755 C   0  0  0  0  0  0  0  0  0  0  0  0
  1  2  1  1  0  0  0
  1  7  1  0  0  0  0
  1 24  1  0  0  0  0
  3  4  1  1  0  0  0
  3  9  1  0  0  0  0
  3 31  1  0  0  0  0
  5  6  1  6  0  0  0
  5 10  1  0  0  0  0
  5 28  1  0  0  0  0
  7  8  1  1  0  0  0
  7 12  1  0  0  0  0
  9 14  1  0  0  0  0
 10 11  1  1  0  0  0
 10 16  1  0  0  0  0
 12 13  1  6  0  0  0
 12 18  1  0  0  0  0
 13 35  1  0  0  0  0
 14 15  1  1  0  0  0
 14 20  1  0  0  0  0
 16 17  1  1  0  0  0
 16 21  1  0  0  0  0
 17 35  1  0  0  0  0
 18 19  1  1  0  0  0
 18 23  1  0  0  0  0
 20  2  1  6  0  0  0
 20 25  1  0  0  0  0
 21 22  1  6  0  0  0
 21 27  1  0  0  0  0
 23 24  1  0  0  0  0
 23 29  1  6  0  0  0
 25 26  1  1  0  0  0
 25 31  1  0  0  0  0
 27 28  1  0  0  0  0
 27 33  1  6  0  0  0
 29 30  1  0  0  0  0
 31 32  1  6  0  0  0
 33 34  1  0  0  0  0
M  END
>  <CHROM.1>
-179.91035665,-174.94625661,161.05132002,-71.21685454,-60.27873181,-176.21899000
-177.11415619,-65.95539988,0.60482304,-6.52253767,44.79812415,1.89399400
-0.14345370,2.61004142

>  <Name>
2o3v_lig

>  <RI>
0

>  <Rbt.Current_Directory>
/home/afrankz/demos/rdock_decoys_rna/rnas/2o3v

>  <Rbt.Executable>
rbdock ($Id: //depot/dev/client3/rdock/2013.1/src/exe/rbdock.cxx#4 $)

>  <Rbt.Library>
libRbt.so (2013.1, Build901 2013/11/27)

>  <Rbt.Parameter_File>
/export/apps/rDock/src/rDock_2013.1_src/data/scripts/dock_solv.prm

>  <Rbt.Receptor>
prm/pocket_docking_8.prm

>  <SCORE>
-14.8939

>  <SCORE.INTER>
-9.95325

>  <SCORE.INTER.CONST>
1

>  <SCORE.INTER.POLAR>
-1.4913

>  <SCORE.INTER.ROT>
8

>  <SCORE.INTER.SOLV>
9.89274

>  <SCORE.INTER.VDW>
-13.8954

>  <SCORE.INTER.norm>
-0.284379

>  <SCORE.INTRA>
-4.94066

>  <SCORE.INTRA.DIHEDRAL>
-10.4875

>  <SCORE.INTRA.DIHEDRAL.0>
13.1227

>  <SCORE.INTRA.POLAR>
0

>  <SCORE.INTRA.POLAR.0>
0

>  <SCORE.INTRA.REPUL>
0.0138566

>  <SCORE.INTRA.REPUL.0>
0

>  <SCORE.INTRA.SOLV>
0.732736

>  <SCORE.INTRA.SOLV.lig_0>
-89.1587

>  <SCORE.INTRA.VDW>
-0.132576

>  <SCORE.INTRA.VDW.0>
-0.838383

>  <SCORE.INTRA.norm>
-0.141162

>  <SCORE.RESTR>
0

>  <SCORE.RESTR.CAVITY>
0

>  <SCORE.RESTR.norm>
0

>  <SCORE.SYSTEM>
0

>  <SCORE.SYSTEM.CONST>
0

>  <SCORE.SYSTEM.DIHEDRAL>
0

>  <SCORE.SYSTEM.SOLV>
0

>  <SCORE.SYSTEM.norm>
0

>  <SCORE.heavy>
35

>  <SCORE.norm>
-0.42554

>  <RMSD>
8.384

$$$$
2o3v_lig
 OpenBabel02141814113D
libRbt.so/2013.1/901 2013/11/27
 35 37  0  0  0  0  0  0  0  0999 V2000
   -2.9035   -8.3713   47.1782 C   0  0  2  0  0  0  0  0  0  0  0  0
   -2.6134   -9.0414   45.9134 O   0  0  0  0  0  0  0  0  0  0  0  0
   -2.7719  -13.1238   44.4182 C   0  0  2  0  0  0  0  0  0  0  0  0
   -2.4661  -14.5754   44.2403 N   0  0  0  0  0  0  0  0  0  0  0  0
   -1.3301   -2.2713   40.5497 C   0  0  2  0  0  0  0  0  0  0  0  0
   -0.4093   -1.3482   41.1706 O   0  0  0  0  0  0  0  0  0  0  0  0
   -3.3847   -6.9559   46.7271 C   0  0  2  0  0  0  0  0  0  0  0  0
   -4.5686   -7.0498   45.8405 N   0  0  0  0  0  0  0  0  0  0  0  0
   -1.4900  -12.2493   44.0758 C   0  0  0  0  0  0  0  0  0  0  0  0
   -2.0045   -3.1048   41.6937 C   0  0  2  0  0  0  0  0  0  0  0  0
   -2.6901   -2.2169   42.6665 N   0  0  0  0  0  0  0  0  0  0  0  0
   -2.2260   -6.1521   45.9917 C   0  0  1  0  0  0  0  0  0  0  0  0
   -2.7167   -4.8270   45.5317 O   0  0  0  0  0  0  0  0  0  0  0  0
   -1.8383  -10.7119   44.2840 C   0  0  2  0  0  0  0  0  0  0  0  0
   -0.6538   -9.8801   43.9814 N   0  0  0  0  0  0  0  0  0  0  0  0
   -0.9496   -4.0343   42.4408 C   0  0  1  0  0  0  0  0  0  0  0  0
   -1.5533   -4.8425   43.4834 O   0  0  0  0  0  0  0  0  0  0  0  0
   -0.9892   -6.0785   46.9911 C   0  0  2  0  0  0  0  0  0  0  0  0
    0.1076   -5.3969   46.4094 O   0  0  0  0  0  0  0  0  0  0  0  0
   -2.3072  -10.4618   45.7762 C   0  0  2  0  0  0  0  0  0  0  0  0
   -0.2661   -4.9574   41.3828 C   0  0  2  0  0  0  0  0  0  0  0  0
    0.6924   -5.8014   41.9899 O   0  0  0  0  0  0  0  0  0  0  0  0
   -0.5469   -7.5255   47.4319 C   0  0  2  0  0  0  0  0  0  0  0  0
   -1.6935   -8.2368   48.0352 O   0  0  0  0  0  0  0  0  0  0  0  0
   -3.5573  -11.3253   46.1045 C   0  0  2  0  0  0  0  0  0  0  0  0
   -3.9053  -11.0751   47.4964 O   0  0  0  0  0  0  0  0  0  0  0  0
    0.3960   -4.0789   40.2475 C   0  0  2  0  0  0  0  0  0  0  0  0
   -0.6162   -3.1943   39.6263 O   0  0  0  0  0  0  0  0  0  0  0  0
    0.6163   -7.4815   48.4217 C   0  0  0  0  0  0  0  0  0  0  0  0
    1.0334   -8.7786   48.7716 O   0  0  0  0  0  0  0  0  0  0  0  0
   -3.2239  -12.8217   45.8998 C   0  0  1  0  0  0  0  0  0  0  0  0
   -4.3755  -13.5824   46.1986 O   0  0  0  0  0  0  0  0  0  0  0  0
    1.0381   -4.9377   39.1686 C   0  0  0  0  0  0  0  0  0  0  0  0
    1.6747   -4.1276   38.2102 O   0  0  0  0  0  0  0  0  0  0  0  0
   -1.7221   -4.0538   44.6978 C   0  0  0  0  0  0  0  0  0  0  0  0
  1  2  1  6  0  0  0
  1  7  1  0  0  0  0
  1 24  1  0  0  0  0
  3  4  1  1  0  0  0
  3  9  1  0  0  0  0
  3 31  1  0  0  0  0
  5  6  1  1  0  0  0
  5 10  1  0  0  0  0
  5 28  1  0  0  0  0
  7  8  1  6  0  0  0
  7 12  1  0  0  0  0
  9 14  1  0  0  0  0
 10 11  1  1  0  0  0
 10 16  1  0  0  0  0
 12 13  1  1  0  0  0
 12 18  1  0  0  0  0
 13 35  1  0  0  0  0
 14 15  1  1  0  0  0
 14 20  1  0  0  0  0
 16 17  1  1  0  0  0
 16 21  1  0  0  0  0
 17 35  1  0  0  0  0
 18 19  1  6  0  0  0
 18 23  1  0  0  0  0
 20  2  1  6  0  0  0
 20 25  1  0  0  0  0
 21 22  1  1  0  0  0
 21 27  1  0  0  0  0
 23 24  1  0  0  0  0
 23 29  1  1  0  0  0
 25 26  1  1  0  0  0
 25 31  1  0  0  0  0
 27 28  1  0  0  0  0
 27 33  1  6  0  0  0
 29 30  1  0  0  0  0
 31 32  1  6  0  0  0
 33 34  1  0  0  0  0
M  END
>  <CHROM.1>
-170.88761883,-174.03124749,65.23906053,-81.00517251,162.88112544,-171.21725686
-177.91588017,-177.07337970,-1.52275312,-7.24251233,44.37114478,2.86775571
-1.33518847,-2.43657155

>  <Name>
2o3v_lig

>  <RI>
0

>  <Rbt.Current_Directory>
/home/afrankz/demos/rdock_decoys_rna/rnas/2o3v

>  <Rbt.Executable>
rbdock ($Id: //depot/dev/client3/rdock/2013.1/src/exe/rbdock.cxx#4 $)

>  <Rbt.Library>
libRbt.so (2013.1, Build901 2013/11/27)

>  <Rbt.Parameter_File>
/export/apps/rDock/src/rDock_2013.1_src/data/scripts/dock_solv.prm

>  <Rbt.Receptor>
prm/pocket_docking_8.prm

>  <SCORE>
-17.0471

>  <SCORE.INTER>
-11.3198

>  <SCORE.INTER.CONST>
1

>  <SCORE.INTER.POLAR>
-1.91101

>  <SCORE.INTER.ROT>
8

>  <SCORE.INTER.SOLV>
9.15708

>  <SCORE.INTER.VDW>
-13.1622

>  <SCORE.INTER.norm>
-0.323424

>  <SCORE.INTRA>
-5.72722

>  <SCORE.INTRA.DIHEDRAL>
-8.62209

>  <SCORE.INTRA.DIHEDRAL.0>
13.1227

>  <SCORE.INTRA.POLAR>
0

>  <SCORE.INTRA.POLAR.0>
0

>  <SCORE.INTRA.REPUL>
0

>  <SCORE.INTRA.REPUL.0>
0

>  <SCORE.INTRA.SOLV>
-0.387894

>  <SCORE.INTRA.SOLV.lig_0>
-89.1587

>  <SCORE.INTRA.VDW>
-1.22223

>  <SCORE.INTRA.VDW.0>
-0.838383

>  <SCORE.INTRA.norm>
-0.163635

>  <SCORE.RESTR>
0

>  <SCORE.RESTR.CAVITY>
0

>  <SCORE.RESTR.norm>
0

>  <SCORE.SYSTEM>
0

>  <SCORE.SYSTEM.CONST>
0

>  <SCORE.SYSTEM.DIHEDRAL>
0

>  <SCORE.SYSTEM.SOLV>
0

>  <SCORE.SYSTEM.norm>
0

>  <SCORE.heavy>
35

>  <SCORE.norm>
-0.487059

>  <RMSD>
8.548

$$$$
2o3v_lig
 OpenBabel02141814113D
libRbt.so/2013.1/901 2013/11/27
 35 37  0  0  0  0  0  0  0  0999 V2000
    2.7283   -4.4020   46.5839 C   0  0  2  0  0  0  0  0  0  0  0  0
    1.7341   -5.2559   45.9396 O   0  0  0  0  0  0  0  0  0  0  0  0
   -0.7745   -8.4082   47.5818 C   0  0  2  0  0  0  0  0  0  0  0  0
   -1.8916   -9.0952   48.2976 N   0  0  0  0  0  0  0  0  0  0  0  0
    1.2526   -2.7938   38.1429 C   0  0  2  0  0  0  0  0  0  0  0  0
    2.2102   -3.5925   37.4144 O   0  0  0  0  0  0  0  0  0  0  0  0
    3.1023   -3.3838   45.4606 C   0  0  2  0  0  0  0  0  0  0  0  0
    1.9107   -2.6330   44.9995 N   0  0  0  0  0  0  0  0  0  0  0  0
    0.0462   -7.4992   48.5944 C   0  0  0  0  0  0  0  0  0  0  0  0
    1.8075   -2.6031   39.5968 C   0  0  2  0  0  0  0  0  0  0  0  0
    3.1493   -1.9675   39.5758 N   0  0  0  0  0  0  0  0  0  0  0  0
    3.7930   -4.1067   44.2237 C   0  0  1  0  0  0  0  0  0  0  0  0
    4.1003   -3.1280   43.1484 O   0  0  0  0  0  0  0  0  0  0  0  0
    1.2200   -6.7716   47.8063 C   0  0  2  0  0  0  0  0  0  0  0  0
    1.9901   -5.9104   48.7292 N   0  0  0  0  0  0  0  0  0  0  0  0
    1.8614   -3.9833   40.3887 C   0  0  1  0  0  0  0  0  0  0  0  0
    2.3402   -3.8311   41.7496 O   0  0  0  0  0  0  0  0  0  0  0  0
    5.0646   -4.8875   44.7777 C   0  0  2  0  0  0  0  0  0  0  0  0
    5.7343   -5.5869   43.7442 O   0  0  0  0  0  0  0  0  0  0  0  0
    0.6197   -5.8996   46.6279 C   0  0  2  0  0  0  0  0  0  0  0  0
    0.4294   -4.6061   40.3966 C   0  0  2  0  0  0  0  0  0  0  0  0
    0.4184   -5.8440   41.0800 O   0  0  0  0  0  0  0  0  0  0  0  0
    4.6443   -5.8913   45.9176 C   0  0  2  0  0  0  0  0  0  0  0  0
    3.9421   -5.1606   46.9935 O   0  0  0  0  0  0  0  0  0  0  0  0
   -0.1863   -6.7953   45.6459 C   0  0  2  0  0  0  0  0  0  0  0  0
   -0.7388   -5.9249   44.6173 O   0  0  0  0  0  0  0  0  0  0  0  0
   -0.0932   -4.7767   38.9143 C   0  0  2  0  0  0  0  0  0  0  0  0
   -0.0685   -3.4755   38.2079 O   0  0  0  0  0  0  0  0  0  0  0  0
    5.8532   -6.6277   46.4931 C   0  0  0  0  0  0  0  0  0  0  0  0
    6.7381   -5.7342   47.1235 O   0  0  0  0  0  0  0  0  0  0  0  0
   -1.3272   -7.5079   46.4093 C   0  0  1  0  0  0  0  0  0  0  0  0
   -2.0391   -8.3178   45.4974 O   0  0  0  0  0  0  0  0  0  0  0  0
   -1.5053   -5.3408   38.8729 C   0  0  0  0  0  0  0  0  0  0  0  0
   -2.3891   -4.5044   39.5795 O   0  0  0  0  0  0  0  0  0  0  0  0
    3.7824   -3.6185   41.7553 C   0  0  0  0  0  0  0  0  0  0  0  0
  1  2  1  6  0  0  0
  1  7  1  0  0  0  0
  1 24  1  0  0  0  0
  3  4  1  1  0  0  0
  3  9  1  0  0  0  0
  3 31  1  0  0  0  0
  5  6  1  6  0  0  0
  5 10  1  0  0  0  0
  5 28  1  0  0  0  0
  7  8  1  6  0  0  0
  7 12  1  0  0  0  0
  9 14  1  0  0  0  0
 10 11  1  6  0  0  0
 10 16  1  0  0  0  0
 12 13  1  6  0  0  0
 12 18  1  0  0  0  0
 13 35  1  0  0  0  0
 14 15  1  1  0  0  0
 14 20  1  0  0  0  0
 16 17  1  1  0  0  0
 16 21  1  0  0  0  0
 17 35  1  0  0  0  0
 18 19  1  6  0  0  0
 18 23  1  0  0  0  0
 20  2  1  6  0  0  0
 20 25  1  0  0  0  0
 21 22  1  6  0  0  0
 21 27  1  0  0  0  0
 23 24  1  0  0  0  0
 23 29  1  1  0  0  0
 25 26  1  6  0  0  0
 25 31  1  0  0  0  0
 27 28  1  0  0  0  0
 27 33  1  1  0  0  0
 29 30  1  0  0  0  0
 31 32  1  6  0  0  0
 33 34  1  0  0  0  0
M  END
>  <CHROM.1>
-148.22737393,-137.44131809,62.70024246,-74.95450290,165.89624003,-56.00997905
63.94787928,58.27369834,1.70790968,-5.13440157,43.69592515,-1.48022129,-0.35715670
-1.18889962

>  <Name>
2o3v_lig

>  <RI>
0

>  <Rbt.Current_Directory>
/home/afrankz/demos/rdock_decoys_rna/rnas/2o3v

>  <Rbt.Executable>
rbdock ($Id: //depot/dev/client3/rdock/2013.1/src/exe/rbdock.cxx#4 $)

>  <Rbt.Library>
libRbt.so (2013.1, Build901 2013/11/27)

>  <Rbt.Parameter_File>
/export/apps/rDock/src/rDock_2013.1_src/data/scripts/dock_solv.prm

>  <Rbt.Receptor>
prm/pocket_docking_8.prm

>  <SCORE>
-20.9778

>  <SCORE.INTER>
-20.882

>  <SCORE.INTER.CONST>
1

>  <SCORE.INTER.POLAR>
-2.76853

>  <SCORE.INTER.ROT>
8

>  <SCORE.INTER.SOLV>
14.4853

>  <SCORE.INTER.VDW>
-18.4547

>  <SCORE.INTER.norm>
-0.596629

>  <SCORE.INTRA>
-0.0957408

>  <SCORE.INTRA.DIHEDRAL>
-1.19655

>  <SCORE.INTRA.DIHEDRAL.0>
13.1227

>  <SCORE.INTRA.POLAR>
0

>  <SCORE.INTRA.POLAR.0>
0

>  <SCORE.INTRA.REPUL>
0

>  <SCORE.INTRA.REPUL.0>
0

>  <SCORE.INTRA.SOLV>
3.19544

>  <SCORE.INTRA.SOLV.lig_0>
-89.1587

>  <SCORE.INTRA.VDW>
-1.09519

>  <SCORE.INTRA.VDW.0>
-0.838383

>  <SCORE.INTRA.norm>
-0.00273545

>  <SCORE.RESTR>
0

>  <SCORE.RESTR.CAVITY>
0

>  <SCORE.RESTR.norm>
0

>  <SCORE.SYSTEM>
0

>  <SCORE.SYSTEM.CONST>
0

>  <SCORE.SYSTEM.DIHEDRAL>
0

>  <SCORE.SYSTEM.SOLV>
0

>  <SCORE.SYSTEM.norm>
0

>  <SCORE.heavy>
35

>  <SCORE.norm>
-0.599364

>  <RMSD>
8.550

$$$$
2o3v_lig
 OpenBabel02141814113D
libRbt.so/2013.1/901 2013/11/27
 35 37  0  0  0  0  0  0  0  0999 V2000
    0.4060   -3.5957   42.3731 C   0  0  2  0  0  0  0  0  0  0  0  0
   -0.1570   -4.0944   43.6249 O   0  0  0  0  0  0  0  0  0  0  0  0
   -4.2762   -3.7631   44.9849 C   0  0  2  0  0  0  0  0  0  0  0  0
   -5.5027   -3.2416   45.6602 N   0  0  0  0  0  0  0  0  0  0  0  0
    4.3197  -10.5243   45.7946 C   0  0  2  0  0  0  0  0  0  0  0  0
    4.6848  -10.3393   47.1795 O   0  0  0  0  0  0  0  0  0  0  0  0
    1.5462   -4.6174   42.0656 C   0  0  2  0  0  0  0  0  0  0  0  0
    1.0137   -5.9955   41.9487 N   0  0  0  0  0  0  0  0  0  0  0  0
   -3.1545   -4.0868   46.0631 C   0  0  0  0  0  0  0  0  0  0  0  0
    4.5265   -9.1516   45.0656 C   0  0  2  0  0  0  0  0  0  0  0  0
    5.9275   -8.6800   45.2055 N   0  0  0  0  0  0  0  0  0  0  0  0
    2.6842   -4.5740   43.1758 C   0  0  1  0  0  0  0  0  0  0  0  0
    3.7364   -5.5834   42.8887 O   0  0  0  0  0  0  0  0  0  0  0  0
   -1.8580   -4.6281   45.3185 C   0  0  2  0  0  0  0  0  0  0  0  0
   -0.7964   -4.9249   46.3041 N   0  0  0  0  0  0  0  0  0  0  0  0
    3.5142   -8.0458   45.6015 C   0  0  1  0  0  0  0  0  0  0  0  0
    3.6610   -6.7734   44.9203 O   0  0  0  0  0  0  0  0  0  0  0  0
    3.2198   -3.0770   43.2506 C   0  0  2  0  0  0  0  0  0  0  0  0
    4.2263   -2.9351   44.2369 O   0  0  0  0  0  0  0  0  0  0  0  0
   -1.3433   -3.5502   44.2780 C   0  0  2  0  0  0  0  0  0  0  0  0
    2.0575   -8.5789   45.4216 C   0  0  2  0  0  0  0  0  0  0  0  0
    1.1116   -7.6390   45.8922 O   0  0  0  0  0  0  0  0  0  0  0  0
    2.0360   -2.0798   43.5471 C   0  0  2  0  0  0  0  0  0  0  0  0
    0.9848   -2.2318   42.5193 O   0  0  0  0  0  0  0  0  0  0  0  0
   -2.4484   -3.2351   43.2312 C   0  0  2  0  0  0  0  0  0  0  0  0
   -1.9216   -2.2132   42.3371 O   0  0  0  0  0  0  0  0  0  0  0  0
    1.8937   -9.9637   46.1665 C   0  0  2  0  0  0  0  0  0  0  0  0
    2.8950  -10.9354   45.6705 O   0  0  0  0  0  0  0  0  0  0  0  0
    2.5177   -0.6302   43.5872 C   0  0  0  0  0  0  0  0  0  0  0  0
    3.0224   -0.2291   42.3369 O   0  0  0  0  0  0  0  0  0  0  0  0
   -3.7129   -2.7114   43.9516 C   0  0  1  0  0  0  0  0  0  0  0  0
   -4.7013   -2.4385   42.9807 O   0  0  0  0  0  0  0  0  0  0  0  0
    0.5000  -10.5447   45.9823 C   0  0  0  0  0  0  0  0  0  0  0  0
    0.3949  -11.7858   46.6369 O   0  0  0  0  0  0  0  0  0  0  0  0
    3.4676   -6.9450   43.4856 C   0  0  0  0  0  0  0  0  0  0  0  0
  1  2  1  1  0  0  0
  1  7  1  0  0  0  0
  1 24  1  0  0  0  0
  3  4  1  1  0  0  0
  3  9  1  0  0  0  0
  3 31  1  0  0  0  0
  5  6  1  1  0  0  0
  5 10  1  0  0  0  0
  5 28  1  0  0  0  0
  7  8  1  1  0  0  0
  7 12  1  0  0  0  0
  9 14  1  0  0  0  0
 10 11  1  1  0  0  0
 10 16  1  0  0  0  0
 12 13  1  6  0  0  0
 12 18  1  0  0  0  0
 13 35  1  0  0  0  0
 14 15  1  1  0  0  0
 14 20  1  0  0  0  0
 16 17  1  6  0  0  0
 16 21  1  0  0  0  0
 17 35  1  0  0  0  0
 18 19  1  1  0  0  0
 18 23  1  0  0  0  0
 20  2  1  6  0  0  0
 20 25  1  0  0  0  0
 21 22  1  1  0  0  0
 21 27  1  0  0  0  0
 23 24  1  0  0  0  0
 23 29  1  6  0  0  0
 25 26  1  6  0  0  0
 25 31  1  0  0  0  0
 27 28  1  0  0  0  0
 27 33  1  6  0  0  0
 29 30  1  0  0  0  0
 31 32  1  6  0  0  0
 33 34  1  0  0  0  0
M  END
>  <CHROM.1>
-174.18925545,-88.60056866,-71.30538648,57.70948062,-176.28421738,162.64710359
63.34333378,178.97684007,1.01377012,-5.55728140,44.38850328,-2.18476935,-0.16409197
2.73779364

>  <Name>
2o3v_lig

>  <RI>
0

>  <Rbt.Current_Directory>
/home/afrankz/demos/rdock_decoys_rna/rnas/2o3v

>  <Rbt.Executable>
rbdock ($Id: //depot/dev/client3/rdock/2013.1/src/exe/rbdock.cxx#4 $)

>  <Rbt.Library>
libRbt.so (2013.1, Build901 2013/11/27)

>  <Rbt.Parameter_File>
/export/apps/rDock/src/rDock_2013.1_src/data/scripts/dock_solv.prm

>  <Rbt.Receptor>
prm/pocket_docking_7.prm

>  <SCORE>
-10.0782

>  <SCORE.INTER>
-6.86191

>  <SCORE.INTER.CONST>
1

>  <SCORE.INTER.POLAR>
-1.09045

>  <SCORE.INTER.ROT>
8

>  <SCORE.INTER.SOLV>
12.413

>  <SCORE.INTER.VDW>
-14.0107

>  <SCORE.INTER.norm>
-0.196054

>  <SCORE.INTRA>
-3.21629

>  <SCORE.INTRA.DIHEDRAL>
-7.43802

>  <SCORE.INTRA.DIHEDRAL.0>
13.1227

>  <SCORE.INTRA.POLAR>
0

>  <SCORE.INTRA.POLAR.0>
0

>  <SCORE.INTRA.REPUL>
0.000791965

>  <SCORE.INTRA.REPUL.0>
0

>  <SCORE.INTRA.SOLV>
0.67351

>  <SCORE.INTRA.SOLV.lig_0>
-89.1587

>  <SCORE.INTRA.VDW>
0.162007

>  <SCORE.INTRA.VDW.0>
-0.838383

>  <SCORE.INTRA.norm>
-0.091894

>  <SCORE.RESTR>
0

>  <SCORE.RESTR.CAVITY>
0

>  <SCORE.RESTR.norm>
0

>  <SCORE.SYSTEM>
0

>  <SCORE.SYSTEM.CONST>
0

>  <SCORE.SYSTEM.DIHEDRAL>
0

>  <SCORE.SYSTEM.SOLV>
0

>  <SCORE.SYSTEM.norm>
0

>  <SCORE.heavy>
35

>  <SCORE.norm>
-0.287948

>  <RMSD>
8.557

$$$$
2o3v_lig
 OpenBabel02141814113D
libRbt.so/2013.1/901 2013/11/27
 35 37  0  0  0  0  0  0  0  0999 V2000
    1.5675   -7.4412   49.0072 C   0  0  2  0  0  0  0  0  0  0  0  0
    1.3671   -8.4947   48.0158 O   0  0  0  0  0  0  0  0  0  0  0  0
    1.2804  -12.1845   50.3189 C   0  0  2  0  0  0  0  0  0  0  0  0
    1.2501  -13.6406   50.6524 N   0  0  0  0  0  0  0  0  0  0  0  0
    2.6401   -1.2893   41.1425 C   0  0  2  0  0  0  0  0  0  0  0  0
    4.0669   -1.4970   41.2244 O   0  0  0  0  0  0  0  0  0  0  0  0
    1.1538   -6.1470   48.2376 C   0  0  2  0  0  0  0  0  0  0  0  0
   -0.2474   -6.2312   47.7620 N   0  0  0  0  0  0  0  0  0  0  0  0
   -0.0170  -11.7862   49.4921 C   0  0  0  0  0  0  0  0  0  0  0  0
    2.0417   -1.5651   42.5652 C   0  0  2  0  0  0  0  0  0  0  0  0
    2.6666   -0.6857   43.5855 N   0  0  0  0  0  0  0  0  0  0  0  0
    2.1218   -5.8644   47.0078 C   0  0  1  0  0  0  0  0  0  0  0  0
    1.6851   -4.6548   46.2631 O   0  0  0  0  0  0  0  0  0  0  0  0
    0.0456  -10.2368   49.1405 C   0  0  2  0  0  0  0  0  0  0  0  0
   -1.1484   -9.8473   48.3601 N   0  0  0  0  0  0  0  0  0  0  0  0
    2.1999   -3.0939   42.9806 C   0  0  1  0  0  0  0  0  0  0  0  0
    1.6243   -3.3847   44.2802 O   0  0  0  0  0  0  0  0  0  0  0  0
    3.6050   -5.7782   47.5792 C   0  0  2  0  0  0  0  0  0  0  0  0
    4.5465   -5.5515   46.5457 O   0  0  0  0  0  0  0  0  0  0  0  0
    1.3586   -9.9239   48.3114 C   0  0  2  0  0  0  0  0  0  0  0  0
    1.5174   -3.9771   41.8885 C   0  0  2  0  0  0  0  0  0  0  0  0
    1.6362   -5.3512   42.2003 O   0  0  0  0  0  0  0  0  0  0  0  0
    3.9748   -7.0963   48.3599 C   0  0  2  0  0  0  0  0  0  0  0  0
    2.9893   -7.3336   49.4355 O   0  0  0  0  0  0  0  0  0  0  0  0
    2.6221  -10.3221   49.1247 C   0  0  2  0  0  0  0  0  0  0  0  0
    3.7822  -10.0451   48.2891 O   0  0  0  0  0  0  0  0  0  0  0  0
    2.1457   -3.6650   40.4718 C   0  0  2  0  0  0  0  0  0  0  0  0
    2.0223   -2.2223   40.1616 O   0  0  0  0  0  0  0  0  0  0  0  0
    5.3820   -7.0243   48.9512 C   0  0  0  0  0  0  0  0  0  0  0  0
    5.4121   -6.1972   50.0886 O   0  0  0  0  0  0  0  0  0  0  0  0
    2.5636  -11.8281   49.4720 C   0  0  1  0  0  0  0  0  0  0  0  0
    3.7177  -12.1621   50.2140 O   0  0  0  0  0  0  0  0  0  0  0  0
    1.4809   -4.4720   39.3669 C   0  0  0  0  0  0  0  0  0  0  0  0
    0.1127   -4.1542   39.2821 O   0  0  0  0  0  0  0  0  0  0  0  0
    2.3281   -4.4979   44.9051 C   0  0  0  0  0  0  0  0  0  0  0  0
  1  2  1  6  0  0  0
  1  7  1  0  0  0  0
  1 24  1  0  0  0  0
  3  4  1  6  0  0  0
  3  9  1  0  0  0  0
  3 31  1  0  0  0  0
  5  6  1  1  0  0  0
  5 10  1  0  0  0  0
  5 28  1  0  0  0  0
  7  8  1  6  0  0  0
  7 12  1  0  0  0  0
  9 14  1  0  0  0  0
 10 11  1  1  0  0  0
 10 16  1  0  0  0  0
 12 13  1  1  0  0  0
 12 18  1  0  0  0  0
 13 35  1  0  0  0  0
 14 15  1  6  0  0  0
 14 20  1  0  0  0  0
 16 17  1  1  0  0  0
 16 21  1  0  0  0  0
 17 35  1  0  0  0  0
 18 19  1  6  0  0  0
 18 23  1  0  0  0  0
 20  2  1  1  0  0  0
 20 25  1  0  0  0  0
 21 22  1  1  0  0  0
 21 27  1  0  0  0  0
 23 24  1  0  0  0  0
 23 29  1  1  0  0  0
 25 26  1  6  0  0  0
 25 31  1  0  0  0  0
 27 28  1  0  0  0  0
 27 33  1  6  0  0  0
 29 30  1  0  0  0  0
 31 32  1  1  0  0  0
 33 34  1  0  0  0  0
M  END
>  <CHROM.1>
-167.22375993,-165.95828276,171.83799195,-151.35343285,177.33284541,69.63654790
75.37644709,61.29277834,2.18827752,-6.52675708,46.09626587,-1.57946077,-0.80208101
-0.81269063

>  <Name>
2o3v_lig

>  <RI>
0

>  <Rbt.Current_Directory>
/home/afrankz/demos/rdock_decoys_rna/rnas/2o3v

>  <Rbt.Executable>
rbdock ($Id: //depot/dev/client3/rdock/2013.1/src/exe/rbdock.cxx#4 $)

>  <Rbt.Library>
libRbt.so (2013.1, Build901 2013/11/27)

>  <Rbt.Parameter_File>
/export/apps/rDock/src/rDock_2013.1_src/data/scripts/dock_solv.prm

>  <Rbt.Receptor>
prm/pocket_docking_8.prm

>  <SCORE>
-15.6123

>  <SCORE.INTER>
-10.8679

>  <SCORE.INTER.CONST>
1

>  <SCORE.INTER.POLAR>
-1.12541

>  <SCORE.INTER.ROT>
8

>  <SCORE.INTER.SOLV>
14.5982

>  <SCORE.INTER.VDW>
-17.2933

>  <SCORE.INTER.norm>
-0.310511

>  <SCORE.INTRA>
-4.74442

>  <SCORE.INTRA.DIHEDRAL>
-6.39826

>  <SCORE.INTRA.DIHEDRAL.0>
13.1227

>  <SCORE.INTRA.POLAR>
0

>  <SCORE.INTRA.POLAR.0>
0

>  <SCORE.INTRA.REPUL>
0

>  <SCORE.INTRA.REPUL.0>
0

>  <SCORE.INTRA.SOLV>
0.600911

>  <SCORE.INTRA.SOLV.lig_0>
-89.1587

>  <SCORE.INTRA.VDW>
-1.84575

>  <SCORE.INTRA.VDW.0>
-0.838383

>  <SCORE.INTRA.norm>
-0.135555

>  <SCORE.RESTR>
0

>  <SCORE.RESTR.CAVITY>
0

>  <SCORE.RESTR.norm>
0

>  <SCORE.SYSTEM>
0

>  <SCORE.SYSTEM.CONST>
0

>  <SCORE.SYSTEM.DIHEDRAL>
0

>  <SCORE.SYSTEM.SOLV>
0

>  <SCORE.SYSTEM.norm>
0

>  <SCORE.heavy>
35

>  <SCORE.norm>
-0.446066

>  <RMSD>
8.566

$$$$
2o3v_lig
 OpenBabel02141814113D
libRbt.so/2013.1/901 2013/11/27
 35 37  0  0  0  0  0  0  0  0999 V2000
    4.5948   -8.9096   47.4135 C   0  0  2  0  0  0  0  0  0  0  0  0
    5.0931   -7.7158   48.0913 O   0  0  0  0  0  0  0  0  0  0  0  0
    6.1782   -9.0822   52.0766 C   0  0  2  0  0  0  0  0  0  0  0  0
    6.6216   -9.0651   53.5032 N   0  0  0  0  0  0  0  0  0  0  0  0
    0.8328   -3.1103   40.3354 C   0  0  2  0  0  0  0  0  0  0  0  0
   -0.1111   -2.7573   41.3698 O   0  0  0  0  0  0  0  0  0  0  0  0
    4.5930   -8.4885   45.9098 C   0  0  2  0  0  0  0  0  0  0  0  0
    5.9500   -8.0961   45.4616 N   0  0  0  0  0  0  0  0  0  0  0  0
    7.3291   -8.5139   51.1398 C   0  0  0  0  0  0  0  0  0  0  0  0
    1.5897   -4.3993   40.8086 C   0  0  2  0  0  0  0  0  0  0  0  0
    0.6378   -5.5053   41.0837 N   0  0  0  0  0  0  0  0  0  0  0  0
    3.5730   -7.2989   45.6378 C   0  0  1  0  0  0  0  0  0  0  0  0
    3.6188   -6.8839   44.2116 O   0  0  0  0  0  0  0  0  0  0  0  0
    6.8281   -8.5321   49.6308 C   0  0  2  0  0  0  0  0  0  0  0  0
    7.8813   -7.9956   48.7423 N   0  0  0  0  0  0  0  0  0  0  0  0
    2.4899   -4.1124   42.0901 C   0  0  1  0  0  0  0  0  0  0  0  0
    3.2284   -5.2811   42.5302 O   0  0  0  0  0  0  0  0  0  0  0  0
    2.1381   -7.7797   46.1313 C   0  0  2  0  0  0  0  0  0  0  0  0
    1.1622   -6.7694   45.9503 O   0  0  0  0  0  0  0  0  0  0  0  0
    5.5092   -7.6662   49.4894 C   0  0  2  0  0  0  0  0  0  0  0  0
    3.4818   -2.9553   41.7497 C   0  0  2  0  0  0  0  0  0  0  0  0
    4.3033   -2.6487   42.8591 O   0  0  0  0  0  0  0  0  0  0  0  0
    2.1891   -8.2088   47.6469 C   0  0  2  0  0  0  0  0  0  0  0  0
    3.2106   -9.2603   47.8348 O   0  0  0  0  0  0  0  0  0  0  0  0
    4.3911   -8.2250   50.4134 C   0  0  2  0  0  0  0  0  0  0  0  0
    3.2290   -7.3604   50.2615 O   0  0  0  0  0  0  0  0  0  0  0  0
    2.6793   -1.6791   41.2736 C   0  0  2  0  0  0  0  0  0  0  0  0
    1.8173   -2.0160   40.1176 O   0  0  0  0  0  0  0  0  0  0  0  0
    0.8311   -8.7104   48.1359 C   0  0  0  0  0  0  0  0  0  0  0  0
   -0.0886   -7.6522   48.2511 O   0  0  0  0  0  0  0  0  0  0  0  0
    4.8756   -8.2124   51.8821 C   0  0  1  0  0  0  0  0  0  0  0  0
    3.8456   -8.7291   52.6983 O   0  0  0  0  0  0  0  0  0  0  0  0
    3.6076   -0.5373   40.8884 C   0  0  0  0  0  0  0  0  0  0  0  0
    4.4544   -0.9272   39.8344 O   0  0  0  0  0  0  0  0  0  0  0  0
    2.9231   -5.5738   43.9253 C   0  0  0  0  0  0  0  0  0  0  0  0
  1  2  1  1  0  0  0
  1  7  1  0  0  0  0
  1 24  1  0  0  0  0
  3  4  1  1  0  0  0
  3  9  1  0  0  0  0
  3 31  1  0  0  0  0
  5  6  1  1  0  0  0
  5 10  1  0  0  0  0
  5 28  1  0  0  0  0
  7  8  1  1  0  0  0
  7 12  1  0  0  0  0
  9 14  1  0  0  0  0
 10 11  1  1  0  0  0
 10 16  1  0  0  0  0
 12 13  1  6  0  0  0
 12 18  1  0  0  0  0
 13 35  1  0  0  0  0
 14 15  1  6  0  0  0
 14 20  1  0  0  0  0
 16 17  1  6  0  0  0
 16 21  1  0  0  0  0
 17 35  1  0  0  0  0
 18 19  1  1  0  0  0
 18 23  1  0  0  0  0
 20  2  1  6  0  0  0
 20 25  1  0  0  0  0
 21 22  1  1  0  0  0
 21 27  1  0  0  0  0
 23 24  1  0  0  0  0
 23 29  1  6  0  0  0
 25 26  1  1  0  0  0
 25 31  1  0  0  0  0
 27 28  1  0  0  0  0
 27 33  1  6  0  0  0
 29 30  1  0  0  0  0
 31 32  1  1  0  0  0
 33 34  1  0  0  0  0
M  END
>  <CHROM.1>
-168.47841375,-167.03674397,173.19298028,-123.85430135,173.71753323,67.89031499
-71.16262847,60.10136056,3.54415418,-6.26581674,45.94577761,1.32110137,0.26317158
2.18076931

>  <Name>
2o3v_lig

>  <RI>
0

>  <Rbt.Current_Directory>
/home/afrankz/demos/rdock_decoys_rna/rnas/2o3v

>  <Rbt.Executable>
rbdock ($Id: //depot/dev/client3/rdock/2013.1/src/exe/rbdock.cxx#4 $)

>  <Rbt.Library>
libRbt.so (2013.1, Build901 2013/11/27)

>  <Rbt.Parameter_File>
/export/apps/rDock/src/rDock_2013.1_src/data/scripts/dock_solv.prm

>  <Rbt.Receptor>
prm/pocket_docking_8.prm

>  <SCORE>
-11.6046

>  <SCORE.INTER>
-8.05073

>  <SCORE.INTER.CONST>
1

>  <SCORE.INTER.POLAR>
-1.48364

>  <SCORE.INTER.ROT>
8

>  <SCORE.INTER.SOLV>
15.5341

>  <SCORE.INTER.VDW>
-14.5331

>  <SCORE.INTER.norm>
-0.230021

>  <SCORE.INTRA>
-3.55382

>  <SCORE.INTRA.DIHEDRAL>
-3.37162

>  <SCORE.INTRA.DIHEDRAL.0>
13.1227

>  <SCORE.INTRA.POLAR>
0

>  <SCORE.INTRA.POLAR.0>
0

>  <SCORE.INTRA.REPUL>
0

>  <SCORE.INTRA.REPUL.0>
0

>  <SCORE.INTRA.SOLV>
0.813815

>  <SCORE.INTRA.SOLV.lig_0>
-89.1587

>  <SCORE.INTRA.VDW>
-2.27492

>  <SCORE.INTRA.VDW.0>
-0.838383

>  <SCORE.INTRA.norm>
-0.101538

>  <SCORE.RESTR>
0

>  <SCORE.RESTR.CAVITY>
0

>  <SCORE.RESTR.norm>
0

>  <SCORE.SYSTEM>
0

>  <SCORE.SYSTEM.CONST>
0

>  <SCORE.SYSTEM.DIHEDRAL>
0

>  <SCORE.SYSTEM.SOLV>
0

>  <SCORE.SYSTEM.norm>
0

>  <SCORE.heavy>
35

>  <SCORE.norm>
-0.331559

>  <RMSD>
8.568

$$$$
2o3v_lig
 OpenBabel02141814113D
libRbt.so/2013.1/901 2013/11/27
 35 37  0  0  0  0  0  0  0  0999 V2000
    2.2666   -7.2810   46.8054 C   0  0  2  0  0  0  0  0  0  0  0  0
    1.8000   -7.3764   48.1860 O   0  0  0  0  0  0  0  0  0  0  0  0
    0.7878  -11.5744   48.7148 C   0  0  2  0  0  0  0  0  0  0  0  0
    0.4058  -12.8637   49.3660 N   0  0  0  0  0  0  0  0  0  0  0  0
    2.5083   -1.1752   41.3238 C   0  0  2  0  0  0  0  0  0  0  0  0
    3.9311   -1.3853   41.4544 O   0  0  0  0  0  0  0  0  0  0  0  0
    2.4968   -5.7484   46.6144 C   0  0  2  0  0  0  0  0  0  0  0  0
    3.4816   -5.2284   47.5922 N   0  0  0  0  0  0  0  0  0  0  0  0
    2.1743  -11.0587   49.2954 C   0  0  0  0  0  0  0  0  0  0  0  0
    1.8478   -1.5608   42.6925 C   0  0  2  0  0  0  0  0  0  0  0  0
    2.4209   -0.7610   43.8046 N   0  0  0  0  0  0  0  0  0  0  0  0
    1.1363   -4.9338   46.7379 C   0  0  1  0  0  0  0  0  0  0  0  0
    1.3833   -3.4752   46.5975 O   0  0  0  0  0  0  0  0  0  0  0  0
    2.5515   -9.6817   48.5954 C   0  0  2  0  0  0  0  0  0  0  0  0
    3.8345   -9.1779   49.1305 N   0  0  0  0  0  0  0  0  0  0  0  0
    1.9958   -3.1167   42.9963 C   0  0  1  0  0  0  0  0  0  0  0  0
    1.3637   -3.5077   44.2422 O   0  0  0  0  0  0  0  0  0  0  0  0
    0.1248   -5.5303   45.6634 C   0  0  2  0  0  0  0  0  0  0  0  0
   -1.1316   -4.8788   45.7164 O   0  0  0  0  0  0  0  0  0  0  0  0
    1.4059   -8.6168   48.8465 C   0  0  2  0  0  0  0  0  0  0  0  0
    1.3685   -3.9149   41.8097 C   0  0  2  0  0  0  0  0  0  0  0  0
    1.4810   -5.3087   42.0204 O   0  0  0  0  0  0  0  0  0  0  0  0
   -0.0662   -7.0792   45.8832 C   0  0  2  0  0  0  0  0  0  0  0  0
    1.2461   -7.7572   45.8315 O   0  0  0  0  0  0  0  0  0  0  0  0
    0.0525   -9.1318   48.2812 C   0  0  2  0  0  0  0  0  0  0  0  0
   -0.9557   -8.1249   48.5822 O   0  0  0  0  0  0  0  0  0  0  0  0
    2.0584   -3.4934   40.4512 C   0  0  2  0  0  0  0  0  0  0  0  0
    1.9408   -2.0315   40.2472 O   0  0  0  0  0  0  0  0  0  0  0  0
   -1.0050   -7.6842   44.8404 C   0  0  0  0  0  0  0  0  0  0  0  0
   -1.2300   -9.0497   45.0926 O   0  0  0  0  0  0  0  0  0  0  0  0
   -0.3165  -10.4732   48.9570 C   0  0  1  0  0  0  0  0  0  0  0  0
   -1.5446  -10.9212   48.4229 O   0  0  0  0  0  0  0  0  0  0  0  0
    1.4488   -4.2147   39.2586 C   0  0  0  0  0  0  0  0  0  0  0  0
    0.1118   -3.8164   39.0749 O   0  0  0  0  0  0  0  0  0  0  0  0
    2.1856   -3.0979   45.3743 C   0  0  0  0  0  0  0  0  0  0  0  0
  1  2  1  1  0  0  0
  1  7  1  0  0  0  0
  1 24  1  0  0  0  0
  3  4  1  1  0  0  0
  3  9  1  0  0  0  0
  3 31  1  0  0  0  0
  5  6  1  1  0  0  0
  5 10  1  0  0  0  0
  5 28  1  0  0  0  0
  7  8  1  1  0  0  0
  7 12  1  0  0  0  0
  9 14  1  0  0  0  0
 10 11  1  1  0  0  0
 10 16  1  0  0  0  0
 12 13  1  6  0  0  0
 12 18  1  0  0  0  0
 13 35  1  0  0  0  0
 14 15  1  1  0  0  0
 14 20  1  0  0  0  0
 16 17  1  1  0  0  0
 16 21  1  0  0  0  0
 17 35  1  0  0  0  0
 18 19  1  1  0  0  0
 18 23  1  0  0  0  0
 20  2  1  6  0  0  0
 20 25  1  0  0  0  0
 21 22  1  1  0  0  0
 21 27  1  0  0  0  0
 23 24  1  0  0  0  0
 23 29  1  6  0  0  0
 25 26  1  1  0  0  0
 25 31  1  0  0  0  0
 27 28  1  0  0  0  0
 27 33  1  6  0  0  0
 29 30  1  0  0  0  0
 31 32  1  6  0  0  0
 33 34  1  0  0  0  0
M  END
>  <CHROM.1>
178.16205835,51.25514553,62.81575812,-76.10840868,176.33898657,49.32471386
-176.53882041,65.76748475,1.21542355,-6.11720880,45.34204163,-1.76614229
-0.92055036,-0.91295511

>  <Name>
2o3v_lig

>  <RI>
0

>  <Rbt.Current_Directory>
/home/afrankz/demos/rdock_decoys_rna/rnas/2o3v

>  <Rbt.Executable>
rbdock ($Id: //depot/dev/client3/rdock/2013.1/src/exe/rbdock.cxx#4 $)

>  <Rbt.Library>
libRbt.so (2013.1, Build901 2013/11/27)

>  <Rbt.Parameter_File>
/export/apps/rDock/src/rDock_2013.1_src/data/scripts/dock_solv.prm

>  <Rbt.Receptor>
prm/pocket_docking_7.prm

>  <SCORE>
-14.5113

>  <SCORE.INTER>
-8.63073

>  <SCORE.INTER.CONST>
1

>  <SCORE.INTER.POLAR>
-0.855066

>  <SCORE.INTER.ROT>
8

>  <SCORE.INTER.SOLV>
11.5251

>  <SCORE.INTER.VDW>
-15.6786

>  <SCORE.INTER.norm>
-0.246592

>  <SCORE.INTRA>
-5.88053

>  <SCORE.INTRA.DIHEDRAL>
-10.6581

>  <SCORE.INTRA.DIHEDRAL.0>
13.1227

>  <SCORE.INTRA.POLAR>
0

>  <SCORE.INTRA.POLAR.0>
0

>  <SCORE.INTRA.REPUL>
0

>  <SCORE.INTRA.REPUL.0>
0

>  <SCORE.INTRA.SOLV>
2.09801

>  <SCORE.INTRA.SOLV.lig_0>
-89.1587

>  <SCORE.INTRA.VDW>
-1.60048

>  <SCORE.INTRA.VDW.0>
-0.838383

>  <SCORE.INTRA.norm>
-0.168015

>  <SCORE.RESTR>
0

>  <SCORE.RESTR.CAVITY>
0

>  <SCORE.RESTR.norm>
0

>  <SCORE.SYSTEM>
0

>  <SCORE.SYSTEM.CONST>
0

>  <SCORE.SYSTEM.DIHEDRAL>
0

>  <SCORE.SYSTEM.SOLV>
0

>  <SCORE.SYSTEM.norm>
0

>  <SCORE.heavy>
35

>  <SCORE.norm>
-0.414607

>  <RMSD>
8.574

$$$$
2o3v_lig
 OpenBabel02141814113D
libRbt.so/2013.1/901 2013/11/27
 35 37  0  0  0  0  0  0  0  0999 V2000
    5.4301   -7.0008   45.5488 C   0  0  2  0  0  0  0  0  0  0  0  0
    6.5346   -6.3929   46.2859 O   0  0  0  0  0  0  0  0  0  0  0  0
    7.0482   -8.9224   49.7880 C   0  0  2  0  0  0  0  0  0  0  0  0
    7.6349   -9.5167   51.0269 N   0  0  0  0  0  0  0  0  0  0  0  0
    2.7332   -2.1184   38.2136 C   0  0  2  0  0  0  0  0  0  0  0  0
    3.8923   -2.8353   37.7361 O   0  0  0  0  0  0  0  0  0  0  0  0
    5.1971   -6.0015   44.3717 C   0  0  2  0  0  0  0  0  0  0  0  0
    6.4209   -5.8463   43.5504 N   0  0  0  0  0  0  0  0  0  0  0  0
    8.0363   -9.1313   48.5610 C   0  0  0  0  0  0  0  0  0  0  0  0
    2.9526   -1.8310   39.7392 C   0  0  2  0  0  0  0  0  0  0  0  0
    4.2035   -1.0625   39.9619 N   0  0  0  0  0  0  0  0  0  0  0  0
    4.7207   -4.5788   44.8992 C   0  0  1  0  0  0  0  0  0  0  0  0
    4.5477   -3.6306   43.7682 O   0  0  0  0  0  0  0  0  0  0  0  0
    7.3945   -8.4806   47.2597 C   0  0  2  0  0  0  0  0  0  0  0  0
    8.3043   -8.6540   46.1071 N   0  0  0  0  0  0  0  0  0  0  0  0
    2.9700   -3.1756   40.5916 C   0  0  1  0  0  0  0  0  0  0  0  0
    3.1384   -2.9369   42.0127 O   0  0  0  0  0  0  0  0  0  0  0  0
    3.4049   -4.8080   45.7651 C   0  0  2  0  0  0  0  0  0  0  0  0
    2.9182   -3.5906   46.3008 O   0  0  0  0  0  0  0  0  0  0  0  0
    7.1210   -6.9398   47.5054 C   0  0  2  0  0  0  0  0  0  0  0  0
    1.6328   -3.9409   40.3370 C   0  0  2  0  0  0  0  0  0  0  0  0
    1.5963   -5.1536   41.0633 O   0  0  0  0  0  0  0  0  0  0  0  0
    3.6807   -5.8327   46.9303 C   0  0  2  0  0  0  0  0  0  0  0  0
    4.1922   -7.1012   46.3700 O   0  0  0  0  0  0  0  0  0  0  0  0
    6.1591   -6.7445   48.7107 C   0  0  2  0  0  0  0  0  0  0  0  0
    5.9864   -5.3109   48.9012 O   0  0  0  0  0  0  0  0  0  0  0  0
    1.4489   -4.2058   38.7893 C   0  0  2  0  0  0  0  0  0  0  0  0
    1.4976   -2.9293   38.0403 O   0  0  0  0  0  0  0  0  0  0  0  0
    2.4223   -6.0992   47.7552 C   0  0  0  0  0  0  0  0  0  0  0  0
    2.6805   -7.0137   48.7924 O   0  0  0  0  0  0  0  0  0  0  0  0
    6.7780   -7.3791   49.9780 C   0  0  1  0  0  0  0  0  0  0  0  0
    5.8836   -7.1931   51.0549 O   0  0  0  0  0  0  0  0  0  0  0  0
    0.1359   -4.9121   38.4876 C   0  0  0  0  0  0  0  0  0  0  0  0
   -0.9492   -4.1610   38.9759 O   0  0  0  0  0  0  0  0  0  0  0  0
    3.6439   -4.1368   42.6685 C   0  0  0  0  0  0  0  0  0  0  0  0
  1  2  1  1  0  0  0
  1  7  1  0  0  0  0
  1 24  1  0  0  0  0
  3  4  1  1  0  0  0
  3  9  1  0  0  0  0
  3 31  1  0  0  0  0
  5  6  1  1  0  0  0
  5 10  1  0  0  0  0
  5 28  1  0  0  0  0
  7  8  1  1  0  0  0
  7 12  1  0  0  0  0
  9 14  1  0  0  0  0
 10 11  1  6  0  0  0
 10 16  1  0  0  0  0
 12 13  1  6  0  0  0
 12 18  1  0  0  0  0
 13 35  1  0  0  0  0
 14 15  1  6  0  0  0
 14 20  1  0  0  0  0
 16 17  1  1  0  0  0
 16 21  1  0  0  0  0
 17 35  1  0  0  0  0
 18 19  1  1  0  0  0
 18 23  1  0  0  0  0
 20  2  1  6  0  0  0
 20 25  1  0  0  0  0
 21 22  1  1  0  0  0
 21 27  1  0  0  0  0
 23 24  1  0  0  0  0
 23 29  1  6  0  0  0
 25 26  1  1  0  0  0
 25 31  1  0  0  0  0
 27 28  1  0  0  0  0
 27 33  1  1  0  0  0
 29 30  1  0  0  0  0
 31 32  1  1  0  0  0
 33 34  1  0  0  0  0
M  END
>  <CHROM.1>
178.92628355,53.56589908,155.50748930,-158.66546755,145.62009506,47.79771878
-179.94242632,57.33483575,4.27802576,-5.38800129,44.43305664,-1.16519155
0.22905363,-1.23511856

>  <Name>
2o3v_lig

>  <RI>
0

>  <Rbt.Current_Directory>
/home/afrankz/demos/rdock_decoys_rna/rnas/2o3v

>  <Rbt.Executable>
rbdock ($Id: //depot/dev/client3/rdock/2013.1/src/exe/rbdock.cxx#4 $)

>  <Rbt.Library>
libRbt.so (2013.1, Build901 2013/11/27)

>  <Rbt.Parameter_File>
/export/apps/rDock/src/rDock_2013.1_src/data/scripts/dock_solv.prm

>  <Rbt.Receptor>
prm/pocket_docking_8.prm

>  <SCORE>
-20.969

>  <SCORE.INTER>
-18.5105

>  <SCORE.INTER.CONST>
1

>  <SCORE.INTER.POLAR>
-3.29087

>  <SCORE.INTER.ROT>
8

>  <SCORE.INTER.SOLV>
11.4101

>  <SCORE.INTER.VDW>
-14.1075

>  <SCORE.INTER.norm>
-0.528873

>  <SCORE.INTRA>
-2.4585

>  <SCORE.INTRA.DIHEDRAL>
-3.11584

>  <SCORE.INTRA.DIHEDRAL.0>
13.1227

>  <SCORE.INTRA.POLAR>
0

>  <SCORE.INTRA.POLAR.0>
0

>  <SCORE.INTRA.REPUL>
0

>  <SCORE.INTRA.REPUL.0>
0

>  <SCORE.INTRA.SOLV>
0.526197

>  <SCORE.INTRA.SOLV.lig_0>
-89.1587

>  <SCORE.INTRA.VDW>
-1.16367

>  <SCORE.INTRA.VDW.0>
-0.838383

>  <SCORE.INTRA.norm>
-0.0702428

>  <SCORE.RESTR>
0

>  <SCORE.RESTR.CAVITY>
0

>  <SCORE.RESTR.norm>
0

>  <SCORE.SYSTEM>
0

>  <SCORE.SYSTEM.CONST>
0

>  <SCORE.SYSTEM.DIHEDRAL>
0

>  <SCORE.SYSTEM.SOLV>
0

>  <SCORE.SYSTEM.norm>
0

>  <SCORE.heavy>
35

>  <SCORE.norm>
-0.599115

>  <RMSD>
8.623

$$$$
2o3v_lig
 OpenBabel02141814113D
libRbt.so/2013.1/901 2013/11/27
 35 37  0  0  0  0  0  0  0  0999 V2000
    0.0401   -9.2798   45.1424 C   0  0  2  0  0  0  0  0  0  0  0  0
    0.4434   -8.6308   46.3870 O   0  0  0  0  0  0  0  0  0  0  0  0
    3.3385   -9.4195   49.5372 C   0  0  2  0  0  0  0  0  0  0  0  0
    4.6409   -9.6414   50.2348 N   0  0  0  0  0  0  0  0  0  0  0  0
    0.5154   -1.0965   40.3671 C   0  0  2  0  0  0  0  0  0  0  0  0
    0.0120   -0.4827   41.5735 O   0  0  0  0  0  0  0  0  0  0  0  0
    0.8741   -8.5221   44.0613 C   0  0  2  0  0  0  0  0  0  0  0  0
    2.3275   -8.6387   44.3268 N   0  0  0  0  0  0  0  0  0  0  0  0
    3.1165  -10.5345   48.4268 C   0  0  0  0  0  0  0  0  0  0  0  0
    0.7131   -2.6235   40.6629 C   0  0  2  0  0  0  0  0  0  0  0  0
   -0.5581   -3.2489   41.1077 N   0  0  0  0  0  0  0  0  0  0  0  0
    0.4651   -6.9874   43.9782 C   0  0  1  0  0  0  0  0  0  0  0  0
    1.3000   -6.2753   42.9760 O   0  0  0  0  0  0  0  0  0  0  0  0
    1.7312  -10.2689   47.6927 C   0  0  2  0  0  0  0  0  0  0  0  0
    1.5103  -11.2900   46.6462 N   0  0  0  0  0  0  0  0  0  0  0  0
    1.8573   -2.8673   41.7428 C   0  0  1  0  0  0  0  0  0  0  0  0
    2.0848   -4.2747   42.0113 O   0  0  0  0  0  0  0  0  0  0  0  0
   -1.0984   -6.9263   43.6860 C   0  0  2  0  0  0  0  0  0  0  0  0
   -1.5614   -5.5895   43.6189 O   0  0  0  0  0  0  0  0  0  0  0  0
    1.7317   -8.8231   47.0454 C   0  0  2  0  0  0  0  0  0  0  0  0
    3.1745   -2.2060   41.2267 C   0  0  2  0  0  0  0  0  0  0  0  0
    4.2275   -2.3822   42.1540 O   0  0  0  0  0  0  0  0  0  0  0  0
   -1.8991   -7.7149   44.7909 C   0  0  2  0  0  0  0  0  0  0  0  0
   -1.4121   -9.1085   44.8624 O   0  0  0  0  0  0  0  0  0  0  0  0
    1.9556   -7.7395   48.1371 C   0  0  2  0  0  0  0  0  0  0  0  0
    1.9842   -6.4467   47.4671 O   0  0  0  0  0  0  0  0  0  0  0  0
    2.9304   -0.6712   40.9371 C   0  0  2  0  0  0  0  0  0  0  0  0
    1.8204   -0.5007   39.9719 O   0  0  0  0  0  0  0  0  0  0  0  0
   -3.4016   -7.7032   44.5133 C   0  0  0  0  0  0  0  0  0  0  0  0
   -3.9233   -6.3998   44.6015 O   0  0  0  0  0  0  0  0  0  0  0  0
    3.3006   -7.9962   48.8563 C   0  0  1  0  0  0  0  0  0  0  0  0
    3.4769   -7.0033   49.8449 O   0  0  0  0  0  0  0  0  0  0  0  0
    4.1769    0.0073   40.3896 C   0  0  0  0  0  0  0  0  0  0  0  0
    4.4862   -0.4919   39.1109 O   0  0  0  0  0  0  0  0  0  0  0  0
    1.0715   -4.7827   42.9281 C   0  0  0  0  0  0  0  0  0  0  0  0
  1  2  1  1  0  0  0
  1  7  1  0  0  0  0
  1 24  1  0  0  0  0
  3  4  1  6  0  0  0
  3  9  1  0  0  0  0
  3 31  1  0  0  0  0
  5  6  1  1  0  0  0
  5 10  1  0  0  0  0
  5 28  1  0  0  0  0
  7  8  1  1  0  0  0
  7 12  1  0  0  0  0
  9 14  1  0  0  0  0
 10 11  1  1  0  0  0
 10 16  1  0  0  0  0
 12 13  1  6  0  0  0
 12 18  1  0  0  0  0
 13 35  1  0  0  0  0
 14 15  1  6  0  0  0
 14 20  1  0  0  0  0
 16 17  1  6  0  0  0
 16 21  1  0  0  0  0
 17 35  1  0  0  0  0
 18 19  1  1  0  0  0
 18 23  1  0  0  0  0
 20  2  1  1  0  0  0
 20 25  1  0  0  0  0
 21 22  1  1  0  0  0
 21 27  1  0  0  0  0
 23 24  1  0  0  0  0
 23 29  1  6  0  0  0
 25 26  1  6  0  0  0
 25 31  1  0  0  0  0
 27 28  1  0  0  0  0
 27 33  1  6  0  0  0
 29 30  1  0  0  0  0
 31 32  1  1  0  0  0
 33 34  1  0  0  0  0
M  END
>  <CHROM.1>
-73.71679730,-174.31034558,173.50429649,-79.79933029,172.46389894,-72.85754461
-65.18355910,66.85283205,1.28778853,-5.83975949,44.27978538,1.60624937,0.37256691
2.39511486

>  <Name>
2o3v_lig

>  <RI>
0

>  <Rbt.Current_Directory>
/home/afrankz/demos/rdock_decoys_rna/rnas/2o3v

>  <Rbt.Executable>
rbdock ($Id: //depot/dev/client3/rdock/2013.1/src/exe/rbdock.cxx#4 $)

>  <Rbt.Library>
libRbt.so (2013.1, Build901 2013/11/27)

>  <Rbt.Parameter_File>
/export/apps/rDock/src/rDock_2013.1_src/data/scripts/dock_solv.prm

>  <Rbt.Receptor>
prm/pocket_docking_8.prm

>  <SCORE>
-12.2596

>  <SCORE.INTER>
-9.63658

>  <SCORE.INTER.CONST>
1

>  <SCORE.INTER.POLAR>
-1.40319

>  <SCORE.INTER.ROT>
8

>  <SCORE.INTER.SOLV>
8.46948

>  <SCORE.INTER.VDW>
-13.5036

>  <SCORE.INTER.norm>
-0.275331

>  <SCORE.INTRA>
-2.623

>  <SCORE.INTRA.DIHEDRAL>
-8.72885

>  <SCORE.INTRA.DIHEDRAL.0>
13.1227

>  <SCORE.INTRA.POLAR>
0

>  <SCORE.INTRA.POLAR.0>
0

>  <SCORE.INTRA.REPUL>
0.0737021

>  <SCORE.INTRA.REPUL.0>
0

>  <SCORE.INTRA.SOLV>
4.18137

>  <SCORE.INTRA.SOLV.lig_0>
-89.1587

>  <SCORE.INTRA.VDW>
-0.71777

>  <SCORE.INTRA.VDW.0>
-0.838383

>  <SCORE.INTRA.norm>
-0.0749428

>  <SCORE.RESTR>
0

>  <SCORE.RESTR.CAVITY>
0

>  <SCORE.RESTR.norm>
0

>  <SCORE.SYSTEM>
0

>  <SCORE.SYSTEM.CONST>
0

>  <SCORE.SYSTEM.DIHEDRAL>
0

>  <SCORE.SYSTEM.SOLV>
0

>  <SCORE.SYSTEM.norm>
0

>  <SCORE.heavy>
35

>  <SCORE.norm>
-0.350274

>  <RMSD>
8.681

$$$$
2o3v_lig
 OpenBabel02141814113D
libRbt.so/2013.1/901 2013/11/27
 35 37  0  0  0  0  0  0  0  0999 V2000
   -0.6303  -11.8598   47.7827 C   0  0  2  0  0  0  0  0  0  0  0  0
   -1.4933  -10.7964   48.2898 O   0  0  0  0  0  0  0  0  0  0  0  0
   -4.2704  -10.6600   51.6358 C   0  0  2  0  0  0  0  0  0  0  0  0
   -5.5069  -10.8476   52.4532 N   0  0  0  0  0  0  0  0  0  0  0  0
   -0.6498   -4.3493   42.7161 C   0  0  2  0  0  0  0  0  0  0  0  0
   -0.9300   -4.8676   41.3976 O   0  0  0  0  0  0  0  0  0  0  0  0
    0.3948  -11.0895   46.8914 C   0  0  2  0  0  0  0  0  0  0  0  0
    1.1338  -10.0749   47.6794 N   0  0  0  0  0  0  0  0  0  0  0  0
   -4.5887   -9.7668   50.3606 C   0  0  0  0  0  0  0  0  0  0  0  0
   -0.0988   -5.5354   43.5810 C   0  0  2  0  0  0  0  0  0  0  0  0
    1.1094   -6.1326   42.9579 N   0  0  0  0  0  0  0  0  0  0  0  0
   -0.3173  -10.3921   45.6520 C   0  0  1  0  0  0  0  0  0  0  0  0
    0.6673   -9.6285   44.8423 O   0  0  0  0  0  0  0  0  0  0  0  0
   -3.2610   -9.5925   49.5031 C   0  0  2  0  0  0  0  0  0  0  0  0
   -3.5382   -8.7729   48.3039 N   0  0  0  0  0  0  0  0  0  0  0  0
   -1.2087   -6.6520   43.8180 C   0  0  1  0  0  0  0  0  0  0  0  0
   -0.7357   -7.7468   44.6442 O   0  0  0  0  0  0  0  0  0  0  0  0
   -1.0858  -11.5277   44.8435 C   0  0  2  0  0  0  0  0  0  0  0  0
   -1.7752  -10.9934   43.7276 O   0  0  0  0  0  0  0  0  0  0  0  0
   -2.7070  -11.0122   49.0710 C   0  0  2  0  0  0  0  0  0  0  0  0
   -2.4510   -5.9818   44.4858 C   0  0  2  0  0  0  0  0  0  0  0  0
   -3.4776   -6.9277   44.7114 O   0  0  0  0  0  0  0  0  0  0  0  0
   -2.0970  -12.2882   45.7830 C   0  0  2  0  0  0  0  0  0  0  0  0
   -1.3767  -12.8418   46.9489 O   0  0  0  0  0  0  0  0  0  0  0  0
   -2.4044  -11.8812   50.3238 C   0  0  2  0  0  0  0  0  0  0  0  0
   -1.9399  -13.1782   49.8514 O   0  0  0  0  0  0  0  0  0  0  0  0
   -2.9709   -4.7908   43.5854 C   0  0  2  0  0  0  0  0  0  0  0  0
   -1.8844   -3.8126   43.3500 O   0  0  0  0  0  0  0  0  0  0  0  0
   -2.8217  -13.4094   45.0398 C   0  0  0  0  0  0  0  0  0  0  0  0
   -3.7710  -14.0355   45.8678 O   0  0  0  0  0  0  0  0  0  0  0  0
   -3.6926  -12.0504   51.1628 C   0  0  1  0  0  0  0  0  0  0  0  0
   -3.3896  -12.8373   52.2955 O   0  0  0  0  0  0  0  0  0  0  0  0
   -4.1564   -4.0779   44.2181 C   0  0  0  0  0  0  0  0  0  0  0  0
   -3.7965   -3.5410   45.4679 O   0  0  0  0  0  0  0  0  0  0  0  0
    0.0456   -8.6811   43.8432 C   0  0  0  0  0  0  0  0  0  0  0  0
  1  2  1  6  0  0  0
  1  7  1  0  0  0  0
  1 24  1  0  0  0  0
  3  4  1  6  0  0  0
  3  9  1  0  0  0  0
  3 31  1  0  0  0  0
  5  6  1  6  0  0  0
  5 10  1  0  0  0  0
  5 28  1  0  0  0  0
  7  8  1  1  0  0  0
  7 12  1  0  0  0  0
  9 14  1  0  0  0  0
 10 11  1  6  0  0  0
 10 16  1  0  0  0  0
 12 13  1  6  0  0  0
 12 18  1  0  0  0  0
 13 35  1  0  0  0  0
 14 15  1  6  0  0  0
 14 20  1  0  0  0  0
 16 17  1  1  0  0  0
 16 21  1  0  0  0  0
 17 35  1  0  0  0  0
 18 19  1  6  0  0  0
 18 23  1  0  0  0  0
 20  2  1  1  0  0  0
 20 25  1  0  0  0  0
 21 22  1  6  0  0  0
 21 27  1  0  0  0  0
 23 24  1  0  0  0  0
 23 29  1  6  0  0  0
 25 26  1  6  0  0  0
 25 31  1  0  0  0  0
 27 28  1  0  0  0  0
 27 33  1  1  0  0  0
 29 30  1  0  0  0  0
 31 32  1  1  0  0  0
 33 34  1  0  0  0  0
M  END
>  <CHROM.1>
173.37277680,-166.51489725,60.68051934,-80.72462344,170.70454864,175.64873445
-176.92711529,60.17864639,-1.99570138,-9.21764342,46.45532888,-1.85182717
0.93990957,-0.53570498

>  <Name>
2o3v_lig

>  <RI>
0

>  <Rbt.Current_Directory>
/home/afrankz/demos/rdock_decoys_rna/rnas/2o3v

>  <Rbt.Executable>
rbdock ($Id: //depot/dev/client3/rdock/2013.1/src/exe/rbdock.cxx#4 $)

>  <Rbt.Library>
libRbt.so (2013.1, Build901 2013/11/27)

>  <Rbt.Parameter_File>
/export/apps/rDock/src/rDock_2013.1_src/data/scripts/dock_solv.prm

>  <Rbt.Receptor>
prm/pocket_docking_7.prm

>  <SCORE>
-8.42966

>  <SCORE.INTER>
-2.2837

>  <SCORE.INTER.CONST>
1

>  <SCORE.INTER.POLAR>
-0.847964

>  <SCORE.INTER.ROT>
8

>  <SCORE.INTER.SOLV>
5.83155

>  <SCORE.INTER.VDW>
-9.57311

>  <SCORE.INTER.norm>
-0.0652487

>  <SCORE.INTRA>
-6.14596

>  <SCORE.INTRA.DIHEDRAL>
-9.53123

>  <SCORE.INTRA.DIHEDRAL.0>
13.1227

>  <SCORE.INTRA.POLAR>
0

>  <SCORE.INTRA.POLAR.0>
0

>  <SCORE.INTRA.REPUL>
0

>  <SCORE.INTRA.REPUL.0>
0

>  <SCORE.INTRA.SOLV>
-0.103945

>  <SCORE.INTRA.SOLV.lig_0>
-89.1587

>  <SCORE.INTRA.VDW>
-1.32837

>  <SCORE.INTRA.VDW.0>
-0.838383

>  <SCORE.INTRA.norm>
-0.175599

>  <SCORE.RESTR>
0

>  <SCORE.RESTR.CAVITY>
0

>  <SCORE.RESTR.norm>
0

>  <SCORE.SYSTEM>
0

>  <SCORE.SYSTEM.CONST>
0

>  <SCORE.SYSTEM.DIHEDRAL>
0

>  <SCORE.SYSTEM.SOLV>
0

>  <SCORE.SYSTEM.norm>
0

>  <SCORE.heavy>
35

>  <SCORE.norm>
-0.240848

>  <RMSD>
8.690

$$$$
2o3v_lig
 OpenBabel02141814113D
libRbt.so/2013.1/901 2013/11/27
 35 37  0  0  0  0  0  0  0  0999 V2000
    2.1277   -6.8251   43.8917 C   0  0  2  0  0  0  0  0  0  0  0  0
    2.4216   -5.3976   43.7986 O   0  0  0  0  0  0  0  0  0  0  0  0
    2.0653   -2.2760   40.7893 C   0  0  2  0  0  0  0  0  0  0  0  0
    2.2698   -1.4988   39.5298 N   0  0  0  0  0  0  0  0  0  0  0  0
    6.1134   -9.8365   51.0652 C   0  0  2  0  0  0  0  0  0  0  0  0
    6.1320  -10.5752   49.8245 O   0  0  0  0  0  0  0  0  0  0  0  0
    2.0447   -7.0701   45.4316 C   0  0  2  0  0  0  0  0  0  0  0  0
    0.9977   -6.2250   46.0530 N   0  0  0  0  0  0  0  0  0  0  0  0
    3.4354   -2.3970   41.5853 C   0  0  0  0  0  0  0  0  0  0  0  0
    4.9616   -8.7774   50.9655 C   0  0  2  0  0  0  0  0  0  0  0  0
    3.6566   -9.4333   50.6977 N   0  0  0  0  0  0  0  0  0  0  0  0
    3.4423   -6.8019   46.1417 C   0  0  1  0  0  0  0  0  0  0  0  0
    3.3308   -6.9972   47.6106 O   0  0  0  0  0  0  0  0  0  0  0  0
    3.1929   -3.2370   42.9135 C   0  0  2  0  0  0  0  0  0  0  0  0
    4.4596   -3.3716   43.6644 N   0  0  0  0  0  0  0  0  0  0  0  0
    5.2688   -7.6814   49.8523 C   0  0  1  0  0  0  0  0  0  0  0  0
    4.2340   -6.6686   49.7613 O   0  0  0  0  0  0  0  0  0  0  0  0
    4.5208   -7.7384   45.4393 C   0  0  2  0  0  0  0  0  0  0  0  0
    5.8106   -7.5496   45.9930 O   0  0  0  0  0  0  0  0  0  0  0  0
    2.6256   -4.6706   42.5496 C   0  0  2  0  0  0  0  0  0  0  0  0
    6.6398   -7.0107   50.1825 C   0  0  2  0  0  0  0  0  0  0  0  0
    6.9711   -6.0317   49.2174 O   0  0  0  0  0  0  0  0  0  0  0  0
    4.5604   -7.4693   43.8870 C   0  0  2  0  0  0  0  0  0  0  0  0
    3.2130   -7.6630   43.3113 O   0  0  0  0  0  0  0  0  0  0  0  0
    1.2892   -4.5428   41.7661 C   0  0  2  0  0  0  0  0  0  0  0  0
    0.8502   -5.8908   41.4324 O   0  0  0  0  0  0  0  0  0  0  0  0
    7.7701   -8.1118   50.2783 C   0  0  2  0  0  0  0  0  0  0  0  0
    7.4068   -9.1346   51.2857 O   0  0  0  0  0  0  0  0  0  0  0  0
    5.5625   -8.3828   43.1826 C   0  0  0  0  0  0  0  0  0  0  0  0
    6.8783   -8.1063   43.5963 O   0  0  0  0  0  0  0  0  0  0  0  0
    1.5198   -3.7232   40.4749 C   0  0  1  0  0  0  0  0  0  0  0  0
    0.2917   -3.6173   39.7859 O   0  0  0  0  0  0  0  0  0  0  0  0
    9.1186   -7.5093   50.6422 C   0  0  0  0  0  0  0  0  0  0  0  0
   10.0910   -8.5191   50.7635 O   0  0  0  0  0  0  0  0  0  0  0  0
    4.2169   -6.0846   48.4257 C   0  0  0  0  0  0  0  0  0  0  0  0
  1  2  1  1  0  0  0
  1  7  1  0  0  0  0
  1 24  1  0  0  0  0
  3  4  1  6  0  0  0
  3  9  1  0  0  0  0
  3 31  1  0  0  0  0
  5  6  1  6  0  0  0
  5 10  1  0  0  0  0
  5 28  1  0  0  0  0
  7  8  1  1  0  0  0
  7 12  1  0  0  0  0
  9 14  1  0  0  0  0
 10 11  1  6  0  0  0
 10 16  1  0  0  0  0
 12 13  1  1  0  0  0
 12 18  1  0  0  0  0
 13 35  1  0  0  0  0
 14 15  1  6  0  0  0
 14 20  1  0  0  0  0
 16 17  1  1  0  0  0
 16 21  1  0  0  0  0
 17 35  1  0  0  0  0
 18 19  1  1  0  0  0
 18 23  1  0  0  0  0
 20  2  1  1  0  0  0
 20 25  1  0  0  0  0
 21 22  1  6  0  0  0
 21 27  1  0  0  0  0
 23 24  1  0  0  0  0
 23 29  1  6  0  0  0
 25 26  1  6  0  0  0
 25 31  1  0  0  0  0
 27 28  1  0  0  0  0
 27 33  1  1  0  0  0
 29 30  1  0  0  0  0
 31 32  1  1  0  0  0
 33 34  1  0  0  0  0
M  END
>  <CHROM.1>
178.66210501,-146.71693084,-165.05692594,-154.40804841,86.26843160,-169.05133057
-65.08339214,178.01926449,4.30854294,-6.51696358,45.90803149,2.02566124,-0.19776401
-1.01139706

>  <Name>
2o3v_lig

>  <RI>
0

>  <Rbt.Current_Directory>
/home/afrankz/demos/rdock_decoys_rna/rnas/2o3v

>  <Rbt.Executable>
rbdock ($Id: //depot/dev/client3/rdock/2013.1/src/exe/rbdock.cxx#4 $)

>  <Rbt.Library>
libRbt.so (2013.1, Build901 2013/11/27)

>  <Rbt.Parameter_File>
/export/apps/rDock/src/rDock_2013.1_src/data/scripts/dock_solv.prm

>  <Rbt.Receptor>
prm/pocket_docking_7.prm

>  <SCORE>
-12.909

>  <SCORE.INTER>
-9.94478

>  <SCORE.INTER.CONST>
1

>  <SCORE.INTER.POLAR>
-1.81669

>  <SCORE.INTER.ROT>
8

>  <SCORE.INTER.SOLV>
11.8383

>  <SCORE.INTER.VDW>
-13.4536

>  <SCORE.INTER.norm>
-0.284137

>  <SCORE.INTRA>
-2.97228

>  <SCORE.INTRA.DIHEDRAL>
-1.45523

>  <SCORE.INTRA.DIHEDRAL.0>
13.1227

>  <SCORE.INTRA.POLAR>
0

>  <SCORE.INTRA.POLAR.0>
0

>  <SCORE.INTRA.REPUL>
0

>  <SCORE.INTRA.REPUL.0>
0

>  <SCORE.INTRA.SOLV>
-0.532419

>  <SCORE.INTRA.SOLV.lig_0>
-89.1587

>  <SCORE.INTRA.VDW>
-1.97846

>  <SCORE.INTRA.VDW.0>
-0.838383

>  <SCORE.INTRA.norm>
-0.0849224

>  <SCORE.RESTR>
0.00809905

>  <SCORE.RESTR.CAVITY>
0.00809905

>  <SCORE.RESTR.norm>
0.000231401

>  <SCORE.SYSTEM>
0

>  <SCORE.SYSTEM.CONST>
0

>  <SCORE.SYSTEM.DIHEDRAL>
0

>  <SCORE.SYSTEM.SOLV>
0

>  <SCORE.SYSTEM.norm>
0

>  <SCORE.heavy>
35

>  <SCORE.norm>
-0.368828

>  <RMSD>
8.801

$$$$
2o3v_lig
 OpenBabel02141814113D
libRbt.so/2013.1/901 2013/11/27
 35 37  0  0  0  0  0  0  0  0999 V2000
    8.0681   -7.3566   44.0450 C   0  0  2  0  0  0  0  0  0  0  0  0
    8.3120   -6.3738   45.0974 O   0  0  0  0  0  0  0  0  0  0  0  0
   10.0972   -6.4940   49.0630 C   0  0  2  0  0  0  0  0  0  0  0  0
   11.1091   -6.6428   50.1521 N   0  0  0  0  0  0  0  0  0  0  0  0
    2.5684   -2.3992   38.5452 C   0  0  2  0  0  0  0  0  0  0  0  0
    2.6936   -3.7385   38.0195 O   0  0  0  0  0  0  0  0  0  0  0  0
    7.3675   -6.5162   42.9309 C   0  0  2  0  0  0  0  0  0  0  0  0
    8.2281   -5.3956   42.4839 N   0  0  0  0  0  0  0  0  0  0  0  0
    9.9458   -7.8612   48.2673 C   0  0  0  0  0  0  0  0  0  0  0  0
    3.6788   -2.2162   39.6368 C   0  0  2  0  0  0  0  0  0  0  0  0
    5.0292   -2.4589   39.0690 N   0  0  0  0  0  0  0  0  0  0  0  0
    5.9634   -5.9522   43.4209 C   0  0  1  0  0  0  0  0  0  0  0  0
    5.3341   -5.1195   42.3631 O   0  0  0  0  0  0  0  0  0  0  0  0
    8.8734   -7.6726   47.1084 C   0  0  2  0  0  0  0  0  0  0  0  0
    8.7255   -8.9317   46.3473 N   0  0  0  0  0  0  0  0  0  0  0  0
    3.4279   -3.1632   40.8918 C   0  0  1  0  0  0  0  0  0  0  0  0
    4.4230   -2.9902   41.9332 O   0  0  0  0  0  0  0  0  0  0  0  0
    5.0842   -7.1970   43.8802 C   0  0  2  0  0  0  0  0  0  0  0  0
    3.8158   -6.7875   44.3592 O   0  0  0  0  0  0  0  0  0  0  0  0
    9.3264   -6.5050   46.1385 C   0  0  2  0  0  0  0  0  0  0  0  0
    2.0054   -2.8630   41.4622 C   0  0  2  0  0  0  0  0  0  0  0  0
    1.7220   -3.6857   42.5768 O   0  0  0  0  0  0  0  0  0  0  0  0
    5.8343   -8.0242   44.9924 C   0  0  2  0  0  0  0  0  0  0  0  0
    7.1592   -8.4476   44.4925 O   0  0  0  0  0  0  0  0  0  0  0  0
    9.4781   -5.1733   46.9258 C   0  0  2  0  0  0  0  0  0  0  0  0
    9.9328   -4.1604   45.9833 O   0  0  0  0  0  0  0  0  0  0  0  0
    0.9186   -3.0547   40.3302 C   0  0  2  0  0  0  0  0  0  0  0  0
    1.2319   -2.1944   39.1664 O   0  0  0  0  0  0  0  0  0  0  0  0
    5.0270   -9.2474   45.4248 C   0  0  0  0  0  0  0  0  0  0  0  0
    5.6207   -9.8811   46.5316 O   0  0  0  0  0  0  0  0  0  0  0  0
   10.5179   -5.3533   48.0566 C   0  0  1  0  0  0  0  0  0  0  0  0
   10.6325   -4.1333   48.7584 O   0  0  0  0  0  0  0  0  0  0  0  0
   -0.4816   -2.7303   40.8285 C   0  0  0  0  0  0  0  0  0  0  0  0
   -0.5789   -1.3681   41.1674 O   0  0  0  0  0  0  0  0  0  0  0  0
    4.3546   -4.0937   42.8834 C   0  0  0  0  0  0  0  0  0  0  0  0
  1  2  1  1  0  0  0
  1  7  1  0  0  0  0
  1 24  1  0  0  0  0
  3  4  1  1  0  0  0
  3  9  1  0  0  0  0
  3 31  1  0  0  0  0
  5  6  1  1  0  0  0
  5 10  1  0  0  0  0
  5 28  1  0  0  0  0
  7  8  1  1  0  0  0
  7 12  1  0  0  0  0
  9 14  1  0  0  0  0
 10 11  1  6  0  0  0
 10 16  1  0  0  0  0
 12 13  1  6  0  0  0
 12 18  1  0  0  0  0
 13 35  1  0  0  0  0
 14 15  1  6  0  0  0
 14 20  1  0  0  0  0
 16 17  1  1  0  0  0
 16 21  1  0  0  0  0
 17 35  1  0  0  0  0
 18 19  1  1  0  0  0
 18 23  1  0  0  0  0
 20  2  1  6  0  0  0
 20 25  1  0  0  0  0
 21 22  1  1  0  0  0
 21 27  1  0  0  0  0
 23 24  1  0  0  0  0
 23 29  1  6  0  0  0
 25 26  1  6  0  0  0
 25 31  1  0  0  0  0
 27 28  1  0  0  0  0
 27 33  1  1  0  0  0
 29 30  1  0  0  0  0
 31 32  1  1  0  0  0
 33 34  1  0  0  0  0
M  END
>  <CHROM.1>
-157.57329367,-155.17082944,149.87970727,-165.48903233,91.71265448,-69.36698407
-172.47057815,64.66321852,5.81903222,-5.29953291,43.78803311,0.66889689,0.54831773
2.67135546

>  <Name>
2o3v_lig

>  <RI>
0

>  <Rbt.Current_Directory>
/home/afrankz/demos/rdock_decoys_rna/rnas/2o3v

>  <Rbt.Executable>
rbdock ($Id: //depot/dev/client3/rdock/2013.1/src/exe/rbdock.cxx#4 $)

>  <Rbt.Library>
libRbt.so (2013.1, Build901 2013/11/27)

>  <Rbt.Parameter_File>
/export/apps/rDock/src/rDock_2013.1_src/data/scripts/dock_solv.prm

>  <Rbt.Receptor>
prm/pocket_docking_8.prm

>  <SCORE>
-9.58511

>  <SCORE.INTER>
-11.2333

>  <SCORE.INTER.CONST>
1

>  <SCORE.INTER.POLAR>
-2.2538

>  <SCORE.INTER.ROT>
8

>  <SCORE.INTER.SOLV>
18.7986

>  <SCORE.INTER.VDW>
-15.1757

>  <SCORE.INTER.norm>
-0.320952

>  <SCORE.INTRA>
1.62131

>  <SCORE.INTRA.DIHEDRAL>
1.00806

>  <SCORE.INTRA.DIHEDRAL.0>
13.1227

>  <SCORE.INTRA.POLAR>
0

>  <SCORE.INTRA.POLAR.0>
0

>  <SCORE.INTRA.REPUL>
0.00639091

>  <SCORE.INTRA.REPUL.0>
0

>  <SCORE.INTRA.SOLV>
2.61641

>  <SCORE.INTRA.SOLV.lig_0>
-89.1587

>  <SCORE.INTRA.VDW>
-0.222877

>  <SCORE.INTRA.VDW.0>
-0.838383

>  <SCORE.INTRA.norm>
0.0463233

>  <SCORE.RESTR>
0.0269012

>  <SCORE.RESTR.CAVITY>
0.0269012

>  <SCORE.RESTR.norm>
0.000768606

>  <SCORE.SYSTEM>
0

>  <SCORE.SYSTEM.CONST>
0

>  <SCORE.SYSTEM.DIHEDRAL>
0

>  <SCORE.SYSTEM.SOLV>
0

>  <SCORE.SYSTEM.norm>
0

>  <SCORE.heavy>
35

>  <SCORE.norm>
-0.27386

>  <RMSD>
8.823

$$$$
2o3v_lig
 OpenBabel02141814113D
libRbt.so/2013.1/901 2013/11/27
 35 37  0  0  0  0  0  0  0  0999 V2000
    2.9211   -7.3390   43.7428 C   0  0  2  0  0  0  0  0  0  0  0  0
    2.9249   -5.9141   44.0630 O   0  0  0  0  0  0  0  0  0  0  0  0
    1.3275   -2.2391   42.3688 C   0  0  2  0  0  0  0  0  0  0  0  0
    1.0696   -1.1202   41.4129 N   0  0  0  0  0  0  0  0  0  0  0  0
    8.0352  -10.5169   49.5477 C   0  0  2  0  0  0  0  0  0  0  0  0
    8.5166   -9.4766   48.6693 O   0  0  0  0  0  0  0  0  0  0  0  0
    2.9242   -8.0181   45.1490 C   0  0  2  0  0  0  0  0  0  0  0  0
    1.7458   -7.6041   45.9466 N   0  0  0  0  0  0  0  0  0  0  0  0
    2.8657   -2.2748   42.7662 C   0  0  0  0  0  0  0  0  0  0  0  0
    6.6352  -10.9756   49.0114 C   0  0  2  0  0  0  0  0  0  0  0  0
    6.7309  -11.4449   47.6058 N   0  0  0  0  0  0  0  0  0  0  0  0
    4.2576   -7.6915   45.9521 C   0  0  1  0  0  0  0  0  0  0  0  0
    4.2214   -8.3096   47.3030 O   0  0  0  0  0  0  0  0  0  0  0  0
    3.1150   -3.4796   43.7734 C   0  0  2  0  0  0  0  0  0  0  0  0
    4.5444   -3.5379   44.1474 N   0  0  0  0  0  0  0  0  0  0  0  0
    5.5520   -9.8153   49.1348 C   0  0  1  0  0  0  0  0  0  0  0  0
    4.2376  -10.2235   48.6761 O   0  0  0  0  0  0  0  0  0  0  0  0
    5.4831   -8.1624   45.0521 C   0  0  2  0  0  0  0  0  0  0  0  0
    6.7228   -7.8875   45.6794 O   0  0  0  0  0  0  0  0  0  0  0  0
    2.6764   -4.8451   43.1009 C   0  0  2  0  0  0  0  0  0  0  0  0
    5.4765   -9.3650   50.6282 C   0  0  2  0  0  0  0  0  0  0  0  0
    4.5341   -8.3244   50.7971 O   0  0  0  0  0  0  0  0  0  0  0  0
    5.4324   -7.4656   43.6395 C   0  0  2  0  0  0  0  0  0  0  0  0
    4.1366   -7.7501   42.9878 O   0  0  0  0  0  0  0  0  0  0  0  0
    1.1726   -4.7994   42.7098 C   0  0  2  0  0  0  0  0  0  0  0  0
    0.8525   -6.0652   42.0647 O   0  0  0  0  0  0  0  0  0  0  0  0
    6.9070   -8.9158   51.1294 C   0  0  2  0  0  0  0  0  0  0  0  0
    7.8854  -10.0110   50.9390 O   0  0  0  0  0  0  0  0  0  0  0  0
    6.5784   -7.9293   42.7415 C   0  0  0  0  0  0  0  0  0  0  0  0
    6.7539   -7.0566   41.6523 O   0  0  0  0  0  0  0  0  0  0  0  0
    0.9250   -3.6263   41.7327 C   0  0  1  0  0  0  0  0  0  0  0  0
   -0.4468   -3.6037   41.3981 O   0  0  0  0  0  0  0  0  0  0  0  0
    6.8918   -8.5089   52.5951 C   0  0  0  0  0  0  0  0  0  0  0  0
    6.2134   -7.2870   52.7584 O   0  0  0  0  0  0  0  0  0  0  0  0
    4.0355   -9.8088   47.2932 C   0  0  0  0  0  0  0  0  0  0  0  0
  1  2  1  1  0  0  0
  1  7  1  0  0  0  0
  1 24  1  0  0  0  0
  3  4  1  6  0  0  0
  3  9  1  0  0  0  0
  3 31  1  0  0  0  0
  5  6  1  6  0  0  0
  5 10  1  0  0  0  0
  5 28  1  0  0  0  0
  7  8  1  1  0  0  0
  7 12  1  0  0  0  0
  9 14  1  0  0  0  0
 10 11  1  6  0  0  0
 10 16  1  0  0  0  0
 12 13  1  1  0  0  0
 12 18  1  0  0  0  0
 13 35  1  0  0  0  0
 14 15  1  6  0  0  0
 14 20  1  0  0  0  0
 16 17  1  1  0  0  0
 16 21  1  0  0  0  0
 17 35  1  0  0  0  0
 18 19  1  1  0  0  0
 18 23  1  0  0  0  0
 20  2  1  1  0  0  0
 20 25  1  0  0  0  0
 21 22  1  6  0  0  0
 21 27  1  0  0  0  0
 23 24  1  0  0  0  0
 23 29  1  6  0  0  0
 25 26  1  6  0  0  0
 25 31  1  0  0  0  0
 27 28  1  0  0  0  0
 27 33  1  1  0  0  0
 29 30  1  0  0  0  0
 31 32  1  1  0  0  0
 33 34  1  0  0  0  0
M  END
>  <CHROM.1>
-168.09283107,57.78116142,171.40473450,-96.26559115,-57.85396890,-166.56677077
-163.52114758,-71.03257934,4.41727084,-7.20642964,45.97521167,-2.28245760
-0.83849665,1.61153995

>  <Name>
2o3v_lig

>  <RI>
0

>  <Rbt.Current_Directory>
/home/afrankz/demos/rdock_decoys_rna/rnas/2o3v

>  <Rbt.Executable>
rbdock ($Id: //depot/dev/client3/rdock/2013.1/src/exe/rbdock.cxx#4 $)

>  <Rbt.Library>
libRbt.so (2013.1, Build901 2013/11/27)

>  <Rbt.Parameter_File>
/export/apps/rDock/src/rDock_2013.1_src/data/scripts/dock_solv.prm

>  <Rbt.Receptor>
prm/pocket_docking_6.prm

>  <SCORE>
-16.9459

>  <SCORE.INTER>
-13.577

>  <SCORE.INTER.CONST>
1

>  <SCORE.INTER.POLAR>
-2.55561

>  <SCORE.INTER.ROT>
8

>  <SCORE.INTER.SOLV>
11.466

>  <SCORE.INTER.VDW>
-13.288

>  <SCORE.INTER.norm>
-0.387915

>  <SCORE.INTRA>
-3.382

>  <SCORE.INTRA.DIHEDRAL>
-5.03565

>  <SCORE.INTRA.DIHEDRAL.0>
13.1227

>  <SCORE.INTRA.POLAR>
0

>  <SCORE.INTRA.POLAR.0>
0

>  <SCORE.INTRA.REPUL>
0.0750693

>  <SCORE.INTRA.REPUL.0>
0

>  <SCORE.INTRA.SOLV>
0.745198

>  <SCORE.INTRA.SOLV.lig_0>
-89.1587

>  <SCORE.INTRA.VDW>
-1.61212

>  <SCORE.INTRA.VDW.0>
-0.838383

>  <SCORE.INTRA.norm>
-0.0966285

>  <SCORE.RESTR>
0.0131089

>  <SCORE.RESTR.CAVITY>
0.0131089

>  <SCORE.RESTR.norm>
0.00037454

>  <SCORE.SYSTEM>
0

>  <SCORE.SYSTEM.CONST>
0

>  <SCORE.SYSTEM.DIHEDRAL>
0

>  <SCORE.SYSTEM.SOLV>
0

>  <SCORE.SYSTEM.norm>
0

>  <SCORE.heavy>
35

>  <SCORE.norm>
-0.484169

>  <RMSD>
8.839

$$$$
2o3v_lig
 OpenBabel02141814113D
libRbt.so/2013.1/901 2013/11/27
 35 37  0  0  0  0  0  0  0  0999 V2000
    3.7429   -8.3301   43.7735 C   0  0  2  0  0  0  0  0  0  0  0  0
    3.4599   -7.3045   44.7739 O   0  0  0  0  0  0  0  0  0  0  0  0
    2.1560   -3.8589   42.4599 C   0  0  2  0  0  0  0  0  0  0  0  0
    1.6251   -2.5039   42.1218 N   0  0  0  0  0  0  0  0  0  0  0  0
    5.4432   -8.1943   52.0380 C   0  0  2  0  0  0  0  0  0  0  0  0
    6.0677   -9.3746   52.5879 O   0  0  0  0  0  0  0  0  0  0  0  0
    4.2367   -9.5367   44.6330 C   0  0  2  0  0  0  0  0  0  0  0  0
    3.2052   -9.9557   45.6111 N   0  0  0  0  0  0  0  0  0  0  0  0
    1.0549   -4.6982   43.2399 C   0  0  0  0  0  0  0  0  0  0  0  0
    4.9129   -8.5642   50.6097 C   0  0  2  0  0  0  0  0  0  0  0  0
    3.9669   -9.7071   50.6722 N   0  0  0  0  0  0  0  0  0  0  0  0
    5.5910   -9.1960   45.3941 C   0  0  1  0  0  0  0  0  0  0  0  0
    6.0199  -10.3400   46.2401 O   0  0  0  0  0  0  0  0  0  0  0  0
    1.6484   -6.1294   43.5975 C   0  0  2  0  0  0  0  0  0  0  0  0
    0.6424   -6.9236   44.3349 N   0  0  0  0  0  0  0  0  0  0  0  0
    6.1069   -8.8883   49.6076 C   0  0  1  0  0  0  0  0  0  0  0  0
    5.6459   -9.2017   48.2682 O   0  0  0  0  0  0  0  0  0  0  0  0
    6.6580   -8.7610   44.2959 C   0  0  2  0  0  0  0  0  0  0  0  0
    7.8973   -8.4128   44.8864 O   0  0  0  0  0  0  0  0  0  0  0  0
    2.9575   -5.9673   44.4745 C   0  0  2  0  0  0  0  0  0  0  0  0
    7.0653   -7.6561   49.5640 C   0  0  2  0  0  0  0  0  0  0  0  0
    8.1550   -7.8918   48.6943 O   0  0  0  0  0  0  0  0  0  0  0  0
    6.1135   -7.5527   43.4432 C   0  0  2  0  0  0  0  0  0  0  0  0
    4.8184   -7.9162   42.8308 O   0  0  0  0  0  0  0  0  0  0  0  0
    4.0265   -5.1402   43.7067 C   0  0  2  0  0  0  0  0  0  0  0  0
    5.1797   -4.9985   44.5848 O   0  0  0  0  0  0  0  0  0  0  0  0
    7.5722   -7.3149   51.0221 C   0  0  2  0  0  0  0  0  0  0  0  0
    6.4216   -7.0790   51.9239 O   0  0  0  0  0  0  0  0  0  0  0  0
    7.1044   -7.1391   42.3560 C   0  0  0  0  0  0  0  0  0  0  0  0
    7.3657   -8.2053   41.4763 O   0  0  0  0  0  0  0  0  0  0  0  0
    3.4520   -3.7482   43.3538 C   0  0  1  0  0  0  0  0  0  0  0  0
    4.4389   -3.0205   42.6534 O   0  0  0  0  0  0  0  0  0  0  0  0
    8.4764   -6.0918   51.0357 C   0  0  0  0  0  0  0  0  0  0  0  0
    7.7864   -4.9656   50.5502 O   0  0  0  0  0  0  0  0  0  0  0  0
    6.6734   -9.9372   47.5412 C   0  0  0  0  0  0  0  0  0  0  0  0
  1  2  1  1  0  0  0
  1  7  1  0  0  0  0
  1 24  1  0  0  0  0
  3  4  1  1  0  0  0
  3  9  1  0  0  0  0
  3 31  1  0  0  0  0
  5  6  1  6  0  0  0
  5 10  1  0  0  0  0
  5 28  1  0  0  0  0
  7  8  1  1  0  0  0
  7 12  1  0  0  0  0
  9 14  1  0  0  0  0
 10 11  1  1  0  0  0
 10 16  1  0  0  0  0
 12 13  1  6  0  0  0
 12 18  1  0  0  0  0
 13 35  1  0  0  0  0
 14 15  1  1  0  0  0
 14 20  1  0  0  0  0
 16 17  1  6  0  0  0
 16 21  1  0  0  0  0
 17 35  1  0  0  0  0
 18 19  1  1  0  0  0
 18 23  1  0  0  0  0
 20  2  1  6  0  0  0
 20 25  1  0  0  0  0
 21 22  1  6  0  0  0
 21 27  1  0  0  0  0
 23 24  1  0  0  0  0
 23 29  1  6  0  0  0
 25 26  1  1  0  0  0
 25 31  1  0  0  0  0
 27 28  1  0  0  0  0
 27 33  1  6  0  0  0
 29 30  1  0  0  0  0
 31 32  1  6  0  0  0
 33 34  1  0  0  0  0
M  END
>  <CHROM.1>
-179.69737271,-144.28263694,61.96158690,-159.68003313,173.57734090,53.62470522
59.53514087,60.16945173,5.13500419,-7.27779435,46.26028566,-2.21896460,-0.93000644
1.35537126

>  <Name>
2o3v_lig

>  <RI>
0

>  <Rbt.Current_Directory>
/home/afrankz/demos/rdock_decoys_rna/rnas/2o3v

>  <Rbt.Executable>
rbdock ($Id: //depot/dev/client3/rdock/2013.1/src/exe/rbdock.cxx#4 $)

>  <Rbt.Library>
libRbt.so (2013.1, Build901 2013/11/27)

>  <Rbt.Parameter_File>
/export/apps/rDock/src/rDock_2013.1_src/data/scripts/dock_solv.prm

>  <Rbt.Receptor>
prm/pocket_docking_7.prm

>  <SCORE>
-21.3662

>  <SCORE.INTER>
-16.8054

>  <SCORE.INTER.CONST>
1

>  <SCORE.INTER.POLAR>
-1.83658

>  <SCORE.INTER.ROT>
8

>  <SCORE.INTER.SOLV>
14.0624

>  <SCORE.INTER.VDW>
-18.7025

>  <SCORE.INTER.norm>
-0.480154

>  <SCORE.INTRA>
-4.56084

>  <SCORE.INTRA.DIHEDRAL>
-6.14635

>  <SCORE.INTRA.DIHEDRAL.0>
13.1227

>  <SCORE.INTRA.POLAR>
0

>  <SCORE.INTRA.POLAR.0>
0

>  <SCORE.INTRA.REPUL>
0.00101336

>  <SCORE.INTRA.REPUL.0>
0

>  <SCORE.INTRA.SOLV>
0.832104

>  <SCORE.INTRA.SOLV.lig_0>
-89.1587

>  <SCORE.INTRA.VDW>
-1.90879

>  <SCORE.INTRA.VDW.0>
-0.838383

>  <SCORE.INTRA.norm>
-0.13031

>  <SCORE.RESTR>
0

>  <SCORE.RESTR.CAVITY>
0

>  <SCORE.RESTR.norm>
0

>  <SCORE.SYSTEM>
0

>  <SCORE.SYSTEM.CONST>
0

>  <SCORE.SYSTEM.DIHEDRAL>
0

>  <SCORE.SYSTEM.SOLV>
0

>  <SCORE.SYSTEM.norm>
0

>  <SCORE.heavy>
35

>  <SCORE.norm>
-0.610464

>  <RMSD>
8.851

$$$$
2o3v_lig
 OpenBabel02141814113D
libRbt.so/2013.1/901 2013/11/27
 35 37  0  0  0  0  0  0  0  0999 V2000
    4.1562   -5.6691   47.8273 C   0  0  2  0  0  0  0  0  0  0  0  0
    3.2321   -6.7281   47.4306 O   0  0  0  0  0  0  0  0  0  0  0  0
    2.3738  -10.7466   48.8597 C   0  0  2  0  0  0  0  0  0  0  0  0
    1.9285  -11.8660   49.7433 N   0  0  0  0  0  0  0  0  0  0  0  0
    2.8020   -2.1586   38.4856 C   0  0  2  0  0  0  0  0  0  0  0  0
    3.9602   -2.8753   38.0054 O   0  0  0  0  0  0  0  0  0  0  0  0
    3.7821   -4.4949   46.8682 C   0  0  2  0  0  0  0  0  0  0  0  0
    2.3604   -4.1070   47.0250 N   0  0  0  0  0  0  0  0  0  0  0  0
    3.5565   -9.9416   49.5515 C   0  0  0  0  0  0  0  0  0  0  0  0
    3.0427   -1.8360   40.0009 C   0  0  2  0  0  0  0  0  0  0  0  0
    4.2897   -1.0515   40.1870 N   0  0  0  0  0  0  0  0  0  0  0  0
    4.0726   -4.8665   45.3493 C   0  0  1  0  0  0  0  0  0  0  0  0
    3.6690   -3.7542   44.4503 O   0  0  0  0  0  0  0  0  0  0  0  0
    4.0032   -8.7508   48.5971 C   0  0  2  0  0  0  0  0  0  0  0  0
    5.0966   -7.9808   49.2280 N   0  0  0  0  0  0  0  0  0  0  0  0
    3.0861   -3.1615   40.8820 C   0  0  1  0  0  0  0  0  0  0  0  0
    3.2745   -2.8903   42.2946 O   0  0  0  0  0  0  0  0  0  0  0  0
    5.6097   -5.2663   45.2424 C   0  0  2  0  0  0  0  0  0  0  0  0
    5.9578   -5.6390   43.9211 O   0  0  0  0  0  0  0  0  0  0  0  0
    2.7700   -7.7997   48.3072 C   0  0  2  0  0  0  0  0  0  0  0  0
    1.7523   -3.9442   40.6653 C   0  0  2  0  0  0  0  0  0  0  0  0
    1.7386   -5.1411   41.4182 O   0  0  0  0  0  0  0  0  0  0  0  0
    5.9461   -6.4423   46.2362 C   0  0  2  0  0  0  0  0  0  0  0  0
    5.5787   -6.0533   47.6139 O   0  0  0  0  0  0  0  0  0  0  0  0
    1.6160   -8.5962   47.6364 C   0  0  2  0  0  0  0  0  0  0  0  0
    0.5081   -7.6720   47.4374 O   0  0  0  0  0  0  0  0  0  0  0  0
    1.5466   -4.2445   39.1268 C   0  0  2  0  0  0  0  0  0  0  0  0
    1.5716   -2.9843   38.3496 O   0  0  0  0  0  0  0  0  0  0  0  0
    7.4254   -6.8208   46.1802 C   0  0  0  0  0  0  0  0  0  0  0  0
    7.7756   -7.3102   44.9087 O   0  0  0  0  0  0  0  0  0  0  0  0
    1.1806   -9.7579   48.5600 C   0  0  1  0  0  0  0  0  0  0  0  0
    0.1372  -10.4675   47.9262 O   0  0  0  0  0  0  0  0  0  0  0  0
    0.2357   -4.9690   38.8614 C   0  0  0  0  0  0  0  0  0  0  0  0
   -0.8507   -4.2041   39.3247 O   0  0  0  0  0  0  0  0  0  0  0  0
    3.7455   -4.0882   42.9790 C   0  0  0  0  0  0  0  0  0  0  0  0
  1  2  1  6  0  0  0
  1  7  1  0  0  0  0
  1 24  1  0  0  0  0
  3  4  1  1  0  0  0
  3  9  1  0  0  0  0
  3 31  1  0  0  0  0
  5  6  1  1  0  0  0
  5 10  1  0  0  0  0
  5 28  1  0  0  0  0
  7  8  1  6  0  0  0
  7 12  1  0  0  0  0
  9 14  1  0  0  0  0
 10 11  1  6  0  0  0
 10 16  1  0  0  0  0
 12 13  1  6  0  0  0
 12 18  1  0  0  0  0
 13 35  1  0  0  0  0
 14 15  1  1  0  0  0
 14 20  1  0  0  0  0
 16 17  1  1  0  0  0
 16 21  1  0  0  0  0
 17 35  1  0  0  0  0
 18 19  1  6  0  0  0
 18 23  1  0  0  0  0
 20  2  1  6  0  0  0
 20 25  1  0  0  0  0
 21 22  1  1  0  0  0
 21 27  1  0  0  0  0
 23 24  1  0  0  0  0
 23 29  1  1  0  0  0
 25 26  1  1  0  0  0
 25 31  1  0  0  0  0
 27 28  1  0  0  0  0
 27 33  1  1  0  0  0
 29 30  1  0  0  0  0
 31 32  1  6  0  0  0
 33 34  1  0  0  0  0
M  END
>  <CHROM.1>
-153.41892247,-172.60696244,178.32674870,-161.16641852,-170.36974685,-69.02921197
-63.27945634,58.59692265,3.21933942,-5.81904976,44.50177489,-1.49294559,-0.40258570
-0.96584525

>  <Name>
2o3v_lig

>  <RI>
0

>  <Rbt.Current_Directory>
/home/afrankz/demos/rdock_decoys_rna/rnas/2o3v

>  <Rbt.Executable>
rbdock ($Id: //depot/dev/client3/rdock/2013.1/src/exe/rbdock.cxx#4 $)

>  <Rbt.Library>
libRbt.so (2013.1, Build901 2013/11/27)

>  <Rbt.Parameter_File>
/export/apps/rDock/src/rDock_2013.1_src/data/scripts/dock_solv.prm

>  <Rbt.Receptor>
prm/pocket_docking_7.prm

>  <SCORE>
-12.057

>  <SCORE.INTER>
-9.30956

>  <SCORE.INTER.CONST>
1

>  <SCORE.INTER.POLAR>
-1.23049

>  <SCORE.INTER.ROT>
8

>  <SCORE.INTER.SOLV>
13.4651

>  <SCORE.INTER.VDW>
-15.5264

>  <SCORE.INTER.norm>
-0.265988

>  <SCORE.INTRA>
-2.786

>  <SCORE.INTRA.DIHEDRAL>
-7.34871

>  <SCORE.INTRA.DIHEDRAL.0>
13.1227

>  <SCORE.INTRA.POLAR>
0

>  <SCORE.INTRA.POLAR.0>
0

>  <SCORE.INTRA.REPUL>
0

>  <SCORE.INTRA.REPUL.0>
0

>  <SCORE.INTRA.SOLV>
1.87381

>  <SCORE.INTRA.SOLV.lig_0>
-89.1587

>  <SCORE.INTRA.VDW>
-0.0485534

>  <SCORE.INTRA.VDW.0>
-0.838383

>  <SCORE.INTRA.norm>
-0.0796001

>  <SCORE.RESTR>
0.0385809

>  <SCORE.RESTR.CAVITY>
0.0385809

>  <SCORE.RESTR.norm>
0.00110231

>  <SCORE.SYSTEM>
0

>  <SCORE.SYSTEM.CONST>
0

>  <SCORE.SYSTEM.DIHEDRAL>
0

>  <SCORE.SYSTEM.SOLV>
0

>  <SCORE.SYSTEM.norm>
0

>  <SCORE.heavy>
35

>  <SCORE.norm>
-0.344485

>  <RMSD>
8.912

$$$$
2o3v_lig
 OpenBabel02141814113D
libRbt.so/2013.1/901 2013/11/27
 35 37  0  0  0  0  0  0  0  0999 V2000
   -2.1268   -6.7308   46.4027 C   0  0  2  0  0  0  0  0  0  0  0  0
   -1.7505   -7.2716   45.0993 O   0  0  0  0  0  0  0  0  0  0  0  0
   -3.1067  -11.4048   45.1666 C   0  0  2  0  0  0  0  0  0  0  0  0
   -3.4880  -12.7735   44.7047 N   0  0  0  0  0  0  0  0  0  0  0  0
    5.5554   -4.9963   42.4949 C   0  0  2  0  0  0  0  0  0  0  0  0
    6.4983   -4.6389   43.5286 O   0  0  0  0  0  0  0  0  0  0  0  0
   -1.4409   -5.3280   46.4156 C   0  0  2  0  0  0  0  0  0  0  0  0
   -1.9119   -4.4907   45.2871 N   0  0  0  0  0  0  0  0  0  0  0  0
   -4.0482  -10.3178   44.4902 C   0  0  0  0  0  0  0  0  0  0  0  0
    4.1765   -4.3523   42.8721 C   0  0  2  0  0  0  0  0  0  0  0  0
    4.2985   -2.8797   43.0183 N   0  0  0  0  0  0  0  0  0  0  0  0
    0.1439   -5.4525   46.3666 C   0  0  1  0  0  0  0  0  0  0  0  0
    0.7754   -4.1076   46.3349 O   0  0  0  0  0  0  0  0  0  0  0  0
   -3.6145   -8.8715   44.9887 C   0  0  2  0  0  0  0  0  0  0  0  0
   -4.4718   -7.8429   44.3613 N   0  0  0  0  0  0  0  0  0  0  0  0
    3.5752   -4.9923   44.2002 C   0  0  1  0  0  0  0  0  0  0  0  0
    2.2823   -4.4378   44.5547 O   0  0  0  0  0  0  0  0  0  0  0  0
    0.5893   -6.3531   47.6012 C   0  0  2  0  0  0  0  0  0  0  0  0
    1.9929   -6.5411   47.6262 O   0  0  0  0  0  0  0  0  0  0  0  0
   -2.0964   -8.6067   44.6219 C   0  0  2  0  0  0  0  0  0  0  0  0
    3.4523   -6.5354   43.9947 C   0  0  2  0  0  0  0  0  0  0  0  0
    2.9314   -7.1611   45.1509 O   0  0  0  0  0  0  0  0  0  0  0  0
   -0.1369   -7.7511   47.5570 C   0  0  2  0  0  0  0  0  0  0  0  0
   -1.6013   -7.5531   47.5270 O   0  0  0  0  0  0  0  0  0  0  0  0
   -1.1836   -9.6776   45.2823 C   0  0  2  0  0  0  0  0  0  0  0  0
    0.1848   -9.3960   44.8708 O   0  0  0  0  0  0  0  0  0  0  0  0
    4.8609   -7.1428   43.6122 C   0  0  2  0  0  0  0  0  0  0  0  0
    5.3985   -6.4733   42.4057 O   0  0  0  0  0  0  0  0  0  0  0  0
    0.2453   -8.6220   48.7529 C   0  0  0  0  0  0  0  0  0  0  0  0
    1.5881   -9.0332   48.6719 O   0  0  0  0  0  0  0  0  0  0  0  0
   -1.6043  -11.0866   44.8028 C   0  0  1  0  0  0  0  0  0  0  0  0
   -0.7648  -12.0395   45.4204 O   0  0  0  0  0  0  0  0  0  0  0  0
    4.7821   -8.6406   43.3589 C   0  0  0  0  0  0  0  0  0  0  0  0
    5.9863   -9.1084   42.8013 O   0  0  0  0  0  0  0  0  0  0  0  0
    2.2431   -4.1209   45.9771 C   0  0  0  0  0  0  0  0  0  0  0  0
  1  2  1  6  0  0  0
  1  7  1  0  0  0  0
  1 24  1  0  0  0  0
  3  4  1  6  0  0  0
  3  9  1  0  0  0  0
  3 31  1  0  0  0  0
  5  6  1  1  0  0  0
  5 10  1  0  0  0  0
  5 28  1  0  0  0  0
  7  8  1  6  0  0  0
  7 12  1  0  0  0  0
  9 14  1  0  0  0  0
 10 11  1  1  0  0  0
 10 16  1  0  0  0  0
 12 13  1  1  0  0  0
 12 18  1  0  0  0  0
 13 35  1  0  0  0  0
 14 15  1  6  0  0  0
 14 20  1  0  0  0  0
 16 17  1  6  0  0  0
 16 21  1  0  0  0  0
 17 35  1  0  0  0  0
 18 19  1  6  0  0  0
 18 23  1  0  0  0  0
 20  2  1  1  0  0  0
 20 25  1  0  0  0  0
 21 22  1  1  0  0  0
 21 27  1  0  0  0  0
 23 24  1  0  0  0  0
 23 29  1  1  0  0  0
 25 26  1  6  0  0  0
 25 31  1  0  0  0  0
 27 28  1  0  0  0  0
 27 33  1  6  0  0  0
 29 30  1  0  0  0  0
 31 32  1  1  0  0  0
 33 34  1  0  0  0  0
M  END
>  <CHROM.1>
176.96521800,-166.94207310,72.10594161,-134.17521397,-157.52175414,43.80973917
-68.93503555,169.87339092,0.87136776,-7.33571422,45.16254827,2.71767134,-0.39548328
-2.86509776

>  <Name>
2o3v_lig

>  <RI>
0

>  <Rbt.Current_Directory>
/home/afrankz/demos/rdock_decoys_rna/rnas/2o3v

>  <Rbt.Executable>
rbdock ($Id: //depot/dev/client3/rdock/2013.1/src/exe/rbdock.cxx#4 $)

>  <Rbt.Library>
libRbt.so (2013.1, Build901 2013/11/27)

>  <Rbt.Parameter_File>
/export/apps/rDock/src/rDock_2013.1_src/data/scripts/dock_solv.prm

>  <Rbt.Receptor>
prm/pocket_docking_6.prm

>  <SCORE>
-15.4839

>  <SCORE.INTER>
-12.2554

>  <SCORE.INTER.CONST>
1

>  <SCORE.INTER.POLAR>
-0.959166

>  <SCORE.INTER.ROT>
8

>  <SCORE.INTER.SOLV>
14.2579

>  <SCORE.INTER.VDW>
-18.659

>  <SCORE.INTER.norm>
-0.350155

>  <SCORE.INTRA>
-3.22849

>  <SCORE.INTRA.DIHEDRAL>
-1.20729

>  <SCORE.INTRA.DIHEDRAL.0>
13.1227

>  <SCORE.INTRA.POLAR>
0

>  <SCORE.INTRA.POLAR.0>
0

>  <SCORE.INTRA.REPUL>
0

>  <SCORE.INTRA.REPUL.0>
0

>  <SCORE.INTRA.SOLV>
1.01429

>  <SCORE.INTRA.SOLV.lig_0>
-89.1587

>  <SCORE.INTRA.VDW>
-3.13199

>  <SCORE.INTRA.VDW.0>
-0.838383

>  <SCORE.INTRA.norm>
-0.0922427

>  <SCORE.RESTR>
0

>  <SCORE.RESTR.CAVITY>
0

>  <SCORE.RESTR.norm>
0

>  <SCORE.SYSTEM>
0

>  <SCORE.SYSTEM.CONST>
0

>  <SCORE.SYSTEM.DIHEDRAL>
0

>  <SCORE.SYSTEM.SOLV>
0

>  <SCORE.SYSTEM.norm>
0

>  <SCORE.heavy>
35

>  <SCORE.norm>
-0.442398

>  <RMSD>
8.913

$$$$
2o3v_lig
 OpenBabel02141814113D
libRbt.so/2013.1/901 2013/11/27
 35 37  0  0  0  0  0  0  0  0999 V2000
   -0.1879   -5.0018   46.2739 C   0  0  2  0  0  0  0  0  0  0  0  0
   -0.0288   -5.9857   45.2065 O   0  0  0  0  0  0  0  0  0  0  0  0
   -3.6976   -8.3213   45.3160 C   0  0  2  0  0  0  0  0  0  0  0  0
   -4.7588   -9.3024   44.9370 N   0  0  0  0  0  0  0  0  0  0  0  0
    6.2128   -8.5130   42.6317 C   0  0  2  0  0  0  0  0  0  0  0  0
    7.5707   -8.3590   43.0986 O   0  0  0  0  0  0  0  0  0  0  0  0
    1.1568   -4.2094   46.2287 C   0  0  2  0  0  0  0  0  0  0  0  0
    1.3683   -3.5881   44.9000 N   0  0  0  0  0  0  0  0  0  0  0  0
   -3.5462   -7.2159   44.1844 C   0  0  0  0  0  0  0  0  0  0  0  0
    5.4647   -7.1626   42.9057 C   0  0  2  0  0  0  0  0  0  0  0  0
    6.1502   -6.0285   42.2358 N   0  0  0  0  0  0  0  0  0  0  0  0
    2.3953   -5.1398   46.5893 C   0  0  1  0  0  0  0  0  0  0  0  0
    3.6682   -4.3785   46.4974 O   0  0  0  0  0  0  0  0  0  0  0  0
   -2.4043   -6.1928   44.6062 C   0  0  2  0  0  0  0  0  0  0  0  0
   -2.2391   -5.1609   43.5600 N   0  0  0  0  0  0  0  0  0  0  0  0
    5.3212   -6.8788   44.4658 C   0  0  1  0  0  0  0  0  0  0  0  0
    4.6026   -5.6508   44.7490 O   0  0  0  0  0  0  0  0  0  0  0  0
    2.1151   -5.7710   48.0234 C   0  0  2  0  0  0  0  0  0  0  0  0
    3.1606   -6.6400   48.4207 O   0  0  0  0  0  0  0  0  0  0  0  0
   -1.0391   -6.9665   44.8225 C   0  0  2  0  0  0  0  0  0  0  0  0
    4.5843   -8.0884   45.1235 C   0  0  2  0  0  0  0  0  0  0  0  0
    4.4373   -7.8960   46.5167 O   0  0  0  0  0  0  0  0  0  0  0  0
    0.7435   -6.5472   48.0282 C   0  0  2  0  0  0  0  0  0  0  0  0
   -0.3458   -5.6402   47.6097 O   0  0  0  0  0  0  0  0  0  0  0  0
   -1.1978   -8.0496   45.9261 C   0  0  2  0  0  0  0  0  0  0  0  0
    0.0777   -8.7430   46.0413 O   0  0  0  0  0  0  0  0  0  0  0  0
    5.3676   -9.4276   44.8197 C   0  0  2  0  0  0  0  0  0  0  0  0
    5.5219   -9.6123   43.3586 O   0  0  0  0  0  0  0  0  0  0  0  0
    0.4324   -7.1321   49.4051 C   0  0  0  0  0  0  0  0  0  0  0  0
   -0.6484   -8.0302   49.3419 O   0  0  0  0  0  0  0  0  0  0  0  0
   -2.3102   -9.0451   45.5214 C   0  0  1  0  0  0  0  0  0  0  0  0
   -2.4377  -10.0134   46.5413 O   0  0  0  0  0  0  0  0  0  0  0  0
    4.6622  -10.6417   45.4049 C   0  0  0  0  0  0  0  0  0  0  0  0
    4.7012  -10.6019   46.8109 O   0  0  0  0  0  0  0  0  0  0  0  0
    4.8653   -5.2173   46.1158 C   0  0  0  0  0  0  0  0  0  0  0  0
  1  2  1  6  0  0  0
  1  7  1  0  0  0  0
  1 24  1  0  0  0  0
  3  4  1  6  0  0  0
  3  9  1  0  0  0  0
  3 31  1  0  0  0  0
  5  6  1  1  0  0  0
  5 10  1  0  0  0  0
  5 28  1  0  0  0  0
  7  8  1  6  0  0  0
  7 12  1  0  0  0  0
  9 14  1  0  0  0  0
 10 11  1  6  0  0  0
 10 16  1  0  0  0  0
 12 13  1  1  0  0  0
 12 18  1  0  0  0  0
 13 35  1  0  0  0  0
 14 15  1  6  0  0  0
 14 20  1  0  0  0  0
 16 17  1  6  0  0  0
 16 21  1  0  0  0  0
 17 35  1  0  0  0  0
 18 19  1  6  0  0  0
 18 23  1  0  0  0  0
 20  2  1  1  0  0  0
 20 25  1  0  0  0  0
 21 22  1  1  0  0  0
 21 27  1  0  0  0  0
 23 24  1  0  0  0  0
 23 29  1  1  0  0  0
 25 26  1  6  0  0  0
 25 31  1  0  0  0  0
 27 28  1  0  0  0  0
 27 33  1  6  0  0  0
 29 30  1  0  0  0  0
 31 32  1  1  0  0  0
 33 34  1  0  0  0  0
M  END
>  <CHROM.1>
-178.81304986,-150.10853995,66.24666587,-161.75002946,-155.12428016,50.64414657
-168.65173072,-67.54595165,1.75197689,-7.20216612,45.63948975,-3.04130772
-0.17565492,-2.81993886

>  <Name>
2o3v_lig

>  <RI>
0

>  <Rbt.Current_Directory>
/home/afrankz/demos/rdock_decoys_rna/rnas/2o3v

>  <Rbt.Executable>
rbdock ($Id: //depot/dev/client3/rdock/2013.1/src/exe/rbdock.cxx#4 $)

>  <Rbt.Library>
libRbt.so (2013.1, Build901 2013/11/27)

>  <Rbt.Parameter_File>
/export/apps/rDock/src/rDock_2013.1_src/data/scripts/dock_solv.prm

>  <Rbt.Receptor>
prm/pocket_docking_5.prm

>  <SCORE>
-11.7493

>  <SCORE.INTER>
-8.17859

>  <SCORE.INTER.CONST>
1

>  <SCORE.INTER.POLAR>
0

>  <SCORE.INTER.ROT>
8

>  <SCORE.INTER.SOLV>
13.775

>  <SCORE.INTER.VDW>
-18.9774

>  <SCORE.INTER.norm>
-0.233674

>  <SCORE.INTRA>
-3.57067

>  <SCORE.INTRA.DIHEDRAL>
-4.05581

>  <SCORE.INTRA.DIHEDRAL.0>
13.1227

>  <SCORE.INTRA.POLAR>
0

>  <SCORE.INTRA.POLAR.0>
0

>  <SCORE.INTRA.REPUL>
0

>  <SCORE.INTRA.REPUL.0>
0

>  <SCORE.INTRA.SOLV>
1.53892

>  <SCORE.INTRA.SOLV.lig_0>
-89.1587

>  <SCORE.INTRA.VDW>
-2.31223

>  <SCORE.INTRA.VDW.0>
-0.838383

>  <SCORE.INTRA.norm>
-0.102019

>  <SCORE.RESTR>
0

>  <SCORE.RESTR.CAVITY>
0

>  <SCORE.RESTR.norm>
0

>  <SCORE.SYSTEM>
0

>  <SCORE.SYSTEM.CONST>
0

>  <SCORE.SYSTEM.DIHEDRAL>
0

>  <SCORE.SYSTEM.SOLV>
0

>  <SCORE.SYSTEM.norm>
0

>  <SCORE.heavy>
35

>  <SCORE.norm>
-0.335693

>  <RMSD>
8.943

$$$$
2o3v_lig
 OpenBabel02141814113D
libRbt.so/2013.1/901 2013/11/27
 35 37  0  0  0  0  0  0  0  0999 V2000
    0.2300  -10.0031   46.4486 C   0  0  2  0  0  0  0  0  0  0  0  0
    0.6105  -10.1813   47.8473 O   0  0  0  0  0  0  0  0  0  0  0  0
   -0.4018  -12.5893   51.3264 C   0  0  2  0  0  0  0  0  0  0  0  0
   -0.7529  -13.7687   52.1737 N   0  0  0  0  0  0  0  0  0  0  0  0
    4.6683   -4.2079   43.0840 C   0  0  2  0  0  0  0  0  0  0  0  0
    3.9056   -5.2673   42.4664 O   0  0  0  0  0  0  0  0  0  0  0  0
    1.2204   -8.9039   45.9494 C   0  0  2  0  0  0  0  0  0  0  0  0
    2.6282   -9.3372   46.1122 N   0  0  0  0  0  0  0  0  0  0  0  0
   -1.5234  -12.3541   50.2255 C   0  0  0  0  0  0  0  0  0  0  0  0
    4.6881   -4.4804   44.6280 C   0  0  2  0  0  0  0  0  0  0  0  0
    5.2634   -5.8165   44.9258 N   0  0  0  0  0  0  0  0  0  0  0  0
    0.9923   -7.5245   46.7075 C   0  0  1  0  0  0  0  0  0  0  0  0
    1.9727   -6.5057   46.2500 O   0  0  0  0  0  0  0  0  0  0  0  0
   -1.1202  -11.1025   49.3314 C   0  0  2  0  0  0  0  0  0  0  0  0
   -2.1464  -10.8729   48.2917 N   0  0  0  0  0  0  0  0  0  0  0  0
    3.2345   -4.3495   45.2642 C   0  0  1  0  0  0  0  0  0  0  0  0
    3.2285   -4.5640   46.6990 O   0  0  0  0  0  0  0  0  0  0  0  0
   -0.5290   -7.1085   46.4920 C   0  0  2  0  0  0  0  0  0  0  0  0
   -0.8340   -5.8956   47.1565 O   0  0  0  0  0  0  0  0  0  0  0  0
    0.2889  -11.3549   48.6533 C   0  0  2  0  0  0  0  0  0  0  0  0
    2.6772   -2.9276   44.9380 C   0  0  2  0  0  0  0  0  0  0  0  0
    1.3787   -2.7572   45.4714 O   0  0  0  0  0  0  0  0  0  0  0  0
   -1.4916   -8.2506   46.9946 C   0  0  2  0  0  0  0  0  0  0  0  0
   -1.1695   -9.5165   46.3031 O   0  0  0  0  0  0  0  0  0  0  0  0
    1.3785  -11.5901   49.7367 C   0  0  2  0  0  0  0  0  0  0  0  0
    2.6316  -11.8536   49.0430 O   0  0  0  0  0  0  0  0  0  0  0  0
    2.6788   -2.6929   43.3747 C   0  0  2  0  0  0  0  0  0  0  0  0
    4.0420   -2.8827   42.8281 O   0  0  0  0  0  0  0  0  0  0  0  0
   -2.9590   -7.8917   46.7647 C   0  0  0  0  0  0  0  0  0  0  0  0
   -3.2388   -7.7564   45.3928 O   0  0  0  0  0  0  0  0  0  0  0  0
    0.9885  -12.8047   50.6111 C   0  0  1  0  0  0  0  0  0  0  0  0
    1.9899  -12.9931   51.5888 O   0  0  0  0  0  0  0  0  0  0  0  0
    2.1840   -1.3014   43.0102 C   0  0  0  0  0  0  0  0  0  0  0  0
    2.9744   -0.3196   43.6359 O   0  0  0  0  0  0  0  0  0  0  0  0
    2.0101   -5.2570   47.0996 C   0  0  0  0  0  0  0  0  0  0  0  0
  1  2  1  1  0  0  0
  1  7  1  0  0  0  0
  1 24  1  0  0  0  0
  3  4  1  6  0  0  0
  3  9  1  0  0  0  0
  3 31  1  0  0  0  0
  5  6  1  6  0  0  0
  5 10  1  0  0  0  0
  5 28  1  0  0  0  0
  7  8  1  1  0  0  0
  7 12  1  0  0  0  0
  9 14  1  0  0  0  0
 10 11  1  6  0  0  0
 10 16  1  0  0  0  0
 12 13  1  6  0  0  0
 12 18  1  0  0  0  0
 13 35  1  0  0  0  0
 14 15  1  6  0  0  0
 14 20  1  0  0  0  0
 16 17  1  1  0  0  0
 16 21  1  0  0  0  0
 17 35  1  0  0  0  0
 18 19  1  1  0  0  0
 18 23  1  0  0  0  0
 20  2  1  1  0  0  0
 20 25  1  0  0  0  0
 21 22  1  6  0  0  0
 21 27  1  0  0  0  0
 23 24  1  0  0  0  0
 23 29  1  6  0  0  0
 25 26  1  6  0  0  0
 25 31  1  0  0  0  0
 27 28  1  0  0  0  0
 27 33  1  1  0  0  0
 29 30  1  0  0  0  0
 31 32  1  1  0  0  0
 33 34  1  0  0  0  0
M  END
>  <CHROM.1>
-160.18014437,-168.62099497,166.23101992,-144.00568256,54.73083201,-88.93178236
63.12306225,57.64544849,1.20070608,-7.57303529,46.73640504,1.87542007,0.00573573
2.55691917

>  <Name>
2o3v_lig

>  <RI>
0

>  <Rbt.Current_Directory>
/home/afrankz/demos/rdock_decoys_rna/rnas/2o3v

>  <Rbt.Executable>
rbdock ($Id: //depot/dev/client3/rdock/2013.1/src/exe/rbdock.cxx#4 $)

>  <Rbt.Library>
libRbt.so (2013.1, Build901 2013/11/27)

>  <Rbt.Parameter_File>
/export/apps/rDock/src/rDock_2013.1_src/data/scripts/dock_solv.prm

>  <Rbt.Receptor>
prm/pocket_docking_7.prm

>  <SCORE>
-10.2468

>  <SCORE.INTER>
-9.59178

>  <SCORE.INTER.CONST>
1

>  <SCORE.INTER.POLAR>
-0.959166

>  <SCORE.INTER.ROT>
8

>  <SCORE.INTER.SOLV>
8.86682

>  <SCORE.INTER.VDW>
-15.0862

>  <SCORE.INTER.norm>
-0.274051

>  <SCORE.INTRA>
-0.823716

>  <SCORE.INTRA.DIHEDRAL>
-1.49896

>  <SCORE.INTRA.DIHEDRAL.0>
13.1227

>  <SCORE.INTRA.POLAR>
0

>  <SCORE.INTRA.POLAR.0>
0

>  <SCORE.INTRA.REPUL>
0

>  <SCORE.INTRA.REPUL.0>
0

>  <SCORE.INTRA.SOLV>
3.20026

>  <SCORE.INTRA.SOLV.lig_0>
-89.1587

>  <SCORE.INTRA.VDW>
-1.67437

>  <SCORE.INTRA.VDW.0>
-0.838383

>  <SCORE.INTRA.norm>
-0.0235347

>  <SCORE.RESTR>
0.168693

>  <SCORE.RESTR.CAVITY>
0.168693

>  <SCORE.RESTR.norm>
0.00481979

>  <SCORE.SYSTEM>
0

>  <SCORE.SYSTEM.CONST>
0

>  <SCORE.SYSTEM.DIHEDRAL>
0

>  <SCORE.SYSTEM.SOLV>
0

>  <SCORE.SYSTEM.norm>
0

>  <SCORE.heavy>
35

>  <SCORE.norm>
-0.292766

>  <RMSD>
8.959

$$$$
2o3v_lig
 OpenBabel02141814113D
libRbt.so/2013.1/901 2013/11/27
 35 37  0  0  0  0  0  0  0  0999 V2000
   -1.9684   -8.0762   45.8483 C   0  0  2  0  0  0  0  0  0  0  0  0
   -2.8502   -8.9077   45.0335 O   0  0  0  0  0  0  0  0  0  0  0  0
   -2.3926  -12.9095   46.6778 C   0  0  2  0  0  0  0  0  0  0  0  0
   -2.5655  -14.3788   46.8862 N   0  0  0  0  0  0  0  0  0  0  0  0
    2.8447   -1.5307   43.0406 C   0  0  2  0  0  0  0  0  0  0  0  0
    2.4477   -0.9562   44.3047 O   0  0  0  0  0  0  0  0  0  0  0  0
   -2.2122   -6.6412   45.2828 C   0  0  2  0  0  0  0  0  0  0  0  0
   -3.6381   -6.2545   45.3995 N   0  0  0  0  0  0  0  0  0  0  0  0
   -3.7745  -12.1588   46.9059 C   0  0  0  0  0  0  0  0  0  0  0  0
    1.6185   -2.3321   42.4817 C   0  0  2  0  0  0  0  0  0  0  0  0
    0.4298   -1.4542   42.3364 N   0  0  0  0  0  0  0  0  0  0  0  0
   -1.7467   -6.5242   43.7665 C   0  0  1  0  0  0  0  0  0  0  0  0
   -2.0279   -5.1654   43.2345 O   0  0  0  0  0  0  0  0  0  0  0  0
   -3.5658  -10.6007   46.6670 C   0  0  2  0  0  0  0  0  0  0  0  0
   -4.8441   -9.8839   46.8632 N   0  0  0  0  0  0  0  0  0  0  0  0
    1.2714   -3.5862   43.3991 C   0  0  1  0  0  0  0  0  0  0  0  0
    0.1604   -4.3659   42.8868 O   0  0  0  0  0  0  0  0  0  0  0  0
   -0.2125   -6.9438   43.7056 C   0  0  2  0  0  0  0  0  0  0  0  0
    0.2866   -6.8935   42.3811 O   0  0  0  0  0  0  0  0  0  0  0  0
   -3.0238  -10.3472   45.2003 C   0  0  2  0  0  0  0  0  0  0  0  0
    2.5434   -4.4851   43.5112 C   0  0  2  0  0  0  0  0  0  0  0  0
    2.2965   -5.6138   44.3266 O   0  0  0  0  0  0  0  0  0  0  0  0
   -0.0101   -8.3897   44.2989 C   0  0  2  0  0  0  0  0  0  0  0  0
   -0.5349   -8.4416   45.6797 O   0  0  0  0  0  0  0  0  0  0  0  0
   -1.6755  -11.0898   44.9838 C   0  0  2  0  0  0  0  0  0  0  0  0
   -1.2604  -10.8456   43.6094 O   0  0  0  0  0  0  0  0  0  0  0  0
    3.7546   -3.6387   44.0732 C   0  0  2  0  0  0  0  0  0  0  0  0
    3.9967   -2.4562   43.2154 O   0  0  0  0  0  0  0  0  0  0  0  0
    1.4610   -8.8025   44.2864 C   0  0  0  0  0  0  0  0  0  0  0  0
    2.1934   -8.0980   45.2591 O   0  0  0  0  0  0  0  0  0  0  0  0
   -1.8732  -12.6057   45.2187 C   0  0  1  0  0  0  0  0  0  0  0  0
   -0.6348  -13.2550   45.0216 O   0  0  0  0  0  0  0  0  0  0  0  0
    5.0302   -4.4630   44.1589 C   0  0  0  0  0  0  0  0  0  0  0  0
    5.4141   -4.9081   42.8804 O   0  0  0  0  0  0  0  0  0  0  0  0
   -1.0394   -4.1113   43.6748 C   0  0  0  0  0  0  0  0  0  0  0  0
  1  2  1  6  0  0  0
  1  7  1  0  0  0  0
  1 24  1  0  0  0  0
  3  4  1  6  0  0  0
  3  9  1  0  0  0  0
  3 31  1  0  0  0  0
  5  6  1  1  0  0  0
  5 10  1  0  0  0  0
  5 28  1  0  0  0  0
  7  8  1  6  0  0  0
  7 12  1  0  0  0  0
  9 14  1  0  0  0  0
 10 11  1  1  0  0  0
 10 16  1  0  0  0  0
 12 13  1  1  0  0  0
 12 18  1  0  0  0  0
 13 35  1  0  0  0  0
 14 15  1  6  0  0  0
 14 20  1  0  0  0  0
 16 17  1  6  0  0  0
 16 21  1  0  0  0  0
 17 35  1  0  0  0  0
 18 19  1  6  0  0  0
 18 23  1  0  0  0  0
 20  2  1  1  0  0  0
 20 25  1  0  0  0  0
 21 22  1  1  0  0  0
 21 27  1  0  0  0  0
 23 24  1  0  0  0  0
 23 29  1  1  0  0  0
 25 26  1  6  0  0  0
 25 31  1  0  0  0  0
 27 28  1  0  0  0  0
 27 33  1  6  0  0  0
 29 30  1  0  0  0  0
 31 32  1  1  0  0  0
 33 34  1  0  0  0  0
M  END
>  <CHROM.1>
-177.90022254,77.84042345,74.99292378,-104.70651401,-168.92788622,59.93933086
72.20280740,61.63248444,-0.12004571,-7.14592928,44.44607933,2.10470911,-0.13321851
2.92745339

>  <Name>
2o3v_lig

>  <RI>
0

>  <Rbt.Current_Directory>
/home/afrankz/demos/rdock_decoys_rna/rnas/2o3v

>  <Rbt.Executable>
rbdock ($Id: //depot/dev/client3/rdock/2013.1/src/exe/rbdock.cxx#4 $)

>  <Rbt.Library>
libRbt.so (2013.1, Build901 2013/11/27)

>  <Rbt.Parameter_File>
/export/apps/rDock/src/rDock_2013.1_src/data/scripts/dock_solv.prm

>  <Rbt.Receptor>
prm/pocket_docking_6.prm

>  <SCORE>
-15.7874

>  <SCORE.INTER>
-13.3232

>  <SCORE.INTER.CONST>
1

>  <SCORE.INTER.POLAR>
-1.81386

>  <SCORE.INTER.ROT>
8

>  <SCORE.INTER.SOLV>
7.39428

>  <SCORE.INTER.VDW>
-14.234

>  <SCORE.INTER.norm>
-0.380662

>  <SCORE.INTRA>
-2.46865

>  <SCORE.INTRA.DIHEDRAL>
-3.31426

>  <SCORE.INTRA.DIHEDRAL.0>
13.1227

>  <SCORE.INTRA.POLAR>
0

>  <SCORE.INTRA.POLAR.0>
0

>  <SCORE.INTRA.REPUL>
0

>  <SCORE.INTRA.REPUL.0>
0

>  <SCORE.INTRA.SOLV>
2.78222

>  <SCORE.INTRA.SOLV.lig_0>
-89.1587

>  <SCORE.INTRA.VDW>
-2.20264

>  <SCORE.INTRA.VDW.0>
-0.838383

>  <SCORE.INTRA.norm>
-0.070533

>  <SCORE.RESTR>
0.00436964

>  <SCORE.RESTR.CAVITY>
0.00436964

>  <SCORE.RESTR.norm>
0.000124847

>  <SCORE.SYSTEM>
0

>  <SCORE.SYSTEM.CONST>
0

>  <SCORE.SYSTEM.DIHEDRAL>
0

>  <SCORE.SYSTEM.SOLV>
0

>  <SCORE.SYSTEM.norm>
0

>  <SCORE.heavy>
35

>  <SCORE.norm>
-0.45107

>  <RMSD>
8.992

$$$$
2o3v_lig
 OpenBabel02141814113D
libRbt.so/2013.1/901 2013/11/27
 35 37  0  0  0  0  0  0  0  0999 V2000
    0.1178   -8.9996   48.7173 C   0  0  2  0  0  0  0  0  0  0  0  0
   -0.5176   -8.9371   47.4039 O   0  0  0  0  0  0  0  0  0  0  0  0
   -4.3009   -7.6562   45.6795 C   0  0  2  0  0  0  0  0  0  0  0  0
   -5.4791   -6.8048   45.3341 N   0  0  0  0  0  0  0  0  0  0  0  0
    3.5184   -4.4360   43.0440 C   0  0  2  0  0  0  0  0  0  0  0  0
    4.4409   -3.3384   42.8706 O   0  0  0  0  0  0  0  0  0  0  0  0
    0.9022   -7.6516   48.7958 C   0  0  2  0  0  0  0  0  0  0  0  0
   -0.0093   -6.4920   48.6519 N   0  0  0  0  0  0  0  0  0  0  0  0
   -4.2314   -7.8816   47.2510 C   0  0  0  0  0  0  0  0  0  0  0  0
    2.7416   -4.1910   44.3837 C   0  0  2  0  0  0  0  0  0  0  0  0
    2.0398   -2.8826   44.3609 N   0  0  0  0  0  0  0  0  0  0  0  0
    2.0452   -7.5760   47.6925 C   0  0  1  0  0  0  0  0  0  0  0  0
    2.7497   -6.2691   47.7551 O   0  0  0  0  0  0  0  0  0  0  0  0
   -2.9643   -8.7795   47.5923 C   0  0  2  0  0  0  0  0  0  0  0  0
   -2.8744   -8.9920   49.0528 N   0  0  0  0  0  0  0  0  0  0  0  0
    3.7085   -4.2785   45.6456 C   0  0  1  0  0  0  0  0  0  0  0  0
    3.0093   -4.0886   46.9025 O   0  0  0  0  0  0  0  0  0  0  0  0
    2.9925   -8.8381   47.9008 C   0  0  2  0  0  0  0  0  0  0  0  0
    4.0335   -8.8691   46.9409 O   0  0  0  0  0  0  0  0  0  0  0  0
   -1.6463   -8.0754   47.0665 C   0  0  2  0  0  0  0  0  0  0  0  0
    4.4117   -5.6728   45.6350 C   0  0  2  0  0  0  0  0  0  0  0  0
    5.2945   -5.8038   46.7319 O   0  0  0  0  0  0  0  0  0  0  0  0
    2.1589  -10.1737   47.8291 C   0  0  2  0  0  0  0  0  0  0  0  0
    1.0707  -10.1381   48.8287 O   0  0  0  0  0  0  0  0  0  0  0  0
   -1.7253   -7.8533   45.5301 C   0  0  2  0  0  0  0  0  0  0  0  0
   -0.5043   -7.1697   45.1263 O   0  0  0  0  0  0  0  0  0  0  0  0
    5.1777   -5.8806   44.2678 C   0  0  2  0  0  0  0  0  0  0  0  0
    4.2440   -5.7324   43.1281 O   0  0  0  0  0  0  0  0  0  0  0  0
    3.0396  -11.4002   48.0633 C   0  0  0  0  0  0  0  0  0  0  0  0
    3.9779  -11.5558   47.0269 O   0  0  0  0  0  0  0  0  0  0  0  0
   -2.9587   -6.9830   45.1933 C   0  0  1  0  0  0  0  0  0  0  0  0
   -3.0104   -6.8013   43.7939 O   0  0  0  0  0  0  0  0  0  0  0  0
    5.8437   -7.2462   44.1935 C   0  0  0  0  0  0  0  0  0  0  0  0
    6.5212   -7.3961   42.9694 O   0  0  0  0  0  0  0  0  0  0  0  0
    2.0102   -5.1343   47.0860 C   0  0  0  0  0  0  0  0  0  0  0  0
  1  2  1  6  0  0  0
  1  7  1  0  0  0  0
  1 24  1  0  0  0  0
  3  4  1  1  0  0  0
  3  9  1  0  0  0  0
  3 31  1  0  0  0  0
  5  6  1  1  0  0  0
  5 10  1  0  0  0  0
  5 28  1  0  0  0  0
  7  8  1  6  0  0  0
  7 12  1  0  0  0  0
  9 14  1  0  0  0  0
 10 11  1  6  0  0  0
 10 16  1  0  0  0  0
 12 13  1  1  0  0  0
 12 18  1  0  0  0  0
 13 35  1  0  0  0  0
 14 15  1  1  0  0  0
 14 20  1  0  0  0  0
 16 17  1  1  0  0  0
 16 21  1  0  0  0  0
 17 35  1  0  0  0  0
 18 19  1  6  0  0  0
 18 23  1  0  0  0  0
 20  2  1  6  0  0  0
 20 25  1  0  0  0  0
 21 22  1  1  0  0  0
 21 27  1  0  0  0  0
 23 24  1  0  0  0  0
 23 29  1  1  0  0  0
 25 26  1  1  0  0  0
 25 31  1  0  0  0  0
 27 28  1  0  0  0  0
 27 33  1  1  0  0  0
 29 30  1  0  0  0  0
 31 32  1  6  0  0  0
 33 34  1  0  0  0  0
M  END
>  <CHROM.1>
-72.64273691,-79.63243378,-163.38553778,61.67384638,87.47064147,-80.53290157
-65.59640123,-179.70162376,1.38245721,-7.14410319,46.21705314,-2.70767925
0.04124922,-0.65879658

>  <Name>
2o3v_lig

>  <RI>
0

>  <Rbt.Current_Directory>
/home/afrankz/demos/rdock_decoys_rna/rnas/2o3v

>  <Rbt.Executable>
rbdock ($Id: //depot/dev/client3/rdock/2013.1/src/exe/rbdock.cxx#4 $)

>  <Rbt.Library>
libRbt.so (2013.1, Build901 2013/11/27)

>  <Rbt.Parameter_File>
/export/apps/rDock/src/rDock_2013.1_src/data/scripts/dock_solv.prm

>  <Rbt.Receptor>
prm/pocket_docking_4.prm

>  <SCORE>
-6.62527

>  <SCORE.INTER>
-6.67099

>  <SCORE.INTER.CONST>
1

>  <SCORE.INTER.POLAR>
-0.959166

>  <SCORE.INTER.ROT>
8

>  <SCORE.INTER.SOLV>
10.4549

>  <SCORE.INTER.VDW>
-13.6684

>  <SCORE.INTER.norm>
-0.1906

>  <SCORE.INTRA>
0.0457126

>  <SCORE.INTRA.DIHEDRAL>
-4.16398

>  <SCORE.INTRA.DIHEDRAL.0>
13.1227

>  <SCORE.INTRA.POLAR>
0

>  <SCORE.INTRA.POLAR.0>
0

>  <SCORE.INTRA.REPUL>
0

>  <SCORE.INTRA.REPUL.0>
0

>  <SCORE.INTRA.SOLV>
4.53107

>  <SCORE.INTRA.SOLV.lig_0>
-89.1587

>  <SCORE.INTRA.VDW>
-0.137836

>  <SCORE.INTRA.VDW.0>
-0.838383

>  <SCORE.INTRA.norm>
0.00130607

>  <SCORE.RESTR>
0

>  <SCORE.RESTR.CAVITY>
0

>  <SCORE.RESTR.norm>
0

>  <SCORE.SYSTEM>
0

>  <SCORE.SYSTEM.CONST>
0

>  <SCORE.SYSTEM.DIHEDRAL>
0

>  <SCORE.SYSTEM.SOLV>
0

>  <SCORE.SYSTEM.norm>
0

>  <SCORE.heavy>
35

>  <SCORE.norm>
-0.189294

>  <RMSD>
9.002

$$$$
2o3v_lig
 OpenBabel02141814113D
libRbt.so/2013.1/901 2013/11/27
 35 37  0  0  0  0  0  0  0  0999 V2000
   -1.5068   -4.6582   42.1378 C   0  0  2  0  0  0  0  0  0  0  0  0
   -0.6697   -3.5363   42.5540 O   0  0  0  0  0  0  0  0  0  0  0  0
    3.4726   -3.4786   43.8825 C   0  0  2  0  0  0  0  0  0  0  0  0
    4.9663   -3.4801   43.8493 N   0  0  0  0  0  0  0  0  0  0  0  0
   -2.7254    3.1968   40.0438 C   0  0  2  0  0  0  0  0  0  0  0  0
   -3.9765    3.8282   40.3924 O   0  0  0  0  0  0  0  0  0  0  0  0
   -2.7411   -3.9571   41.4871 C   0  0  2  0  0  0  0  0  0  0  0  0
   -2.3315   -3.0933   40.3548 N   0  0  0  0  0  0  0  0  0  0  0  0
    2.9104   -4.8183   43.2386 C   0  0  0  0  0  0  0  0  0  0  0  0
   -3.0083    1.6671   39.8482 C   0  0  2  0  0  0  0  0  0  0  0  0
   -4.0436    1.4458   38.8069 N   0  0  0  0  0  0  0  0  0  0  0  0
   -3.5528   -3.0979   42.5513 C   0  0  1  0  0  0  0  0  0  0  0  0
   -4.6962   -2.4042   41.9036 O   0  0  0  0  0  0  0  0  0  0  0  0
    1.3211   -4.7862   43.2756 C   0  0  2  0  0  0  0  0  0  0  0  0
    0.7767   -6.0203   42.6698 N   0  0  0  0  0  0  0  0  0  0  0  0
   -3.4398    0.9721   41.2140 C   0  0  1  0  0  0  0  0  0  0  0  0
   -3.6758   -0.4520   41.0689 O   0  0  0  0  0  0  0  0  0  0  0  0
   -3.9698   -4.0767   43.7353 C   0  0  2  0  0  0  0  0  0  0  0  0
   -4.6810   -3.3901   44.7495 O   0  0  0  0  0  0  0  0  0  0  0  0
    0.7882   -3.5181   42.4899 C   0  0  2  0  0  0  0  0  0  0  0  0
   -2.3175    1.2188   42.2715 C   0  0  2  0  0  0  0  0  0  0  0  0
   -2.6523    0.6306   43.5130 O   0  0  0  0  0  0  0  0  0  0  0  0
   -2.6976   -4.7730   44.3519 C   0  0  2  0  0  0  0  0  0  0  0  0
   -1.9544   -5.4858   43.2917 O   0  0  0  0  0  0  0  0  0  0  0  0
    1.3477   -2.2130   43.1223 C   0  0  2  0  0  0  0  0  0  0  0  0
    0.8511   -1.0976   42.3283 O   0  0  0  0  0  0  0  0  0  0  0  0
   -2.0612    2.7702   42.4344 C   0  0  2  0  0  0  0  0  0  0  0  0
   -1.7200    3.3747   41.1263 O   0  0  0  0  0  0  0  0  0  0  0  0
   -3.0740   -5.7472   45.4673 C   0  0  0  0  0  0  0  0  0  0  0  0
   -1.9606   -6.0520   46.2712 O   0  0  0  0  0  0  0  0  0  0  0  0
    2.8938   -2.2415   43.0915 C   0  0  1  0  0  0  0  0  0  0  0  0
    3.3758   -1.0496   43.6756 O   0  0  0  0  0  0  0  0  0  0  0  0
   -0.9430    3.0587   43.4246 C   0  0  0  0  0  0  0  0  0  0  0  0
   -1.0143    4.3912   43.8712 O   0  0  0  0  0  0  0  0  0  0  0  0
   -4.6660   -0.9000   42.0406 C   0  0  0  0  0  0  0  0  0  0  0  0
  1  2  1  1  0  0  0
  1  7  1  0  0  0  0
  1 24  1  0  0  0  0
  3  4  1  6  0  0  0
  3  9  1  0  0  0  0
  3 31  1  0  0  0  0
  5  6  1  1  0  0  0
  5 10  1  0  0  0  0
  5 28  1  0  0  0  0
  7  8  1  6  0  0  0
  7 12  1  0  0  0  0
  9 14  1  0  0  0  0
 10 11  1  6  0  0  0
 10 16  1  0  0  0  0
 12 13  1  6  0  0  0
 12 18  1  0  0  0  0
 13 35  1  0  0  0  0
 14 15  1  6  0  0  0
 14 20  1  0  0  0  0
 16 17  1  6  0  0  0
 16 21  1  0  0  0  0
 17 35  1  0  0  0  0
 18 19  1  1  0  0  0
 18 23  1  0  0  0  0
 20  2  1  1  0  0  0
 20 25  1  0  0  0  0
 21 22  1  1  0  0  0
 21 27  1  0  0  0  0
 23 24  1  0  0  0  0
 23 29  1  1  0  0  0
 25 26  1  6  0  0  0
 25 31  1  0  0  0  0
 27 28  1  0  0  0  0
 27 33  1  1  0  0  0
 29 30  1  0  0  0  0
 31 32  1  1  0  0  0
 33 34  1  0  0  0  0
M  END
>  <CHROM.1>
-142.66896787,-121.31856387,77.22157870,-150.93354663,-173.28649689,-54.54385657
-162.16563628,-161.30789458,-1.38383028,-1.61217059,42.60731143,1.14951785
0.13759906,2.86951752

>  <Name>
2o3v_lig

>  <RI>
0

>  <Rbt.Current_Directory>
/home/afrankz/demos/rdock_decoys_rna/rnas/2o3v

>  <Rbt.Executable>
rbdock ($Id: //depot/dev/client3/rdock/2013.1/src/exe/rbdock.cxx#4 $)

>  <Rbt.Library>
libRbt.so (2013.1, Build901 2013/11/27)

>  <Rbt.Parameter_File>
/export/apps/rDock/src/rDock_2013.1_src/data/scripts/dock_solv.prm

>  <Rbt.Receptor>
prm/blind_docking_60.prm

>  <SCORE>
-2.85186

>  <SCORE.INTER>
-6.33214

>  <SCORE.INTER.CONST>
1

>  <SCORE.INTER.POLAR>
-1.82189

>  <SCORE.INTER.ROT>
8

>  <SCORE.INTER.SOLV>
19.5774

>  <SCORE.INTER.VDW>
-13.6076

>  <SCORE.INTER.norm>
-0.180918

>  <SCORE.INTRA>
2.15617

>  <SCORE.INTRA.DIHEDRAL>
6.43714

>  <SCORE.INTRA.DIHEDRAL.0>
13.1227

>  <SCORE.INTRA.POLAR>
0

>  <SCORE.INTRA.POLAR.0>
0

>  <SCORE.INTRA.REPUL>
0

>  <SCORE.INTRA.REPUL.0>
0

>  <SCORE.INTRA.SOLV>
1.90738

>  <SCORE.INTRA.SOLV.lig_0>
-89.1587

>  <SCORE.INTRA.VDW>
-2.01609

>  <SCORE.INTRA.VDW.0>
-0.838383

>  <SCORE.INTRA.norm>
0.0616049

>  <SCORE.RESTR>
1.32412

>  <SCORE.RESTR.CAVITY>
1.32412

>  <SCORE.RESTR.norm>
0.0378319

>  <SCORE.SYSTEM>
0

>  <SCORE.SYSTEM.CONST>
0

>  <SCORE.SYSTEM.DIHEDRAL>
0

>  <SCORE.SYSTEM.SOLV>
0

>  <SCORE.SYSTEM.norm>
0

>  <SCORE.heavy>
35

>  <SCORE.norm>
-0.0814816

>  <RMSD>
9.063

$$$$
2o3v_lig
 OpenBabel02141814113D
libRbt.so/2013.1/901 2013/11/27
 35 37  0  0  0  0  0  0  0  0999 V2000
    0.6348   -7.8056   47.8232 C   0  0  2  0  0  0  0  0  0  0  0  0
   -0.1624   -7.3338   46.6942 O   0  0  0  0  0  0  0  0  0  0  0  0
   -3.9441   -5.4758   45.6107 C   0  0  2  0  0  0  0  0  0  0  0  0
   -5.2061   -4.6820   45.7070 N   0  0  0  0  0  0  0  0  0  0  0  0
    6.4004   -5.0158   43.2714 C   0  0  2  0  0  0  0  0  0  0  0  0
    6.6790   -5.6702   42.0146 O   0  0  0  0  0  0  0  0  0  0  0  0
    1.9823   -8.2251   47.1549 C   0  0  2  0  0  0  0  0  0  0  0  0
    2.6071   -7.0834   46.4461 N   0  0  0  0  0  0  0  0  0  0  0  0
   -3.9688   -6.6707   46.6581 C   0  0  0  0  0  0  0  0  0  0  0  0
    6.0716   -6.1330   44.3213 C   0  0  2  0  0  0  0  0  0  0  0  0
    7.1940   -7.0977   44.4417 N   0  0  0  0  0  0  0  0  0  0  0  0
    1.7809   -9.4379   46.1459 C   0  0  1  0  0  0  0  0  0  0  0  0
    3.0654   -9.7922   45.4880 O   0  0  0  0  0  0  0  0  0  0  0  0
   -2.6116   -7.4913   46.5432 C   0  0  2  0  0  0  0  0  0  0  0  0
   -2.6092   -8.6025   47.5187 N   0  0  0  0  0  0  0  0  0  0  0  0
    4.7220   -6.8965   43.9605 C   0  0  1  0  0  0  0  0  0  0  0  0
    4.3756   -7.9145   44.9344 O   0  0  0  0  0  0  0  0  0  0  0  0
    1.1155  -10.6313   46.9624 C   0  0  2  0  0  0  0  0  0  0  0  0
    0.8741  -11.7547   46.1344 O   0  0  0  0  0  0  0  0  0  0  0  0
   -1.3779   -6.5345   46.8110 C   0  0  2  0  0  0  0  0  0  0  0  0
    3.5708   -5.8463   43.8586 C   0  0  2  0  0  0  0  0  0  0  0  0
    2.3445   -6.4683   43.5284 O   0  0  0  0  0  0  0  0  0  0  0  0
   -0.2316  -10.1606   47.6315 C   0  0  2  0  0  0  0  0  0  0  0  0
    0.0213   -8.9859   48.4920 O   0  0  0  0  0  0  0  0  0  0  0  0
   -1.3649   -5.3656   45.7865 C   0  0  2  0  0  0  0  0  0  0  0  0
   -0.2335   -4.5102   46.1171 O   0  0  0  0  0  0  0  0  0  0  0  0
    3.9441   -4.7379   42.7949 C   0  0  2  0  0  0  0  0  0  0  0  0
    5.2335   -4.1009   43.1476 O   0  0  0  0  0  0  0  0  0  0  0  0
   -0.8726  -11.2781   48.4530 C   0  0  0  0  0  0  0  0  0  0  0  0
   -2.0951  -10.8606   49.0097 O   0  0  0  0  0  0  0  0  0  0  0  0
   -2.6850   -4.5667   45.8923 C   0  0  1  0  0  0  0  0  0  0  0  0
   -2.6501   -3.5162   44.9492 O   0  0  0  0  0  0  0  0  0  0  0  0
    2.8692   -3.6664   42.6922 C   0  0  0  0  0  0  0  0  0  0  0  0
    3.2241   -2.7057   41.7272 O   0  0  0  0  0  0  0  0  0  0  0  0
    3.4509   -8.8775   44.3491 C   0  0  0  0  0  0  0  0  0  0  0  0
  1  2  1  6  0  0  0
  1  7  1  0  0  0  0
  1 24  1  0  0  0  0
  3  4  1  1  0  0  0
  3  9  1  0  0  0  0
  3 31  1  0  0  0  0
  5  6  1  6  0  0  0
  5 10  1  0  0  0  0
  5 28  1  0  0  0  0
  7  8  1  6  0  0  0
  7 12  1  0  0  0  0
  9 14  1  0  0  0  0
 10 11  1  6  0  0  0
 10 16  1  0  0  0  0
 12 13  1  1  0  0  0
 12 18  1  0  0  0  0
 13 35  1  0  0  0  0
 14 15  1  1  0  0  0
 14 20  1  0  0  0  0
 16 17  1  1  0  0  0
 16 21  1  0  0  0  0
 17 35  1  0  0  0  0
 18 19  1  6  0  0  0
 18 23  1  0  0  0  0
 20  2  1  6  0  0  0
 20 25  1  0  0  0  0
 21 22  1  6  0  0  0
 21 27  1  0  0  0  0
 23 24  1  0  0  0  0
 23 29  1  1  0  0  0
 25 26  1  1  0  0  0
 25 31  1  0  0  0  0
 27 28  1  0  0  0  0
 27 33  1  1  0  0  0
 29 30  1  0  0  0  0
 31 32  1  6  0  0  0
 33 34  1  0  0  0  0
M  END
>  <CHROM.1>
-164.36000504,-79.15890410,96.96389042,-159.75205729,-174.56844877,-103.84569450
-178.08962047,-179.29133173,1.22905508,-7.02500345,45.49691608,-2.66928800
0.29829230,-0.49645063

>  <Name>
2o3v_lig

>  <RI>
0

>  <Rbt.Current_Directory>
/home/afrankz/demos/rdock_decoys_rna/rnas/2o3v

>  <Rbt.Executable>
rbdock ($Id: //depot/dev/client3/rdock/2013.1/src/exe/rbdock.cxx#4 $)

>  <Rbt.Library>
libRbt.so (2013.1, Build901 2013/11/27)

>  <Rbt.Parameter_File>
/export/apps/rDock/src/rDock_2013.1_src/data/scripts/dock_solv.prm

>  <Rbt.Receptor>
prm/pocket_docking_4.prm

>  <SCORE>
-3.7928

>  <SCORE.INTER>
-7.28901

>  <SCORE.INTER.CONST>
1

>  <SCORE.INTER.POLAR>
-0.603516

>  <SCORE.INTER.ROT>
8

>  <SCORE.INTER.SOLV>
8.52581

>  <SCORE.INTER.VDW>
-14.6229

>  <SCORE.INTER.norm>
-0.208258

>  <SCORE.INTRA>
3.49621

>  <SCORE.INTRA.DIHEDRAL>
2.59426

>  <SCORE.INTRA.DIHEDRAL.0>
13.1227

>  <SCORE.INTRA.POLAR>
0

>  <SCORE.INTRA.POLAR.0>
0

>  <SCORE.INTRA.REPUL>
0

>  <SCORE.INTRA.REPUL.0>
0

>  <SCORE.INTRA.SOLV>
7.28527

>  <SCORE.INTRA.SOLV.lig_0>
-89.1587

>  <SCORE.INTRA.VDW>
-1.44355

>  <SCORE.INTRA.VDW.0>
-0.838383

>  <SCORE.INTRA.norm>
0.0998918

>  <SCORE.RESTR>
0

>  <SCORE.RESTR.CAVITY>
0

>  <SCORE.RESTR.norm>
0

>  <SCORE.SYSTEM>
0

>  <SCORE.SYSTEM.CONST>
0

>  <SCORE.SYSTEM.DIHEDRAL>
0

>  <SCORE.SYSTEM.SOLV>
0

>  <SCORE.SYSTEM.norm>
0

>  <SCORE.heavy>
35

>  <SCORE.norm>
-0.108366

>  <RMSD>
9.064

$$$$
2o3v_lig
 OpenBabel02141814113D
libRbt.so/2013.1/901 2013/11/27
 35 37  0  0  0  0  0  0  0  0999 V2000
   -1.3082   -4.5351   42.6894 C   0  0  2  0  0  0  0  0  0  0  0  0
    0.0857   -4.4372   43.1138 O   0  0  0  0  0  0  0  0  0  0  0  0
    3.9125   -3.1292   41.5098 C   0  0  2  0  0  0  0  0  0  0  0  0
    4.9535   -2.2804   40.8556 N   0  0  0  0  0  0  0  0  0  0  0  0
   -3.8093    1.7484   38.9936 C   0  0  2  0  0  0  0  0  0  0  0  0
   -4.9057    2.6839   39.0833 O   0  0  0  0  0  0  0  0  0  0  0  0
   -1.6968   -3.0499   42.4040 C   0  0  2  0  0  0  0  0  0  0  0  0
   -0.8198   -2.4562   41.3674 N   0  0  0  0  0  0  0  0  0  0  0  0
    2.7367   -3.4378   40.4863 C   0  0  0  0  0  0  0  0  0  0  0  0
   -3.8956    0.8007   40.2397 C   0  0  2  0  0  0  0  0  0  0  0  0
   -5.2069    0.1060   40.2908 N   0  0  0  0  0  0  0  0  0  0  0  0
   -1.6393   -2.1670   43.7257 C   0  0  1  0  0  0  0  0  0  0  0  0
   -1.9689   -0.7495   43.4248 O   0  0  0  0  0  0  0  0  0  0  0  0
    1.6383   -4.3313   41.2099 C   0  0  2  0  0  0  0  0  0  0  0  0
    0.5280   -4.6208   40.2771 N   0  0  0  0  0  0  0  0  0  0  0  0
   -3.6354    1.5923   41.5963 C   0  0  1  0  0  0  0  0  0  0  0  0
   -3.6764    0.7327   42.7643 O   0  0  0  0  0  0  0  0  0  0  0  0
   -2.6019   -2.8475   44.7953 C   0  0  2  0  0  0  0  0  0  0  0  0
   -2.5966   -2.1396   46.0220 O   0  0  0  0  0  0  0  0  0  0  0  0
    1.0865   -3.5777   42.4893 C   0  0  2  0  0  0  0  0  0  0  0  0
   -2.2430    2.2930   41.5018 C   0  0  2  0  0  0  0  0  0  0  0  0
   -1.9617    3.0232   42.6797 O   0  0  0  0  0  0  0  0  0  0  0  0
   -2.1837   -4.3469   45.0413 C   0  0  2  0  0  0  0  0  0  0  0  0
   -2.1859   -5.0833   43.7598 O   0  0  0  0  0  0  0  0  0  0  0  0
    2.2437   -3.2744   43.4819 C   0  0  2  0  0  0  0  0  0  0  0  0
    1.6716   -2.5495   44.6081 O   0  0  0  0  0  0  0  0  0  0  0  0
   -2.1972    3.2335   40.2320 C   0  0  2  0  0  0  0  0  0  0  0  0
   -2.5017    2.4585   39.0074 O   0  0  0  0  0  0  0  0  0  0  0  0
   -3.1158   -5.0351   46.0375 C   0  0  0  0  0  0  0  0  0  0  0  0
   -2.7308   -6.3709   46.2524 O   0  0  0  0  0  0  0  0  0  0  0  0
    3.3163   -2.4082   42.7809 C   0  0  1  0  0  0  0  0  0  0  0  0
    4.3568   -2.1521   43.7007 O   0  0  0  0  0  0  0  0  0  0  0  0
   -0.8418    3.9057   40.0734 C   0  0  0  0  0  0  0  0  0  0  0  0
    0.1823    2.9417   40.0306 O   0  0  0  0  0  0  0  0  0  0  0  0
   -3.1087   -0.5725   42.4491 C   0  0  0  0  0  0  0  0  0  0  0  0
  1  2  1  1  0  0  0
  1  7  1  0  0  0  0
  1 24  1  0  0  0  0
  3  4  1  6  0  0  0
  3  9  1  0  0  0  0
  3 31  1  0  0  0  0
  5  6  1  1  0  0  0
  5 10  1  0  0  0  0
  5 28  1  0  0  0  0
  7  8  1  6  0  0  0
  7 12  1  0  0  0  0
  9 14  1  0  0  0  0
 10 11  1  1  0  0  0
 10 16  1  0  0  0  0
 12 13  1  6  0  0  0
 12 18  1  0  0  0  0
 13 35  1  0  0  0  0
 14 15  1  6  0  0  0
 14 20  1  0  0  0  0
 16 17  1  1  0  0  0
 16 21  1  0  0  0  0
 17 35  1  0  0  0  0
 18 19  1  1  0  0  0
 18 23  1  0  0  0  0
 20  2  1  1  0  0  0
 20 25  1  0  0  0  0
 21 22  1  1  0  0  0
 21 27  1  0  0  0  0
 23 24  1  0  0  0  0
 23 29  1  1  0  0  0
 25 26  1  1  0  0  0
 25 31  1  0  0  0  0
 27 28  1  0  0  0  0
 27 33  1  6  0  0  0
 29 30  1  0  0  0  0
 31 32  1  1  0  0  0
 33 34  1  0  0  0  0
M  END
>  <CHROM.1>
-41.78623023,41.03263951,153.79119580,36.08287013,121.87174775,-82.11135318
-179.81215048,55.55083226,-0.99613444,-1.40242663,42.28812527,1.07230569
-0.25400776,2.54772883

>  <Name>
2o3v_lig

>  <RI>
0

>  <Rbt.Current_Directory>
/home/afrankz/demos/rdock_decoys_rna/rnas/2o3v

>  <Rbt.Executable>
rbdock ($Id: //depot/dev/client3/rdock/2013.1/src/exe/rbdock.cxx#4 $)

>  <Rbt.Library>
libRbt.so (2013.1, Build901 2013/11/27)

>  <Rbt.Parameter_File>
/export/apps/rDock/src/rDock_2013.1_src/data/scripts/dock_solv.prm

>  <Rbt.Receptor>
prm/blind_docking_60.prm

>  <SCORE>
7.62647

>  <SCORE.INTER>
-5.13879

>  <SCORE.INTER.CONST>
1

>  <SCORE.INTER.POLAR>
-0.959166

>  <SCORE.INTER.ROT>
8

>  <SCORE.INTER.SOLV>
17.3315

>  <SCORE.INTER.VDW>
-14.9391

>  <SCORE.INTER.norm>
-0.146823

>  <SCORE.INTRA>
10.473

>  <SCORE.INTRA.DIHEDRAL>
4.83462

>  <SCORE.INTRA.DIHEDRAL.0>
13.1227

>  <SCORE.INTRA.POLAR>
0

>  <SCORE.INTRA.POLAR.0>
0

>  <SCORE.INTRA.REPUL>
0

>  <SCORE.INTRA.REPUL.0>
0

>  <SCORE.INTRA.SOLV>
5.84264

>  <SCORE.INTRA.SOLV.lig_0>
-89.1587

>  <SCORE.INTRA.VDW>
5.13437

>  <SCORE.INTRA.VDW.0>
-0.838383

>  <SCORE.INTRA.norm>
0.299229

>  <SCORE.RESTR>
2.29226

>  <SCORE.RESTR.CAVITY>
2.29226

>  <SCORE.RESTR.norm>
0.0654931

>  <SCORE.SYSTEM>
0

>  <SCORE.SYSTEM.CONST>
0

>  <SCORE.SYSTEM.DIHEDRAL>
0

>  <SCORE.SYSTEM.SOLV>
0

>  <SCORE.SYSTEM.norm>
0

>  <SCORE.heavy>
35

>  <SCORE.norm>
0.217899

>  <RMSD>
9.098

$$$$
2o3v_lig
 OpenBabel02141814113D
libRbt.so/2013.1/901 2013/11/27
 35 37  0  0  0  0  0  0  0  0999 V2000
   -1.2716   -5.4599   44.3204 C   0  0  2  0  0  0  0  0  0  0  0  0
   -2.4497   -4.9507   45.0172 O   0  0  0  0  0  0  0  0  0  0  0  0
   -6.7579   -5.0419   44.4188 C   0  0  2  0  0  0  0  0  0  0  0  0
   -8.1482   -5.5593   44.2411 N   0  0  0  0  0  0  0  0  0  0  0  0
    4.2481   -9.8259   47.8833 C   0  0  2  0  0  0  0  0  0  0  0  0
    4.0711   -9.3736   46.5233 O   0  0  0  0  0  0  0  0  0  0  0  0
   -0.8957   -6.7326   45.1434 C   0  0  2  0  0  0  0  0  0  0  0  0
   -2.0144   -7.7042   45.1685 N   0  0  0  0  0  0  0  0  0  0  0  0
   -5.8263   -5.5630   43.2415 C   0  0  0  0  0  0  0  0  0  0  0  0
    2.8287   -9.8931   48.5458 C   0  0  2  0  0  0  0  0  0  0  0  0
    1.9262  -10.7913   47.7818 N   0  0  0  0  0  0  0  0  0  0  0  0
   -0.4730   -6.3621   46.6312 C   0  0  1  0  0  0  0  0  0  0  0  0
   -0.1624   -7.5892   47.4097 O   0  0  0  0  0  0  0  0  0  0  0  0
   -4.3522   -5.0086   43.4604 C   0  0  2  0  0  0  0  0  0  0  0  0
   -3.4652   -5.4920   42.3806 N   0  0  0  0  0  0  0  0  0  0  0  0
    2.1795   -8.4463   48.6872 C   0  0  1  0  0  0  0  0  0  0  0  0
    0.8783   -8.4752   49.3282 O   0  0  0  0  0  0  0  0  0  0  0  0
    0.7313   -5.3253   46.5400 C   0  0  2  0  0  0  0  0  0  0  0  0
    1.1618   -4.9162   47.8258 O   0  0  0  0  0  0  0  0  0  0  0  0
   -3.7998   -5.4842   44.8669 C   0  0  2  0  0  0  0  0  0  0  0  0
    3.1549   -7.5437   49.5073 C   0  0  2  0  0  0  0  0  0  0  0  0
    2.6332   -6.2379   49.6563 O   0  0  0  0  0  0  0  0  0  0  0  0
    0.3141   -4.0657   45.6897 C   0  0  2  0  0  0  0  0  0  0  0  0
   -0.1385   -4.4946   44.3496 O   0  0  0  0  0  0  0  0  0  0  0  0
   -4.7200   -4.9756   46.0118 C   0  0  2  0  0  0  0  0  0  0  0  0
   -4.1759   -5.4818   47.2643 O   0  0  0  0  0  0  0  0  0  0  0  0
    4.5726   -7.5072   48.8086 C   0  0  2  0  0  0  0  0  0  0  0  0
    5.1032   -8.8807   48.6512 O   0  0  0  0  0  0  0  0  0  0  0  0
    1.4659   -3.0706   45.5552 C   0  0  0  0  0  0  0  0  0  0  0  0
    2.5622   -3.6509   44.8917 O   0  0  0  0  0  0  0  0  0  0  0  0
   -6.1561   -5.5097   45.8008 C   0  0  1  0  0  0  0  0  0  0  0  0
   -6.9714   -5.0296   46.8491 O   0  0  0  0  0  0  0  0  0  0  0  0
    5.5713   -6.6733   49.5968 C   0  0  0  0  0  0  0  0  0  0  0  0
    6.8050   -6.6176   48.9224 O   0  0  0  0  0  0  0  0  0  0  0  0
    0.0719   -7.3457   48.8821 C   0  0  0  0  0  0  0  0  0  0  0  0
  1  2  1  1  0  0  0
  1  7  1  0  0  0  0
  1 24  1  0  0  0  0
  3  4  1  6  0  0  0
  3  9  1  0  0  0  0
  3 31  1  0  0  0  0
  5  6  1  6  0  0  0
  5 10  1  0  0  0  0
  5 28  1  0  0  0  0
  7  8  1  1  0  0  0
  7 12  1  0  0  0  0
  9 14  1  0  0  0  0
 10 11  1  6  0  0  0
 10 16  1  0  0  0  0
 12 13  1  1  0  0  0
 12 18  1  0  0  0  0
 13 35  1  0  0  0  0
 14 15  1  6  0  0  0
 14 20  1  0  0  0  0
 16 17  1  1  0  0  0
 16 21  1  0  0  0  0
 17 35  1  0  0  0  0
 18 19  1  1  0  0  0
 18 23  1  0  0  0  0
 20  2  1  1  0  0  0
 20 25  1  0  0  0  0
 21 22  1  6  0  0  0
 21 27  1  0  0  0  0
 23 24  1  0  0  0  0
 23 29  1  6  0  0  0
 25 26  1  1  0  0  0
 25 31  1  0  0  0  0
 27 28  1  0  0  0  0
 27 33  1  1  0  0  0
 29 30  1  0  0  0  0
 31 32  1  1  0  0  0
 33 34  1  0  0  0  0
M  END
>  <CHROM.1>
-79.18607706,-172.35407904,-156.76803024,-152.68664111,65.36308364,-74.36423172
61.46741763,-177.67030489,-0.26471192,-6.42342139,46.60302681,-2.70641143
0.16462688,2.51951257

>  <Name>
2o3v_lig

>  <RI>
0

>  <Rbt.Current_Directory>
/home/afrankz/demos/rdock_decoys_rna/rnas/2o3v

>  <Rbt.Executable>
rbdock ($Id: //depot/dev/client3/rdock/2013.1/src/exe/rbdock.cxx#4 $)

>  <Rbt.Library>
libRbt.so (2013.1, Build901 2013/11/27)

>  <Rbt.Parameter_File>
/export/apps/rDock/src/rDock_2013.1_src/data/scripts/dock_solv.prm

>  <Rbt.Receptor>
prm/pocket_docking_4.prm

>  <SCORE>
-4.79132

>  <SCORE.INTER>
-3.03287

>  <SCORE.INTER.CONST>
1

>  <SCORE.INTER.POLAR>
0

>  <SCORE.INTER.ROT>
8

>  <SCORE.INTER.SOLV>
7.86481

>  <SCORE.INTER.VDW>
-13.5768

>  <SCORE.INTER.norm>
-0.0866534

>  <SCORE.INTRA>
-1.78475

>  <SCORE.INTRA.DIHEDRAL>
-4.54127

>  <SCORE.INTRA.DIHEDRAL.0>
13.1227

>  <SCORE.INTRA.POLAR>
0

>  <SCORE.INTRA.POLAR.0>
0

>  <SCORE.INTRA.REPUL>
0.0618249

>  <SCORE.INTRA.REPUL.0>
0

>  <SCORE.INTRA.SOLV>
3.38921

>  <SCORE.INTRA.SOLV.lig_0>
-89.1587

>  <SCORE.INTRA.VDW>
-1.51785

>  <SCORE.INTRA.VDW.0>
-0.838383

>  <SCORE.INTRA.norm>
-0.0509929

>  <SCORE.RESTR>
0.0263039

>  <SCORE.RESTR.CAVITY>
0.0263039

>  <SCORE.RESTR.norm>
0.000751541

>  <SCORE.SYSTEM>
0

>  <SCORE.SYSTEM.CONST>
0

>  <SCORE.SYSTEM.DIHEDRAL>
0

>  <SCORE.SYSTEM.SOLV>
0

>  <SCORE.SYSTEM.norm>
0

>  <SCORE.heavy>
35

>  <SCORE.norm>
-0.136895

>  <RMSD>
9.108

$$$$
2o3v_lig
 OpenBabel02141814113D
libRbt.so/2013.1/901 2013/11/27
 35 37  0  0  0  0  0  0  0  0999 V2000
   -0.9192   -5.7847   46.2159 C   0  0  2  0  0  0  0  0  0  0  0  0
   -0.5645   -6.9971   45.4832 O   0  0  0  0  0  0  0  0  0  0  0  0
   -2.4585  -10.7861   44.4910 C   0  0  2  0  0  0  0  0  0  0  0  0
   -3.0993  -12.1271   44.6435 N   0  0  0  0  0  0  0  0  0  0  0  0
    6.8966   -7.4936   42.6648 C   0  0  2  0  0  0  0  0  0  0  0  0
    7.9183   -6.8559   43.4617 O   0  0  0  0  0  0  0  0  0  0  0  0
    0.0820   -4.7259   45.6547 C   0  0  2  0  0  0  0  0  0  0  0  0
   -0.0639   -4.5753   44.1876 N   0  0  0  0  0  0  0  0  0  0  0  0
   -0.9809  -10.8168   45.0752 C   0  0  0  0  0  0  0  0  0  0  0  0
    5.6376   -6.5592   42.6779 C   0  0  2  0  0  0  0  0  0  0  0  0
    5.9720   -5.2076   42.1620 N   0  0  0  0  0  0  0  0  0  0  0  0
    1.5867   -5.0998   46.0089 C   0  0  1  0  0  0  0  0  0  0  0  0
    2.5254   -4.1047   45.4286 O   0  0  0  0  0  0  0  0  0  0  0  0
   -0.3267   -9.3768   44.9114 C   0  0  2  0  0  0  0  0  0  0  0  0
    1.0464   -9.3805   45.4601 N   0  0  0  0  0  0  0  0  0  0  0  0
    5.0015   -6.4541   44.1337 C   0  0  1  0  0  0  0  0  0  0  0  0
    3.8141   -5.6214   44.1684 O   0  0  0  0  0  0  0  0  0  0  0  0
    1.6825   -5.2411   47.5915 C   0  0  2  0  0  0  0  0  0  0  0  0
    2.9898   -5.5992   48.0019 O   0  0  0  0  0  0  0  0  0  0  0  0
   -1.2063   -8.2955   45.6639 C   0  0  2  0  0  0  0  0  0  0  0  0
    4.6542   -7.8943   44.6276 C   0  0  2  0  0  0  0  0  0  0  0  0
    4.0933   -7.8639   45.9253 O   0  0  0  0  0  0  0  0  0  0  0  0
    0.6465   -6.3067   48.1158 C   0  0  2  0  0  0  0  0  0  0  0  0
   -0.7168   -5.9336   47.6834 O   0  0  0  0  0  0  0  0  0  0  0  0
   -2.6510   -8.2764   45.0906 C   0  0  2  0  0  0  0  0  0  0  0  0
   -3.4083   -7.2932   45.8528 O   0  0  0  0  0  0  0  0  0  0  0  0
    5.9475   -8.8028   44.5944 C   0  0  2  0  0  0  0  0  0  0  0  0
    6.5292   -8.8190   43.2327 O   0  0  0  0  0  0  0  0  0  0  0  0
    0.6920   -6.4347   49.6377 C   0  0  0  0  0  0  0  0  0  0  0  0
    1.8929   -7.0331   50.0604 O   0  0  0  0  0  0  0  0  0  0  0  0
   -3.2901   -9.6764   45.2447 C   0  0  1  0  0  0  0  0  0  0  0  0
   -4.5973   -9.6335   44.7123 O   0  0  0  0  0  0  0  0  0  0  0  0
    5.6483  -10.2303   45.0266 C   0  0  0  0  0  0  0  0  0  0  0  0
    5.3100  -10.2692   46.3919 O   0  0  0  0  0  0  0  0  0  0  0  0
    3.9296   -4.6234   45.2248 C   0  0  0  0  0  0  0  0  0  0  0  0
  1  2  1  6  0  0  0
  1  7  1  0  0  0  0
  1 24  1  0  0  0  0
  3  4  1  1  0  0  0
  3  9  1  0  0  0  0
  3 31  1  0  0  0  0
  5  6  1  1  0  0  0
  5 10  1  0  0  0  0
  5 28  1  0  0  0  0
  7  8  1  6  0  0  0
  7 12  1  0  0  0  0
  9 14  1  0  0  0  0
 10 11  1  1  0  0  0
 10 16  1  0  0  0  0
 12 13  1  1  0  0  0
 12 18  1  0  0  0  0
 13 35  1  0  0  0  0
 14 15  1  1  0  0  0
 14 20  1  0  0  0  0
 16 17  1  6  0  0  0
 16 21  1  0  0  0  0
 17 35  1  0  0  0  0
 18 19  1  6  0  0  0
 18 23  1  0  0  0  0
 20  2  1  6  0  0  0
 20 25  1  0  0  0  0
 21 22  1  1  0  0  0
 21 27  1  0  0  0  0
 23 24  1  0  0  0  0
 23 29  1  1  0  0  0
 25 26  1  1  0  0  0
 25 31  1  0  0  0  0
 27 28  1  0  0  0  0
 27 33  1  6  0  0  0
 29 30  1  0  0  0  0
 31 32  1  6  0  0  0
 33 34  1  0  0  0  0
M  END
>  <CHROM.1>
178.99612991,-156.96353354,67.88101365,-128.81790440,-164.06913524,-168.28376693
-69.31564674,-67.62267572,1.74994547,-7.42293012,45.44326293,3.07340202,-0.25589740
-2.64394767

>  <Name>
2o3v_lig

>  <RI>
0

>  <Rbt.Current_Directory>
/home/afrankz/demos/rdock_decoys_rna/rnas/2o3v

>  <Rbt.Executable>
rbdock ($Id: //depot/dev/client3/rdock/2013.1/src/exe/rbdock.cxx#4 $)

>  <Rbt.Library>
libRbt.so (2013.1, Build901 2013/11/27)

>  <Rbt.Parameter_File>
/export/apps/rDock/src/rDock_2013.1_src/data/scripts/dock_solv.prm

>  <Rbt.Receptor>
prm/pocket_docking_7.prm

>  <SCORE>
-11.1232

>  <SCORE.INTER>
-8.11847

>  <SCORE.INTER.CONST>
1

>  <SCORE.INTER.POLAR>
0

>  <SCORE.INTER.ROT>
8

>  <SCORE.INTER.SOLV>
12.9593

>  <SCORE.INTER.VDW>
-18.6654

>  <SCORE.INTER.norm>
-0.231956

>  <SCORE.INTRA>
-3.00477

>  <SCORE.INTRA.DIHEDRAL>
-1.29756

>  <SCORE.INTRA.DIHEDRAL.0>
13.1227

>  <SCORE.INTRA.POLAR>
0

>  <SCORE.INTRA.POLAR.0>
0

>  <SCORE.INTRA.REPUL>
0

>  <SCORE.INTRA.REPUL.0>
0

>  <SCORE.INTRA.SOLV>
1.07378

>  <SCORE.INTRA.SOLV.lig_0>
-89.1587

>  <SCORE.INTRA.VDW>
-2.89288

>  <SCORE.INTRA.VDW.0>
-0.838383

>  <SCORE.INTRA.norm>
-0.0858505

>  <SCORE.RESTR>
0

>  <SCORE.RESTR.CAVITY>
0

>  <SCORE.RESTR.norm>
0

>  <SCORE.SYSTEM>
0

>  <SCORE.SYSTEM.CONST>
0

>  <SCORE.SYSTEM.DIHEDRAL>
0

>  <SCORE.SYSTEM.SOLV>
0

>  <SCORE.SYSTEM.norm>
0

>  <SCORE.heavy>
35

>  <SCORE.norm>
-0.317807

>  <RMSD>
9.132

$$$$
2o3v_lig
 OpenBabel02141814113D
libRbt.so/2013.1/901 2013/11/27
 35 37  0  0  0  0  0  0  0  0999 V2000
   -2.7263   -8.8143   45.3120 C   0  0  2  0  0  0  0  0  0  0  0  0
   -1.6687   -9.0409   46.2933 O   0  0  0  0  0  0  0  0  0  0  0  0
   -0.4585  -12.4773   48.6711 C   0  0  2  0  0  0  0  0  0  0  0  0
   -0.4539  -13.5295   49.7318 N   0  0  0  0  0  0  0  0  0  0  0  0
    4.4469   -4.1369   44.0771 C   0  0  2  0  0  0  0  0  0  0  0  0
    4.7944   -5.4854   43.6944 O   0  0  0  0  0  0  0  0  0  0  0  0
   -2.1253   -7.7036   44.3936 C   0  0  2  0  0  0  0  0  0  0  0  0
   -0.8533   -8.1485   43.7768 N   0  0  0  0  0  0  0  0  0  0  0  0
   -0.3562  -11.0354   49.3313 C   0  0  0  0  0  0  0  0  0  0  0  0
    2.9087   -4.1150   44.3802 C   0  0  2  0  0  0  0  0  0  0  0  0
    2.5609   -5.0937   45.4414 N   0  0  0  0  0  0  0  0  0  0  0  0
   -1.8892   -6.3492   45.1932 C   0  0  1  0  0  0  0  0  0  0  0  0
   -1.2764   -5.3202   44.3135 O   0  0  0  0  0  0  0  0  0  0  0  0
   -0.3747   -9.9352   48.1834 C   0  0  2  0  0  0  0  0  0  0  0  0
   -0.2920   -8.5838   48.7776 N   0  0  0  0  0  0  0  0  0  0  0  0
    2.0495   -4.3923   43.0687 C   0  0  1  0  0  0  0  0  0  0  0  0
    0.6204   -4.3448   43.3137 O   0  0  0  0  0  0  0  0  0  0  0  0
   -3.2856   -5.9194   45.8248 C   0  0  2  0  0  0  0  0  0  0  0  0
   -3.1678   -4.7280   46.5814 O   0  0  0  0  0  0  0  0  0  0  0  0
   -1.7016  -10.0692   47.3285 C   0  0  2  0  0  0  0  0  0  0  0  0
    2.4382   -3.3332   41.9889 C   0  0  2  0  0  0  0  0  0  0  0  0
    1.7111   -3.5375   40.7934 O   0  0  0  0  0  0  0  0  0  0  0  0
   -3.8622   -7.0733   46.7303 C   0  0  2  0  0  0  0  0  0  0  0  0
   -3.9809   -8.3168   45.9404 O   0  0  0  0  0  0  0  0  0  0  0  0
   -1.7966  -11.4841   46.6918 C   0  0  2  0  0  0  0  0  0  0  0  0
   -3.0533  -11.5473   45.9584 O   0  0  0  0  0  0  0  0  0  0  0  0
    3.9947   -3.3856   41.7172 C   0  0  2  0  0  0  0  0  0  0  0  0
    4.7435   -3.1789   42.9779 O   0  0  0  0  0  0  0  0  0  0  0  0
   -5.2217   -6.7003   47.3197 C   0  0  0  0  0  0  0  0  0  0  0  0
   -6.1671   -6.4659   46.3047 O   0  0  0  0  0  0  0  0  0  0  0  0
   -1.7753  -12.5577   47.8048 C   0  0  1  0  0  0  0  0  0  0  0  0
   -1.8570  -13.8314   47.2006 O   0  0  0  0  0  0  0  0  0  0  0  0
    4.4280   -2.3394   40.7016 C   0  0  0  0  0  0  0  0  0  0  0  0
    3.8516   -2.6056   39.4459 O   0  0  0  0  0  0  0  0  0  0  0  0
    0.1949   -5.5326   44.0440 C   0  0  0  0  0  0  0  0  0  0  0  0
  1  2  1  1  0  0  0
  1  7  1  0  0  0  0
  1 24  1  0  0  0  0
  3  4  1  1  0  0  0
  3  9  1  0  0  0  0
  3 31  1  0  0  0  0
  5  6  1  6  0  0  0
  5 10  1  0  0  0  0
  5 28  1  0  0  0  0
  7  8  1  1  0  0  0
  7 12  1  0  0  0  0
  9 14  1  0  0  0  0
 10 11  1  1  0  0  0
 10 16  1  0  0  0  0
 12 13  1  6  0  0  0
 12 18  1  0  0  0  0
 13 35  1  0  0  0  0
 14 15  1  1  0  0  0
 14 20  1  0  0  0  0
 16 17  1  1  0  0  0
 16 21  1  0  0  0  0
 17 35  1  0  0  0  0
 18 19  1  1  0  0  0
 18 23  1  0  0  0  0
 20  2  1  6  0  0  0
 20 25  1  0  0  0  0
 21 22  1  6  0  0  0
 21 27  1  0  0  0  0
 23 24  1  0  0  0  0
 23 29  1  6  0  0  0
 25 26  1  1  0  0  0
 25 31  1  0  0  0  0
 27 28  1  0  0  0  0
 27 33  1  6  0  0  0
 29 30  1  0  0  0  0
 31 32  1  6  0  0  0
 33 34  1  0  0  0  0
M  END
>  <CHROM.1>
-175.27916593,-75.77994051,-173.26569467,-73.42688284,176.37108769,-178.71328579
60.77162709,-64.56059894,-0.28283350,-7.13565103,45.19179348,2.13292333,-0.16884828
2.60253158

>  <Name>
2o3v_lig

>  <RI>
0

>  <Rbt.Current_Directory>
/home/afrankz/demos/rdock_decoys_rna/rnas/2o3v

>  <Rbt.Executable>
rbdock ($Id: //depot/dev/client3/rdock/2013.1/src/exe/rbdock.cxx#4 $)

>  <Rbt.Library>
libRbt.so (2013.1, Build901 2013/11/27)

>  <Rbt.Parameter_File>
/export/apps/rDock/src/rDock_2013.1_src/data/scripts/dock_solv.prm

>  <Rbt.Receptor>
prm/pocket_docking_6.prm

>  <SCORE>
-11.1119

>  <SCORE.INTER>
-5.87096

>  <SCORE.INTER.CONST>
1

>  <SCORE.INTER.POLAR>
-0.959166

>  <SCORE.INTER.ROT>
8

>  <SCORE.INTER.SOLV>
10.5866

>  <SCORE.INTER.VDW>
-13.179

>  <SCORE.INTER.norm>
-0.167742

>  <SCORE.INTRA>
-5.24097

>  <SCORE.INTRA.DIHEDRAL>
-10.5828

>  <SCORE.INTRA.DIHEDRAL.0>
13.1227

>  <SCORE.INTRA.POLAR>
0

>  <SCORE.INTRA.POLAR.0>
0

>  <SCORE.INTRA.REPUL>
0

>  <SCORE.INTRA.REPUL.0>
0

>  <SCORE.INTRA.SOLV>
0.658226

>  <SCORE.INTRA.SOLV.lig_0>
-89.1587

>  <SCORE.INTRA.VDW>
-0.278697

>  <SCORE.INTRA.VDW.0>
-0.838383

>  <SCORE.INTRA.norm>
-0.149742

>  <SCORE.RESTR>
0

>  <SCORE.RESTR.CAVITY>
0

>  <SCORE.RESTR.norm>
0

>  <SCORE.SYSTEM>
0

>  <SCORE.SYSTEM.CONST>
0

>  <SCORE.SYSTEM.DIHEDRAL>
0

>  <SCORE.SYSTEM.SOLV>
0

>  <SCORE.SYSTEM.norm>
0

>  <SCORE.heavy>
35

>  <SCORE.norm>
-0.317484

>  <RMSD>
9.138

$$$$
2o3v_lig
 OpenBabel02141814113D
libRbt.so/2013.1/901 2013/11/27
 35 37  0  0  0  0  0  0  0  0999 V2000
    2.5314   -7.1586   43.7975 C   0  0  2  0  0  0  0  0  0  0  0  0
    1.7899   -6.7795   44.9972 O   0  0  0  0  0  0  0  0  0  0  0  0
   -2.3416   -7.0815   46.3264 C   0  0  2  0  0  0  0  0  0  0  0  0
   -3.8161   -6.8576   46.4161 N   0  0  0  0  0  0  0  0  0  0  0  0
    8.0621   -7.2124   50.6519 C   0  0  2  0  0  0  0  0  0  0  0  0
    7.9165   -5.8533   51.1178 O   0  0  0  0  0  0  0  0  0  0  0  0
    3.9881   -7.3489   44.3268 C   0  0  2  0  0  0  0  0  0  0  0  0
    4.0421   -8.3825   45.3876 N   0  0  0  0  0  0  0  0  0  0  0  0
   -1.5650   -5.7215   46.5958 C   0  0  0  0  0  0  0  0  0  0  0  0
    7.6198   -7.2447   49.1481 C   0  0  2  0  0  0  0  0  0  0  0  0
    8.4241   -6.2969   48.3358 N   0  0  0  0  0  0  0  0  0  0  0  0
    4.5929   -5.9843   44.8759 C   0  0  1  0  0  0  0  0  0  0  0  0
    5.9614   -6.1959   45.4150 O   0  0  0  0  0  0  0  0  0  0  0  0
   -0.0009   -5.9846   46.4831 C   0  0  2  0  0  0  0  0  0  0  0  0
    0.7411   -4.7275   46.7194 N   0  0  0  0  0  0  0  0  0  0  0  0
    6.0670   -6.9313   48.9876 C   0  0  1  0  0  0  0  0  0  0  0  0
    5.6230   -6.9874   47.6076 O   0  0  0  0  0  0  0  0  0  0  0  0
    4.5145   -4.9195   43.6953 C   0  0  2  0  0  0  0  0  0  0  0  0
    5.0118   -3.6572   44.1017 O   0  0  0  0  0  0  0  0  0  0  0  0
    0.3484   -6.5565   45.0478 C   0  0  2  0  0  0  0  0  0  0  0  0
    5.2631   -7.9589   49.8458 C   0  0  2  0  0  0  0  0  0  0  0  0
    3.8724   -7.7216   49.7500 O   0  0  0  0  0  0  0  0  0  0  0  0
    3.0319   -4.7703   43.1822 C   0  0  2  0  0  0  0  0  0  0  0  0
    2.5129   -6.0889   42.7621 O   0  0  0  0  0  0  0  0  0  0  0  0
   -0.4200   -7.8830   44.7902 C   0  0  2  0  0  0  0  0  0  0  0  0
   -0.0829   -8.3264   43.4445 O   0  0  0  0  0  0  0  0  0  0  0  0
    5.7424   -7.8970   51.3510 C   0  0  2  0  0  0  0  0  0  0  0  0
    7.2009   -8.1386   51.4361 O   0  0  0  0  0  0  0  0  0  0  0  0
    2.9345   -3.7802   42.0224 C   0  0  0  0  0  0  0  0  0  0  0  0
    3.2440   -2.4742   42.4435 O   0  0  0  0  0  0  0  0  0  0  0  0
   -1.9421   -7.6324   44.9023 C   0  0  1  0  0  0  0  0  0  0  0  0
   -2.6154   -8.8517   44.6701 O   0  0  0  0  0  0  0  0  0  0  0  0
    5.0164   -8.9136   52.2190 C   0  0  0  0  0  0  0  0  0  0  0  0
    3.6599   -8.5647   52.3535 O   0  0  0  0  0  0  0  0  0  0  0  0
    6.1165   -5.8294   46.8723 C   0  0  0  0  0  0  0  0  0  0  0  0
  1  2  1  1  0  0  0
  1  7  1  0  0  0  0
  1 24  1  0  0  0  0
  3  4  1  6  0  0  0
  3  9  1  0  0  0  0
  3 31  1  0  0  0  0
  5  6  1  1  0  0  0
  5 10  1  0  0  0  0
  5 28  1  0  0  0  0
  7  8  1  1  0  0  0
  7 12  1  0  0  0  0
  9 14  1  0  0  0  0
 10 11  1  6  0  0  0
 10 16  1  0  0  0  0
 12 13  1  6  0  0  0
 12 18  1  0  0  0  0
 13 35  1  0  0  0  0
 14 15  1  6  0  0  0
 14 20  1  0  0  0  0
 16 17  1  6  0  0  0
 16 21  1  0  0  0  0
 17 35  1  0  0  0  0
 18 19  1  1  0  0  0
 18 23  1  0  0  0  0
 20  2  1  1  0  0  0
 20 25  1  0  0  0  0
 21 22  1  1  0  0  0
 21 27  1  0  0  0  0
 23 24  1  0  0  0  0
 23 29  1  6  0  0  0
 25 26  1  6  0  0  0
 25 31  1  0  0  0  0
 27 28  1  0  0  0  0
 27 33  1  1  0  0  0
 29 30  1  0  0  0  0
 31 32  1  1  0  0  0
 33 34  1  0  0  0  0
M  END
>  <CHROM.1>
-176.51249766,-120.68071114,82.04663012,-72.75103922,163.46208426,-172.74491168
-66.24784379,-68.30112547,3.25388827,-6.64264639,46.63705533,-2.45038195
0.23417460,1.99706581

>  <Name>
2o3v_lig

>  <RI>
0

>  <Rbt.Current_Directory>
/home/afrankz/demos/rdock_decoys_rna/rnas/2o3v

>  <Rbt.Executable>
rbdock ($Id: //depot/dev/client3/rdock/2013.1/src/exe/rbdock.cxx#4 $)

>  <Rbt.Library>
libRbt.so (2013.1, Build901 2013/11/27)

>  <Rbt.Parameter_File>
/export/apps/rDock/src/rDock_2013.1_src/data/scripts/dock_solv.prm

>  <Rbt.Receptor>
prm/pocket_docking_7.prm

>  <SCORE>
-9.39156

>  <SCORE.INTER>
-8.21607

>  <SCORE.INTER.CONST>
1

>  <SCORE.INTER.POLAR>
-1.12607

>  <SCORE.INTER.ROT>
8

>  <SCORE.INTER.SOLV>
13.2155

>  <SCORE.INTER.VDW>
-15.0623

>  <SCORE.INTER.norm>
-0.234745

>  <SCORE.INTRA>
-1.17549

>  <SCORE.INTRA.DIHEDRAL>
-1.01241

>  <SCORE.INTRA.DIHEDRAL.0>
13.1227

>  <SCORE.INTRA.POLAR>
0

>  <SCORE.INTRA.POLAR.0>
0

>  <SCORE.INTRA.REPUL>
0

>  <SCORE.INTRA.REPUL.0>
0

>  <SCORE.INTRA.SOLV>
1.32182

>  <SCORE.INTRA.SOLV.lig_0>
-89.1587

>  <SCORE.INTRA.VDW>
-1.33019

>  <SCORE.INTRA.VDW.0>
-0.838383

>  <SCORE.INTRA.norm>
-0.0335854

>  <SCORE.RESTR>
0

>  <SCORE.RESTR.CAVITY>
0

>  <SCORE.RESTR.norm>
0

>  <SCORE.SYSTEM>
0

>  <SCORE.SYSTEM.CONST>
0

>  <SCORE.SYSTEM.DIHEDRAL>
0

>  <SCORE.SYSTEM.SOLV>
0

>  <SCORE.SYSTEM.norm>
0

>  <SCORE.heavy>
35

>  <SCORE.norm>
-0.26833

>  <RMSD>
9.146

$$$$
2o3v_lig
 OpenBabel02141814113D
libRbt.so/2013.1/901 2013/11/27
 35 37  0  0  0  0  0  0  0  0999 V2000
   -1.0019   -8.2032   46.8737 C   0  0  2  0  0  0  0  0  0  0  0  0
   -2.0335   -9.1891   46.5628 O   0  0  0  0  0  0  0  0  0  0  0  0
   -1.8840  -12.0009   49.8792 C   0  0  2  0  0  0  0  0  0  0  0  0
   -2.1908  -13.1765   50.7487 N   0  0  0  0  0  0  0  0  0  0  0  0
    3.3629   -2.8392   42.6563 C   0  0  2  0  0  0  0  0  0  0  0  0
    3.0827   -2.3197   43.9743 O   0  0  0  0  0  0  0  0  0  0  0  0
   -1.1666   -7.1471   45.7353 C   0  0  2  0  0  0  0  0  0  0  0  0
   -2.5318   -6.5705   45.7327 N   0  0  0  0  0  0  0  0  0  0  0  0
   -3.1681  -11.0754   49.7384 C   0  0  0  0  0  0  0  0  0  0  0  0
    2.2073   -3.8322   42.2861 C   0  0  2  0  0  0  0  0  0  0  0  0
    0.8863   -3.1562   42.3401 N   0  0  0  0  0  0  0  0  0  0  0  0
   -0.8450   -7.7717   44.3084 C   0  0  1  0  0  0  0  0  0  0  0  0
   -1.0504   -6.7638   43.2358 O   0  0  0  0  0  0  0  0  0  0  0  0
   -2.8186   -9.8400   48.8004 C   0  0  2  0  0  0  0  0  0  0  0  0
   -4.0050   -8.9710   48.6466 N   0  0  0  0  0  0  0  0  0  0  0  0
    2.2120   -5.1141   43.2302 C   0  0  1  0  0  0  0  0  0  0  0  0
    1.1726   -6.0667   42.8882 O   0  0  0  0  0  0  0  0  0  0  0  0
    0.6300   -8.3667   44.3703 C   0  0  2  0  0  0  0  0  0  0  0  0
    0.9977   -8.9702   43.1430 O   0  0  0  0  0  0  0  0  0  0  0  0
   -2.3404  -10.3576   47.3817 C   0  0  2  0  0  0  0  0  0  0  0  0
    3.6123   -5.7980   43.1300 C   0  0  2  0  0  0  0  0  0  0  0  0
    3.6788   -6.9414   43.9593 O   0  0  0  0  0  0  0  0  0  0  0  0
    0.7553   -9.4149   45.5405 C   0  0  2  0  0  0  0  0  0  0  0  0
    0.3677   -8.7847   46.8200 O   0  0  0  0  0  0  0  0  0  0  0  0
   -1.0883  -11.2668   47.5292 C   0  0  2  0  0  0  0  0  0  0  0  0
   -0.7317  -11.7352   46.1970 O   0  0  0  0  0  0  0  0  0  0  0  0
    4.7466   -4.7630   43.5061 C   0  0  2  0  0  0  0  0  0  0  0  0
    4.6602   -3.5676   42.6364 O   0  0  0  0  0  0  0  0  0  0  0  0
    2.1733   -9.9745   45.6456 C   0  0  0  0  0  0  0  0  0  0  0  0
    3.0982   -8.9582   45.9466 O   0  0  0  0  0  0  0  0  0  0  0  0
   -1.4228  -12.4681   48.4439 C   0  0  1  0  0  0  0  0  0  0  0  0
   -0.2694  -13.2736   48.5658 O   0  0  0  0  0  0  0  0  0  0  0  0
    6.1344   -5.3730   43.3803 C   0  0  0  0  0  0  0  0  0  0  0  0
    6.3345   -5.8742   42.0808 O   0  0  0  0  0  0  0  0  0  0  0  0
   -0.1277   -5.5708   43.3223 C   0  0  0  0  0  0  0  0  0  0  0  0
  1  2  1  6  0  0  0
  1  7  1  0  0  0  0
  1 24  1  0  0  0  0
  3  4  1  1  0  0  0
  3  9  1  0  0  0  0
  3 31  1  0  0  0  0
  5  6  1  1  0  0  0
  5 10  1  0  0  0  0
  5 28  1  0  0  0  0
  7  8  1  6  0  0  0
  7 12  1  0  0  0  0
  9 14  1  0  0  0  0
 10 11  1  1  0  0  0
 10 16  1  0  0  0  0
 12 13  1  6  0  0  0
 12 18  1  0  0  0  0
 13 35  1  0  0  0  0
 14 15  1  6  0  0  0
 14 20  1  0  0  0  0
 16 17  1  6  0  0  0
 16 21  1  0  0  0  0
 17 35  1  0  0  0  0
 18 19  1  6  0  0  0
 18 23  1  0  0  0  0
 20  2  1  6  0  0  0
 20 25  1  0  0  0  0
 21 22  1  1  0  0  0
 21 27  1  0  0  0  0
 23 24  1  0  0  0  0
 23 29  1  1  0  0  0
 25 26  1  6  0  0  0
 25 31  1  0  0  0  0
 27 28  1  0  0  0  0
 27 33  1  6  0  0  0
 29 30  1  0  0  0  0
 31 32  1  1  0  0  0
 33 34  1  0  0  0  0
M  END
>  <CHROM.1>
-176.60658259,63.34785367,73.83211690,-74.34151516,-166.17104099,61.68835466
62.37583023,56.43281977,0.66867730,-7.86109758,45.36627467,2.15253778,-0.25600148
2.61180789

>  <Name>
2o3v_lig

>  <RI>
0

>  <Rbt.Current_Directory>
/home/afrankz/demos/rdock_decoys_rna/rnas/2o3v

>  <Rbt.Executable>
rbdock ($Id: //depot/dev/client3/rdock/2013.1/src/exe/rbdock.cxx#4 $)

>  <Rbt.Library>
libRbt.so (2013.1, Build901 2013/11/27)

>  <Rbt.Parameter_File>
/export/apps/rDock/src/rDock_2013.1_src/data/scripts/dock_solv.prm

>  <Rbt.Receptor>
prm/pocket_docking_6.prm

>  <SCORE>
-16.7083

>  <SCORE.INTER>
-11.426

>  <SCORE.INTER.CONST>
1

>  <SCORE.INTER.POLAR>
-1.65065

>  <SCORE.INTER.ROT>
8

>  <SCORE.INTER.SOLV>
9.34319

>  <SCORE.INTER.VDW>
-14.1629

>  <SCORE.INTER.norm>
-0.326457

>  <SCORE.INTRA>
-5.28231

>  <SCORE.INTRA.DIHEDRAL>
-10.1068

>  <SCORE.INTRA.DIHEDRAL.0>
13.1227

>  <SCORE.INTRA.POLAR>
0

>  <SCORE.INTRA.POLAR.0>
0

>  <SCORE.INTRA.REPUL>
0

>  <SCORE.INTRA.REPUL.0>
0

>  <SCORE.INTRA.SOLV>
2.88292

>  <SCORE.INTRA.SOLV.lig_0>
-89.1587

>  <SCORE.INTRA.VDW>
-1.67039

>  <SCORE.INTRA.VDW.0>
-0.838383

>  <SCORE.INTRA.norm>
-0.150923

>  <SCORE.RESTR>
0

>  <SCORE.RESTR.CAVITY>
0

>  <SCORE.RESTR.norm>
0

>  <SCORE.SYSTEM>
0

>  <SCORE.SYSTEM.CONST>
0

>  <SCORE.SYSTEM.DIHEDRAL>
0

>  <SCORE.SYSTEM.SOLV>
0

>  <SCORE.SYSTEM.norm>
0

>  <SCORE.heavy>
35

>  <SCORE.norm>
-0.47738

>  <RMSD>
9.170

$$$$
2o3v_lig
 OpenBabel02141814113D
libRbt.so/2013.1/901 2013/11/27
 35 37  0  0  0  0  0  0  0  0999 V2000
   -0.6353   -8.3410   46.0283 C   0  0  2  0  0  0  0  0  0  0  0  0
   -1.1268   -9.6111   46.5556 O   0  0  0  0  0  0  0  0  0  0  0  0
   -5.1056   -8.6987   48.0601 C   0  0  2  0  0  0  0  0  0  0  0  0
   -6.4448   -8.8635   48.7018 N   0  0  0  0  0  0  0  0  0  0  0  0
    5.9207   -4.5418   44.0717 C   0  0  2  0  0  0  0  0  0  0  0  0
    6.3941   -5.0056   42.7886 O   0  0  0  0  0  0  0  0  0  0  0  0
    0.5950   -8.7676   45.1663 C   0  0  2  0  0  0  0  0  0  0  0  0
    0.1990   -9.7187   44.1010 N   0  0  0  0  0  0  0  0  0  0  0  0
   -4.9828   -9.6567   46.7981 C   0  0  0  0  0  0  0  0  0  0  0  0
    5.5733   -5.8065   44.9308 C   0  0  2  0  0  0  0  0  0  0  0  0
    6.7538   -6.6964   45.0703 N   0  0  0  0  0  0  0  0  0  0  0  0
    1.7404   -9.4118   46.0622 C   0  0  1  0  0  0  0  0  0  0  0  0
    2.8822   -9.8509   45.2185 O   0  0  0  0  0  0  0  0  0  0  0  0
   -3.5466   -9.4707   46.1416 C   0  0  2  0  0  0  0  0  0  0  0  0
   -3.4070  -10.3629   44.9708 N   0  0  0  0  0  0  0  0  0  0  0  0
    4.3434   -6.6107   44.3179 C   0  0  1  0  0  0  0  0  0  0  0  0
    3.9785   -7.7687   45.1120 O   0  0  0  0  0  0  0  0  0  0  0  0
    2.1272   -8.3461   47.1795 C   0  0  2  0  0  0  0  0  0  0  0  0
    3.1301   -8.8445   48.0464 O   0  0  0  0  0  0  0  0  0  0  0  0
   -2.4199   -9.7964   47.2064 C   0  0  2  0  0  0  0  0  0  0  0  0
    3.1250   -5.6407   44.2034 C   0  0  2  0  0  0  0  0  0  0  0  0
    2.0017   -6.3001   43.6529 O   0  0  0  0  0  0  0  0  0  0  0  0
    0.8558   -7.9330   48.0141 C   0  0  2  0  0  0  0  0  0  0  0  0
   -0.1913   -7.4167   47.1077 O   0  0  0  0  0  0  0  0  0  0  0  0
   -2.5512   -8.8593   48.4397 C   0  0  2  0  0  0  0  0  0  0  0  0
   -1.5142   -9.2412   49.3883 O   0  0  0  0  0  0  0  0  0  0  0  0
    3.5189   -4.3797   43.3351 C   0  0  2  0  0  0  0  0  0  0  0  0
    4.7008   -3.7038   43.9174 O   0  0  0  0  0  0  0  0  0  0  0  0
    1.1930   -6.8818   49.0705 C   0  0  0  0  0  0  0  0  0  0  0  0
    0.0998   -6.6541   49.9261 O   0  0  0  0  0  0  0  0  0  0  0  0
   -3.9484   -9.0345   49.0794 C   0  0  1  0  0  0  0  0  0  0  0  0
   -4.0436   -8.1698   50.1918 O   0  0  0  0  0  0  0  0  0  0  0  0
    2.3743   -3.3831   43.2318 C   0  0  0  0  0  0  0  0  0  0  0  0
    2.0332   -2.8932   44.5060 O   0  0  0  0  0  0  0  0  0  0  0  0
    3.3877   -8.7958   44.2627 C   0  0  0  0  0  0  0  0  0  0  0  0
  1  2  1  1  0  0  0
  1  7  1  0  0  0  0
  1 24  1  0  0  0  0
  3  4  1  1  0  0  0
  3  9  1  0  0  0  0
  3 31  1  0  0  0  0
  5  6  1  6  0  0  0
  5 10  1  0  0  0  0
  5 28  1  0  0  0  0
  7  8  1  6  0  0  0
  7 12  1  0  0  0  0
  9 14  1  0  0  0  0
 10 11  1  6  0  0  0
 10 16  1  0  0  0  0
 12 13  1  6  0  0  0
 12 18  1  0  0  0  0
 13 35  1  0  0  0  0
 14 15  1  6  0  0  0
 14 20  1  0  0  0  0
 16 17  1  1  0  0  0
 16 21  1  0  0  0  0
 17 35  1  0  0  0  0
 18 19  1  1  0  0  0
 18 23  1  0  0  0  0
 20  2  1  6  0  0  0
 20 25  1  0  0  0  0
 21 22  1  6  0  0  0
 21 27  1  0  0  0  0
 23 24  1  0  0  0  0
 23 29  1  1  0  0  0
 25 26  1  1  0  0  0
 25 31  1  0  0  0  0
 27 28  1  0  0  0  0
 27 33  1  1  0  0  0
 29 30  1  0  0  0  0
 31 32  1  1  0  0  0
 33 34  1  0  0  0  0
M  END
>  <CHROM.1>
-167.10153429,50.47789057,67.73524653,-151.36388415,-172.39696907,62.99727858
-171.96132145,61.87207986,0.81185270,-7.55856447,46.14930997,-2.63850796
0.30140385,-0.33162434

>  <Name>
2o3v_lig

>  <RI>
0

>  <Rbt.Current_Directory>
/home/afrankz/demos/rdock_decoys_rna/rnas/2o3v

>  <Rbt.Executable>
rbdock ($Id: //depot/dev/client3/rdock/2013.1/src/exe/rbdock.cxx#4 $)

>  <Rbt.Library>
libRbt.so (2013.1, Build901 2013/11/27)

>  <Rbt.Parameter_File>
/export/apps/rDock/src/rDock_2013.1_src/data/scripts/dock_solv.prm

>  <Rbt.Receptor>
prm/pocket_docking_3.prm

>  <SCORE>
-12.0192

>  <SCORE.INTER>
-7.13469

>  <SCORE.INTER.CONST>
1

>  <SCORE.INTER.POLAR>
-0.959166

>  <SCORE.INTER.ROT>
8

>  <SCORE.INTER.SOLV>
11.4425

>  <SCORE.INTER.VDW>
-14.3068

>  <SCORE.INTER.norm>
-0.203848

>  <SCORE.INTRA>
-5.00044

>  <SCORE.INTRA.DIHEDRAL>
-7.64171

>  <SCORE.INTRA.DIHEDRAL.0>
13.1227

>  <SCORE.INTRA.POLAR>
0

>  <SCORE.INTRA.POLAR.0>
0

>  <SCORE.INTRA.REPUL>
0

>  <SCORE.INTRA.REPUL.0>
0

>  <SCORE.INTRA.SOLV>
2.41481

>  <SCORE.INTRA.SOLV.lig_0>
-89.1587

>  <SCORE.INTRA.VDW>
-2.38699

>  <SCORE.INTRA.VDW.0>
-0.838383

>  <SCORE.INTRA.norm>
-0.14287

>  <SCORE.RESTR>
0.1159

>  <SCORE.RESTR.CAVITY>
0.1159

>  <SCORE.RESTR.norm>
0.00331142

>  <SCORE.SYSTEM>
0

>  <SCORE.SYSTEM.CONST>
0

>  <SCORE.SYSTEM.DIHEDRAL>
0

>  <SCORE.SYSTEM.SOLV>
0

>  <SCORE.SYSTEM.norm>
0

>  <SCORE.heavy>
35

>  <SCORE.norm>
-0.343406

>  <RMSD>
9.184

$$$$
2o3v_lig
 OpenBabel02141814113D
libRbt.so/2013.1/901 2013/11/27
 35 37  0  0  0  0  0  0  0  0999 V2000
    0.8271   -4.6106   44.7085 C   0  0  2  0  0  0  0  0  0  0  0  0
    1.9403   -4.0960   43.9156 O   0  0  0  0  0  0  0  0  0  0  0  0
    2.2028   -4.0372   39.5733 C   0  0  2  0  0  0  0  0  0  0  0  0
    2.0828   -3.5754   38.1575 N   0  0  0  0  0  0  0  0  0  0  0  0
    8.5649   -6.8122   49.1722 C   0  0  2  0  0  0  0  0  0  0  0  0
    8.7391   -8.2204   49.4409 O   0  0  0  0  0  0  0  0  0  0  0  0
    1.3695   -4.5362   46.1709 C   0  0  2  0  0  0  0  0  0  0  0  0
    1.7421   -3.1486   46.5342 N   0  0  0  0  0  0  0  0  0  0  0  0
    0.7626   -4.1481   40.2359 C   0  0  0  0  0  0  0  0  0  0  0  0
    7.0242   -6.5217   49.1624 C   0  0  2  0  0  0  0  0  0  0  0  0
    6.3996   -6.9160   50.4505 N   0  0  0  0  0  0  0  0  0  0  0  0
    2.6176   -5.4994   46.3805 C   0  0  1  0  0  0  0  0  0  0  0  0
    3.1457   -5.3807   47.7644 O   0  0  0  0  0  0  0  0  0  0  0  0
    0.9191   -4.6295   41.7433 C   0  0  2  0  0  0  0  0  0  0  0  0
   -0.4105   -4.7282   42.3826 N   0  0  0  0  0  0  0  0  0  0  0  0
    6.2983   -7.2529   47.9486 C   0  0  1  0  0  0  0  0  0  0  0  0
    4.8755   -6.9743   47.8956 O   0  0  0  0  0  0  0  0  0  0  0  0
    2.1565   -6.9699   45.9823 C   0  0  2  0  0  0  0  0  0  0  0  0
    3.2168   -7.8995   46.1145 O   0  0  0  0  0  0  0  0  0  0  0  0
    1.8292   -3.6098   42.5439 C   0  0  2  0  0  0  0  0  0  0  0  0
    6.9779   -6.7980   46.6183 C   0  0  2  0  0  0  0  0  0  0  0  0
    6.3788   -7.4262   45.5021 O   0  0  0  0  0  0  0  0  0  0  0  0
    1.6031   -6.9961   44.5069 C   0  0  2  0  0  0  0  0  0  0  0  0
    0.4993   -6.0228   44.3695 O   0  0  0  0  0  0  0  0  0  0  0  0
    3.2334   -3.5028   41.8857 C   0  0  2  0  0  0  0  0  0  0  0  0
    3.9969   -2.5237   42.6469 O   0  0  0  0  0  0  0  0  0  0  0  0
    8.5279   -7.1042   46.6720 C   0  0  2  0  0  0  0  0  0  0  0  0
    9.1408   -6.4479   47.8494 O   0  0  0  0  0  0  0  0  0  0  0  0
    1.1185   -8.3904   44.1120 C   0  0  0  0  0  0  0  0  0  0  0  0
    0.0103   -8.7798   44.8859 O   0  0  0  0  0  0  0  0  0  0  0  0
    3.0856   -3.0381   40.4179 C   0  0  1  0  0  0  0  0  0  0  0  0
    4.3724   -2.9546   39.8425 O   0  0  0  0  0  0  0  0  0  0  0  0
    9.2415   -6.6374   45.4123 C   0  0  0  0  0  0  0  0  0  0  0  0
   10.6122   -6.9481   45.4806 O   0  0  0  0  0  0  0  0  0  0  0  0
    4.6448   -5.5351   47.8706 C   0  0  0  0  0  0  0  0  0  0  0  0
  1  2  1  6  0  0  0
  1  7  1  0  0  0  0
  1 24  1  0  0  0  0
  3  4  1  6  0  0  0
  3  9  1  0  0  0  0
  3 31  1  0  0  0  0
  5  6  1  6  0  0  0
  5 10  1  0  0  0  0
  5 28  1  0  0  0  0
  7  8  1  6  0  0  0
  7 12  1  0  0  0  0
  9 14  1  0  0  0  0
 10 11  1  1  0  0  0
 10 16  1  0  0  0  0
 12 13  1  1  0  0  0
 12 18  1  0  0  0  0
 13 35  1  0  0  0  0
 14 15  1  1  0  0  0
 14 20  1  0  0  0  0
 16 17  1  6  0  0  0
 16 21  1  0  0  0  0
 17 35  1  0  0  0  0
 18 19  1  6  0  0  0
 18 23  1  0  0  0  0
 20  2  1  1  0  0  0
 20 25  1  0  0  0  0
 21 22  1  6  0  0  0
 21 27  1  0  0  0  0
 23 24  1  0  0  0  0
 23 29  1  1  0  0  0
 25 26  1  1  0  0  0
 25 31  1  0  0  0  0
 27 28  1  0  0  0  0
 27 33  1  6  0  0  0
 29 30  1  0  0  0  0
 31 32  1  6  0  0  0
 33 34  1  0  0  0  0
M  END
>  <CHROM.1>
-162.03822259,-145.71383054,-82.64317543,54.56150140,177.96185812,-43.94397661
64.99688748,-178.83687216,4.03397978,-5.70498182,45.00745764,2.29441579,-0.03501644
-1.12989862

>  <Name>
2o3v_lig

>  <RI>
0

>  <Rbt.Current_Directory>
/home/afrankz/demos/rdock_decoys_rna/rnas/2o3v

>  <Rbt.Executable>
rbdock ($Id: //depot/dev/client3/rdock/2013.1/src/exe/rbdock.cxx#4 $)

>  <Rbt.Library>
libRbt.so (2013.1, Build901 2013/11/27)

>  <Rbt.Parameter_File>
/export/apps/rDock/src/rDock_2013.1_src/data/scripts/dock_solv.prm

>  <Rbt.Receptor>
prm/pocket_docking_8.prm

>  <SCORE>
-11.9765

>  <SCORE.INTER>
-12.388

>  <SCORE.INTER.CONST>
1

>  <SCORE.INTER.POLAR>
-2.68342

>  <SCORE.INTER.ROT>
8

>  <SCORE.INTER.SOLV>
16.32

>  <SCORE.INTER.VDW>
-13.6873

>  <SCORE.INTER.norm>
-0.353943

>  <SCORE.INTRA>
0.411485

>  <SCORE.INTRA.DIHEDRAL>
-3.49588

>  <SCORE.INTRA.DIHEDRAL.0>
13.1227

>  <SCORE.INTRA.POLAR>
0

>  <SCORE.INTRA.POLAR.0>
0

>  <SCORE.INTRA.REPUL>
0

>  <SCORE.INTRA.REPUL.0>
0

>  <SCORE.INTRA.SOLV>
2.655

>  <SCORE.INTRA.SOLV.lig_0>
-89.1587

>  <SCORE.INTRA.VDW>
0.831925

>  <SCORE.INTRA.VDW.0>
-0.838383

>  <SCORE.INTRA.norm>
0.0117567

>  <SCORE.RESTR>
0

>  <SCORE.RESTR.CAVITY>
0

>  <SCORE.RESTR.norm>
0

>  <SCORE.SYSTEM>
0

>  <SCORE.SYSTEM.CONST>
0

>  <SCORE.SYSTEM.DIHEDRAL>
0

>  <SCORE.SYSTEM.SOLV>
0

>  <SCORE.SYSTEM.norm>
0

>  <SCORE.heavy>
35

>  <SCORE.norm>
-0.342186

>  <RMSD>
9.265

$$$$
2o3v_lig
 OpenBabel02141814113D
libRbt.so/2013.1/901 2013/11/27
 35 37  0  0  0  0  0  0  0  0999 V2000
   -1.6418   -9.2428   45.0008 C   0  0  2  0  0  0  0  0  0  0  0  0
   -0.8799   -9.3963   46.2372 O   0  0  0  0  0  0  0  0  0  0  0  0
    1.4011  -12.6419   48.0233 C   0  0  2  0  0  0  0  0  0  0  0  0
    2.4710  -13.6610   48.2447 N   0  0  0  0  0  0  0  0  0  0  0  0
    6.6018   -4.7579   43.1308 C   0  0  2  0  0  0  0  0  0  0  0  0
    6.6727   -4.5300   44.5551 O   0  0  0  0  0  0  0  0  0  0  0  0
   -0.6411   -8.5032   44.0575 C   0  0  2  0  0  0  0  0  0  0  0  0
    0.6023   -9.2883   43.8738 N   0  0  0  0  0  0  0  0  0  0  0  0
    0.6632  -12.9154   46.6427 C   0  0  0  0  0  0  0  0  0  0  0  0
    5.0860   -4.7639   42.7297 C   0  0  2  0  0  0  0  0  0  0  0  0
    4.4280   -3.4897   43.1151 N   0  0  0  0  0  0  0  0  0  0  0  0
   -0.2844   -7.0536   44.6060 C   0  0  1  0  0  0  0  0  0  0  0  0
    0.7021   -6.3846   43.7184 O   0  0  0  0  0  0  0  0  0  0  0  0
   -0.4610  -11.8119   46.4261 C   0  0  2  0  0  0  0  0  0  0  0  0
   -1.1530  -12.0415   45.1397 N   0  0  0  0  0  0  0  0  0  0  0  0
    4.3155   -6.0007   43.3713 C   0  0  1  0  0  0  0  0  0  0  0  0
    2.9168   -6.0498   42.9893 O   0  0  0  0  0  0  0  0  0  0  0  0
   -1.6529   -6.2586   44.7759 C   0  0  2  0  0  0  0  0  0  0  0  0
   -1.4356   -4.9556   45.2867 O   0  0  0  0  0  0  0  0  0  0  0  0
    0.1903  -10.3679   46.4392 C   0  0  2  0  0  0  0  0  0  0  0  0
    5.0330   -7.3151   42.9282 C   0  0  2  0  0  0  0  0  0  0  0  0
    4.3959   -8.4510   43.4790 O   0  0  0  0  0  0  0  0  0  0  0  0
   -2.6370   -7.0466   45.7216 C   0  0  2  0  0  0  0  0  0  0  0  0
   -2.8596   -8.4074   45.1894 O   0  0  0  0  0  0  0  0  0  0  0  0
    0.9148  -10.1113   47.7903 C   0  0  2  0  0  0  0  0  0  0  0  0
    1.5199   -8.7887   47.7147 O   0  0  0  0  0  0  0  0  0  0  0  0
    6.5566   -7.2658   43.3469 C   0  0  2  0  0  0  0  0  0  0  0  0
    7.2092   -6.0678   42.7708 O   0  0  0  0  0  0  0  0  0  0  0  0
   -3.9740   -6.3224   45.8720 C   0  0  0  0  0  0  0  0  0  0  0  0
   -4.6265   -6.2002   44.6318 O   0  0  0  0  0  0  0  0  0  0  0  0
    2.0071  -11.1847   48.0066 C   0  0  1  0  0  0  0  0  0  0  0  0
    2.6450  -10.9326   49.2409 O   0  0  0  0  0  0  0  0  0  0  0  0
    7.3084   -8.5091   42.8965 C   0  0  0  0  0  0  0  0  0  0  0  0
    7.3583   -8.5708   41.4916 O   0  0  0  0  0  0  0  0  0  0  0  0
    2.1403   -6.7441   44.0092 C   0  0  0  0  0  0  0  0  0  0  0  0
  1  2  1  1  0  0  0
  1  7  1  0  0  0  0
  1 24  1  0  0  0  0
  3  4  1  6  0  0  0
  3  9  1  0  0  0  0
  3 31  1  0  0  0  0
  5  6  1  1  0  0  0
  5 10  1  0  0  0  0
  5 28  1  0  0  0  0
  7  8  1  1  0  0  0
  7 12  1  0  0  0  0
  9 14  1  0  0  0  0
 10 11  1  1  0  0  0
 10 16  1  0  0  0  0
 12 13  1  6  0  0  0
 12 18  1  0  0  0  0
 13 35  1  0  0  0  0
 14 15  1  6  0  0  0
 14 20  1  0  0  0  0
 16 17  1  6  0  0  0
 16 21  1  0  0  0  0
 17 35  1  0  0  0  0
 18 19  1  1  0  0  0
 18 23  1  0  0  0  0
 20  2  1  1  0  0  0
 20 25  1  0  0  0  0
 21 22  1  1  0  0  0
 21 27  1  0  0  0  0
 23 24  1  0  0  0  0
 23 29  1  6  0  0  0
 25 26  1  6  0  0  0
 25 31  1  0  0  0  0
 27 28  1  0  0  0  0
 27 33  1  6  0  0  0
 29 30  1  0  0  0  0
 31 32  1  1  0  0  0
 33 34  1  0  0  0  0
M  END
>  <CHROM.1>
-75.51825383,-84.49912848,176.79921089,-153.72793076,163.92731178,-67.54714978
61.36805105,65.42971200,1.75328655,-8.13173279,44.94314977,2.59417498,-0.16786010
2.63910437

>  <Name>
2o3v_lig

>  <RI>
0

>  <Rbt.Current_Directory>
/home/afrankz/demos/rdock_decoys_rna/rnas/2o3v

>  <Rbt.Executable>
rbdock ($Id: //depot/dev/client3/rdock/2013.1/src/exe/rbdock.cxx#4 $)

>  <Rbt.Library>
libRbt.so (2013.1, Build901 2013/11/27)

>  <Rbt.Parameter_File>
/export/apps/rDock/src/rDock_2013.1_src/data/scripts/dock_solv.prm

>  <Rbt.Receptor>
prm/pocket_docking_7.prm

>  <SCORE>
-10.8986

>  <SCORE.INTER>
-9.79108

>  <SCORE.INTER.CONST>
1

>  <SCORE.INTER.POLAR>
-0.684913

>  <SCORE.INTER.ROT>
8

>  <SCORE.INTER.SOLV>
15.321

>  <SCORE.INTER.VDW>
-18.2847

>  <SCORE.INTER.norm>
-0.279745

>  <SCORE.INTRA>
-1.10749

>  <SCORE.INTRA.DIHEDRAL>
-4.83373

>  <SCORE.INTRA.DIHEDRAL.0>
13.1227

>  <SCORE.INTRA.POLAR>
0

>  <SCORE.INTRA.POLAR.0>
0

>  <SCORE.INTRA.REPUL>
0.116303

>  <SCORE.INTRA.REPUL.0>
0

>  <SCORE.INTRA.SOLV>
3.83419

>  <SCORE.INTRA.SOLV.lig_0>
-89.1587

>  <SCORE.INTRA.VDW>
-1.18923

>  <SCORE.INTRA.VDW.0>
-0.838383

>  <SCORE.INTRA.norm>
-0.0316426

>  <SCORE.RESTR>
0

>  <SCORE.RESTR.CAVITY>
0

>  <SCORE.RESTR.norm>
0

>  <SCORE.SYSTEM>
0

>  <SCORE.SYSTEM.CONST>
0

>  <SCORE.SYSTEM.DIHEDRAL>
0

>  <SCORE.SYSTEM.SOLV>
0

>  <SCORE.SYSTEM.norm>
0

>  <SCORE.heavy>
35

>  <SCORE.norm>
-0.311388

>  <RMSD>
9.266

$$$$
2o3v_lig
 OpenBabel02141814113D
libRbt.so/2013.1/901 2013/11/27
 35 37  0  0  0  0  0  0  0  0999 V2000
    1.2795   -6.4470   43.5232 C   0  0  2  0  0  0  0  0  0  0  0  0
    0.5905   -5.6858   44.5618 O   0  0  0  0  0  0  0  0  0  0  0  0
   -3.4247   -5.0992   42.9930 C   0  0  2  0  0  0  0  0  0  0  0  0
   -4.8534   -4.6740   42.8928 N   0  0  0  0  0  0  0  0  0  0  0  0
    7.6459   -7.2620   50.4137 C   0  0  2  0  0  0  0  0  0  0  0  0
    7.5363   -5.9017   50.8859 O   0  0  0  0  0  0  0  0  0  0  0  0
    2.6592   -6.7719   44.1783 C   0  0  2  0  0  0  0  0  0  0  0  0
    2.4884   -7.5375   45.4356 N   0  0  0  0  0  0  0  0  0  0  0  0
   -3.2358   -6.0968   44.2154 C   0  0  0  0  0  0  0  0  0  0  0  0
    7.4914   -7.2328   48.8537 C   0  0  2  0  0  0  0  0  0  0  0  0
    8.5138   -6.3525   48.2335 N   0  0  0  0  0  0  0  0  0  0  0  0
    3.4955   -5.4497   44.4645 C   0  0  1  0  0  0  0  0  0  0  0  0
    4.7844   -5.7770   45.1277 O   0  0  0  0  0  0  0  0  0  0  0  0
   -1.7070   -6.5242   44.3067 C   0  0  2  0  0  0  0  0  0  0  0  0
   -1.5070   -7.4448   45.4464 N   0  0  0  0  0  0  0  0  0  0  0  0
    6.0298   -6.7753   48.4185 C   0  0  1  0  0  0  0  0  0  0  0  0
    5.8483   -6.7714   46.9792 O   0  0  0  0  0  0  0  0  0  0  0  0
    3.6514   -4.6762   43.0821 C   0  0  2  0  0  0  0  0  0  0  0  0
    4.3668   -3.4646   43.2437 O   0  0  0  0  0  0  0  0  0  0  0  0
   -0.7969   -5.2398   44.4836 C   0  0  2  0  0  0  0  0  0  0  0  0
    4.9923   -7.7359   49.0815 C   0  0  2  0  0  0  0  0  0  0  0  0
    3.6704   -7.3699   48.7375 O   0  0  0  0  0  0  0  0  0  0  0  0
    2.2380   -4.3825   42.4497 C   0  0  2  0  0  0  0  0  0  0  0  0
    1.4912   -5.6474   42.2853 O   0  0  0  0  0  0  0  0  0  0  0  0
   -0.9924   -4.2669   43.2871 C   0  0  2  0  0  0  0  0  0  0  0  0
   -0.1602   -3.0981   43.5366 O   0  0  0  0  0  0  0  0  0  0  0  0
    5.1854   -7.7389   50.6505 C   0  0  2  0  0  0  0  0  0  0  0  0
    6.5752   -8.1153   50.9964 O   0  0  0  0  0  0  0  0  0  0  0  0
    2.3607   -3.6728   41.1021 C   0  0  0  0  0  0  0  0  0  0  0  0
    1.0942   -3.3472   40.5836 O   0  0  0  0  0  0  0  0  0  0  0  0
   -2.4792   -3.8513   43.1924 C   0  0  1  0  0  0  0  0  0  0  0  0
   -2.6304   -2.9738   42.0964 O   0  0  0  0  0  0  0  0  0  0  0  0
    4.2231   -8.6958   51.3379 C   0  0  0  0  0  0  0  0  0  0  0  0
    4.3637   -8.6139   52.7356 O   0  0  0  0  0  0  0  0  0  0  0  0
    4.6788   -5.9781   46.6212 C   0  0  0  0  0  0  0  0  0  0  0  0
  1  2  1  1  0  0  0
  1  7  1  0  0  0  0
  1 24  1  0  0  0  0
  3  4  1  1  0  0  0
  3  9  1  0  0  0  0
  3 31  1  0  0  0  0
  5  6  1  1  0  0  0
  5 10  1  0  0  0  0
  5 28  1  0  0  0  0
  7  8  1  1  0  0  0
  7 12  1  0  0  0  0
  9 14  1  0  0  0  0
 10 11  1  6  0  0  0
 10 16  1  0  0  0  0
 12 13  1  6  0  0  0
 12 18  1  0  0  0  0
 13 35  1  0  0  0  0
 14 15  1  1  0  0  0
 14 20  1  0  0  0  0
 16 17  1  6  0  0  0
 16 21  1  0  0  0  0
 17 35  1  0  0  0  0
 18 19  1  1  0  0  0
 18 23  1  0  0  0  0
 20  2  1  6  0  0  0
 20 25  1  0  0  0  0
 21 22  1  1  0  0  0
 21 27  1  0  0  0  0
 23 24  1  0  0  0  0
 23 29  1  6  0  0  0
 25 26  1  1  0  0  0
 25 31  1  0  0  0  0
 27 28  1  0  0  0  0
 27 33  1  1  0  0  0
 29 30  1  0  0  0  0
 31 32  1  6  0  0  0
 33 34  1  0  0  0  0
M  END
>  <CHROM.1>
-174.51259677,-82.30168825,158.39224803,-162.71491825,166.94736627,58.90404669
-176.60566241,-176.37350271,2.47737951,-5.88687008,45.74383808,-2.34559782
0.09889114,2.04343537

>  <Name>
2o3v_lig

>  <RI>
0

>  <Rbt.Current_Directory>
/home/afrankz/demos/rdock_decoys_rna/rnas/2o3v

>  <Rbt.Executable>
rbdock ($Id: //depot/dev/client3/rdock/2013.1/src/exe/rbdock.cxx#4 $)

>  <Rbt.Library>
libRbt.so (2013.1, Build901 2013/11/27)

>  <Rbt.Parameter_File>
/export/apps/rDock/src/rDock_2013.1_src/data/scripts/dock_solv.prm

>  <Rbt.Receptor>
prm/pocket_docking_7.prm

>  <SCORE>
-15.0146

>  <SCORE.INTER>
-11.4939

>  <SCORE.INTER.CONST>
1

>  <SCORE.INTER.POLAR>
-1.87649

>  <SCORE.INTER.ROT>
8

>  <SCORE.INTER.SOLV>
7.95858

>  <SCORE.INTER.VDW>
-12.9938

>  <SCORE.INTER.norm>
-0.328398

>  <SCORE.INTRA>
-3.52073

>  <SCORE.INTRA.DIHEDRAL>
-6.38833

>  <SCORE.INTRA.DIHEDRAL.0>
13.1227

>  <SCORE.INTRA.POLAR>
0

>  <SCORE.INTRA.POLAR.0>
0

>  <SCORE.INTRA.REPUL>
0.0398642

>  <SCORE.INTRA.REPUL.0>
0

>  <SCORE.INTRA.SOLV>
1.64371

>  <SCORE.INTRA.SOLV.lig_0>
-89.1587

>  <SCORE.INTRA.VDW>
-1.34774

>  <SCORE.INTRA.VDW.0>
-0.838383

>  <SCORE.INTRA.norm>
-0.100592

>  <SCORE.RESTR>
0

>  <SCORE.RESTR.CAVITY>
0

>  <SCORE.RESTR.norm>
0

>  <SCORE.SYSTEM>
0

>  <SCORE.SYSTEM.CONST>
0

>  <SCORE.SYSTEM.DIHEDRAL>
0

>  <SCORE.SYSTEM.SOLV>
0

>  <SCORE.SYSTEM.norm>
0

>  <SCORE.heavy>
35

>  <SCORE.norm>
-0.42899

>  <RMSD>
9.316

$$$$
2o3v_lig
 OpenBabel02141814113D
libRbt.so/2013.1/901 2013/11/27
 35 37  0  0  0  0  0  0  0  0999 V2000
    0.3941  -10.4366   47.3930 C   0  0  2  0  0  0  0  0  0  0  0  0
   -0.6789  -10.4608   48.3834 O   0  0  0  0  0  0  0  0  0  0  0  0
   -1.8959  -12.9181   51.7609 C   0  0  2  0  0  0  0  0  0  0  0  0
   -2.3297  -14.1024   52.5619 N   0  0  0  0  0  0  0  0  0  0  0  0
    4.3459   -4.1740   44.1707 C   0  0  2  0  0  0  0  0  0  0  0  0
    4.3529   -5.0141   42.9961 O   0  0  0  0  0  0  0  0  0  0  0  0
    0.5905   -8.9116   47.1207 C   0  0  2  0  0  0  0  0  0  0  0  0
    0.9388   -8.1855   48.3649 N   0  0  0  0  0  0  0  0  0  0  0  0
   -2.9795  -12.5851   50.6471 C   0  0  0  0  0  0  0  0  0  0  0  0
    3.2317   -4.7166   45.1311 C   0  0  2  0  0  0  0  0  0  0  0  0
    3.4731   -6.1406   45.4762 N   0  0  0  0  0  0  0  0  0  0  0  0
   -0.7061   -8.2636   46.4663 C   0  0  1  0  0  0  0  0  0  0  0  0
   -0.5151   -6.8049   46.2563 O   0  0  0  0  0  0  0  0  0  0  0  0
   -2.4888  -11.3302   49.8028 C   0  0  2  0  0  0  0  0  0  0  0  0
   -3.4787  -11.0103   48.7520 N   0  0  0  0  0  0  0  0  0  0  0  0
    1.7796   -4.5379   44.5033 C   0  0  1  0  0  0  0  0  0  0  0  0
    0.7257   -5.0016   45.3858 O   0  0  0  0  0  0  0  0  0  0  0  0
   -1.0258   -9.0775   45.1362 C   0  0  2  0  0  0  0  0  0  0  0  0
   -2.1871   -8.5842   44.4929 O   0  0  0  0  0  0  0  0  0  0  0  0
   -1.0820  -11.6396   49.1438 C   0  0  2  0  0  0  0  0  0  0  0  0
    1.5664   -3.0271   44.1705 C   0  0  2  0  0  0  0  0  0  0  0  0
    0.2920   -2.8088   43.5979 O   0  0  0  0  0  0  0  0  0  0  0  0
   -1.2010  -10.6110   45.4544 C   0  0  2  0  0  0  0  0  0  0  0  0
    0.0101  -11.1234   46.1291 O   0  0  0  0  0  0  0  0  0  0  0  0
   -0.0301  -11.9702   50.2394 C   0  0  2  0  0  0  0  0  0  0  0  0
    1.2207  -12.2814   49.5614 O   0  0  0  0  0  0  0  0  0  0  0  0
    2.7115   -2.5202   43.2056 C   0  0  2  0  0  0  0  0  0  0  0  0
    4.0400   -2.7623   43.8132 O   0  0  0  0  0  0  0  0  0  0  0  0
   -1.4722  -11.4214   44.1877 C   0  0  0  0  0  0  0  0  0  0  0  0
   -2.8333  -11.3722   43.8361 O   0  0  0  0  0  0  0  0  0  0  0  0
   -0.5051  -13.1884   51.0656 C   0  0  1  0  0  0  0  0  0  0  0  0
    0.4636  -13.4638   52.0554 O   0  0  0  0  0  0  0  0  0  0  0  0
    2.5701   -1.0393   42.8877 C   0  0  0  0  0  0  0  0  0  0  0  0
    2.5809   -0.2796   44.0720 O   0  0  0  0  0  0  0  0  0  0  0  0
    0.6387   -6.4563   45.3455 C   0  0  0  0  0  0  0  0  0  0  0  0
  1  2  1  1  0  0  0
  1  7  1  0  0  0  0
  1 24  1  0  0  0  0
  3  4  1  6  0  0  0
  3  9  1  0  0  0  0
  3 31  1  0  0  0  0
  5  6  1  6  0  0  0
  5 10  1  0  0  0  0
  5 28  1  0  0  0  0
  7  8  1  1  0  0  0
  7 12  1  0  0  0  0
  9 14  1  0  0  0  0
 10 11  1  6  0  0  0
 10 16  1  0  0  0  0
 12 13  1  6  0  0  0
 12 18  1  0  0  0  0
 13 35  1  0  0  0  0
 14 15  1  6  0  0  0
 14 20  1  0  0  0  0
 16 17  1  1  0  0  0
 16 21  1  0  0  0  0
 17 35  1  0  0  0  0
 18 19  1  1  0  0  0
 18 23  1  0  0  0  0
 20  2  1  1  0  0  0
 20 25  1  0  0  0  0
 21 22  1  6  0  0  0
 21 27  1  0  0  0  0
 23 24  1  0  0  0  0
 23 29  1  6  0  0  0
 25 26  1  6  0  0  0
 25 31  1  0  0  0  0
 27 28  1  0  0  0  0
 27 33  1  1  0  0  0
 29 30  1  0  0  0  0
 31 32  1  1  0  0  0
 33 34  1  0  0  0  0
M  END
>  <CHROM.1>
-168.75728517,60.10363044,-174.55312959,-77.97224709,-177.98882385,-165.53757392
-82.73643891,57.67447175,0.31348332,-8.19194651,46.62605590,-2.02707060,-0.71477677
-0.88693818

>  <Name>
2o3v_lig

>  <RI>
0

>  <Rbt.Current_Directory>
/home/afrankz/demos/rdock_decoys_rna/rnas/2o3v

>  <Rbt.Executable>
rbdock ($Id: //depot/dev/client3/rdock/2013.1/src/exe/rbdock.cxx#4 $)

>  <Rbt.Library>
libRbt.so (2013.1, Build901 2013/11/27)

>  <Rbt.Parameter_File>
/export/apps/rDock/src/rDock_2013.1_src/data/scripts/dock_solv.prm

>  <Rbt.Receptor>
prm/pocket_docking_7.prm

>  <SCORE>
-13.6981

>  <SCORE.INTER>
-8.81824

>  <SCORE.INTER.CONST>
1

>  <SCORE.INTER.POLAR>
-0.959166

>  <SCORE.INTER.ROT>
8

>  <SCORE.INTER.SOLV>
6.60418

>  <SCORE.INTER.VDW>
-13.8163

>  <SCORE.INTER.norm>
-0.25195

>  <SCORE.INTRA>
-4.88226

>  <SCORE.INTRA.DIHEDRAL>
-8.18155

>  <SCORE.INTRA.DIHEDRAL.0>
13.1227

>  <SCORE.INTRA.POLAR>
0

>  <SCORE.INTRA.POLAR.0>
0

>  <SCORE.INTRA.REPUL>
0

>  <SCORE.INTRA.REPUL.0>
0

>  <SCORE.INTRA.SOLV>
0.594819

>  <SCORE.INTRA.SOLV.lig_0>
-89.1587

>  <SCORE.INTRA.VDW>
-1.08889

>  <SCORE.INTRA.VDW.0>
-0.838383

>  <SCORE.INTRA.norm>
-0.139493

>  <SCORE.RESTR>
0.00242047

>  <SCORE.RESTR.CAVITY>
0.00242047

>  <SCORE.RESTR.norm>
6.91562e-05

>  <SCORE.SYSTEM>
0

>  <SCORE.SYSTEM.CONST>
0

>  <SCORE.SYSTEM.DIHEDRAL>
0

>  <SCORE.SYSTEM.SOLV>
0

>  <SCORE.SYSTEM.norm>
0

>  <SCORE.heavy>
35

>  <SCORE.norm>
-0.391374

>  <RMSD>
9.322

$$$$
2o3v_lig
 OpenBabel02141814113D
libRbt.so/2013.1/901 2013/11/27
 35 37  0  0  0  0  0  0  0  0999 V2000
   -0.7192   -7.4317   45.6107 C   0  0  2  0  0  0  0  0  0  0  0  0
   -1.6422   -8.3501   46.2721 O   0  0  0  0  0  0  0  0  0  0  0  0
   -5.9373   -8.1090   46.9211 C   0  0  2  0  0  0  0  0  0  0  0  0
   -7.2566   -7.7461   47.5211 N   0  0  0  0  0  0  0  0  0  0  0  0
    6.5640   -6.3223   43.4493 C   0  0  2  0  0  0  0  0  0  0  0  0
    6.2825   -6.7378   42.0952 O   0  0  0  0  0  0  0  0  0  0  0  0
    0.3617   -8.3861   45.0115 C   0  0  2  0  0  0  0  0  0  0  0  0
   -0.2452   -9.3640   44.0779 N   0  0  0  0  0  0  0  0  0  0  0  0
   -5.0651   -8.9231   47.9708 C   0  0  0  0  0  0  0  0  0  0  0  0
    6.0148   -7.4354   44.4073 C   0  0  2  0  0  0  0  0  0  0  0  0
    6.6266   -8.7528   44.0990 N   0  0  0  0  0  0  0  0  0  0  0  0
    1.1578   -9.1563   46.1528 C   0  0  1  0  0  0  0  0  0  0  0  0
    2.1500  -10.0912   45.5613 O   0  0  0  0  0  0  0  0  0  0  0  0
   -3.6640   -9.2864   47.3124 C   0  0  2  0  0  0  0  0  0  0  0  0
   -2.8312  -10.0352   48.2779 N   0  0  0  0  0  0  0  0  0  0  0  0
    4.4271   -7.5336   44.3412 C   0  0  1  0  0  0  0  0  0  0  0  0
    3.8887   -8.5341   45.2434 O   0  0  0  0  0  0  0  0  0  0  0  0
    1.7900   -8.0585   47.1164 C   0  0  2  0  0  0  0  0  0  0  0  0
    2.5026   -8.6551   48.1851 O   0  0  0  0  0  0  0  0  0  0  0  0
   -2.9170   -7.9622   46.8676 C   0  0  2  0  0  0  0  0  0  0  0  0
    3.8294   -6.1325   44.6852 C   0  0  2  0  0  0  0  0  0  0  0  0
    2.4166   -6.1568   44.6316 O   0  0  0  0  0  0  0  0  0  0  0  0
    0.6680   -7.1094   47.6856 C   0  0  2  0  0  0  0  0  0  0  0  0
   -0.0772   -6.4906   46.5692 O   0  0  0  0  0  0  0  0  0  0  0  0
   -3.7795   -7.1693   45.8460 C   0  0  2  0  0  0  0  0  0  0  0  0
   -3.0517   -5.9521   45.5148 O   0  0  0  0  0  0  0  0  0  0  0  0
    4.4115   -5.0410   43.7008 C   0  0  2  0  0  0  0  0  0  0  0  0
    5.8911   -5.0321   43.7606 O   0  0  0  0  0  0  0  0  0  0  0  0
    1.2534   -6.0220   48.5854 C   0  0  0  0  0  0  0  0  0  0  0  0
    2.4044   -5.4534   48.0101 O   0  0  0  0  0  0  0  0  0  0  0  0
   -5.1449   -6.8169   46.4812 C   0  0  1  0  0  0  0  0  0  0  0  0
   -5.9097   -6.1032   45.5326 O   0  0  0  0  0  0  0  0  0  0  0  0
    3.8902   -3.6494   44.0258 C   0  0  0  0  0  0  0  0  0  0  0  0
    2.4888   -3.6096   43.9057 O   0  0  0  0  0  0  0  0  0  0  0  0
    3.0401   -9.4671   44.5123 C   0  0  0  0  0  0  0  0  0  0  0  0
  1  2  1  1  0  0  0
  1  7  1  0  0  0  0
  1 24  1  0  0  0  0
  3  4  1  1  0  0  0
  3  9  1  0  0  0  0
  3 31  1  0  0  0  0
  5  6  1  6  0  0  0
  5 10  1  0  0  0  0
  5 28  1  0  0  0  0
  7  8  1  6  0  0  0
  7 12  1  0  0  0  0
  9 14  1  0  0  0  0
 10 11  1  6  0  0  0
 10 16  1  0  0  0  0
 12 13  1  6  0  0  0
 12 18  1  0  0  0  0
 13 35  1  0  0  0  0
 14 15  1  1  0  0  0
 14 20  1  0  0  0  0
 16 17  1  1  0  0  0
 16 21  1  0  0  0  0
 17 35  1  0  0  0  0
 18 19  1  1  0  0  0
 18 23  1  0  0  0  0
 20  2  1  6  0  0  0
 20 25  1  0  0  0  0
 21 22  1  6  0  0  0
 21 27  1  0  0  0  0
 23 24  1  0  0  0  0
 23 29  1  6  0  0  0
 25 26  1  1  0  0  0
 25 31  1  0  0  0  0
 27 28  1  0  0  0  0
 27 33  1  1  0  0  0
 29 30  1  0  0  0  0
 31 32  1  6  0  0  0
 33 34  1  0  0  0  0
M  END
>  <CHROM.1>
-172.93118699,50.02524622,68.71551130,-125.87787466,-158.94059723,173.28818446
44.40275595,-60.82548929,0.72339472,-7.31364043,45.69983894,2.92256656,-0.21395851
2.75904080

>  <Name>
2o3v_lig

>  <RI>
0

>  <Rbt.Current_Directory>
/home/afrankz/demos/rdock_decoys_rna/rnas/2o3v

>  <Rbt.Executable>
rbdock ($Id: //depot/dev/client3/rdock/2013.1/src/exe/rbdock.cxx#4 $)

>  <Rbt.Library>
libRbt.so (2013.1, Build901 2013/11/27)

>  <Rbt.Parameter_File>
/export/apps/rDock/src/rDock_2013.1_src/data/scripts/dock_solv.prm

>  <Rbt.Receptor>
prm/pocket_docking_2.prm

>  <SCORE>
-3.79043

>  <SCORE.INTER>
-1.38495

>  <SCORE.INTER.CONST>
1

>  <SCORE.INTER.POLAR>
0

>  <SCORE.INTER.ROT>
8

>  <SCORE.INTER.SOLV>
8.30234

>  <SCORE.INTER.VDW>
-12.6241

>  <SCORE.INTER.norm>
-0.03957

>  <SCORE.INTRA>
-2.55785

>  <SCORE.INTRA.DIHEDRAL>
-1.94088

>  <SCORE.INTRA.DIHEDRAL.0>
13.1227

>  <SCORE.INTRA.POLAR>
0

>  <SCORE.INTRA.POLAR.0>
0

>  <SCORE.INTRA.REPUL>
0

>  <SCORE.INTRA.REPUL.0>
0

>  <SCORE.INTRA.SOLV>
1.32237

>  <SCORE.INTRA.SOLV.lig_0>
-89.1587

>  <SCORE.INTRA.VDW>
-2.24859

>  <SCORE.INTRA.VDW.0>
-0.838383

>  <SCORE.INTRA.norm>
-0.0730814

>  <SCORE.RESTR>
0.152366

>  <SCORE.RESTR.CAVITY>
0.152366

>  <SCORE.RESTR.norm>
0.00435331

>  <SCORE.SYSTEM>
0

>  <SCORE.SYSTEM.CONST>
0

>  <SCORE.SYSTEM.DIHEDRAL>
0

>  <SCORE.SYSTEM.SOLV>
0

>  <SCORE.SYSTEM.norm>
0

>  <SCORE.heavy>
35

>  <SCORE.norm>
-0.108298

>  <RMSD>
9.343

$$$$
2o3v_lig
 OpenBabel02141814113D
libRbt.so/2013.1/901 2013/11/27
 35 37  0  0  0  0  0  0  0  0999 V2000
   -0.7915   -3.1644   44.1648 C   0  0  2  0  0  0  0  0  0  0  0  0
   -1.4841   -2.9539   42.8964 O   0  0  0  0  0  0  0  0  0  0  0  0
   -4.6861   -0.1701   43.8577 C   0  0  2  0  0  0  0  0  0  0  0  0
   -5.8497    0.7534   43.6982 N   0  0  0  0  0  0  0  0  0  0  0  0
    5.7474   -9.7221   45.0376 C   0  0  2  0  0  0  0  0  0  0  0  0
    6.0391   -8.7898   46.1012 O   0  0  0  0  0  0  0  0  0  0  0  0
    0.3573   -4.1503   43.7818 C   0  0  2  0  0  0  0  0  0  0  0  0
    1.2339   -3.5715   42.7363 N   0  0  0  0  0  0  0  0  0  0  0  0
   -3.4387    0.3761   43.0386 C   0  0  0  0  0  0  0  0  0  0  0  0
    4.9666   -8.9391   43.9260 C   0  0  2  0  0  0  0  0  0  0  0  0
    5.7546   -7.7790   43.4382 N   0  0  0  0  0  0  0  0  0  0  0  0
   -0.2146   -5.5499   43.2882 C   0  0  1  0  0  0  0  0  0  0  0  0
    0.8919   -6.4571   42.8870 O   0  0  0  0  0  0  0  0  0  0  0  0
   -2.2196   -0.6294   43.2155 C   0  0  2  0  0  0  0  0  0  0  0  0
   -1.0504   -0.1451   42.4507 N   0  0  0  0  0  0  0  0  0  0  0  0
    3.5380   -8.4606   44.4408 C   0  0  1  0  0  0  0  0  0  0  0  0
    2.7792   -7.7616   43.4209 O   0  0  0  0  0  0  0  0  0  0  0  0
   -1.1390   -6.1231   44.4504 C   0  0  2  0  0  0  0  0  0  0  0  0
   -1.7164   -7.3648   44.0888 O   0  0  0  0  0  0  0  0  0  0  0  0
   -2.6336   -2.0735   42.7129 C   0  0  2  0  0  0  0  0  0  0  0  0
    2.7426   -9.7125   44.9292 C   0  0  2  0  0  0  0  0  0  0  0  0
    1.4643   -9.3455   45.4096 O   0  0  0  0  0  0  0  0  0  0  0  0
   -2.2734   -5.0917   44.8150 C   0  0  2  0  0  0  0  0  0  0  0  0
   -1.6695   -3.7954   45.1883 O   0  0  0  0  0  0  0  0  0  0  0  0
   -3.8578   -2.5972   43.5149 C   0  0  2  0  0  0  0  0  0  0  0  0
   -4.2047   -3.9043   42.9744 O   0  0  0  0  0  0  0  0  0  0  0  0
    3.5656  -10.4739   46.0437 C   0  0  2  0  0  0  0  0  0  0  0  0
    4.9043  -10.8447   45.5306 O   0  0  0  0  0  0  0  0  0  0  0  0
   -3.1535   -5.6023   45.9549 C   0  0  0  0  0  0  0  0  0  0  0  0
   -3.8499   -6.7644   45.5761 O   0  0  0  0  0  0  0  0  0  0  0  0
   -5.0451   -1.6202   43.3485 C   0  0  1  0  0  0  0  0  0  0  0  0
   -6.1402   -2.1152   44.0899 O   0  0  0  0  0  0  0  0  0  0  0  0
    2.8485  -11.7280   46.5202 C   0  0  0  0  0  0  0  0  0  0  0  0
    3.5769  -12.3481   47.5521 O   0  0  0  0  0  0  0  0  0  0  0  0
    1.7430   -6.9420   44.0371 C   0  0  0  0  0  0  0  0  0  0  0  0
  1  2  1  6  0  0  0
  1  7  1  0  0  0  0
  1 24  1  0  0  0  0
  3  4  1  6  0  0  0
  3  9  1  0  0  0  0
  3 31  1  0  0  0  0
  5  6  1  1  0  0  0
  5 10  1  0  0  0  0
  5 28  1  0  0  0  0
  7  8  1  6  0  0  0
  7 12  1  0  0  0  0
  9 14  1  0  0  0  0
 10 11  1  1  0  0  0
 10 16  1  0  0  0  0
 12 13  1  1  0  0  0
 12 18  1  0  0  0  0
 13 35  1  0  0  0  0
 14 15  1  6  0  0  0
 14 20  1  0  0  0  0
 16 17  1  6  0  0  0
 16 21  1  0  0  0  0
 17 35  1  0  0  0  0
 18 19  1  6  0  0  0
 18 23  1  0  0  0  0
 20  2  1  1  0  0  0
 20 25  1  0  0  0  0
 21 22  1  1  0  0  0
 21 27  1  0  0  0  0
 23 24  1  0  0  0  0
 23 29  1  1  0  0  0
 25 26  1  6  0  0  0
 25 31  1  0  0  0  0
 27 28  1  0  0  0  0
 27 33  1  6  0  0  0
 29 30  1  0  0  0  0
 31 32  1  1  0  0  0
 33 34  1  0  0  0  0
M  END
>  <CHROM.1>
-178.55032014,69.33163104,-177.91320923,-159.35681442,-170.92618492,55.68178175
-64.06090383,-177.35691141,-0.08544250,-5.65950709,44.28358872,-2.34407229
-0.21593028,2.71906583

>  <Name>
2o3v_lig

>  <RI>
0

>  <Rbt.Current_Directory>
/home/afrankz/demos/rdock_decoys_rna/rnas/2o3v

>  <Rbt.Executable>
rbdock ($Id: //depot/dev/client3/rdock/2013.1/src/exe/rbdock.cxx#4 $)

>  <Rbt.Library>
libRbt.so (2013.1, Build901 2013/11/27)

>  <Rbt.Parameter_File>
/export/apps/rDock/src/rDock_2013.1_src/data/scripts/dock_solv.prm

>  <Rbt.Receptor>
prm/pocket_docking_8.prm

>  <SCORE>
-13.1424

>  <SCORE.INTER>
-7.28773

>  <SCORE.INTER.CONST>
1

>  <SCORE.INTER.POLAR>
-0.849594

>  <SCORE.INTER.ROT>
8

>  <SCORE.INTER.SOLV>
7.8735

>  <SCORE.INTER.VDW>
-13.5843

>  <SCORE.INTER.norm>
-0.208221

>  <SCORE.INTRA>
-5.85466

>  <SCORE.INTRA.DIHEDRAL>
-10.1409

>  <SCORE.INTRA.DIHEDRAL.0>
13.1227

>  <SCORE.INTRA.POLAR>
0

>  <SCORE.INTRA.POLAR.0>
0

>  <SCORE.INTRA.REPUL>
0

>  <SCORE.INTRA.REPUL.0>
0

>  <SCORE.INTRA.SOLV>
0.33943

>  <SCORE.INTRA.SOLV.lig_0>
-89.1587

>  <SCORE.INTRA.VDW>
-0.953906

>  <SCORE.INTRA.VDW.0>
-0.838383

>  <SCORE.INTRA.norm>
-0.167276

>  <SCORE.RESTR>
0

>  <SCORE.RESTR.CAVITY>
0

>  <SCORE.RESTR.norm>
0

>  <SCORE.SYSTEM>
0

>  <SCORE.SYSTEM.CONST>
0

>  <SCORE.SYSTEM.DIHEDRAL>
0

>  <SCORE.SYSTEM.SOLV>
0

>  <SCORE.SYSTEM.norm>
0

>  <SCORE.heavy>
35

>  <SCORE.norm>
-0.375497

>  <RMSD>
9.407

$$$$
2o3v_lig
 OpenBabel02141814113D
libRbt.so/2013.1/901 2013/11/27
 35 37  0  0  0  0  0  0  0  0999 V2000
   -1.8696   -6.5861   46.4262 C   0  0  2  0  0  0  0  0  0  0  0  0
   -2.7962   -7.4935   47.0976 O   0  0  0  0  0  0  0  0  0  0  0  0
   -7.0982   -8.1157   46.9181 C   0  0  2  0  0  0  0  0  0  0  0  0
   -8.4511   -8.4865   46.4039 N   0  0  0  0  0  0  0  0  0  0  0  0
    5.7738   -7.4137   43.8771 C   0  0  2  0  0  0  0  0  0  0  0  0
    5.7796   -7.5197   42.4369 O   0  0  0  0  0  0  0  0  0  0  0  0
   -1.3273   -7.4464   45.2412 C   0  0  2  0  0  0  0  0  0  0  0  0
   -2.4292   -7.8997   44.3599 N   0  0  0  0  0  0  0  0  0  0  0  0
   -6.4691   -6.9649   46.0208 C   0  0  0  0  0  0  0  0  0  0  0  0
    4.7293   -8.4487   44.4213 C   0  0  2  0  0  0  0  0  0  0  0  0
    5.0605   -9.8252   43.9737 N   0  0  0  0  0  0  0  0  0  0  0  0
   -0.5041   -8.7039   45.7613 C   0  0  1  0  0  0  0  0  0  0  0  0
   -0.0352   -9.5327   44.6205 O   0  0  0  0  0  0  0  0  0  0  0  0
   -5.0272   -6.5977   46.5814 C   0  0  2  0  0  0  0  0  0  0  0  0
   -4.4185   -5.5352   45.7525 N   0  0  0  0  0  0  0  0  0  0  0  0
    3.2459   -8.0672   43.9865 C   0  0  1  0  0  0  0  0  0  0  0  0
    2.2543   -8.9906   44.5049 O   0  0  0  0  0  0  0  0  0  0  0  0
    0.6644   -8.1559   46.6930 C   0  0  2  0  0  0  0  0  0  0  0  0
    1.4415   -9.2132   47.2260 O   0  0  0  0  0  0  0  0  0  0  0  0
   -4.1023   -7.8837   46.5761 C   0  0  2  0  0  0  0  0  0  0  0  0
    2.9387   -6.6212   44.4897 C   0  0  2  0  0  0  0  0  0  0  0  0
    1.6328   -6.2229   44.1216 O   0  0  0  0  0  0  0  0  0  0  0  0
    0.0746   -7.2822   47.8646 C   0  0  2  0  0  0  0  0  0  0  0  0
   -0.7393   -6.1817   47.3068 O   0  0  0  0  0  0  0  0  0  0  0  0
   -4.7279   -9.0060   47.4508 C   0  0  2  0  0  0  0  0  0  0  0  0
   -3.8485  -10.1639   47.3666 O   0  0  0  0  0  0  0  0  0  0  0  0
    4.0157   -5.6123   43.9228 C   0  0  2  0  0  0  0  0  0  0  0  0
    5.3783   -6.0455   44.3082 O   0  0  0  0  0  0  0  0  0  0  0  0
    1.1793   -6.7126   48.7533 C   0  0  0  0  0  0  0  0  0  0  0  0
    2.0970   -5.9578   48.0002 O   0  0  0  0  0  0  0  0  0  0  0  0
   -6.1324   -9.3640   46.9110 C   0  0  1  0  0  0  0  0  0  0  0  0
   -6.6799  -10.3798   47.7249 O   0  0  0  0  0  0  0  0  0  0  0  0
    3.7824   -4.1947   44.4227 C   0  0  0  0  0  0  0  0  0  0  0  0
    4.6763   -3.3021   43.8029 O   0  0  0  0  0  0  0  0  0  0  0  0
    1.0091   -8.8642   43.7574 C   0  0  0  0  0  0  0  0  0  0  0  0
  1  2  1  1  0  0  0
  1  7  1  0  0  0  0
  1 24  1  0  0  0  0
  3  4  1  6  0  0  0
  3  9  1  0  0  0  0
  3 31  1  0  0  0  0
  5  6  1  6  0  0  0
  5 10  1  0  0  0  0
  5 28  1  0  0  0  0
  7  8  1  1  0  0  0
  7 12  1  0  0  0  0
  9 14  1  0  0  0  0
 10 11  1  6  0  0  0
 10 16  1  0  0  0  0
 12 13  1  6  0  0  0
 12 18  1  0  0  0  0
 13 35  1  0  0  0  0
 14 15  1  6  0  0  0
 14 20  1  0  0  0  0
 16 17  1  1  0  0  0
 16 21  1  0  0  0  0
 17 35  1  0  0  0  0
 18 19  1  1  0  0  0
 18 23  1  0  0  0  0
 20  2  1  1  0  0  0
 20 25  1  0  0  0  0
 21 22  1  6  0  0  0
 21 27  1  0  0  0  0
 23 24  1  0  0  0  0
 23 29  1  6  0  0  0
 25 26  1  6  0  0  0
 25 31  1  0  0  0  0
 27 28  1  0  0  0  0
 27 33  1  1  0  0  0
 29 30  1  0  0  0  0
 31 32  1  1  0  0  0
 33 34  1  0  0  0  0
M  END
>  <CHROM.1>
-72.78300193,67.70511917,78.08081507,-161.98541751,-163.43232326,-67.01366850
56.59837446,-174.43223430,-0.25131177,-7.56257921,45.68555026,3.01196739
-0.26736082,-3.06642632

>  <Name>
2o3v_lig

>  <RI>
0

>  <Rbt.Current_Directory>
/home/afrankz/demos/rdock_decoys_rna/rnas/2o3v

>  <Rbt.Executable>
rbdock ($Id: //depot/dev/client3/rdock/2013.1/src/exe/rbdock.cxx#4 $)

>  <Rbt.Library>
libRbt.so (2013.1, Build901 2013/11/27)

>  <Rbt.Parameter_File>
/export/apps/rDock/src/rDock_2013.1_src/data/scripts/dock_solv.prm

>  <Rbt.Receptor>
prm/pocket_docking_2.prm

>  <SCORE>
-9.27394

>  <SCORE.INTER>
-7.37523

>  <SCORE.INTER.CONST>
1

>  <SCORE.INTER.POLAR>
-0.959166

>  <SCORE.INTER.ROT>
8

>  <SCORE.INTER.SOLV>
12.3944

>  <SCORE.INTER.VDW>
-14.7844

>  <SCORE.INTER.norm>
-0.210721

>  <SCORE.INTRA>
-2.547

>  <SCORE.INTRA.DIHEDRAL>
-7.36233

>  <SCORE.INTRA.DIHEDRAL.0>
13.1227

>  <SCORE.INTRA.POLAR>
0

>  <SCORE.INTRA.POLAR.0>
0

>  <SCORE.INTRA.REPUL>
0

>  <SCORE.INTRA.REPUL.0>
0

>  <SCORE.INTRA.SOLV>
4.70135

>  <SCORE.INTRA.SOLV.lig_0>
-89.1587

>  <SCORE.INTRA.VDW>
-1.21651

>  <SCORE.INTRA.VDW.0>
-0.838383

>  <SCORE.INTRA.norm>
-0.0727713

>  <SCORE.RESTR>
0.648287

>  <SCORE.RESTR.CAVITY>
0.648287

>  <SCORE.RESTR.norm>
0.0185225

>  <SCORE.SYSTEM>
0

>  <SCORE.SYSTEM.CONST>
0

>  <SCORE.SYSTEM.DIHEDRAL>
0

>  <SCORE.SYSTEM.SOLV>
0

>  <SCORE.SYSTEM.norm>
0

>  <SCORE.heavy>
35

>  <SCORE.norm>
-0.26497

>  <RMSD>
9.430

$$$$
2o3v_lig
 OpenBabel02141814113D
libRbt.so/2013.1/901 2013/11/27
 35 37  0  0  0  0  0  0  0  0999 V2000
   -1.1009   -7.8160   45.9670 C   0  0  2  0  0  0  0  0  0  0  0  0
   -1.7563   -8.9444   45.3113 O   0  0  0  0  0  0  0  0  0  0  0  0
   -3.1371  -11.4505   48.5885 C   0  0  2  0  0  0  0  0  0  0  0  0
   -3.7770  -12.5779   49.3314 N   0  0  0  0  0  0  0  0  0  0  0  0
    3.0723   -1.2479   42.8521 C   0  0  2  0  0  0  0  0  0  0  0  0
    4.2407   -1.9098   43.3832 O   0  0  0  0  0  0  0  0  0  0  0  0
   -0.8180   -6.8352   44.7854 C   0  0  2  0  0  0  0  0  0  0  0  0
   -2.0723   -6.4510   44.0959 N   0  0  0  0  0  0  0  0  0  0  0  0
   -4.2251  -10.6766   47.7268 C   0  0  0  0  0  0  0  0  0  0  0  0
    1.9045   -2.2941   42.8370 C   0  0  2  0  0  0  0  0  0  0  0  0
    1.6574   -2.8362   44.1971 N   0  0  0  0  0  0  0  0  0  0  0  0
    0.2004   -7.4623   43.7370 C   0  0  1  0  0  0  0  0  0  0  0  0
    0.4216   -6.5323   42.5993 O   0  0  0  0  0  0  0  0  0  0  0  0
   -3.5171   -9.4911   46.9384 C   0  0  2  0  0  0  0  0  0  0  0  0
   -4.5113   -8.7641   46.1200 N   0  0  0  0  0  0  0  0  0  0  0  0
    2.1929   -3.4787   41.8130 C   0  0  1  0  0  0  0  0  0  0  0  0
    1.1123   -4.4449   41.7540 O   0  0  0  0  0  0  0  0  0  0  0  0
    1.5249   -7.8474   44.5315 C   0  0  2  0  0  0  0  0  0  0  0  0
    2.4875   -8.4400   43.6783 O   0  0  0  0  0  0  0  0  0  0  0  0
   -2.3714  -10.0689   46.0095 C   0  0  2  0  0  0  0  0  0  0  0  0
    2.4320   -2.8630   40.3979 C   0  0  2  0  0  0  0  0  0  0  0  0
    2.7046   -3.8719   39.4454 O   0  0  0  0  0  0  0  0  0  0  0  0
    1.1917   -8.8247   45.7222 C   0  0  2  0  0  0  0  0  0  0  0  0
    0.1842   -8.2065   46.6095 O   0  0  0  0  0  0  0  0  0  0  0  0
   -1.3152  -10.8293   46.8595 C   0  0  2  0  0  0  0  0  0  0  0  0
   -0.3203  -11.3639   45.9400 O   0  0  0  0  0  0  0  0  0  0  0  0
    3.6118   -1.8126   40.4587 C   0  0  2  0  0  0  0  0  0  0  0  0
    3.3176   -0.7672   41.4654 O   0  0  0  0  0  0  0  0  0  0  0  0
    2.4421   -9.1809   46.5248 C   0  0  0  0  0  0  0  0  0  0  0  0
    2.9013   -8.0761   47.2647 O   0  0  0  0  0  0  0  0  0  0  0  0
   -2.0003  -11.9814   47.6310 C   0  0  1  0  0  0  0  0  0  0  0  0
   -1.0220  -12.6513   48.3980 O   0  0  0  0  0  0  0  0  0  0  0  0
    3.8530   -1.1528   39.1095 C   0  0  0  0  0  0  0  0  0  0  0  0
    4.4666   -2.0573   38.2232 O   0  0  0  0  0  0  0  0  0  0  0  0
    1.0620   -5.2202   42.9875 C   0  0  0  0  0  0  0  0  0  0  0  0
  1  2  1  6  0  0  0
  1  7  1  0  0  0  0
  1 24  1  0  0  0  0
  3  4  1  6  0  0  0
  3  9  1  0  0  0  0
  3 31  1  0  0  0  0
  5  6  1  6  0  0  0
  5 10  1  0  0  0  0
  5 28  1  0  0  0  0
  7  8  1  6  0  0  0
  7 12  1  0  0  0  0
  9 14  1  0  0  0  0
 10 11  1  1  0  0  0
 10 16  1  0  0  0  0
 12 13  1  6  0  0  0
 12 18  1  0  0  0  0
 13 35  1  0  0  0  0
 14 15  1  6  0  0  0
 14 20  1  0  0  0  0
 16 17  1  6  0  0  0
 16 21  1  0  0  0  0
 17 35  1  0  0  0  0
 18 19  1  6  0  0  0
 18 23  1  0  0  0  0
 20  2  1  1  0  0  0
 20 25  1  0  0  0  0
 21 22  1  6  0  0  0
 21 27  1  0  0  0  0
 23 24  1  0  0  0  0
 23 29  1  1  0  0  0
 25 26  1  6  0  0  0
 25 31  1  0  0  0  0
 27 28  1  0  0  0  0
 27 33  1  6  0  0  0
 29 30  1  0  0  0  0
 31 32  1  1  0  0  0
 33 34  1  0  0  0  0
M  END
>  <CHROM.1>
-172.18508851,63.16867133,-176.78395470,-70.53984067,-154.06498176,59.80024461
70.36536960,-72.89192580,0.49293582,-6.79012653,44.33913319,2.03036847,0.04661486
2.47241608

>  <Name>
2o3v_lig

>  <RI>
0

>  <Rbt.Current_Directory>
/home/afrankz/demos/rdock_decoys_rna/rnas/2o3v

>  <Rbt.Executable>
rbdock ($Id: //depot/dev/client3/rdock/2013.1/src/exe/rbdock.cxx#4 $)

>  <Rbt.Library>
libRbt.so (2013.1, Build901 2013/11/27)

>  <Rbt.Parameter_File>
/export/apps/rDock/src/rDock_2013.1_src/data/scripts/dock_solv.prm

>  <Rbt.Receptor>
prm/pocket_docking_7.prm

>  <SCORE>
-18.1517

>  <SCORE.INTER>
-14.1067

>  <SCORE.INTER.CONST>
1

>  <SCORE.INTER.POLAR>
-2.78424

>  <SCORE.INTER.ROT>
8

>  <SCORE.INTER.SOLV>
8.66045

>  <SCORE.INTER.VDW>
-11.9438

>  <SCORE.INTER.norm>
-0.403048

>  <SCORE.INTRA>
-4.04502

>  <SCORE.INTRA.DIHEDRAL>
-8.35007

>  <SCORE.INTRA.DIHEDRAL.0>
13.1227

>  <SCORE.INTRA.POLAR>
0

>  <SCORE.INTRA.POLAR.0>
0

>  <SCORE.INTRA.REPUL>
0

>  <SCORE.INTRA.REPUL.0>
0

>  <SCORE.INTRA.SOLV>
1.53283

>  <SCORE.INTRA.SOLV.lig_0>
-89.1587

>  <SCORE.INTRA.VDW>
-0.636396

>  <SCORE.INTRA.VDW.0>
-0.838383

>  <SCORE.INTRA.norm>
-0.115572

>  <SCORE.RESTR>
0

>  <SCORE.RESTR.CAVITY>
0

>  <SCORE.RESTR.norm>
0

>  <SCORE.SYSTEM>
0

>  <SCORE.SYSTEM.CONST>
0

>  <SCORE.SYSTEM.DIHEDRAL>
0

>  <SCORE.SYSTEM.SOLV>
0

>  <SCORE.SYSTEM.norm>
0

>  <SCORE.heavy>
35

>  <SCORE.norm>
-0.51862

>  <RMSD>
9.433

$$$$
2o3v_lig
 OpenBabel02141814113D
libRbt.so/2013.1/901 2013/11/27
 35 37  0  0  0  0  0  0  0  0999 V2000
   -0.5614   -7.1977   46.3062 C   0  0  2  0  0  0  0  0  0  0  0  0
   -1.4214   -8.3388   46.6085 O   0  0  0  0  0  0  0  0  0  0  0  0
   -5.7016   -9.0485   46.2878 C   0  0  2  0  0  0  0  0  0  0  0  0
   -7.1673   -8.9939   46.5726 N   0  0  0  0  0  0  0  0  0  0  0  0
    6.7505   -6.0744   43.3247 C   0  0  2  0  0  0  0  0  0  0  0  0
    6.9694   -6.0940   41.8974 O   0  0  0  0  0  0  0  0  0  0  0  0
    0.4937   -7.7994   45.3249 C   0  0  2  0  0  0  0  0  0  0  0  0
   -0.1570   -8.3652   44.1195 N   0  0  0  0  0  0  0  0  0  0  0  0
   -4.9278   -9.6788   47.5244 C   0  0  0  0  0  0  0  0  0  0  0  0
    6.0043   -7.3998   43.7050 C   0  0  2  0  0  0  0  0  0  0  0  0
    6.7865   -8.5905   43.2860 N   0  0  0  0  0  0  0  0  0  0  0  0
    1.3782   -8.9165   46.0316 C   0  0  1  0  0  0  0  0  0  0  0  0
    2.3449   -9.5069   45.0698 O   0  0  0  0  0  0  0  0  0  0  0  0
   -3.3714   -9.7146   47.2007 C   0  0  2  0  0  0  0  0  0  0  0  0
   -2.6306  -10.2878   48.3449 N   0  0  0  0  0  0  0  0  0  0  0  0
    4.5421   -7.4493   43.0771 C   0  0  1  0  0  0  0  0  0  0  0  0
    3.8156   -8.6513   43.4407 O   0  0  0  0  0  0  0  0  0  0  0  0
    2.0540   -8.2507   47.3098 C   0  0  2  0  0  0  0  0  0  0  0  0
    2.8472   -9.1833   48.0218 O   0  0  0  0  0  0  0  0  0  0  0  0
   -2.8491   -8.2501   46.8980 C   0  0  2  0  0  0  0  0  0  0  0  0
    3.7547   -6.1884   43.5554 C   0  0  2  0  0  0  0  0  0  0  0  0
    2.4468   -6.1732   43.0181 O   0  0  0  0  0  0  0  0  0  0  0  0
    0.9560   -7.6440   48.2637 C   0  0  2  0  0  0  0  0  0  0  0  0
    0.1266   -6.6740   47.5182 O   0  0  0  0  0  0  0  0  0  0  0  0
   -3.6154   -7.6390   45.6915 C   0  0  2  0  0  0  0  0  0  0  0  0
   -3.1133   -6.2856   45.4980 O   0  0  0  0  0  0  0  0  0  0  0  0
    4.5424   -4.8770   43.1567 C   0  0  2  0  0  0  0  0  0  0  0  0
    5.9122   -4.9097   43.7183 O   0  0  0  0  0  0  0  0  0  0  0  0
    1.5810   -6.9653   49.4816 C   0  0  0  0  0  0  0  0  0  0  0  0
    2.5182   -5.9907   49.0934 O   0  0  0  0  0  0  0  0  0  0  0  0
   -5.1304   -7.6055   46.0007 C   0  0  1  0  0  0  0  0  0  0  0  0
   -5.8026   -7.0523   44.8889 O   0  0  0  0  0  0  0  0  0  0  0  0
    3.8338   -3.6212   43.6414 C   0  0  0  0  0  0  0  0  0  0  0  0
    3.6728   -3.6566   45.0389 O   0  0  0  0  0  0  0  0  0  0  0  0
    3.6058   -8.6961   44.8827 C   0  0  0  0  0  0  0  0  0  0  0  0
  1  2  1  1  0  0  0
  1  7  1  0  0  0  0
  1 24  1  0  0  0  0
  3  4  1  1  0  0  0
  3  9  1  0  0  0  0
  3 31  1  0  0  0  0
  5  6  1  6  0  0  0
  5 10  1  0  0  0  0
  5 28  1  0  0  0  0
  7  8  1  6  0  0  0
  7 12  1  0  0  0  0
  9 14  1  0  0  0  0
 10 11  1  6  0  0  0
 10 16  1  0  0  0  0
 12 13  1  6  0  0  0
 12 18  1  0  0  0  0
 13 35  1  0  0  0  0
 14 15  1  1  0  0  0
 14 20  1  0  0  0  0
 16 17  1  1  0  0  0
 16 21  1  0  0  0  0
 17 35  1  0  0  0  0
 18 19  1  1  0  0  0
 18 23  1  0  0  0  0
 20  2  1  6  0  0  0
 20 25  1  0  0  0  0
 21 22  1  6  0  0  0
 21 27  1  0  0  0  0
 23 24  1  0  0  0  0
 23 29  1  1  0  0  0
 25 26  1  1  0  0  0
 25 31  1  0  0  0  0
 27 28  1  0  0  0  0
 27 33  1  1  0  0  0
 29 30  1  0  0  0  0
 31 32  1  6  0  0  0
 33 34  1  0  0  0  0
M  END
>  <CHROM.1>
-148.13366211,82.41698705,-134.30765183,63.17033598,152.52101556,-178.64912491
55.01094248,58.20232199,0.91800936,-7.44654093,45.52855242,-2.77720361,-0.04086620
-1.06530814

>  <Name>
2o3v_lig

>  <RI>
0

>  <Rbt.Current_Directory>
/home/afrankz/demos/rdock_decoys_rna/rnas/2o3v

>  <Rbt.Executable>
rbdock ($Id: //depot/dev/client3/rdock/2013.1/src/exe/rbdock.cxx#4 $)

>  <Rbt.Library>
libRbt.so (2013.1, Build901 2013/11/27)

>  <Rbt.Parameter_File>
/export/apps/rDock/src/rDock_2013.1_src/data/scripts/dock_solv.prm

>  <Rbt.Receptor>
prm/pocket_docking_2.prm

>  <SCORE>
-2.52187

>  <SCORE.INTER>
-5.63795

>  <SCORE.INTER.CONST>
1

>  <SCORE.INTER.POLAR>
-0.295451

>  <SCORE.INTER.ROT>
8

>  <SCORE.INTER.SOLV>
11.2494

>  <SCORE.INTER.VDW>
-15.4569

>  <SCORE.INTER.norm>
-0.161084

>  <SCORE.INTRA>
2.42035

>  <SCORE.INTRA.DIHEDRAL>
2.58438

>  <SCORE.INTRA.DIHEDRAL.0>
13.1227

>  <SCORE.INTRA.POLAR>
0

>  <SCORE.INTRA.POLAR.0>
0

>  <SCORE.INTRA.REPUL>
0

>  <SCORE.INTRA.REPUL.0>
0

>  <SCORE.INTRA.SOLV>
1.22173

>  <SCORE.INTRA.SOLV.lig_0>
-89.1587

>  <SCORE.INTRA.VDW>
0.517297

>  <SCORE.INTRA.VDW.0>
-0.838383

>  <SCORE.INTRA.norm>
0.0691529

>  <SCORE.RESTR>
0.695726

>  <SCORE.RESTR.CAVITY>
0.695726

>  <SCORE.RESTR.norm>
0.0198779

>  <SCORE.SYSTEM>
0

>  <SCORE.SYSTEM.CONST>
0

>  <SCORE.SYSTEM.DIHEDRAL>
0

>  <SCORE.SYSTEM.SOLV>
0

>  <SCORE.SYSTEM.norm>
0

>  <SCORE.heavy>
35

>  <SCORE.norm>
-0.0720535

>  <RMSD>
9.451

$$$$
2o3v_lig
 OpenBabel02141814113D
libRbt.so/2013.1/901 2013/11/27
 35 37  0  0  0  0  0  0  0  0999 V2000
   -1.7657   -9.9037   48.0056 C   0  0  2  0  0  0  0  0  0  0  0  0
   -2.6999   -8.8083   47.7604 O   0  0  0  0  0  0  0  0  0  0  0  0
   -6.2791   -7.3444   49.7538 C   0  0  2  0  0  0  0  0  0  0  0  0
   -7.6870   -7.2617   50.2469 N   0  0  0  0  0  0  0  0  0  0  0  0
    0.6592   -3.4542   45.5996 C   0  0  2  0  0  0  0  0  0  0  0  0
    1.2161   -3.9636   46.8307 O   0  0  0  0  0  0  0  0  0  0  0  0
   -0.4248   -9.3650   47.4139 C   0  0  2  0  0  0  0  0  0  0  0  0
   -0.0171   -8.1021   48.0734 N   0  0  0  0  0  0  0  0  0  0  0  0
   -6.2563   -7.3528   48.1648 C   0  0  0  0  0  0  0  0  0  0  0  0
   -0.2165   -4.5933   44.9719 C   0  0  2  0  0  0  0  0  0  0  0  0
   -1.2772   -5.0304   45.9146 N   0  0  0  0  0  0  0  0  0  0  0  0
   -0.5283   -9.1409   45.8427 C   0  0  1  0  0  0  0  0  0  0  0  0
    0.7422   -8.5867   45.3067 O   0  0  0  0  0  0  0  0  0  0  0  0
   -4.7495   -7.4530   47.6667 C   0  0  2  0  0  0  0  0  0  0  0  0
   -4.7064   -7.4739   46.1889 N   0  0  0  0  0  0  0  0  0  0  0  0
    0.6725   -5.8359   44.5243 C   0  0  1  0  0  0  0  0  0  0  0  0
   -0.1088   -6.8922   43.9091 O   0  0  0  0  0  0  0  0  0  0  0  0
   -0.9612  -10.5272   45.1913 C   0  0  2  0  0  0  0  0  0  0  0  0
   -1.1035  -10.4180   43.7864 O   0  0  0  0  0  0  0  0  0  0  0  0
   -4.0757   -8.7646   48.2455 C   0  0  2  0  0  0  0  0  0  0  0  0
    1.7619   -5.3315   43.5257 C   0  0  2  0  0  0  0  0  0  0  0  0
    2.5916   -6.3947   43.1006 O   0  0  0  0  0  0  0  0  0  0  0  0
   -2.3087  -11.0407   45.8271 C   0  0  2  0  0  0  0  0  0  0  0  0
   -2.1597  -11.1504   47.2935 O   0  0  0  0  0  0  0  0  0  0  0  0
   -4.1079   -8.7511   49.7996 C   0  0  2  0  0  0  0  0  0  0  0  0
   -3.5114   -9.9983   50.2577 O   0  0  0  0  0  0  0  0  0  0  0  0
    2.6174   -4.1829   44.1952 C   0  0  2  0  0  0  0  0  0  0  0  0
    1.7361   -3.0804   44.6431 O   0  0  0  0  0  0  0  0  0  0  0  0
   -2.7276  -12.3900   45.2451 C   0  0  0  0  0  0  0  0  0  0  0  0
   -3.9780  -12.7927   45.7481 O   0  0  0  0  0  0  0  0  0  0  0  0
   -5.5717   -8.6501   50.2885 C   0  0  1  0  0  0  0  0  0  0  0  0
   -5.5726   -8.6340   51.7005 O   0  0  0  0  0  0  0  0  0  0  0  0
    3.6658   -3.6286   43.2425 C   0  0  0  0  0  0  0  0  0  0  0  0
    4.3816   -2.5831   43.8544 O   0  0  0  0  0  0  0  0  0  0  0  0
    0.6607   -8.1298   43.8691 C   0  0  0  0  0  0  0  0  0  0  0  0
  1  2  1  6  0  0  0
  1  7  1  0  0  0  0
  1 24  1  0  0  0  0
  3  4  1  6  0  0  0
  3  9  1  0  0  0  0
  3 31  1  0  0  0  0
  5  6  1  1  0  0  0
  5 10  1  0  0  0  0
  5 28  1  0  0  0  0
  7  8  1  1  0  0  0
  7 12  1  0  0  0  0
  9 14  1  0  0  0  0
 10 11  1  1  0  0  0
 10 16  1  0  0  0  0
 12 13  1  6  0  0  0
 12 18  1  0  0  0  0
 13 35  1  0  0  0  0
 14 15  1  6  0  0  0
 14 20  1  0  0  0  0
 16 17  1  6  0  0  0
 16 21  1  0  0  0  0
 17 35  1  0  0  0  0
 18 19  1  6  0  0  0
 18 23  1  0  0  0  0
 20  2  1  1  0  0  0
 20 25  1  0  0  0  0
 21 22  1  1  0  0  0
 21 27  1  0  0  0  0
 23 24  1  0  0  0  0
 23 29  1  6  0  0  0
 25 26  1  1  0  0  0
 25 31  1  0  0  0  0
 27 28  1  0  0  0  0
 27 33  1  6  0  0  0
 29 30  1  0  0  0  0
 31 32  1  1  0  0  0
 33 34  1  0  0  0  0
M  END
>  <CHROM.1>
-173.85344324,-170.42560156,73.45968195,-163.88593436,70.54367463,-176.16217138
-175.76623037,178.23890693,-1.44489390,-7.63609611,46.43554769,-2.80739042
0.69716446,0.28784423

>  <Name>
2o3v_lig

>  <RI>
0

>  <Rbt.Current_Directory>
/home/afrankz/demos/rdock_decoys_rna/rnas/2o3v

>  <Rbt.Executable>
rbdock ($Id: //depot/dev/client3/rdock/2013.1/src/exe/rbdock.cxx#4 $)

>  <Rbt.Library>
libRbt.so (2013.1, Build901 2013/11/27)

>  <Rbt.Parameter_File>
/export/apps/rDock/src/rDock_2013.1_src/data/scripts/dock_solv.prm

>  <Rbt.Receptor>
prm/pocket_docking_6.prm

>  <SCORE>
-11.7287

>  <SCORE.INTER>
-6.39922

>  <SCORE.INTER.CONST>
1

>  <SCORE.INTER.POLAR>
-0.959166

>  <SCORE.INTER.ROT>
8

>  <SCORE.INTER.SOLV>
8.60392

>  <SCORE.INTER.VDW>
-12.8702

>  <SCORE.INTER.norm>
-0.182835

>  <SCORE.INTRA>
-5.32948

>  <SCORE.INTRA.DIHEDRAL>
-9.69724

>  <SCORE.INTRA.DIHEDRAL.0>
13.1227

>  <SCORE.INTRA.POLAR>
0

>  <SCORE.INTRA.POLAR.0>
0

>  <SCORE.INTRA.REPUL>
0.00792023

>  <SCORE.INTRA.REPUL.0>
0

>  <SCORE.INTRA.SOLV>
0.0408978

>  <SCORE.INTRA.SOLV.lig_0>
-89.1587

>  <SCORE.INTRA.VDW>
-0.540905

>  <SCORE.INTRA.VDW.0>
-0.838383

>  <SCORE.INTRA.norm>
-0.152271

>  <SCORE.RESTR>
0

>  <SCORE.RESTR.CAVITY>
0

>  <SCORE.RESTR.norm>
0

>  <SCORE.SYSTEM>
0

>  <SCORE.SYSTEM.CONST>
0

>  <SCORE.SYSTEM.DIHEDRAL>
0

>  <SCORE.SYSTEM.SOLV>
0

>  <SCORE.SYSTEM.norm>
0

>  <SCORE.heavy>
35

>  <SCORE.norm>
-0.335106

>  <RMSD>
9.464

$$$$
2o3v_lig
 OpenBabel02141814113D
libRbt.so/2013.1/901 2013/11/27
 35 37  0  0  0  0  0  0  0  0999 V2000
   -0.2848   -8.9484   48.8403 C   0  0  2  0  0  0  0  0  0  0  0  0
   -1.0642   -8.1359   47.9102 O   0  0  0  0  0  0  0  0  0  0  0  0
   -5.3307   -7.9200   47.0873 C   0  0  2  0  0  0  0  0  0  0  0  0
   -6.6838   -8.2550   46.5496 N   0  0  0  0  0  0  0  0  0  0  0  0
    5.8663   -4.6740   43.2516 C   0  0  2  0  0  0  0  0  0  0  0  0
    5.9582   -5.9052   42.5024 O   0  0  0  0  0  0  0  0  0  0  0  0
    1.0541   -8.1551   48.9679 C   0  0  2  0  0  0  0  0  0  0  0  0
    0.8164   -6.7793   49.4650 N   0  0  0  0  0  0  0  0  0  0  0  0
   -4.3216   -7.6403   45.8919 C   0  0  0  0  0  0  0  0  0  0  0  0
    5.2855   -5.0251   44.6650 C   0  0  2  0  0  0  0  0  0  0  0  0
    6.1363   -6.0263   45.3568 N   0  0  0  0  0  0  0  0  0  0  0  0
    1.8333   -8.0981   47.5826 C   0  0  1  0  0  0  0  0  0  0  0  0
    3.0811   -7.3020   47.7146 O   0  0  0  0  0  0  0  0  0  0  0  0
   -2.8886   -7.2983   46.4902 C   0  0  2  0  0  0  0  0  0  0  0  0
   -1.9303   -7.0456   45.3927 N   0  0  0  0  0  0  0  0  0  0  0  0
    3.7844   -5.5470   44.5680 C   0  0  1  0  0  0  0  0  0  0  0  0
    3.2101   -5.8480   45.8658 O   0  0  0  0  0  0  0  0  0  0  0  0
    2.0646   -9.5985   47.1042 C   0  0  2  0  0  0  0  0  0  0  0  0
    2.7349   -9.6477   45.8575 O   0  0  0  0  0  0  0  0  0  0  0  0
   -2.3776   -8.4993   47.3878 C   0  0  2  0  0  0  0  0  0  0  0  0
    2.9271   -4.4583   43.8480 C   0  0  2  0  0  0  0  0  0  0  0  0
    1.5810   -4.8733   43.7235 O   0  0  0  0  0  0  0  0  0  0  0  0
    0.6914  -10.3653   47.0038 C   0  0  2  0  0  0  0  0  0  0  0  0
   -0.0086  -10.3097   48.3044 O   0  0  0  0  0  0  0  0  0  0  0  0
   -3.3733   -8.7700   48.5504 C   0  0  2  0  0  0  0  0  0  0  0  0
   -2.8620   -9.9059   49.3051 O   0  0  0  0  0  0  0  0  0  0  0  0
    3.5486   -4.1313   42.4317 C   0  0  2  0  0  0  0  0  0  0  0  0
    4.9599   -3.7065   42.5757 O   0  0  0  0  0  0  0  0  0  0  0  0
    0.8888  -11.8206   46.5818 C   0  0  0  0  0  0  0  0  0  0  0  0
   -0.3460  -12.4798   46.4422 O   0  0  0  0  0  0  0  0  0  0  0  0
   -4.7697   -9.0997   47.9730 C   0  0  1  0  0  0  0  0  0  0  0  0
   -5.6548   -9.3355   49.0477 O   0  0  0  0  0  0  0  0  0  0  0  0
    2.7705   -3.0420   41.7094 C   0  0  0  0  0  0  0  0  0  0  0  0
    3.2993   -2.8319   40.4224 O   0  0  0  0  0  0  0  0  0  0  0  0
    3.8042   -7.0630   46.4099 C   0  0  0  0  0  0  0  0  0  0  0  0
  1  2  1  6  0  0  0
  1  7  1  0  0  0  0
  1 24  1  0  0  0  0
  3  4  1  6  0  0  0
  3  9  1  0  0  0  0
  3 31  1  0  0  0  0
  5  6  1  6  0  0  0
  5 10  1  0  0  0  0
  5 28  1  0  0  0  0
  7  8  1  6  0  0  0
  7 12  1  0  0  0  0
  9 14  1  0  0  0  0
 10 11  1  6  0  0  0
 10 16  1  0  0  0  0
 12 13  1  1  0  0  0
 12 18  1  0  0  0  0
 13 35  1  0  0  0  0
 14 15  1  6  0  0  0
 14 20  1  0  0  0  0
 16 17  1  1  0  0  0
 16 21  1  0  0  0  0
 17 35  1  0  0  0  0
 18 19  1  6  0  0  0
 18 23  1  0  0  0  0
 20  2  1  1  0  0  0
 20 25  1  0  0  0  0
 21 22  1  6  0  0  0
 21 27  1  0  0  0  0
 23 24  1  0  0  0  0
 23 29  1  1  0  0  0
 25 26  1  6  0  0  0
 25 31  1  0  0  0  0
 27 28  1  0  0  0  0
 27 33  1  1  0  0  0
 29 30  1  0  0  0  0
 31 32  1  1  0  0  0
 33 34  1  0  0  0  0
M  END
>  <CHROM.1>
175.64608176,-173.37632816,87.71659882,-72.00356251,-177.29405439,176.62429901
-177.57443617,-176.45355711,0.72798272,-7.39387545,46.05718061,-2.44944337
0.05886513,-0.72627926

>  <Name>
2o3v_lig

>  <RI>
0

>  <Rbt.Current_Directory>
/home/afrankz/demos/rdock_decoys_rna/rnas/2o3v

>  <Rbt.Executable>
rbdock ($Id: //depot/dev/client3/rdock/2013.1/src/exe/rbdock.cxx#4 $)

>  <Rbt.Library>
libRbt.so (2013.1, Build901 2013/11/27)

>  <Rbt.Parameter_File>
/export/apps/rDock/src/rDock_2013.1_src/data/scripts/dock_solv.prm

>  <Rbt.Receptor>
prm/pocket_docking_7.prm

>  <SCORE>
-9.27379

>  <SCORE.INTER>
-4.18258

>  <SCORE.INTER.CONST>
1

>  <SCORE.INTER.POLAR>
-0.639314

>  <SCORE.INTER.ROT>
8

>  <SCORE.INTER.SOLV>
9.97968

>  <SCORE.INTER.VDW>
-12.9172

>  <SCORE.INTER.norm>
-0.119502

>  <SCORE.INTRA>
-5.09121

>  <SCORE.INTRA.DIHEDRAL>
-8.74373

>  <SCORE.INTRA.DIHEDRAL.0>
13.1227

>  <SCORE.INTRA.POLAR>
0

>  <SCORE.INTRA.POLAR.0>
0

>  <SCORE.INTRA.REPUL>
0

>  <SCORE.INTRA.REPUL.0>
0

>  <SCORE.INTRA.SOLV>
-0.806367

>  <SCORE.INTRA.SOLV.lig_0>
-89.1587

>  <SCORE.INTRA.VDW>
-0.316164

>  <SCORE.INTRA.VDW.0>
-0.838383

>  <SCORE.INTRA.norm>
-0.145463

>  <SCORE.RESTR>
0

>  <SCORE.RESTR.CAVITY>
0

>  <SCORE.RESTR.norm>
0

>  <SCORE.SYSTEM>
0

>  <SCORE.SYSTEM.CONST>
0

>  <SCORE.SYSTEM.DIHEDRAL>
0

>  <SCORE.SYSTEM.SOLV>
0

>  <SCORE.SYSTEM.norm>
0

>  <SCORE.heavy>
35

>  <SCORE.norm>
-0.264966

>  <RMSD>
9.506

$$$$
2o3v_lig
 OpenBabel02141814113D
libRbt.so/2013.1/901 2013/11/27
 35 37  0  0  0  0  0  0  0  0999 V2000
   -1.5796   -9.2354   44.6348 C   0  0  2  0  0  0  0  0  0  0  0  0
   -2.6752   -8.6303   45.3873 O   0  0  0  0  0  0  0  0  0  0  0  0
   -5.7261   -7.8064   42.3973 C   0  0  2  0  0  0  0  0  0  0  0  0
   -6.9982   -7.3365   41.7701 N   0  0  0  0  0  0  0  0  0  0  0  0
    6.4277  -10.1020   45.7317 C   0  0  2  0  0  0  0  0  0  0  0  0
    5.9593  -11.3918   45.2816 O   0  0  0  0  0  0  0  0  0  0  0  0
   -0.5487   -9.6073   45.7472 C   0  0  2  0  0  0  0  0  0  0  0  0
   -1.1434  -10.5314   46.7416 N   0  0  0  0  0  0  0  0  0  0  0  0
   -6.0350   -8.9089   43.4993 C   0  0  0  0  0  0  0  0  0  0  0  0
    5.2616   -9.4327   46.5384 C   0  0  2  0  0  0  0  0  0  0  0  0
    4.8393  -10.2904   47.6746 N   0  0  0  0  0  0  0  0  0  0  0  0
    0.0082   -8.3124   46.4837 C   0  0  1  0  0  0  0  0  0  0  0  0
    0.9528   -8.6901   47.5669 O   0  0  0  0  0  0  0  0  0  0  0  0
   -4.6677   -9.3828   44.1584 C   0  0  2  0  0  0  0  0  0  0  0  0
   -4.9338  -10.4019   45.1963 N   0  0  0  0  0  0  0  0  0  0  0  0
    4.0169   -9.1016   45.6025 C   0  0  1  0  0  0  0  0  0  0  0  0
    2.9351   -8.4507   46.3170 O   0  0  0  0  0  0  0  0  0  0  0  0
    0.6379   -7.3650   45.3704 C   0  0  2  0  0  0  0  0  0  0  0  0
    1.1411   -6.1668   45.9333 O   0  0  0  0  0  0  0  0  0  0  0  0
   -3.9184   -8.1426   44.7985 C   0  0  2  0  0  0  0  0  0  0  0  0
    4.5053   -8.1889   44.4333 C   0  0  2  0  0  0  0  0  0  0  0  0
    3.4399   -7.8697   43.5601 O   0  0  0  0  0  0  0  0  0  0  0  0
   -0.4304   -7.0277   44.2619 C   0  0  2  0  0  0  0  0  0  0  0  0
   -0.9575   -8.2791   43.6781 O   0  0  0  0  0  0  0  0  0  0  0  0
   -3.6259   -7.0668   43.7152 C   0  0  2  0  0  0  0  0  0  0  0  0
   -2.9759   -5.9459   44.3801 O   0  0  0  0  0  0  0  0  0  0  0  0
    5.6817   -8.8978   43.6505 C   0  0  2  0  0  0  0  0  0  0  0  0
    6.7864   -9.2340   44.5775 O   0  0  0  0  0  0  0  0  0  0  0  0
    0.1598   -6.1488   43.1601 C   0  0  0  0  0  0  0  0  0  0  0  0
    0.5396   -4.8914   43.6638 O   0  0  0  0  0  0  0  0  0  0  0  0
   -4.9531   -6.6054   43.0689 C   0  0  1  0  0  0  0  0  0  0  0  0
   -4.6595   -5.6343   42.0866 O   0  0  0  0  0  0  0  0  0  0  0  0
    6.2207   -8.0257   42.5267 C   0  0  0  0  0  0  0  0  0  0  0  0
    7.2182   -8.7108   41.8087 O   0  0  0  0  0  0  0  0  0  0  0  0
    2.1798   -9.4303   47.0884 C   0  0  0  0  0  0  0  0  0  0  0  0
  1  2  1  1  0  0  0
  1  7  1  0  0  0  0
  1 24  1  0  0  0  0
  3  4  1  1  0  0  0
  3  9  1  0  0  0  0
  3 31  1  0  0  0  0
  5  6  1  6  0  0  0
  5 10  1  0  0  0  0
  5 28  1  0  0  0  0
  7  8  1  1  0  0  0
  7 12  1  0  0  0  0
  9 14  1  0  0  0  0
 10 11  1  1  0  0  0
 10 16  1  0  0  0  0
 12 13  1  1  0  0  0
 12 18  1  0  0  0  0
 13 35  1  0  0  0  0
 14 15  1  1  0  0  0
 14 20  1  0  0  0  0
 16 17  1  1  0  0  0
 16 21  1  0  0  0  0
 17 35  1  0  0  0  0
 18 19  1  1  0  0  0
 18 23  1  0  0  0  0
 20  2  1  6  0  0  0
 20 25  1  0  0  0  0
 21 22  1  6  0  0  0
 21 27  1  0  0  0  0
 23 24  1  0  0  0  0
 23 29  1  6  0  0  0
 25 26  1  1  0  0  0
 25 31  1  0  0  0  0
 27 28  1  0  0  0  0
 27 33  1  6  0  0  0
 29 30  1  0  0  0  0
 31 32  1  6  0  0  0
 33 34  1  0  0  0  0
M  END
>  <CHROM.1>
-178.17916807,61.58763106,67.76527799,-78.03762189,-169.77065831,63.36098199
-64.27941065,-177.03765062,0.43551955,-8.29454414,44.63475483,2.95071428
0.03224992,-0.88244883

>  <Name>
2o3v_lig

>  <RI>
0

>  <Rbt.Current_Directory>
/home/afrankz/demos/rdock_decoys_rna/rnas/2o3v

>  <Rbt.Executable>
rbdock ($Id: //depot/dev/client3/rdock/2013.1/src/exe/rbdock.cxx#4 $)

>  <Rbt.Library>
libRbt.so (2013.1, Build901 2013/11/27)

>  <Rbt.Parameter_File>
/export/apps/rDock/src/rDock_2013.1_src/data/scripts/dock_solv.prm

>  <Rbt.Receptor>
prm/pocket_docking_7.prm

>  <SCORE>
-11.7281

>  <SCORE.INTER>
-6.20344

>  <SCORE.INTER.CONST>
1

>  <SCORE.INTER.POLAR>
0

>  <SCORE.INTER.ROT>
8

>  <SCORE.INTER.SOLV>
8.70536

>  <SCORE.INTER.VDW>
-15.9707

>  <SCORE.INTER.norm>
-0.177241

>  <SCORE.INTRA>
-5.52464

>  <SCORE.INTRA.DIHEDRAL>
-10.6044

>  <SCORE.INTRA.DIHEDRAL.0>
13.1227

>  <SCORE.INTRA.POLAR>
0

>  <SCORE.INTRA.POLAR.0>
0

>  <SCORE.INTRA.REPUL>
0

>  <SCORE.INTRA.REPUL.0>
0

>  <SCORE.INTRA.SOLV>
2.20438

>  <SCORE.INTRA.SOLV.lig_0>
-89.1587

>  <SCORE.INTRA.VDW>
-1.32462

>  <SCORE.INTRA.VDW.0>
-0.838383

>  <SCORE.INTRA.norm>
-0.157847

>  <SCORE.RESTR>
0

>  <SCORE.RESTR.CAVITY>
0

>  <SCORE.RESTR.norm>
0

>  <SCORE.SYSTEM>
0

>  <SCORE.SYSTEM.CONST>
0

>  <SCORE.SYSTEM.DIHEDRAL>
0

>  <SCORE.SYSTEM.SOLV>
0

>  <SCORE.SYSTEM.norm>
0

>  <SCORE.heavy>
35

>  <SCORE.norm>
-0.335088

>  <RMSD>
9.528

$$$$
2o3v_lig
 OpenBabel02141814113D
libRbt.so/2013.1/901 2013/11/27
 35 37  0  0  0  0  0  0  0  0999 V2000
   -3.7583   -9.7462   48.6285 C   0  0  2  0  0  0  0  0  0  0  0  0
   -4.1481   -8.4352   49.1406 O   0  0  0  0  0  0  0  0  0  0  0  0
   -5.5472   -6.8056   52.9241 C   0  0  2  0  0  0  0  0  0  0  0  0
   -6.4068   -6.5463   54.1182 N   0  0  0  0  0  0  0  0  0  0  0  0
   -2.2164   -2.4420   43.8570 C   0  0  2  0  0  0  0  0  0  0  0  0
   -3.1178   -2.7616   42.7749 O   0  0  0  0  0  0  0  0  0  0  0  0
   -2.6261   -9.4057   47.6084 C   0  0  2  0  0  0  0  0  0  0  0  0
   -1.5085   -8.6895   48.2675 N   0  0  0  0  0  0  0  0  0  0  0  0
   -6.3137   -6.3845   51.5972 C   0  0  0  0  0  0  0  0  0  0  0  0
   -1.6919   -3.7960   44.4485 C   0  0  2  0  0  0  0  0  0  0  0  0
   -1.0256   -4.6119   43.4019 N   0  0  0  0  0  0  0  0  0  0  0  0
   -3.1762   -8.5396   46.3932 C   0  0  1  0  0  0  0  0  0  0  0  0
   -2.0759   -8.1890   45.4579 O   0  0  0  0  0  0  0  0  0  0  0  0
   -5.3830   -6.6811   50.3425 C   0  0  2  0  0  0  0  0  0  0  0  0
   -6.0827   -6.3065   49.0948 N   0  0  0  0  0  0  0  0  0  0  0  0
   -2.8629   -4.6271   45.1361 C   0  0  1  0  0  0  0  0  0  0  0  0
   -2.3992   -5.8707   45.7219 O   0  0  0  0  0  0  0  0  0  0  0  0
   -4.3649   -9.3595   45.7236 C   0  0  2  0  0  0  0  0  0  0  0  0
   -4.9374   -8.6506   44.6393 O   0  0  0  0  0  0  0  0  0  0  0  0
   -4.9990   -8.2175   50.3063 C   0  0  2  0  0  0  0  0  0  0  0  0
   -3.5229   -3.7363   46.2358 C   0  0  2  0  0  0  0  0  0  0  0  0
   -4.5813   -4.4216   46.8760 O   0  0  0  0  0  0  0  0  0  0  0  0
   -5.4759   -9.6943   46.7900 C   0  0  2  0  0  0  0  0  0  0  0  0
   -4.8762  -10.4306   47.9226 O   0  0  0  0  0  0  0  0  0  0  0  0
   -4.2555   -8.6222   51.6100 C   0  0  2  0  0  0  0  0  0  0  0  0
   -3.9714  -10.0480   51.5237 O   0  0  0  0  0  0  0  0  0  0  0  0
   -4.0328   -2.3820   45.5992 C   0  0  2  0  0  0  0  0  0  0  0  0
   -2.9171   -1.6791   44.9253 O   0  0  0  0  0  0  0  0  0  0  0  0
   -6.6123  -10.5142   46.1807 C   0  0  0  0  0  0  0  0  0  0  0  0
   -7.3196   -9.7661   45.2220 O   0  0  0  0  0  0  0  0  0  0  0  0
   -5.1560   -8.3320   52.8335 C   0  0  1  0  0  0  0  0  0  0  0  0
   -4.4564   -8.7026   54.0029 O   0  0  0  0  0  0  0  0  0  0  0  0
   -4.6456   -1.4607   46.6430 C   0  0  0  0  0  0  0  0  0  0  0  0
   -5.2068   -0.3263   46.0279 O   0  0  0  0  0  0  0  0  0  0  0  0
   -2.2960   -6.9025   44.6972 C   0  0  0  0  0  0  0  0  0  0  0  0
  1  2  1  6  0  0  0
  1  7  1  0  0  0  0
  1 24  1  0  0  0  0
  3  4  1  1  0  0  0
  3  9  1  0  0  0  0
  3 31  1  0  0  0  0
  5  6  1  6  0  0  0
  5 10  1  0  0  0  0
  5 28  1  0  0  0  0
  7  8  1  1  0  0  0
  7 12  1  0  0  0  0
  9 14  1  0  0  0  0
 10 11  1  6  0  0  0
 10 16  1  0  0  0  0
 12 13  1  6  0  0  0
 12 18  1  0  0  0  0
 13 35  1  0  0  0  0
 14 15  1  6  0  0  0
 14 20  1  0  0  0  0
 16 17  1  1  0  0  0
 16 21  1  0  0  0  0
 17 35  1  0  0  0  0
 18 19  1  6  0  0  0
 18 23  1  0  0  0  0
 20  2  1  6  0  0  0
 20 25  1  0  0  0  0
 21 22  1  6  0  0  0
 21 27  1  0  0  0  0
 23 24  1  0  0  0  0
 23 29  1  6  0  0  0
 25 26  1  6  0  0  0
 25 31  1  0  0  0  0
 27 28  1  0  0  0  0
 27 33  1  1  0  0  0
 29 30  1  0  0  0  0
 31 32  1  1  0  0  0
 33 34  1  0  0  0  0
M  END
>  <CHROM.1>
-167.89639888,-152.09296649,60.48166423,-82.04423988,-169.21461043,-169.58210112
-66.02450370,-174.19255109,-4.12128275,-6.65203000,47.58222746,-2.58782766
1.30224210,0.11860681

>  <Name>
2o3v_lig

>  <RI>
0

>  <Rbt.Current_Directory>
/home/afrankz/demos/rdock_decoys_rna/rnas/2o3v

>  <Rbt.Executable>
rbdock ($Id: //depot/dev/client3/rdock/2013.1/src/exe/rbdock.cxx#4 $)

>  <Rbt.Library>
libRbt.so (2013.1, Build901 2013/11/27)

>  <Rbt.Parameter_File>
/export/apps/rDock/src/rDock_2013.1_src/data/scripts/dock_solv.prm

>  <Rbt.Receptor>
prm/pocket_docking_6.prm

>  <SCORE>
-5.98278

>  <SCORE.INTER>
-1.58808

>  <SCORE.INTER.CONST>
1

>  <SCORE.INTER.POLAR>
0

>  <SCORE.INTER.ROT>
8

>  <SCORE.INTER.SOLV>
6.49915

>  <SCORE.INTER.VDW>
-12.1584

>  <SCORE.INTER.norm>
-0.0453738

>  <SCORE.INTRA>
-4.40056

>  <SCORE.INTRA.DIHEDRAL>
-5.70019

>  <SCORE.INTRA.DIHEDRAL.0>
13.1227

>  <SCORE.INTRA.POLAR>
0

>  <SCORE.INTRA.POLAR.0>
0

>  <SCORE.INTRA.REPUL>
0.000823756

>  <SCORE.INTRA.REPUL.0>
0

>  <SCORE.INTRA.SOLV>
0.771786

>  <SCORE.INTRA.SOLV.lig_0>
-89.1587

>  <SCORE.INTRA.VDW>
-1.94047

>  <SCORE.INTRA.VDW.0>
-0.838383

>  <SCORE.INTRA.norm>
-0.12573

>  <SCORE.RESTR>
0.0058614

>  <SCORE.RESTR.CAVITY>
0.0058614

>  <SCORE.RESTR.norm>
0.000167468

>  <SCORE.SYSTEM>
0

>  <SCORE.SYSTEM.CONST>
0

>  <SCORE.SYSTEM.DIHEDRAL>
0

>  <SCORE.SYSTEM.SOLV>
0

>  <SCORE.SYSTEM.norm>
0

>  <SCORE.heavy>
35

>  <SCORE.norm>
-0.170937

>  <RMSD>
9.532

$$$$
2o3v_lig
 OpenBabel02141814113D
libRbt.so/2013.1/901 2013/11/27
 35 37  0  0  0  0  0  0  0  0999 V2000
   -2.9995   -7.3060   44.0115 C   0  0  2  0  0  0  0  0  0  0  0  0
   -4.1241   -6.6877   44.7085 O   0  0  0  0  0  0  0  0  0  0  0  0
   -8.0738   -5.3109   43.5123 C   0  0  2  0  0  0  0  0  0  0  0  0
   -9.1531   -4.4894   42.8857 N   0  0  0  0  0  0  0  0  0  0  0  0
    4.0841  -10.5574   46.1115 C   0  0  2  0  0  0  0  0  0  0  0  0
    3.4302  -11.6681   45.4602 O   0  0  0  0  0  0  0  0  0  0  0  0
   -2.2999   -8.1359   45.1341 C   0  0  2  0  0  0  0  0  0  0  0  0
   -3.2282   -9.1293   45.7237 N   0  0  0  0  0  0  0  0  0  0  0  0
   -7.2613   -4.4369   44.5617 C   0  0  0  0  0  0  0  0  0  0  0  0
    2.9699   -9.6845   46.7860 C   0  0  2  0  0  0  0  0  0  0  0  0
    2.1701  -10.4891   47.7441 N   0  0  0  0  0  0  0  0  0  0  0  0
   -1.7206   -7.1968   46.2796 C   0  0  1  0  0  0  0  0  0  0  0  0
   -1.0988   -8.0075   47.3587 O   0  0  0  0  0  0  0  0  0  0  0  0
   -6.1133   -5.3300   45.2043 C   0  0  2  0  0  0  0  0  0  0  0  0
   -5.3367   -4.5314   46.1767 N   0  0  0  0  0  0  0  0  0  0  0  0
    2.0193   -9.0089   45.7022 C   0  0  1  0  0  0  0  0  0  0  0  0
    0.9983   -8.1678   46.2978 O   0  0  0  0  0  0  0  0  0  0  0  0
   -0.7295   -6.1599   45.5895 C   0  0  2  0  0  0  0  0  0  0  0  0
   -0.1798   -5.2600   46.5350 O   0  0  0  0  0  0  0  0  0  0  0  0
   -5.1555   -5.8779   44.0678 C   0  0  2  0  0  0  0  0  0  0  0  0
    2.9005   -8.1644   44.7280 C   0  0  2  0  0  0  0  0  0  0  0  0
    2.1077   -7.5468   43.7333 O   0  0  0  0  0  0  0  0  0  0  0  0
   -1.4714   -5.3562   44.4548 C   0  0  2  0  0  0  0  0  0  0  0  0
   -2.0478   -6.2967   43.4710 O   0  0  0  0  0  0  0  0  0  0  0  0
   -5.9592   -6.7262   43.0427 C   0  0  2  0  0  0  0  0  0  0  0  0
   -5.0268   -7.1604   42.0117 O   0  0  0  0  0  0  0  0  0  0  0  0
    4.0115   -9.0797   44.0745 C   0  0  2  0  0  0  0  0  0  0  0  0
    4.8285   -9.7266   45.1266 O   0  0  0  0  0  0  0  0  0  0  0  0
   -0.5314   -4.3790   43.7504 C   0  0  0  0  0  0  0  0  0  0  0  0
   -1.2195   -3.6187   42.7874 O   0  0  0  0  0  0  0  0  0  0  0  0
   -7.0794   -5.8622   42.4176 C   0  0  1  0  0  0  0  0  0  0  0  0
   -7.7965   -6.6563   41.4961 O   0  0  0  0  0  0  0  0  0  0  0  0
    4.9241   -8.2895   43.1489 C   0  0  0  0  0  0  0  0  0  0  0  0
    5.8606   -9.1429   42.5367 O   0  0  0  0  0  0  0  0  0  0  0  0
   -0.0587   -8.9900   46.8739 C   0  0  0  0  0  0  0  0  0  0  0  0
  1  2  1  1  0  0  0
  1  7  1  0  0  0  0
  1 24  1  0  0  0  0
  3  4  1  6  0  0  0
  3  9  1  0  0  0  0
  3 31  1  0  0  0  0
  5  6  1  6  0  0  0
  5 10  1  0  0  0  0
  5 28  1  0  0  0  0
  7  8  1  1  0  0  0
  7 12  1  0  0  0  0
  9 14  1  0  0  0  0
 10 11  1  1  0  0  0
 10 16  1  0  0  0  0
 12 13  1  1  0  0  0
 12 18  1  0  0  0  0
 13 35  1  0  0  0  0
 14 15  1  1  0  0  0
 14 20  1  0  0  0  0
 16 17  1  1  0  0  0
 16 21  1  0  0  0  0
 17 35  1  0  0  0  0
 18 19  1  1  0  0  0
 18 23  1  0  0  0  0
 20  2  1  1  0  0  0
 20 25  1  0  0  0  0
 21 22  1  6  0  0  0
 21 27  1  0  0  0  0
 23 24  1  0  0  0  0
 23 29  1  6  0  0  0
 25 26  1  6  0  0  0
 25 31  1  0  0  0  0
 27 28  1  0  0  0  0
 27 33  1  6  0  0  0
 29 30  1  0  0  0  0
 31 32  1  6  0  0  0
 33 34  1  0  0  0  0
M  END
>  <CHROM.1>
-175.34805433,53.36829784,63.17462093,-76.01712289,-175.71874747,-176.11792819
-176.95732170,-177.26687319,-1.32280627,-7.27871616,44.65138118,2.81906332
0.21951345,-0.97694378

>  <Name>
2o3v_lig

>  <RI>
0

>  <Rbt.Current_Directory>
/home/afrankz/demos/rdock_decoys_rna/rnas/2o3v

>  <Rbt.Executable>
rbdock ($Id: //depot/dev/client3/rdock/2013.1/src/exe/rbdock.cxx#4 $)

>  <Rbt.Library>
libRbt.so (2013.1, Build901 2013/11/27)

>  <Rbt.Parameter_File>
/export/apps/rDock/src/rDock_2013.1_src/data/scripts/dock_solv.prm

>  <Rbt.Receptor>
prm/pocket_docking_6.prm

>  <SCORE>
-9.21206

>  <SCORE.INTER>
-2.92775

>  <SCORE.INTER.CONST>
1

>  <SCORE.INTER.POLAR>
-0.00157348

>  <SCORE.INTER.ROT>
8

>  <SCORE.INTER.SOLV>
8.04149

>  <SCORE.INTER.VDW>
-13.5604

>  <SCORE.INTER.norm>
-0.0836499

>  <SCORE.INTRA>
-6.28431

>  <SCORE.INTRA.DIHEDRAL>
-11.2805

>  <SCORE.INTRA.DIHEDRAL.0>
13.1227

>  <SCORE.INTRA.POLAR>
0

>  <SCORE.INTRA.POLAR.0>
0

>  <SCORE.INTRA.REPUL>
0

>  <SCORE.INTRA.REPUL.0>
0

>  <SCORE.INTRA.SOLV>
0.340747

>  <SCORE.INTRA.SOLV.lig_0>
-89.1587

>  <SCORE.INTRA.VDW>
-0.814416

>  <SCORE.INTRA.VDW.0>
-0.838383

>  <SCORE.INTRA.norm>
-0.179552

>  <SCORE.RESTR>
0

>  <SCORE.RESTR.CAVITY>
0

>  <SCORE.RESTR.norm>
0

>  <SCORE.SYSTEM>
0

>  <SCORE.SYSTEM.CONST>
0

>  <SCORE.SYSTEM.DIHEDRAL>
0

>  <SCORE.SYSTEM.SOLV>
0

>  <SCORE.SYSTEM.norm>
0

>  <SCORE.heavy>
35

>  <SCORE.norm>
-0.263202

>  <RMSD>
9.544

$$$$
2o3v_lig
 OpenBabel02141814113D
libRbt.so/2013.1/901 2013/11/27
 35 37  0  0  0  0  0  0  0  0999 V2000
    0.1259   -8.0869   49.0454 C   0  0  2  0  0  0  0  0  0  0  0  0
   -0.3196   -7.5992   47.7430 O   0  0  0  0  0  0  0  0  0  0  0  0
   -4.0551   -8.0889   45.5673 C   0  0  2  0  0  0  0  0  0  0  0  0
   -5.1285   -8.6949   44.7231 N   0  0  0  0  0  0  0  0  0  0  0  0
    4.2550   -4.6611   43.0636 C   0  0  2  0  0  0  0  0  0  0  0  0
    4.9258   -3.4452   43.4601 O   0  0  0  0  0  0  0  0  0  0  0  0
    1.3412   -7.1627   49.3730 C   0  0  2  0  0  0  0  0  0  0  0  0
    0.9384   -5.7367   49.3992 N   0  0  0  0  0  0  0  0  0  0  0  0
   -2.7117   -7.9538   44.7293 C   0  0  0  0  0  0  0  0  0  0  0  0
    3.7639   -5.3754   44.3701 C   0  0  2  0  0  0  0  0  0  0  0  0
    2.8717   -4.4885   45.1589 N   0  0  0  0  0  0  0  0  0  0  0  0
    2.5268   -7.3664   48.3326 C   0  0  1  0  0  0  0  0  0  0  0  0
    3.6545   -6.4472   48.6353 O   0  0  0  0  0  0  0  0  0  0  0  0
   -1.5841   -7.3181   45.6529 C   0  0  2  0  0  0  0  0  0  0  0  0
   -0.3207   -7.1942   44.8948 N   0  0  0  0  0  0  0  0  0  0  0  0
    4.9866   -5.8667   45.2637 C   0  0  1  0  0  0  0  0  0  0  0  0
    4.5609   -6.5614   46.4640 O   0  0  0  0  0  0  0  0  0  0  0  0
    2.9191   -8.9089   48.3537 C   0  0  2  0  0  0  0  0  0  0  0  0
    3.9580   -9.1923   47.4337 O   0  0  0  0  0  0  0  0  0  0  0  0
   -1.3598   -8.2246   46.9324 C   0  0  2  0  0  0  0  0  0  0  0  0
    5.8868   -6.8048   44.3988 C   0  0  2  0  0  0  0  0  0  0  0  0
    6.9993   -7.2653   45.1404 O   0  0  0  0  0  0  0  0  0  0  0  0
    1.6622   -9.8041   48.0335 C   0  0  2  0  0  0  0  0  0  0  0  0
    0.5777   -9.5045   48.9919 O   0  0  0  0  0  0  0  0  0  0  0  0
   -2.6798   -8.3565   47.7426 C   0  0  2  0  0  0  0  0  0  0  0  0
   -2.4091   -9.2309   48.8754 O   0  0  0  0  0  0  0  0  0  0  0  0
    6.3554   -6.0487   43.0919 C   0  0  2  0  0  0  0  0  0  0  0  0
    5.1817   -5.5647   42.3296 O   0  0  0  0  0  0  0  0  0  0  0  0
    2.0037  -11.2926   48.0841 C   0  0  0  0  0  0  0  0  0  0  0  0
    0.9068  -12.0781   47.6857 O   0  0  0  0  0  0  0  0  0  0  0  0
   -3.7805   -8.9713   46.8468 C   0  0  1  0  0  0  0  0  0  0  0  0
   -4.9683   -9.0749   47.6035 O   0  0  0  0  0  0  0  0  0  0  0  0
    7.2011   -6.9394   42.1945 C   0  0  0  0  0  0  0  0  0  0  0  0
    8.3992   -7.2930   42.8420 O   0  0  0  0  0  0  0  0  0  0  0  0
    4.0988   -5.6049   47.4625 C   0  0  0  0  0  0  0  0  0  0  0  0
  1  2  1  6  0  0  0
  1  7  1  0  0  0  0
  1 24  1  0  0  0  0
  3  4  1  6  0  0  0
  3  9  1  0  0  0  0
  3 31  1  0  0  0  0
  5  6  1  1  0  0  0
  5 10  1  0  0  0  0
  5 28  1  0  0  0  0
  7  8  1  6  0  0  0
  7 12  1  0  0  0  0
  9 14  1  0  0  0  0
 10 11  1  1  0  0  0
 10 16  1  0  0  0  0
 12 13  1  1  0  0  0
 12 18  1  0  0  0  0
 13 35  1  0  0  0  0
 14 15  1  6  0  0  0
 14 20  1  0  0  0  0
 16 17  1  1  0  0  0
 16 21  1  0  0  0  0
 17 35  1  0  0  0  0
 18 19  1  6  0  0  0
 18 23  1  0  0  0  0
 20  2  1  1  0  0  0
 20 25  1  0  0  0  0
 21 22  1  1  0  0  0
 21 27  1  0  0  0  0
 23 24  1  0  0  0  0
 23 29  1  1  0  0  0
 25 26  1  1  0  0  0
 25 31  1  0  0  0  0
 27 28  1  0  0  0  0
 27 33  1  6  0  0  0
 29 30  1  0  0  0  0
 31 32  1  1  0  0  0
 33 34  1  0  0  0  0
M  END
>  <CHROM.1>
173.65068927,-126.77448092,-62.19120939,-76.97141473,178.54899451,176.38565619
-174.94639020,-64.22438094,1.79046854,-7.50772527,46.28691055,-2.67826172
-0.06925032,-1.00886611

>  <Name>
2o3v_lig

>  <RI>
0

>  <Rbt.Current_Directory>
/home/afrankz/demos/rdock_decoys_rna/rnas/2o3v

>  <Rbt.Executable>
rbdock ($Id: //depot/dev/client3/rdock/2013.1/src/exe/rbdock.cxx#4 $)

>  <Rbt.Library>
libRbt.so (2013.1, Build901 2013/11/27)

>  <Rbt.Parameter_File>
/export/apps/rDock/src/rDock_2013.1_src/data/scripts/dock_solv.prm

>  <Rbt.Receptor>
prm/pocket_docking_5.prm

>  <SCORE>
-13.7767

>  <SCORE.INTER>
-10.2725

>  <SCORE.INTER.CONST>
1

>  <SCORE.INTER.POLAR>
-0.959166

>  <SCORE.INTER.ROT>
8

>  <SCORE.INTER.SOLV>
12.6364

>  <SCORE.INTER.VDW>
-16.7966

>  <SCORE.INTER.norm>
-0.2935

>  <SCORE.INTRA>
-3.50414

>  <SCORE.INTRA.DIHEDRAL>
-4.32778

>  <SCORE.INTRA.DIHEDRAL.0>
13.1227

>  <SCORE.INTRA.POLAR>
0

>  <SCORE.INTRA.POLAR.0>
0

>  <SCORE.INTRA.REPUL>
0

>  <SCORE.INTRA.REPUL.0>
0

>  <SCORE.INTRA.SOLV>
0.554694

>  <SCORE.INTRA.SOLV.lig_0>
-89.1587

>  <SCORE.INTRA.VDW>
-1.6176

>  <SCORE.INTRA.VDW.0>
-0.838383

>  <SCORE.INTRA.norm>
-0.100118

>  <SCORE.RESTR>
0

>  <SCORE.RESTR.CAVITY>
0

>  <SCORE.RESTR.norm>
0

>  <SCORE.SYSTEM>
0

>  <SCORE.SYSTEM.CONST>
0

>  <SCORE.SYSTEM.DIHEDRAL>
0

>  <SCORE.SYSTEM.SOLV>
0

>  <SCORE.SYSTEM.norm>
0

>  <SCORE.heavy>
35

>  <SCORE.norm>
-0.393619

>  <RMSD>
9.577

$$$$
2o3v_lig
 OpenBabel02141814113D
libRbt.so/2013.1/901 2013/11/27
 35 37  0  0  0  0  0  0  0  0999 V2000
    1.5168   -5.2517   45.0303 C   0  0  2  0  0  0  0  0  0  0  0  0
    2.4510   -5.0742   43.9219 O   0  0  0  0  0  0  0  0  0  0  0  0
    2.6114   -3.2320   39.9840 C   0  0  2  0  0  0  0  0  0  0  0  0
    2.4686   -2.2257   38.8889 N   0  0  0  0  0  0  0  0  0  0  0  0
    8.4428   -8.1090   42.6446 C   0  0  2  0  0  0  0  0  0  0  0  0
    8.8927   -6.8250   43.1289 O   0  0  0  0  0  0  0  0  0  0  0  0
    2.3748   -5.9974   46.1009 C   0  0  2  0  0  0  0  0  0  0  0  0
    3.5698   -5.2055   46.4764 N   0  0  0  0  0  0  0  0  0  0  0  0
    1.1851   -3.5898   40.5866 C   0  0  0  0  0  0  0  0  0  0  0  0
    6.9348   -8.2617   43.0458 C   0  0  2  0  0  0  0  0  0  0  0  0
    6.1210   -7.1502   42.4915 N   0  0  0  0  0  0  0  0  0  0  0  0
    2.8226   -7.4361   45.5916 C   0  0  1  0  0  0  0  0  0  0  0  0
    3.6740   -8.1104   46.6058 O   0  0  0  0  0  0  0  0  0  0  0  0
    1.3662   -4.6521   41.7559 C   0  0  2  0  0  0  0  0  0  0  0  0
    0.0502   -4.9906   42.3390 N   0  0  0  0  0  0  0  0  0  0  0  0
    6.7548   -8.3449   44.6255 C   0  0  1  0  0  0  0  0  0  0  0  0
    5.3709   -8.5201   45.0241 O   0  0  0  0  0  0  0  0  0  0  0  0
    1.5019   -8.2389   45.2110 C   0  0  2  0  0  0  0  0  0  0  0  0
    1.8048   -9.5325   44.7204 O   0  0  0  0  0  0  0  0  0  0  0  0
    2.3187   -4.0641   42.8768 C   0  0  2  0  0  0  0  0  0  0  0  0
    7.6154   -9.5332   45.1602 C   0  0  2  0  0  0  0  0  0  0  0  0
    7.5026   -9.6494   46.5649 O   0  0  0  0  0  0  0  0  0  0  0  0
    0.6602   -7.4447   44.1413 C   0  0  2  0  0  0  0  0  0  0  0  0
    0.3482   -6.0937   44.6531 O   0  0  0  0  0  0  0  0  0  0  0  0
    3.7089   -3.7112   42.2776 C   0  0  2  0  0  0  0  0  0  0  0  0
    4.5130   -3.1423   43.3504 O   0  0  0  0  0  0  0  0  0  0  0  0
    9.1248   -9.3426   44.7305 C   0  0  2  0  0  0  0  0  0  0  0  0
    9.2277   -9.2139   43.2589 O   0  0  0  0  0  0  0  0  0  0  0  0
   -0.6330   -8.1769   43.7857 C   0  0  0  0  0  0  0  0  0  0  0  0
   -0.3645   -9.3772   43.1030 O   0  0  0  0  0  0  0  0  0  0  0  0
    3.5371   -2.6806   41.1372 C   0  0  1  0  0  0  0  0  0  0  0  0
    4.8115   -2.3819   40.6073 O   0  0  0  0  0  0  0  0  0  0  0  0
    9.9960  -10.5009   45.1926 C   0  0  0  0  0  0  0  0  0  0  0  0
   10.0862  -10.5177   46.5967 O   0  0  0  0  0  0  0  0  0  0  0  0
    5.1581   -7.9730   46.3585 C   0  0  0  0  0  0  0  0  0  0  0  0
  1  2  1  6  0  0  0
  1  7  1  0  0  0  0
  1 24  1  0  0  0  0
  3  4  1  6  0  0  0
  3  9  1  0  0  0  0
  3 31  1  0  0  0  0
  5  6  1  1  0  0  0
  5 10  1  0  0  0  0
  5 28  1  0  0  0  0
  7  8  1  6  0  0  0
  7 12  1  0  0  0  0
  9 14  1  0  0  0  0
 10 11  1  1  0  0  0
 10 16  1  0  0  0  0
 12 13  1  1  0  0  0
 12 18  1  0  0  0  0
 13 35  1  0  0  0  0
 14 15  1  1  0  0  0
 14 20  1  0  0  0  0
 16 17  1  6  0  0  0
 16 21  1  0  0  0  0
 17 35  1  0  0  0  0
 18 19  1  6  0  0  0
 18 23  1  0  0  0  0
 20  2  1  1  0  0  0
 20 25  1  0  0  0  0
 21 22  1  1  0  0  0
 21 27  1  0  0  0  0
 23 24  1  0  0  0  0
 23 29  1  1  0  0  0
 25 26  1  1  0  0  0
 25 31  1  0  0  0  0
 27 28  1  0  0  0  0
 27 33  1  6  0  0  0
 29 30  1  0  0  0  0
 31 32  1  6  0  0  0
 33 34  1  0  0  0  0
M  END
>  <CHROM.1>
-157.96726087,-96.86148789,-57.22094936,-153.06088066,175.40161899,-85.16194094
-67.25760809,-66.88805884,4.24965492,-6.74195450,43.80008128,2.46064392,0.12913672
-0.69206796

>  <Name>
2o3v_lig

>  <RI>
0

>  <Rbt.Current_Directory>
/home/afrankz/demos/rdock_decoys_rna/rnas/2o3v

>  <Rbt.Executable>
rbdock ($Id: //depot/dev/client3/rdock/2013.1/src/exe/rbdock.cxx#4 $)

>  <Rbt.Library>
libRbt.so (2013.1, Build901 2013/11/27)

>  <Rbt.Parameter_File>
/export/apps/rDock/src/rDock_2013.1_src/data/scripts/dock_solv.prm

>  <Rbt.Receptor>
prm/pocket_docking_8.prm

>  <SCORE>
-11.5787

>  <SCORE.INTER>
-11.5222

>  <SCORE.INTER.CONST>
1

>  <SCORE.INTER.POLAR>
-0.959166

>  <SCORE.INTER.ROT>
8

>  <SCORE.INTER.SOLV>
16.5452

>  <SCORE.INTER.VDW>
-18.9327

>  <SCORE.INTER.norm>
-0.329207

>  <SCORE.INTRA>
-0.0564957

>  <SCORE.INTRA.DIHEDRAL>
0.125485

>  <SCORE.INTRA.DIHEDRAL.0>
13.1227

>  <SCORE.INTRA.POLAR>
0

>  <SCORE.INTRA.POLAR.0>
0

>  <SCORE.INTRA.REPUL>
0

>  <SCORE.INTRA.REPUL.0>
0

>  <SCORE.INTRA.SOLV>
3.47787

>  <SCORE.INTRA.SOLV.lig_0>
-89.1587

>  <SCORE.INTRA.VDW>
-1.85817

>  <SCORE.INTRA.VDW.0>
-0.838383

>  <SCORE.INTRA.norm>
-0.00161416

>  <SCORE.RESTR>
0

>  <SCORE.RESTR.CAVITY>
0

>  <SCORE.RESTR.norm>
0

>  <SCORE.SYSTEM>
0

>  <SCORE.SYSTEM.CONST>
0

>  <SCORE.SYSTEM.DIHEDRAL>
0

>  <SCORE.SYSTEM.SOLV>
0

>  <SCORE.SYSTEM.norm>
0

>  <SCORE.heavy>
35

>  <SCORE.norm>
-0.330821

>  <RMSD>
9.585

$$$$
2o3v_lig
 OpenBabel02141814113D
libRbt.so/2013.1/901 2013/11/27
 35 37  0  0  0  0  0  0  0  0999 V2000
    0.6041   -8.6330   47.3123 C   0  0  2  0  0  0  0  0  0  0  0  0
   -0.2477   -8.6883   48.4973 O   0  0  0  0  0  0  0  0  0  0  0  0
   -2.7408  -12.2006   47.8842 C   0  0  2  0  0  0  0  0  0  0  0  0
   -3.7287  -13.2926   48.1368 N   0  0  0  0  0  0  0  0  0  0  0  0
    4.0797   -4.5276   42.6463 C   0  0  2  0  0  0  0  0  0  0  0  0
    4.6803   -3.2519   42.9582 O   0  0  0  0  0  0  0  0  0  0  0  0
    1.4815   -7.3663   47.5656 C   0  0  2  0  0  0  0  0  0  0  0  0
    2.2536   -7.4922   48.8243 N   0  0  0  0  0  0  0  0  0  0  0  0
   -1.5321  -12.3091   48.9102 C   0  0  0  0  0  0  0  0  0  0  0  0
    3.1086   -4.8910   43.8224 C   0  0  2  0  0  0  0  0  0  0  0  0
    2.0835   -3.8337   44.0128 N   0  0  0  0  0  0  0  0  0  0  0  0
    0.5993   -6.0437   47.6072 C   0  0  1  0  0  0  0  0  0  0  0  0
    1.4462   -4.8565   47.8931 O   0  0  0  0  0  0  0  0  0  0  0  0
   -0.5026  -11.1306   48.6277 C   0  0  2  0  0  0  0  0  0  0  0  0
    0.6257  -11.2063   49.5804 N   0  0  0  0  0  0  0  0  0  0  0  0
    3.9016   -5.1438   45.1796 C   0  0  1  0  0  0  0  0  0  0  0  0
    3.0297   -5.5149   46.2781 O   0  0  0  0  0  0  0  0  0  0  0  0
   -0.1984   -5.9598   46.2322 C   0  0  2  0  0  0  0  0  0  0  0  0
   -1.0359   -4.8186   46.1875 O   0  0  0  0  0  0  0  0  0  0  0  0
   -1.2327   -9.7315   48.7651 C   0  0  2  0  0  0  0  0  0  0  0  0
    4.9555   -6.2699   44.9351 C   0  0  2  0  0  0  0  0  0  0  0  0
    5.7003   -6.5309   46.1084 O   0  0  0  0  0  0  0  0  0  0  0  0
   -1.0570   -7.2625   46.0101 C   0  0  2  0  0  0  0  0  0  0  0  0
   -0.1823   -8.4528   46.0610 O   0  0  0  0  0  0  0  0  0  0  0  0
   -2.4170   -9.6364   47.7627 C   0  0  2  0  0  0  0  0  0  0  0  0
   -3.0619   -8.3476   47.9727 O   0  0  0  0  0  0  0  0  0  0  0  0
    5.9095   -5.8661   43.7409 C   0  0  2  0  0  0  0  0  0  0  0  0
    5.1167   -5.5875   42.5216 O   0  0  0  0  0  0  0  0  0  0  0  0
   -1.8046   -7.2237   44.6780 C   0  0  0  0  0  0  0  0  0  0  0  0
   -2.8202   -6.2505   44.6949 O   0  0  0  0  0  0  0  0  0  0  0  0
   -3.4192  -10.7833   48.0316 C   0  0  1  0  0  0  0  0  0  0  0  0
   -4.4803  -10.6774   47.1059 O   0  0  0  0  0  0  0  0  0  0  0  0
    6.9279   -6.9544   43.4365 C   0  0  0  0  0  0  0  0  0  0  0  0
    7.7059   -6.6001   42.3189 O   0  0  0  0  0  0  0  0  0  0  0  0
    2.2436   -4.3649   46.7079 C   0  0  0  0  0  0  0  0  0  0  0  0
  1  2  1  1  0  0  0
  1  7  1  0  0  0  0
  1 24  1  0  0  0  0
  3  4  1  1  0  0  0
  3  9  1  0  0  0  0
  3 31  1  0  0  0  0
  5  6  1  1  0  0  0
  5 10  1  0  0  0  0
  5 28  1  0  0  0  0
  7  8  1  1  0  0  0
  7 12  1  0  0  0  0
  9 14  1  0  0  0  0
 10 11  1  1  0  0  0
 10 16  1  0  0  0  0
 12 13  1  6  0  0  0
 12 18  1  0  0  0  0
 13 35  1  0  0  0  0
 14 15  1  1  0  0  0
 14 20  1  0  0  0  0
 16 17  1  1  0  0  0
 16 21  1  0  0  0  0
 17 35  1  0  0  0  0
 18 19  1  1  0  0  0
 18 23  1  0  0  0  0
 20  2  1  6  0  0  0
 20 25  1  0  0  0  0
 21 22  1  1  0  0  0
 21 27  1  0  0  0  0
 23 24  1  0  0  0  0
 23 29  1  6  0  0  0
 25 26  1  1  0  0  0
 25 31  1  0  0  0  0
 27 28  1  0  0  0  0
 27 33  1  6  0  0  0
 29 30  1  0  0  0  0
 31 32  1  6  0  0  0
 33 34  1  0  0  0  0
M  END
>  <CHROM.1>
-177.99372976,77.30993442,-56.52900980,-71.39266815,-176.85074004,52.27871023
-68.84935701,176.38844765,1.04706886,-7.43018148,46.22692185,-2.42277667
0.16750046,-0.47793814

>  <Name>
2o3v_lig

>  <RI>
0

>  <Rbt.Current_Directory>
/home/afrankz/demos/rdock_decoys_rna/rnas/2o3v

>  <Rbt.Executable>
rbdock ($Id: //depot/dev/client3/rdock/2013.1/src/exe/rbdock.cxx#4 $)

>  <Rbt.Library>
libRbt.so (2013.1, Build901 2013/11/27)

>  <Rbt.Parameter_File>
/export/apps/rDock/src/rDock_2013.1_src/data/scripts/dock_solv.prm

>  <Rbt.Receptor>
prm/pocket_docking_5.prm

>  <SCORE>
-12.4344

>  <SCORE.INTER>
-7.89063

>  <SCORE.INTER.CONST>
1

>  <SCORE.INTER.POLAR>
-0.959166

>  <SCORE.INTER.ROT>
8

>  <SCORE.INTER.SOLV>
9.1776

>  <SCORE.INTER.VDW>
-14.0557

>  <SCORE.INTER.norm>
-0.225447

>  <SCORE.INTRA>
-4.54376

>  <SCORE.INTRA.DIHEDRAL>
-10.3385

>  <SCORE.INTRA.DIHEDRAL.0>
13.1227

>  <SCORE.INTRA.POLAR>
0

>  <SCORE.INTRA.POLAR.0>
0

>  <SCORE.INTRA.REPUL>
0

>  <SCORE.INTRA.REPUL.0>
0

>  <SCORE.INTRA.SOLV>
2.84023

>  <SCORE.INTRA.SOLV.lig_0>
-89.1587

>  <SCORE.INTRA.VDW>
-0.794618

>  <SCORE.INTRA.VDW.0>
-0.838383

>  <SCORE.INTRA.norm>
-0.129822

>  <SCORE.RESTR>
0

>  <SCORE.RESTR.CAVITY>
0

>  <SCORE.RESTR.norm>
0

>  <SCORE.SYSTEM>
0

>  <SCORE.SYSTEM.CONST>
0

>  <SCORE.SYSTEM.DIHEDRAL>
0

>  <SCORE.SYSTEM.SOLV>
0

>  <SCORE.SYSTEM.norm>
0

>  <SCORE.heavy>
35

>  <SCORE.norm>
-0.355268

>  <RMSD>
9.603

$$$$
2o3v_lig
 OpenBabel02141814113D
libRbt.so/2013.1/901 2013/11/27
 35 37  0  0  0  0  0  0  0  0999 V2000
   -1.6195   -6.9809   45.7530 C   0  0  2  0  0  0  0  0  0  0  0  0
   -2.6722   -7.8655   45.2609 O   0  0  0  0  0  0  0  0  0  0  0  0
   -7.0075   -7.7689   45.6124 C   0  0  2  0  0  0  0  0  0  0  0  0
   -8.3811   -7.9028   46.1846 N   0  0  0  0  0  0  0  0  0  0  0  0
    5.3426   -4.7816   44.5551 C   0  0  2  0  0  0  0  0  0  0  0  0
    6.2212   -5.6316   43.7863 O   0  0  0  0  0  0  0  0  0  0  0  0
   -0.4207   -7.2939   44.8025 C   0  0  2  0  0  0  0  0  0  0  0  0
   -0.7766   -7.0337   43.3876 N   0  0  0  0  0  0  0  0  0  0  0  0
   -6.2896   -9.1862   45.5772 C   0  0  0  0  0  0  0  0  0  0  0  0
    4.1278   -5.6572   45.0195 C   0  0  2  0  0  0  0  0  0  0  0  0
    4.5863   -6.8289   45.8081 N   0  0  0  0  0  0  0  0  0  0  0  0
    0.0753   -8.7963   44.9637 C   0  0  1  0  0  0  0  0  0  0  0  0
    1.1861   -9.0864   44.0201 O   0  0  0  0  0  0  0  0  0  0  0  0
   -4.8277   -9.0140   44.9759 C   0  0  2  0  0  0  0  0  0  0  0  0
   -4.1371  -10.3212   44.9450 N   0  0  0  0  0  0  0  0  0  0  0  0
    3.2432   -6.1334   43.7843 C   0  0  1  0  0  0  0  0  0  0  0  0
    2.0920   -6.9185   44.1881 O   0  0  0  0  0  0  0  0  0  0  0  0
    0.4479   -9.0131   46.4959 C   0  0  2  0  0  0  0  0  0  0  0  0
    0.8800  -10.3393   46.7418 O   0  0  0  0  0  0  0  0  0  0  0  0
   -4.0006   -7.9867   45.8532 C   0  0  2  0  0  0  0  0  0  0  0  0
    2.7735   -4.8702   42.9953 C   0  0  2  0  0  0  0  0  0  0  0  0
    1.9893   -5.2338   41.8763 O   0  0  0  0  0  0  0  0  0  0  0  0
   -0.7833   -8.6720   47.4186 C   0  0  2  0  0  0  0  0  0  0  0  0
   -1.2355   -7.2892   47.1580 O   0  0  0  0  0  0  0  0  0  0  0  0
   -4.7128   -6.6054   45.8874 C   0  0  2  0  0  0  0  0  0  0  0  0
   -3.9212   -5.7291   46.7398 O   0  0  0  0  0  0  0  0  0  0  0  0
    4.0265   -4.0149   42.5507 C   0  0  2  0  0  0  0  0  0  0  0  0
    4.8431   -3.6483   43.7304 O   0  0  0  0  0  0  0  0  0  0  0  0
   -0.4404   -8.8363   48.8985 C   0  0  0  0  0  0  0  0  0  0  0  0
   -1.5451   -8.5258   49.7123 O   0  0  0  0  0  0  0  0  0  0  0  0
   -6.1368   -6.7688   46.4684 C   0  0  1  0  0  0  0  0  0  0  0  0
   -6.7628   -5.5031   46.4833 O   0  0  0  0  0  0  0  0  0  0  0  0
    3.6156   -2.7486   41.8147 C   0  0  0  0  0  0  0  0  0  0  0  0
    3.0212   -3.0690   40.5802 O   0  0  0  0  0  0  0  0  0  0  0  0
    2.4583   -8.3244   44.3082 C   0  0  0  0  0  0  0  0  0  0  0  0
  1  2  1  6  0  0  0
  1  7  1  0  0  0  0
  1 24  1  0  0  0  0
  3  4  1  1  0  0  0
  3  9  1  0  0  0  0
  3 31  1  0  0  0  0
  5  6  1  6  0  0  0
  5 10  1  0  0  0  0
  5 28  1  0  0  0  0
  7  8  1  6  0  0  0
  7 12  1  0  0  0  0
  9 14  1  0  0  0  0
 10 11  1  6  0  0  0
 10 16  1  0  0  0  0
 12 13  1  6  0  0  0
 12 18  1  0  0  0  0
 13 35  1  0  0  0  0
 14 15  1  1  0  0  0
 14 20  1  0  0  0  0
 16 17  1  1  0  0  0
 16 21  1  0  0  0  0
 17 35  1  0  0  0  0
 18 19  1  6  0  0  0
 18 23  1  0  0  0  0
 20  2  1  6  0  0  0
 20 25  1  0  0  0  0
 21 22  1  6  0  0  0
 21 27  1  0  0  0  0
 23 24  1  0  0  0  0
 23 29  1  1  0  0  0
 25 26  1  1  0  0  0
 25 31  1  0  0  0  0
 27 28  1  0  0  0  0
 27 33  1  1  0  0  0
 29 30  1  0  0  0  0
 31 32  1  6  0  0  0
 33 34  1  0  0  0  0
M  END
>  <CHROM.1>
177.76803653,66.56982938,-60.78381392,-86.77205476,-151.77776561,178.06038866
179.83934358,-66.89941506,-0.37836756,-6.96330247,45.09050222,2.72518656
-0.02287394,2.39317346

>  <Name>
2o3v_lig

>  <RI>
0

>  <Rbt.Current_Directory>
/home/afrankz/demos/rdock_decoys_rna/rnas/2o3v

>  <Rbt.Executable>
rbdock ($Id: //depot/dev/client3/rdock/2013.1/src/exe/rbdock.cxx#4 $)

>  <Rbt.Library>
libRbt.so (2013.1, Build901 2013/11/27)

>  <Rbt.Parameter_File>
/export/apps/rDock/src/rDock_2013.1_src/data/scripts/dock_solv.prm

>  <Rbt.Receptor>
prm/pocket_docking_5.prm

>  <SCORE>
-12.3248

>  <SCORE.INTER>
-9.41242

>  <SCORE.INTER.CONST>
1

>  <SCORE.INTER.POLAR>
-1.55905

>  <SCORE.INTER.ROT>
8

>  <SCORE.INTER.SOLV>
10.5645

>  <SCORE.INTER.VDW>
-13.533

>  <SCORE.INTER.norm>
-0.268926

>  <SCORE.INTRA>
-2.91238

>  <SCORE.INTRA.DIHEDRAL>
-6.39389

>  <SCORE.INTRA.DIHEDRAL.0>
13.1227

>  <SCORE.INTRA.POLAR>
0

>  <SCORE.INTRA.POLAR.0>
0

>  <SCORE.INTRA.REPUL>
0

>  <SCORE.INTRA.REPUL.0>
0

>  <SCORE.INTRA.SOLV>
1.54957

>  <SCORE.INTRA.SOLV.lig_0>
-89.1587

>  <SCORE.INTRA.VDW>
-0.49022

>  <SCORE.INTRA.VDW.0>
-0.838383

>  <SCORE.INTRA.norm>
-0.0832109

>  <SCORE.RESTR>
0

>  <SCORE.RESTR.CAVITY>
0

>  <SCORE.RESTR.norm>
0

>  <SCORE.SYSTEM>
0

>  <SCORE.SYSTEM.CONST>
0

>  <SCORE.SYSTEM.DIHEDRAL>
0

>  <SCORE.SYSTEM.SOLV>
0

>  <SCORE.SYSTEM.norm>
0

>  <SCORE.heavy>
35

>  <SCORE.norm>
-0.352137

>  <RMSD>
9.606

$$$$
2o3v_lig
 OpenBabel02141814113D
libRbt.so/2013.1/901 2013/11/27
 35 37  0  0  0  0  0  0  0  0999 V2000
    0.1569   -6.0143   45.4299 C   0  0  2  0  0  0  0  0  0  0  0  0
   -1.2103   -6.4769   45.6526 O   0  0  0  0  0  0  0  0  0  0  0  0
   -5.0176   -4.4295   46.1417 C   0  0  2  0  0  0  0  0  0  0  0  0
   -6.1257   -3.6355   46.7534 N   0  0  0  0  0  0  0  0  0  0  0  0
    7.6402   -9.5764   46.1151 C   0  0  2  0  0  0  0  0  0  0  0  0
    7.6874  -10.9316   45.6186 O   0  0  0  0  0  0  0  0  0  0  0  0
    0.8733   -7.2833   44.8687 C   0  0  2  0  0  0  0  0  0  0  0  0
    0.2189   -7.7638   43.6289 N   0  0  0  0  0  0  0  0  0  0  0  0
   -4.7650   -5.7536   46.9832 C   0  0  0  0  0  0  0  0  0  0  0  0
    6.1679   -9.2944   46.5749 C   0  0  2  0  0  0  0  0  0  0  0  0
    5.7353  -10.2719   47.6055 N   0  0  0  0  0  0  0  0  0  0  0  0
    0.9127   -8.4549   45.9436 C   0  0  1  0  0  0  0  0  0  0  0  0
    1.5582   -9.6669   45.3755 O   0  0  0  0  0  0  0  0  0  0  0  0
   -3.5753   -6.5731   46.3189 C   0  0  2  0  0  0  0  0  0  0  0  0
   -3.3159   -7.8052   47.0943 N   0  0  0  0  0  0  0  0  0  0  0  0
    5.1581   -9.3044   45.3440 C   0  0  1  0  0  0  0  0  0  0  0  0
    3.7922   -9.0129   45.7365 O   0  0  0  0  0  0  0  0  0  0  0  0
    1.6294   -7.8835   47.2449 C   0  0  2  0  0  0  0  0  0  0  0  0
    1.6891   -8.8557   48.2731 O   0  0  0  0  0  0  0  0  0  0  0  0
   -2.2673   -5.6810   46.2685 C   0  0  2  0  0  0  0  0  0  0  0  0
    5.6445   -8.2542   44.2957 C   0  0  2  0  0  0  0  0  0  0  0  0
    4.7881   -8.2264   43.1708 O   0  0  0  0  0  0  0  0  0  0  0  0
    0.8841   -6.5971   47.7676 C   0  0  2  0  0  0  0  0  0  0  0  0
    0.8192   -5.5851   46.6923 O   0  0  0  0  0  0  0  0  0  0  0  0
   -2.5250   -4.3855   45.4491 C   0  0  2  0  0  0  0  0  0  0  0  0
   -1.2986   -3.6006   45.4796 O   0  0  0  0  0  0  0  0  0  0  0  0
    7.1316   -8.5720   43.8633 C   0  0  2  0  0  0  0  0  0  0  0  0
    8.0156   -8.6066   45.0508 O   0  0  0  0  0  0  0  0  0  0  0  0
    1.5747   -6.0064   48.9960 C   0  0  0  0  0  0  0  0  0  0  0  0
    1.4569   -6.8638   50.1050 O   0  0  0  0  0  0  0  0  0  0  0  0
   -3.6841   -3.5868   46.0899 C   0  0  1  0  0  0  0  0  0  0  0  0
   -3.9012   -2.4199   45.3248 O   0  0  0  0  0  0  0  0  0  0  0  0
    7.6649   -7.5476   42.8733 C   0  0  0  0  0  0  0  0  0  0  0  0
    7.0336   -7.6965   41.6246 O   0  0  0  0  0  0  0  0  0  0  0  0
    2.8700   -9.3995   44.6756 C   0  0  0  0  0  0  0  0  0  0  0  0
  1  2  1  1  0  0  0
  1  7  1  0  0  0  0
  1 24  1  0  0  0  0
  3  4  1  1  0  0  0
  3  9  1  0  0  0  0
  3 31  1  0  0  0  0
  5  6  1  6  0  0  0
  5 10  1  0  0  0  0
  5 28  1  0  0  0  0
  7  8  1  6  0  0  0
  7 12  1  0  0  0  0
  9 14  1  0  0  0  0
 10 11  1  1  0  0  0
 10 16  1  0  0  0  0
 12 13  1  6  0  0  0
 12 18  1  0  0  0  0
 13 35  1  0  0  0  0
 14 15  1  1  0  0  0
 14 20  1  0  0  0  0
 16 17  1  1  0  0  0
 16 21  1  0  0  0  0
 17 35  1  0  0  0  0
 18 19  1  1  0  0  0
 18 23  1  0  0  0  0
 20  2  1  6  0  0  0
 20 25  1  0  0  0  0
 21 22  1  6  0  0  0
 21 27  1  0  0  0  0
 23 24  1  0  0  0  0
 23 29  1  1  0  0  0
 25 26  1  1  0  0  0
 25 31  1  0  0  0  0
 27 28  1  0  0  0  0
 27 33  1  6  0  0  0
 29 30  1  0  0  0  0
 31 32  1  6  0  0  0
 33 34  1  0  0  0  0
M  END
>  <CHROM.1>
175.35433735,48.37853403,68.29147361,-163.99670322,154.45826556,-179.65132193
-67.69099155,-70.65957262,1.58203663,-7.21080583,45.83274926,-3.09112506
-0.42245576,2.03487132

>  <Name>
2o3v_lig

>  <RI>
0

>  <Rbt.Current_Directory>
/home/afrankz/demos/rdock_decoys_rna/rnas/2o3v

>  <Rbt.Executable>
rbdock ($Id: //depot/dev/client3/rdock/2013.1/src/exe/rbdock.cxx#4 $)

>  <Rbt.Library>
libRbt.so (2013.1, Build901 2013/11/27)

>  <Rbt.Parameter_File>
/export/apps/rDock/src/rDock_2013.1_src/data/scripts/dock_solv.prm

>  <Rbt.Receptor>
prm/pocket_docking_5.prm

>  <SCORE>
-12.4862

>  <SCORE.INTER>
-8.95465

>  <SCORE.INTER.CONST>
1

>  <SCORE.INTER.POLAR>
0

>  <SCORE.INTER.ROT>
8

>  <SCORE.INTER.SOLV>
11.5391

>  <SCORE.INTER.VDW>
-18.7495

>  <SCORE.INTER.norm>
-0.255847

>  <SCORE.INTRA>
-3.53157

>  <SCORE.INTRA.DIHEDRAL>
-7.43224

>  <SCORE.INTRA.DIHEDRAL.0>
13.1227

>  <SCORE.INTRA.POLAR>
0

>  <SCORE.INTRA.POLAR.0>
0

>  <SCORE.INTRA.REPUL>
0

>  <SCORE.INTRA.REPUL.0>
0

>  <SCORE.INTRA.SOLV>
-0.20268

>  <SCORE.INTRA.SOLV.lig_0>
-89.1587

>  <SCORE.INTRA.VDW>
0.285886

>  <SCORE.INTRA.VDW.0>
-0.838383

>  <SCORE.INTRA.norm>
-0.100902

>  <SCORE.RESTR>
0

>  <SCORE.RESTR.CAVITY>
0

>  <SCORE.RESTR.norm>
0

>  <SCORE.SYSTEM>
0

>  <SCORE.SYSTEM.CONST>
0

>  <SCORE.SYSTEM.DIHEDRAL>
0

>  <SCORE.SYSTEM.SOLV>
0

>  <SCORE.SYSTEM.norm>
0

>  <SCORE.heavy>
35

>  <SCORE.norm>
-0.356749

>  <RMSD>
9.635

$$$$
2o3v_lig
 OpenBabel02141814113D
libRbt.so/2013.1/901 2013/11/27
 35 37  0  0  0  0  0  0  0  0999 V2000
   -1.4496   -7.7111   46.4696 C   0  0  2  0  0  0  0  0  0  0  0  0
   -2.1856   -8.7699   47.1552 O   0  0  0  0  0  0  0  0  0  0  0  0
   -6.0307   -9.0719   49.1681 C   0  0  2  0  0  0  0  0  0  0  0  0
   -7.1151   -8.8788   50.1775 N   0  0  0  0  0  0  0  0  0  0  0  0
    6.3045   -6.1445   44.6810 C   0  0  2  0  0  0  0  0  0  0  0  0
    6.6698   -6.7752   43.4342 O   0  0  0  0  0  0  0  0  0  0  0  0
   -0.3991   -8.4995   45.6250 C   0  0  2  0  0  0  0  0  0  0  0  0
   -1.0603   -9.4397   44.6895 N   0  0  0  0  0  0  0  0  0  0  0  0
   -4.7740   -9.7720   49.8433 C   0  0  0  0  0  0  0  0  0  0  0  0
    5.5178   -7.2015   45.5308 C   0  0  2  0  0  0  0  0  0  0  0  0
    6.3345   -8.4219   45.7516 N   0  0  0  0  0  0  0  0  0  0  0  0
    0.6193   -9.2935   46.5534 C   0  0  1  0  0  0  0  0  0  0  0  0
    1.5820  -10.0716   45.7311 O   0  0  0  0  0  0  0  0  0  0  0  0
   -3.6318   -9.9550   48.7522 C   0  0  2  0  0  0  0  0  0  0  0  0
   -2.4473  -10.5952   49.3634 N   0  0  0  0  0  0  0  0  0  0  0  0
    4.1282   -7.5809   44.8527 C   0  0  1  0  0  0  0  0  0  0  0  0
    3.3634   -8.5333   45.6354 O   0  0  0  0  0  0  0  0  0  0  0  0
    1.3005   -8.2348   47.5275 C   0  0  2  0  0  0  0  0  0  0  0  0
    2.2118   -8.8579   48.4146 O   0  0  0  0  0  0  0  0  0  0  0  0
   -3.2328   -8.5465   48.1469 C   0  0  2  0  0  0  0  0  0  0  0  0
    3.3005   -6.2718   44.6535 C   0  0  2  0  0  0  0  0  0  0  0  0
    2.0552   -6.5470   44.0427 O   0  0  0  0  0  0  0  0  0  0  0  0
    0.2054   -7.4528   48.3478 C   0  0  2  0  0  0  0  0  0  0  0  0
   -0.7471   -6.8064   47.4207 O   0  0  0  0  0  0  0  0  0  0  0  0
   -4.4687   -7.8662   47.4943 C   0  0  2  0  0  0  0  0  0  0  0  0
   -4.0380   -6.5665   46.9980 O   0  0  0  0  0  0  0  0  0  0  0  0
    4.1302   -5.2336   43.7974 C   0  0  2  0  0  0  0  0  0  0  0  0
    5.4345   -4.9609   44.4435 O   0  0  0  0  0  0  0  0  0  0  0  0
    0.8316   -6.4030   49.2646 C   0  0  0  0  0  0  0  0  0  0  0  0
    1.6267   -7.0057   50.2563 O   0  0  0  0  0  0  0  0  0  0  0  0
   -5.5837   -7.6895   48.5514 C   0  0  1  0  0  0  0  0  0  0  0  0
   -6.6948   -7.0757   47.9327 O   0  0  0  0  0  0  0  0  0  0  0  0
    3.3802   -3.9230   43.6137 C   0  0  0  0  0  0  0  0  0  0  0  0
    4.2587   -2.9102   43.1864 O   0  0  0  0  0  0  0  0  0  0  0  0
    2.4079   -9.2323   44.7846 C   0  0  0  0  0  0  0  0  0  0  0  0
  1  2  1  1  0  0  0
  1  7  1  0  0  0  0
  1 24  1  0  0  0  0
  3  4  1  1  0  0  0
  3  9  1  0  0  0  0
  3 31  1  0  0  0  0
  5  6  1  6  0  0  0
  5 10  1  0  0  0  0
  5 28  1  0  0  0  0
  7  8  1  6  0  0  0
  7 12  1  0  0  0  0
  9 14  1  0  0  0  0
 10 11  1  6  0  0  0
 10 16  1  0  0  0  0
 12 13  1  6  0  0  0
 12 18  1  0  0  0  0
 13 35  1  0  0  0  0
 14 15  1  1  0  0  0
 14 20  1  0  0  0  0
 16 17  1  1  0  0  0
 16 21  1  0  0  0  0
 17 35  1  0  0  0  0
 18 19  1  1  0  0  0
 18 23  1  0  0  0  0
 20  2  1  6  0  0  0
 20 25  1  0  0  0  0
 21 22  1  6  0  0  0
 21 27  1  0  0  0  0
 23 24  1  0  0  0  0
 23 29  1  6  0  0  0
 25 26  1  1  0  0  0
 25 31  1  0  0  0  0
 27 28  1  0  0  0  0
 27 33  1  1  0  0  0
 29 30  1  0  0  0  0
 31 32  1  6  0  0  0
 33 34  1  0  0  0  0
M  END
>  <CHROM.1>
175.73340937,59.13915968,73.13470026,-157.79918769,-174.00192429,-173.32196210
-64.65887233,163.71520248,0.38375173,-7.63378197,46.61579607,2.72575625,-0.20792754
2.51466693

>  <Name>
2o3v_lig

>  <RI>
0

>  <Rbt.Current_Directory>
/home/afrankz/demos/rdock_decoys_rna/rnas/2o3v

>  <Rbt.Executable>
rbdock ($Id: //depot/dev/client3/rdock/2013.1/src/exe/rbdock.cxx#4 $)

>  <Rbt.Library>
libRbt.so (2013.1, Build901 2013/11/27)

>  <Rbt.Parameter_File>
/export/apps/rDock/src/rDock_2013.1_src/data/scripts/dock_solv.prm

>  <Rbt.Receptor>
prm/pocket_docking_3.prm

>  <SCORE>
-12.7251

>  <SCORE.INTER>
-7.29212

>  <SCORE.INTER.CONST>
1

>  <SCORE.INTER.POLAR>
-0.959166

>  <SCORE.INTER.ROT>
8

>  <SCORE.INTER.SOLV>
8.89089

>  <SCORE.INTER.VDW>
-13.5612

>  <SCORE.INTER.norm>
-0.208346

>  <SCORE.INTRA>
-5.43297

>  <SCORE.INTRA.DIHEDRAL>
-8.6364

>  <SCORE.INTRA.DIHEDRAL.0>
13.1227

>  <SCORE.INTRA.POLAR>
0

>  <SCORE.INTRA.POLAR.0>
0

>  <SCORE.INTRA.REPUL>
0

>  <SCORE.INTRA.REPUL.0>
0

>  <SCORE.INTRA.SOLV>
0.0868341

>  <SCORE.INTRA.SOLV.lig_0>
-89.1587

>  <SCORE.INTRA.VDW>
-1.15819

>  <SCORE.INTRA.VDW.0>
-0.838383

>  <SCORE.INTRA.norm>
-0.155228

>  <SCORE.RESTR>
0

>  <SCORE.RESTR.CAVITY>
0

>  <SCORE.RESTR.norm>
0

>  <SCORE.SYSTEM>
0

>  <SCORE.SYSTEM.CONST>
0

>  <SCORE.SYSTEM.DIHEDRAL>
0

>  <SCORE.SYSTEM.SOLV>
0

>  <SCORE.SYSTEM.norm>
0

>  <SCORE.heavy>
35

>  <SCORE.norm>
-0.363574

>  <RMSD>
9.646

$$$$
2o3v_lig
 OpenBabel02141814113D
libRbt.so/2013.1/901 2013/11/27
 35 37  0  0  0  0  0  0  0  0999 V2000
   -2.3873   -9.5878   47.6850 C   0  0  2  0  0  0  0  0  0  0  0  0
   -2.0458  -10.0082   46.3288 O   0  0  0  0  0  0  0  0  0  0  0  0
   -3.8390  -11.9654   42.8819 C   0  0  2  0  0  0  0  0  0  0  0  0
   -4.5856  -12.9582   42.0518 N   0  0  0  0  0  0  0  0  0  0  0  0
    6.8465   -5.5974   47.9212 C   0  0  2  0  0  0  0  0  0  0  0  0
    7.4026   -6.9295   47.9643 O   0  0  0  0  0  0  0  0  0  0  0  0
   -1.4637   -8.3499   47.9154 C   0  0  2  0  0  0  0  0  0  0  0  0
   -1.7180   -7.2962   46.9048 N   0  0  0  0  0  0  0  0  0  0  0  0
   -2.5880  -12.6610   43.5723 C   0  0  0  0  0  0  0  0  0  0  0  0
    5.4136   -5.6646   48.5541 C   0  0  2  0  0  0  0  0  0  0  0  0
    5.4681   -6.1920   49.9411 N   0  0  0  0  0  0  0  0  0  0  0  0
    0.0738   -8.7561   47.8921 C   0  0  1  0  0  0  0  0  0  0  0  0
    0.9358   -7.5586   48.0685 O   0  0  0  0  0  0  0  0  0  0  0  0
   -1.8188  -11.5874   44.4577 C   0  0  2  0  0  0  0  0  0  0  0  0
   -0.6562  -12.2177   45.1191 N   0  0  0  0  0  0  0  0  0  0  0  0
    4.4225   -6.5402   47.6676 C   0  0  1  0  0  0  0  0  0  0  0  0
    3.0791   -6.5920   48.2129 O   0  0  0  0  0  0  0  0  0  0  0  0
    0.2860   -9.8811   48.9980 C   0  0  2  0  0  0  0  0  0  0  0  0
    1.6302  -10.3257   49.0339 O   0  0  0  0  0  0  0  0  0  0  0  0
   -2.7983  -10.9839   45.5465 C   0  0  2  0  0  0  0  0  0  0  0  0
    4.3870   -5.9411   46.2259 C   0  0  2  0  0  0  0  0  0  0  0  0
    3.5273   -6.6877   45.3875 O   0  0  0  0  0  0  0  0  0  0  0  0
   -0.6746  -11.1027   48.7363 C   0  0  2  0  0  0  0  0  0  0  0  0
   -2.0766  -10.6365   48.6951 O   0  0  0  0  0  0  0  0  0  0  0  0
   -4.0216  -10.3111   44.8631 C   0  0  2  0  0  0  0  0  0  0  0  0
   -4.8932   -9.8174   45.9203 O   0  0  0  0  0  0  0  0  0  0  0  0
    5.8495   -5.8873   45.6278 C   0  0  2  0  0  0  0  0  0  0  0  0
    6.7408   -5.1103   46.5192 O   0  0  0  0  0  0  0  0  0  0  0  0
   -0.5172  -12.1820   49.8064 C   0  0  0  0  0  0  0  0  0  0  0  0
   -1.3296  -13.2958   49.5264 O   0  0  0  0  0  0  0  0  0  0  0  0
   -4.7709  -11.3513   43.9979 C   0  0  1  0  0  0  0  0  0  0  0  0
   -5.8723  -10.7146   43.3849 O   0  0  0  0  0  0  0  0  0  0  0  0
    5.8707   -5.2691   44.2380 C   0  0  0  0  0  0  0  0  0  0  0  0
    5.4449   -3.9290   44.2902 O   0  0  0  0  0  0  0  0  0  0  0  0
    2.3941   -7.7931   47.7513 C   0  0  0  0  0  0  0  0  0  0  0  0
  1  2  1  6  0  0  0
  1  7  1  0  0  0  0
  1 24  1  0  0  0  0
  3  4  1  1  0  0  0
  3  9  1  0  0  0  0
  3 31  1  0  0  0  0
  5  6  1  6  0  0  0
  5 10  1  0  0  0  0
  5 28  1  0  0  0  0
  7  8  1  6  0  0  0
  7 12  1  0  0  0  0
  9 14  1  0  0  0  0
 10 11  1  1  0  0  0
 10 16  1  0  0  0  0
 12 13  1  1  0  0  0
 12 18  1  0  0  0  0
 13 35  1  0  0  0  0
 14 15  1  1  0  0  0
 14 20  1  0  0  0  0
 16 17  1  1  0  0  0
 16 21  1  0  0  0  0
 17 35  1  0  0  0  0
 18 19  1  6  0  0  0
 18 23  1  0  0  0  0
 20  2  1  6  0  0  0
 20 25  1  0  0  0  0
 21 22  1  6  0  0  0
 21 27  1  0  0  0  0
 23 24  1  0  0  0  0
 23 29  1  1  0  0  0
 25 26  1  1  0  0  0
 25 31  1  0  0  0  0
 27 28  1  0  0  0  0
 27 33  1  6  0  0  0
 29 30  1  0  0  0  0
 31 32  1  6  0  0  0
 33 34  1  0  0  0  0
M  END
>  <CHROM.1>
-168.61195026,-166.89888504,-170.13668041,-155.64448536,-165.55237488,-156.74227549
-177.03503522,63.24845764,0.64843054,-8.88444950,46.63578219,-3.13463934
-0.57375275,-1.23612161

>  <Name>
2o3v_lig

>  <RI>
0

>  <Rbt.Current_Directory>
/home/afrankz/demos/rdock_decoys_rna/rnas/2o3v

>  <Rbt.Executable>
rbdock ($Id: //depot/dev/client3/rdock/2013.1/src/exe/rbdock.cxx#4 $)

>  <Rbt.Library>
libRbt.so (2013.1, Build901 2013/11/27)

>  <Rbt.Parameter_File>
/export/apps/rDock/src/rDock_2013.1_src/data/scripts/dock_solv.prm

>  <Rbt.Receptor>
prm/pocket_docking_8.prm

>  <SCORE>
-6.81148

>  <SCORE.INTER>
-2.34744

>  <SCORE.INTER.CONST>
1

>  <SCORE.INTER.POLAR>
-0.857407

>  <SCORE.INTER.ROT>
8

>  <SCORE.INTER.SOLV>
10.9689

>  <SCORE.INTER.VDW>
-11.2966

>  <SCORE.INTER.norm>
-0.0670696

>  <SCORE.INTRA>
-4.46404

>  <SCORE.INTRA.DIHEDRAL>
-5.2117

>  <SCORE.INTRA.DIHEDRAL.0>
13.1227

>  <SCORE.INTRA.POLAR>
0

>  <SCORE.INTRA.POLAR.0>
0

>  <SCORE.INTRA.REPUL>
0

>  <SCORE.INTRA.REPUL.0>
0

>  <SCORE.INTRA.SOLV>
-0.643285

>  <SCORE.INTRA.SOLV.lig_0>
-89.1587

>  <SCORE.INTRA.VDW>
-1.53655

>  <SCORE.INTRA.VDW.0>
-0.838383

>  <SCORE.INTRA.norm>
-0.127544

>  <SCORE.RESTR>
0

>  <SCORE.RESTR.CAVITY>
0

>  <SCORE.RESTR.norm>
0

>  <SCORE.SYSTEM>
0

>  <SCORE.SYSTEM.CONST>
0

>  <SCORE.SYSTEM.DIHEDRAL>
0

>  <SCORE.SYSTEM.SOLV>
0

>  <SCORE.SYSTEM.norm>
0

>  <SCORE.heavy>
35

>  <SCORE.norm>
-0.194614

>  <RMSD>
9.647

$$$$
2o3v_lig
 OpenBabel02141814113D
libRbt.so/2013.1/901 2013/11/27
 35 37  0  0  0  0  0  0  0  0999 V2000
    7.2153   -4.9860   44.7018 C   0  0  2  0  0  0  0  0  0  0  0  0
    6.0512   -5.7374   45.1636 O   0  0  0  0  0  0  0  0  0  0  0  0
    1.9520   -6.4713   43.9045 C   0  0  2  0  0  0  0  0  0  0  0  0
    0.7816   -6.8497   43.0565 N   0  0  0  0  0  0  0  0  0  0  0  0
    7.2538  -13.5218   46.9126 C   0  0  2  0  0  0  0  0  0  0  0  0
    8.5330  -13.9504   47.4280 O   0  0  0  0  0  0  0  0  0  0  0  0
    8.1238   -6.0903   44.0745 C   0  0  2  0  0  0  0  0  0  0  0  0
    7.4246   -6.8002   42.9775 N   0  0  0  0  0  0  0  0  0  0  0  0
    2.7310   -5.2517   43.2479 C   0  0  0  0  0  0  0  0  0  0  0  0
    7.5308  -12.5545   45.7101 C   0  0  2  0  0  0  0  0  0  0  0  0
    8.3471  -13.2234   44.6655 N   0  0  0  0  0  0  0  0  0  0  0  0
    8.6090   -7.1381   45.1683 C   0  0  1  0  0  0  0  0  0  0  0  0
    9.4348   -8.2042   44.5440 O   0  0  0  0  0  0  0  0  0  0  0  0
    3.9766   -4.8771   44.1624 C   0  0  2  0  0  0  0  0  0  0  0  0
    4.7229   -3.7503   43.5626 N   0  0  0  0  0  0  0  0  0  0  0  0
    8.2386  -11.2116   46.1900 C   0  0  1  0  0  0  0  0  0  0  0  0
    8.4768  -10.2828   45.1012 O   0  0  0  0  0  0  0  0  0  0  0  0
    9.3554   -6.3210   46.3124 C   0  0  2  0  0  0  0  0  0  0  0  0
    9.8046   -7.1740   47.3499 O   0  0  0  0  0  0  0  0  0  0  0  0
    4.9287   -6.1334   44.3190 C   0  0  2  0  0  0  0  0  0  0  0  0
    7.3395  -10.5380   47.2747 C   0  0  2  0  0  0  0  0  0  0  0  0
    7.9256   -9.3412   47.7474 O   0  0  0  0  0  0  0  0  0  0  0  0
    8.4090   -5.2093   46.9059 C   0  0  2  0  0  0  0  0  0  0  0  0
    7.9380   -4.3224   45.8215 O   0  0  0  0  0  0  0  0  0  0  0  0
    4.1574   -7.3232   44.9560 C   0  0  2  0  0  0  0  0  0  0  0  0
    5.0791   -8.4483   45.0315 O   0  0  0  0  0  0  0  0  0  0  0  0
    7.0817  -11.5468   48.4643 C   0  0  2  0  0  0  0  0  0  0  0  0
    6.4760  -12.7983   47.9545 O   0  0  0  0  0  0  0  0  0  0  0  0
    9.1146   -4.3850   47.9818 C   0  0  0  0  0  0  0  0  0  0  0  0
    9.4362   -5.1779   49.0983 O   0  0  0  0  0  0  0  0  0  0  0  0
    2.9426   -7.6887   44.0712 C   0  0  1  0  0  0  0  0  0  0  0  0
    2.2573   -8.7663   44.6739 O   0  0  0  0  0  0  0  0  0  0  0  0
    6.1725  -10.9488   49.5272 C   0  0  0  0  0  0  0  0  0  0  0  0
    5.9846  -11.8606   50.5823 O   0  0  0  0  0  0  0  0  0  0  0  0
    9.6190   -9.4302   45.4073 C   0  0  0  0  0  0  0  0  0  0  0  0
  1  2  1  1  0  0  0
  1  7  1  0  0  0  0
  1 24  1  0  0  0  0
  3  4  1  6  0  0  0
  3  9  1  0  0  0  0
  3 31  1  0  0  0  0
  5  6  1  1  0  0  0
  5 10  1  0  0  0  0
  5 28  1  0  0  0  0
  7  8  1  6  0  0  0
  7 12  1  0  0  0  0
  9 14  1  0  0  0  0
 10 11  1  6  0  0  0
 10 16  1  0  0  0  0
 12 13  1  6  0  0  0
 12 18  1  0  0  0  0
 13 35  1  0  0  0  0
 14 15  1  6  0  0  0
 14 20  1  0  0  0  0
 16 17  1  6  0  0  0
 16 21  1  0  0  0  0
 17 35  1  0  0  0  0
 18 19  1  1  0  0  0
 18 23  1  0  0  0  0
 20  2  1  1  0  0  0
 20 25  1  0  0  0  0
 21 22  1  1  0  0  0
 21 27  1  0  0  0  0
 23 24  1  0  0  0  0
 23 29  1  1  0  0  0
 25 26  1  6  0  0  0
 25 31  1  0  0  0  0
 27 28  1  0  0  0  0
 27 33  1  1  0  0  0
 29 30  1  0  0  0  0
 31 32  1  1  0  0  0
 33 34  1  0  0  0  0
M  END
>  <CHROM.1>
-82.38672121,-163.93484063,87.80568722,-153.03983987,-157.74199513,-80.17704590
-64.83733657,-178.85143926,6.70450334,-8.27007757,45.88071238,-2.01288279
0.42777651,2.87779037

>  <Name>
2o3v_lig

>  <RI>
0

>  <Rbt.Current_Directory>
/home/afrankz/demos/rdock_decoys_rna/rnas/2o3v

>  <Rbt.Executable>
rbdock ($Id: //depot/dev/client3/rdock/2013.1/src/exe/rbdock.cxx#4 $)

>  <Rbt.Library>
libRbt.so (2013.1, Build901 2013/11/27)

>  <Rbt.Parameter_File>
/export/apps/rDock/src/rDock_2013.1_src/data/scripts/dock_solv.prm

>  <Rbt.Receptor>
prm/pocket_docking_7.prm

>  <SCORE>
-7.57937

>  <SCORE.INTER>
-7.09983

>  <SCORE.INTER.CONST>
1

>  <SCORE.INTER.POLAR>
-1.24052

>  <SCORE.INTER.ROT>
8

>  <SCORE.INTER.SOLV>
15.9668

>  <SCORE.INTER.VDW>
-14.8538

>  <SCORE.INTER.norm>
-0.202852

>  <SCORE.INTRA>
-0.479538

>  <SCORE.INTRA.DIHEDRAL>
0.628104

>  <SCORE.INTRA.DIHEDRAL.0>
13.1227

>  <SCORE.INTRA.POLAR>
0

>  <SCORE.INTRA.POLAR.0>
0

>  <SCORE.INTRA.REPUL>
0.0207667

>  <SCORE.INTRA.REPUL.0>
0

>  <SCORE.INTRA.SOLV>
2.84972

>  <SCORE.INTRA.SOLV.lig_0>
-89.1587

>  <SCORE.INTRA.VDW>
-2.32228

>  <SCORE.INTRA.VDW.0>
-0.838383

>  <SCORE.INTRA.norm>
-0.0137011

>  <SCORE.RESTR>
0

>  <SCORE.RESTR.CAVITY>
0

>  <SCORE.RESTR.norm>
0

>  <SCORE.SYSTEM>
0

>  <SCORE.SYSTEM.CONST>
0

>  <SCORE.SYSTEM.DIHEDRAL>
0

>  <SCORE.SYSTEM.SOLV>
0

>  <SCORE.SYSTEM.norm>
0

>  <SCORE.heavy>
35

>  <SCORE.norm>
-0.216553

>  <RMSD>
9.689

$$$$
2o3v_lig
 OpenBabel02141814113D
libRbt.so/2013.1/901 2013/11/27
 35 37  0  0  0  0  0  0  0  0999 V2000
   -1.6749   -4.5914   42.3548 C   0  0  2  0  0  0  0  0  0  0  0  0
   -0.3583   -4.1158   42.7710 O   0  0  0  0  0  0  0  0  0  0  0  0
    3.2640   -3.2049   40.5402 C   0  0  2  0  0  0  0  0  0  0  0  0
    4.2333   -2.5002   39.6480 N   0  0  0  0  0  0  0  0  0  0  0  0
   -1.4247    4.1073   40.8130 C   0  0  2  0  0  0  0  0  0  0  0  0
   -0.2913    3.4497   40.2059 O   0  0  0  0  0  0  0  0  0  0  0  0
   -2.4477   -3.2701   42.0464 C   0  0  2  0  0  0  0  0  0  0  0  0
   -1.7621   -2.4810   40.9959 N   0  0  0  0  0  0  0  0  0  0  0  0
    1.9613   -3.6059   39.7231 C   0  0  0  0  0  0  0  0  0  0  0  0
   -2.1162    3.0709   41.7649 C   0  0  2  0  0  0  0  0  0  0  0  0
   -1.1629    2.5664   42.7855 N   0  0  0  0  0  0  0  0  0  0  0  0
   -2.6291   -2.3812   43.3527 C   0  0  1  0  0  0  0  0  0  0  0  0
   -3.3269   -1.1096   43.0297 O   0  0  0  0  0  0  0  0  0  0  0  0
    0.9428   -4.3428   40.6968 C   0  0  2  0  0  0  0  0  0  0  0  0
   -0.2829   -4.7147   39.9582 N   0  0  0  0  0  0  0  0  0  0  0  0
   -2.7476    1.8578   40.9497 C   0  0  1  0  0  0  0  0  0  0  0  0
   -3.4237    0.8994   41.8037 O   0  0  0  0  0  0  0  0  0  0  0  0
   -3.3738   -3.2762   44.4381 C   0  0  2  0  0  0  0  0  0  0  0  0
   -3.5587   -2.5716   45.6527 O   0  0  0  0  0  0  0  0  0  0  0  0
    0.5751   -3.3946   41.9114 C   0  0  2  0  0  0  0  0  0  0  0  0
   -3.7509    2.4344   39.9012 C   0  0  2  0  0  0  0  0  0  0  0  0
   -4.3371    1.3988   39.1373 O   0  0  0  0  0  0  0  0  0  0  0  0
   -2.5688   -4.6041   44.7073 C   0  0  2  0  0  0  0  0  0  0  0  0
   -2.3733   -5.3363   43.4384 O   0  0  0  0  0  0  0  0  0  0  0  0
    1.8553   -3.0025   42.7010 C   0  0  2  0  0  0  0  0  0  0  0  0
    1.4473   -2.1035   43.7718 O   0  0  0  0  0  0  0  0  0  0  0  0
   -3.0155    3.4761   38.9667 C   0  0  2  0  0  0  0  0  0  0  0  0
   -2.3993    4.5498   39.7794 O   0  0  0  0  0  0  0  0  0  0  0  0
   -3.2820   -5.4995   45.7193 C   0  0  0  0  0  0  0  0  0  0  0  0
   -3.5028   -4.8195   46.9308 O   0  0  0  0  0  0  0  0  0  0  0  0
    2.8504   -2.2884   41.7566 C   0  0  1  0  0  0  0  0  0  0  0  0
    4.0046   -1.9484   42.4959 O   0  0  0  0  0  0  0  0  0  0  0  0
   -3.9654    4.0986   37.9547 C   0  0  0  0  0  0  0  0  0  0  0  0
   -3.2634    4.9488   37.0805 O   0  0  0  0  0  0  0  0  0  0  0  0
   -2.4862   -0.1210   42.2564 C   0  0  0  0  0  0  0  0  0  0  0  0
  1  2  1  1  0  0  0
  1  7  1  0  0  0  0
  1 24  1  0  0  0  0
  3  4  1  6  0  0  0
  3  9  1  0  0  0  0
  3 31  1  0  0  0  0
  5  6  1  6  0  0  0
  5 10  1  0  0  0  0
  5 28  1  0  0  0  0
  7  8  1  6  0  0  0
  7 12  1  0  0  0  0
  9 14  1  0  0  0  0
 10 11  1  1  0  0  0
 10 16  1  0  0  0  0
 12 13  1  6  0  0  0
 12 18  1  0  0  0  0
 13 35  1  0  0  0  0
 14 15  1  6  0  0  0
 14 20  1  0  0  0  0
 16 17  1  1  0  0  0
 16 21  1  0  0  0  0
 17 35  1  0  0  0  0
 18 19  1  1  0  0  0
 18 23  1  0  0  0  0
 20  2  1  1  0  0  0
 20 25  1  0  0  0  0
 21 22  1  6  0  0  0
 21 27  1  0  0  0  0
 23 24  1  0  0  0  0
 23 29  1  1  0  0  0
 25 26  1  1  0  0  0
 25 31  1  0  0  0  0
 27 28  1  0  0  0  0
 27 33  1  6  0  0  0
 29 30  1  0  0  0  0
 31 32  1  1  0  0  0
 33 34  1  0  0  0  0
M  END
>  <CHROM.1>
-64.29637416,-72.04861185,168.17209222,-89.05670734,-175.37419931,-61.17947446
-56.93529492,-175.91874004,-1.29849309,-1.06646970,41.79112191,1.30978265
-0.40748332,2.57395081

>  <Name>
2o3v_lig

>  <RI>
0

>  <Rbt.Current_Directory>
/home/afrankz/demos/rdock_decoys_rna/rnas/2o3v

>  <Rbt.Executable>
rbdock ($Id: //depot/dev/client3/rdock/2013.1/src/exe/rbdock.cxx#4 $)

>  <Rbt.Library>
libRbt.so (2013.1, Build901 2013/11/27)

>  <Rbt.Parameter_File>
/export/apps/rDock/src/rDock_2013.1_src/data/scripts/dock_solv.prm

>  <Rbt.Receptor>
prm/blind_docking_60.prm

>  <SCORE>
-3.48759

>  <SCORE.INTER>
-3.2983

>  <SCORE.INTER.CONST>
1

>  <SCORE.INTER.POLAR>
-0.712848

>  <SCORE.INTER.ROT>
8

>  <SCORE.INTER.SOLV>
14.6403

>  <SCORE.INTER.VDW>
-13.6362

>  <SCORE.INTER.norm>
-0.0942373

>  <SCORE.INTRA>
-0.955182

>  <SCORE.INTRA.DIHEDRAL>
-7.99149

>  <SCORE.INTRA.DIHEDRAL.0>
13.1227

>  <SCORE.INTRA.POLAR>
0

>  <SCORE.INTRA.POLAR.0>
0

>  <SCORE.INTRA.REPUL>
0

>  <SCORE.INTRA.REPUL.0>
0

>  <SCORE.INTRA.SOLV>
5.3511

>  <SCORE.INTRA.SOLV.lig_0>
-89.1587

>  <SCORE.INTRA.VDW>
0.365012

>  <SCORE.INTRA.VDW.0>
-0.838383

>  <SCORE.INTRA.norm>
-0.0272909

>  <SCORE.RESTR>
0.7659

>  <SCORE.RESTR.CAVITY>
0.7659

>  <SCORE.RESTR.norm>
0.0218829

>  <SCORE.SYSTEM>
0

>  <SCORE.SYSTEM.CONST>
0

>  <SCORE.SYSTEM.DIHEDRAL>
0

>  <SCORE.SYSTEM.SOLV>
0

>  <SCORE.SYSTEM.norm>
0

>  <SCORE.heavy>
35

>  <SCORE.norm>
-0.0996453

>  <RMSD>
9.691

$$$$
2o3v_lig
 OpenBabel02141814113D
libRbt.so/2013.1/901 2013/11/27
 35 37  0  0  0  0  0  0  0  0999 V2000
    1.6356   -7.5458   45.6668 C   0  0  2  0  0  0  0  0  0  0  0  0
    0.2185   -7.2891   45.9093 O   0  0  0  0  0  0  0  0  0  0  0  0
   -3.5111   -9.4415   45.2891 C   0  0  2  0  0  0  0  0  0  0  0  0
   -4.6574  -10.1122   44.6048 N   0  0  0  0  0  0  0  0  0  0  0  0
    8.5797   -6.6755   49.1742 C   0  0  2  0  0  0  0  0  0  0  0  0
    8.3798   -8.1008   49.0557 O   0  0  0  0  0  0  0  0  0  0  0  0
    2.2694   -7.4044   47.0869 C   0  0  2  0  0  0  0  0  0  0  0  0
    1.6655   -8.3642   48.0411 N   0  0  0  0  0  0  0  0  0  0  0  0
   -3.4554   -7.9059   44.8839 C   0  0  0  0  0  0  0  0  0  0  0  0
    7.1755   -6.0216   49.4172 C   0  0  2  0  0  0  0  0  0  0  0  0
    6.5267   -6.5873   50.6272 N   0  0  0  0  0  0  0  0  0  0  0  0
    2.1202   -5.9238   47.6482 C   0  0  1  0  0  0  0  0  0  0  0  0
    2.6894   -5.8215   49.0171 O   0  0  0  0  0  0  0  0  0  0  0  0
   -2.2218   -7.2192   45.6154 C   0  0  2  0  0  0  0  0  0  0  0  0
   -2.1448   -5.7904   45.2424 N   0  0  0  0  0  0  0  0  0  0  0  0
    6.2252   -6.1880   48.1507 C   0  0  1  0  0  0  0  0  0  0  0  0
    4.9293   -5.5624   48.3356 O   0  0  0  0  0  0  0  0  0  0  0  0
    2.7900   -4.9430   46.5884 C   0  0  2  0  0  0  0  0  0  0  0  0
    2.6830   -3.5903   46.9940 O   0  0  0  0  0  0  0  0  0  0  0  0
   -0.8780   -7.9556   45.2139 C   0  0  2  0  0  0  0  0  0  0  0  0
    6.9413   -5.5679   46.9092 C   0  0  2  0  0  0  0  0  0  0  0  0
    6.1451   -5.6967   45.7477 O   0  0  0  0  0  0  0  0  0  0  0  0
    2.1320   -5.1294   45.1686 C   0  0  2  0  0  0  0  0  0  0  0  0
    2.2410   -6.5423   44.7485 O   0  0  0  0  0  0  0  0  0  0  0  0
   -0.9434   -9.4578   45.6080 C   0  0  2  0  0  0  0  0  0  0  0  0
    0.3023  -10.0756   45.1748 O   0  0  0  0  0  0  0  0  0  0  0  0
    8.3522   -6.2508   46.7032 C   0  0  2  0  0  0  0  0  0  0  0  0
    9.1720   -6.1161   47.9290 O   0  0  0  0  0  0  0  0  0  0  0  0
    2.7830   -4.2249   44.1232 C   0  0  0  0  0  0  0  0  0  0  0  0
    4.0022   -4.7646   43.6747 O   0  0  0  0  0  0  0  0  0  0  0  0
   -2.1443  -10.1290   44.9013 C   0  0  1  0  0  0  0  0  0  0  0  0
   -2.1843  -11.4888   45.2799 O   0  0  0  0  0  0  0  0  0  0  0  0
    9.1074   -5.6475   45.5286 C   0  0  0  0  0  0  0  0  0  0  0  0
    8.4319   -5.9115   44.3228 O   0  0  0  0  0  0  0  0  0  0  0  0
    4.0738   -6.4096   49.1576 C   0  0  0  0  0  0  0  0  0  0  0  0
  1  2  1  1  0  0  0
  1  7  1  0  0  0  0
  1 24  1  0  0  0  0
  3  4  1  6  0  0  0
  3  9  1  0  0  0  0
  3 31  1  0  0  0  0
  5  6  1  6  0  0  0
  5 10  1  0  0  0  0
  5 28  1  0  0  0  0
  7  8  1  1  0  0  0
  7 12  1  0  0  0  0
  9 14  1  0  0  0  0
 10 11  1  1  0  0  0
 10 16  1  0  0  0  0
 12 13  1  1  0  0  0
 12 18  1  0  0  0  0
 13 35  1  0  0  0  0
 14 15  1  6  0  0  0
 14 20  1  0  0  0  0
 16 17  1  1  0  0  0
 16 21  1  0  0  0  0
 17 35  1  0  0  0  0
 18 19  1  1  0  0  0
 18 23  1  0  0  0  0
 20  2  1  1  0  0  0
 20 25  1  0  0  0  0
 21 22  1  6  0  0  0
 21 27  1  0  0  0  0
 23 24  1  0  0  0  0
 23 29  1  6  0  0  0
 25 26  1  6  0  0  0
 25 31  1  0  0  0  0
 27 28  1  0  0  0  0
 27 33  1  6  0  0  0
 29 30  1  0  0  0  0
 31 32  1  1  0  0  0
 33 34  1  0  0  0  0
M  END
>  <CHROM.1>
-144.33413321,48.95839221,65.81774438,-78.59077262,-167.54203643,-171.15324945
79.23540425,-65.13755491,2.90059636,-6.89782249,46.49051923,3.13241189,0.36159461
2.30951443

>  <Name>
2o3v_lig

>  <RI>
0

>  <Rbt.Current_Directory>
/home/afrankz/demos/rdock_decoys_rna/rnas/2o3v

>  <Rbt.Executable>
rbdock ($Id: //depot/dev/client3/rdock/2013.1/src/exe/rbdock.cxx#4 $)

>  <Rbt.Library>
libRbt.so (2013.1, Build901 2013/11/27)

>  <Rbt.Parameter_File>
/export/apps/rDock/src/rDock_2013.1_src/data/scripts/dock_solv.prm

>  <Rbt.Receptor>
prm/pocket_docking_6.prm

>  <SCORE>
-7.27916

>  <SCORE.INTER>
-5.19606

>  <SCORE.INTER.CONST>
1

>  <SCORE.INTER.POLAR>
-0.916131

>  <SCORE.INTER.ROT>
8

>  <SCORE.INTER.SOLV>
8.09

>  <SCORE.INTER.VDW>
-12.0403

>  <SCORE.INTER.norm>
-0.148459

>  <SCORE.INTRA>
-2.0831

>  <SCORE.INTRA.DIHEDRAL>
-3.67133

>  <SCORE.INTRA.DIHEDRAL.0>
13.1227

>  <SCORE.INTRA.POLAR>
0

>  <SCORE.INTRA.POLAR.0>
0

>  <SCORE.INTRA.REPUL>
0

>  <SCORE.INTRA.REPUL.0>
0

>  <SCORE.INTRA.SOLV>
2.11738

>  <SCORE.INTRA.SOLV.lig_0>
-89.1587

>  <SCORE.INTRA.VDW>
-1.30612

>  <SCORE.INTRA.VDW.0>
-0.838383

>  <SCORE.INTRA.norm>
-0.0595172

>  <SCORE.RESTR>
0

>  <SCORE.RESTR.CAVITY>
0

>  <SCORE.RESTR.norm>
0

>  <SCORE.SYSTEM>
0

>  <SCORE.SYSTEM.CONST>
0

>  <SCORE.SYSTEM.DIHEDRAL>
0

>  <SCORE.SYSTEM.SOLV>
0

>  <SCORE.SYSTEM.norm>
0

>  <SCORE.heavy>
35

>  <SCORE.norm>
-0.207976

>  <RMSD>
9.694

$$$$
2o3v_lig
 OpenBabel02141814113D
libRbt.so/2013.1/901 2013/11/27
 35 37  0  0  0  0  0  0  0  0999 V2000
   -2.0506   -6.5366   45.8740 C   0  0  2  0  0  0  0  0  0  0  0  0
   -3.3005   -7.1117   45.3842 O   0  0  0  0  0  0  0  0  0  0  0  0
   -6.1612   -6.3919   48.5820 C   0  0  2  0  0  0  0  0  0  0  0  0
   -7.4512   -6.3151   49.3318 N   0  0  0  0  0  0  0  0  0  0  0  0
    4.6554   -5.9636   45.5889 C   0  0  2  0  0  0  0  0  0  0  0  0
    5.1321   -6.4440   46.8647 O   0  0  0  0  0  0  0  0  0  0  0  0
   -1.0207   -6.9350   44.7699 C   0  0  2  0  0  0  0  0  0  0  0  0
   -1.4205   -6.4012   43.4464 N   0  0  0  0  0  0  0  0  0  0  0  0
   -6.2170   -5.4533   47.3009 C   0  0  0  0  0  0  0  0  0  0  0  0
    3.2511   -6.6133   45.3358 C   0  0  2  0  0  0  0  0  0  0  0  0
    2.3066   -6.2850   46.4336 N   0  0  0  0  0  0  0  0  0  0  0  0
   -0.8418   -8.5128   44.6804 C   0  0  1  0  0  0  0  0  0  0  0  0
    0.1077   -8.8727   43.5953 O   0  0  0  0  0  0  0  0  0  0  0  0
   -4.8386   -5.5623   46.5157 C   0  0  2  0  0  0  0  0  0  0  0  0
   -4.8737   -4.7042   45.3121 N   0  0  0  0  0  0  0  0  0  0  0  0
    3.3604   -8.1912   45.1532 C   0  0  1  0  0  0  0  0  0  0  0  0
    2.0785   -8.8150   44.8842 O   0  0  0  0  0  0  0  0  0  0  0  0
   -0.4077   -9.0255   46.1234 C   0  0  2  0  0  0  0  0  0  0  0  0
   -0.2474  -10.4325   46.1473 O   0  0  0  0  0  0  0  0  0  0  0  0
   -4.5723   -7.0672   46.0988 C   0  0  2  0  0  0  0  0  0  0  0  0
    4.3504   -8.4869   43.9824 C   0  0  2  0  0  0  0  0  0  0  0  0
    4.4957   -9.8789   43.7805 O   0  0  0  0  0  0  0  0  0  0  0  0
   -1.4654   -8.5892   47.2072 C   0  0  2  0  0  0  0  0  0  0  0  0
   -1.6344   -7.1211   47.1784 O   0  0  0  0  0  0  0  0  0  0  0  0
   -4.5255   -7.9789   47.3569 C   0  0  2  0  0  0  0  0  0  0  0  0
   -4.3187   -9.3450   46.8963 O   0  0  0  0  0  0  0  0  0  0  0  0
    5.7495   -7.8115   44.2750 C   0  0  2  0  0  0  0  0  0  0  0  0
    5.5819   -6.3564   44.4928 O   0  0  0  0  0  0  0  0  0  0  0  0
   -1.0531   -9.0373   48.6086 C   0  0  0  0  0  0  0  0  0  0  0  0
   -2.0630   -8.7588   49.5474 O   0  0  0  0  0  0  0  0  0  0  0  0
   -5.8633   -7.8732   48.1258 C   0  0  1  0  0  0  0  0  0  0  0  0
   -5.7926   -8.7049   49.2648 O   0  0  0  0  0  0  0  0  0  0  0  0
    6.7357   -8.0361   43.1388 C   0  0  0  0  0  0  0  0  0  0  0  0
    6.2937   -7.3894   41.9699 O   0  0  0  0  0  0  0  0  0  0  0  0
    1.4602   -8.2098   43.7109 C   0  0  0  0  0  0  0  0  0  0  0  0
  1  2  1  6  0  0  0
  1  7  1  0  0  0  0
  1 24  1  0  0  0  0
  3  4  1  6  0  0  0
  3  9  1  0  0  0  0
  3 31  1  0  0  0  0
  5  6  1  1  0  0  0
  5 10  1  0  0  0  0
  5 28  1  0  0  0  0
  7  8  1  6  0  0  0
  7 12  1  0  0  0  0
  9 14  1  0  0  0  0
 10 11  1  1  0  0  0
 10 16  1  0  0  0  0
 12 13  1  6  0  0  0
 12 18  1  0  0  0  0
 13 35  1  0  0  0  0
 14 15  1  6  0  0  0
 14 20  1  0  0  0  0
 16 17  1  6  0  0  0
 16 21  1  0  0  0  0
 17 35  1  0  0  0  0
 18 19  1  6  0  0  0
 18 23  1  0  0  0  0
 20  2  1  1  0  0  0
 20 25  1  0  0  0  0
 21 22  1  1  0  0  0
 21 27  1  0  0  0  0
 23 24  1  0  0  0  0
 23 29  1  1  0  0  0
 25 26  1  6  0  0  0
 25 31  1  0  0  0  0
 27 28  1  0  0  0  0
 27 33  1  6  0  0  0
 29 30  1  0  0  0  0
 31 32  1  1  0  0  0
 33 34  1  0  0  0  0
M  END
>  <CHROM.1>
177.07620567,55.47175688,68.53496617,56.16655586,-176.25272490,51.08441070
-174.24375450,65.15781220,-0.36252175,-7.61481833,45.90734858,2.93516689
-0.27016821,2.32460892

>  <Name>
2o3v_lig

>  <RI>
0

>  <Rbt.Current_Directory>
/home/afrankz/demos/rdock_decoys_rna/rnas/2o3v

>  <Rbt.Executable>
rbdock ($Id: //depot/dev/client3/rdock/2013.1/src/exe/rbdock.cxx#4 $)

>  <Rbt.Library>
libRbt.so (2013.1, Build901 2013/11/27)

>  <Rbt.Parameter_File>
/export/apps/rDock/src/rDock_2013.1_src/data/scripts/dock_solv.prm

>  <Rbt.Receptor>
prm/pocket_docking_3.prm

>  <SCORE>
-8.95129

>  <SCORE.INTER>
-3.92639

>  <SCORE.INTER.CONST>
1

>  <SCORE.INTER.POLAR>
0

>  <SCORE.INTER.ROT>
8

>  <SCORE.INTER.SOLV>
8.92371

>  <SCORE.INTER.VDW>
-14.5255

>  <SCORE.INTER.norm>
-0.112183

>  <SCORE.INTRA>
-5.08016

>  <SCORE.INTRA.DIHEDRAL>
-11.8273

>  <SCORE.INTRA.DIHEDRAL.0>
13.1227

>  <SCORE.INTRA.POLAR>
0

>  <SCORE.INTRA.POLAR.0>
0

>  <SCORE.INTRA.REPUL>
0

>  <SCORE.INTRA.REPUL.0>
0

>  <SCORE.INTRA.SOLV>
3.03648

>  <SCORE.INTRA.SOLV.lig_0>
-89.1587

>  <SCORE.INTRA.VDW>
-0.684745

>  <SCORE.INTRA.VDW.0>
-0.838383

>  <SCORE.INTRA.norm>
-0.145147

>  <SCORE.RESTR>
0.0552528

>  <SCORE.RESTR.CAVITY>
0.0552528

>  <SCORE.RESTR.norm>
0.00157865

>  <SCORE.SYSTEM>
0

>  <SCORE.SYSTEM.CONST>
0

>  <SCORE.SYSTEM.DIHEDRAL>
0

>  <SCORE.SYSTEM.SOLV>
0

>  <SCORE.SYSTEM.norm>
0

>  <SCORE.heavy>
35

>  <SCORE.norm>
-0.255751

>  <RMSD>
9.705

$$$$
2o3v_lig
 OpenBabel02141814113D
libRbt.so/2013.1/901 2013/11/27
 35 37  0  0  0  0  0  0  0  0999 V2000
    4.5252   -9.3458   50.8851 C   0  0  2  0  0  0  0  0  0  0  0  0
    4.4057  -10.0111   49.5905 O   0  0  0  0  0  0  0  0  0  0  0  0
    4.6514  -14.0838   48.0806 C   0  0  2  0  0  0  0  0  0  0  0  0
    4.3668  -15.5377   47.8873 N   0  0  0  0  0  0  0  0  0  0  0  0
    4.4010   -4.9274   43.1683 C   0  0  2  0  0  0  0  0  0  0  0  0
    4.8146   -3.5521   43.3206 O   0  0  0  0  0  0  0  0  0  0  0  0
    4.2726   -7.8448   50.5367 C   0  0  2  0  0  0  0  0  0  0  0  0
    2.9415   -7.6560   49.9132 N   0  0  0  0  0  0  0  0  0  0  0  0
    5.1078  -13.8107   49.5781 C   0  0  0  0  0  0  0  0  0  0  0  0
    3.9879   -5.4546   44.5859 C   0  0  2  0  0  0  0  0  0  0  0  0
    2.9094   -4.6187   45.1717 N   0  0  0  0  0  0  0  0  0  0  0  0
    5.4019   -7.2704   49.5753 C   0  0  1  0  0  0  0  0  0  0  0  0
    5.1194   -5.8552   49.2205 O   0  0  0  0  0  0  0  0  0  0  0  0
    5.3927  -12.2569   49.7599 C   0  0  2  0  0  0  0  0  0  0  0  0
    5.8082  -11.9790   51.1515 N   0  0  0  0  0  0  0  0  0  0  0  0
    5.2356   -5.5195   45.5729 C   0  0  1  0  0  0  0  0  0  0  0  0
    4.8882   -6.0360   46.8833 O   0  0  0  0  0  0  0  0  0  0  0  0
    6.8021   -7.4943   50.2984 C   0  0  2  0  0  0  0  0  0  0  0  0
    7.8774   -7.0327   49.5006 O   0  0  0  0  0  0  0  0  0  0  0  0
    4.0916  -11.4246   49.4081 C   0  0  2  0  0  0  0  0  0  0  0  0
    6.3351   -6.4180   44.9229 C   0  0  2  0  0  0  0  0  0  0  0  0
    7.4762   -6.5039   45.7535 O   0  0  0  0  0  0  0  0  0  0  0  0
    7.0088   -9.0178   50.6448 C   0  0  2  0  0  0  0  0  0  0  0  0
    5.8840   -9.4991   51.4741 O   0  0  0  0  0  0  0  0  0  0  0  0
    3.6487  -11.7024   47.9442 C   0  0  2  0  0  0  0  0  0  0  0  0
    2.4313  -10.9393   47.7060 O   0  0  0  0  0  0  0  0  0  0  0  0
    6.7183   -5.8549   43.4962 C   0  0  2  0  0  0  0  0  0  0  0  0
    5.5137   -5.7621   42.6400 O   0  0  0  0  0  0  0  0  0  0  0  0
    8.3305   -9.2552   51.3738 C   0  0  0  0  0  0  0  0  0  0  0  0
    8.5511  -10.6276   51.5894 O   0  0  0  0  0  0  0  0  0  0  0  0
    3.3739  -13.2135   47.7619 C   0  0  1  0  0  0  0  0  0  0  0  0
    2.9795  -13.4393   46.4249 O   0  0  0  0  0  0  0  0  0  0  0  0
    7.7571   -6.7245   42.8043 C   0  0  0  0  0  0  0  0  0  0  0  0
    7.2236   -7.9954   42.5211 O   0  0  0  0  0  0  0  0  0  0  0  0
    5.7202   -5.4145   47.9064 C   0  0  0  0  0  0  0  0  0  0  0  0
  1  2  1  6  0  0  0
  1  7  1  0  0  0  0
  1 24  1  0  0  0  0
  3  4  1  1  0  0  0
  3  9  1  0  0  0  0
  3 31  1  0  0  0  0
  5  6  1  1  0  0  0
  5 10  1  0  0  0  0
  5 28  1  0  0  0  0
  7  8  1  6  0  0  0
  7 12  1  0  0  0  0
  9 14  1  0  0  0  0
 10 11  1  1  0  0  0
 10 16  1  0  0  0  0
 12 13  1  1  0  0  0
 12 18  1  0  0  0  0
 13 35  1  0  0  0  0
 14 15  1  1  0  0  0
 14 20  1  0  0  0  0
 16 17  1  1  0  0  0
 16 21  1  0  0  0  0
 17 35  1  0  0  0  0
 18 19  1  6  0  0  0
 18 23  1  0  0  0  0
 20  2  1  6  0  0  0
 20 25  1  0  0  0  0
 21 22  1  1  0  0  0
 21 27  1  0  0  0  0
 23 24  1  0  0  0  0
 23 29  1  1  0  0  0
 25 26  1  1  0  0  0
 25 31  1  0  0  0  0
 27 28  1  0  0  0  0
 27 33  1  6  0  0  0
 29 30  1  0  0  0  0
 31 32  1  6  0  0  0
 33 34  1  0  0  0  0
M  END
>  <CHROM.1>
-157.41291138,-154.28258420,74.45038845,-147.67346304,171.04771171,-75.34249949
-175.60784196,65.40862943,5.33437901,-8.65705510,47.66216226,-1.73081286
-1.19853345,-0.84858863

>  <Name>
2o3v_lig

>  <RI>
0

>  <Rbt.Current_Directory>
/home/afrankz/demos/rdock_decoys_rna/rnas/2o3v

>  <Rbt.Executable>
rbdock ($Id: //depot/dev/client3/rdock/2013.1/src/exe/rbdock.cxx#4 $)

>  <Rbt.Library>
libRbt.so (2013.1, Build901 2013/11/27)

>  <Rbt.Parameter_File>
/export/apps/rDock/src/rDock_2013.1_src/data/scripts/dock_solv.prm

>  <Rbt.Receptor>
prm/pocket_docking_8.prm

>  <SCORE>
-9.94359

>  <SCORE.INTER>
-8.80234

>  <SCORE.INTER.CONST>
1

>  <SCORE.INTER.POLAR>
-1.23381

>  <SCORE.INTER.ROT>
8

>  <SCORE.INTER.SOLV>
11.6435

>  <SCORE.INTER.VDW>
-14.57

>  <SCORE.INTER.norm>
-0.251495

>  <SCORE.INTRA>
-1.14125

>  <SCORE.INTRA.DIHEDRAL>
-1.36439

>  <SCORE.INTRA.DIHEDRAL.0>
13.1227

>  <SCORE.INTRA.POLAR>
0

>  <SCORE.INTRA.POLAR.0>
0

>  <SCORE.INTRA.REPUL>
0.0126238

>  <SCORE.INTRA.REPUL.0>
0

>  <SCORE.INTRA.SOLV>
3.16941

>  <SCORE.INTRA.SOLV.lig_0>
-89.1587

>  <SCORE.INTRA.VDW>
-2.10688

>  <SCORE.INTRA.VDW.0>
-0.838383

>  <SCORE.INTRA.norm>
-0.0326072

>  <SCORE.RESTR>
0

>  <SCORE.RESTR.CAVITY>
0

>  <SCORE.RESTR.norm>
0

>  <SCORE.SYSTEM>
0

>  <SCORE.SYSTEM.CONST>
0

>  <SCORE.SYSTEM.DIHEDRAL>
0

>  <SCORE.SYSTEM.SOLV>
0

>  <SCORE.SYSTEM.norm>
0

>  <SCORE.heavy>
35

>  <SCORE.norm>
-0.284102

>  <RMSD>
9.705

$$$$
2o3v_lig
 OpenBabel02141814113D
libRbt.so/2013.1/901 2013/11/27
 35 37  0  0  0  0  0  0  0  0999 V2000
    0.2616   -6.4369   47.8355 C   0  0  2  0  0  0  0  0  0  0  0  0
    0.3627   -6.4981   46.3799 O   0  0  0  0  0  0  0  0  0  0  0  0
   -3.7581   -6.3281   44.9954 C   0  0  2  0  0  0  0  0  0  0  0  0
   -4.9420   -6.3093   44.0842 N   0  0  0  0  0  0  0  0  0  0  0  0
    8.8745   -8.1154   45.2086 C   0  0  2  0  0  0  0  0  0  0  0  0
    8.9065   -9.5372   45.4599 O   0  0  0  0  0  0  0  0  0  0  0  0
    1.7408   -6.2165   48.2845 C   0  0  2  0  0  0  0  0  0  0  0  0
    2.3013   -4.9782   47.6938 N   0  0  0  0  0  0  0  0  0  0  0  0
   -2.8123   -5.0886   44.6879 C   0  0  0  0  0  0  0  0  0  0  0  0
    7.6816   -7.5183   46.0325 C   0  0  2  0  0  0  0  0  0  0  0  0
    7.8314   -7.8167   47.4794 N   0  0  0  0  0  0  0  0  0  0  0  0
    2.6586   -7.4573   47.9006 C   0  0  1  0  0  0  0  0  0  0  0  0
    4.0694   -7.2091   48.2963 O   0  0  0  0  0  0  0  0  0  0  0  0
   -1.5563   -5.1386   45.6618 C   0  0  2  0  0  0  0  0  0  0  0  0
   -0.6562   -3.9988   45.3841 N   0  0  0  0  0  0  0  0  0  0  0  0
    6.2784   -8.0498   45.5002 C   0  0  1  0  0  0  0  0  0  0  0  0
    5.1540   -7.4869   46.2238 O   0  0  0  0  0  0  0  0  0  0  0  0
    2.0128   -8.7512   48.5659 C   0  0  2  0  0  0  0  0  0  0  0  0
    2.7534   -9.9180   48.2561 O   0  0  0  0  0  0  0  0  0  0  0  0
   -0.7759   -6.5033   45.4669 C   0  0  2  0  0  0  0  0  0  0  0  0
    6.1604   -7.7019   43.9824 C   0  0  2  0  0  0  0  0  0  0  0  0
    4.9333   -8.1613   43.4508 O   0  0  0  0  0  0  0  0  0  0  0  0
    0.5181   -8.9265   48.0981 C   0  0  2  0  0  0  0  0  0  0  0  0
   -0.2525   -7.7067   48.4185 O   0  0  0  0  0  0  0  0  0  0  0  0
   -1.7099   -7.7099   45.7635 C   0  0  2  0  0  0  0  0  0  0  0  0
   -0.9407   -8.9237   45.5262 O   0  0  0  0  0  0  0  0  0  0  0  0
    7.3825   -8.3177   43.1910 C   0  0  2  0  0  0  0  0  0  0  0  0
    8.6605   -7.8355   43.7630 O   0  0  0  0  0  0  0  0  0  0  0  0
   -0.1375  -10.1420   48.7521 C   0  0  0  0  0  0  0  0  0  0  0  0
   -1.4668  -10.2957   48.3181 O   0  0  0  0  0  0  0  0  0  0  0  0
   -2.9350   -7.6633   44.8207 C   0  0  1  0  0  0  0  0  0  0  0  0
   -3.7685   -8.7648   45.1140 O   0  0  0  0  0  0  0  0  0  0  0  0
    7.3338   -7.9672   41.7115 C   0  0  0  0  0  0  0  0  0  0  0  0
    7.4003   -6.5728   41.5348 O   0  0  0  0  0  0  0  0  0  0  0  0
    5.0776   -8.0611   47.5616 C   0  0  0  0  0  0  0  0  0  0  0  0
  1  2  1  6  0  0  0
  1  7  1  0  0  0  0
  1 24  1  0  0  0  0
  3  4  1  6  0  0  0
  3  9  1  0  0  0  0
  3 31  1  0  0  0  0
  5  6  1  6  0  0  0
  5 10  1  0  0  0  0
  5 28  1  0  0  0  0
  7  8  1  6  0  0  0
  7 12  1  0  0  0  0
  9 14  1  0  0  0  0
 10 11  1  1  0  0  0
 10 16  1  0  0  0  0
 12 13  1  1  0  0  0
 12 18  1  0  0  0  0
 13 35  1  0  0  0  0
 14 15  1  6  0  0  0
 14 20  1  0  0  0  0
 16 17  1  1  0  0  0
 16 21  1  0  0  0  0
 17 35  1  0  0  0  0
 18 19  1  6  0  0  0
 18 23  1  0  0  0  0
 20  2  1  1  0  0  0
 20 25  1  0  0  0  0
 21 22  1  6  0  0  0
 21 27  1  0  0  0  0
 23 24  1  0  0  0  0
 23 29  1  1  0  0  0
 25 26  1  6  0  0  0
 25 31  1  0  0  0  0
 27 28  1  0  0  0  0
 27 33  1  6  0  0  0
 29 30  1  0  0  0  0
 31 32  1  1  0  0  0
 33 34  1  0  0  0  0
M  END
>  <CHROM.1>
-170.80677994,-159.20461958,74.53046892,-72.32624823,168.80635615,62.11301842
-179.45573767,61.38375309,2.39614451,-7.58395611,45.97560729,-3.04131221
0.12805266,-1.18532619

>  <Name>
2o3v_lig

>  <RI>
0

>  <Rbt.Current_Directory>
/home/afrankz/demos/rdock_decoys_rna/rnas/2o3v

>  <Rbt.Executable>
rbdock ($Id: //depot/dev/client3/rdock/2013.1/src/exe/rbdock.cxx#4 $)

>  <Rbt.Library>
libRbt.so (2013.1, Build901 2013/11/27)

>  <Rbt.Parameter_File>
/export/apps/rDock/src/rDock_2013.1_src/data/scripts/dock_solv.prm

>  <Rbt.Receptor>
prm/pocket_docking_7.prm

>  <SCORE>
-11.8212

>  <SCORE.INTER>
-6.86249

>  <SCORE.INTER.CONST>
1

>  <SCORE.INTER.POLAR>
0

>  <SCORE.INTER.ROT>
8

>  <SCORE.INTER.SOLV>
9.28013

>  <SCORE.INTER.VDW>
-16.6017

>  <SCORE.INTER.norm>
-0.196071

>  <SCORE.INTRA>
-4.95874

>  <SCORE.INTRA.DIHEDRAL>
-8.38744

>  <SCORE.INTRA.DIHEDRAL.0>
13.1227

>  <SCORE.INTRA.POLAR>
0

>  <SCORE.INTRA.POLAR.0>
0

>  <SCORE.INTRA.REPUL>
0

>  <SCORE.INTRA.REPUL.0>
0

>  <SCORE.INTRA.SOLV>
1.90097

>  <SCORE.INTRA.SOLV.lig_0>
-89.1587

>  <SCORE.INTRA.VDW>
-1.7155

>  <SCORE.INTRA.VDW.0>
-0.838383

>  <SCORE.INTRA.norm>
-0.141678

>  <SCORE.RESTR>
0

>  <SCORE.RESTR.CAVITY>
0

>  <SCORE.RESTR.norm>
0

>  <SCORE.SYSTEM>
0

>  <SCORE.SYSTEM.CONST>
0

>  <SCORE.SYSTEM.DIHEDRAL>
0

>  <SCORE.SYSTEM.SOLV>
0

>  <SCORE.SYSTEM.norm>
0

>  <SCORE.heavy>
35

>  <SCORE.norm>
-0.337749

>  <RMSD>
9.738

$$$$
2o3v_lig
 OpenBabel02141814113D
libRbt.so/2013.1/901 2013/11/27
 35 37  0  0  0  0  0  0  0  0999 V2000
   -1.8393   -7.5155   44.1963 C   0  0  2  0  0  0  0  0  0  0  0  0
   -1.6224   -7.0409   45.5603 O   0  0  0  0  0  0  0  0  0  0  0  0
   -5.5859   -7.0465   47.3541 C   0  0  2  0  0  0  0  0  0  0  0  0
   -6.6785   -6.9188   48.3651 N   0  0  0  0  0  0  0  0  0  0  0  0
    4.6460   -5.8260   48.3730 C   0  0  2  0  0  0  0  0  0  0  0  0
    4.6982   -7.2637   48.4988 O   0  0  0  0  0  0  0  0  0  0  0  0
   -0.4038   -7.4962   43.5820 C   0  0  2  0  0  0  0  0  0  0  0  0
    0.5204   -8.3615   44.3524 N   0  0  0  0  0  0  0  0  0  0  0  0
   -4.5610   -8.1773   47.7971 C   0  0  0  0  0  0  0  0  0  0  0  0
    3.4447   -5.4793   47.4269 C   0  0  2  0  0  0  0  0  0  0  0  0
    2.1722   -6.0304   47.9580 N   0  0  0  0  0  0  0  0  0  0  0  0
    0.1801   -6.0187   43.5085 C   0  0  1  0  0  0  0  0  0  0  0  0
    1.5624   -6.0270   42.9629 O   0  0  0  0  0  0  0  0  0  0  0  0
   -3.4038   -8.2847   46.7117 C   0  0  2  0  0  0  0  0  0  0  0  0
   -2.4317   -9.3248   47.1112 N   0  0  0  0  0  0  0  0  0  0  0  0
    3.6976   -6.0012   45.9442 C   0  0  1  0  0  0  0  0  0  0  0  0
    2.6155   -5.6645   45.0386 O   0  0  0  0  0  0  0  0  0  0  0  0
   -0.8478   -5.1417   42.6671 C   0  0  2  0  0  0  0  0  0  0  0  0
   -0.4209   -3.7948   42.5685 O   0  0  0  0  0  0  0  0  0  0  0  0
   -2.6709   -6.8882   46.5640 C   0  0  2  0  0  0  0  0  0  0  0  0
    5.0355   -5.3862   45.4241 C   0  0  2  0  0  0  0  0  0  0  0  0
    5.3183   -5.8250   44.1099 O   0  0  0  0  0  0  0  0  0  0  0  0
   -2.2843   -5.2015   43.3126 C   0  0  2  0  0  0  0  0  0  0  0  0
   -2.7267   -6.6078   43.4184 O   0  0  0  0  0  0  0  0  0  0  0  0
   -3.6815   -5.7871   46.1367 C   0  0  2  0  0  0  0  0  0  0  0  0
   -2.9489   -4.5307   46.0603 O   0  0  0  0  0  0  0  0  0  0  0  0
    6.2172   -5.7551   46.4073 C   0  0  2  0  0  0  0  0  0  0  0  0
    5.9046   -5.2978   47.7806 O   0  0  0  0  0  0  0  0  0  0  0  0
   -3.2996   -4.3970   42.5022 C   0  0  0  0  0  0  0  0  0  0  0  0
   -4.5912   -4.5160   43.0466 O   0  0  0  0  0  0  0  0  0  0  0  0
   -4.8109   -5.6817   47.1881 C   0  0  1  0  0  0  0  0  0  0  0  0
   -5.7165   -4.6804   46.7741 O   0  0  0  0  0  0  0  0  0  0  0  0
    7.5359   -5.1398   45.9641 C   0  0  0  0  0  0  0  0  0  0  0  0
    8.5781   -5.5435   46.8190 O   0  0  0  0  0  0  0  0  0  0  0  0
    2.5984   -6.5865   43.9094 C   0  0  0  0  0  0  0  0  0  0  0  0
  1  2  1  1  0  0  0
  1  7  1  0  0  0  0
  1 24  1  0  0  0  0
  3  4  1  1  0  0  0
  3  9  1  0  0  0  0
  3 31  1  0  0  0  0
  5  6  1  6  0  0  0
  5 10  1  0  0  0  0
  5 28  1  0  0  0  0
  7  8  1  1  0  0  0
  7 12  1  0  0  0  0
  9 14  1  0  0  0  0
 10 11  1  1  0  0  0
 10 16  1  0  0  0  0
 12 13  1  6  0  0  0
 12 18  1  0  0  0  0
 13 35  1  0  0  0  0
 14 15  1  1  0  0  0
 14 20  1  0  0  0  0
 16 17  1  6  0  0  0
 16 21  1  0  0  0  0
 17 35  1  0  0  0  0
 18 19  1  1  0  0  0
 18 23  1  0  0  0  0
 20  2  1  6  0  0  0
 20 25  1  0  0  0  0
 21 22  1  6  0  0  0
 21 27  1  0  0  0  0
 23 24  1  0  0  0  0
 23 29  1  6  0  0  0
 25 26  1  1  0  0  0
 25 31  1  0  0  0  0
 27 28  1  0  0  0  0
 27 33  1  6  0  0  0
 29 30  1  0  0  0  0
 31 32  1  6  0  0  0
 33 34  1  0  0  0  0
M  END
>  <CHROM.1>
-179.41932891,-71.83759038,-64.21200527,-156.42256412,-172.74351866,55.68039662
176.83564746,-176.93367693,0.16493771,-6.11920158,45.56313453,-3.10314147
0.06446881,1.88919725

>  <Name>
2o3v_lig

>  <RI>
0

>  <Rbt.Current_Directory>
/home/afrankz/demos/rdock_decoys_rna/rnas/2o3v

>  <Rbt.Executable>
rbdock ($Id: //depot/dev/client3/rdock/2013.1/src/exe/rbdock.cxx#4 $)

>  <Rbt.Library>
libRbt.so (2013.1, Build901 2013/11/27)

>  <Rbt.Parameter_File>
/export/apps/rDock/src/rDock_2013.1_src/data/scripts/dock_solv.prm

>  <Rbt.Receptor>
prm/pocket_docking_5.prm

>  <SCORE>
-12.4346

>  <SCORE.INTER>
-7.12111

>  <SCORE.INTER.CONST>
1

>  <SCORE.INTER.POLAR>
-0.7012

>  <SCORE.INTER.ROT>
8

>  <SCORE.INTER.SOLV>
8.18819

>  <SCORE.INTER.VDW>
-14.0728

>  <SCORE.INTER.norm>
-0.20346

>  <SCORE.INTRA>
-5.31352

>  <SCORE.INTRA.DIHEDRAL>
-9.48598

>  <SCORE.INTRA.DIHEDRAL.0>
13.1227

>  <SCORE.INTRA.POLAR>
0

>  <SCORE.INTRA.POLAR.0>
0

>  <SCORE.INTRA.REPUL>
0

>  <SCORE.INTRA.REPUL.0>
0

>  <SCORE.INTRA.SOLV>
1.53371

>  <SCORE.INTRA.SOLV.lig_0>
-89.1587

>  <SCORE.INTRA.VDW>
-1.33738

>  <SCORE.INTRA.VDW.0>
-0.838383

>  <SCORE.INTRA.norm>
-0.151815

>  <SCORE.RESTR>
0

>  <SCORE.RESTR.CAVITY>
0

>  <SCORE.RESTR.norm>
0

>  <SCORE.SYSTEM>
0

>  <SCORE.SYSTEM.CONST>
0

>  <SCORE.SYSTEM.DIHEDRAL>
0

>  <SCORE.SYSTEM.SOLV>
0

>  <SCORE.SYSTEM.norm>
0

>  <SCORE.heavy>
35

>  <SCORE.norm>
-0.355275

>  <RMSD>
9.753

$$$$
2o3v_lig
 OpenBabel02141814113D
libRbt.so/2013.1/901 2013/11/27
 35 37  0  0  0  0  0  0  0  0999 V2000
    0.3932   -4.5469   46.4029 C   0  0  2  0  0  0  0  0  0  0  0  0
    0.6288   -5.2400   45.1393 O   0  0  0  0  0  0  0  0  0  0  0  0
   -3.3492   -5.9549   43.5294 C   0  0  2  0  0  0  0  0  0  0  0  0
   -4.4444   -6.4249   42.6285 N   0  0  0  0  0  0  0  0  0  0  0  0
    9.1249   -6.7825   44.9984 C   0  0  2  0  0  0  0  0  0  0  0  0
    9.1219   -7.9081   45.9032 O   0  0  0  0  0  0  0  0  0  0  0  0
    1.8007   -3.9723   46.7597 C   0  0  2  0  0  0  0  0  0  0  0  0
    2.2979   -3.0716   45.6929 N   0  0  0  0  0  0  0  0  0  0  0  0
   -2.3951   -4.9500   42.7515 C   0  0  0  0  0  0  0  0  0  0  0  0
    7.9687   -5.8200   45.4403 C   0  0  2  0  0  0  0  0  0  0  0  0
    8.1430   -5.3907   46.8510 N   0  0  0  0  0  0  0  0  0  0  0  0
    2.8570   -5.1330   47.0175 C   0  0  1  0  0  0  0  0  0  0  0  0
    4.1987   -4.5659   47.3115 O   0  0  0  0  0  0  0  0  0  0  0  0
   -1.2334   -4.4746   43.7276 C   0  0  2  0  0  0  0  0  0  0  0  0
   -0.3263   -3.5465   43.0190 N   0  0  0  0  0  0  0  0  0  0  0  0
    6.5391   -6.4910   45.2387 C   0  0  1  0  0  0  0  0  0  0  0  0
    5.4481   -5.6092   45.6087 O   0  0  0  0  0  0  0  0  0  0  0  0
    2.2735   -6.0599   48.1725 C   0  0  2  0  0  0  0  0  0  0  0  0
    3.1408   -7.1432   48.4559 O   0  0  0  0  0  0  0  0  0  0  0  0
   -0.4209   -5.7296   44.2513 C   0  0  2  0  0  0  0  0  0  0  0  0
    6.3963   -6.9123   43.7418 C   0  0  2  0  0  0  0  0  0  0  0  0
    5.1447   -7.5262   43.5048 O   0  0  0  0  0  0  0  0  0  0  0  0
    0.8483   -6.6048   47.7781 C   0  0  2  0  0  0  0  0  0  0  0  0
   -0.0544   -5.4734   47.4790 O   0  0  0  0  0  0  0  0  0  0  0  0
   -1.3626   -6.7099   45.0053 C   0  0  2  0  0  0  0  0  0  0  0  0
   -0.5593   -7.8516   45.4204 O   0  0  0  0  0  0  0  0  0  0  0  0
    7.5819   -7.8766   43.3371 C   0  0  2  0  0  0  0  0  0  0  0  0
    8.8859   -7.2252   43.5980 O   0  0  0  0  0  0  0  0  0  0  0  0
    0.2491   -7.4685   48.8870 C   0  0  0  0  0  0  0  0  0  0  0  0
    0.1813   -6.7601   50.1005 O   0  0  0  0  0  0  0  0  0  0  0  0
   -2.4963   -7.1722   44.0603 C   0  0  1  0  0  0  0  0  0  0  0  0
   -3.3390   -8.0556   44.7699 O   0  0  0  0  0  0  0  0  0  0  0  0
    7.5093   -8.2797   41.8721 C   0  0  0  0  0  0  0  0  0  0  0  0
    7.5643   -7.1417   41.0463 O   0  0  0  0  0  0  0  0  0  0  0  0
    5.3429   -5.5199   47.0600 C   0  0  0  0  0  0  0  0  0  0  0  0
  1  2  1  6  0  0  0
  1  7  1  0  0  0  0
  1 24  1  0  0  0  0
  3  4  1  6  0  0  0
  3  9  1  0  0  0  0
  3 31  1  0  0  0  0
  5  6  1  1  0  0  0
  5 10  1  0  0  0  0
  5 28  1  0  0  0  0
  7  8  1  6  0  0  0
  7 12  1  0  0  0  0
  9 14  1  0  0  0  0
 10 11  1  1  0  0  0
 10 16  1  0  0  0  0
 12 13  1  1  0  0  0
 12 18  1  0  0  0  0
 13 35  1  0  0  0  0
 14 15  1  6  0  0  0
 14 20  1  0  0  0  0
 16 17  1  6  0  0  0
 16 21  1  0  0  0  0
 17 35  1  0  0  0  0
 18 19  1  6  0  0  0
 18 23  1  0  0  0  0
 20  2  1  1  0  0  0
 20 25  1  0  0  0  0
 21 22  1  1  0  0  0
 21 27  1  0  0  0  0
 23 24  1  0  0  0  0
 23 29  1  1  0  0  0
 25 26  1  6  0  0  0
 25 31  1  0  0  0  0
 27 28  1  0  0  0  0
 27 33  1  6  0  0  0
 29 30  1  0  0  0  0
 31 32  1  1  0  0  0
 33 34  1  0  0  0  0
M  END
>  <CHROM.1>
-167.48477059,-158.15039565,72.74476247,-75.22479702,179.09647787,63.76786421
56.45481300,59.31794263,2.71526948,-6.18477845,45.34869517,-3.08455952,0.07681798
-1.69244463

>  <Name>
2o3v_lig

>  <RI>
0

>  <Rbt.Current_Directory>
/home/afrankz/demos/rdock_decoys_rna/rnas/2o3v

>  <Rbt.Executable>
rbdock ($Id: //depot/dev/client3/rdock/2013.1/src/exe/rbdock.cxx#4 $)

>  <Rbt.Library>
libRbt.so (2013.1, Build901 2013/11/27)

>  <Rbt.Parameter_File>
/export/apps/rDock/src/rDock_2013.1_src/data/scripts/dock_solv.prm

>  <Rbt.Receptor>
prm/pocket_docking_5.prm

>  <SCORE>
-16.5821

>  <SCORE.INTER>
-11.651

>  <SCORE.INTER.CONST>
1

>  <SCORE.INTER.POLAR>
0

>  <SCORE.INTER.ROT>
8

>  <SCORE.INTER.SOLV>
17.4683

>  <SCORE.INTER.VDW>
-22.5234

>  <SCORE.INTER.norm>
-0.332885

>  <SCORE.INTRA>
-4.93862

>  <SCORE.INTRA.DIHEDRAL>
-8.2488

>  <SCORE.INTRA.DIHEDRAL.0>
13.1227

>  <SCORE.INTRA.POLAR>
0

>  <SCORE.INTRA.POLAR.0>
0

>  <SCORE.INTRA.REPUL>
0

>  <SCORE.INTRA.REPUL.0>
0

>  <SCORE.INTRA.SOLV>
1.91542

>  <SCORE.INTRA.SOLV.lig_0>
-89.1587

>  <SCORE.INTRA.VDW>
-1.77193

>  <SCORE.INTRA.VDW.0>
-0.838383

>  <SCORE.INTRA.norm>
-0.141104

>  <SCORE.RESTR>
0.00748808

>  <SCORE.RESTR.CAVITY>
0.00748808

>  <SCORE.RESTR.norm>
0.000213945

>  <SCORE.SYSTEM>
0

>  <SCORE.SYSTEM.CONST>
0

>  <SCORE.SYSTEM.DIHEDRAL>
0

>  <SCORE.SYSTEM.SOLV>
0

>  <SCORE.SYSTEM.norm>
0

>  <SCORE.heavy>
35

>  <SCORE.norm>
-0.473775

>  <RMSD>
9.764

$$$$
2o3v_lig
 OpenBabel02141814113D
libRbt.so/2013.1/901 2013/11/27
 35 37  0  0  0  0  0  0  0  0999 V2000
   -3.1753   -3.3935   41.4980 C   0  0  2  0  0  0  0  0  0  0  0  0
   -2.5270   -4.3469   42.3944 O   0  0  0  0  0  0  0  0  0  0  0  0
   -3.4025   -7.0960   45.6507 C   0  0  2  0  0  0  0  0  0  0  0  0
   -3.9790   -7.6544   46.9109 N   0  0  0  0  0  0  0  0  0  0  0  0
    1.5206   -5.5109   43.6472 C   0  0  2  0  0  0  0  0  0  0  0  0
    1.7925   -6.7919   43.0386 O   0  0  0  0  0  0  0  0  0  0  0  0
   -2.2330   -3.3807   40.2529 C   0  0  2  0  0  0  0  0  0  0  0  0
   -2.1081   -4.7338   39.6615 N   0  0  0  0  0  0  0  0  0  0  0  0
   -2.5330   -5.8053   45.9726 C   0  0  0  0  0  0  0  0  0  0  0  0
    1.1792   -4.5047   42.4943 C   0  0  2  0  0  0  0  0  0  0  0  0
    0.0270   -4.9862   41.6909 N   0  0  0  0  0  0  0  0  0  0  0  0
   -0.7904   -2.8194   40.6182 C   0  0  1  0  0  0  0  0  0  0  0  0
    0.1034   -2.8570   39.4316 O   0  0  0  0  0  0  0  0  0  0  0  0
   -1.9416   -5.2249   44.6155 C   0  0  2  0  0  0  0  0  0  0  0  0
   -1.1376   -4.0150   44.8915 N   0  0  0  0  0  0  0  0  0  0  0  0
    2.4375   -4.2418   41.5549 C   0  0  1  0  0  0  0  0  0  0  0  0
    2.1592   -3.2879   40.4979 O   0  0  0  0  0  0  0  0  0  0  0  0
   -0.9877   -1.3676   41.2403 C   0  0  2  0  0  0  0  0  0  0  0  0
    0.2500   -0.7942   41.6212 O   0  0  0  0  0  0  0  0  0  0  0  0
   -3.1217   -4.8735   43.6189 C   0  0  2  0  0  0  0  0  0  0  0  0
    3.6164   -3.7250   42.4391 C   0  0  2  0  0  0  0  0  0  0  0  0
    4.7692   -3.4835   41.6566 O   0  0  0  0  0  0  0  0  0  0  0  0
   -1.9558   -1.4246   42.4826 C   0  0  2  0  0  0  0  0  0  0  0  0
   -3.2455   -2.0268   42.0843 O   0  0  0  0  0  0  0  0  0  0  0  0
   -3.9704   -6.1398   43.3145 C   0  0  2  0  0  0  0  0  0  0  0  0
   -5.0537   -5.7347   42.4294 O   0  0  0  0  0  0  0  0  0  0  0  0
    3.9244   -4.7648   43.5894 C   0  0  2  0  0  0  0  0  0  0  0  0
    2.7074   -5.0148   44.3953 O   0  0  0  0  0  0  0  0  0  0  0  0
   -2.1918   -0.0367   43.0765 C   0  0  0  0  0  0  0  0  0  0  0  0
   -2.7241    0.8420   42.1155 O   0  0  0  0  0  0  0  0  0  0  0  0
   -4.5448   -6.7099   44.6325 C   0  0  1  0  0  0  0  0  0  0  0  0
   -5.3055   -7.8603   44.3293 O   0  0  0  0  0  0  0  0  0  0  0  0
    5.0394   -4.2828   44.5051 C   0  0  0  0  0  0  0  0  0  0  0  0
    6.2686   -4.2760   43.8203 O   0  0  0  0  0  0  0  0  0  0  0  0
    1.2274   -3.8612   39.5345 C   0  0  0  0  0  0  0  0  0  0  0  0
  1  2  1  1  0  0  0
  1  7  1  0  0  0  0
  1 24  1  0  0  0  0
  3  4  1  1  0  0  0
  3  9  1  0  0  0  0
  3 31  1  0  0  0  0
  5  6  1  6  0  0  0
  5 10  1  0  0  0  0
  5 28  1  0  0  0  0
  7  8  1  1  0  0  0
  7 12  1  0  0  0  0
  9 14  1  0  0  0  0
 10 11  1  6  0  0  0
 10 16  1  0  0  0  0
 12 13  1  6  0  0  0
 12 18  1  0  0  0  0
 13 35  1  0  0  0  0
 14 15  1  1  0  0  0
 14 20  1  0  0  0  0
 16 17  1  6  0  0  0
 16 21  1  0  0  0  0
 17 35  1  0  0  0  0
 18 19  1  1  0  0  0
 18 23  1  0  0  0  0
 20  2  1  6  0  0  0
 20 25  1  0  0  0  0
 21 22  1  6  0  0  0
 21 27  1  0  0  0  0
 23 24  1  0  0  0  0
 23 29  1  6  0  0  0
 25 26  1  6  0  0  0
 25 31  1  0  0  0  0
 27 28  1  0  0  0  0
 27 33  1  1  0  0  0
 29 30  1  0  0  0  0
 31 32  1  6  0  0  0
 33 34  1  0  0  0  0
M  END
>  <CHROM.1>
-170.08296174,-111.38008664,-72.87608190,-68.73743828,126.56396157,-151.54315180
57.85359019,-68.62023025,-0.53484922,-4.15368067,42.71336578,2.84713457,-0.01421423
2.46851479

>  <Name>
2o3v_lig

>  <RI>
0

>  <Rbt.Current_Directory>
/home/afrankz/demos/rdock_decoys_rna/rnas/2o3v

>  <Rbt.Executable>
rbdock ($Id: //depot/dev/client3/rdock/2013.1/src/exe/rbdock.cxx#4 $)

>  <Rbt.Library>
libRbt.so (2013.1, Build901 2013/11/27)

>  <Rbt.Parameter_File>
/export/apps/rDock/src/rDock_2013.1_src/data/scripts/dock_solv.prm

>  <Rbt.Receptor>
prm/blind_docking_80.prm

>  <SCORE>
11.1791

>  <SCORE.INTER>
-1.69341

>  <SCORE.INTER.CONST>
1

>  <SCORE.INTER.POLAR>
-0.403845

>  <SCORE.INTER.ROT>
8

>  <SCORE.INTER.SOLV>
14.2444

>  <SCORE.INTER.VDW>
-13.4642

>  <SCORE.INTER.norm>
-0.0483832

>  <SCORE.INTRA>
6.71792

>  <SCORE.INTRA.DIHEDRAL>
5.95586

>  <SCORE.INTRA.DIHEDRAL.0>
13.1227

>  <SCORE.INTRA.POLAR>
0

>  <SCORE.INTRA.POLAR.0>
0

>  <SCORE.INTRA.REPUL>
0.0253633

>  <SCORE.INTRA.REPUL.0>
0

>  <SCORE.INTRA.SOLV>
11.1215

>  <SCORE.INTRA.SOLV.lig_0>
-89.1587

>  <SCORE.INTRA.VDW>
-1.94757

>  <SCORE.INTRA.VDW.0>
-0.838383

>  <SCORE.INTRA.norm>
0.19194

>  <SCORE.RESTR>
6.15461

>  <SCORE.RESTR.CAVITY>
6.15461

>  <SCORE.RESTR.norm>
0.175846

>  <SCORE.SYSTEM>
0

>  <SCORE.SYSTEM.CONST>
0

>  <SCORE.SYSTEM.DIHEDRAL>
0

>  <SCORE.SYSTEM.SOLV>
0

>  <SCORE.SYSTEM.norm>
0

>  <SCORE.heavy>
35

>  <SCORE.norm>
0.319403

>  <RMSD>
9.800

$$$$
2o3v_lig
 OpenBabel02141814113D
libRbt.so/2013.1/901 2013/11/27
 35 37  0  0  0  0  0  0  0  0999 V2000
   -0.0268   -4.6679   43.5218 C   0  0  2  0  0  0  0  0  0  0  0  0
   -0.4673   -6.0366   43.7778 O   0  0  0  0  0  0  0  0  0  0  0  0
   -4.3351   -7.9645   44.2779 C   0  0  2  0  0  0  0  0  0  0  0  0
   -5.6439   -8.3709   44.8730 N   0  0  0  0  0  0  0  0  0  0  0  0
    6.0711   -9.9883   45.9023 C   0  0  2  0  0  0  0  0  0  0  0  0
    6.0739  -11.2744   45.2454 O   0  0  0  0  0  0  0  0  0  0  0  0
    1.2973   -4.8664   42.7182 C   0  0  2  0  0  0  0  0  0  0  0  0
    1.0592   -5.6366   41.4747 N   0  0  0  0  0  0  0  0  0  0  0  0
   -3.1403   -8.4258   45.2187 C   0  0  0  0  0  0  0  0  0  0  0  0
    5.1059   -9.0507   45.0976 C   0  0  2  0  0  0  0  0  0  0  0  0
    3.7411   -9.6307   45.0209 N   0  0  0  0  0  0  0  0  0  0  0  0
    2.4089   -5.5919   43.5943 C   0  0  1  0  0  0  0  0  0  0  0  0
    3.6445   -5.8108   42.7982 O   0  0  0  0  0  0  0  0  0  0  0  0
   -1.7618   -7.9716   44.5693 C   0  0  2  0  0  0  0  0  0  0  0  0
   -0.6359   -8.3815   45.4359 N   0  0  0  0  0  0  0  0  0  0  0  0
    5.6632   -8.7519   43.6364 C   0  0  1  0  0  0  0  0  0  0  0  0
    4.8055   -7.8588   42.8805 O   0  0  0  0  0  0  0  0  0  0  0  0
    2.6254   -4.7186   44.9073 C   0  0  2  0  0  0  0  0  0  0  0  0
    3.5873   -5.3038   45.7665 O   0  0  0  0  0  0  0  0  0  0  0  0
   -1.7489   -6.3996   44.3742 C   0  0  2  0  0  0  0  0  0  0  0  0
    7.0904   -8.1319   43.7678 C   0  0  2  0  0  0  0  0  0  0  0  0
    7.6419   -7.8544   42.4956 O   0  0  0  0  0  0  0  0  0  0  0  0
    1.2636   -4.5309   45.6780 C   0  0  2  0  0  0  0  0  0  0  0  0
    0.2598   -3.9237   44.7790 O   0  0  0  0  0  0  0  0  0  0  0  0
   -2.9240   -5.9565   43.4582 C   0  0  2  0  0  0  0  0  0  0  0  0
   -2.8729   -4.5046   43.3572 O   0  0  0  0  0  0  0  0  0  0  0  0
    8.0282   -9.1051   44.5878 C   0  0  2  0  0  0  0  0  0  0  0  0
    7.4352   -9.3939   45.9136 O   0  0  0  0  0  0  0  0  0  0  0  0
    1.4369   -3.6639   46.9243 C   0  0  0  0  0  0  0  0  0  0  0  0
    1.7301   -2.3323   46.5785 O   0  0  0  0  0  0  0  0  0  0  0  0
   -4.2670   -6.3996   44.0844 C   0  0  1  0  0  0  0  0  0  0  0  0
   -5.3157   -5.9907   43.2317 O   0  0  0  0  0  0  0  0  0  0  0  0
    9.4202   -8.5224   44.7796 C   0  0  0  0  0  0  0  0  0  0  0  0
    9.3500   -7.3022   45.4769 O   0  0  0  0  0  0  0  0  0  0  0  0
    4.7314   -6.5582   43.5347 C   0  0  0  0  0  0  0  0  0  0  0  0
  1  2  1  1  0  0  0
  1  7  1  0  0  0  0
  1 24  1  0  0  0  0
  3  4  1  1  0  0  0
  3  9  1  0  0  0  0
  3 31  1  0  0  0  0
  5  6  1  6  0  0  0
  5 10  1  0  0  0  0
  5 28  1  0  0  0  0
  7  8  1  6  0  0  0
  7 12  1  0  0  0  0
  9 14  1  0  0  0  0
 10 11  1  6  0  0  0
 10 16  1  0  0  0  0
 12 13  1  6  0  0  0
 12 18  1  0  0  0  0
 13 35  1  0  0  0  0
 14 15  1  1  0  0  0
 14 20  1  0  0  0  0
 16 17  1  1  0  0  0
 16 21  1  0  0  0  0
 17 35  1  0  0  0  0
 18 19  1  1  0  0  0
 18 23  1  0  0  0  0
 20  2  1  6  0  0  0
 20 25  1  0  0  0  0
 21 22  1  6  0  0  0
 21 27  1  0  0  0  0
 23 24  1  0  0  0  0
 23 29  1  1  0  0  0
 25 26  1  1  0  0  0
 25 31  1  0  0  0  0
 27 28  1  0  0  0  0
 27 33  1  1  0  0  0
 29 30  1  0  0  0  0
 31 32  1  6  0  0  0
 33 34  1  0  0  0  0
M  END
>  <CHROM.1>
-172.74936592,-177.12013876,110.45789010,62.77911106,-170.66796129,-175.68441854
68.32091071,59.88527106,2.09579880,-6.86037294,44.39438835,-2.91993598,0.03882422
3.13057293

>  <Name>
2o3v_lig

>  <RI>
0

>  <Rbt.Current_Directory>
/home/afrankz/demos/rdock_decoys_rna/rnas/2o3v

>  <Rbt.Executable>
rbdock ($Id: //depot/dev/client3/rdock/2013.1/src/exe/rbdock.cxx#4 $)

>  <Rbt.Library>
libRbt.so (2013.1, Build901 2013/11/27)

>  <Rbt.Parameter_File>
/export/apps/rDock/src/rDock_2013.1_src/data/scripts/dock_solv.prm

>  <Rbt.Receptor>
prm/pocket_docking_5.prm

>  <SCORE>
-12.5439

>  <SCORE.INTER>
-10.1582

>  <SCORE.INTER.CONST>
1

>  <SCORE.INTER.POLAR>
-0.835725

>  <SCORE.INTER.ROT>
8

>  <SCORE.INTER.SOLV>
12.9443

>  <SCORE.INTER.VDW>
-17.2344

>  <SCORE.INTER.norm>
-0.290233

>  <SCORE.INTRA>
-2.38573

>  <SCORE.INTRA.DIHEDRAL>
-5.2133

>  <SCORE.INTRA.DIHEDRAL.0>
13.1227

>  <SCORE.INTRA.POLAR>
0

>  <SCORE.INTRA.POLAR.0>
0

>  <SCORE.INTRA.REPUL>
0

>  <SCORE.INTRA.REPUL.0>
0

>  <SCORE.INTRA.SOLV>
-0.521407

>  <SCORE.INTRA.SOLV.lig_0>
-89.1587

>  <SCORE.INTRA.VDW>
0.481622

>  <SCORE.INTRA.VDW.0>
-0.838383

>  <SCORE.INTRA.norm>
-0.0681637

>  <SCORE.RESTR>
0

>  <SCORE.RESTR.CAVITY>
0

>  <SCORE.RESTR.norm>
0

>  <SCORE.SYSTEM>
0

>  <SCORE.SYSTEM.CONST>
0

>  <SCORE.SYSTEM.DIHEDRAL>
0

>  <SCORE.SYSTEM.SOLV>
0

>  <SCORE.SYSTEM.norm>
0

>  <SCORE.heavy>
35

>  <SCORE.norm>
-0.358397

>  <RMSD>
9.823

$$$$
2o3v_lig
 OpenBabel02141814113D
libRbt.so/2013.1/901 2013/11/27
 35 37  0  0  0  0  0  0  0  0999 V2000
   -0.1896   -6.4236   43.9717 C   0  0  2  0  0  0  0  0  0  0  0  0
   -0.4938   -6.3859   45.3996 O   0  0  0  0  0  0  0  0  0  0  0  0
   -4.4351   -4.5779   45.7520 C   0  0  2  0  0  0  0  0  0  0  0  0
   -5.6235   -3.8840   46.3338 N   0  0  0  0  0  0  0  0  0  0  0  0
    8.0929   -8.6141   45.3078 C   0  0  2  0  0  0  0  0  0  0  0  0
    8.8258   -9.7812   44.8760 O   0  0  0  0  0  0  0  0  0  0  0  0
    0.7059   -7.6953   43.8336 C   0  0  2  0  0  0  0  0  0  0  0  0
   -0.0078   -8.9067   44.3023 N   0  0  0  0  0  0  0  0  0  0  0  0
   -4.1618   -5.9373   46.5284 C   0  0  0  0  0  0  0  0  0  0  0  0
    6.7424   -9.1101   45.9311 C   0  0  2  0  0  0  0  0  0  0  0  0
    6.9875  -10.0506   47.0537 N   0  0  0  0  0  0  0  0  0  0  0  0
    2.0732   -7.5360   44.6302 C   0  0  1  0  0  0  0  0  0  0  0  0
    2.8904   -8.7725   44.5228 O   0  0  0  0  0  0  0  0  0  0  0  0
   -2.8872   -6.6491   45.8982 C   0  0  2  0  0  0  0  0  0  0  0  0
   -2.6081   -7.9121   46.6147 N   0  0  0  0  0  0  0  0  0  0  0  0
    5.8060   -9.7875   44.8361 C   0  0  1  0  0  0  0  0  0  0  0  0
    4.5343  -10.2263   45.3791 O   0  0  0  0  0  0  0  0  0  0  0  0
    2.7947   -6.2278   44.0809 C   0  0  2  0  0  0  0  0  0  0  0  0
    4.0181   -5.9893   44.7535 O   0  0  0  0  0  0  0  0  0  0  0  0
   -1.6317   -5.6875   45.9891 C   0  0  2  0  0  0  0  0  0  0  0  0
    5.5653   -8.7593   43.6856 C   0  0  2  0  0  0  0  0  0  0  0  0
    4.7452   -9.3119   42.6749 O   0  0  0  0  0  0  0  0  0  0  0  0
    1.8515   -4.9735   44.2254 C   0  0  2  0  0  0  0  0  0  0  0  0
    0.5738   -5.2254   43.5264 O   0  0  0  0  0  0  0  0  0  0  0  0
   -1.9098   -4.3584   45.2326 C   0  0  2  0  0  0  0  0  0  0  0  0
   -0.7346   -3.5131   45.3923 O   0  0  0  0  0  0  0  0  0  0  0  0
    6.9496   -8.2826   43.0894 C   0  0  2  0  0  0  0  0  0  0  0  0
    7.8013   -7.7142   44.1592 O   0  0  0  0  0  0  0  0  0  0  0  0
    2.5068   -3.7095   43.6706 C   0  0  0  0  0  0  0  0  0  0  0  0
    1.6827   -2.5856   43.8619 O   0  0  0  0  0  0  0  0  0  0  0  0
   -3.1512   -3.6642   45.8403 C   0  0  1  0  0  0  0  0  0  0  0  0
   -3.3851   -2.4646   45.1329 O   0  0  0  0  0  0  0  0  0  0  0  0
    6.7667   -7.2448   41.9924 C   0  0  0  0  0  0  0  0  0  0  0  0
    7.8370   -7.3003   41.0805 O   0  0  0  0  0  0  0  0  0  0  0  0
    3.7202   -9.0747   45.7485 C   0  0  0  0  0  0  0  0  0  0  0  0
  1  2  1  1  0  0  0
  1  7  1  0  0  0  0
  1 24  1  0  0  0  0
  3  4  1  1  0  0  0
  3  9  1  0  0  0  0
  3 31  1  0  0  0  0
  5  6  1  6  0  0  0
  5 10  1  0  0  0  0
  5 28  1  0  0  0  0
  7  8  1  1  0  0  0
  7 12  1  0  0  0  0
  9 14  1  0  0  0  0
 10 11  1  1  0  0  0
 10 16  1  0  0  0  0
 12 13  1  6  0  0  0
 12 18  1  0  0  0  0
 13 35  1  0  0  0  0
 14 15  1  1  0  0  0
 14 20  1  0  0  0  0
 16 17  1  1  0  0  0
 16 21  1  0  0  0  0
 17 35  1  0  0  0  0
 18 19  1  1  0  0  0
 18 23  1  0  0  0  0
 20  2  1  6  0  0  0
 20 25  1  0  0  0  0
 21 22  1  6  0  0  0
 21 27  1  0  0  0  0
 23 24  1  0  0  0  0
 23 29  1  6  0  0  0
 25 26  1  1  0  0  0
 25 31  1  0  0  0  0
 27 28  1  0  0  0  0
 27 33  1  6  0  0  0
 29 30  1  0  0  0  0
 31 32  1  6  0  0  0
 33 34  1  0  0  0  0
M  END
>  <CHROM.1>
-158.21708580,-146.76636444,-174.18743707,68.60964453,91.75863803,84.13159200
-177.21112014,-152.09208074,2.12740466,-6.79942165,44.69652993,-2.84264488
-0.29623436,2.71335197

>  <Name>
2o3v_lig

>  <RI>
0

>  <Rbt.Current_Directory>
/home/afrankz/demos/rdock_decoys_rna/rnas/2o3v

>  <Rbt.Executable>
rbdock ($Id: //depot/dev/client3/rdock/2013.1/src/exe/rbdock.cxx#4 $)

>  <Rbt.Library>
libRbt.so (2013.1, Build901 2013/11/27)

>  <Rbt.Parameter_File>
/export/apps/rDock/src/rDock_2013.1_src/data/scripts/dock_solv.prm

>  <Rbt.Receptor>
prm/pocket_docking_6.prm

>  <SCORE>
-8.22768

>  <SCORE.INTER>
-9.67594

>  <SCORE.INTER.CONST>
1

>  <SCORE.INTER.POLAR>
0

>  <SCORE.INTER.ROT>
8

>  <SCORE.INTER.SOLV>
10.9005

>  <SCORE.INTER.VDW>
-19.0175

>  <SCORE.INTER.norm>
-0.276455

>  <SCORE.INTRA>
1.44826

>  <SCORE.INTRA.DIHEDRAL>
2.5672

>  <SCORE.INTRA.DIHEDRAL.0>
13.1227

>  <SCORE.INTRA.POLAR>
0

>  <SCORE.INTRA.POLAR.0>
0

>  <SCORE.INTRA.REPUL>
0

>  <SCORE.INTRA.REPUL.0>
0

>  <SCORE.INTRA.SOLV>
1.98519

>  <SCORE.INTRA.SOLV.lig_0>
-89.1587

>  <SCORE.INTRA.VDW>
-0.827939

>  <SCORE.INTRA.VDW.0>
-0.838383

>  <SCORE.INTRA.norm>
0.0413788

>  <SCORE.RESTR>
0

>  <SCORE.RESTR.CAVITY>
0

>  <SCORE.RESTR.norm>
0

>  <SCORE.SYSTEM>
0

>  <SCORE.SYSTEM.CONST>
0

>  <SCORE.SYSTEM.DIHEDRAL>
0

>  <SCORE.SYSTEM.SOLV>
0

>  <SCORE.SYSTEM.norm>
0

>  <SCORE.heavy>
35

>  <SCORE.norm>
-0.235077

>  <RMSD>
9.837

$$$$
2o3v_lig
 OpenBabel02141814113D
libRbt.so/2013.1/901 2013/11/27
 35 37  0  0  0  0  0  0  0  0999 V2000
   -3.3401   -7.8100   46.4355 C   0  0  2  0  0  0  0  0  0  0  0  0
   -3.9990   -7.3837   45.2039 O   0  0  0  0  0  0  0  0  0  0  0  0
   -8.1184   -8.7237   45.6067 C   0  0  2  0  0  0  0  0  0  0  0  0
   -9.5360   -9.0520   45.2680 N   0  0  0  0  0  0  0  0  0  0  0  0
    4.9335   -4.7844   44.6674 C   0  0  2  0  0  0  0  0  0  0  0  0
    4.6698   -5.8814   43.7659 O   0  0  0  0  0  0  0  0  0  0  0  0
   -2.1175   -6.8438   46.5360 C   0  0  2  0  0  0  0  0  0  0  0  0
   -2.5550   -5.4284   46.5773 N   0  0  0  0  0  0  0  0  0  0  0  0
   -7.8522   -7.1710   45.3978 C   0  0  0  0  0  0  0  0  0  0  0  0
    4.0385   -4.9934   45.9377 C   0  0  2  0  0  0  0  0  0  0  0  0
    4.3156   -6.3058   46.5745 N   0  0  0  0  0  0  0  0  0  0  0  0
   -1.1039   -7.0572   45.3291 C   0  0  1  0  0  0  0  0  0  0  0  0
    0.0285   -6.0991   45.4190 O   0  0  0  0  0  0  0  0  0  0  0  0
   -6.3358   -6.8508   45.7533 C   0  0  2  0  0  0  0  0  0  0  0  0
   -6.0635   -5.4111   45.5544 N   0  0  0  0  0  0  0  0  0  0  0  0
    2.4901   -4.8624   45.5910 C   0  0  1  0  0  0  0  0  0  0  0  0
    1.6392   -5.0183   46.7556 O   0  0  0  0  0  0  0  0  0  0  0  0
   -0.6658   -8.5874   45.3400 C   0  0  2  0  0  0  0  0  0  0  0  0
    0.2243   -8.8795   44.2778 O   0  0  0  0  0  0  0  0  0  0  0  0
   -5.3729   -7.7142   44.8387 C   0  0  2  0  0  0  0  0  0  0  0  0
    2.2452   -3.4651   44.9382 C   0  0  2  0  0  0  0  0  0  0  0  0
    0.8831   -3.2960   44.5980 O   0  0  0  0  0  0  0  0  0  0  0  0
   -1.9292   -9.5255   45.2525 C   0  0  2  0  0  0  0  0  0  0  0  0
   -2.8588   -9.2168   46.3593 O   0  0  0  0  0  0  0  0  0  0  0  0
   -5.6442   -9.2309   45.0446 C   0  0  2  0  0  0  0  0  0  0  0  0
   -4.7558   -9.9571   44.1477 O   0  0  0  0  0  0  0  0  0  0  0  0
    3.1685   -3.2942   43.6664 C   0  0  2  0  0  0  0  0  0  0  0  0
    4.5904   -3.4820   44.0349 O   0  0  0  0  0  0  0  0  0  0  0  0
   -1.5384  -11.0019   45.2987 C   0  0  0  0  0  0  0  0  0  0  0  0
   -2.6772  -11.8276   45.3102 O   0  0  0  0  0  0  0  0  0  0  0  0
   -7.1193   -9.5463   44.7032 C   0  0  1  0  0  0  0  0  0  0  0  0
   -7.3405  -10.9265   44.9035 O   0  0  0  0  0  0  0  0  0  0  0  0
    2.9962   -1.9276   43.0208 C   0  0  0  0  0  0  0  0  0  0  0  0
    3.0225   -0.9159   43.9983 O   0  0  0  0  0  0  0  0  0  0  0  0
    0.8761   -6.2567   46.6595 C   0  0  0  0  0  0  0  0  0  0  0  0
  1  2  1  6  0  0  0
  1  7  1  0  0  0  0
  1 24  1  0  0  0  0
  3  4  1  6  0  0  0
  3  9  1  0  0  0  0
  3 31  1  0  0  0  0
  5  6  1  6  0  0  0
  5 10  1  0  0  0  0
  5 28  1  0  0  0  0
  7  8  1  6  0  0  0
  7 12  1  0  0  0  0
  9 14  1  0  0  0  0
 10 11  1  6  0  0  0
 10 16  1  0  0  0  0
 12 13  1  1  0  0  0
 12 18  1  0  0  0  0
 13 35  1  0  0  0  0
 14 15  1  6  0  0  0
 14 20  1  0  0  0  0
 16 17  1  1  0  0  0
 16 21  1  0  0  0  0
 17 35  1  0  0  0  0
 18 19  1  6  0  0  0
 18 23  1  0  0  0  0
 20  2  1  1  0  0  0
 20 25  1  0  0  0  0
 21 22  1  6  0  0  0
 21 27  1  0  0  0  0
 23 24  1  0  0  0  0
 23 29  1  1  0  0  0
 25 26  1  6  0  0  0
 25 31  1  0  0  0  0
 27 28  1  0  0  0  0
 27 33  1  1  0  0  0
 29 30  1  0  0  0  0
 31 32  1  1  0  0  0
 33 34  1  0  0  0  0
M  END
>  <CHROM.1>
-162.63768589,62.32391980,-163.42114409,-111.69604001,-61.61868071,73.15583386
176.05240276,46.35872148,-1.40206563,-6.82294265,45.20373191,-2.66257586
0.01474615,-0.08148425

>  <Name>
2o3v_lig

>  <RI>
0

>  <Rbt.Current_Directory>
/home/afrankz/demos/rdock_decoys_rna/rnas/2o3v

>  <Rbt.Executable>
rbdock ($Id: //depot/dev/client3/rdock/2013.1/src/exe/rbdock.cxx#4 $)

>  <Rbt.Library>
libRbt.so (2013.1, Build901 2013/11/27)

>  <Rbt.Parameter_File>
/export/apps/rDock/src/rDock_2013.1_src/data/scripts/dock_solv.prm

>  <Rbt.Receptor>
prm/pocket_docking_4.prm

>  <SCORE>
-6.73207

>  <SCORE.INTER>
-4.83999

>  <SCORE.INTER.CONST>
1

>  <SCORE.INTER.POLAR>
-0.959166

>  <SCORE.INTER.ROT>
8

>  <SCORE.INTER.SOLV>
6.9406

>  <SCORE.INTER.VDW>
-11.2763

>  <SCORE.INTER.norm>
-0.138285

>  <SCORE.INTRA>
-1.89794

>  <SCORE.INTRA.DIHEDRAL>
-2.01344

>  <SCORE.INTRA.DIHEDRAL.0>
13.1227

>  <SCORE.INTRA.POLAR>
0

>  <SCORE.INTRA.POLAR.0>
0

>  <SCORE.INTRA.REPUL>
0

>  <SCORE.INTRA.REPUL.0>
0

>  <SCORE.INTRA.SOLV>
2.12081

>  <SCORE.INTRA.SOLV.lig_0>
-89.1587

>  <SCORE.INTRA.VDW>
-1.95162

>  <SCORE.INTRA.VDW.0>
-0.838383

>  <SCORE.INTRA.norm>
-0.0542268

>  <SCORE.RESTR>
0.00585799

>  <SCORE.RESTR.CAVITY>
0.00585799

>  <SCORE.RESTR.norm>
0.000167371

>  <SCORE.SYSTEM>
0

>  <SCORE.SYSTEM.CONST>
0

>  <SCORE.SYSTEM.DIHEDRAL>
0

>  <SCORE.SYSTEM.SOLV>
0

>  <SCORE.SYSTEM.norm>
0

>  <SCORE.heavy>
35

>  <SCORE.norm>
-0.192345

>  <RMSD>
9.902

$$$$
2o3v_lig
 OpenBabel02141814113D
libRbt.so/2013.1/901 2013/11/27
 35 37  0  0  0  0  0  0  0  0999 V2000
   -2.1014   -7.8812   44.5192 C   0  0  2  0  0  0  0  0  0  0  0  0
   -1.9473   -7.3806   45.8825 O   0  0  0  0  0  0  0  0  0  0  0  0
   -5.0583   -4.3666   46.2889 C   0  0  2  0  0  0  0  0  0  0  0  0
   -5.9312   -3.3094   46.8827 N   0  0  0  0  0  0  0  0  0  0  0  0
    6.9405   -8.4603   46.2692 C   0  0  2  0  0  0  0  0  0  0  0  0
    7.7214   -9.6696   46.3841 O   0  0  0  0  0  0  0  0  0  0  0  0
   -0.9809   -8.9633   44.4104 C   0  0  2  0  0  0  0  0  0  0  0  0
   -1.1551  -10.0199   45.4349 N   0  0  0  0  0  0  0  0  0  0  0  0
   -5.2223   -5.7266   47.0945 C   0  0  0  0  0  0  0  0  0  0  0  0
    5.4361   -8.8819   46.1377 C   0  0  2  0  0  0  0  0  0  0  0  0
    5.0094   -9.7026   47.2993 N   0  0  0  0  0  0  0  0  0  0  0  0
    0.4673   -8.3197   44.5440 C   0  0  1  0  0  0  0  0  0  0  0  0
    1.5164   -9.3704   44.4824 O   0  0  0  0  0  0  0  0  0  0  0  0
   -4.2755   -6.8300   46.4505 C   0  0  2  0  0  0  0  0  0  0  0  0
   -4.4044   -8.1020   47.1934 N   0  0  0  0  0  0  0  0  0  0  0  0
    5.1640   -9.6641   44.7778 C   0  0  1  0  0  0  0  0  0  0  0  0
    3.7717  -10.0375   44.6142 O   0  0  0  0  0  0  0  0  0  0  0  0
    0.5973   -7.2016   43.4186 C   0  0  2  0  0  0  0  0  0  0  0  0
    1.8545   -6.5519   43.4760 O   0  0  0  0  0  0  0  0  0  0  0  0
   -2.7709   -6.3356   46.4825 C   0  0  2  0  0  0  0  0  0  0  0  0
    5.6140   -8.7591   43.5874 C   0  0  2  0  0  0  0  0  0  0  0  0
    5.4049   -9.4090   42.3490 O   0  0  0  0  0  0  0  0  0  0  0  0
   -0.5599   -6.1406   43.5562 C   0  0  2  0  0  0  0  0  0  0  0  0
   -1.8710   -6.8206   43.5001 O   0  0  0  0  0  0  0  0  0  0  0  0
   -2.6208   -5.0022   45.6978 C   0  0  2  0  0  0  0  0  0  0  0  0
   -1.2280   -4.5900   45.8036 O   0  0  0  0  0  0  0  0  0  0  0  0
    7.1322   -8.3540   43.7613 C   0  0  2  0  0  0  0  0  0  0  0  0
    7.3386   -7.6825   45.0648 O   0  0  0  0  0  0  0  0  0  0  0  0
   -0.4799   -5.0754   42.4636 C   0  0  0  0  0  0  0  0  0  0  0  0
   -1.5010   -4.1193   42.6121 O   0  0  0  0  0  0  0  0  0  0  0  0
   -3.5428   -3.9269   46.3187 C   0  0  1  0  0  0  0  0  0  0  0  0
   -3.3919   -2.7295   45.5856 O   0  0  0  0  0  0  0  0  0  0  0  0
    7.6045   -7.4343   42.6454 C   0  0  0  0  0  0  0  0  0  0  0  0
    7.5394   -8.0944   41.4044 O   0  0  0  0  0  0  0  0  0  0  0  0
    2.9195   -8.8587   44.7102 C   0  0  0  0  0  0  0  0  0  0  0  0
  1  2  1  1  0  0  0
  1  7  1  0  0  0  0
  1 24  1  0  0  0  0
  3  4  1  1  0  0  0
  3  9  1  0  0  0  0
  3 31  1  0  0  0  0
  5  6  1  6  0  0  0
  5 10  1  0  0  0  0
  5 28  1  0  0  0  0
  7  8  1  1  0  0  0
  7 12  1  0  0  0  0
  9 14  1  0  0  0  0
 10 11  1  1  0  0  0
 10 16  1  0  0  0  0
 12 13  1  6  0  0  0
 12 18  1  0  0  0  0
 13 35  1  0  0  0  0
 14 15  1  1  0  0  0
 14 20  1  0  0  0  0
 16 17  1  6  0  0  0
 16 21  1  0  0  0  0
 17 35  1  0  0  0  0
 18 19  1  1  0  0  0
 18 23  1  0  0  0  0
 20  2  1  6  0  0  0
 20 25  1  0  0  0  0
 21 22  1  6  0  0  0
 21 27  1  0  0  0  0
 23 24  1  0  0  0  0
 23 29  1  6  0  0  0
 25 26  1  1  0  0  0
 25 31  1  0  0  0  0
 27 28  1  0  0  0  0
 27 33  1  6  0  0  0
 29 30  1  0  0  0  0
 31 32  1  6  0  0  0
 33 34  1  0  0  0  0
M  END
>  <CHROM.1>
179.85125253,-175.45146144,179.72940962,55.74016509,178.29384529,59.33139314
-178.81427139,-63.24239181,1.00734613,-7.24767163,44.85288623,2.97448684
0.32395840,-0.67736877

>  <Name>
2o3v_lig

>  <RI>
0

>  <Rbt.Current_Directory>
/home/afrankz/demos/rdock_decoys_rna/rnas/2o3v

>  <Rbt.Executable>
rbdock ($Id: //depot/dev/client3/rdock/2013.1/src/exe/rbdock.cxx#4 $)

>  <Rbt.Library>
libRbt.so (2013.1, Build901 2013/11/27)

>  <Rbt.Parameter_File>
/export/apps/rDock/src/rDock_2013.1_src/data/scripts/dock_solv.prm

>  <Rbt.Receptor>
prm/pocket_docking_6.prm

>  <SCORE>
-17.0097

>  <SCORE.INTER>
-11.085

>  <SCORE.INTER.CONST>
1

>  <SCORE.INTER.POLAR>
0

>  <SCORE.INTER.ROT>
8

>  <SCORE.INTER.SOLV>
11.8086

>  <SCORE.INTER.VDW>
-20.2595

>  <SCORE.INTER.norm>
-0.316713

>  <SCORE.INTRA>
-5.92476

>  <SCORE.INTRA.DIHEDRAL>
-12.8223

>  <SCORE.INTRA.DIHEDRAL.0>
13.1227

>  <SCORE.INTRA.POLAR>
0

>  <SCORE.INTRA.POLAR.0>
0

>  <SCORE.INTRA.REPUL>
0

>  <SCORE.INTRA.REPUL.0>
0

>  <SCORE.INTRA.SOLV>
0.729979

>  <SCORE.INTRA.SOLV.lig_0>
-89.1587

>  <SCORE.INTRA.VDW>
0.121411

>  <SCORE.INTRA.VDW.0>
-0.838383

>  <SCORE.INTRA.norm>
-0.169279

>  <SCORE.RESTR>
0

>  <SCORE.RESTR.CAVITY>
0

>  <SCORE.RESTR.norm>
0

>  <SCORE.SYSTEM>
0

>  <SCORE.SYSTEM.CONST>
0

>  <SCORE.SYSTEM.DIHEDRAL>
0

>  <SCORE.SYSTEM.SOLV>
0

>  <SCORE.SYSTEM.norm>
0

>  <SCORE.heavy>
35

>  <SCORE.norm>
-0.485992

>  <RMSD>
9.911

$$$$
2o3v_lig
 OpenBabel02141814113D
libRbt.so/2013.1/901 2013/11/27
 35 37  0  0  0  0  0  0  0  0999 V2000
   -1.3123   -7.8735   45.2355 C   0  0  2  0  0  0  0  0  0  0  0  0
   -2.1058   -8.9158   45.8811 O   0  0  0  0  0  0  0  0  0  0  0  0
   -5.9972   -8.6225   47.8042 C   0  0  2  0  0  0  0  0  0  0  0  0
   -7.0435   -8.4059   48.8485 N   0  0  0  0  0  0  0  0  0  0  0  0
    4.6432   -5.3811   43.4141 C   0  0  2  0  0  0  0  0  0  0  0  0
    5.4069   -4.7098   44.4396 O   0  0  0  0  0  0  0  0  0  0  0  0
   -0.0902   -8.6608   44.6653 C   0  0  2  0  0  0  0  0  0  0  0  0
   -0.5264   -9.7187   43.7236 N   0  0  0  0  0  0  0  0  0  0  0  0
   -5.0384   -9.8158   48.2306 C   0  0  0  0  0  0  0  0  0  0  0  0
    3.7120   -6.4224   44.1260 C   0  0  2  0  0  0  0  0  0  0  0  0
    2.8312   -5.7575   45.1195 N   0  0  0  0  0  0  0  0  0  0  0  0
    0.7838   -9.3042   45.8279 C   0  0  1  0  0  0  0  0  0  0  0  0
    1.9151  -10.0851   45.2633 O   0  0  0  0  0  0  0  0  0  0  0  0
   -3.9288  -10.0176   47.1096 C   0  0  2  0  0  0  0  0  0  0  0  0
   -3.0178  -11.1174   47.4928 N   0  0  0  0  0  0  0  0  0  0  0  0
    4.5536   -7.5815   44.8210 C   0  0  1  0  0  0  0  0  0  0  0  0
    3.7150   -8.5782   45.4597 O   0  0  0  0  0  0  0  0  0  0  0  0
    1.2269   -8.1239   46.7996 C   0  0  2  0  0  0  0  0  0  0  0  0
    1.9946   -8.6080   47.8869 O   0  0  0  0  0  0  0  0  0  0  0  0
   -3.1067   -8.6774   46.9163 C   0  0  2  0  0  0  0  0  0  0  0  0
    5.4517   -8.2591   43.7379 C   0  0  2  0  0  0  0  0  0  0  0  0
    6.2331   -9.2939   44.3019 O   0  0  0  0  0  0  0  0  0  0  0  0
   -0.0344   -7.3480   47.3389 C   0  0  2  0  0  0  0  0  0  0  0  0
   -0.8365   -6.8469   46.2031 O   0  0  0  0  0  0  0  0  0  0  0  0
   -4.0528   -7.5145   46.5055 C   0  0  2  0  0  0  0  0  0  0  0  0
   -3.2383   -6.3131   46.3856 O   0  0  0  0  0  0  0  0  0  0  0  0
    6.3695   -7.1756   43.0430 C   0  0  2  0  0  0  0  0  0  0  0  0
    5.5397   -6.0942   42.4644 O   0  0  0  0  0  0  0  0  0  0  0  0
    0.3654   -6.1850   48.2458 C   0  0  0  0  0  0  0  0  0  0  0  0
    0.6559   -5.0324   47.4936 O   0  0  0  0  0  0  0  0  0  0  0  0
   -5.1360   -7.3171   47.5917 C   0  0  1  0  0  0  0  0  0  0  0  0
   -5.9839   -6.2608   47.1923 O   0  0  0  0  0  0  0  0  0  0  0  0
    7.2330   -7.7829   41.9477 C   0  0  0  0  0  0  0  0  0  0  0  0
    8.2306   -8.6028   42.5068 O   0  0  0  0  0  0  0  0  0  0  0  0
    2.8982   -9.2618   44.4644 C   0  0  0  0  0  0  0  0  0  0  0  0
  1  2  1  1  0  0  0
  1  7  1  0  0  0  0
  1 24  1  0  0  0  0
  3  4  1  1  0  0  0
  3  9  1  0  0  0  0
  3 31  1  0  0  0  0
  5  6  1  1  0  0  0
  5 10  1  0  0  0  0
  5 28  1  0  0  0  0
  7  8  1  6  0  0  0
  7 12  1  0  0  0  0
  9 14  1  0  0  0  0
 10 11  1  1  0  0  0
 10 16  1  0  0  0  0
 12 13  1  6  0  0  0
 12 18  1  0  0  0  0
 13 35  1  0  0  0  0
 14 15  1  1  0  0  0
 14 20  1  0  0  0  0
 16 17  1  6  0  0  0
 16 21  1  0  0  0  0
 17 35  1  0  0  0  0
 18 19  1  1  0  0  0
 18 23  1  0  0  0  0
 20  2  1  6  0  0  0
 20 25  1  0  0  0  0
 21 22  1  1  0  0  0
 21 27  1  0  0  0  0
 23 24  1  0  0  0  0
 23 29  1  1  0  0  0
 25 26  1  1  0  0  0
 25 31  1  0  0  0  0
 27 28  1  0  0  0  0
 27 33  1  6  0  0  0
 29 30  1  0  0  0  0
 31 32  1  6  0  0  0
 33 34  1  0  0  0  0
M  END
>  <CHROM.1>
159.29382968,62.48516508,77.84973288,63.47876061,-170.45629857,168.20599495
84.86426044,-70.35545188,0.70575675,-7.85530629,45.66106861,-3.10468506,0.36567147
0.11016155

>  <Name>
2o3v_lig

>  <RI>
0

>  <Rbt.Current_Directory>
/home/afrankz/demos/rdock_decoys_rna/rnas/2o3v

>  <Rbt.Executable>
rbdock ($Id: //depot/dev/client3/rdock/2013.1/src/exe/rbdock.cxx#4 $)

>  <Rbt.Library>
libRbt.so (2013.1, Build901 2013/11/27)

>  <Rbt.Parameter_File>
/export/apps/rDock/src/rDock_2013.1_src/data/scripts/dock_solv.prm

>  <Rbt.Receptor>
prm/pocket_docking_2.prm

>  <SCORE>
-6.44167

>  <SCORE.INTER>
-6.08736

>  <SCORE.INTER.CONST>
1

>  <SCORE.INTER.POLAR>
0

>  <SCORE.INTER.ROT>
8

>  <SCORE.INTER.SOLV>
11.7498

>  <SCORE.INTER.VDW>
-16.9082

>  <SCORE.INTER.norm>
-0.173925

>  <SCORE.INTRA>
-0.776787

>  <SCORE.INTRA.DIHEDRAL>
-6.1946

>  <SCORE.INTRA.DIHEDRAL.0>
13.1227

>  <SCORE.INTRA.POLAR>
0

>  <SCORE.INTRA.POLAR.0>
0

>  <SCORE.INTRA.REPUL>
0

>  <SCORE.INTRA.REPUL.0>
0

>  <SCORE.INTRA.SOLV>
3.29267

>  <SCORE.INTRA.SOLV.lig_0>
-89.1587

>  <SCORE.INTRA.VDW>
0.674176

>  <SCORE.INTRA.VDW.0>
-0.838383

>  <SCORE.INTRA.norm>
-0.0221939

>  <SCORE.RESTR>
0.422483

>  <SCORE.RESTR.CAVITY>
0.422483

>  <SCORE.RESTR.norm>
0.0120709

>  <SCORE.SYSTEM>
0

>  <SCORE.SYSTEM.CONST>
0

>  <SCORE.SYSTEM.DIHEDRAL>
0

>  <SCORE.SYSTEM.SOLV>
0

>  <SCORE.SYSTEM.norm>
0

>  <SCORE.heavy>
35

>  <SCORE.norm>
-0.184048

>  <RMSD>
9.916

$$$$
2o3v_lig
 OpenBabel02141814113D
libRbt.so/2013.1/901 2013/11/27
 35 37  0  0  0  0  0  0  0  0999 V2000
   -1.6892   -7.1308   45.8097 C   0  0  2  0  0  0  0  0  0  0  0  0
   -2.7853   -6.7010   44.9456 O   0  0  0  0  0  0  0  0  0  0  0  0
   -5.7479   -5.0115   47.6467 C   0  0  2  0  0  0  0  0  0  0  0  0
   -7.0312   -4.4415   48.1570 N   0  0  0  0  0  0  0  0  0  0  0  0
    6.5258   -8.1061   44.0380 C   0  0  2  0  0  0  0  0  0  0  0  0
    6.6512   -7.2173   45.1692 O   0  0  0  0  0  0  0  0  0  0  0  0
   -0.4328   -6.5034   45.1268 C   0  0  2  0  0  0  0  0  0  0  0  0
   -0.5515   -5.0288   45.0379 N   0  0  0  0  0  0  0  0  0  0  0  0
   -5.1463   -4.0744   46.5129 C   0  0  0  0  0  0  0  0  0  0  0  0
    5.1375   -7.8216   43.3671 C   0  0  2  0  0  0  0  0  0  0  0  0
    5.0237   -6.3977   42.9616 N   0  0  0  0  0  0  0  0  0  0  0  0
   -0.1918   -7.1108   43.6768 C   0  0  1  0  0  0  0  0  0  0  0  0
    0.9808   -6.4694   43.0273 O   0  0  0  0  0  0  0  0  0  0  0  0
   -3.7892   -4.7087   45.9797 C   0  0  2  0  0  0  0  0  0  0  0  0
   -3.2180   -3.8570   44.9144 N   0  0  0  0  0  0  0  0  0  0  0  0
    3.9310   -8.2221   44.3257 C   0  0  1  0  0  0  0  0  0  0  0  0
    2.6331   -8.0003   43.7167 O   0  0  0  0  0  0  0  0  0  0  0  0
   -0.0661   -8.6895   43.8367 C   0  0  2  0  0  0  0  0  0  0  0  0
    0.1269   -9.3236   42.5851 O   0  0  0  0  0  0  0  0  0  0  0  0
   -4.0576   -6.1663   45.4205 C   0  0  2  0  0  0  0  0  0  0  0  0
    4.0849   -9.7270   44.7133 C   0  0  2  0  0  0  0  0  0  0  0  0
    3.0425  -10.1376   45.5761 O   0  0  0  0  0  0  0  0  0  0  0  0
   -1.3464   -9.2780   44.5426 C   0  0  2  0  0  0  0  0  0  0  0  0
   -1.5487   -8.6126   45.8467 O   0  0  0  0  0  0  0  0  0  0  0  0
   -4.6515   -7.0741   46.5338 C   0  0  2  0  0  0  0  0  0  0  0  0
   -4.9083   -8.3788   45.9399 O   0  0  0  0  0  0  0  0  0  0  0  0
    5.4971   -9.9706   45.3809 C   0  0  2  0  0  0  0  0  0  0  0  0
    6.5786   -9.5288   44.4709 O   0  0  0  0  0  0  0  0  0  0  0  0
   -1.2349  -10.7888   44.7420 C   0  0  0  0  0  0  0  0  0  0  0  0
   -1.2833  -11.4675   43.5108 O   0  0  0  0  0  0  0  0  0  0  0  0
   -5.9701   -6.4589   47.0580 C   0  0  1  0  0  0  0  0  0  0  0  0
   -6.4850   -7.2982   48.0701 O   0  0  0  0  0  0  0  0  0  0  0  0
    5.7106  -11.4341   45.7367 C   0  0  0  0  0  0  0  0  0  0  0  0
    6.9280  -11.6002   46.4226 O   0  0  0  0  0  0  0  0  0  0  0  0
    2.2667   -6.5924   43.8106 C   0  0  0  0  0  0  0  0  0  0  0  0
  1  2  1  6  0  0  0
  1  7  1  0  0  0  0
  1 24  1  0  0  0  0
  3  4  1  6  0  0  0
  3  9  1  0  0  0  0
  3 31  1  0  0  0  0
  5  6  1  1  0  0  0
  5 10  1  0  0  0  0
  5 28  1  0  0  0  0
  7  8  1  6  0  0  0
  7 12  1  0  0  0  0
  9 14  1  0  0  0  0
 10 11  1  1  0  0  0
 10 16  1  0  0  0  0
 12 13  1  1  0  0  0
 12 18  1  0  0  0  0
 13 35  1  0  0  0  0
 14 15  1  6  0  0  0
 14 20  1  0  0  0  0
 16 17  1  6  0  0  0
 16 21  1  0  0  0  0
 17 35  1  0  0  0  0
 18 19  1  6  0  0  0
 18 23  1  0  0  0  0
 20  2  1  1  0  0  0
 20 25  1  0  0  0  0
 21 22  1  1  0  0  0
 21 27  1  0  0  0  0
 23 24  1  0  0  0  0
 23 29  1  1  0  0  0
 25 26  1  6  0  0  0
 25 31  1  0  0  0  0
 27 28  1  0  0  0  0
 27 33  1  6  0  0  0
 29 30  1  0  0  0  0
 31 32  1  1  0  0  0
 33 34  1  0  0  0  0
M  END
>  <CHROM.1>
-135.11835723,57.58577936,70.32274039,-80.19444779,174.43428926,72.26585042
-68.57789499,-175.35364496,0.12883080,-7.75148527,45.09355978,2.86471144
0.21261969,-0.09673939

>  <Name>
2o3v_lig

>  <RI>
0

>  <Rbt.Current_Directory>
/home/afrankz/demos/rdock_decoys_rna/rnas/2o3v

>  <Rbt.Executable>
rbdock ($Id: //depot/dev/client3/rdock/2013.1/src/exe/rbdock.cxx#4 $)

>  <Rbt.Library>
libRbt.so (2013.1, Build901 2013/11/27)

>  <Rbt.Parameter_File>
/export/apps/rDock/src/rDock_2013.1_src/data/scripts/dock_solv.prm

>  <Rbt.Receptor>
prm/pocket_docking_5.prm

>  <SCORE>
-11.9952

>  <SCORE.INTER>
-10.6813

>  <SCORE.INTER.CONST>
1

>  <SCORE.INTER.POLAR>
-0.784793

>  <SCORE.INTER.ROT>
8

>  <SCORE.INTER.SOLV>
11.7797

>  <SCORE.INTER.VDW>
-17.3648

>  <SCORE.INTER.norm>
-0.305181

>  <SCORE.INTRA>
-1.31386

>  <SCORE.INTRA.DIHEDRAL>
-3.39138

>  <SCORE.INTRA.DIHEDRAL.0>
13.1227

>  <SCORE.INTRA.POLAR>
0

>  <SCORE.INTRA.POLAR.0>
0

>  <SCORE.INTRA.REPUL>
0

>  <SCORE.INTRA.REPUL.0>
0

>  <SCORE.INTRA.SOLV>
3.69808

>  <SCORE.INTRA.SOLV.lig_0>
-89.1587

>  <SCORE.INTRA.VDW>
-1.46722

>  <SCORE.INTRA.VDW.0>
-0.838383

>  <SCORE.INTRA.norm>
-0.0375389

>  <SCORE.RESTR>
0

>  <SCORE.RESTR.CAVITY>
0

>  <SCORE.RESTR.norm>
0

>  <SCORE.SYSTEM>
0

>  <SCORE.SYSTEM.CONST>
0

>  <SCORE.SYSTEM.DIHEDRAL>
0

>  <SCORE.SYSTEM.SOLV>
0

>  <SCORE.SYSTEM.norm>
0

>  <SCORE.heavy>
35

>  <SCORE.norm>
-0.342719

>  <RMSD>
9.930

$$$$
2o3v_lig
 OpenBabel02141814113D
libRbt.so/2013.1/901 2013/11/27
 35 37  0  0  0  0  0  0  0  0999 V2000
   -2.3836   -6.6240   45.6987 C   0  0  2  0  0  0  0  0  0  0  0  0
   -3.3758   -7.4007   44.9604 O   0  0  0  0  0  0  0  0  0  0  0  0
   -4.5835  -10.5348   47.7255 C   0  0  2  0  0  0  0  0  0  0  0  0
   -5.2693  -11.7401   48.2816 N   0  0  0  0  0  0  0  0  0  0  0  0
    3.4615   -1.1138   42.5588 C   0  0  2  0  0  0  0  0  0  0  0  0
    4.2624   -2.2686   42.8911 O   0  0  0  0  0  0  0  0  0  0  0  0
   -2.1203   -5.4032   44.7614 C   0  0  2  0  0  0  0  0  0  0  0  0
   -3.3682   -4.6464   44.5036 N   0  0  0  0  0  0  0  0  0  0  0  0
   -5.6552   -9.4300   47.3302 C   0  0  0  0  0  0  0  0  0  0  0  0
    1.9559   -1.5327   42.6851 C   0  0  2  0  0  0  0  0  0  0  0  0
    1.6553   -2.0347   44.0499 N   0  0  0  0  0  0  0  0  0  0  0  0
   -1.4723   -5.8557   43.3812 C   0  0  1  0  0  0  0  0  0  0  0  0
   -1.2709   -4.6859   42.4872 O   0  0  0  0  0  0  0  0  0  0  0  0
   -4.9011   -8.1646   46.7313 C   0  0  2  0  0  0  0  0  0  0  0  0
   -5.8823   -7.1277   46.3458 N   0  0  0  0  0  0  0  0  0  0  0  0
    1.5579   -2.6223   41.5946 C   0  0  1  0  0  0  0  0  0  0  0  0
    0.1601   -3.0042   41.6670 O   0  0  0  0  0  0  0  0  0  0  0  0
   -0.1379   -6.6543   43.7208 C   0  0  2  0  0  0  0  0  0  0  0  0
    0.5001   -7.1213   42.5457 O   0  0  0  0  0  0  0  0  0  0  0  0
   -4.0446   -8.5937   45.4697 C   0  0  2  0  0  0  0  0  0  0  0  0
    1.8778   -2.0461   40.1789 C   0  0  2  0  0  0  0  0  0  0  0  0
    1.5532   -2.9785   39.1666 O   0  0  0  0  0  0  0  0  0  0  0  0
   -0.4470   -7.8665   44.6793 C   0  0  2  0  0  0  0  0  0  0  0  0
   -1.1162   -7.3780   45.9033 O   0  0  0  0  0  0  0  0  0  0  0  0
   -3.0035   -9.6787   45.8638 C   0  0  2  0  0  0  0  0  0  0  0  0
   -2.2845  -10.0513   44.6534 O   0  0  0  0  0  0  0  0  0  0  0  0
    3.4015   -1.6329   40.0961 C   0  0  2  0  0  0  0  0  0  0  0  0
    3.7297   -0.6633   41.1662 O   0  0  0  0  0  0  0  0  0  0  0  0
    0.8241   -8.6286   45.0511 C   0  0  0  0  0  0  0  0  0  0  0  0
    1.7112   -7.8118   45.7756 O   0  0  0  0  0  0  0  0  0  0  0  0
   -3.7326  -10.9102   46.4503 C   0  0  1  0  0  0  0  0  0  0  0  0
   -2.7659  -11.8766   46.8047 O   0  0  0  0  0  0  0  0  0  0  0  0
    3.7508   -1.0242   38.7464 C   0  0  0  0  0  0  0  0  0  0  0  0
    4.4035   -1.9707   37.9351 O   0  0  0  0  0  0  0  0  0  0  0  0
   -0.0751   -3.8337   42.8424 C   0  0  0  0  0  0  0  0  0  0  0  0
  1  2  1  6  0  0  0
  1  7  1  0  0  0  0
  1 24  1  0  0  0  0
  3  4  1  6  0  0  0
  3  9  1  0  0  0  0
  3 31  1  0  0  0  0
  5  6  1  6  0  0  0
  5 10  1  0  0  0  0
  5 28  1  0  0  0  0
  7  8  1  6  0  0  0
  7 12  1  0  0  0  0
  9 14  1  0  0  0  0
 10 11  1  1  0  0  0
 10 16  1  0  0  0  0
 12 13  1  6  0  0  0
 12 18  1  0  0  0  0
 13 35  1  0  0  0  0
 14 15  1  6  0  0  0
 14 20  1  0  0  0  0
 16 17  1  6  0  0  0
 16 21  1  0  0  0  0
 17 35  1  0  0  0  0
 18 19  1  6  0  0  0
 18 23  1  0  0  0  0
 20  2  1  1  0  0  0
 20 25  1  0  0  0  0
 21 22  1  6  0  0  0
 21 27  1  0  0  0  0
 23 24  1  0  0  0  0
 23 29  1  1  0  0  0
 25 26  1  6  0  0  0
 25 31  1  0  0  0  0
 27 28  1  0  0  0  0
 27 33  1  6  0  0  0
 29 30  1  0  0  0  0
 31 32  1  1  0  0  0
 33 34  1  0  0  0  0
M  END
>  <CHROM.1>
-174.37859764,77.35131360,164.43782308,-72.78246078,-153.31169786,63.22948883
63.29297662,-101.37337819,-0.59668818,-5.83959590,43.80013003,2.21111634
-0.30360756,2.71509067

>  <Name>
2o3v_lig

>  <RI>
0

>  <Rbt.Current_Directory>
/home/afrankz/demos/rdock_decoys_rna/rnas/2o3v

>  <Rbt.Executable>
rbdock ($Id: //depot/dev/client3/rdock/2013.1/src/exe/rbdock.cxx#4 $)

>  <Rbt.Library>
libRbt.so (2013.1, Build901 2013/11/27)

>  <Rbt.Parameter_File>
/export/apps/rDock/src/rDock_2013.1_src/data/scripts/dock_solv.prm

>  <Rbt.Receptor>
prm/pocket_docking_8.prm

>  <SCORE>
-13.0036

>  <SCORE.INTER>
-11.6931

>  <SCORE.INTER.CONST>
1

>  <SCORE.INTER.POLAR>
-2.63462

>  <SCORE.INTER.ROT>
8

>  <SCORE.INTER.SOLV>
6.45904

>  <SCORE.INTER.VDW>
-10.0996

>  <SCORE.INTER.norm>
-0.334087

>  <SCORE.INTRA>
-1.31053

>  <SCORE.INTRA.DIHEDRAL>
-2.46805

>  <SCORE.INTRA.DIHEDRAL.0>
13.1227

>  <SCORE.INTRA.POLAR>
0

>  <SCORE.INTRA.POLAR.0>
0

>  <SCORE.INTRA.REPUL>
0

>  <SCORE.INTRA.REPUL.0>
0

>  <SCORE.INTRA.SOLV>
1.1647

>  <SCORE.INTRA.SOLV.lig_0>
-89.1587

>  <SCORE.INTRA.VDW>
-0.65885

>  <SCORE.INTRA.VDW.0>
-0.838383

>  <SCORE.INTRA.norm>
-0.0374437

>  <SCORE.RESTR>
0

>  <SCORE.RESTR.CAVITY>
0

>  <SCORE.RESTR.norm>
0

>  <SCORE.SYSTEM>
0

>  <SCORE.SYSTEM.CONST>
0

>  <SCORE.SYSTEM.DIHEDRAL>
0

>  <SCORE.SYSTEM.SOLV>
0

>  <SCORE.SYSTEM.norm>
0

>  <SCORE.heavy>
35

>  <SCORE.norm>
-0.371531

>  <RMSD>
9.932

$$$$
2o3v_lig
 OpenBabel02141814113D
libRbt.so/2013.1/901 2013/11/27
 35 37  0  0  0  0  0  0  0  0999 V2000
   -1.3659   -8.0082   46.5106 C   0  0  2  0  0  0  0  0  0  0  0  0
   -2.4200   -7.1218   46.0250 O   0  0  0  0  0  0  0  0  0  0  0  0
   -6.3057   -8.8967   46.8486 C   0  0  2  0  0  0  0  0  0  0  0  0
   -7.7379   -9.2934   46.6955 N   0  0  0  0  0  0  0  0  0  0  0  0
    6.0538   -6.4914   45.9195 C   0  0  2  0  0  0  0  0  0  0  0  0
    5.2778   -7.7093   45.9253 O   0  0  0  0  0  0  0  0  0  0  0  0
   -0.1880   -7.0276   46.8094 C   0  0  2  0  0  0  0  0  0  0  0  0
   -0.5829   -6.0033   47.8050 N   0  0  0  0  0  0  0  0  0  0  0  0
   -6.1794   -7.3133   46.8967 C   0  0  0  0  0  0  0  0  0  0  0  0
    5.0539   -5.2951   46.0848 C   0  0  2  0  0  0  0  0  0  0  0  0
    4.2592   -5.4335   47.3314 N   0  0  0  0  0  0  0  0  0  0  0  0
    0.3302   -6.3165   45.4845 C   0  0  1  0  0  0  0  0  0  0  0  0
    1.4200   -5.3556   45.7963 O   0  0  0  0  0  0  0  0  0  0  0  0
   -4.6467   -6.9180   47.0481 C   0  0  2  0  0  0  0  0  0  0  0  0
   -4.5056   -5.4465   47.0833 N   0  0  0  0  0  0  0  0  0  0  0  0
    4.0891   -5.1602   44.8255 C   0  0  1  0  0  0  0  0  0  0  0  0
    3.1745   -4.0396   44.9369 O   0  0  0  0  0  0  0  0  0  0  0  0
    0.7443   -7.4621   44.4599 C   0  0  2  0  0  0  0  0  0  0  0  0
    1.1985   -6.9207   43.2326 O   0  0  0  0  0  0  0  0  0  0  0  0
   -3.8140   -7.5119   45.8385 C   0  0  2  0  0  0  0  0  0  0  0  0
    4.9668   -5.0033   43.5435 C   0  0  2  0  0  0  0  0  0  0  0  0
    4.1604   -4.8894   42.3876 O   0  0  0  0  0  0  0  0  0  0  0  0
   -0.4672   -8.4359   44.1992 C   0  0  2  0  0  0  0  0  0  0  0  0
   -0.9425   -8.9971   45.4812 O   0  0  0  0  0  0  0  0  0  0  0  0
   -3.9480   -9.0599   45.7952 C   0  0  2  0  0  0  0  0  0  0  0  0
   -3.1938   -9.5295   44.6411 O   0  0  0  0  0  0  0  0  0  0  0  0
    5.9617   -6.2254   43.4177 C   0  0  2  0  0  0  0  0  0  0  0  0
    6.7937   -6.3383   44.6376 O   0  0  0  0  0  0  0  0  0  0  0  0
   -0.0848   -9.5678   43.2466 C   0  0  0  0  0  0  0  0  0  0  0  0
    0.4388   -9.0620   42.0429 O   0  0  0  0  0  0  0  0  0  0  0  0
   -5.4380   -9.4490   45.6515 C   0  0  1  0  0  0  0  0  0  0  0  0
   -5.5324  -10.8576   45.6203 O   0  0  0  0  0  0  0  0  0  0  0  0
    6.8697   -6.0942   42.2044 C   0  0  0  0  0  0  0  0  0  0  0  0
    7.6628   -7.2472   42.0575 O   0  0  0  0  0  0  0  0  0  0  0  0
    1.8136   -4.4686   44.6385 C   0  0  0  0  0  0  0  0  0  0  0  0
  1  2  1  6  0  0  0
  1  7  1  0  0  0  0
  1 24  1  0  0  0  0
  3  4  1  6  0  0  0
  3  9  1  0  0  0  0
  3 31  1  0  0  0  0
  5  6  1  6  0  0  0
  5 10  1  0  0  0  0
  5 28  1  0  0  0  0
  7  8  1  1  0  0  0
  7 12  1  0  0  0  0
  9 14  1  0  0  0  0
 10 11  1  1  0  0  0
 10 16  1  0  0  0  0
 12 13  1  1  0  0  0
 12 18  1  0  0  0  0
 13 35  1  0  0  0  0
 14 15  1  6  0  0  0
 14 20  1  0  0  0  0
 16 17  1  1  0  0  0
 16 21  1  0  0  0  0
 17 35  1  0  0  0  0
 18 19  1  6  0  0  0
 18 23  1  0  0  0  0
 20  2  1  1  0  0  0
 20 25  1  0  0  0  0
 21 22  1  6  0  0  0
 21 27  1  0  0  0  0
 23 24  1  0  0  0  0
 23 29  1  6  0  0  0
 25 26  1  6  0  0  0
 25 31  1  0  0  0  0
 27 28  1  0  0  0  0
 27 33  1  6  0  0  0
 29 30  1  0  0  0  0
 31 32  1  1  0  0  0
 33 34  1  0  0  0  0
M  END
>  <CHROM.1>
-168.19124115,-170.26690373,-157.12199364,-131.11640705,69.32280825,103.27075641
-54.83788023,-175.06343754,0.43229514,-7.12252066,45.12807987,3.10561701
-0.30758970,-2.37343481

>  <Name>
2o3v_lig

>  <RI>
0

>  <Rbt.Current_Directory>
/home/afrankz/demos/rdock_decoys_rna/rnas/2o3v

>  <Rbt.Executable>
rbdock ($Id: //depot/dev/client3/rdock/2013.1/src/exe/rbdock.cxx#4 $)

>  <Rbt.Library>
libRbt.so (2013.1, Build901 2013/11/27)

>  <Rbt.Parameter_File>
/export/apps/rDock/src/rDock_2013.1_src/data/scripts/dock_solv.prm

>  <Rbt.Receptor>
prm/pocket_docking_3.prm

>  <SCORE>
-0.341005

>  <SCORE.INTER>
-2.18816

>  <SCORE.INTER.CONST>
1

>  <SCORE.INTER.POLAR>
-0.573279

>  <SCORE.INTER.ROT>
8

>  <SCORE.INTER.SOLV>
17.254

>  <SCORE.INTER.VDW>
-14.2325

>  <SCORE.INTER.norm>
-0.0625189

>  <SCORE.INTRA>
1.46356

>  <SCORE.INTRA.DIHEDRAL>
3.44901

>  <SCORE.INTRA.DIHEDRAL.0>
13.1227

>  <SCORE.INTRA.POLAR>
0

>  <SCORE.INTRA.POLAR.0>
0

>  <SCORE.INTRA.REPUL>
0

>  <SCORE.INTRA.REPUL.0>
0

>  <SCORE.INTRA.SOLV>
1.16692

>  <SCORE.INTRA.SOLV.lig_0>
-89.1587

>  <SCORE.INTRA.VDW>
-0.8444

>  <SCORE.INTRA.VDW.0>
-0.838383

>  <SCORE.INTRA.norm>
0.0418161

>  <SCORE.RESTR>
0.383592

>  <SCORE.RESTR.CAVITY>
0.383592

>  <SCORE.RESTR.norm>
0.0109598

>  <SCORE.SYSTEM>
0

>  <SCORE.SYSTEM.CONST>
0

>  <SCORE.SYSTEM.DIHEDRAL>
0

>  <SCORE.SYSTEM.SOLV>
0

>  <SCORE.SYSTEM.norm>
0

>  <SCORE.heavy>
35

>  <SCORE.norm>
-0.00974299

>  <RMSD>
9.940

$$$$
2o3v_lig
 OpenBabel02141814113D
libRbt.so/2013.1/901 2013/11/27
 35 37  0  0  0  0  0  0  0  0999 V2000
   -1.1156   -4.3877   45.3378 C   0  0  2  0  0  0  0  0  0  0  0  0
   -2.3028   -4.4442   44.4892 O   0  0  0  0  0  0  0  0  0  0  0  0
   -5.6347   -4.5197   47.2856 C   0  0  2  0  0  0  0  0  0  0  0  0
   -7.0298   -4.5140   47.8204 N   0  0  0  0  0  0  0  0  0  0  0  0
    5.3813   -9.1616   43.8910 C   0  0  2  0  0  0  0  0  0  0  0  0
    5.0883   -9.5945   42.5447 O   0  0  0  0  0  0  0  0  0  0  0  0
    0.0567   -4.3732   44.3064 C   0  0  2  0  0  0  0  0  0  0  0  0
   -0.0509   -3.2142   43.3890 N   0  0  0  0  0  0  0  0  0  0  0  0
   -5.3447   -3.1683   46.5014 C   0  0  0  0  0  0  0  0  0  0  0  0
    4.1581   -8.3179   44.3911 C   0  0  2  0  0  0  0  0  0  0  0  0
    2.9038   -9.1104   44.3302 N   0  0  0  0  0  0  0  0  0  0  0  0
    0.1102   -5.7212   43.4641 C   0  0  1  0  0  0  0  0  0  0  0  0
    1.2037   -5.6693   42.4592 O   0  0  0  0  0  0  0  0  0  0  0  0
   -3.8599   -3.2049   45.9334 C   0  0  2  0  0  0  0  0  0  0  0  0
   -3.5729   -1.9597   45.1893 N   0  0  0  0  0  0  0  0  0  0  0  0
    4.0003   -6.9676   43.5625 C   0  0  1  0  0  0  0  0  0  0  0  0
    2.8950   -6.1504   44.0265 O   0  0  0  0  0  0  0  0  0  0  0  0
    0.2319   -6.9247   44.4987 C   0  0  2  0  0  0  0  0  0  0  0  0
    0.2616   -8.1765   43.8368 O   0  0  0  0  0  0  0  0  0  0  0  0
   -3.6767   -4.4576   44.9814 C   0  0  2  0  0  0  0  0  0  0  0  0
    5.3349   -6.1635   43.6670 C   0  0  2  0  0  0  0  0  0  0  0  0
    5.2568   -4.9542   42.9383 O   0  0  0  0  0  0  0  0  0  0  0  0
   -0.9608   -6.8923   45.5283 C   0  0  2  0  0  0  0  0  0  0  0  0
   -0.9928   -5.5841   46.2154 O   0  0  0  0  0  0  0  0  0  0  0  0
   -3.9683   -5.7743   45.7546 C   0  0  2  0  0  0  0  0  0  0  0  0
   -3.8204   -6.8741   44.8114 O   0  0  0  0  0  0  0  0  0  0  0  0
    6.5406   -7.0505   43.1581 C   0  0  2  0  0  0  0  0  0  0  0  0
    6.6057   -8.3166   43.9233 O   0  0  0  0  0  0  0  0  0  0  0  0
   -0.8474   -8.0166   46.5568 C   0  0  0  0  0  0  0  0  0  0  0  0
   -1.9707   -8.0447   47.4031 O   0  0  0  0  0  0  0  0  0  0  0  0
   -5.4107   -5.7414   46.3119 C   0  0  1  0  0  0  0  0  0  0  0  0
   -5.6477   -6.9440   47.0131 O   0  0  0  0  0  0  0  0  0  0  0  0
    7.8708   -6.3231   43.2821 C   0  0  0  0  0  0  0  0  0  0  0  0
    8.9389   -7.2112   43.0573 O   0  0  0  0  0  0  0  0  0  0  0  0
    2.5239   -5.1785   43.0054 C   0  0  0  0  0  0  0  0  0  0  0  0
  1  2  1  6  0  0  0
  1  7  1  0  0  0  0
  1 24  1  0  0  0  0
  3  4  1  6  0  0  0
  3  9  1  0  0  0  0
  3 31  1  0  0  0  0
  5  6  1  6  0  0  0
  5 10  1  0  0  0  0
  5 28  1  0  0  0  0
  7  8  1  6  0  0  0
  7 12  1  0  0  0  0
  9 14  1  0  0  0  0
 10 11  1  6  0  0  0
 10 16  1  0  0  0  0
 12 13  1  6  0  0  0
 12 18  1  0  0  0  0
 13 35  1  0  0  0  0
 14 15  1  6  0  0  0
 14 20  1  0  0  0  0
 16 17  1  1  0  0  0
 16 21  1  0  0  0  0
 17 35  1  0  0  0  0
 18 19  1  6  0  0  0
 18 23  1  0  0  0  0
 20  2  1  1  0  0  0
 20 25  1  0  0  0  0
 21 22  1  6  0  0  0
 21 27  1  0  0  0  0
 23 24  1  0  0  0  0
 23 29  1  1  0  0  0
 25 26  1  6  0  0  0
 25 31  1  0  0  0  0
 27 28  1  0  0  0  0
 27 33  1  1  0  0  0
 29 30  1  0  0  0  0
 31 32  1  1  0  0  0
 33 34  1  0  0  0  0
M  END
>  <CHROM.1>
-179.07176040,46.96847330,61.83274698,-161.69943912,107.83679091,54.09360568
-175.23478950,169.24410734,0.42870436,-6.12751839,44.69245461,-2.99768079
-0.32148132,2.86639966

>  <Name>
2o3v_lig

>  <RI>
0

>  <Rbt.Current_Directory>
/home/afrankz/demos/rdock_decoys_rna/rnas/2o3v

>  <Rbt.Executable>
rbdock ($Id: //depot/dev/client3/rdock/2013.1/src/exe/rbdock.cxx#4 $)

>  <Rbt.Library>
libRbt.so (2013.1, Build901 2013/11/27)

>  <Rbt.Parameter_File>
/export/apps/rDock/src/rDock_2013.1_src/data/scripts/dock_solv.prm

>  <Rbt.Receptor>
prm/pocket_docking_5.prm

>  <SCORE>
-12.5476

>  <SCORE.INTER>
-11.233

>  <SCORE.INTER.CONST>
1

>  <SCORE.INTER.POLAR>
-0.87178

>  <SCORE.INTER.ROT>
8

>  <SCORE.INTER.SOLV>
12.6446

>  <SCORE.INTER.VDW>
-17.731

>  <SCORE.INTER.norm>
-0.320944

>  <SCORE.INTRA>
-1.31458

>  <SCORE.INTRA.DIHEDRAL>
-3.57002

>  <SCORE.INTRA.DIHEDRAL.0>
13.1227

>  <SCORE.INTRA.POLAR>
0

>  <SCORE.INTRA.POLAR.0>
0

>  <SCORE.INTRA.REPUL>
0

>  <SCORE.INTRA.REPUL.0>
0

>  <SCORE.INTRA.SOLV>
3.18885

>  <SCORE.INTRA.SOLV.lig_0>
-89.1587

>  <SCORE.INTRA.VDW>
-1.12399

>  <SCORE.INTRA.VDW.0>
-0.838383

>  <SCORE.INTRA.norm>
-0.0375593

>  <SCORE.RESTR>
0

>  <SCORE.RESTR.CAVITY>
0

>  <SCORE.RESTR.norm>
0

>  <SCORE.SYSTEM>
0

>  <SCORE.SYSTEM.CONST>
0

>  <SCORE.SYSTEM.DIHEDRAL>
0

>  <SCORE.SYSTEM.SOLV>
0

>  <SCORE.SYSTEM.norm>
0

>  <SCORE.heavy>
35

>  <SCORE.norm>
-0.358503

>  <RMSD>
9.950

$$$$
2o3v_lig
 OpenBabel02141814113D
libRbt.so/2013.1/901 2013/11/27
 35 37  0  0  0  0  0  0  0  0999 V2000
   -2.3146   -9.5146   47.6752 C   0  0  2  0  0  0  0  0  0  0  0  0
   -2.6396   -9.1365   49.0479 O   0  0  0  0  0  0  0  0  0  0  0  0
   -6.6631  -10.6694   49.6717 C   0  0  2  0  0  0  0  0  0  0  0  0
   -7.9637  -10.9951   50.3310 N   0  0  0  0  0  0  0  0  0  0  0  0
    3.3108   -5.8738   43.7293 C   0  0  2  0  0  0  0  0  0  0  0  0
    2.0521   -6.4361   43.2991 O   0  0  0  0  0  0  0  0  0  0  0  0
   -0.8144   -9.1030   47.5402 C   0  0  2  0  0  0  0  0  0  0  0  0
    0.0249   -9.7998   48.5433 N   0  0  0  0  0  0  0  0  0  0  0  0
   -5.4661  -11.3669   50.4501 C   0  0  0  0  0  0  0  0  0  0  0  0
    3.4275   -6.1083   45.2751 C   0  0  2  0  0  0  0  0  0  0  0  0
    3.3311   -7.5533   45.6034 N   0  0  0  0  0  0  0  0  0  0  0  0
   -0.6254   -7.5302   47.6817 C   0  0  1  0  0  0  0  0  0  0  0  0
    0.8122   -7.1642   47.5947 O   0  0  0  0  0  0  0  0  0  0  0  0
   -4.0947  -10.9954   49.7361 C   0  0  2  0  0  0  0  0  0  0  0  0
   -2.9653  -11.6259   50.4525 N   0  0  0  0  0  0  0  0  0  0  0  0
    2.3266   -5.2840   46.0772 C   0  0  1  0  0  0  0  0  0  0  0  0
    2.4326   -5.4564   47.5138 O   0  0  0  0  0  0  0  0  0  0  0  0
   -1.5421   -6.8392   46.5790 C   0  0  2  0  0  0  0  0  0  0  0  0
   -1.4575   -5.4270   46.6451 O   0  0  0  0  0  0  0  0  0  0  0  0
   -3.9080   -9.4226   49.7109 C   0  0  2  0  0  0  0  0  0  0  0  0
    2.4754   -3.7730   45.7118 C   0  0  2  0  0  0  0  0  0  0  0  0
    1.5124   -2.9901   46.3894 O   0  0  0  0  0  0  0  0  0  0  0  0
   -3.0423   -7.2934   46.7425 C   0  0  2  0  0  0  0  0  0  0  0  0
   -3.1285   -8.7675   46.6772 O   0  0  0  0  0  0  0  0  0  0  0  0
   -5.0859   -8.7481   48.9533 C   0  0  2  0  0  0  0  0  0  0  0  0
   -4.8688   -7.3089   49.0049 O   0  0  0  0  0  0  0  0  0  0  0  0
    2.3563   -3.5819   44.1470 C   0  0  2  0  0  0  0  0  0  0  0  0
    3.3641   -4.4132   43.4497 O   0  0  0  0  0  0  0  0  0  0  0  0
   -3.9384   -6.6726   45.6718 C   0  0  0  0  0  0  0  0  0  0  0  0
   -5.2784   -7.0654   45.8421 O   0  0  0  0  0  0  0  0  0  0  0  0
   -6.4225   -9.1098   49.6424 C   0  0  1  0  0  0  0  0  0  0  0  0
   -7.4746   -8.4905   48.9329 O   0  0  0  0  0  0  0  0  0  0  0  0
    2.5389   -2.1281   43.7383 C   0  0  0  0  0  0  0  0  0  0  0  0
    3.9000   -1.7737   43.7796 O   0  0  0  0  0  0  0  0  0  0  0  0
    1.1266   -5.7690   48.0812 C   0  0  0  0  0  0  0  0  0  0  0  0
  1  2  1  1  0  0  0
  1  7  1  0  0  0  0
  1 24  1  0  0  0  0
  3  4  1  1  0  0  0
  3  9  1  0  0  0  0
  3 31  1  0  0  0  0
  5  6  1  1  0  0  0
  5 10  1  0  0  0  0
  5 28  1  0  0  0  0
  7  8  1  1  0  0  0
  7 12  1  0  0  0  0
  9 14  1  0  0  0  0
 10 11  1  6  0  0  0
 10 16  1  0  0  0  0
 12 13  1  6  0  0  0
 12 18  1  0  0  0  0
 13 35  1  0  0  0  0
 14 15  1  1  0  0  0
 14 20  1  0  0  0  0
 16 17  1  1  0  0  0
 16 21  1  0  0  0  0
 17 35  1  0  0  0  0
 18 19  1  1  0  0  0
 18 23  1  0  0  0  0
 20  2  1  6  0  0  0
 20 25  1  0  0  0  0
 21 22  1  1  0  0  0
 21 27  1  0  0  0  0
 23 24  1  0  0  0  0
 23 29  1  6  0  0  0
 25 26  1  1  0  0  0
 25 31  1  0  0  0  0
 27 28  1  0  0  0  0
 27 33  1  1  0  0  0
 29 30  1  0  0  0  0
 31 32  1  6  0  0  0
 33 34  1  0  0  0  0
M  END
>  <CHROM.1>
-174.40401320,-164.41033682,-161.62090582,-131.27708539,69.74096194,60.19571882
-178.92454982,76.60539685,-1.25619149,-7.20188541,47.10712935,-2.43176268
0.09731066,-0.57983978

>  <Name>
2o3v_lig

>  <RI>
0

>  <Rbt.Current_Directory>
/home/afrankz/demos/rdock_decoys_rna/rnas/2o3v

>  <Rbt.Executable>
rbdock ($Id: //depot/dev/client3/rdock/2013.1/src/exe/rbdock.cxx#4 $)

>  <Rbt.Library>
libRbt.so (2013.1, Build901 2013/11/27)

>  <Rbt.Parameter_File>
/export/apps/rDock/src/rDock_2013.1_src/data/scripts/dock_solv.prm

>  <Rbt.Receptor>
prm/pocket_docking_4.prm

>  <SCORE>
-11.7714

>  <SCORE.INTER>
-8.44969

>  <SCORE.INTER.CONST>
1

>  <SCORE.INTER.POLAR>
-1.19754

>  <SCORE.INTER.ROT>
8

>  <SCORE.INTER.SOLV>
8.83422

>  <SCORE.INTER.VDW>
-13.5194

>  <SCORE.INTER.norm>
-0.24142

>  <SCORE.INTRA>
-3.33814

>  <SCORE.INTRA.DIHEDRAL>
-2.25488

>  <SCORE.INTRA.DIHEDRAL.0>
13.1227

>  <SCORE.INTRA.POLAR>
0

>  <SCORE.INTRA.POLAR.0>
0

>  <SCORE.INTRA.REPUL>
0

>  <SCORE.INTRA.REPUL.0>
0

>  <SCORE.INTRA.SOLV>
1.73933

>  <SCORE.INTRA.SOLV.lig_0>
-89.1587

>  <SCORE.INTRA.VDW>
-3.08037

>  <SCORE.INTRA.VDW.0>
-0.838383

>  <SCORE.INTRA.norm>
-0.0953754

>  <SCORE.RESTR>
0.0164554

>  <SCORE.RESTR.CAVITY>
0.0164554

>  <SCORE.RESTR.norm>
0.000470153

>  <SCORE.SYSTEM>
0

>  <SCORE.SYSTEM.CONST>
0

>  <SCORE.SYSTEM.DIHEDRAL>
0

>  <SCORE.SYSTEM.SOLV>
0

>  <SCORE.SYSTEM.norm>
0

>  <SCORE.heavy>
35

>  <SCORE.norm>
-0.336325

>  <RMSD>
9.972

$$$$
2o3v_lig
 OpenBabel02141814113D
libRbt.so/2013.1/901 2013/11/27
 35 37  0  0  0  0  0  0  0  0999 V2000
   -2.8917   -9.7385   45.1018 C   0  0  2  0  0  0  0  0  0  0  0  0
   -2.4957   -9.6307   46.5033 O   0  0  0  0  0  0  0  0  0  0  0  0
   -4.7741  -10.0163   50.1894 C   0  0  2  0  0  0  0  0  0  0  0  0
   -5.6760   -9.6842   51.3333 N   0  0  0  0  0  0  0  0  0  0  0  0
    3.3258   -3.3121   43.3218 C   0  0  2  0  0  0  0  0  0  0  0  0
    3.1538   -3.0381   44.7292 O   0  0  0  0  0  0  0  0  0  0  0  0
   -1.5319   -9.9542   44.3650 C   0  0  2  0  0  0  0  0  0  0  0  0
   -0.8393  -11.1663   44.8624 N   0  0  0  0  0  0  0  0  0  0  0  0
   -3.5189   -9.0418   50.1825 C   0  0  0  0  0  0  0  0  0  0  0  0
    2.3038   -4.4356   42.9324 C   0  0  2  0  0  0  0  0  0  0  0  0
    0.9124   -4.0216   43.2449 N   0  0  0  0  0  0  0  0  0  0  0  0
   -0.5783   -8.6905   44.5175 C   0  0  1  0  0  0  0  0  0  0  0  0
    0.7259   -8.9333   43.8478 O   0  0  0  0  0  0  0  0  0  0  0  0
   -2.5826   -9.4084   48.9507 C   0  0  2  0  0  0  0  0  0  0  0  0
   -1.4127   -8.5045   48.9189 N   0  0  0  0  0  0  0  0  0  0  0  0
    2.6461   -5.8136   43.6525 C   0  0  1  0  0  0  0  0  0  0  0  0
    1.7351   -6.8808   43.2839 O   0  0  0  0  0  0  0  0  0  0  0  0
   -1.3707   -7.4262   43.9632 C   0  0  2  0  0  0  0  0  0  0  0  0
   -0.6042   -6.2412   44.0816 O   0  0  0  0  0  0  0  0  0  0  0  0
   -3.3973   -9.2852   47.5978 C   0  0  2  0  0  0  0  0  0  0  0  0
    4.1097   -6.2147   43.2844 C   0  0  2  0  0  0  0  0  0  0  0  0
    4.4742   -7.4309   43.9070 O   0  0  0  0  0  0  0  0  0  0  0  0
   -2.7409   -7.2552   44.7227 C   0  0  2  0  0  0  0  0  0  0  0  0
   -3.5379   -8.4940   44.6015 O   0  0  0  0  0  0  0  0  0  0  0  0
   -4.6263  -10.2369   47.6156 C   0  0  2  0  0  0  0  0  0  0  0  0
   -5.3458  -10.0412   46.3646 O   0  0  0  0  0  0  0  0  0  0  0  0
    5.1051   -5.0549   43.6888 C   0  0  2  0  0  0  0  0  0  0  0  0
    4.7072   -3.7861   43.0371 O   0  0  0  0  0  0  0  0  0  0  0  0
   -3.5392   -6.0690   44.1836 C   0  0  0  0  0  0  0  0  0  0  0  0
   -4.7683   -5.9381   44.8551 O   0  0  0  0  0  0  0  0  0  0  0  0
   -5.5382   -9.8861   48.8146 C   0  0  1  0  0  0  0  0  0  0  0  0
   -6.6419  -10.7669   48.8110 O   0  0  0  0  0  0  0  0  0  0  0  0
    6.5411   -5.3826   43.3088 C   0  0  0  0  0  0  0  0  0  0  0  0
    6.6210   -5.7350   41.9489 O   0  0  0  0  0  0  0  0  0  0  0  0
    1.8175   -7.9694   44.2500 C   0  0  0  0  0  0  0  0  0  0  0  0
  1  2  1  1  0  0  0
  1  7  1  0  0  0  0
  1 24  1  0  0  0  0
  3  4  1  1  0  0  0
  3  9  1  0  0  0  0
  3 31  1  0  0  0  0
  5  6  1  1  0  0  0
  5 10  1  0  0  0  0
  5 28  1  0  0  0  0
  7  8  1  1  0  0  0
  7 12  1  0  0  0  0
  9 14  1  0  0  0  0
 10 11  1  1  0  0  0
 10 16  1  0  0  0  0
 12 13  1  6  0  0  0
 12 18  1  0  0  0  0
 13 35  1  0  0  0  0
 14 15  1  6  0  0  0
 14 20  1  0  0  0  0
 16 17  1  6  0  0  0
 16 21  1  0  0  0  0
 17 35  1  0  0  0  0
 18 19  1  1  0  0  0
 18 23  1  0  0  0  0
 20  2  1  6  0  0  0
 20 25  1  0  0  0  0
 21 22  1  1  0  0  0
 21 27  1  0  0  0  0
 23 24  1  0  0  0  0
 23 29  1  6  0  0  0
 25 26  1  6  0  0  0
 25 31  1  0  0  0  0
 27 28  1  0  0  0  0
 27 33  1  6  0  0  0
 29 30  1  0  0  0  0
 31 32  1  1  0  0  0
 33 34  1  0  0  0  0
M  END
>  <CHROM.1>
173.44053927,-164.14898013,-91.36098725,-162.34254480,173.85196488,175.07313921
179.12117521,52.85777103,-0.55049583,-7.56296189,45.36064784,2.49440796,-0.07028354
2.40146863

>  <Name>
2o3v_lig

>  <RI>
0

>  <Rbt.Current_Directory>
/home/afrankz/demos/rdock_decoys_rna/rnas/2o3v

>  <Rbt.Executable>
rbdock ($Id: //depot/dev/client3/rdock/2013.1/src/exe/rbdock.cxx#4 $)

>  <Rbt.Library>
libRbt.so (2013.1, Build901 2013/11/27)

>  <Rbt.Parameter_File>
/export/apps/rDock/src/rDock_2013.1_src/data/scripts/dock_solv.prm

>  <Rbt.Receptor>
prm/pocket_docking_5.prm

>  <SCORE>
-13.2611

>  <SCORE.INTER>
-9.96465

>  <SCORE.INTER.CONST>
1

>  <SCORE.INTER.POLAR>
-1.23458

>  <SCORE.INTER.ROT>
8

>  <SCORE.INTER.SOLV>
12.3503

>  <SCORE.INTER.VDW>
-15.5779

>  <SCORE.INTER.norm>
-0.284704

>  <SCORE.INTRA>
-3.29647

>  <SCORE.INTRA.DIHEDRAL>
-5.92425

>  <SCORE.INTRA.DIHEDRAL.0>
13.1227

>  <SCORE.INTRA.POLAR>
0

>  <SCORE.INTRA.POLAR.0>
0

>  <SCORE.INTRA.REPUL>
0

>  <SCORE.INTRA.REPUL.0>
0

>  <SCORE.INTRA.SOLV>
0.519689

>  <SCORE.INTRA.SOLV.lig_0>
-89.1587

>  <SCORE.INTRA.VDW>
-0.594185

>  <SCORE.INTRA.VDW.0>
-0.838383

>  <SCORE.INTRA.norm>
-0.0941848

>  <SCORE.RESTR>
0

>  <SCORE.RESTR.CAVITY>
0

>  <SCORE.RESTR.norm>
0

>  <SCORE.SYSTEM>
0

>  <SCORE.SYSTEM.CONST>
0

>  <SCORE.SYSTEM.DIHEDRAL>
0

>  <SCORE.SYSTEM.SOLV>
0

>  <SCORE.SYSTEM.norm>
0

>  <SCORE.heavy>
35

>  <SCORE.norm>
-0.378889

>  <RMSD>
9.974

$$$$
2o3v_lig
 OpenBabel02141814113D
libRbt.so/2013.1/901 2013/11/27
 35 37  0  0  0  0  0  0  0  0999 V2000
    0.0109   -4.9600   46.2248 C   0  0  2  0  0  0  0  0  0  0  0  0
   -1.0689   -5.8153   45.7397 O   0  0  0  0  0  0  0  0  0  0  0  0
   -5.4144   -6.0241   45.7594 C   0  0  2  0  0  0  0  0  0  0  0  0
   -6.8258   -6.0263   46.2494 N   0  0  0  0  0  0  0  0  0  0  0  0
    7.7949   -8.0363   43.7676 C   0  0  2  0  0  0  0  0  0  0  0  0
    7.6680   -6.8711   44.6112 O   0  0  0  0  0  0  0  0  0  0  0  0
    1.2126   -5.3523   45.3081 C   0  0  2  0  0  0  0  0  0  0  0  0
    0.8939   -5.1223   43.8791 N   0  0  0  0  0  0  0  0  0  0  0  0
   -4.6034   -7.2184   46.4237 C   0  0  0  0  0  0  0  0  0  0  0  0
    6.4222   -8.2413   43.0382 C   0  0  2  0  0  0  0  0  0  0  0  0
    6.0493   -7.0354   42.2560 N   0  0  0  0  0  0  0  0  0  0  0  0
    1.6420   -6.8682   45.5250 C   0  0  1  0  0  0  0  0  0  0  0  0
    2.7566   -7.2338   44.6126 O   0  0  0  0  0  0  0  0  0  0  0  0
   -3.1041   -7.1865   45.8953 C   0  0  2  0  0  0  0  0  0  0  0  0
   -2.3280   -8.2843   46.5110 N   0  0  0  0  0  0  0  0  0  0  0  0
    5.2639   -8.6151   44.0645 C   0  0  1  0  0  0  0  0  0  0  0  0
    3.9883   -8.8434   43.4122 O   0  0  0  0  0  0  0  0  0  0  0  0
    1.9772   -7.0519   47.0701 C   0  0  2  0  0  0  0  0  0  0  0  0
    2.3486   -8.3864   47.3651 O   0  0  0  0  0  0  0  0  0  0  0  0
   -2.4382   -5.7922   46.2443 C   0  0  2  0  0  0  0  0  0  0  0  0
    5.6933   -9.8935   44.8519 C   0  0  2  0  0  0  0  0  0  0  0  0
    4.7035  -10.2679   45.7897 O   0  0  0  0  0  0  0  0  0  0  0  0
    0.7448   -6.6310   47.9577 C   0  0  2  0  0  0  0  0  0  0  0  0
    0.3560   -5.2395   47.6459 O   0  0  0  0  0  0  0  0  0  0  0  0
   -3.2410   -4.6297   45.5960 C   0  0  2  0  0  0  0  0  0  0  0  0
   -2.5977   -3.3841   45.9907 O   0  0  0  0  0  0  0  0  0  0  0  0
    7.0814   -9.6459   45.5671 C   0  0  2  0  0  0  0  0  0  0  0  0
    8.1061   -9.2465   44.5755 O   0  0  0  0  0  0  0  0  0  0  0  0
    1.0534   -6.7626   49.4484 C   0  0  0  0  0  0  0  0  0  0  0  0
    2.1019   -5.9045   49.8266 O   0  0  0  0  0  0  0  0  0  0  0  0
   -4.7013   -4.6591   46.1047 C   0  0  1  0  0  0  0  0  0  0  0  0
   -5.4088   -3.5986   45.4975 O   0  0  0  0  0  0  0  0  0  0  0  0
    7.5628  -10.8813   46.3127 C   0  0  0  0  0  0  0  0  0  0  0  0
    7.5794  -11.9970   45.4554 O   0  0  0  0  0  0  0  0  0  0  0  0
    2.9008   -8.7187   44.3751 C   0  0  0  0  0  0  0  0  0  0  0  0
  1  2  1  6  0  0  0
  1  7  1  0  0  0  0
  1 24  1  0  0  0  0
  3  4  1  1  0  0  0
  3  9  1  0  0  0  0
  3 31  1  0  0  0  0
  5  6  1  1  0  0  0
  5 10  1  0  0  0  0
  5 28  1  0  0  0  0
  7  8  1  6  0  0  0
  7 12  1  0  0  0  0
  9 14  1  0  0  0  0
 10 11  1  1  0  0  0
 10 16  1  0  0  0  0
 12 13  1  6  0  0  0
 12 18  1  0  0  0  0
 13 35  1  0  0  0  0
 14 15  1  1  0  0  0
 14 20  1  0  0  0  0
 16 17  1  6  0  0  0
 16 21  1  0  0  0  0
 17 35  1  0  0  0  0
 18 19  1  6  0  0  0
 18 23  1  0  0  0  0
 20  2  1  6  0  0  0
 20 25  1  0  0  0  0
 21 22  1  1  0  0  0
 21 27  1  0  0  0  0
 23 24  1  0  0  0  0
 23 29  1  1  0  0  0
 25 26  1  1  0  0  0
 25 31  1  0  0  0  0
 27 28  1  0  0  0  0
 27 33  1  6  0  0  0
 29 30  1  0  0  0  0
 31 32  1  6  0  0  0
 33 34  1  0  0  0  0
M  END
>  <CHROM.1>
-177.48380898,-158.95897160,177.06999259,-160.30529737,75.23793003,-158.04035264
62.43631001,53.33437904,1.60420645,-7.16628833,45.69825286,-3.10956363,-0.37607245
2.03289433

>  <Name>
2o3v_lig

>  <RI>
0

>  <Rbt.Current_Directory>
/home/afrankz/demos/rdock_decoys_rna/rnas/2o3v

>  <Rbt.Executable>
rbdock ($Id: //depot/dev/client3/rdock/2013.1/src/exe/rbdock.cxx#4 $)

>  <Rbt.Library>
libRbt.so (2013.1, Build901 2013/11/27)

>  <Rbt.Parameter_File>
/export/apps/rDock/src/rDock_2013.1_src/data/scripts/dock_solv.prm

>  <Rbt.Receptor>
prm/pocket_docking_4.prm

>  <SCORE>
-10.5936

>  <SCORE.INTER>
-6.55093

>  <SCORE.INTER.CONST>
1

>  <SCORE.INTER.POLAR>
0

>  <SCORE.INTER.ROT>
8

>  <SCORE.INTER.SOLV>
12.4515

>  <SCORE.INTER.VDW>
-17.4511

>  <SCORE.INTER.norm>
-0.187169

>  <SCORE.INTRA>
-4.04268

>  <SCORE.INTRA.DIHEDRAL>
-5.88989

>  <SCORE.INTRA.DIHEDRAL.0>
13.1227

>  <SCORE.INTRA.POLAR>
0

>  <SCORE.INTRA.POLAR.0>
0

>  <SCORE.INTRA.REPUL>
0.0829975

>  <SCORE.INTRA.REPUL.0>
0

>  <SCORE.INTRA.SOLV>
0.120657

>  <SCORE.INTRA.SOLV.lig_0>
-89.1587

>  <SCORE.INTRA.VDW>
-1.57305

>  <SCORE.INTRA.VDW.0>
-0.838383

>  <SCORE.INTRA.norm>
-0.115505

>  <SCORE.RESTR>
0

>  <SCORE.RESTR.CAVITY>
0

>  <SCORE.RESTR.norm>
0

>  <SCORE.SYSTEM>
0

>  <SCORE.SYSTEM.CONST>
0

>  <SCORE.SYSTEM.DIHEDRAL>
0

>  <SCORE.SYSTEM.SOLV>
0

>  <SCORE.SYSTEM.norm>
0

>  <SCORE.heavy>
35

>  <SCORE.norm>
-0.302675

>  <RMSD>
9.978

$$$$
2o3v_lig
 OpenBabel02141814113D
libRbt.so/2013.1/901 2013/11/27
 35 37  0  0  0  0  0  0  0  0999 V2000
    0.4450   -7.4534   48.0532 C   0  0  2  0  0  0  0  0  0  0  0  0
    0.7453   -6.1510   47.4647 O   0  0  0  0  0  0  0  0  0  0  0  0
   -1.4989   -3.4527   44.8938 C   0  0  2  0  0  0  0  0  0  0  0  0
   -2.1409   -2.8686   43.6777 N   0  0  0  0  0  0  0  0  0  0  0  0
    8.0891  -10.4979   50.1339 C   0  0  2  0  0  0  0  0  0  0  0  0
    8.0271   -9.9078   48.8173 O   0  0  0  0  0  0  0  0  0  0  0  0
    1.4759   -7.5606   49.2212 C   0  0  2  0  0  0  0  0  0  0  0  0
    1.3150   -6.4439   50.1821 N   0  0  0  0  0  0  0  0  0  0  0  0
    0.0740   -3.5483   44.6889 C   0  0  0  0  0  0  0  0  0  0  0  0
    6.6540  -10.4072   50.7587 C   0  0  2  0  0  0  0  0  0  0  0  0
    5.6543  -11.0891   49.8982 N   0  0  0  0  0  0  0  0  0  0  0  0
    2.9709   -7.5915   48.6796 C   0  0  1  0  0  0  0  0  0  0  0  0
    3.9368   -7.6489   49.8074 O   0  0  0  0  0  0  0  0  0  0  0  0
    0.7306   -4.1829   45.9907 C   0  0  2  0  0  0  0  0  0  0  0  0
    2.1949   -4.2916   45.8162 N   0  0  0  0  0  0  0  0  0  0  0  0
    6.2226   -8.8967   51.0178 C   0  0  1  0  0  0  0  0  0  0  0  0
    4.9108   -8.7843   51.6270 O   0  0  0  0  0  0  0  0  0  0  0  0
    3.0837   -8.8102   47.6618 C   0  0  2  0  0  0  0  0  0  0  0  0
    4.3828   -8.9026   47.1055 O   0  0  0  0  0  0  0  0  0  0  0  0
    0.1113   -5.6150   46.2644 C   0  0  2  0  0  0  0  0  0  0  0  0
    7.2932   -8.2263   51.9360 C   0  0  2  0  0  0  0  0  0  0  0  0
    6.9667   -6.8746   52.1925 O   0  0  0  0  0  0  0  0  0  0  0  0
    2.0173   -8.6699   46.5100 C   0  0  2  0  0  0  0  0  0  0  0  0
    0.6625   -8.5696   47.0922 O   0  0  0  0  0  0  0  0  0  0  0  0
   -1.4278   -5.5131   46.4574 C   0  0  2  0  0  0  0  0  0  0  0  0
   -1.9305   -6.8644   46.6634 O   0  0  0  0  0  0  0  0  0  0  0  0
    8.7232   -8.3439   51.2724 C   0  0  2  0  0  0  0  0  0  0  0  0
    9.0488   -9.7629   51.0016 O   0  0  0  0  0  0  0  0  0  0  0  0
    2.0795   -9.8478   45.5386 C   0  0  0  0  0  0  0  0  0  0  0  0
    3.2983   -9.8618   44.8364 O   0  0  0  0  0  0  0  0  0  0  0  0
   -2.0702   -4.8929   45.1945 C   0  0  1  0  0  0  0  0  0  0  0  0
   -3.4650   -4.8065   45.3976 O   0  0  0  0  0  0  0  0  0  0  0  0
    9.8077   -7.7420   52.1531 C   0  0  0  0  0  0  0  0  0  0  0  0
   11.0603   -7.8284   51.5179 O   0  0  0  0  0  0  0  0  0  0  0  0
    3.8715   -8.9243   50.6144 C   0  0  0  0  0  0  0  0  0  0  0  0
  1  2  1  6  0  0  0
  1  7  1  0  0  0  0
  1 24  1  0  0  0  0
  3  4  1  6  0  0  0
  3  9  1  0  0  0  0
  3 31  1  0  0  0  0
  5  6  1  6  0  0  0
  5 10  1  0  0  0  0
  5 28  1  0  0  0  0
  7  8  1  1  0  0  0
  7 12  1  0  0  0  0
  9 14  1  0  0  0  0
 10 11  1  6  0  0  0
 10 16  1  0  0  0  0
 12 13  1  1  0  0  0
 12 18  1  0  0  0  0
 13 35  1  0  0  0  0
 14 15  1  6  0  0  0
 14 20  1  0  0  0  0
 16 17  1  1  0  0  0
 16 21  1  0  0  0  0
 17 35  1  0  0  0  0
 18 19  1  6  0  0  0
 18 23  1  0  0  0  0
 20  2  1  1  0  0  0
 20 25  1  0  0  0  0
 21 22  1  6  0  0  0
 21 27  1  0  0  0  0
 23 24  1  0  0  0  0
 23 29  1  6  0  0  0
 25 26  1  6  0  0  0
 25 31  1  0  0  0  0
 27 28  1  0  0  0  0
 27 33  1  1  0  0  0
 29 30  1  0  0  0  0
 31 32  1  1  0  0  0
 33 34  1  0  0  0  0
M  END
>  <CHROM.1>
175.42764285,65.71521592,178.48627846,-80.37796346,-71.50508016,179.83234125
-65.83303793,-178.32395565,3.28427214,-7.48174596,48.30640147,2.96996496
-0.61285783,0.32187235

>  <Name>
2o3v_lig

>  <RI>
0

>  <Rbt.Current_Directory>
/home/afrankz/demos/rdock_decoys_rna/rnas/2o3v

>  <Rbt.Executable>
rbdock ($Id: //depot/dev/client3/rdock/2013.1/src/exe/rbdock.cxx#4 $)

>  <Rbt.Library>
libRbt.so (2013.1, Build901 2013/11/27)

>  <Rbt.Parameter_File>
/export/apps/rDock/src/rDock_2013.1_src/data/scripts/dock_solv.prm

>  <Rbt.Receptor>
prm/pocket_docking_8.prm

>  <SCORE>
-12.3774

>  <SCORE.INTER>
-6.71726

>  <SCORE.INTER.CONST>
1

>  <SCORE.INTER.POLAR>
-0.916515

>  <SCORE.INTER.ROT>
8

>  <SCORE.INTER.SOLV>
12.8842

>  <SCORE.INTER.VDW>
-14.6512

>  <SCORE.INTER.norm>
-0.191922

>  <SCORE.INTRA>
-5.66015

>  <SCORE.INTRA.DIHEDRAL>
-10.1748

>  <SCORE.INTRA.DIHEDRAL.0>
13.1227

>  <SCORE.INTRA.POLAR>
0

>  <SCORE.INTRA.POLAR.0>
0

>  <SCORE.INTRA.REPUL>
0.00312161

>  <SCORE.INTRA.REPUL.0>
0

>  <SCORE.INTRA.SOLV>
0.800149

>  <SCORE.INTRA.SOLV.lig_0>
-89.1587

>  <SCORE.INTRA.VDW>
-0.988445

>  <SCORE.INTRA.VDW.0>
-0.838383

>  <SCORE.INTRA.norm>
-0.161719

>  <SCORE.RESTR>
0

>  <SCORE.RESTR.CAVITY>
0

>  <SCORE.RESTR.norm>
0

>  <SCORE.SYSTEM>
0

>  <SCORE.SYSTEM.CONST>
0

>  <SCORE.SYSTEM.DIHEDRAL>
0

>  <SCORE.SYSTEM.SOLV>
0

>  <SCORE.SYSTEM.norm>
0

>  <SCORE.heavy>
35

>  <SCORE.norm>
-0.35364

>  <RMSD>
9.983

$$$$
2o3v_lig
 OpenBabel02141814113D
libRbt.so/2013.1/901 2013/11/27
 35 37  0  0  0  0  0  0  0  0999 V2000
   -0.8698   -6.8861   45.0482 C   0  0  2  0  0  0  0  0  0  0  0  0
   -1.8774   -7.5923   44.2616 O   0  0  0  0  0  0  0  0  0  0  0  0
   -5.4592   -7.6039   46.7309 C   0  0  2  0  0  0  0  0  0  0  0  0
   -6.8925   -7.7101   47.1393 N   0  0  0  0  0  0  0  0  0  0  0  0
    6.0687   -4.7469   43.0662 C   0  0  2  0  0  0  0  0  0  0  0  0
    6.4050   -4.5884   44.4616 O   0  0  0  0  0  0  0  0  0  0  0  0
    0.4739   -7.3533   44.4042 C   0  0  2  0  0  0  0  0  0  0  0  0
    0.5249   -7.0114   42.9631 N   0  0  0  0  0  0  0  0  0  0  0  0
   -5.2760   -6.4247   45.6815 C   0  0  0  0  0  0  0  0  0  0  0  0
    4.6263   -5.3575   42.9959 C   0  0  2  0  0  0  0  0  0  0  0  0
    3.6469   -4.4929   43.7017 N   0  0  0  0  0  0  0  0  0  0  0  0
    0.6996   -8.9163   44.5933 C   0  0  1  0  0  0  0  0  0  0  0  0
    1.9604   -9.3479   43.9357 O   0  0  0  0  0  0  0  0  0  0  0  0
   -3.7464   -6.3408   45.2551 C   0  0  2  0  0  0  0  0  0  0  0  0
   -3.5558   -5.2558   44.2688 N   0  0  0  0  0  0  0  0  0  0  0  0
    4.5866   -6.8353   43.5869 C   0  0  1  0  0  0  0  0  0  0  0  0
    3.2694   -7.4377   43.5038 O   0  0  0  0  0  0  0  0  0  0  0  0
    0.6412   -9.2204   46.1546 C   0  0  2  0  0  0  0  0  0  0  0  0
    0.8088  -10.6014   46.4204 O   0  0  0  0  0  0  0  0  0  0  0  0
   -3.2824   -7.7225   44.6348 C   0  0  2  0  0  0  0  0  0  0  0  0
    5.6196   -7.7087   42.8067 C   0  0  2  0  0  0  0  0  0  0  0  0
    5.6359   -9.0347   43.2977 O   0  0  0  0  0  0  0  0  0  0  0  0
   -0.7227   -8.7199   46.7654 C   0  0  2  0  0  0  0  0  0  0  0  0
   -0.8980   -7.2796   46.4838 O   0  0  0  0  0  0  0  0  0  0  0  0
   -3.4707   -8.8709   45.6653 C   0  0  2  0  0  0  0  0  0  0  0  0
   -3.0638  -10.1092   45.0156 O   0  0  0  0  0  0  0  0  0  0  0  0
    7.0567   -7.0565   42.8991 C   0  0  2  0  0  0  0  0  0  0  0  0
    7.0236   -5.6663   42.3900 O   0  0  0  0  0  0  0  0  0  0  0  0
   -0.7891   -8.9666   48.2718 C   0  0  0  0  0  0  0  0  0  0  0  0
   -2.0818   -8.7208   48.7692 O   0  0  0  0  0  0  0  0  0  0  0  0
   -4.9569   -8.9538   46.0856 C   0  0  1  0  0  0  0  0  0  0  0  0
   -5.0995   -9.9990   47.0244 O   0  0  0  0  0  0  0  0  0  0  0  0
    8.0907   -7.8507   42.1155 C   0  0  0  0  0  0  0  0  0  0  0  0
    8.6076   -8.8956   42.9035 O   0  0  0  0  0  0  0  0  0  0  0  0
    3.1865   -8.5917   44.3908 C   0  0  0  0  0  0  0  0  0  0  0  0
  1  2  1  6  0  0  0
  1  7  1  0  0  0  0
  1 24  1  0  0  0  0
  3  4  1  6  0  0  0
  3  9  1  0  0  0  0
  3 31  1  0  0  0  0
  5  6  1  1  0  0  0
  5 10  1  0  0  0  0
  5 28  1  0  0  0  0
  7  8  1  6  0  0  0
  7 12  1  0  0  0  0
  9 14  1  0  0  0  0
 10 11  1  1  0  0  0
 10 16  1  0  0  0  0
 12 13  1  1  0  0  0
 12 18  1  0  0  0  0
 13 35  1  0  0  0  0
 14 15  1  6  0  0  0
 14 20  1  0  0  0  0
 16 17  1  6  0  0  0
 16 21  1  0  0  0  0
 17 35  1  0  0  0  0
 18 19  1  6  0  0  0
 18 23  1  0  0  0  0
 20  2  1  1  0  0  0
 20 25  1  0  0  0  0
 21 22  1  1  0  0  0
 21 27  1  0  0  0  0
 23 24  1  0  0  0  0
 23 29  1  1  0  0  0
 25 26  1  6  0  0  0
 25 31  1  0  0  0  0
 27 28  1  0  0  0  0
 27 33  1  6  0  0  0
 29 30  1  0  0  0  0
 31 32  1  1  0  0  0
 33 34  1  0  0  0  0
M  END
>  <CHROM.1>
166.33367377,55.30577904,-88.78552509,-163.18961071,-164.27349023,39.52710548
-170.38359801,-85.40531784,0.82257013,-7.68808146,44.79745297,2.91929449
-0.23270469,2.74214819

>  <Name>
2o3v_lig

>  <RI>
0

>  <Rbt.Current_Directory>
/home/afrankz/demos/rdock_decoys_rna/rnas/2o3v

>  <Rbt.Executable>
rbdock ($Id: //depot/dev/client3/rdock/2013.1/src/exe/rbdock.cxx#4 $)

>  <Rbt.Library>
libRbt.so (2013.1, Build901 2013/11/27)

>  <Rbt.Parameter_File>
/export/apps/rDock/src/rDock_2013.1_src/data/scripts/dock_solv.prm

>  <Rbt.Receptor>
prm/pocket_docking_3.prm

>  <SCORE>
-12.4598

>  <SCORE.INTER>
-12.0877

>  <SCORE.INTER.CONST>
1

>  <SCORE.INTER.POLAR>
-0.688599

>  <SCORE.INTER.ROT>
8

>  <SCORE.INTER.SOLV>
12.6026

>  <SCORE.INTER.VDW>
-18.8973

>  <SCORE.INTER.norm>
-0.345363

>  <SCORE.INTRA>
-0.72427

>  <SCORE.INTRA.DIHEDRAL>
-2.05889

>  <SCORE.INTRA.DIHEDRAL.0>
13.1227

>  <SCORE.INTRA.POLAR>
0

>  <SCORE.INTRA.POLAR.0>
0

>  <SCORE.INTRA.REPUL>
0

>  <SCORE.INTRA.REPUL.0>
0

>  <SCORE.INTRA.SOLV>
2.60029

>  <SCORE.INTRA.SOLV.lig_0>
-89.1587

>  <SCORE.INTRA.VDW>
-0.994972

>  <SCORE.INTRA.VDW.0>
-0.838383

>  <SCORE.INTRA.norm>
-0.0206934

>  <SCORE.RESTR>
0.352192

>  <SCORE.RESTR.CAVITY>
0.352192

>  <SCORE.RESTR.norm>
0.0100626

>  <SCORE.SYSTEM>
0

>  <SCORE.SYSTEM.CONST>
0

>  <SCORE.SYSTEM.DIHEDRAL>
0

>  <SCORE.SYSTEM.SOLV>
0

>  <SCORE.SYSTEM.norm>
0

>  <SCORE.heavy>
35

>  <SCORE.norm>
-0.355994

>  <RMSD>
9.987

$$$$
2o3v_lig
 OpenBabel02141814113D
libRbt.so/2013.1/901 2013/11/27
 35 37  0  0  0  0  0  0  0  0999 V2000
   -2.0359   -7.5935   46.8250 C   0  0  2  0  0  0  0  0  0  0  0  0
   -3.3877   -7.8495   46.3351 O   0  0  0  0  0  0  0  0  0  0  0  0
   -6.0143   -7.0469   49.7092 C   0  0  2  0  0  0  0  0  0  0  0  0
   -7.2322   -7.0138   50.5740 N   0  0  0  0  0  0  0  0  0  0  0  0
    4.8927   -4.9720   43.3233 C   0  0  2  0  0  0  0  0  0  0  0  0
    4.8106   -4.4829   44.6796 O   0  0  0  0  0  0  0  0  0  0  0  0
   -1.4306   -6.6645   45.7255 C   0  0  2  0  0  0  0  0  0  0  0  0
   -2.2306   -5.4267   45.5698 N   0  0  0  0  0  0  0  0  0  0  0  0
   -6.2924   -6.2822   48.3441 C   0  0  0  0  0  0  0  0  0  0  0  0
    3.4390   -5.3427   42.8676 C   0  0  2  0  0  0  0  0  0  0  0  0
    2.5322   -4.1717   42.9749 N   0  0  0  0  0  0  0  0  0  0  0  0
   -1.3201   -7.4117   44.3258 C   0  0  1  0  0  0  0  0  0  0  0  0
   -0.7839   -6.4978   43.2839 O   0  0  0  0  0  0  0  0  0  0  0  0
   -4.9866   -6.3422   47.4388 C   0  0  2  0  0  0  0  0  0  0  0  0
   -5.2280   -5.6455   46.1572 N   0  0  0  0  0  0  0  0  0  0  0  0
    2.8593   -6.5696   43.7005 C   0  0  1  0  0  0  0  0  0  0  0  0
    1.5267   -6.9559   43.2766 O   0  0  0  0  0  0  0  0  0  0  0  0
   -0.4482   -8.7237   44.5539 C   0  0  2  0  0  0  0  0  0  0  0  0
   -0.3152   -9.4720   43.3588 O   0  0  0  0  0  0  0  0  0  0  0  0
   -4.5870   -7.8507   47.1669 C   0  0  2  0  0  0  0  0  0  0  0  0
    3.8362   -7.7782   43.5468 C   0  0  2  0  0  0  0  0  0  0  0  0
    3.3760   -8.8983   44.2770 O   0  0  0  0  0  0  0  0  0  0  0  0
   -1.0857   -9.6231   45.6800 C   0  0  2  0  0  0  0  0  0  0  0  0
   -1.2275   -8.8397   46.9253 O   0  0  0  0  0  0  0  0  0  0  0  0
   -4.3229   -8.5926   48.5071 C   0  0  2  0  0  0  0  0  0  0  0  0
   -4.0021   -9.9756   48.1826 O   0  0  0  0  0  0  0  0  0  0  0  0
    5.2884   -7.3610   44.0119 C   0  0  2  0  0  0  0  0  0  0  0  0
    5.7544   -6.1826   43.2457 O   0  0  0  0  0  0  0  0  0  0  0  0
   -0.2469  -10.8725   45.9449 C   0  0  0  0  0  0  0  0  0  0  0  0
    1.0134  -10.5347   46.4707 O   0  0  0  0  0  0  0  0  0  0  0  0
   -5.5897   -8.5336   49.3924 C   0  0  1  0  0  0  0  0  0  0  0  0
   -5.3219   -9.2085   50.6036 O   0  0  0  0  0  0  0  0  0  0  0  0
    6.2865   -8.4957   43.8389 C   0  0  0  0  0  0  0  0  0  0  0  0
    7.5687   -8.0891   44.2520 O   0  0  0  0  0  0  0  0  0  0  0  0
    0.5684   -5.9099   43.6123 C   0  0  0  0  0  0  0  0  0  0  0  0
  1  2  1  6  0  0  0
  1  7  1  0  0  0  0
  1 24  1  0  0  0  0
  3  4  1  1  0  0  0
  3  9  1  0  0  0  0
  3 31  1  0  0  0  0
  5  6  1  1  0  0  0
  5 10  1  0  0  0  0
  5 28  1  0  0  0  0
  7  8  1  6  0  0  0
  7 12  1  0  0  0  0
  9 14  1  0  0  0  0
 10 11  1  1  0  0  0
 10 16  1  0  0  0  0
 12 13  1  6  0  0  0
 12 18  1  0  0  0  0
 13 35  1  0  0  0  0
 14 15  1  6  0  0  0
 14 20  1  0  0  0  0
 16 17  1  6  0  0  0
 16 21  1  0  0  0  0
 17 35  1  0  0  0  0
 18 19  1  6  0  0  0
 18 23  1  0  0  0  0
 20  2  1  6  0  0  0
 20 25  1  0  0  0  0
 21 22  1  1  0  0  0
 21 27  1  0  0  0  0
 23 24  1  0  0  0  0
 23 29  1  1  0  0  0
 25 26  1  6  0  0  0
 25 31  1  0  0  0  0
 27 28  1  0  0  0  0
 27 33  1  6  0  0  0
 29 30  1  0  0  0  0
 31 32  1  1  0  0  0
 33 34  1  0  0  0  0
M  END
>  <CHROM.1>
-137.59554940,57.63952896,80.27468368,-67.81508663,-173.12499054,77.87986319
65.10044415,179.56638366,-0.34336260,-7.49592246,45.66048060,-2.87807199
0.39512228,-0.41311967

>  <Name>
2o3v_lig

>  <RI>
0

>  <Rbt.Current_Directory>
/home/afrankz/demos/rdock_decoys_rna/rnas/2o3v

>  <Rbt.Executable>
rbdock ($Id: //depot/dev/client3/rdock/2013.1/src/exe/rbdock.cxx#4 $)

>  <Rbt.Library>
libRbt.so (2013.1, Build901 2013/11/27)

>  <Rbt.Parameter_File>
/export/apps/rDock/src/rDock_2013.1_src/data/scripts/dock_solv.prm

>  <Rbt.Receptor>
prm/pocket_docking_3.prm

>  <SCORE>
-7.50352

>  <SCORE.INTER>
-6.97183

>  <SCORE.INTER.CONST>
1

>  <SCORE.INTER.POLAR>
-0.418535

>  <SCORE.INTER.ROT>
8

>  <SCORE.INTER.SOLV>
8.58292

>  <SCORE.INTER.VDW>
-15.0471

>  <SCORE.INTER.norm>
-0.199195

>  <SCORE.INTRA>
-0.531688

>  <SCORE.INTRA.DIHEDRAL>
-3.35693

>  <SCORE.INTRA.DIHEDRAL.0>
13.1227

>  <SCORE.INTRA.POLAR>
0

>  <SCORE.INTRA.POLAR.0>
0

>  <SCORE.INTRA.REPUL>
0

>  <SCORE.INTRA.REPUL.0>
0

>  <SCORE.INTRA.SOLV>
3.74852

>  <SCORE.INTRA.SOLV.lig_0>
-89.1587

>  <SCORE.INTRA.VDW>
-0.727483

>  <SCORE.INTRA.VDW.0>
-0.838383

>  <SCORE.INTRA.norm>
-0.0151911

>  <SCORE.RESTR>
0

>  <SCORE.RESTR.CAVITY>
0

>  <SCORE.RESTR.norm>
0

>  <SCORE.SYSTEM>
0

>  <SCORE.SYSTEM.CONST>
0

>  <SCORE.SYSTEM.DIHEDRAL>
0

>  <SCORE.SYSTEM.SOLV>
0

>  <SCORE.SYSTEM.norm>
0

>  <SCORE.heavy>
35

>  <SCORE.norm>
-0.214386

>  <RMSD>
10.010

$$$$
2o3v_lig
 OpenBabel02141814113D
libRbt.so/2013.1/901 2013/11/27
 35 37  0  0  0  0  0  0  0  0999 V2000
   -0.8648   -8.0269   46.4534 C   0  0  2  0  0  0  0  0  0  0  0  0
   -2.1847   -7.4531   46.2057 O   0  0  0  0  0  0  0  0  0  0  0  0
   -6.1551   -9.1511   45.6765 C   0  0  2  0  0  0  0  0  0  0  0  0
   -7.4502   -9.8337   45.9748 N   0  0  0  0  0  0  0  0  0  0  0  0
    6.3464   -5.7171   42.3609 C   0  0  2  0  0  0  0  0  0  0  0  0
    7.1253   -5.3689   43.5261 O   0  0  0  0  0  0  0  0  0  0  0  0
    0.0553   -6.7692   46.5531 C   0  0  2  0  0  0  0  0  0  0  0  0
   -0.3913   -5.8632   47.6375 N   0  0  0  0  0  0  0  0  0  0  0  0
   -4.9421  -10.1458   45.9300 C   0  0  0  0  0  0  0  0  0  0  0  0
    4.9375   -5.0478   42.5190 C   0  0  2  0  0  0  0  0  0  0  0  0
    5.0614   -3.5765   42.6766 N   0  0  0  0  0  0  0  0  0  0  0  0
    0.1081   -5.9738   45.1769 C   0  0  1  0  0  0  0  0  0  0  0  0
    0.9524   -4.7577   45.3055 O   0  0  0  0  0  0  0  0  0  0  0  0
   -3.5773   -9.3923   45.6169 C   0  0  2  0  0  0  0  0  0  0  0  0
   -2.4335  -10.2980   45.8579 N   0  0  0  0  0  0  0  0  0  0  0  0
    4.1279   -5.6690   43.7411 C   0  0  1  0  0  0  0  0  0  0  0  0
    2.8058   -5.0907   43.8903 O   0  0  0  0  0  0  0  0  0  0  0  0
    0.5986   -6.9926   44.0565 C   0  0  2  0  0  0  0  0  0  0  0  0
    0.6534   -6.3757   42.7828 O   0  0  0  0  0  0  0  0  0  0  0  0
   -3.4492   -8.1052   46.5313 C   0  0  2  0  0  0  0  0  0  0  0  0
    4.0111   -7.2112   43.5250 C   0  0  2  0  0  0  0  0  0  0  0  0
    3.3077   -7.8206   44.5896 O   0  0  0  0  0  0  0  0  0  0  0  0
   -0.3477   -8.2516   44.0008 C   0  0  2  0  0  0  0  0  0  0  0  0
   -0.4069   -8.8920   45.3315 O   0  0  0  0  0  0  0  0  0  0  0  0
   -4.6426   -7.1409   46.2816 C   0  0  2  0  0  0  0  0  0  0  0  0
   -4.4800   -6.0062   47.1801 O   0  0  0  0  0  0  0  0  0  0  0  0
    5.4509   -7.8445   43.3661 C   0  0  2  0  0  0  0  0  0  0  0  0
    6.1793   -7.1919   42.2541 O   0  0  0  0  0  0  0  0  0  0  0  0
    0.1230   -9.2639   42.9575 C   0  0  0  0  0  0  0  0  0  0  0  0
   -0.6639  -10.4295   42.9911 O   0  0  0  0  0  0  0  0  0  0  0  0
   -5.9726   -7.8710   46.5816 C   0  0  1  0  0  0  0  0  0  0  0  0
   -7.0388   -6.9766   46.3420 O   0  0  0  0  0  0  0  0  0  0  0  0
    5.3858   -9.3424   43.1093 C   0  0  0  0  0  0  0  0  0  0  0  0
    4.9506  -10.0199   44.2633 O   0  0  0  0  0  0  0  0  0  0  0  0
    2.4381   -5.0318   45.2997 C   0  0  0  0  0  0  0  0  0  0  0  0
  1  2  1  6  0  0  0
  1  7  1  0  0  0  0
  1 24  1  0  0  0  0
  3  4  1  1  0  0  0
  3  9  1  0  0  0  0
  3 31  1  0  0  0  0
  5  6  1  1  0  0  0
  5 10  1  0  0  0  0
  5 28  1  0  0  0  0
  7  8  1  1  0  0  0
  7 12  1  0  0  0  0
  9 14  1  0  0  0  0
 10 11  1  1  0  0  0
 10 16  1  0  0  0  0
 12 13  1  1  0  0  0
 12 18  1  0  0  0  0
 13 35  1  0  0  0  0
 14 15  1  1  0  0  0
 14 20  1  0  0  0  0
 16 17  1  6  0  0  0
 16 21  1  0  0  0  0
 17 35  1  0  0  0  0
 18 19  1  6  0  0  0
 18 23  1  0  0  0  0
 20  2  1  6  0  0  0
 20 25  1  0  0  0  0
 21 22  1  1  0  0  0
 21 27  1  0  0  0  0
 23 24  1  0  0  0  0
 23 29  1  6  0  0  0
 25 26  1  1  0  0  0
 25 31  1  0  0  0  0
 27 28  1  0  0  0  0
 27 33  1  6  0  0  0
 29 30  1  0  0  0  0
 31 32  1  6  0  0  0
 33 34  1  0  0  0  0
M  END
>  <CHROM.1>
-155.23589058,76.47848514,84.80966241,-146.42186135,-165.98453489,-65.74397755
175.23370465,-69.73824858,0.31331526,-7.39140343,44.74654796,-3.03130273
0.31765491,0.24532526

>  <Name>
2o3v_lig

>  <RI>
0

>  <Rbt.Current_Directory>
/home/afrankz/demos/rdock_decoys_rna/rnas/2o3v

>  <Rbt.Executable>
rbdock ($Id: //depot/dev/client3/rdock/2013.1/src/exe/rbdock.cxx#4 $)

>  <Rbt.Library>
libRbt.so (2013.1, Build901 2013/11/27)

>  <Rbt.Parameter_File>
/export/apps/rDock/src/rDock_2013.1_src/data/scripts/dock_solv.prm

>  <Rbt.Receptor>
prm/pocket_docking_4.prm

>  <SCORE>
-11.1929

>  <SCORE.INTER>
-10.8849

>  <SCORE.INTER.CONST>
1

>  <SCORE.INTER.POLAR>
-1.48217

>  <SCORE.INTER.ROT>
8

>  <SCORE.INTER.SOLV>
18.2247

>  <SCORE.INTER.VDW>
-17.3243

>  <SCORE.INTER.norm>
-0.310997

>  <SCORE.INTRA>
-0.334021

>  <SCORE.INTRA.DIHEDRAL>
-0.807749

>  <SCORE.INTRA.DIHEDRAL.0>
13.1227

>  <SCORE.INTRA.POLAR>
0

>  <SCORE.INTRA.POLAR.0>
0

>  <SCORE.INTRA.REPUL>
0

>  <SCORE.INTRA.REPUL.0>
0

>  <SCORE.INTRA.SOLV>
4.00642

>  <SCORE.INTRA.SOLV.lig_0>
-89.1587

>  <SCORE.INTRA.VDW>
-1.93336

>  <SCORE.INTRA.VDW.0>
-0.838383

>  <SCORE.INTRA.norm>
-0.00954345

>  <SCORE.RESTR>
0.0259975

>  <SCORE.RESTR.CAVITY>
0.0259975

>  <SCORE.RESTR.norm>
0.000742786

>  <SCORE.SYSTEM>
0

>  <SCORE.SYSTEM.CONST>
0

>  <SCORE.SYSTEM.DIHEDRAL>
0

>  <SCORE.SYSTEM.SOLV>
0

>  <SCORE.SYSTEM.norm>
0

>  <SCORE.heavy>
35

>  <SCORE.norm>
-0.319798

>  <RMSD>
10.023

$$$$
2o3v_lig
 OpenBabel02141814113D
libRbt.so/2013.1/901 2013/11/27
 35 37  0  0  0  0  0  0  0  0999 V2000
   -1.5810   -6.5098   45.7462 C   0  0  2  0  0  0  0  0  0  0  0  0
   -2.7578   -7.0726   45.0896 O   0  0  0  0  0  0  0  0  0  0  0  0
   -5.9889   -6.4672   47.9393 C   0  0  2  0  0  0  0  0  0  0  0  0
   -7.3594   -6.4289   48.5331 N   0  0  0  0  0  0  0  0  0  0  0  0
    5.6875   -4.9798   43.4803 C   0  0  2  0  0  0  0  0  0  0  0  0
    5.8245   -4.8992   44.9157 O   0  0  0  0  0  0  0  0  0  0  0  0
   -0.4127   -6.9266   44.7975 C   0  0  2  0  0  0  0  0  0  0  0  0
   -0.6179   -6.3953   43.4293 N   0  0  0  0  0  0  0  0  0  0  0  0
   -5.9137   -5.5061   46.6759 C   0  0  0  0  0  0  0  0  0  0  0  0
    4.2165   -5.4262   43.1720 C   0  0  2  0  0  0  0  0  0  0  0  0
    3.2374   -4.4801   43.7645 N   0  0  0  0  0  0  0  0  0  0  0  0
   -0.2430   -8.5069   44.7398 C   0  0  1  0  0  0  0  0  0  0  0  0
    0.8435   -8.8841   43.7986 O   0  0  0  0  0  0  0  0  0  0  0  0
   -4.4506   -5.5742   46.0569 C   0  0  2  0  0  0  0  0  0  0  0  0
   -4.3622   -4.6947   44.8716 N   0  0  0  0  0  0  0  0  0  0  0  0
    3.9346   -6.9071   43.6840 C   0  0  1  0  0  0  0  0  0  0  0  0
    2.5895   -7.3589   43.3817 O   0  0  0  0  0  0  0  0  0  0  0  0
   -0.0201   -9.0168   46.2311 C   0  0  2  0  0  0  0  0  0  0  0  0
    0.1175  -10.4254   46.2823 O   0  0  0  0  0  0  0  0  0  0  0  0
   -4.1054   -7.0657   45.6500 C   0  0  2  0  0  0  0  0  0  0  0  0
    4.9767   -7.8657   43.0254 C   0  0  2  0  0  0  0  0  0  0  0  0
    4.7808   -9.1991   43.4536 O   0  0  0  0  0  0  0  0  0  0  0  0
   -1.2126   -8.5619   47.1556 C   0  0  2  0  0  0  0  0  0  0  0  0
   -1.3574   -7.0921   47.0980 O   0  0  0  0  0  0  0  0  0  0  0  0
   -4.1874   -7.9996   46.8899 C   0  0  2  0  0  0  0  0  0  0  0  0
   -3.8991   -9.3527   46.4349 O   0  0  0  0  0  0  0  0  0  0  0  0
    6.4435   -7.3779   43.3567 C   0  0  2  0  0  0  0  0  0  0  0  0
    6.6324   -5.9784   42.9111 O   0  0  0  0  0  0  0  0  0  0  0  0
   -1.0048   -9.0072   48.6024 C   0  0  0  0  0  0  0  0  0  0  0  0
   -2.1641   -8.7936   49.3700 O   0  0  0  0  0  0  0  0  0  0  0  0
   -5.6082   -7.9337   47.4974 C   0  0  1  0  0  0  0  0  0  0  0  0
   -5.6542   -8.7850   48.6232 O   0  0  0  0  0  0  0  0  0  0  0  0
    7.4954   -8.2579   42.6985 C   0  0  0  0  0  0  0  0  0  0  0  0
    7.4242   -8.1440   41.2978 O   0  0  0  0  0  0  0  0  0  0  0  0
    2.2249   -8.4715   44.2502 C   0  0  0  0  0  0  0  0  0  0  0  0
  1  2  1  6  0  0  0
  1  7  1  0  0  0  0
  1 24  1  0  0  0  0
  3  4  1  6  0  0  0
  3  9  1  0  0  0  0
  3 31  1  0  0  0  0
  5  6  1  1  0  0  0
  5 10  1  0  0  0  0
  5 28  1  0  0  0  0
  7  8  1  6  0  0  0
  7 12  1  0  0  0  0
  9 14  1  0  0  0  0
 10 11  1  1  0  0  0
 10 16  1  0  0  0  0
 12 13  1  6  0  0  0
 12 18  1  0  0  0  0
 13 35  1  0  0  0  0
 14 15  1  6  0  0  0
 14 20  1  0  0  0  0
 16 17  1  6  0  0  0
 16 21  1  0  0  0  0
 17 35  1  0  0  0  0
 18 19  1  6  0  0  0
 18 23  1  0  0  0  0
 20  2  1  1  0  0  0
 20 25  1  0  0  0  0
 21 22  1  1  0  0  0
 21 27  1  0  0  0  0
 23 24  1  0  0  0  0
 23 29  1  1  0  0  0
 25 26  1  6  0  0  0
 25 31  1  0  0  0  0
 27 28  1  0  0  0  0
 27 33  1  6  0  0  0
 29 30  1  0  0  0  0
 31 32  1  1  0  0  0
 33 34  1  0  0  0  0
M  END
>  <CHROM.1>
173.97661949,67.29397944,-107.17849408,-159.81012027,-177.58016913,52.54946776
-170.28639136,65.51271323,0.15352821,-7.36198373,45.27971948,2.95908262,-0.34082548
2.71477352

>  <Name>
2o3v_lig

>  <RI>
0

>  <Rbt.Current_Directory>
/home/afrankz/demos/rdock_decoys_rna/rnas/2o3v

>  <Rbt.Executable>
rbdock ($Id: //depot/dev/client3/rdock/2013.1/src/exe/rbdock.cxx#4 $)

>  <Rbt.Library>
libRbt.so (2013.1, Build901 2013/11/27)

>  <Rbt.Parameter_File>
/export/apps/rDock/src/rDock_2013.1_src/data/scripts/dock_solv.prm

>  <Rbt.Receptor>
prm/pocket_docking_3.prm

>  <SCORE>
-12.5385

>  <SCORE.INTER>
-9.94686

>  <SCORE.INTER.CONST>
1

>  <SCORE.INTER.POLAR>
0

>  <SCORE.INTER.ROT>
8

>  <SCORE.INTER.SOLV>
11.2863

>  <SCORE.INTER.VDW>
-19.3267

>  <SCORE.INTER.norm>
-0.284196

>  <SCORE.INTRA>
-2.59876

>  <SCORE.INTRA.DIHEDRAL>
-3.63649

>  <SCORE.INTRA.DIHEDRAL.0>
13.1227

>  <SCORE.INTRA.POLAR>
0

>  <SCORE.INTRA.POLAR.0>
0

>  <SCORE.INTRA.REPUL>
0

>  <SCORE.INTRA.REPUL.0>
0

>  <SCORE.INTRA.SOLV>
1.40995

>  <SCORE.INTRA.SOLV.lig_0>
-89.1587

>  <SCORE.INTRA.VDW>
-1.48549

>  <SCORE.INTRA.VDW.0>
-0.838383

>  <SCORE.INTRA.norm>
-0.0742503

>  <SCORE.RESTR>
0.00713278

>  <SCORE.RESTR.CAVITY>
0.00713278

>  <SCORE.RESTR.norm>
0.000203794

>  <SCORE.SYSTEM>
0

>  <SCORE.SYSTEM.CONST>
0

>  <SCORE.SYSTEM.DIHEDRAL>
0

>  <SCORE.SYSTEM.SOLV>
0

>  <SCORE.SYSTEM.norm>
0

>  <SCORE.heavy>
35

>  <SCORE.norm>
-0.358243

>  <RMSD>
10.027

$$$$
2o3v_lig
 OpenBabel02141814113D
libRbt.so/2013.1/901 2013/11/27
 35 37  0  0  0  0  0  0  0  0999 V2000
    0.2657   -3.3905   42.7591 C   0  0  2  0  0  0  0  0  0  0  0  0
    0.0184   -3.8176   44.1336 O   0  0  0  0  0  0  0  0  0  0  0  0
   -2.7980   -6.3507   46.2734 C   0  0  2  0  0  0  0  0  0  0  0  0
   -3.6045   -7.5442   46.6700 N   0  0  0  0  0  0  0  0  0  0  0  0
    8.9131   -7.6978   43.8821 C   0  0  2  0  0  0  0  0  0  0  0  0
    9.0091   -6.7511   44.9684 O   0  0  0  0  0  0  0  0  0  0  0  0
    1.2195   -4.4983   42.2100 C   0  0  2  0  0  0  0  0  0  0  0  0
    0.5891   -5.8370   42.2922 N   0  0  0  0  0  0  0  0  0  0  0  0
   -3.1594   -5.9159   44.7882 C   0  0  0  0  0  0  0  0  0  0  0  0
    7.6580   -7.3077   43.0271 C   0  0  2  0  0  0  0  0  0  0  0  0
    7.7642   -5.9121   42.5311 N   0  0  0  0  0  0  0  0  0  0  0  0
    2.6080   -4.5103   42.9854 C   0  0  1  0  0  0  0  0  0  0  0  0
    3.4830   -5.5991   42.4783 O   0  0  0  0  0  0  0  0  0  0  0  0
   -2.2803   -4.6530   44.3873 C   0  0  2  0  0  0  0  0  0  0  0  0
   -2.5931   -4.2388   43.0028 N   0  0  0  0  0  0  0  0  0  0  0  0
    6.3074   -7.5023   43.8473 C   0  0  1  0  0  0  0  0  0  0  0  0
    5.1266   -7.1801   43.0685 O   0  0  0  0  0  0  0  0  0  0  0  0
    3.2379   -3.0542   42.8569 C   0  0  2  0  0  0  0  0  0  0  0  0
    4.4737   -2.9614   43.5426 O   0  0  0  0  0  0  0  0  0  0  0  0
   -0.7409   -5.0055   44.5111 C   0  0  2  0  0  0  0  0  0  0  0  0
    6.2332   -8.9839   44.3351 C   0  0  2  0  0  0  0  0  0  0  0  0
    5.0544   -9.2135   45.0817 O   0  0  0  0  0  0  0  0  0  0  0  0
    2.2378   -1.9679   43.4077 C   0  0  2  0  0  0  0  0  0  0  0  0
    0.9474   -2.0685   42.6939 O   0  0  0  0  0  0  0  0  0  0  0  0
   -0.3975   -5.4354   45.9649 C   0  0  2  0  0  0  0  0  0  0  0  0
    1.0170   -5.7810   45.9935 O   0  0  0  0  0  0  0  0  0  0  0  0
    7.5171   -9.3363   45.1876 C   0  0  2  0  0  0  0  0  0  0  0  0
    8.7437   -9.0834   44.3974 O   0  0  0  0  0  0  0  0  0  0  0  0
    2.8036   -0.5560   43.2615 C   0  0  0  0  0  0  0  0  0  0  0  0
    3.1052   -0.2674   41.9181 O   0  0  0  0  0  0  0  0  0  0  0  0
   -1.2531   -6.6617   46.3603 C   0  0  1  0  0  0  0  0  0  0  0  0
   -0.9266   -7.0279   47.6844 O   0  0  0  0  0  0  0  0  0  0  0  0
    7.5103  -10.7858   45.6490 C   0  0  0  0  0  0  0  0  0  0  0  0
    6.4809  -10.9986   46.5844 O   0  0  0  0  0  0  0  0  0  0  0  0
    4.7613   -5.7821   43.2624 C   0  0  0  0  0  0  0  0  0  0  0  0
  1  2  1  1  0  0  0
  1  7  1  0  0  0  0
  1 24  1  0  0  0  0
  3  4  1  6  0  0  0
  3  9  1  0  0  0  0
  3 31  1  0  0  0  0
  5  6  1  1  0  0  0
  5 10  1  0  0  0  0
  5 28  1  0  0  0  0
  7  8  1  1  0  0  0
  7 12  1  0  0  0  0
  9 14  1  0  0  0  0
 10 11  1  1  0  0  0
 10 16  1  0  0  0  0
 12 13  1  6  0  0  0
 12 18  1  0  0  0  0
 13 35  1  0  0  0  0
 14 15  1  6  0  0  0
 14 20  1  0  0  0  0
 16 17  1  6  0  0  0
 16 21  1  0  0  0  0
 17 35  1  0  0  0  0
 18 19  1  1  0  0  0
 18 23  1  0  0  0  0
 20  2  1  1  0  0  0
 20 25  1  0  0  0  0
 21 22  1  1  0  0  0
 21 27  1  0  0  0  0
 23 24  1  0  0  0  0
 23 29  1  6  0  0  0
 25 26  1  6  0  0  0
 25 31  1  0  0  0  0
 27 28  1  0  0  0  0
 27 33  1  6  0  0  0
 29 30  1  0  0  0  0
 31 32  1  1  0  0  0
 33 34  1  0  0  0  0
M  END
>  <CHROM.1>
-68.14990084,-173.53328626,153.62716460,-92.00458163,-176.52383384,-79.15120908
57.88044065,-67.56126026,2.89547228,-5.82484257,44.18242743,-2.77616946,-0.20942519
2.65246499

>  <Name>
2o3v_lig

>  <RI>
0

>  <Rbt.Current_Directory>
/home/afrankz/demos/rdock_decoys_rna/rnas/2o3v

>  <Rbt.Executable>
rbdock ($Id: //depot/dev/client3/rdock/2013.1/src/exe/rbdock.cxx#4 $)

>  <Rbt.Library>
libRbt.so (2013.1, Build901 2013/11/27)

>  <Rbt.Parameter_File>
/export/apps/rDock/src/rDock_2013.1_src/data/scripts/dock_solv.prm

>  <Rbt.Receptor>
prm/pocket_docking_7.prm

>  <SCORE>
-14.6529

>  <SCORE.INTER>
-13.5332

>  <SCORE.INTER.CONST>
1

>  <SCORE.INTER.POLAR>
-1.50869

>  <SCORE.INTER.ROT>
8

>  <SCORE.INTER.SOLV>
14.5964

>  <SCORE.INTER.VDW>
-17.792

>  <SCORE.INTER.norm>
-0.386664

>  <SCORE.INTRA>
-1.14452

>  <SCORE.INTRA.DIHEDRAL>
-3.71869

>  <SCORE.INTRA.DIHEDRAL.0>
13.1227

>  <SCORE.INTRA.POLAR>
0

>  <SCORE.INTRA.POLAR.0>
0

>  <SCORE.INTRA.REPUL>
0

>  <SCORE.INTRA.REPUL.0>
0

>  <SCORE.INTRA.SOLV>
3.49322

>  <SCORE.INTRA.SOLV.lig_0>
-89.1587

>  <SCORE.INTRA.VDW>
-1.03179

>  <SCORE.INTRA.VDW.0>
-0.838383

>  <SCORE.INTRA.norm>
-0.0327007

>  <SCORE.RESTR>
0.0248662

>  <SCORE.RESTR.CAVITY>
0.0248662

>  <SCORE.RESTR.norm>
0.000710464

>  <SCORE.SYSTEM>
0

>  <SCORE.SYSTEM.CONST>
0

>  <SCORE.SYSTEM.DIHEDRAL>
0

>  <SCORE.SYSTEM.SOLV>
0

>  <SCORE.SYSTEM.norm>
0

>  <SCORE.heavy>
35

>  <SCORE.norm>
-0.418654

>  <RMSD>
10.047

$$$$
2o3v_lig
 OpenBabel02141814113D
libRbt.so/2013.1/901 2013/11/27
 35 37  0  0  0  0  0  0  0  0999 V2000
   -4.1900   -9.5134   46.9506 C   0  0  2  0  0  0  0  0  0  0  0  0
   -4.3854   -8.2990   47.7379 O   0  0  0  0  0  0  0  0  0  0  0  0
   -5.2474   -7.1619   51.8478 C   0  0  2  0  0  0  0  0  0  0  0  0
   -5.9281   -7.0711   53.1747 N   0  0  0  0  0  0  0  0  0  0  0  0
    1.2702   -3.4305   45.5647 C   0  0  2  0  0  0  0  0  0  0  0  0
    2.0681   -4.3662   46.3219 O   0  0  0  0  0  0  0  0  0  0  0  0
   -3.1130   -9.0873   45.9033 C   0  0  2  0  0  0  0  0  0  0  0  0
   -1.8715   -8.6265   46.5686 N   0  0  0  0  0  0  0  0  0  0  0  0
   -6.2074   -6.6202   50.7030 C   0  0  0  0  0  0  0  0  0  0  0  0
   -0.0130   -4.1901   45.0801 C   0  0  2  0  0  0  0  0  0  0  0  0
   -0.7672   -4.7495   46.2304 N   0  0  0  0  0  0  0  0  0  0  0  0
   -3.6577   -7.9485   44.9358 C   0  0  1  0  0  0  0  0  0  0  0  0
   -2.6042   -7.5263   43.9766 O   0  0  0  0  0  0  0  0  0  0  0  0
   -5.4646   -6.7385   49.3020 C   0  0  2  0  0  0  0  0  0  0  0  0
   -6.3460   -6.2498   48.2201 N   0  0  0  0  0  0  0  0  0  0  0  0
    0.3458   -5.3418   44.0410 C   0  0  1  0  0  0  0  0  0  0  0  0
   -0.8272   -6.0400   43.5500 O   0  0  0  0  0  0  0  0  0  0  0  0
   -4.9823   -8.5015   44.2478 C   0  0  2  0  0  0  0  0  0  0  0  0
   -5.5565   -7.5400   43.3808 O   0  0  0  0  0  0  0  0  0  0  0  0
   -5.0609   -8.2460   49.0306 C   0  0  2  0  0  0  0  0  0  0  0  0
    1.1236   -4.7056   42.8456 C   0  0  2  0  0  0  0  0  0  0  0  0
    1.4793   -5.6873   41.8920 O   0  0  0  0  0  0  0  0  0  0  0  0
   -6.0340   -8.9333   45.3392 C   0  0  2  0  0  0  0  0  0  0  0  0
   -5.4321   -9.9338   46.2455 O   0  0  0  0  0  0  0  0  0  0  0  0
   -4.1273   -8.7695   50.1579 C   0  0  2  0  0  0  0  0  0  0  0  0
   -3.8317  -10.1651   49.8645 O   0  0  0  0  0  0  0  0  0  0  0  0
    2.4048   -3.9474   43.3776 C   0  0  2  0  0  0  0  0  0  0  0  0
    2.0192   -2.9288   44.3809 O   0  0  0  0  0  0  0  0  0  0  0  0
   -7.3020   -9.5032   44.7049 C   0  0  0  0  0  0  0  0  0  0  0  0
   -7.0156  -10.6499   43.9419 O   0  0  0  0  0  0  0  0  0  0  0  0
   -4.8447   -8.6530   51.5231 C   0  0  1  0  0  0  0  0  0  0  0  0
   -3.9748   -9.1289   52.5285 O   0  0  0  0  0  0  0  0  0  0  0  0
    3.1726   -3.2730   42.2509 C   0  0  0  0  0  0  0  0  0  0  0  0
    4.3152   -2.6245   42.7548 O   0  0  0  0  0  0  0  0  0  0  0  0
   -1.4252   -6.8324   44.6175 C   0  0  0  0  0  0  0  0  0  0  0  0
  1  2  1  1  0  0  0
  1  7  1  0  0  0  0
  1 24  1  0  0  0  0
  3  4  1  1  0  0  0
  3  9  1  0  0  0  0
  3 31  1  0  0  0  0
  5  6  1  6  0  0  0
  5 10  1  0  0  0  0
  5 28  1  0  0  0  0
  7  8  1  1  0  0  0
  7 12  1  0  0  0  0
  9 14  1  0  0  0  0
 10 11  1  1  0  0  0
 10 16  1  0  0  0  0
 12 13  1  6  0  0  0
 12 18  1  0  0  0  0
 13 35  1  0  0  0  0
 14 15  1  6  0  0  0
 14 20  1  0  0  0  0
 16 17  1  6  0  0  0
 16 21  1  0  0  0  0
 17 35  1  0  0  0  0
 18 19  1  6  0  0  0
 18 23  1  0  0  0  0
 20  2  1  6  0  0  0
 20 25  1  0  0  0  0
 21 22  1  6  0  0  0
 21 27  1  0  0  0  0
 23 24  1  0  0  0  0
 23 29  1  6  0  0  0
 25 26  1  6  0  0  0
 25 31  1  0  0  0  0
 27 28  1  0  0  0  0
 27 33  1  6  0  0  0
 29 30  1  0  0  0  0
 31 32  1  1  0  0  0
 33 34  1  0  0  0  0
M  END
>  <CHROM.1>
-165.24508245,-66.42401138,-157.13068154,-68.95175859,-178.74461592,-161.97259259
60.96981350,-179.16187592,-2.59354442,-6.94660208,46.32821130,2.62986300
0.61614238,1.43614017

>  <Name>
2o3v_lig

>  <RI>
0

>  <Rbt.Current_Directory>
/home/afrankz/demos/rdock_decoys_rna/rnas/2o3v

>  <Rbt.Executable>
rbdock ($Id: //depot/dev/client3/rdock/2013.1/src/exe/rbdock.cxx#4 $)

>  <Rbt.Library>
libRbt.so (2013.1, Build901 2013/11/27)

>  <Rbt.Parameter_File>
/export/apps/rDock/src/rDock_2013.1_src/data/scripts/dock_solv.prm

>  <Rbt.Receptor>
prm/pocket_docking_6.prm

>  <SCORE>
-12.9325

>  <SCORE.INTER>
-10.3519

>  <SCORE.INTER.CONST>
1

>  <SCORE.INTER.POLAR>
-1.83095

>  <SCORE.INTER.ROT>
8

>  <SCORE.INTER.SOLV>
9.41539

>  <SCORE.INTER.VDW>
-12.8699

>  <SCORE.INTER.norm>
-0.295768

>  <SCORE.INTRA>
-2.58066

>  <SCORE.INTRA.DIHEDRAL>
-7.67505

>  <SCORE.INTRA.DIHEDRAL.0>
13.1227

>  <SCORE.INTRA.POLAR>
0

>  <SCORE.INTRA.POLAR.0>
0

>  <SCORE.INTRA.REPUL>
0

>  <SCORE.INTRA.REPUL.0>
0

>  <SCORE.INTRA.SOLV>
1.44686

>  <SCORE.INTRA.SOLV.lig_0>
-89.1587

>  <SCORE.INTRA.VDW>
0.533429

>  <SCORE.INTRA.VDW.0>
-0.838383

>  <SCORE.INTRA.norm>
-0.0737333

>  <SCORE.RESTR>
0

>  <SCORE.RESTR.CAVITY>
0

>  <SCORE.RESTR.norm>
0

>  <SCORE.SYSTEM>
0

>  <SCORE.SYSTEM.CONST>
0

>  <SCORE.SYSTEM.DIHEDRAL>
0

>  <SCORE.SYSTEM.SOLV>
0

>  <SCORE.SYSTEM.norm>
0

>  <SCORE.heavy>
35

>  <SCORE.norm>
-0.369501

>  <RMSD>
10.054

$$$$
2o3v_lig
 OpenBabel02141814113D
libRbt.so/2013.1/901 2013/11/27
 35 37  0  0  0  0  0  0  0  0999 V2000
    0.5740   -3.4331   41.3008 C   0  0  2  0  0  0  0  0  0  0  0  0
   -0.1097   -3.5048   42.5893 O   0  0  0  0  0  0  0  0  0  0  0  0
   -4.0560   -2.0956   43.7589 C   0  0  2  0  0  0  0  0  0  0  0  0
   -5.1538   -1.1931   44.2200 N   0  0  0  0  0  0  0  0  0  0  0  0
    7.5717   -8.2675   46.5612 C   0  0  2  0  0  0  0  0  0  0  0  0
    8.6239   -7.3123   46.3042 O   0  0  0  0  0  0  0  0  0  0  0  0
    1.6008   -4.6070   41.3789 C   0  0  2  0  0  0  0  0  0  0  0  0
    0.9169   -5.9036   41.5964 N   0  0  0  0  0  0  0  0  0  0  0  0
   -2.9395   -2.2164   44.8833 C   0  0  0  0  0  0  0  0  0  0  0  0
    6.6009   -8.2412   45.3303 C   0  0  2  0  0  0  0  0  0  0  0  0
    7.3272   -8.5498   44.0724 N   0  0  0  0  0  0  0  0  0  0  0  0
    2.6752   -4.3677   42.5269 C   0  0  1  0  0  0  0  0  0  0  0  0
    3.6150   -5.5154   42.6139 O   0  0  0  0  0  0  0  0  0  0  0  0
   -1.7792   -3.1714   44.3636 C   0  0  2  0  0  0  0  0  0  0  0  0
   -0.7229   -3.2884   45.3917 N   0  0  0  0  0  0  0  0  0  0  0  0
    5.8498   -6.8429   45.2068 C   0  0  1  0  0  0  0  0  0  0  0  0
    4.9191   -6.8022   44.0946 O   0  0  0  0  0  0  0  0  0  0  0  0
    3.3784   -2.9694   42.2370 C   0  0  2  0  0  0  0  0  0  0  0  0
    4.3406   -2.6576   43.2284 O   0  0  0  0  0  0  0  0  0  0  0  0
   -1.1657   -2.5948   43.0218 C   0  0  2  0  0  0  0  0  0  0  0  0
    5.0910   -6.5685   46.5438 C   0  0  2  0  0  0  0  0  0  0  0  0
    4.4110   -5.3296   46.4960 O   0  0  0  0  0  0  0  0  0  0  0  0
    2.3061   -1.8177   42.1514 C   0  0  2  0  0  0  0  0  0  0  0  0
    1.3006   -2.1464   41.1192 O   0  0  0  0  0  0  0  0  0  0  0  0
   -2.2654   -2.4741   41.9299 C   0  0  2  0  0  0  0  0  0  0  0  0
   -1.6406   -1.9031   40.7447 O   0  0  0  0  0  0  0  0  0  0  0  0
    6.1037   -6.6084   47.7571 C   0  0  2  0  0  0  0  0  0  0  0  0
    6.8146   -7.9070   47.7904 O   0  0  0  0  0  0  0  0  0  0  0  0
    2.9521   -0.4693   41.8366 C   0  0  0  0  0  0  0  0  0  0  0  0
    3.5091   -0.4633   40.5448 O   0  0  0  0  0  0  0  0  0  0  0  0
   -3.3980   -1.5486   42.4327 C   0  0  1  0  0  0  0  0  0  0  0  0
   -4.3848   -1.4606   41.4264 O   0  0  0  0  0  0  0  0  0  0  0  0
    5.4015   -6.3892   49.0885 C   0  0  0  0  0  0  0  0  0  0  0  0
    6.3311   -6.4172   50.1444 O   0  0  0  0  0  0  0  0  0  0  0  0
    4.6046   -5.4207   43.7515 C   0  0  0  0  0  0  0  0  0  0  0  0
  1  2  1  1  0  0  0
  1  7  1  0  0  0  0
  1 24  1  0  0  0  0
  3  4  1  1  0  0  0
  3  9  1  0  0  0  0
  3 31  1  0  0  0  0
  5  6  1  6  0  0  0
  5 10  1  0  0  0  0
  5 28  1  0  0  0  0
  7  8  1  1  0  0  0
  7 12  1  0  0  0  0
  9 14  1  0  0  0  0
 10 11  1  6  0  0  0
 10 16  1  0  0  0  0
 12 13  1  6  0  0  0
 12 18  1  0  0  0  0
 13 35  1  0  0  0  0
 14 15  1  1  0  0  0
 14 20  1  0  0  0  0
 16 17  1  6  0  0  0
 16 21  1  0  0  0  0
 17 35  1  0  0  0  0
 18 19  1  1  0  0  0
 18 23  1  0  0  0  0
 20  2  1  6  0  0  0
 20 25  1  0  0  0  0
 21 22  1  6  0  0  0
 21 27  1  0  0  0  0
 23 24  1  0  0  0  0
 23 29  1  6  0  0  0
 25 26  1  6  0  0  0
 25 31  1  0  0  0  0
 27 28  1  0  0  0  0
 27 33  1  1  0  0  0
 29 30  1  0  0  0  0
 31 32  1  6  0  0  0
 33 34  1  0  0  0  0
M  END
>  <CHROM.1>
179.13717415,-175.46707409,151.73815586,-161.10060068,-178.78396342,170.94519583
66.25939411,-179.41022412,2.31480475,-4.29579678,43.95963334,-2.56821191
-0.33873004,1.98268349

>  <Name>
2o3v_lig

>  <RI>
0

>  <Rbt.Current_Directory>
/home/afrankz/demos/rdock_decoys_rna/rnas/2o3v

>  <Rbt.Executable>
rbdock ($Id: //depot/dev/client3/rdock/2013.1/src/exe/rbdock.cxx#4 $)

>  <Rbt.Library>
libRbt.so (2013.1, Build901 2013/11/27)

>  <Rbt.Parameter_File>
/export/apps/rDock/src/rDock_2013.1_src/data/scripts/dock_solv.prm

>  <Rbt.Receptor>
prm/pocket_docking_8.prm

>  <SCORE>
-14.1717

>  <SCORE.INTER>
-9.64436

>  <SCORE.INTER.CONST>
1

>  <SCORE.INTER.POLAR>
-2.15117

>  <SCORE.INTER.ROT>
8

>  <SCORE.INTER.SOLV>
14.1317

>  <SCORE.INTER.VDW>
-12.9029

>  <SCORE.INTER.norm>
-0.275553

>  <SCORE.INTRA>
-4.52737

>  <SCORE.INTRA.DIHEDRAL>
-7.52235

>  <SCORE.INTRA.DIHEDRAL.0>
13.1227

>  <SCORE.INTRA.POLAR>
0

>  <SCORE.INTRA.POLAR.0>
0

>  <SCORE.INTRA.REPUL>
0

>  <SCORE.INTRA.REPUL.0>
0

>  <SCORE.INTRA.SOLV>
-1.62196

>  <SCORE.INTRA.SOLV.lig_0>
-89.1587

>  <SCORE.INTRA.VDW>
0.0447831

>  <SCORE.INTRA.VDW.0>
-0.838383

>  <SCORE.INTRA.norm>
-0.129353

>  <SCORE.RESTR>
0

>  <SCORE.RESTR.CAVITY>
0

>  <SCORE.RESTR.norm>
0

>  <SCORE.SYSTEM>
0

>  <SCORE.SYSTEM.CONST>
0

>  <SCORE.SYSTEM.DIHEDRAL>
0

>  <SCORE.SYSTEM.SOLV>
0

>  <SCORE.SYSTEM.norm>
0

>  <SCORE.heavy>
35

>  <SCORE.norm>
-0.404906

>  <RMSD>
10.061

$$$$
2o3v_lig
 OpenBabel02141814113D
libRbt.so/2013.1/901 2013/11/27
 35 37  0  0  0  0  0  0  0  0999 V2000
   -1.9957   -3.9395   44.6392 C   0  0  2  0  0  0  0  0  0  0  0  0
   -2.4244   -4.1178   43.2545 O   0  0  0  0  0  0  0  0  0  0  0  0
   -6.7701   -4.0323   43.4413 C   0  0  2  0  0  0  0  0  0  0  0  0
   -8.2018   -4.0143   43.0144 N   0  0  0  0  0  0  0  0  0  0  0  0
    5.0430   -8.6840   44.6763 C   0  0  2  0  0  0  0  0  0  0  0  0
    3.9592   -9.2530   43.9099 O   0  0  0  0  0  0  0  0  0  0  0  0
   -0.4379   -3.9544   44.5324 C   0  0  2  0  0  0  0  0  0  0  0  0
    0.0482   -2.8789   43.6362 N   0  0  0  0  0  0  0  0  0  0  0  0
   -6.0182   -2.7470   42.8863 C   0  0  0  0  0  0  0  0  0  0  0  0
    4.5143   -7.3596   45.3280 C   0  0  2  0  0  0  0  0  0  0  0  0
    3.3222   -7.6211   46.1738 N   0  0  0  0  0  0  0  0  0  0  0  0
    0.0989   -5.3619   44.0220 C   0  0  1  0  0  0  0  0  0  0  0  0
    1.5785   -5.3411   43.8851 O   0  0  0  0  0  0  0  0  0  0  0  0
   -4.4962   -2.7964   43.3442 C   0  0  2  0  0  0  0  0  0  0  0  0
   -3.7747   -1.6136   42.8278 N   0  0  0  0  0  0  0  0  0  0  0  0
    4.1815   -6.2580   44.2278 C   0  0  1  0  0  0  0  0  0  0  0  0
    3.7213   -5.0092   44.8054 O   0  0  0  0  0  0  0  0  0  0  0  0
   -0.4477   -6.4717   45.0235 C   0  0  2  0  0  0  0  0  0  0  0  0
   -0.0381   -7.7699   44.6325 O   0  0  0  0  0  0  0  0  0  0  0  0
   -3.8141   -4.1219   42.8085 C   0  0  2  0  0  0  0  0  0  0  0  0
    5.4648   -6.0067   43.3743 C   0  0  2  0  0  0  0  0  0  0  0  0
    5.2248   -5.0408   42.3698 O   0  0  0  0  0  0  0  0  0  0  0  0
   -2.0200   -6.4111   45.1123 C   0  0  2  0  0  0  0  0  0  0  0  0
   -2.4461   -5.0548   45.5166 O   0  0  0  0  0  0  0  0  0  0  0  0
   -4.5593   -5.3736   43.3510 C   0  0  2  0  0  0  0  0  0  0  0  0
   -3.9053   -6.5468   42.7881 O   0  0  0  0  0  0  0  0  0  0  0  0
    5.9661   -7.3655   42.7405 C   0  0  2  0  0  0  0  0  0  0  0  0
    6.2053   -8.3701   43.8018 O   0  0  0  0  0  0  0  0  0  0  0  0
   -2.5686   -7.4430   46.0967 C   0  0  0  0  0  0  0  0  0  0  0  0
   -3.9739   -7.4009   46.1445 O   0  0  0  0  0  0  0  0  0  0  0  0
   -6.0413   -5.3277   42.9108 C   0  0  1  0  0  0  0  0  0  0  0  0
   -6.6957   -6.4707   43.4202 O   0  0  0  0  0  0  0  0  0  0  0  0
    7.2420   -7.1777   41.9339 C   0  0  0  0  0  0  0  0  0  0  0  0
    7.6779   -8.4090   41.4106 O   0  0  0  0  0  0  0  0  0  0  0  0
    2.3175   -5.1163   45.1834 C   0  0  0  0  0  0  0  0  0  0  0  0
  1  2  1  6  0  0  0
  1  7  1  0  0  0  0
  1 24  1  0  0  0  0
  3  4  1  6  0  0  0
  3  9  1  0  0  0  0
  3 31  1  0  0  0  0
  5  6  1  6  0  0  0
  5 10  1  0  0  0  0
  5 28  1  0  0  0  0
  7  8  1  6  0  0  0
  7 12  1  0  0  0  0
  9 14  1  0  0  0  0
 10 11  1  6  0  0  0
 10 16  1  0  0  0  0
 12 13  1  1  0  0  0
 12 18  1  0  0  0  0
 13 35  1  0  0  0  0
 14 15  1  6  0  0  0
 14 20  1  0  0  0  0
 16 17  1  1  0  0  0
 16 21  1  0  0  0  0
 17 35  1  0  0  0  0
 18 19  1  6  0  0  0
 18 23  1  0  0  0  0
 20  2  1  1  0  0  0
 20 25  1  0  0  0  0
 21 22  1  6  0  0  0
 21 27  1  0  0  0  0
 23 24  1  0  0  0  0
 23 29  1  1  0  0  0
 25 26  1  6  0  0  0
 25 31  1  0  0  0  0
 27 28  1  0  0  0  0
 27 33  1  1  0  0  0
 29 30  1  0  0  0  0
 31 32  1  1  0  0  0
 33 34  1  0  0  0  0
M  END
>  <CHROM.1>
-177.52168718,63.01705146,-174.92174249,-79.19206564,-63.48798323,53.13330720
-178.62884691,178.61603190,-0.06796415,-5.78360155,43.91483495,-2.91749674
-0.11493207,2.70343412

>  <Name>
2o3v_lig

>  <RI>
0

>  <Rbt.Current_Directory>
/home/afrankz/demos/rdock_decoys_rna/rnas/2o3v

>  <Rbt.Executable>
rbdock ($Id: //depot/dev/client3/rdock/2013.1/src/exe/rbdock.cxx#4 $)

>  <Rbt.Library>
libRbt.so (2013.1, Build901 2013/11/27)

>  <Rbt.Parameter_File>
/export/apps/rDock/src/rDock_2013.1_src/data/scripts/dock_solv.prm

>  <Rbt.Receptor>
prm/pocket_docking_7.prm

>  <SCORE>
-13.1773

>  <SCORE.INTER>
-7.13305

>  <SCORE.INTER.CONST>
1

>  <SCORE.INTER.POLAR>
0

>  <SCORE.INTER.ROT>
8

>  <SCORE.INTER.SOLV>
8.62799

>  <SCORE.INTER.VDW>
-16.5647

>  <SCORE.INTER.norm>
-0.203801

>  <SCORE.INTRA>
-6.04429

>  <SCORE.INTRA.DIHEDRAL>
-10.8984

>  <SCORE.INTRA.DIHEDRAL.0>
13.1227

>  <SCORE.INTRA.POLAR>
0

>  <SCORE.INTRA.POLAR.0>
0

>  <SCORE.INTRA.REPUL>
0

>  <SCORE.INTRA.REPUL.0>
0

>  <SCORE.INTRA.SOLV>
2.36507

>  <SCORE.INTRA.SOLV.lig_0>
-89.1587

>  <SCORE.INTRA.VDW>
-1.77764

>  <SCORE.INTRA.VDW.0>
-0.838383

>  <SCORE.INTRA.norm>
-0.172694

>  <SCORE.RESTR>
0

>  <SCORE.RESTR.CAVITY>
0

>  <SCORE.RESTR.norm>
0

>  <SCORE.SYSTEM>
0

>  <SCORE.SYSTEM.CONST>
0

>  <SCORE.SYSTEM.DIHEDRAL>
0

>  <SCORE.SYSTEM.SOLV>
0

>  <SCORE.SYSTEM.norm>
0

>  <SCORE.heavy>
35

>  <SCORE.norm>
-0.376495

>  <RMSD>
10.063

$$$$
2o3v_lig
 OpenBabel02141814113D
libRbt.so/2013.1/901 2013/11/27
 35 37  0  0  0  0  0  0  0  0999 V2000
   -1.9370   -8.5049   44.5521 C   0  0  2  0  0  0  0  0  0  0  0  0
   -1.9650   -9.4957   45.6247 O   0  0  0  0  0  0  0  0  0  0  0  0
   -6.1660  -10.5575   46.0138 C   0  0  2  0  0  0  0  0  0  0  0  0
   -7.4123  -11.2468   46.4652 N   0  0  0  0  0  0  0  0  0  0  0  0
    5.6673   -8.9716   44.1276 C   0  0  2  0  0  0  0  0  0  0  0  0
    4.7890   -9.6827   43.2284 O   0  0  0  0  0  0  0  0  0  0  0  0
   -0.4186   -8.1635   44.4248 C   0  0  2  0  0  0  0  0  0  0  0  0
    0.3782   -9.3732   44.1120 N   0  0  0  0  0  0  0  0  0  0  0  0
   -5.1926  -11.5961   45.3072 C   0  0  0  0  0  0  0  0  0  0  0  0
    4.7853   -7.9771   44.9590 C   0  0  2  0  0  0  0  0  0  0  0  0
    3.7160   -8.6996   45.6934 N   0  0  0  0  0  0  0  0  0  0  0  0
    0.1394   -7.4807   45.7484 C   0  0  1  0  0  0  0  0  0  0  0  0
    1.5942   -7.2046   45.6234 O   0  0  0  0  0  0  0  0  0  0  0  0
   -3.8711  -10.8407   44.8474 C   0  0  2  0  0  0  0  0  0  0  0  0
   -2.9454  -11.7927   44.1969 N   0  0  0  0  0  0  0  0  0  0  0  0
    4.1541   -6.8430   44.0368 C   0  0  1  0  0  0  0  0  0  0  0  0
    3.3592   -5.8883   44.7862 O   0  0  0  0  0  0  0  0  0  0  0  0
   -0.7478   -6.1891   46.0284 C   0  0  2  0  0  0  0  0  0  0  0  0
   -0.3376   -5.5245   47.2098 O   0  0  0  0  0  0  0  0  0  0  0  0
   -3.1675  -10.1729   46.0997 C   0  0  2  0  0  0  0  0  0  0  0  0
    5.3138   -6.1033   43.2975 C   0  0  2  0  0  0  0  0  0  0  0  0
    4.8102   -5.0878   42.4522 O   0  0  0  0  0  0  0  0  0  0  0  0
   -2.2717   -6.5767   46.1343 C   0  0  2  0  0  0  0  0  0  0  0  0
   -2.6973   -7.2737   44.9024 O   0  0  0  0  0  0  0  0  0  0  0  0
   -4.1284   -9.1636   46.7882 C   0  0  2  0  0  0  0  0  0  0  0  0
   -3.4325   -8.6222   47.9474 O   0  0  0  0  0  0  0  0  0  0  0  0
    6.1793   -7.1410   42.4769 C   0  0  2  0  0  0  0  0  0  0  0  0
    6.6932   -8.2029   43.3720 O   0  0  0  0  0  0  0  0  0  0  0  0
   -3.1502   -5.3482   46.3662 C   0  0  0  0  0  0  0  0  0  0  0  0
   -4.5040   -5.7096   46.4916 O   0  0  0  0  0  0  0  0  0  0  0  0
   -5.4169   -9.8936   47.2340 C   0  0  1  0  0  0  0  0  0  0  0  0
   -6.2735   -8.9551   47.8502 O   0  0  0  0  0  0  0  0  0  0  0  0
    7.3499   -6.4713   41.7732 C   0  0  0  0  0  0  0  0  0  0  0  0
    8.2017   -5.8592   42.7112 O   0  0  0  0  0  0  0  0  0  0  0  0
    1.9389   -6.1544   44.5935 C   0  0  0  0  0  0  0  0  0  0  0  0
  1  2  1  1  0  0  0
  1  7  1  0  0  0  0
  1 24  1  0  0  0  0
  3  4  1  1  0  0  0
  3  9  1  0  0  0  0
  3 31  1  0  0  0  0
  5  6  1  6  0  0  0
  5 10  1  0  0  0  0
  5 28  1  0  0  0  0
  7  8  1  1  0  0  0
  7 12  1  0  0  0  0
  9 14  1  0  0  0  0
 10 11  1  6  0  0  0
 10 16  1  0  0  0  0
 12 13  1  6  0  0  0
 12 18  1  0  0  0  0
 13 35  1  0  0  0  0
 14 15  1  1  0  0  0
 14 20  1  0  0  0  0
 16 17  1  1  0  0  0
 16 21  1  0  0  0  0
 17 35  1  0  0  0  0
 18 19  1  1  0  0  0
 18 23  1  0  0  0  0
 20  2  1  6  0  0  0
 20 25  1  0  0  0  0
 21 22  1  6  0  0  0
 21 27  1  0  0  0  0
 23 24  1  0  0  0  0
 23 29  1  6  0  0  0
 25 26  1  1  0  0  0
 25 31  1  0  0  0  0
 27 28  1  0  0  0  0
 27 33  1  1  0  0  0
 29 30  1  0  0  0  0
 31 32  1  6  0  0  0
 33 34  1  0  0  0  0
M  END
>  <CHROM.1>
-177.80528971,66.98693689,171.10762612,-103.30467295,85.58093790,54.06518752
-178.56514025,60.36269066,0.12972778,-8.03457141,45.07464045,-3.00631114
0.32496044,0.27384453

>  <Name>
2o3v_lig

>  <RI>
0

>  <Rbt.Current_Directory>
/home/afrankz/demos/rdock_decoys_rna/rnas/2o3v

>  <Rbt.Executable>
rbdock ($Id: //depot/dev/client3/rdock/2013.1/src/exe/rbdock.cxx#4 $)

>  <Rbt.Library>
libRbt.so (2013.1, Build901 2013/11/27)

>  <Rbt.Parameter_File>
/export/apps/rDock/src/rDock_2013.1_src/data/scripts/dock_solv.prm

>  <Rbt.Receptor>
prm/pocket_docking_5.prm

>  <SCORE>
-6.80188

>  <SCORE.INTER>
-4.34562

>  <SCORE.INTER.CONST>
1

>  <SCORE.INTER.POLAR>
0

>  <SCORE.INTER.ROT>
8

>  <SCORE.INTER.SOLV>
11.3699

>  <SCORE.INTER.VDW>
-15.6204

>  <SCORE.INTER.norm>
-0.124161

>  <SCORE.INTRA>
-2.45627

>  <SCORE.INTRA.DIHEDRAL>
-3.56759

>  <SCORE.INTRA.DIHEDRAL.0>
13.1227

>  <SCORE.INTRA.POLAR>
0

>  <SCORE.INTRA.POLAR.0>
0

>  <SCORE.INTRA.REPUL>
0

>  <SCORE.INTRA.REPUL.0>
0

>  <SCORE.INTRA.SOLV>
3.57813

>  <SCORE.INTRA.SOLV.lig_0>
-89.1587

>  <SCORE.INTRA.VDW>
-2.46154

>  <SCORE.INTRA.VDW.0>
-0.838383

>  <SCORE.INTRA.norm>
-0.070179

>  <SCORE.RESTR>
0

>  <SCORE.RESTR.CAVITY>
0

>  <SCORE.RESTR.norm>
0

>  <SCORE.SYSTEM>
0

>  <SCORE.SYSTEM.CONST>
0

>  <SCORE.SYSTEM.DIHEDRAL>
0

>  <SCORE.SYSTEM.SOLV>
0

>  <SCORE.SYSTEM.norm>
0

>  <SCORE.heavy>
35

>  <SCORE.norm>
-0.19434

>  <RMSD>
10.073

$$$$
2o3v_lig
 OpenBabel02141814113D
libRbt.so/2013.1/901 2013/11/27
 35 37  0  0  0  0  0  0  0  0999 V2000
    0.0840   -4.2815   45.1504 C   0  0  2  0  0  0  0  0  0  0  0  0
   -1.0853   -4.5421   44.3151 O   0  0  0  0  0  0  0  0  0  0  0  0
   -4.4193   -2.8783   46.5609 C   0  0  2  0  0  0  0  0  0  0  0  0
   -5.7995   -2.4282   46.9139 N   0  0  0  0  0  0  0  0  0  0  0  0
    8.3762   -7.7344   43.0628 C   0  0  2  0  0  0  0  0  0  0  0  0
    8.6078   -6.5399   43.8407 O   0  0  0  0  0  0  0  0  0  0  0  0
    1.2575   -4.8848   44.3153 C   0  0  2  0  0  0  0  0  0  0  0  0
    1.3493   -4.2464   42.9811 N   0  0  0  0  0  0  0  0  0  0  0  0
   -3.8864   -2.0699   45.3007 C   0  0  0  0  0  0  0  0  0  0  0  0
    6.9413   -7.6207   42.4411 C   0  0  2  0  0  0  0  0  0  0  0  0
    6.8147   -6.3940   41.6141 N   0  0  0  0  0  0  0  0  0  0  0  0
    1.1059   -6.4591   44.1477 C   0  0  1  0  0  0  0  0  0  0  0  0
    2.2071   -7.0067   43.3136 O   0  0  0  0  0  0  0  0  0  0  0  0
   -2.4228   -2.5754   44.9393 C   0  0  2  0  0  0  0  0  0  0  0  0
   -1.9122   -1.8430   43.7606 N   0  0  0  0  0  0  0  0  0  0  0  0
    5.8129   -7.6500   43.5639 C   0  0  1  0  0  0  0  0  0  0  0  0
    4.4722   -7.5799   43.0140 O   0  0  0  0  0  0  0  0  0  0  0  0
    1.0192   -7.0874   45.6076 C   0  0  2  0  0  0  0  0  0  0  0  0
    0.8571   -8.4935   45.5582 O   0  0  0  0  0  0  0  0  0  0  0  0
   -2.4474   -4.1308   44.6400 C   0  0  2  0  0  0  0  0  0  0  0  0
    5.9768   -8.9608   44.3968 C   0  0  2  0  0  0  0  0  0  0  0  0
    5.0038   -9.0364   45.4201 O   0  0  0  0  0  0  0  0  0  0  0  0
   -0.1668   -6.4404   46.4191 C   0  0  2  0  0  0  0  0  0  0  0  0
    0.0017   -4.9728   46.4665 O   0  0  0  0  0  0  0  0  0  0  0  0
   -2.9755   -4.9130   45.8751 C   0  0  2  0  0  0  0  0  0  0  0  0
   -3.0081   -6.3238   45.5148 O   0  0  0  0  0  0  0  0  0  0  0  0
    7.4358   -9.0377   45.0005 C   0  0  2  0  0  0  0  0  0  0  0  0
    8.4443   -8.9488   43.9199 O   0  0  0  0  0  0  0  0  0  0  0  0
   -0.2489   -7.0000   47.8386 C   0  0  0  0  0  0  0  0  0  0  0  0
   -0.5878   -8.3652   47.8264 O   0  0  0  0  0  0  0  0  0  0  0  0
   -4.3979   -4.4219   46.2324 C   0  0  1  0  0  0  0  0  0  0  0  0
   -4.8513   -5.1430   47.3587 O   0  0  0  0  0  0  0  0  0  0  0  0
    7.6570  -10.3216   45.7858 C   0  0  0  0  0  0  0  0  0  0  0  0
    6.8779  -10.3211   46.9575 O   0  0  0  0  0  0  0  0  0  0  0  0
    3.5628   -6.9750   43.9796 C   0  0  0  0  0  0  0  0  0  0  0  0
  1  2  1  6  0  0  0
  1  7  1  0  0  0  0
  1 24  1  0  0  0  0
  3  4  1  6  0  0  0
  3  9  1  0  0  0  0
  3 31  1  0  0  0  0
  5  6  1  1  0  0  0
  5 10  1  0  0  0  0
  5 28  1  0  0  0  0
  7  8  1  6  0  0  0
  7 12  1  0  0  0  0
  9 14  1  0  0  0  0
 10 11  1  1  0  0  0
 10 16  1  0  0  0  0
 12 13  1  1  0  0  0
 12 18  1  0  0  0  0
 13 35  1  0  0  0  0
 14 15  1  6  0  0  0
 14 20  1  0  0  0  0
 16 17  1  6  0  0  0
 16 21  1  0  0  0  0
 17 35  1  0  0  0  0
 18 19  1  6  0  0  0
 18 23  1  0  0  0  0
 20  2  1  1  0  0  0
 20 25  1  0  0  0  0
 21 22  1  1  0  0  0
 21 27  1  0  0  0  0
 23 24  1  0  0  0  0
 23 29  1  1  0  0  0
 25 26  1  6  0  0  0
 25 31  1  0  0  0  0
 27 28  1  0  0  0  0
 27 33  1  6  0  0  0
 29 30  1  0  0  0  0
 31 32  1  1  0  0  0
 33 34  1  0  0  0  0
M  END
>  <CHROM.1>
-178.14438860,69.59085587,178.61863059,-152.55059926,-177.98153151,53.20114490
-65.88563855,-68.19756258,1.62684852,-6.27679718,44.99221234,-2.94475103
-0.38967617,2.43300480

>  <Name>
2o3v_lig

>  <RI>
0

>  <Rbt.Current_Directory>
/home/afrankz/demos/rdock_decoys_rna/rnas/2o3v

>  <Rbt.Executable>
rbdock ($Id: //depot/dev/client3/rdock/2013.1/src/exe/rbdock.cxx#4 $)

>  <Rbt.Library>
libRbt.so (2013.1, Build901 2013/11/27)

>  <Rbt.Parameter_File>
/export/apps/rDock/src/rDock_2013.1_src/data/scripts/dock_solv.prm

>  <Rbt.Receptor>
prm/pocket_docking_7.prm

>  <SCORE>
-13.2962

>  <SCORE.INTER>
-7.6834

>  <SCORE.INTER.CONST>
1

>  <SCORE.INTER.POLAR>
-0.157693

>  <SCORE.INTER.ROT>
8

>  <SCORE.INTER.SOLV>
15.0658

>  <SCORE.INTER.VDW>
-18.5519

>  <SCORE.INTER.norm>
-0.219526

>  <SCORE.INTRA>
-5.61283

>  <SCORE.INTRA.DIHEDRAL>
-8.88622

>  <SCORE.INTRA.DIHEDRAL.0>
13.1227

>  <SCORE.INTRA.POLAR>
0

>  <SCORE.INTRA.POLAR.0>
0

>  <SCORE.INTRA.REPUL>
0

>  <SCORE.INTRA.REPUL.0>
0

>  <SCORE.INTRA.SOLV>
0.535022

>  <SCORE.INTRA.SOLV.lig_0>
-89.1587

>  <SCORE.INTRA.VDW>
-1.43723

>  <SCORE.INTRA.VDW.0>
-0.838383

>  <SCORE.INTRA.norm>
-0.160366

>  <SCORE.RESTR>
0

>  <SCORE.RESTR.CAVITY>
0

>  <SCORE.RESTR.norm>
0

>  <SCORE.SYSTEM>
0

>  <SCORE.SYSTEM.CONST>
0

>  <SCORE.SYSTEM.DIHEDRAL>
0

>  <SCORE.SYSTEM.SOLV>
0

>  <SCORE.SYSTEM.norm>
0

>  <SCORE.heavy>
35

>  <SCORE.norm>
-0.379892

>  <RMSD>
10.089

$$$$
2o3v_lig
 OpenBabel02141814113D
libRbt.so/2013.1/901 2013/11/27
 35 37  0  0  0  0  0  0  0  0999 V2000
   -2.0885   -8.2485   46.7278 C   0  0  2  0  0  0  0  0  0  0  0  0
   -2.2604   -7.1187   45.8185 O   0  0  0  0  0  0  0  0  0  0  0  0
   -5.2565   -3.9692   45.6414 C   0  0  2  0  0  0  0  0  0  0  0  0
   -6.5381   -3.2535   45.3631 N   0  0  0  0  0  0  0  0  0  0  0  0
    4.9402   -5.3387   43.2075 C   0  0  2  0  0  0  0  0  0  0  0  0
    5.1580   -4.9386   44.5779 O   0  0  0  0  0  0  0  0  0  0  0  0
   -0.5946   -8.6503   46.5151 C   0  0  2  0  0  0  0  0  0  0  0  0
    0.3134   -7.5202   46.8230 N   0  0  0  0  0  0  0  0  0  0  0  0
   -4.5918   -4.4490   44.2800 C   0  0  0  0  0  0  0  0  0  0  0  0
    3.7728   -6.3854   43.2024 C   0  0  2  0  0  0  0  0  0  0  0  0
    2.5435   -5.8153   43.8097 N   0  0  0  0  0  0  0  0  0  0  0  0
   -0.3327   -9.1605   45.0317 C   0  0  1  0  0  0  0  0  0  0  0  0
    1.1020   -9.4954   44.8374 O   0  0  0  0  0  0  0  0  0  0  0  0
   -3.2377   -5.2168   44.6045 C   0  0  2  0  0  0  0  0  0  0  0  0
   -2.6080   -5.6824   43.3502 N   0  0  0  0  0  0  0  0  0  0  0  0
    4.1875   -7.7286   43.9497 C   0  0  1  0  0  0  0  0  0  0  0  0
    3.1366   -8.7285   43.9312 O   0  0  0  0  0  0  0  0  0  0  0  0
   -1.3277  -10.3734   44.7625 C   0  0  2  0  0  0  0  0  0  0  0  0
   -1.1832  -10.8807   43.4481 O   0  0  0  0  0  0  0  0  0  0  0  0
   -3.5309   -6.4514   45.5526 C   0  0  2  0  0  0  0  0  0  0  0  0
    5.4730   -8.2973   43.2695 C   0  0  2  0  0  0  0  0  0  0  0  0
    5.8957   -9.4898   43.9010 O   0  0  0  0  0  0  0  0  0  0  0  0
   -2.8204   -9.9286   45.0031 C   0  0  2  0  0  0  0  0  0  0  0  0
   -2.9687   -9.3958   46.3737 O   0  0  0  0  0  0  0  0  0  0  0  0
   -4.1863   -5.9738   46.8788 C   0  0  2  0  0  0  0  0  0  0  0  0
   -4.4625   -7.1591   47.6787 O   0  0  0  0  0  0  0  0  0  0  0  0
    6.6212   -7.2108   43.2920 C   0  0  2  0  0  0  0  0  0  0  0  0
    6.1627   -5.9652   42.6356 O   0  0  0  0  0  0  0  0  0  0  0  0
   -3.7944  -11.0860   44.7873 C   0  0  0  0  0  0  0  0  0  0  0  0
   -5.1230  -10.6773   45.0036 O   0  0  0  0  0  0  0  0  0  0  0  0
   -5.5023   -5.2233   46.5675 C   0  0  1  0  0  0  0  0  0  0  0  0
   -6.0737   -4.7961   47.7862 O   0  0  0  0  0  0  0  0  0  0  0  0
    7.8824   -7.7050   42.5998 C   0  0  0  0  0  0  0  0  0  0  0  0
    7.5958   -8.0991   41.2798 O   0  0  0  0  0  0  0  0  0  0  0  0
    2.0124   -8.2929   44.7507 C   0  0  0  0  0  0  0  0  0  0  0  0
  1  2  1  6  0  0  0
  1  7  1  0  0  0  0
  1 24  1  0  0  0  0
  3  4  1  6  0  0  0
  3  9  1  0  0  0  0
  3 31  1  0  0  0  0
  5  6  1  1  0  0  0
  5 10  1  0  0  0  0
  5 28  1  0  0  0  0
  7  8  1  6  0  0  0
  7 12  1  0  0  0  0
  9 14  1  0  0  0  0
 10 11  1  1  0  0  0
 10 16  1  0  0  0  0
 12 13  1  1  0  0  0
 12 18  1  0  0  0  0
 13 35  1  0  0  0  0
 14 15  1  6  0  0  0
 14 20  1  0  0  0  0
 16 17  1  6  0  0  0
 16 21  1  0  0  0  0
 17 35  1  0  0  0  0
 18 19  1  6  0  0  0
 18 23  1  0  0  0  0
 20  2  1  1  0  0  0
 20 25  1  0  0  0  0
 21 22  1  1  0  0  0
 21 27  1  0  0  0  0
 23 24  1  0  0  0  0
 23 29  1  1  0  0  0
 25 26  1  1  0  0  0
 25 31  1  0  0  0  0
 27 28  1  0  0  0  0
 27 33  1  6  0  0  0
 29 30  1  0  0  0  0
 31 32  1  1  0  0  0
 33 34  1  0  0  0  0
M  END
>  <CHROM.1>
174.20719433,-73.14888269,-152.17902011,-68.10659400,-170.87531428,175.49656512
-179.95287605,56.20625086,-0.01164529,-7.42914402,44.77294139,3.06257927
0.26567553,-0.00273546

>  <Name>
2o3v_lig

>  <RI>
0

>  <Rbt.Current_Directory>
/home/afrankz/demos/rdock_decoys_rna/rnas/2o3v

>  <Rbt.Executable>
rbdock ($Id: //depot/dev/client3/rdock/2013.1/src/exe/rbdock.cxx#4 $)

>  <Rbt.Library>
libRbt.so (2013.1, Build901 2013/11/27)

>  <Rbt.Parameter_File>
/export/apps/rDock/src/rDock_2013.1_src/data/scripts/dock_solv.prm

>  <Rbt.Receptor>
prm/pocket_docking_7.prm

>  <SCORE>
-12.0809

>  <SCORE.INTER>
-8.78686

>  <SCORE.INTER.CONST>
1

>  <SCORE.INTER.POLAR>
0

>  <SCORE.INTER.ROT>
8

>  <SCORE.INTER.SOLV>
12.1685

>  <SCORE.INTER.VDW>
-18.8474

>  <SCORE.INTER.norm>
-0.251053

>  <SCORE.INTRA>
-3.294

>  <SCORE.INTRA.DIHEDRAL>
-8.02802

>  <SCORE.INTRA.DIHEDRAL.0>
13.1227

>  <SCORE.INTRA.POLAR>
0

>  <SCORE.INTRA.POLAR.0>
0

>  <SCORE.INTRA.REPUL>
0

>  <SCORE.INTRA.REPUL.0>
0

>  <SCORE.INTRA.SOLV>
0.594786

>  <SCORE.INTRA.SOLV.lig_0>
-89.1587

>  <SCORE.INTRA.VDW>
0.422618

>  <SCORE.INTRA.VDW.0>
-0.838383

>  <SCORE.INTRA.norm>
-0.0941142

>  <SCORE.RESTR>
0

>  <SCORE.RESTR.CAVITY>
0

>  <SCORE.RESTR.norm>
0

>  <SCORE.SYSTEM>
0

>  <SCORE.SYSTEM.CONST>
0

>  <SCORE.SYSTEM.DIHEDRAL>
0

>  <SCORE.SYSTEM.SOLV>
0

>  <SCORE.SYSTEM.norm>
0

>  <SCORE.heavy>
35

>  <SCORE.norm>
-0.345167

>  <RMSD>
10.102

$$$$
2o3v_lig
 OpenBabel02141814113D
libRbt.so/2013.1/901 2013/11/27
 35 37  0  0  0  0  0  0  0  0999 V2000
   -0.1848   -6.3904   44.9110 C   0  0  2  0  0  0  0  0  0  0  0  0
   -0.7493   -7.7137   44.6605 O   0  0  0  0  0  0  0  0  0  0  0  0
   -4.7087   -9.5167   44.6519 C   0  0  2  0  0  0  0  0  0  0  0  0
   -6.0353  -10.0130   45.1272 N   0  0  0  0  0  0  0  0  0  0  0  0
    6.9832  -11.3112   46.3101 C   0  0  2  0  0  0  0  0  0  0  0  0
    6.8706  -12.2365   45.2070 O   0  0  0  0  0  0  0  0  0  0  0  0
    1.0951   -6.3761   44.0165 C   0  0  2  0  0  0  0  0  0  0  0  0
    0.7551   -6.5965   42.5910 N   0  0  0  0  0  0  0  0  0  0  0  0
   -3.5371  -10.2842   45.4027 C   0  0  0  0  0  0  0  0  0  0  0  0
    5.9346  -10.1693   46.0759 C   0  0  2  0  0  0  0  0  0  0  0  0
    4.5613  -10.7225   45.9615 N   0  0  0  0  0  0  0  0  0  0  0  0
    2.1514   -7.4663   44.4911 C   0  0  1  0  0  0  0  0  0  0  0  0
    3.3414   -7.4666   43.6010 O   0  0  0  0  0  0  0  0  0  0  0  0
   -2.1385   -9.7299   44.8879 C   0  0  2  0  0  0  0  0  0  0  0  0
   -1.0333  -10.4237   45.5833 N   0  0  0  0  0  0  0  0  0  0  0  0
    6.2909   -9.3022   44.7890 C   0  0  1  0  0  0  0  0  0  0  0  0
    5.3546   -8.2164   44.5672 O   0  0  0  0  0  0  0  0  0  0  0  0
    2.4814   -7.1754   46.0209 C   0  0  2  0  0  0  0  0  0  0  0  0
    3.4018   -8.1178   46.5411 O   0  0  0  0  0  0  0  0  0  0  0  0
   -2.0466   -8.1702   45.1491 C   0  0  2  0  0  0  0  0  0  0  0  0
    7.7343   -8.7314   44.9605 C   0  0  2  0  0  0  0  0  0  0  0  0
    8.1105   -7.9581   43.8380 O   0  0  0  0  0  0  0  0  0  0  0  0
    1.1621   -7.1841   46.8830 C   0  0  2  0  0  0  0  0  0  0  0  0
    0.2012   -6.2030   46.3366 O   0  0  0  0  0  0  0  0  0  0  0  0
   -3.1994   -7.4282   44.4165 C   0  0  2  0  0  0  0  0  0  0  0  0
   -3.0753   -6.0121   44.7330 O   0  0  0  0  0  0  0  0  0  0  0  0
    8.7572   -9.9131   45.1984 C   0  0  2  0  0  0  0  0  0  0  0  0
    8.3470  -10.7194   46.3708 O   0  0  0  0  0  0  0  0  0  0  0  0
    1.4469   -6.8703   48.3511 C   0  0  0  0  0  0  0  0  0  0  0  0
    1.9662   -5.5714   48.5002 O   0  0  0  0  0  0  0  0  0  0  0  0
   -4.5620   -7.9669   44.9117 C   0  0  1  0  0  0  0  0  0  0  0  0
   -5.5902   -7.2817   44.2280 O   0  0  0  0  0  0  0  0  0  0  0  0
   10.1733   -9.4015   45.4149 C   0  0  0  0  0  0  0  0  0  0  0  0
   10.2308   -8.5848   46.5593 O   0  0  0  0  0  0  0  0  0  0  0  0
    4.2322   -8.6765   43.7587 C   0  0  0  0  0  0  0  0  0  0  0  0
  1  2  1  1  0  0  0
  1  7  1  0  0  0  0
  1 24  1  0  0  0  0
  3  4  1  1  0  0  0
  3  9  1  0  0  0  0
  3 31  1  0  0  0  0
  5  6  1  6  0  0  0
  5 10  1  0  0  0  0
  5 28  1  0  0  0  0
  7  8  1  6  0  0  0
  7 12  1  0  0  0  0
  9 14  1  0  0  0  0
 10 11  1  6  0  0  0
 10 16  1  0  0  0  0
 12 13  1  6  0  0  0
 12 18  1  0  0  0  0
 13 35  1  0  0  0  0
 14 15  1  1  0  0  0
 14 20  1  0  0  0  0
 16 17  1  1  0  0  0
 16 21  1  0  0  0  0
 17 35  1  0  0  0  0
 18 19  1  1  0  0  0
 18 23  1  0  0  0  0
 20  2  1  6  0  0  0
 20 25  1  0  0  0  0
 21 22  1  6  0  0  0
 21 27  1  0  0  0  0
 23 24  1  0  0  0  0
 23 29  1  1  0  0  0
 25 26  1  1  0  0  0
 25 31  1  0  0  0  0
 27 28  1  0  0  0  0
 27 33  1  1  0  0  0
 29 30  1  0  0  0  0
 31 32  1  6  0  0  0
 33 34  1  0  0  0  0
M  END
>  <CHROM.1>
-172.67286875,-165.71540826,-101.65917194,-88.04453425,-179.96778700,-169.40535606
63.35868694,61.50619224,2.19852630,-8.43290977,45.29599774,-3.01605124,0.05814932
-3.06688742

>  <Name>
2o3v_lig

>  <RI>
0

>  <Rbt.Current_Directory>
/home/afrankz/demos/rdock_decoys_rna/rnas/2o3v

>  <Rbt.Executable>
rbdock ($Id: //depot/dev/client3/rdock/2013.1/src/exe/rbdock.cxx#4 $)

>  <Rbt.Library>
libRbt.so (2013.1, Build901 2013/11/27)

>  <Rbt.Parameter_File>
/export/apps/rDock/src/rDock_2013.1_src/data/scripts/dock_solv.prm

>  <Rbt.Receptor>
prm/pocket_docking_6.prm

>  <SCORE>
-9.3069

>  <SCORE.INTER>
-6.45778

>  <SCORE.INTER.CONST>
1

>  <SCORE.INTER.POLAR>
-0.87178

>  <SCORE.INTER.ROT>
8

>  <SCORE.INTER.SOLV>
8.01088

>  <SCORE.INTER.VDW>
-13.0029

>  <SCORE.INTER.norm>
-0.184508

>  <SCORE.INTRA>
-2.84912

>  <SCORE.INTRA.DIHEDRAL>
-2.36757

>  <SCORE.INTRA.DIHEDRAL.0>
13.1227

>  <SCORE.INTRA.POLAR>
0

>  <SCORE.INTRA.POLAR.0>
0

>  <SCORE.INTRA.REPUL>
0

>  <SCORE.INTRA.REPUL.0>
0

>  <SCORE.INTRA.SOLV>
1.73317

>  <SCORE.INTRA.SOLV.lig_0>
-89.1587

>  <SCORE.INTRA.VDW>
-2.53191

>  <SCORE.INTRA.VDW.0>
-0.838383

>  <SCORE.INTRA.norm>
-0.0814033

>  <SCORE.RESTR>
0

>  <SCORE.RESTR.CAVITY>
0

>  <SCORE.RESTR.norm>
0

>  <SCORE.SYSTEM>
0

>  <SCORE.SYSTEM.CONST>
0

>  <SCORE.SYSTEM.DIHEDRAL>
0

>  <SCORE.SYSTEM.SOLV>
0

>  <SCORE.SYSTEM.norm>
0

>  <SCORE.heavy>
35

>  <SCORE.norm>
-0.265911

>  <RMSD>
10.112

$$$$
2o3v_lig
 OpenBabel02141814113D
libRbt.so/2013.1/901 2013/11/27
 35 37  0  0  0  0  0  0  0  0999 V2000
    2.2851   -3.7565   44.7857 C   0  0  2  0  0  0  0  0  0  0  0  0
    1.1580   -3.9350   43.8744 O   0  0  0  0  0  0  0  0  0  0  0  0
   -3.0707   -4.9529   43.7823 C   0  0  2  0  0  0  0  0  0  0  0  0
   -4.3722   -5.6107   44.1074 N   0  0  0  0  0  0  0  0  0  0  0  0
    2.8787   -2.0409   36.5941 C   0  0  2  0  0  0  0  0  0  0  0  0
    3.5556   -3.1103   35.8985 O   0  0  0  0  0  0  0  0  0  0  0  0
    3.0121   -2.5008   44.2085 C   0  0  2  0  0  0  0  0  0  0  0  0
    2.1082   -1.3270   44.1741 N   0  0  0  0  0  0  0  0  0  0  0  0
   -2.0282   -6.0327   43.2601 C   0  0  0  0  0  0  0  0  0  0  0  0
    3.7425   -1.6756   37.8506 C   0  0  2  0  0  0  0  0  0  0  0  0
    5.1203   -1.2876   37.4553 N   0  0  0  0  0  0  0  0  0  0  0  0
    3.5880   -2.7776   42.7521 C   0  0  1  0  0  0  0  0  0  0  0  0
    4.2364   -1.5582   42.2035 O   0  0  0  0  0  0  0  0  0  0  0  0
   -0.6503   -5.3096   42.9328 C   0  0  2  0  0  0  0  0  0  0  0  0
    0.3388   -6.2997   42.4556 N   0  0  0  0  0  0  0  0  0  0  0  0
    3.7842   -2.8718   38.9004 C   0  0  1  0  0  0  0  0  0  0  0  0
    4.5500   -2.5485   40.0894 O   0  0  0  0  0  0  0  0  0  0  0  0
    4.5528   -4.0396   42.8533 C   0  0  2  0  0  0  0  0  0  0  0  0
    5.0975   -4.3785   41.5907 O   0  0  0  0  0  0  0  0  0  0  0  0
   -0.1028   -4.5798   44.2277 C   0  0  2  0  0  0  0  0  0  0  0  0
    2.3178   -3.2347   39.2962 C   0  0  2  0  0  0  0  0  0  0  0  0
    2.2921   -4.3028   40.2226 O   0  0  0  0  0  0  0  0  0  0  0  0
    3.7838   -5.2774   43.4537 C   0  0  2  0  0  0  0  0  0  0  0  0
    3.2127   -4.9210   44.7695 O   0  0  0  0  0  0  0  0  0  0  0  0
   -1.1310   -3.5302   44.7351 C   0  0  2  0  0  0  0  0  0  0  0  0
   -0.5808   -2.9314   45.9433 O   0  0  0  0  0  0  0  0  0  0  0  0
    1.4821   -3.5914   38.0025 C   0  0  2  0  0  0  0  0  0  0  0  0
    1.5244   -2.4686   37.0379 O   0  0  0  0  0  0  0  0  0  0  0  0
    4.6984   -6.4931   43.5964 C   0  0  0  0  0  0  0  0  0  0  0  0
    6.0500   -6.1070   43.6512 O   0  0  0  0  0  0  0  0  0  0  0  0
   -2.4741   -4.2288   45.0513 C   0  0  1  0  0  0  0  0  0  0  0  0
   -3.3904   -3.2544   45.5041 O   0  0  0  0  0  0  0  0  0  0  0  0
    0.0323   -3.9101   38.3347 C   0  0  0  0  0  0  0  0  0  0  0  0
   -0.0653   -5.1744   38.9446 O   0  0  0  0  0  0  0  0  0  0  0  0
    4.0135   -1.3507   40.7238 C   0  0  0  0  0  0  0  0  0  0  0  0
  1  2  1  6  0  0  0
  1  7  1  0  0  0  0
  1 24  1  0  0  0  0
  3  4  1  1  0  0  0
  3  9  1  0  0  0  0
  3 31  1  0  0  0  0
  5  6  1  1  0  0  0
  5 10  1  0  0  0  0
  5 28  1  0  0  0  0
  7  8  1  6  0  0  0
  7 12  1  0  0  0  0
  9 14  1  0  0  0  0
 10 11  1  6  0  0  0
 10 16  1  0  0  0  0
 12 13  1  1  0  0  0
 12 18  1  0  0  0  0
 13 35  1  0  0  0  0
 14 15  1  1  0  0  0
 14 20  1  0  0  0  0
 16 17  1  1  0  0  0
 16 21  1  0  0  0  0
 17 35  1  0  0  0  0
 18 19  1  6  0  0  0
 18 23  1  0  0  0  0
 20  2  1  6  0  0  0
 20 25  1  0  0  0  0
 21 22  1  1  0  0  0
 21 27  1  0  0  0  0
 23 24  1  0  0  0  0
 23 29  1  1  0  0  0
 25 26  1  1  0  0  0
 25 31  1  0  0  0  0
 27 28  1  0  0  0  0
 27 33  1  1  0  0  0
 29 30  1  0  0  0  0
 31 32  1  6  0  0  0
 33 34  1  0  0  0  0
M  END
>  <CHROM.1>
-153.70671344,-142.26239524,-58.58157809,56.81583750,147.04157852,-147.43860331
22.31873060,-73.61526534,1.78934365,-3.75594518,41.79506734,-2.24159886,-0.11163352
-1.37852280

>  <Name>
2o3v_lig

>  <RI>
0

>  <Rbt.Current_Directory>
/home/afrankz/demos/rdock_decoys_rna/rnas/2o3v

>  <Rbt.Executable>
rbdock ($Id: //depot/dev/client3/rdock/2013.1/src/exe/rbdock.cxx#4 $)

>  <Rbt.Library>
libRbt.so (2013.1, Build901 2013/11/27)

>  <Rbt.Parameter_File>
/export/apps/rDock/src/rDock_2013.1_src/data/scripts/dock_solv.prm

>  <Rbt.Receptor>
prm/blind_docking_60.prm

>  <SCORE>
6.00203

>  <SCORE.INTER>
-3.83155

>  <SCORE.INTER.CONST>
1

>  <SCORE.INTER.POLAR>
-1.75768

>  <SCORE.INTER.ROT>
8

>  <SCORE.INTER.SOLV>
20.5711

>  <SCORE.INTER.VDW>
-12.4858

>  <SCORE.INTER.norm>
-0.109473

>  <SCORE.INTRA>
5.31418

>  <SCORE.INTRA.DIHEDRAL>
7.40459

>  <SCORE.INTRA.DIHEDRAL.0>
13.1227

>  <SCORE.INTRA.POLAR>
0

>  <SCORE.INTRA.POLAR.0>
0

>  <SCORE.INTRA.REPUL>
0.0824604

>  <SCORE.INTRA.REPUL.0>
0

>  <SCORE.INTRA.SOLV>
3.69836

>  <SCORE.INTRA.SOLV.lig_0>
-89.1587

>  <SCORE.INTRA.VDW>
-0.649605

>  <SCORE.INTRA.VDW.0>
-0.838383

>  <SCORE.INTRA.norm>
0.151834

>  <SCORE.RESTR>
4.51941

>  <SCORE.RESTR.CAVITY>
4.51941

>  <SCORE.RESTR.norm>
0.129126

>  <SCORE.SYSTEM>
0

>  <SCORE.SYSTEM.CONST>
0

>  <SCORE.SYSTEM.DIHEDRAL>
0

>  <SCORE.SYSTEM.SOLV>
0

>  <SCORE.SYSTEM.norm>
0

>  <SCORE.heavy>
35

>  <SCORE.norm>
0.171487

>  <RMSD>
10.124

$$$$
2o3v_lig
 OpenBabel02141814113D
libRbt.so/2013.1/901 2013/11/27
 35 37  0  0  0  0  0  0  0  0999 V2000
    0.4134   -5.9025   43.6956 C   0  0  2  0  0  0  0  0  0  0  0  0
   -0.4847   -4.8336   44.1242 O   0  0  0  0  0  0  0  0  0  0  0  0
   -4.4682   -6.5391   43.7360 C   0  0  2  0  0  0  0  0  0  0  0  0
   -5.9563   -6.6704   43.7579 N   0  0  0  0  0  0  0  0  0  0  0  0
    5.3715   -8.9069   44.0484 C   0  0  2  0  0  0  0  0  0  0  0  0
    5.2846   -9.5969   42.7828 O   0  0  0  0  0  0  0  0  0  0  0  0
    1.8176   -5.3858   44.1425 C   0  0  2  0  0  0  0  0  0  0  0  0
    1.8611   -5.1492   45.6048 N   0  0  0  0  0  0  0  0  0  0  0  0
   -3.9256   -6.2266   45.1966 C   0  0  0  0  0  0  0  0  0  0  0  0
    4.6082   -7.5458   43.8961 C   0  0  2  0  0  0  0  0  0  0  0  0
    3.1979   -7.7687   43.4882 N   0  0  0  0  0  0  0  0  0  0  0  0
    2.2229   -4.0553   43.3712 C   0  0  1  0  0  0  0  0  0  0  0  0
    3.5409   -3.5562   43.8423 O   0  0  0  0  0  0  0  0  0  0  0  0
   -2.3431   -6.0803   45.1434 C   0  0  2  0  0  0  0  0  0  0  0  0
   -1.8182   -5.7775   46.4922 N   0  0  0  0  0  0  0  0  0  0  0  0
    5.3368   -6.5784   42.8627 C   0  0  1  0  0  0  0  0  0  0  0  0
    4.6697   -5.2972   42.7271 O   0  0  0  0  0  0  0  0  0  0  0  0
    2.1647   -4.3719   41.8123 C   0  0  2  0  0  0  0  0  0  0  0  0
    2.4890   -3.2306   41.0389 O   0  0  0  0  0  0  0  0  0  0  0  0
   -1.9412   -4.9261   44.1355 C   0  0  2  0  0  0  0  0  0  0  0  0
    6.8082   -6.3625   43.3391 C   0  0  2  0  0  0  0  0  0  0  0  0
    7.5102   -5.5161   42.4500 O   0  0  0  0  0  0  0  0  0  0  0  0
    0.7373   -4.9039   41.4084 C   0  0  2  0  0  0  0  0  0  0  0  0
    0.3988   -6.0925   42.2190 O   0  0  0  0  0  0  0  0  0  0  0  0
   -2.4811   -5.2366   42.7113 C   0  0  2  0  0  0  0  0  0  0  0  0
   -2.1104   -4.1200   41.8529 O   0  0  0  0  0  0  0  0  0  0  0  0
    7.5387   -7.7570   43.4838 C   0  0  2  0  0  0  0  0  0  0  0  0
    6.7892   -8.6359   44.4103 O   0  0  0  0  0  0  0  0  0  0  0  0
    0.6657   -5.2510   39.9221 C   0  0  0  0  0  0  0  0  0  0  0  0
    0.8274   -4.1032   39.1251 O   0  0  0  0  0  0  0  0  0  0  0  0
   -4.0200   -5.3833   42.7591 C   0  0  1  0  0  0  0  0  0  0  0  0
   -4.4835   -5.6701   41.4564 O   0  0  0  0  0  0  0  0  0  0  0  0
    8.9650   -7.5996   43.9888 C   0  0  0  0  0  0  0  0  0  0  0  0
    9.5246   -8.8576   44.2792 O   0  0  0  0  0  0  0  0  0  0  0  0
    4.5830   -4.6349   44.0229 C   0  0  0  0  0  0  0  0  0  0  0  0
  1  2  1  6  0  0  0
  1  7  1  0  0  0  0
  1 24  1  0  0  0  0
  3  4  1  1  0  0  0
  3  9  1  0  0  0  0
  3 31  1  0  0  0  0
  5  6  1  6  0  0  0
  5 10  1  0  0  0  0
  5 28  1  0  0  0  0
  7  8  1  1  0  0  0
  7 12  1  0  0  0  0
  9 14  1  0  0  0  0
 10 11  1  6  0  0  0
 10 16  1  0  0  0  0
 12 13  1  1  0  0  0
 12 18  1  0  0  0  0
 13 35  1  0  0  0  0
 14 15  1  1  0  0  0
 14 20  1  0  0  0  0
 16 17  1  1  0  0  0
 16 21  1  0  0  0  0
 17 35  1  0  0  0  0
 18 19  1  6  0  0  0
 18 23  1  0  0  0  0
 20  2  1  6  0  0  0
 20 25  1  0  0  0  0
 21 22  1  6  0  0  0
 21 27  1  0  0  0  0
 23 24  1  0  0  0  0
 23 29  1  6  0  0  0
 25 26  1  6  0  0  0
 25 31  1  0  0  0  0
 27 28  1  0  0  0  0
 27 33  1  1  0  0  0
 29 30  1  0  0  0  0
 31 32  1  6  0  0  0
 33 34  1  0  0  0  0
M  END
>  <CHROM.1>
-169.44208782,42.97030851,56.37135965,57.75679342,-163.58214758,62.31051450
-64.95818512,172.01797294,1.86802804,-5.94876110,43.19990176,2.99892341,0.11672009
-0.85227221

>  <Name>
2o3v_lig

>  <RI>
0

>  <Rbt.Current_Directory>
/home/afrankz/demos/rdock_decoys_rna/rnas/2o3v

>  <Rbt.Executable>
rbdock ($Id: //depot/dev/client3/rdock/2013.1/src/exe/rbdock.cxx#4 $)

>  <Rbt.Library>
libRbt.so (2013.1, Build901 2013/11/27)

>  <Rbt.Parameter_File>
/export/apps/rDock/src/rDock_2013.1_src/data/scripts/dock_solv.prm

>  <Rbt.Receptor>
prm/pocket_docking_7.prm

>  <SCORE>
-15.176

>  <SCORE.INTER>
-13.7727

>  <SCORE.INTER.CONST>
1

>  <SCORE.INTER.POLAR>
-0.87178

>  <SCORE.INTER.ROT>
8

>  <SCORE.INTER.SOLV>
16.0532

>  <SCORE.INTER.VDW>
-20.5603

>  <SCORE.INTER.norm>
-0.393505

>  <SCORE.INTRA>
-1.40334

>  <SCORE.INTRA.DIHEDRAL>
-9.52948

>  <SCORE.INTRA.DIHEDRAL.0>
13.1227

>  <SCORE.INTRA.POLAR>
0

>  <SCORE.INTRA.POLAR.0>
0

>  <SCORE.INTRA.REPUL>
0

>  <SCORE.INTRA.REPUL.0>
0

>  <SCORE.INTRA.SOLV>
6.32844

>  <SCORE.INTRA.SOLV.lig_0>
-89.1587

>  <SCORE.INTRA.VDW>
0.197185

>  <SCORE.INTRA.VDW.0>
-0.838383

>  <SCORE.INTRA.norm>
-0.0400954

>  <SCORE.RESTR>
0

>  <SCORE.RESTR.CAVITY>
0

>  <SCORE.RESTR.norm>
0

>  <SCORE.SYSTEM>
0

>  <SCORE.SYSTEM.CONST>
0

>  <SCORE.SYSTEM.DIHEDRAL>
0

>  <SCORE.SYSTEM.SOLV>
0

>  <SCORE.SYSTEM.norm>
0

>  <SCORE.heavy>
35

>  <SCORE.norm>
-0.4336

>  <RMSD>
10.139

$$$$
2o3v_lig
 OpenBabel02141814113D
libRbt.so/2013.1/901 2013/11/27
 35 37  0  0  0  0  0  0  0  0999 V2000
   -4.0850   -8.1645   45.1372 C   0  0  2  0  0  0  0  0  0  0  0  0
   -4.1318   -7.1873   46.2214 O   0  0  0  0  0  0  0  0  0  0  0  0
   -5.6671   -6.6927   50.2619 C   0  0  2  0  0  0  0  0  0  0  0  0
   -6.5944   -6.7182   51.4331 N   0  0  0  0  0  0  0  0  0  0  0  0
    4.6855   -5.5262   44.4165 C   0  0  2  0  0  0  0  0  0  0  0  0
    4.4847   -5.2025   45.8095 O   0  0  0  0  0  0  0  0  0  0  0  0
   -2.7210   -7.8572   44.4418 C   0  0  2  0  0  0  0  0  0  0  0  0
   -1.5920   -7.9965   45.3916 N   0  0  0  0  0  0  0  0  0  0  0  0
   -6.2597   -5.7647   49.1159 C   0  0  0  0  0  0  0  0  0  0  0  0
    3.3791   -5.1265   43.6471 C   0  0  2  0  0  0  0  0  0  0  0  0
    3.0685   -3.6869   43.8367 N   0  0  0  0  0  0  0  0  0  0  0  0
   -2.7071   -6.4014   43.8014 C   0  0  1  0  0  0  0  0  0  0  0  0
   -1.3866   -6.1122   43.1841 O   0  0  0  0  0  0  0  0  0  0  0  0
   -5.2610   -5.7642   47.8786 C   0  0  2  0  0  0  0  0  0  0  0  0
   -5.7999   -4.9147   46.7949 N   0  0  0  0  0  0  0  0  0  0  0  0
    2.1406   -6.0230   44.0912 C   0  0  1  0  0  0  0  0  0  0  0  0
    0.9246   -5.6968   43.3703 O   0  0  0  0  0  0  0  0  0  0  0  0
   -3.9329   -6.3144   42.7898 C   0  0  2  0  0  0  0  0  0  0  0  0
   -4.0164   -5.0364   42.1851 O   0  0  0  0  0  0  0  0  0  0  0  0
   -5.0526   -7.2437   47.3524 C   0  0  2  0  0  0  0  0  0  0  0  0
    2.5074   -7.5234   43.8612 C   0  0  2  0  0  0  0  0  0  0  0  0
    1.4441   -8.3708   44.2497 O   0  0  0  0  0  0  0  0  0  0  0  0
   -5.2849   -6.6459   43.5286 C   0  0  2  0  0  0  0  0  0  0  0  0
   -5.1948   -7.9781   44.1623 O   0  0  0  0  0  0  0  0  0  0  0  0
   -4.4788   -8.1456   48.4809 C   0  0  2  0  0  0  0  0  0  0  0  0
   -4.3522   -9.4917   47.9396 O   0  0  0  0  0  0  0  0  0  0  0  0
    3.8301   -7.8825   44.6491 C   0  0  2  0  0  0  0  0  0  0  0  0
    4.9325   -6.9828   44.2392 O   0  0  0  0  0  0  0  0  0  0  0  0
   -6.4746   -6.6057   42.5706 C   0  0  0  0  0  0  0  0  0  0  0  0
   -6.3443   -7.5753   41.5597 O   0  0  0  0  0  0  0  0  0  0  0  0
   -5.4456   -8.1462   49.6881 C   0  0  1  0  0  0  0  0  0  0  0  0
   -4.8994   -8.9667   50.6994 O   0  0  0  0  0  0  0  0  0  0  0  0
    4.2520   -9.3259   44.4196 C   0  0  0  0  0  0  0  0  0  0  0  0
    5.4318   -9.6117   45.1313 O   0  0  0  0  0  0  0  0  0  0  0  0
   -0.2436   -6.0451   44.1697 C   0  0  0  0  0  0  0  0  0  0  0  0
  1  2  1  1  0  0  0
  1  7  1  0  0  0  0
  1 24  1  0  0  0  0
  3  4  1  1  0  0  0
  3  9  1  0  0  0  0
  3 31  1  0  0  0  0
  5  6  1  1  0  0  0
  5 10  1  0  0  0  0
  5 28  1  0  0  0  0
  7  8  1  1  0  0  0
  7 12  1  0  0  0  0
  9 14  1  0  0  0  0
 10 11  1  1  0  0  0
 10 16  1  0  0  0  0
 12 13  1  6  0  0  0
 12 18  1  0  0  0  0
 13 35  1  0  0  0  0
 14 15  1  6  0  0  0
 14 20  1  0  0  0  0
 16 17  1  6  0  0  0
 16 21  1  0  0  0  0
 17 35  1  0  0  0  0
 18 19  1  1  0  0  0
 18 23  1  0  0  0  0
 20  2  1  6  0  0  0
 20 25  1  0  0  0  0
 21 22  1  1  0  0  0
 21 27  1  0  0  0  0
 23 24  1  0  0  0  0
 23 29  1  6  0  0  0
 25 26  1  6  0  0  0
 25 31  1  0  0  0  0
 27 28  1  0  0  0  0
 27 33  1  6  0  0  0
 29 30  1  0  0  0  0
 31 32  1  1  0  0  0
 33 34  1  0  0  0  0
M  END
>  <CHROM.1>
-165.37471462,-65.03065756,-177.53521379,-153.91643086,-161.35659628,-153.80075337
62.22723017,179.87791286,-1.70357482,-6.95611066,45.41215302,2.81424212,-0.03697839
1.79024889

>  <Name>
2o3v_lig

>  <RI>
0

>  <Rbt.Current_Directory>
/home/afrankz/demos/rdock_decoys_rna/rnas/2o3v

>  <Rbt.Executable>
rbdock ($Id: //depot/dev/client3/rdock/2013.1/src/exe/rbdock.cxx#4 $)

>  <Rbt.Library>
libRbt.so (2013.1, Build901 2013/11/27)

>  <Rbt.Parameter_File>
/export/apps/rDock/src/rDock_2013.1_src/data/scripts/dock_solv.prm

>  <Rbt.Receptor>
prm/pocket_docking_5.prm

>  <SCORE>
-6.28216

>  <SCORE.INTER>
-4.20034

>  <SCORE.INTER.CONST>
1

>  <SCORE.INTER.POLAR>
0

>  <SCORE.INTER.ROT>
8

>  <SCORE.INTER.SOLV>
8.3616

>  <SCORE.INTER.VDW>
-14.5208

>  <SCORE.INTER.norm>
-0.12001

>  <SCORE.INTRA>
-2.08181

>  <SCORE.INTRA.DIHEDRAL>
-4.56376

>  <SCORE.INTRA.DIHEDRAL.0>
13.1227

>  <SCORE.INTRA.POLAR>
0

>  <SCORE.INTRA.POLAR.0>
0

>  <SCORE.INTRA.REPUL>
0

>  <SCORE.INTRA.REPUL.0>
0

>  <SCORE.INTRA.SOLV>
1.53957

>  <SCORE.INTRA.SOLV.lig_0>
-89.1587

>  <SCORE.INTRA.VDW>
-0.569719

>  <SCORE.INTRA.VDW.0>
-0.838383

>  <SCORE.INTRA.norm>
-0.0594804

>  <SCORE.RESTR>
0

>  <SCORE.RESTR.CAVITY>
0

>  <SCORE.RESTR.norm>
0

>  <SCORE.SYSTEM>
0

>  <SCORE.SYSTEM.CONST>
0

>  <SCORE.SYSTEM.DIHEDRAL>
0

>  <SCORE.SYSTEM.SOLV>
0

>  <SCORE.SYSTEM.norm>
0

>  <SCORE.heavy>
35

>  <SCORE.norm>
-0.17949

>  <RMSD>
10.155

$$$$
2o3v_lig
 OpenBabel02141814113D
libRbt.so/2013.1/901 2013/11/27
 35 37  0  0  0  0  0  0  0  0999 V2000
   -1.7990   -6.6237   45.9473 C   0  0  2  0  0  0  0  0  0  0  0  0
   -2.6695   -7.6934   46.4277 O   0  0  0  0  0  0  0  0  0  0  0  0
   -6.8545   -7.9950   47.5776 C   0  0  2  0  0  0  0  0  0  0  0  0
   -8.1242   -7.8189   48.3449 N   0  0  0  0  0  0  0  0  0  0  0  0
    4.9086   -5.4748   43.2321 C   0  0  2  0  0  0  0  0  0  0  0  0
    5.6503   -5.0873   44.4091 O   0  0  0  0  0  0  0  0  0  0  0  0
   -0.8776   -7.3519   44.9182 C   0  0  2  0  0  0  0  0  0  0  0  0
   -1.6731   -7.9769   43.8352 N   0  0  0  0  0  0  0  0  0  0  0  0
   -5.7756   -8.7454   48.4710 C   0  0  0  0  0  0  0  0  0  0  0  0
    3.7190   -6.3815   43.7023 C   0  0  2  0  0  0  0  0  0  0  0  0
    2.8606   -5.6684   44.6819 N   0  0  0  0  0  0  0  0  0  0  0  0
    0.0285   -8.4530   45.6226 C   0  0  1  0  0  0  0  0  0  0  0  0
    0.8645   -9.1641   44.6207 O   0  0  0  0  0  0  0  0  0  0  0  0
   -4.4322   -8.9094   47.6363 C   0  0  2  0  0  0  0  0  0  0  0  0
   -3.4097   -9.5961   48.4546 N   0  0  0  0  0  0  0  0  0  0  0  0
    4.2377   -7.7551   44.3180 C   0  0  1  0  0  0  0  0  0  0  0  0
    3.1558   -8.6288   44.7313 O   0  0  0  0  0  0  0  0  0  0  0  0
    0.8607   -7.7240   46.7670 C   0  0  2  0  0  0  0  0  0  0  0  0
    1.6843   -8.6365   47.4705 O   0  0  0  0  0  0  0  0  0  0  0  0
   -3.8988   -7.4871   47.1870 C   0  0  2  0  0  0  0  0  0  0  0  0
    5.1218   -8.4740   43.2502 C   0  0  2  0  0  0  0  0  0  0  0  0
    5.6211   -9.7000   43.7473 O   0  0  0  0  0  0  0  0  0  0  0  0
   -0.1060   -6.9908   47.7728 C   0  0  2  0  0  0  0  0  0  0  0  0
   -0.9674   -6.0418   47.0366 O   0  0  0  0  0  0  0  0  0  0  0  0
   -4.9623   -6.7578   46.3190 C   0  0  2  0  0  0  0  0  0  0  0  0
   -4.4220   -5.4489   45.9783 O   0  0  0  0  0  0  0  0  0  0  0  0
    6.3040   -7.5254   42.8010 C   0  0  2  0  0  0  0  0  0  0  0  0
    5.7679   -6.2427   42.2908 O   0  0  0  0  0  0  0  0  0  0  0  0
    0.6700   -6.2511   48.8615 C   0  0  0  0  0  0  0  0  0  0  0  0
    1.9297   -5.8359   48.3928 O   0  0  0  0  0  0  0  0  0  0  0  0
   -6.2721   -6.5993   47.1260 C   0  0  1  0  0  0  0  0  0  0  0  0
   -7.2215   -5.9402   46.3146 O   0  0  0  0  0  0  0  0  0  0  0  0
    7.1688   -8.1677   41.7270 C   0  0  0  0  0  0  0  0  0  0  0  0
    8.3911   -8.5996   42.2741 O   0  0  0  0  0  0  0  0  0  0  0  0
    1.9402   -8.3090   43.9930 C   0  0  0  0  0  0  0  0  0  0  0  0
  1  2  1  1  0  0  0
  1  7  1  0  0  0  0
  1 24  1  0  0  0  0
  3  4  1  1  0  0  0
  3  9  1  0  0  0  0
  3 31  1  0  0  0  0
  5  6  1  1  0  0  0
  5 10  1  0  0  0  0
  5 28  1  0  0  0  0
  7  8  1  6  0  0  0
  7 12  1  0  0  0  0
  9 14  1  0  0  0  0
 10 11  1  1  0  0  0
 10 16  1  0  0  0  0
 12 13  1  6  0  0  0
 12 18  1  0  0  0  0
 13 35  1  0  0  0  0
 14 15  1  1  0  0  0
 14 20  1  0  0  0  0
 16 17  1  6  0  0  0
 16 21  1  0  0  0  0
 17 35  1  0  0  0  0
 18 19  1  1  0  0  0
 18 23  1  0  0  0  0
 20  2  1  6  0  0  0
 20 25  1  0  0  0  0
 21 22  1  1  0  0  0
 21 27  1  0  0  0  0
 23 24  1  0  0  0  0
 23 29  1  1  0  0  0
 25 26  1  1  0  0  0
 25 31  1  0  0  0  0
 27 28  1  0  0  0  0
 27 33  1  6  0  0  0
 29 30  1  0  0  0  0
 31 32  1  6  0  0  0
 33 34  1  0  0  0  0
M  END
>  <CHROM.1>
-165.93953907,68.33460820,98.25306324,24.02842864,-173.59520250,-173.79895316
29.15044857,-104.99062908,0.28716761,-7.42355572,45.59241963,-2.90767371
-0.26189956,-2.42650718

>  <Name>
2o3v_lig

>  <RI>
0

>  <Rbt.Current_Directory>
/home/afrankz/demos/rdock_decoys_rna/rnas/2o3v

>  <Rbt.Executable>
rbdock ($Id: //depot/dev/client3/rdock/2013.1/src/exe/rbdock.cxx#4 $)

>  <Rbt.Library>
libRbt.so (2013.1, Build901 2013/11/27)

>  <Rbt.Parameter_File>
/export/apps/rDock/src/rDock_2013.1_src/data/scripts/dock_solv.prm

>  <Rbt.Receptor>
prm/pocket_docking_2.prm

>  <SCORE>
-2.27046

>  <SCORE.INTER>
-9.88726

>  <SCORE.INTER.CONST>
1

>  <SCORE.INTER.POLAR>
0

>  <SCORE.INTER.ROT>
8

>  <SCORE.INTER.SOLV>
12.6578

>  <SCORE.INTER.VDW>
-19.7441

>  <SCORE.INTER.norm>
-0.282493

>  <SCORE.INTRA>
7.26535

>  <SCORE.INTRA.DIHEDRAL>
5.59828

>  <SCORE.INTRA.DIHEDRAL.0>
13.1227

>  <SCORE.INTRA.POLAR>
0

>  <SCORE.INTRA.POLAR.0>
0

>  <SCORE.INTRA.REPUL>
0.0565495

>  <SCORE.INTRA.REPUL.0>
0

>  <SCORE.INTRA.SOLV>
2.23478

>  <SCORE.INTRA.SOLV.lig_0>
-89.1587

>  <SCORE.INTRA.VDW>
3.06607

>  <SCORE.INTRA.VDW.0>
-0.838383

>  <SCORE.INTRA.norm>
0.207581

>  <SCORE.RESTR>
0.351452

>  <SCORE.RESTR.CAVITY>
0.351452

>  <SCORE.RESTR.norm>
0.0100415

>  <SCORE.SYSTEM>
0

>  <SCORE.SYSTEM.CONST>
0

>  <SCORE.SYSTEM.DIHEDRAL>
0

>  <SCORE.SYSTEM.SOLV>
0

>  <SCORE.SYSTEM.norm>
0

>  <SCORE.heavy>
35

>  <SCORE.norm>
-0.0648702

>  <RMSD>
10.156

$$$$
2o3v_lig
 OpenBabel02141814113D
libRbt.so/2013.1/901 2013/11/27
 35 37  0  0  0  0  0  0  0  0999 V2000
   -1.6982   -9.1714   47.6124 C   0  0  2  0  0  0  0  0  0  0  0  0
   -2.2064   -7.8542   47.2386 O   0  0  0  0  0  0  0  0  0  0  0  0
   -6.1261   -5.9882   47.5237 C   0  0  2  0  0  0  0  0  0  0  0  0
   -7.5513   -5.6456   47.2346 N   0  0  0  0  0  0  0  0  0  0  0  0
    4.1556   -4.3450   43.0713 C   0  0  2  0  0  0  0  0  0  0  0  0
    4.9451   -3.3313   43.7305 O   0  0  0  0  0  0  0  0  0  0  0  0
   -0.1716   -8.9165   47.8193 C   0  0  2  0  0  0  0  0  0  0  0  0
    0.0639   -7.8911   48.8631 N   0  0  0  0  0  0  0  0  0  0  0  0
   -5.2130   -5.6272   46.2741 C   0  0  0  0  0  0  0  0  0  0  0  0
    3.4064   -5.1562   44.1844 C   0  0  2  0  0  0  0  0  0  0  0  0
    2.5650   -4.2624   45.0199 N   0  0  0  0  0  0  0  0  0  0  0  0
    0.5356   -8.4757   46.4646 C   0  0  1  0  0  0  0  0  0  0  0  0
    1.9772   -8.1954   46.6921 O   0  0  0  0  0  0  0  0  0  0  0  0
   -3.7056   -6.0118   46.6029 C   0  0  2  0  0  0  0  0  0  0  0  0
   -2.8397   -5.6942   45.4471 N   0  0  0  0  0  0  0  0  0  0  0  0
    4.4229   -5.9727   45.0982 C   0  0  1  0  0  0  0  0  0  0  0  0
    3.7539   -6.7597   46.1169 O   0  0  0  0  0  0  0  0  0  0  0  0
    0.2546   -9.6142   45.3883 C   0  0  2  0  0  0  0  0  0  0  0  0
    0.8294   -9.2950   44.1338 O   0  0  0  0  0  0  0  0  0  0  0  0
   -3.6045   -7.5550   46.9459 C   0  0  2  0  0  0  0  0  0  0  0  0
    5.2739   -6.9064   44.1802 C   0  0  2  0  0  0  0  0  0  0  0  0
    6.2056   -7.6517   44.9393 O   0  0  0  0  0  0  0  0  0  0  0  0
   -1.2949   -9.8488   45.2225 C   0  0  2  0  0  0  0  0  0  0  0  0
   -1.8939  -10.1779   46.5330 O   0  0  0  0  0  0  0  0  0  0  0  0
   -4.5051   -7.9003   48.1649 C   0  0  2  0  0  0  0  0  0  0  0  0
   -4.3933   -9.3340   48.3957 O   0  0  0  0  0  0  0  0  0  0  0  0
    6.0073   -6.0507   43.0716 C   0  0  2  0  0  0  0  0  0  0  0  0
    5.0216   -5.2692   42.2902 O   0  0  0  0  0  0  0  0  0  0  0  0
   -1.5914  -10.9640   44.2209 C   0  0  0  0  0  0  0  0  0  0  0  0
   -2.9764  -11.1152   44.0261 O   0  0  0  0  0  0  0  0  0  0  0  0
   -5.9721   -7.5245   47.8507 C   0  0  1  0  0  0  0  0  0  0  0  0
   -6.7667   -7.8425   48.9739 O   0  0  0  0  0  0  0  0  0  0  0  0
    6.8158   -6.9242   42.1244 C   0  0  0  0  0  0  0  0  0  0  0  0
    7.8995   -7.5119   42.8028 O   0  0  0  0  0  0  0  0  0  0  0  0
    2.6717   -7.5357   45.5239 C   0  0  0  0  0  0  0  0  0  0  0  0
  1  2  1  6  0  0  0
  1  7  1  0  0  0  0
  1 24  1  0  0  0  0
  3  4  1  6  0  0  0
  3  9  1  0  0  0  0
  3 31  1  0  0  0  0
  5  6  1  1  0  0  0
  5 10  1  0  0  0  0
  5 28  1  0  0  0  0
  7  8  1  1  0  0  0
  7 12  1  0  0  0  0
  9 14  1  0  0  0  0
 10 11  1  1  0  0  0
 10 16  1  0  0  0  0
 12 13  1  1  0  0  0
 12 18  1  0  0  0  0
 13 35  1  0  0  0  0
 14 15  1  6  0  0  0
 14 20  1  0  0  0  0
 16 17  1  1  0  0  0
 16 21  1  0  0  0  0
 17 35  1  0  0  0  0
 18 19  1  6  0  0  0
 18 23  1  0  0  0  0
 20  2  1  1  0  0  0
 20 25  1  0  0  0  0
 21 22  1  1  0  0  0
 21 27  1  0  0  0  0
 23 24  1  0  0  0  0
 23 29  1  6  0  0  0
 25 26  1  6  0  0  0
 25 31  1  0  0  0  0
 27 28  1  0  0  0  0
 27 33  1  6  0  0  0
 29 30  1  0  0  0  0
 31 32  1  1  0  0  0
 33 34  1  0  0  0  0
M  END
>  <CHROM.1>
-179.42246608,-169.59915192,151.82940512,48.97155635,-174.59676338,179.45644712
-176.77491644,-67.20741912,0.17600453,-7.40616874,45.69030812,-2.98060798
0.33599114,-0.05265338

>  <Name>
2o3v_lig

>  <RI>
0

>  <Rbt.Current_Directory>
/home/afrankz/demos/rdock_decoys_rna/rnas/2o3v

>  <Rbt.Executable>
rbdock ($Id: //depot/dev/client3/rdock/2013.1/src/exe/rbdock.cxx#4 $)

>  <Rbt.Library>
libRbt.so (2013.1, Build901 2013/11/27)

>  <Rbt.Parameter_File>
/export/apps/rDock/src/rDock_2013.1_src/data/scripts/dock_solv.prm

>  <Rbt.Receptor>
prm/pocket_docking_4.prm

>  <SCORE>
-11.9043

>  <SCORE.INTER>
-7.92173

>  <SCORE.INTER.CONST>
1

>  <SCORE.INTER.POLAR>
-0.959166

>  <SCORE.INTER.ROT>
8

>  <SCORE.INTER.SOLV>
10.2182

>  <SCORE.INTER.VDW>
-14.4233

>  <SCORE.INTER.norm>
-0.226335

>  <SCORE.INTRA>
-3.99782

>  <SCORE.INTRA.DIHEDRAL>
-8.34726

>  <SCORE.INTRA.DIHEDRAL.0>
13.1227

>  <SCORE.INTRA.POLAR>
0

>  <SCORE.INTRA.POLAR.0>
0

>  <SCORE.INTRA.REPUL>
0

>  <SCORE.INTRA.REPUL.0>
0

>  <SCORE.INTRA.SOLV>
-1.05982

>  <SCORE.INTRA.SOLV.lig_0>
-89.1587

>  <SCORE.INTRA.VDW>
0.705715

>  <SCORE.INTRA.VDW.0>
-0.838383

>  <SCORE.INTRA.norm>
-0.114224

>  <SCORE.RESTR>
0.0152477

>  <SCORE.RESTR.CAVITY>
0.0152477

>  <SCORE.RESTR.norm>
0.000435648

>  <SCORE.SYSTEM>
0

>  <SCORE.SYSTEM.CONST>
0

>  <SCORE.SYSTEM.DIHEDRAL>
0

>  <SCORE.SYSTEM.SOLV>
0

>  <SCORE.SYSTEM.norm>
0

>  <SCORE.heavy>
35

>  <SCORE.norm>
-0.340123

>  <RMSD>
10.156

$$$$
2o3v_lig
 OpenBabel02141814113D
libRbt.so/2013.1/901 2013/11/27
 35 37  0  0  0  0  0  0  0  0999 V2000
    0.4001   -5.4169   44.8360 C   0  0  2  0  0  0  0  0  0  0  0  0
   -0.4672   -6.5567   44.5507 O   0  0  0  0  0  0  0  0  0  0  0  0
   -4.6676   -7.1626   43.5929 C   0  0  2  0  0  0  0  0  0  0  0  0
   -6.1557   -7.1916   43.7231 N   0  0  0  0  0  0  0  0  0  0  0  0
    8.6316   -6.8106   43.4642 C   0  0  2  0  0  0  0  0  0  0  0  0
    8.0770   -5.6666   44.1493 O   0  0  0  0  0  0  0  0  0  0  0  0
    1.6903   -5.7399   44.0178 C   0  0  2  0  0  0  0  0  0  0  0  0
    1.3871   -5.8857   42.5745 N   0  0  0  0  0  0  0  0  0  0  0  0
   -4.0048   -8.1048   44.6876 C   0  0  0  0  0  0  0  0  0  0  0  0
    7.4543   -7.5294   42.7188 C   0  0  2  0  0  0  0  0  0  0  0  0
    6.7746   -6.6028   41.7784 N   0  0  0  0  0  0  0  0  0  0  0  0
    2.4058   -7.0563   44.5515 C   0  0  1  0  0  0  0  0  0  0  0  0
    3.6052   -7.3706   43.7324 O   0  0  0  0  0  0  0  0  0  0  0  0
   -2.4231   -8.0469   44.5350 C   0  0  2  0  0  0  0  0  0  0  0  0
   -1.7855   -8.9091   45.5532 N   0  0  0  0  0  0  0  0  0  0  0  0
    6.4036   -8.1476   43.7429 C   0  0  1  0  0  0  0  0  0  0  0  0
    5.3198   -8.8483   43.0802 O   0  0  0  0  0  0  0  0  0  0  0  0
    2.7113   -6.8385   46.0984 C   0  0  2  0  0  0  0  0  0  0  0  0
    3.3307   -7.9768   46.6698 O   0  0  0  0  0  0  0  0  0  0  0  0
   -1.9192   -6.5541   44.6988 C   0  0  2  0  0  0  0  0  0  0  0  0
    7.1596   -9.1232   44.6996 C   0  0  2  0  0  0  0  0  0  0  0  0
    6.2747   -9.6966   45.6419 O   0  0  0  0  0  0  0  0  0  0  0  0
    1.3864   -6.5005   46.8820 C   0  0  2  0  0  0  0  0  0  0  0  0
    0.7392   -5.3149   46.2821 O   0  0  0  0  0  0  0  0  0  0  0  0
   -2.5769   -5.6386   43.6285 C   0  0  2  0  0  0  0  0  0  0  0  0
   -2.1008   -4.2826   43.8644 O   0  0  0  0  0  0  0  0  0  0  0  0
    8.3388   -8.3609   45.4260 C   0  0  2  0  0  0  0  0  0  0  0  0
    9.2526   -7.7585   44.4285 O   0  0  0  0  0  0  0  0  0  0  0  0
    1.6576   -6.2499   48.3647 C   0  0  0  0  0  0  0  0  0  0  0  0
    0.4563   -6.1160   49.0842 O   0  0  0  0  0  0  0  0  0  0  0  0
   -4.1159   -5.6946   43.7711 C   0  0  1  0  0  0  0  0  0  0  0  0
   -4.6880   -4.8604   42.7857 O   0  0  0  0  0  0  0  0  0  0  0  0
    9.1332   -9.2838   46.3378 C   0  0  0  0  0  0  0  0  0  0  0  0
    8.3391   -9.7084   47.4191 O   0  0  0  0  0  0  0  0  0  0  0  0
    4.1097   -8.7858   43.8907 C   0  0  0  0  0  0  0  0  0  0  0  0
  1  2  1  1  0  0  0
  1  7  1  0  0  0  0
  1 24  1  0  0  0  0
  3  4  1  1  0  0  0
  3  9  1  0  0  0  0
  3 31  1  0  0  0  0
  5  6  1  1  0  0  0
  5 10  1  0  0  0  0
  5 28  1  0  0  0  0
  7  8  1  6  0  0  0
  7 12  1  0  0  0  0
  9 14  1  0  0  0  0
 10 11  1  6  0  0  0
 10 16  1  0  0  0  0
 12 13  1  6  0  0  0
 12 18  1  0  0  0  0
 13 35  1  0  0  0  0
 14 15  1  1  0  0  0
 14 20  1  0  0  0  0
 16 17  1  6  0  0  0
 16 21  1  0  0  0  0
 17 35  1  0  0  0  0
 18 19  1  1  0  0  0
 18 23  1  0  0  0  0
 20  2  1  6  0  0  0
 20 25  1  0  0  0  0
 21 22  1  1  0  0  0
 21 27  1  0  0  0  0
 23 24  1  0  0  0  0
 23 29  1  1  0  0  0
 25 26  1  1  0  0  0
 25 31  1  0  0  0  0
 27 28  1  0  0  0  0
 27 33  1  6  0  0  0
 29 30  1  0  0  0  0
 31 32  1  6  0  0  0
 33 34  1  0  0  0  0
M  END
>  <CHROM.1>
-158.79141336,-162.97067206,-176.46113753,-150.76052708,74.34137010,-170.11326084
-172.57605313,-66.74975780,2.33901701,-7.13590919,44.75024119,-3.06448679
-0.14821807,1.82996231

>  <Name>
2o3v_lig

>  <RI>
0

>  <Rbt.Current_Directory>
/home/afrankz/demos/rdock_decoys_rna/rnas/2o3v

>  <Rbt.Executable>
rbdock ($Id: //depot/dev/client3/rdock/2013.1/src/exe/rbdock.cxx#4 $)

>  <Rbt.Library>
libRbt.so (2013.1, Build901 2013/11/27)

>  <Rbt.Parameter_File>
/export/apps/rDock/src/rDock_2013.1_src/data/scripts/dock_solv.prm

>  <Rbt.Receptor>
prm/pocket_docking_6.prm

>  <SCORE>
-14.2812

>  <SCORE.INTER>
-10.2233

>  <SCORE.INTER.CONST>
1

>  <SCORE.INTER.POLAR>
-0.87178

>  <SCORE.INTER.ROT>
8

>  <SCORE.INTER.SOLV>
14.6189

>  <SCORE.INTER.VDW>
-17.7159

>  <SCORE.INTER.norm>
-0.292095

>  <SCORE.INTRA>
-4.05788

>  <SCORE.INTRA.DIHEDRAL>
-4.43037

>  <SCORE.INTRA.DIHEDRAL.0>
13.1227

>  <SCORE.INTRA.POLAR>
0

>  <SCORE.INTRA.POLAR.0>
0

>  <SCORE.INTRA.REPUL>
0.00936391

>  <SCORE.INTRA.REPUL.0>
0

>  <SCORE.INTRA.SOLV>
-0.245352

>  <SCORE.INTRA.SOLV.lig_0>
-89.1587

>  <SCORE.INTRA.VDW>
-1.76684

>  <SCORE.INTRA.VDW.0>
-0.838383

>  <SCORE.INTRA.norm>
-0.11594

>  <SCORE.RESTR>
0

>  <SCORE.RESTR.CAVITY>
0

>  <SCORE.RESTR.norm>
0

>  <SCORE.SYSTEM>
0

>  <SCORE.SYSTEM.CONST>
0

>  <SCORE.SYSTEM.DIHEDRAL>
0

>  <SCORE.SYSTEM.SOLV>
0

>  <SCORE.SYSTEM.norm>
0

>  <SCORE.heavy>
35

>  <SCORE.norm>
-0.408034

>  <RMSD>
10.165

$$$$
2o3v_lig
 OpenBabel02141814113D
libRbt.so/2013.1/901 2013/11/27
 35 37  0  0  0  0  0  0  0  0999 V2000
   -1.8918   -6.7035   46.2065 C   0  0  2  0  0  0  0  0  0  0  0  0
   -3.1974   -6.7238   45.5523 O   0  0  0  0  0  0  0  0  0  0  0  0
   -6.0553   -5.9237   48.7334 C   0  0  2  0  0  0  0  0  0  0  0  0
   -7.3502   -5.7709   49.4628 N   0  0  0  0  0  0  0  0  0  0  0  0
    5.7115   -4.8178   42.9925 C   0  0  2  0  0  0  0  0  0  0  0  0
    5.7576   -4.3051   44.3418 O   0  0  0  0  0  0  0  0  0  0  0  0
   -1.0783   -5.6887   45.3424 C   0  0  2  0  0  0  0  0  0  0  0  0
   -1.7320   -4.3588   45.3204 N   0  0  0  0  0  0  0  0  0  0  0  0
   -5.9962   -4.9144   47.5074 C   0  0  0  0  0  0  0  0  0  0  0  0
    4.2030   -4.9100   42.5750 C   0  0  2  0  0  0  0  0  0  0  0  0
    3.5389   -3.5863   42.6821 N   0  0  0  0  0  0  0  0  0  0  0  0
   -0.8818   -6.2148   43.8544 C   0  0  1  0  0  0  0  0  0  0  0  0
   -0.1446   -5.2160   43.0375 O   0  0  0  0  0  0  0  0  0  0  0  0
   -4.6153   -5.1054   46.7425 C   0  0  2  0  0  0  0  0  0  0  0  0
   -4.5447   -4.1823   45.5895 N   0  0  0  0  0  0  0  0  0  0  0  0
    3.4210   -5.9932   43.4410 C   0  0  1  0  0  0  0  0  0  0  0  0
    2.0292   -6.1234   43.0530 O   0  0  0  0  0  0  0  0  0  0  0  0
   -0.1724   -7.6371   43.9419 C   0  0  2  0  0  0  0  0  0  0  0  0
    0.0229   -8.1990   42.6566 O   0  0  0  0  0  0  0  0  0  0  0  0
   -4.4763   -6.6029   46.2450 C   0  0  2  0  0  0  0  0  0  0  0  0
    4.1456   -7.3679   43.2866 C   0  0  2  0  0  0  0  0  0  0  0  0
    3.4986   -8.3703   44.0457 O   0  0  0  0  0  0  0  0  0  0  0  0
   -1.0180   -8.6234   44.8340 C   0  0  2  0  0  0  0  0  0  0  0  0
   -1.2243   -8.0339   46.1736 O   0  0  0  0  0  0  0  0  0  0  0  0
   -4.5414   -7.5834   47.4494 C   0  0  2  0  0  0  0  0  0  0  0  0
   -4.4480   -8.9350   46.9152 O   0  0  0  0  0  0  0  0  0  0  0  0
    5.6617   -7.2296   43.7128 C   0  0  2  0  0  0  0  0  0  0  0  0
    6.3247   -6.1715   42.9167 O   0  0  0  0  0  0  0  0  0  0  0  0
   -0.3395   -9.9862   44.9649 C   0  0  0  0  0  0  0  0  0  0  0  0
   -1.1507  -10.8902   45.6745 O   0  0  0  0  0  0  0  0  0  0  0  0
   -5.8817   -7.3985   48.1986 C   0  0  1  0  0  0  0  0  0  0  0  0
   -5.9130   -8.2950   49.2892 O   0  0  0  0  0  0  0  0  0  0  0  0
    6.4209   -8.5361   43.5374 C   0  0  0  0  0  0  0  0  0  0  0  0
    7.7713   -8.3715   43.8969 O   0  0  0  0  0  0  0  0  0  0  0  0
    1.2709   -4.9613   43.4999 C   0  0  0  0  0  0  0  0  0  0  0  0
  1  2  1  6  0  0  0
  1  7  1  0  0  0  0
  1 24  1  0  0  0  0
  3  4  1  6  0  0  0
  3  9  1  0  0  0  0
  3 31  1  0  0  0  0
  5  6  1  1  0  0  0
  5 10  1  0  0  0  0
  5 28  1  0  0  0  0
  7  8  1  6  0  0  0
  7 12  1  0  0  0  0
  9 14  1  0  0  0  0
 10 11  1  1  0  0  0
 10 16  1  0  0  0  0
 12 13  1  6  0  0  0
 12 18  1  0  0  0  0
 13 35  1  0  0  0  0
 14 15  1  6  0  0  0
 14 20  1  0  0  0  0
 16 17  1  6  0  0  0
 16 21  1  0  0  0  0
 17 35  1  0  0  0  0
 18 19  1  6  0  0  0
 18 23  1  0  0  0  0
 20  2  1  1  0  0  0
 20 25  1  0  0  0  0
 21 22  1  1  0  0  0
 21 27  1  0  0  0  0
 23 24  1  0  0  0  0
 23 29  1  1  0  0  0
 25 26  1  6  0  0  0
 25 31  1  0  0  0  0
 27 28  1  0  0  0  0
 27 33  1  6  0  0  0
 29 30  1  0  0  0  0
 31 32  1  1  0  0  0
 33 34  1  0  0  0  0
M  END
>  <CHROM.1>
-132.04324597,64.21874450,75.84533054,-72.95358272,179.91839075,71.47855282
-175.38600785,178.71032223,-0.14077292,-6.72067860,45.06012702,-3.04712872
0.37874965,-0.19081558

>  <Name>
2o3v_lig

>  <RI>
0

>  <Rbt.Current_Directory>
/home/afrankz/demos/rdock_decoys_rna/rnas/2o3v

>  <Rbt.Executable>
rbdock ($Id: //depot/dev/client3/rdock/2013.1/src/exe/rbdock.cxx#4 $)

>  <Rbt.Library>
libRbt.so (2013.1, Build901 2013/11/27)

>  <Rbt.Parameter_File>
/export/apps/rDock/src/rDock_2013.1_src/data/scripts/dock_solv.prm

>  <Rbt.Receptor>
prm/pocket_docking_4.prm

>  <SCORE>
-9.58054

>  <SCORE.INTER>
-8.47565

>  <SCORE.INTER.CONST>
1

>  <SCORE.INTER.POLAR>
-0.478567

>  <SCORE.INTER.ROT>
8

>  <SCORE.INTER.SOLV>
11.199

>  <SCORE.INTER.VDW>
-16.7215

>  <SCORE.INTER.norm>
-0.242162

>  <SCORE.INTRA>
-1.10489

>  <SCORE.INTRA.DIHEDRAL>
-3.82384

>  <SCORE.INTRA.DIHEDRAL.0>
13.1227

>  <SCORE.INTRA.POLAR>
0

>  <SCORE.INTRA.POLAR.0>
0

>  <SCORE.INTRA.REPUL>
0

>  <SCORE.INTRA.REPUL.0>
0

>  <SCORE.INTRA.SOLV>
3.89853

>  <SCORE.INTRA.SOLV.lig_0>
-89.1587

>  <SCORE.INTRA.VDW>
-1.14223

>  <SCORE.INTRA.VDW.0>
-0.838383

>  <SCORE.INTRA.norm>
-0.0315683

>  <SCORE.RESTR>
0

>  <SCORE.RESTR.CAVITY>
0

>  <SCORE.RESTR.norm>
0

>  <SCORE.SYSTEM>
0

>  <SCORE.SYSTEM.CONST>
0

>  <SCORE.SYSTEM.DIHEDRAL>
0

>  <SCORE.SYSTEM.SOLV>
0

>  <SCORE.SYSTEM.norm>
0

>  <SCORE.heavy>
35

>  <SCORE.norm>
-0.27373

>  <RMSD>
10.170

$$$$
2o3v_lig
 OpenBabel02141814113D
libRbt.so/2013.1/901 2013/11/27
 35 37  0  0  0  0  0  0  0  0999 V2000
   -1.5631   -6.1145   46.2762 C   0  0  2  0  0  0  0  0  0  0  0  0
   -2.2663   -7.3922   46.3524 O   0  0  0  0  0  0  0  0  0  0  0  0
   -6.1949   -8.7849   47.5989 C   0  0  2  0  0  0  0  0  0  0  0  0
   -7.3774   -9.0898   48.4596 N   0  0  0  0  0  0  0  0  0  0  0  0
    5.0074   -4.9474   43.3990 C   0  0  2  0  0  0  0  0  0  0  0  0
    4.9558   -4.7687   44.8311 O   0  0  0  0  0  0  0  0  0  0  0  0
   -0.6039   -6.3100   45.0596 C   0  0  2  0  0  0  0  0  0  0  0  0
   -1.3614   -6.6248   43.8253 N   0  0  0  0  0  0  0  0  0  0  0  0
   -4.9187   -9.5724   48.1247 C   0  0  0  0  0  0  0  0  0  0  0  0
    3.9362   -6.0278   43.0203 C   0  0  2  0  0  0  0  0  0  0  0  0
    2.5829   -5.6181   43.4738 N   0  0  0  0  0  0  0  0  0  0  0  0
    0.4671   -7.4523   45.3380 C   0  0  1  0  0  0  0  0  0  0  0  0
    1.3407   -7.6529   44.1528 O   0  0  0  0  0  0  0  0  0  0  0  0
   -3.6736   -9.2219   47.2000 C   0  0  2  0  0  0  0  0  0  0  0  0
   -2.4711   -9.9364   47.6796 N   0  0  0  0  0  0  0  0  0  0  0  0
    4.3101   -7.4566   43.6150 C   0  0  1  0  0  0  0  0  0  0  0  0
    3.3523   -8.4838   43.2516 O   0  0  0  0  0  0  0  0  0  0  0  0
    1.2504   -7.0572   46.6661 C   0  0  2  0  0  0  0  0  0  0  0  0
    2.2155   -8.0354   47.0093 O   0  0  0  0  0  0  0  0  0  0  0  0
   -3.4145   -7.6592   47.2129 C   0  0  2  0  0  0  0  0  0  0  0  0
    5.7312   -7.8506   43.1010 C   0  0  2  0  0  0  0  0  0  0  0  0
    6.1222   -9.1114   43.6078 O   0  0  0  0  0  0  0  0  0  0  0  0
    0.2447   -6.8553   47.8626 C   0  0  2  0  0  0  0  0  0  0  0  0
   -0.7640   -5.8372   47.5015 O   0  0  0  0  0  0  0  0  0  0  0  0
   -4.6695   -6.8966   46.7032 C   0  0  2  0  0  0  0  0  0  0  0  0
   -4.3741   -5.4725   46.7805 O   0  0  0  0  0  0  0  0  0  0  0  0
    6.7777   -6.7345   43.4992 C   0  0  2  0  0  0  0  0  0  0  0  0
    6.3520   -5.4187   42.9698 O   0  0  0  0  0  0  0  0  0  0  0  0
    0.9685   -6.4386   49.1422 C   0  0  0  0  0  0  0  0  0  0  0  0
    0.0911   -6.4328   50.2418 O   0  0  0  0  0  0  0  0  0  0  0  0
   -5.8841   -7.2375   47.5979 C   0  0  1  0  0  0  0  0  0  0  0  0
   -7.0099   -6.5377   47.1111 O   0  0  0  0  0  0  0  0  0  0  0  0
    8.1716   -7.0542   42.9807 C   0  0  0  0  0  0  0  0  0  0  0  0
    9.0981   -6.1017   43.4438 O   0  0  0  0  0  0  0  0  0  0  0  0
    2.4104   -8.7027   44.3425 C   0  0  0  0  0  0  0  0  0  0  0  0
  1  2  1  1  0  0  0
  1  7  1  0  0  0  0
  1 24  1  0  0  0  0
  3  4  1  1  0  0  0
  3  9  1  0  0  0  0
  3 31  1  0  0  0  0
  5  6  1  1  0  0  0
  5 10  1  0  0  0  0
  5 28  1  0  0  0  0
  7  8  1  6  0  0  0
  7 12  1  0  0  0  0
  9 14  1  0  0  0  0
 10 11  1  1  0  0  0
 10 16  1  0  0  0  0
 12 13  1  6  0  0  0
 12 18  1  0  0  0  0
 13 35  1  0  0  0  0
 14 15  1  1  0  0  0
 14 20  1  0  0  0  0
 16 17  1  6  0  0  0
 16 21  1  0  0  0  0
 17 35  1  0  0  0  0
 18 19  1  1  0  0  0
 18 23  1  0  0  0  0
 20  2  1  6  0  0  0
 20 25  1  0  0  0  0
 21 22  1  1  0  0  0
 21 27  1  0  0  0  0
 23 24  1  0  0  0  0
 23 29  1  1  0  0  0
 25 26  1  1  0  0  0
 25 31  1  0  0  0  0
 27 28  1  0  0  0  0
 27 33  1  6  0  0  0
 29 30  1  0  0  0  0
 31 32  1  6  0  0  0
 33 34  1  0  0  0  0
M  END
>  <CHROM.1>
-170.92072321,178.70962501,-164.81562466,-98.56684352,84.77109913,-168.81420363
-172.20506676,-175.16835529,0.60151603,-7.15112867,45.69624629,-2.81772086
-0.17979045,-1.81194437

>  <Name>
2o3v_lig

>  <RI>
0

>  <Rbt.Current_Directory>
/home/afrankz/demos/rdock_decoys_rna/rnas/2o3v

>  <Rbt.Executable>
rbdock ($Id: //depot/dev/client3/rdock/2013.1/src/exe/rbdock.cxx#4 $)

>  <Rbt.Library>
libRbt.so (2013.1, Build901 2013/11/27)

>  <Rbt.Parameter_File>
/export/apps/rDock/src/rDock_2013.1_src/data/scripts/dock_solv.prm

>  <Rbt.Receptor>
prm/pocket_docking_3.prm

>  <SCORE>
-7.07389

>  <SCORE.INTER>
-5.70922

>  <SCORE.INTER.CONST>
1

>  <SCORE.INTER.POLAR>
0

>  <SCORE.INTER.ROT>
8

>  <SCORE.INTER.SOLV>
14.9109

>  <SCORE.INTER.VDW>
-17.7098

>  <SCORE.INTER.norm>
-0.163121

>  <SCORE.INTRA>
-1.50643

>  <SCORE.INTRA.DIHEDRAL>
-2.89654

>  <SCORE.INTRA.DIHEDRAL.0>
13.1227

>  <SCORE.INTRA.POLAR>
0

>  <SCORE.INTRA.POLAR.0>
0

>  <SCORE.INTRA.REPUL>
0

>  <SCORE.INTRA.REPUL.0>
0

>  <SCORE.INTRA.SOLV>
2.31888

>  <SCORE.INTRA.SOLV.lig_0>
-89.1587

>  <SCORE.INTRA.VDW>
-1.2176

>  <SCORE.INTRA.VDW.0>
-0.838383

>  <SCORE.INTRA.norm>
-0.0430409

>  <SCORE.RESTR>
0.141764

>  <SCORE.RESTR.CAVITY>
0.141764

>  <SCORE.RESTR.norm>
0.0040504

>  <SCORE.SYSTEM>
0

>  <SCORE.SYSTEM.CONST>
0

>  <SCORE.SYSTEM.DIHEDRAL>
0

>  <SCORE.SYSTEM.SOLV>
0

>  <SCORE.SYSTEM.norm>
0

>  <SCORE.heavy>
35

>  <SCORE.norm>
-0.202111

>  <RMSD>
10.171

$$$$
2o3v_lig
 OpenBabel02141814113D
libRbt.so/2013.1/901 2013/11/27
 35 37  0  0  0  0  0  0  0  0999 V2000
   -1.9315   -8.4523   46.5463 C   0  0  2  0  0  0  0  0  0  0  0  0
   -2.2538   -7.3149   45.6889 O   0  0  0  0  0  0  0  0  0  0  0  0
   -5.4646   -4.3823   45.8237 C   0  0  2  0  0  0  0  0  0  0  0  0
   -6.8114   -3.7548   45.6668 N   0  0  0  0  0  0  0  0  0  0  0  0
    5.0921   -5.1164   43.3678 C   0  0  2  0  0  0  0  0  0  0  0  0
    5.1129   -4.7955   44.7757 O   0  0  0  0  0  0  0  0  0  0  0  0
   -0.4369   -8.7441   46.2009 C   0  0  2  0  0  0  0  0  0  0  0  0
    0.4157   -7.5618   46.4683 N   0  0  0  0  0  0  0  0  0  0  0  0
   -4.8848   -4.7944   44.4026 C   0  0  0  0  0  0  0  0  0  0  0  0
    3.9426   -6.1579   43.1391 C   0  0  2  0  0  0  0  0  0  0  0  0
    2.6372   -5.6199   43.5987 N   0  0  0  0  0  0  0  0  0  0  0  0
   -0.2655   -9.1978   44.6862 C   0  0  1  0  0  0  0  0  0  0  0  0
    1.1673   -9.4275   44.3659 O   0  0  0  0  0  0  0  0  0  0  0  0
   -3.4584   -5.4692   44.5985 C   0  0  2  0  0  0  0  0  0  0  0  0
   -2.9054   -5.8712   43.2873 N   0  0  0  0  0  0  0  0  0  0  0  0
    4.2552   -7.5426   43.8600 C   0  0  1  0  0  0  0  0  0  0  0  0
    3.2227   -8.5370   43.6370 O   0  0  0  0  0  0  0  0  0  0  0  0
   -1.1959  -10.4697   44.4618 C   0  0  2  0  0  0  0  0  0  0  0  0
   -1.1273  -10.9329   43.1252 O   0  0  0  0  0  0  0  0  0  0  0  0
   -3.5851   -6.7350   45.5424 C   0  0  2  0  0  0  0  0  0  0  0  0
    5.6266   -8.0752   43.3362 C   0  0  2  0  0  0  0  0  0  0  0  0
    5.9626   -9.3028   43.9523 O   0  0  0  0  0  0  0  0  0  0  0  0
   -2.6898  -10.1356   44.8362 C   0  0  2  0  0  0  0  0  0  0  0  0
   -2.7592   -9.6487   46.2300 O   0  0  0  0  0  0  0  0  0  0  0  0
   -4.1586   -6.3241   46.9276 C   0  0  2  0  0  0  0  0  0  0  0  0
   -4.2841   -7.5374   47.7234 O   0  0  0  0  0  0  0  0  0  0  0  0
    6.7544   -6.9949   43.5817 C   0  0  2  0  0  0  0  0  0  0  0  0
    6.3862   -5.7126   42.9390 O   0  0  0  0  0  0  0  0  0  0  0  0
   -3.5986  -11.3520   44.6650 C   0  0  0  0  0  0  0  0  0  0  0  0
   -3.1652  -12.4251   45.4648 O   0  0  0  0  0  0  0  0  0  0  0  0
   -5.5447   -5.6639   46.7414 C   0  0  1  0  0  0  0  0  0  0  0  0
   -6.0401   -5.2957   48.0115 O   0  0  0  0  0  0  0  0  0  0  0  0
    8.1031   -7.4523   43.0470 C   0  0  0  0  0  0  0  0  0  0  0  0
    9.1146   -6.5530   43.4318 O   0  0  0  0  0  0  0  0  0  0  0  0
    2.0088   -8.1728   44.3575 C   0  0  0  0  0  0  0  0  0  0  0  0
  1  2  1  6  0  0  0
  1  7  1  0  0  0  0
  1 24  1  0  0  0  0
  3  4  1  6  0  0  0
  3  9  1  0  0  0  0
  3 31  1  0  0  0  0
  5  6  1  1  0  0  0
  5 10  1  0  0  0  0
  5 28  1  0  0  0  0
  7  8  1  6  0  0  0
  7 12  1  0  0  0  0
  9 14  1  0  0  0  0
 10 11  1  1  0  0  0
 10 16  1  0  0  0  0
 12 13  1  1  0  0  0
 12 18  1  0  0  0  0
 13 35  1  0  0  0  0
 14 15  1  6  0  0  0
 14 20  1  0  0  0  0
 16 17  1  6  0  0  0
 16 21  1  0  0  0  0
 17 35  1  0  0  0  0
 18 19  1  6  0  0  0
 18 23  1  0  0  0  0
 20  2  1  1  0  0  0
 20 25  1  0  0  0  0
 21 22  1  1  0  0  0
 21 27  1  0  0  0  0
 23 24  1  0  0  0  0
 23 29  1  1  0  0  0
 25 26  1  1  0  0  0
 25 31  1  0  0  0  0
 27 28  1  0  0  0  0
 27 33  1  6  0  0  0
 29 30  1  0  0  0  0
 31 32  1  1  0  0  0
 33 34  1  0  0  0  0
M  END
>  <CHROM.1>
173.88570835,-68.24136277,-162.84227945,-70.37851038,-164.95143032,176.22264768
58.63234694,-172.39032869,0.14226359,-7.50855321,44.81729963,3.12619204,0.22844492
0.04159716

>  <Name>
2o3v_lig

>  <RI>
0

>  <Rbt.Current_Directory>
/home/afrankz/demos/rdock_decoys_rna/rnas/2o3v

>  <Rbt.Executable>
rbdock ($Id: //depot/dev/client3/rdock/2013.1/src/exe/rbdock.cxx#4 $)

>  <Rbt.Library>
libRbt.so (2013.1, Build901 2013/11/27)

>  <Rbt.Parameter_File>
/export/apps/rDock/src/rDock_2013.1_src/data/scripts/dock_solv.prm

>  <Rbt.Receptor>
prm/pocket_docking_6.prm

>  <SCORE>
-10.4384

>  <SCORE.INTER>
-6.70304

>  <SCORE.INTER.CONST>
1

>  <SCORE.INTER.POLAR>
0

>  <SCORE.INTER.ROT>
8

>  <SCORE.INTER.SOLV>
12.0961

>  <SCORE.INTER.VDW>
-17.4341

>  <SCORE.INTER.norm>
-0.191515

>  <SCORE.INTRA>
-3.73541

>  <SCORE.INTRA.DIHEDRAL>
-9.33547

>  <SCORE.INTRA.DIHEDRAL.0>
13.1227

>  <SCORE.INTRA.POLAR>
0

>  <SCORE.INTRA.POLAR.0>
0

>  <SCORE.INTRA.REPUL>
0.00267855

>  <SCORE.INTRA.REPUL.0>
0

>  <SCORE.INTRA.SOLV>
0.626349

>  <SCORE.INTRA.SOLV.lig_0>
-89.1587

>  <SCORE.INTRA.VDW>
0.605755

>  <SCORE.INTRA.VDW.0>
-0.838383

>  <SCORE.INTRA.norm>
-0.106726

>  <SCORE.RESTR>
0

>  <SCORE.RESTR.CAVITY>
0

>  <SCORE.RESTR.norm>
0

>  <SCORE.SYSTEM>
0

>  <SCORE.SYSTEM.CONST>
0

>  <SCORE.SYSTEM.DIHEDRAL>
0

>  <SCORE.SYSTEM.SOLV>
0

>  <SCORE.SYSTEM.norm>
0

>  <SCORE.heavy>
35

>  <SCORE.norm>
-0.298241

>  <RMSD>
10.179

$$$$
2o3v_lig
 OpenBabel02141814113D
libRbt.so/2013.1/901 2013/11/27
 35 37  0  0  0  0  0  0  0  0999 V2000
   -1.6762   -6.8132   46.1945 C   0  0  2  0  0  0  0  0  0  0  0  0
   -2.4628   -8.0435   46.1760 O   0  0  0  0  0  0  0  0  0  0  0  0
   -5.1476   -7.7035   49.5824 C   0  0  2  0  0  0  0  0  0  0  0  0
   -6.2836   -7.9658   50.5167 N   0  0  0  0  0  0  0  0  0  0  0  0
    5.9292   -5.0546   42.9709 C   0  0  2  0  0  0  0  0  0  0  0  0
    6.1883   -4.7730   44.3634 O   0  0  0  0  0  0  0  0  0  0  0  0
   -0.5379   -7.1050   45.1661 C   0  0  2  0  0  0  0  0  0  0  0  0
   -1.0921   -7.4139   43.8268 N   0  0  0  0  0  0  0  0  0  0  0  0
   -5.7014   -7.3010   48.1483 C   0  0  0  0  0  0  0  0  0  0  0  0
    4.5633   -5.8203   42.8914 C   0  0  2  0  0  0  0  0  0  0  0  0
    3.4697   -5.0234   43.5029 N   0  0  0  0  0  0  0  0  0  0  0  0
    0.3940   -8.2995   45.6498 C   0  0  1  0  0  0  0  0  0  0  0  0
    1.4426   -8.5903   44.6377 O   0  0  0  0  0  0  0  0  0  0  0  0
   -4.4743   -7.0390   47.1715 C   0  0  2  0  0  0  0  0  0  0  0  0
   -4.9684   -6.6738   45.8265 N   0  0  0  0  0  0  0  0  0  0  0  0
    4.6547   -7.2535   43.5787 C   0  0  1  0  0  0  0  0  0  0  0  0
    3.4129   -7.9984   43.4904 O   0  0  0  0  0  0  0  0  0  0  0  0
    0.9628   -7.9090   47.0843 C   0  0  2  0  0  0  0  0  0  0  0  0
    1.7901   -8.9313   47.6100 O   0  0  0  0  0  0  0  0  0  0  0  0
   -3.5698   -8.3362   47.0810 C   0  0  2  0  0  0  0  0  0  0  0  0
    5.8056   -8.0580   42.8956 C   0  0  2  0  0  0  0  0  0  0  0  0
    5.9409   -9.3409   43.4748 O   0  0  0  0  0  0  0  0  0  0  0  0
   -0.2174   -7.6087   48.0846 C   0  0  2  0  0  0  0  0  0  0  0  0
   -1.0820   -6.5444   47.5329 O   0  0  0  0  0  0  0  0  0  0  0  0
   -3.0376   -8.7263   48.4885 C   0  0  2  0  0  0  0  0  0  0  0  0
   -2.2521   -9.9430   48.3344 O   0  0  0  0  0  0  0  0  0  0  0  0
    7.1610   -7.2501   42.9940 C   0  0  2  0  0  0  0  0  0  0  0  0
    7.0031   -5.9065   42.3918 O   0  0  0  0  0  0  0  0  0  0  0  0
    0.3024   -7.1946   49.4606 C   0  0  0  0  0  0  0  0  0  0  0  0
    1.0119   -5.9820   49.3904 O   0  0  0  0  0  0  0  0  0  0  0  0
   -4.2281   -8.9786   49.4430 C   0  0  1  0  0  0  0  0  0  0  0  0
   -3.7183   -9.3251   50.7135 O   0  0  0  0  0  0  0  0  0  0  0  0
    8.3047   -7.9762   42.3022 C   0  0  0  0  0  0  0  0  0  0  0  0
    8.7878   -9.0184   43.1148 O   0  0  0  0  0  0  0  0  0  0  0  0
    2.4424   -7.4745   44.4438 C   0  0  0  0  0  0  0  0  0  0  0  0
  1  2  1  1  0  0  0
  1  7  1  0  0  0  0
  1 24  1  0  0  0  0
  3  4  1  1  0  0  0
  3  9  1  0  0  0  0
  3 31  1  0  0  0  0
  5  6  1  1  0  0  0
  5 10  1  0  0  0  0
  5 28  1  0  0  0  0
  7  8  1  6  0  0  0
  7 12  1  0  0  0  0
  9 14  1  0  0  0  0
 10 11  1  1  0  0  0
 10 16  1  0  0  0  0
 12 13  1  6  0  0  0
 12 18  1  0  0  0  0
 13 35  1  0  0  0  0
 14 15  1  6  0  0  0
 14 20  1  0  0  0  0
 16 17  1  6  0  0  0
 16 21  1  0  0  0  0
 17 35  1  0  0  0  0
 18 19  1  1  0  0  0
 18 23  1  0  0  0  0
 20  2  1  6  0  0  0
 20 25  1  0  0  0  0
 21 22  1  1  0  0  0
 21 27  1  0  0  0  0
 23 24  1  0  0  0  0
 23 29  1  1  0  0  0
 25 26  1  6  0  0  0
 25 31  1  0  0  0  0
 27 28  1  0  0  0  0
 27 33  1  6  0  0  0
 29 30  1  0  0  0  0
 31 32  1  1  0  0  0
 33 34  1  0  0  0  0
M  END
>  <CHROM.1>
173.02665316,65.73260342,176.38864339,-75.75458481,-159.39586887,44.71541520
64.17162058,-78.17819881,0.90784251,-7.54317794,45.95726614,2.67601583,-0.17170633
2.05528834

>  <Name>
2o3v_lig

>  <RI>
0

>  <Rbt.Current_Directory>
/home/afrankz/demos/rdock_decoys_rna/rnas/2o3v

>  <Rbt.Executable>
rbdock ($Id: //depot/dev/client3/rdock/2013.1/src/exe/rbdock.cxx#4 $)

>  <Rbt.Library>
libRbt.so (2013.1, Build901 2013/11/27)

>  <Rbt.Parameter_File>
/export/apps/rDock/src/rDock_2013.1_src/data/scripts/dock_solv.prm

>  <Rbt.Receptor>
prm/pocket_docking_4.prm

>  <SCORE>
-15.4052

>  <SCORE.INTER>
-10.9656

>  <SCORE.INTER.CONST>
1

>  <SCORE.INTER.POLAR>
0

>  <SCORE.INTER.ROT>
8

>  <SCORE.INTER.SOLV>
14.557

>  <SCORE.INTER.VDW>
-21.096

>  <SCORE.INTER.norm>
-0.313302

>  <SCORE.INTRA>
-4.43962

>  <SCORE.INTRA.DIHEDRAL>
-7.30707

>  <SCORE.INTRA.DIHEDRAL.0>
13.1227

>  <SCORE.INTRA.POLAR>
0

>  <SCORE.INTRA.POLAR.0>
0

>  <SCORE.INTRA.REPUL>
0

>  <SCORE.INTRA.REPUL.0>
0

>  <SCORE.INTRA.SOLV>
0.86044

>  <SCORE.INTRA.SOLV.lig_0>
-89.1587

>  <SCORE.INTRA.VDW>
-1.2163

>  <SCORE.INTRA.VDW.0>
-0.838383

>  <SCORE.INTRA.norm>
-0.126846

>  <SCORE.RESTR>
0

>  <SCORE.RESTR.CAVITY>
0

>  <SCORE.RESTR.norm>
0

>  <SCORE.SYSTEM>
0

>  <SCORE.SYSTEM.CONST>
0

>  <SCORE.SYSTEM.DIHEDRAL>
0

>  <SCORE.SYSTEM.SOLV>
0

>  <SCORE.SYSTEM.norm>
0

>  <SCORE.heavy>
35

>  <SCORE.norm>
-0.440148

>  <RMSD>
10.186

$$$$
2o3v_lig
 OpenBabel02141814113D
libRbt.so/2013.1/901 2013/11/27
 35 37  0  0  0  0  0  0  0  0999 V2000
   -3.7253   -7.5089   44.6571 C   0  0  2  0  0  0  0  0  0  0  0  0
   -4.2589   -8.0446   45.9066 O   0  0  0  0  0  0  0  0  0  0  0  0
   -7.1770  -11.0964   46.9543 C   0  0  2  0  0  0  0  0  0  0  0  0
   -8.4824  -11.8034   47.1226 N   0  0  0  0  0  0  0  0  0  0  0  0
    4.6177   -4.1056   44.3789 C   0  0  2  0  0  0  0  0  0  0  0  0
    4.4869   -5.1035   43.3432 O   0  0  0  0  0  0  0  0  0  0  0  0
   -2.3153   -6.9812   45.0713 C   0  0  2  0  0  0  0  0  0  0  0  0
   -1.4804   -8.0684   45.6346 N   0  0  0  0  0  0  0  0  0  0  0  0
   -7.1785   -9.7414   47.7845 C   0  0  0  0  0  0  0  0  0  0  0  0
    3.5751   -4.4493   45.4983 C   0  0  2  0  0  0  0  0  0  0  0  0
    3.7926   -5.8200   46.0262 N   0  0  0  0  0  0  0  0  0  0  0  0
   -2.4224   -5.7892   46.1188 C   0  0  1  0  0  0  0  0  0  0  0  0
   -1.0708   -5.3316   46.5333 O   0  0  0  0  0  0  0  0  0  0  0  0
   -5.7847   -9.0041   47.5792 C   0  0  2  0  0  0  0  0  0  0  0  0
   -5.7693   -7.7333   48.3352 N   0  0  0  0  0  0  0  0  0  0  0  0
    2.0800   -4.2885   44.9751 C   0  0  1  0  0  0  0  0  0  0  0  0
    1.0933   -4.5683   46.0012 O   0  0  0  0  0  0  0  0  0  0  0  0
   -3.3212   -4.6538   45.4579 C   0  0  2  0  0  0  0  0  0  0  0  0
   -3.4940   -3.5541   46.3335 O   0  0  0  0  0  0  0  0  0  0  0  0
   -5.5461   -8.7196   46.0393 C   0  0  2  0  0  0  0  0  0  0  0  0
    1.8949   -2.8316   44.4443 C   0  0  2  0  0  0  0  0  0  0  0  0
    0.5832   -2.6330   43.9548 O   0  0  0  0  0  0  0  0  0  0  0  0
   -4.7268   -5.2325   45.0421 C   0  0  2  0  0  0  0  0  0  0  0  0
   -4.5447   -6.3824   44.1315 O   0  0  0  0  0  0  0  0  0  0  0  0
   -5.5524  -10.0493   45.2341 C   0  0  2  0  0  0  0  0  0  0  0  0
   -5.3687   -9.7083   43.8302 O   0  0  0  0  0  0  0  0  0  0  0  0
    2.9665   -2.5255   43.3231 C   0  0  2  0  0  0  0  0  0  0  0  0
    4.3344   -2.7455   43.8460 O   0  0  0  0  0  0  0  0  0  0  0  0
   -5.5965   -4.1707   44.3705 C   0  0  0  0  0  0  0  0  0  0  0  0
   -4.9882   -3.6838   43.1993 O   0  0  0  0  0  0  0  0  0  0  0  0
   -6.9053  -10.7716   45.4339 C   0  0  1  0  0  0  0  0  0  0  0  0
   -6.8829  -11.9767   44.6981 O   0  0  0  0  0  0  0  0  0  0  0  0
    2.8532   -1.0997   42.8052 C   0  0  0  0  0  0  0  0  0  0  0  0
    2.9908   -0.1810   43.8621 O   0  0  0  0  0  0  0  0  0  0  0  0
   -0.1957   -4.8708   45.3912 C   0  0  0  0  0  0  0  0  0  0  0  0
  1  2  1  1  0  0  0
  1  7  1  0  0  0  0
  1 24  1  0  0  0  0
  3  4  1  6  0  0  0
  3  9  1  0  0  0  0
  3 31  1  0  0  0  0
  5  6  1  6  0  0  0
  5 10  1  0  0  0  0
  5 28  1  0  0  0  0
  7  8  1  1  0  0  0
  7 12  1  0  0  0  0
  9 14  1  0  0  0  0
 10 11  1  6  0  0  0
 10 16  1  0  0  0  0
 12 13  1  6  0  0  0
 12 18  1  0  0  0  0
 13 35  1  0  0  0  0
 14 15  1  1  0  0  0
 14 20  1  0  0  0  0
 16 17  1  1  0  0  0
 16 21  1  0  0  0  0
 17 35  1  0  0  0  0
 18 19  1  1  0  0  0
 18 23  1  0  0  0  0
 20  2  1  1  0  0  0
 20 25  1  0  0  0  0
 21 22  1  6  0  0  0
 21 27  1  0  0  0  0
 23 24  1  0  0  0  0
 23 29  1  6  0  0  0
 25 26  1  6  0  0  0
 25 31  1  0  0  0  0
 27 28  1  0  0  0  0
 27 33  1  1  0  0  0
 29 30  1  0  0  0  0
 31 32  1  6  0  0  0
 33 34  1  0  0  0  0
M  END
>  <CHROM.1>
-176.96048901,57.92691853,-175.86733429,-160.01550630,172.16282086,-174.48592588
60.58776592,57.29208768,-2.01058853,-6.09833554,45.20557868,2.51304907,-0.01410861
2.89249799

>  <Name>
2o3v_lig

>  <RI>
0

>  <Rbt.Current_Directory>
/home/afrankz/demos/rdock_decoys_rna/rnas/2o3v

>  <Rbt.Executable>
rbdock ($Id: //depot/dev/client3/rdock/2013.1/src/exe/rbdock.cxx#4 $)

>  <Rbt.Library>
libRbt.so (2013.1, Build901 2013/11/27)

>  <Rbt.Parameter_File>
/export/apps/rDock/src/rDock_2013.1_src/data/scripts/dock_solv.prm

>  <Rbt.Receptor>
prm/pocket_docking_6.prm

>  <SCORE>
-12.7577

>  <SCORE.INTER>
-6.75627

>  <SCORE.INTER.CONST>
1

>  <SCORE.INTER.POLAR>
-0.959166

>  <SCORE.INTER.ROT>
8

>  <SCORE.INTER.SOLV>
6.68639

>  <SCORE.INTER.VDW>
-12.4691

>  <SCORE.INTER.norm>
-0.193036

>  <SCORE.INTRA>
-6.00139

>  <SCORE.INTRA.DIHEDRAL>
-10.6516

>  <SCORE.INTRA.DIHEDRAL.0>
13.1227

>  <SCORE.INTRA.POLAR>
0

>  <SCORE.INTRA.POLAR.0>
0

>  <SCORE.INTRA.REPUL>
0

>  <SCORE.INTRA.REPUL.0>
0

>  <SCORE.INTRA.SOLV>
-0.573656

>  <SCORE.INTRA.SOLV.lig_0>
-89.1587

>  <SCORE.INTRA.VDW>
-0.388774

>  <SCORE.INTRA.VDW.0>
-0.838383

>  <SCORE.INTRA.norm>
-0.171468

>  <SCORE.RESTR>
0

>  <SCORE.RESTR.CAVITY>
0

>  <SCORE.RESTR.norm>
0

>  <SCORE.SYSTEM>
0

>  <SCORE.SYSTEM.CONST>
0

>  <SCORE.SYSTEM.DIHEDRAL>
0

>  <SCORE.SYSTEM.SOLV>
0

>  <SCORE.SYSTEM.norm>
0

>  <SCORE.heavy>
35

>  <SCORE.norm>
-0.364505

>  <RMSD>
10.239

$$$$
2o3v_lig
 OpenBabel02141814113D
libRbt.so/2013.1/901 2013/11/27
 35 37  0  0  0  0  0  0  0  0999 V2000
    1.8650   -0.8297   42.8554 C   0  0  2  0  0  0  0  0  0  0  0  0
    1.0787   -1.4390   41.7862 O   0  0  0  0  0  0  0  0  0  0  0  0
   -2.8975   -2.1756   43.3907 C   0  0  2  0  0  0  0  0  0  0  0  0
   -4.3784   -2.3595   43.4653 N   0  0  0  0  0  0  0  0  0  0  0  0
    7.3009   -8.3223   41.5667 C   0  0  2  0  0  0  0  0  0  0  0  0
    8.6242   -8.4093   42.1383 O   0  0  0  0  0  0  0  0  0  0  0  0
    3.3315   -1.2112   42.4783 C   0  0  2  0  0  0  0  0  0  0  0  0
    3.6903   -0.6975   41.1353 N   0  0  0  0  0  0  0  0  0  0  0  0
   -2.5538   -0.7095   42.8829 C   0  0  0  0  0  0  0  0  0  0  0  0
    6.9021   -6.8063   41.5310 C   0  0  2  0  0  0  0  0  0  0  0  0
    7.8888   -6.0142   40.7539 N   0  0  0  0  0  0  0  0  0  0  0  0
    3.5568   -2.7848   42.5288 C   0  0  1  0  0  0  0  0  0  0  0  0
    4.9445   -3.1296   42.1241 O   0  0  0  0  0  0  0  0  0  0  0  0
   -0.9745   -0.5442   42.8014 C   0  0  2  0  0  0  0  0  0  0  0  0
   -0.6327    0.8112   42.3192 N   0  0  0  0  0  0  0  0  0  0  0  0
    6.7441   -6.2078   42.9978 C   0  0  1  0  0  0  0  0  0  0  0  0
    6.3426   -4.8137   42.9948 O   0  0  0  0  0  0  0  0  0  0  0  0
    3.1629   -3.2756   43.9908 C   0  0  2  0  0  0  0  0  0  0  0  0
    3.3092   -4.6780   44.1239 O   0  0  0  0  0  0  0  0  0  0  0  0
   -0.3672   -1.6340   41.8252 C   0  0  2  0  0  0  0  0  0  0  0  0
    5.6894   -7.0619   43.7704 C   0  0  2  0  0  0  0  0  0  0  0  0
    5.5147   -6.5811   45.0886 O   0  0  0  0  0  0  0  0  0  0  0  0
    1.6831   -2.8570   44.3353 C   0  0  2  0  0  0  0  0  0  0  0  0
    1.5311   -1.3938   44.1922 O   0  0  0  0  0  0  0  0  0  0  0  0
   -0.7133   -3.0644   42.3257 C   0  0  2  0  0  0  0  0  0  0  0  0
   -0.1605   -4.0074   41.3633 O   0  0  0  0  0  0  0  0  0  0  0  0
    6.1267   -8.5811   43.7786 C   0  0  2  0  0  0  0  0  0  0  0  0
    6.3143   -9.0692   42.3932 O   0  0  0  0  0  0  0  0  0  0  0  0
    1.2918   -3.2842   45.7492 C   0  0  0  0  0  0  0  0  0  0  0  0
    2.1204   -2.6763   46.7099 O   0  0  0  0  0  0  0  0  0  0  0  0
   -2.2489   -3.2284   42.4099 C   0  0  1  0  0  0  0  0  0  0  0  0
   -2.5358   -4.5318   42.8715 O   0  0  0  0  0  0  0  0  0  0  0  0
    5.1056   -9.4607   44.4840 C   0  0  0  0  0  0  0  0  0  0  0  0
    5.6748  -10.7038   44.8167 O   0  0  0  0  0  0  0  0  0  0  0  0
    5.2259   -4.6132   42.0793 C   0  0  0  0  0  0  0  0  0  0  0  0
  1  2  1  6  0  0  0
  1  7  1  0  0  0  0
  1 24  1  0  0  0  0
  3  4  1  6  0  0  0
  3  9  1  0  0  0  0
  3 31  1  0  0  0  0
  5  6  1  1  0  0  0
  5 10  1  0  0  0  0
  5 28  1  0  0  0  0
  7  8  1  6  0  0  0
  7 12  1  0  0  0  0
  9 14  1  0  0  0  0
 10 11  1  1  0  0  0
 10 16  1  0  0  0  0
 12 13  1  1  0  0  0
 12 18  1  0  0  0  0
 13 35  1  0  0  0  0
 14 15  1  6  0  0  0
 14 20  1  0  0  0  0
 16 17  1  6  0  0  0
 16 21  1  0  0  0  0
 17 35  1  0  0  0  0
 18 19  1  6  0  0  0
 18 23  1  0  0  0  0
 20  2  1  1  0  0  0
 20 25  1  0  0  0  0
 21 22  1  1  0  0  0
 21 27  1  0  0  0  0
 23 24  1  0  0  0  0
 23 29  1  1  0  0  0
 25 26  1  6  0  0  0
 25 31  1  0  0  0  0
 27 28  1  0  0  0  0
 27 33  1  6  0  0  0
 29 30  1  0  0  0  0
 31 32  1  1  0  0  0
 33 34  1  0  0  0  0
M  END
>  <CHROM.1>
165.48569310,-177.18675521,-122.23706001,47.51629929,-177.72139453,25.76170887
60.89527335,-163.08920541,2.82965598,-4.23443724,43.05294054,-2.50659461
-0.22504843,2.84141583

>  <Name>
2o3v_lig

>  <RI>
0

>  <Rbt.Current_Directory>
/home/afrankz/demos/rdock_decoys_rna/rnas/2o3v

>  <Rbt.Executable>
rbdock ($Id: //depot/dev/client3/rdock/2013.1/src/exe/rbdock.cxx#4 $)

>  <Rbt.Library>
libRbt.so (2013.1, Build901 2013/11/27)

>  <Rbt.Parameter_File>
/export/apps/rDock/src/rDock_2013.1_src/data/scripts/dock_solv.prm

>  <Rbt.Receptor>
prm/blind_docking_60.prm

>  <SCORE>
6.04901

>  <SCORE.INTER>
0.250869

>  <SCORE.INTER.CONST>
1

>  <SCORE.INTER.POLAR>
-0.767451

>  <SCORE.INTER.ROT>
8

>  <SCORE.INTER.SOLV>
25.087

>  <SCORE.INTER.VDW>
-14.5703

>  <SCORE.INTER.norm>
0.00716768

>  <SCORE.INTRA>
1.30725

>  <SCORE.INTRA.DIHEDRAL>
1.26502

>  <SCORE.INTRA.DIHEDRAL.0>
13.1227

>  <SCORE.INTRA.POLAR>
0

>  <SCORE.INTRA.POLAR.0>
0

>  <SCORE.INTRA.REPUL>
0

>  <SCORE.INTRA.REPUL.0>
0

>  <SCORE.INTRA.SOLV>
1.07693

>  <SCORE.INTRA.SOLV.lig_0>
-89.1587

>  <SCORE.INTRA.VDW>
0.136274

>  <SCORE.INTRA.VDW.0>
-0.838383

>  <SCORE.INTRA.norm>
0.0373499

>  <SCORE.RESTR>
4.4909

>  <SCORE.RESTR.CAVITY>
4.4909

>  <SCORE.RESTR.norm>
0.128311

>  <SCORE.SYSTEM>
0

>  <SCORE.SYSTEM.CONST>
0

>  <SCORE.SYSTEM.DIHEDRAL>
0

>  <SCORE.SYSTEM.SOLV>
0

>  <SCORE.SYSTEM.norm>
0

>  <SCORE.heavy>
35

>  <SCORE.norm>
0.172829

>  <RMSD>
10.240

$$$$
2o3v_lig
 OpenBabel02141814113D
libRbt.so/2013.1/901 2013/11/27
 35 37  0  0  0  0  0  0  0  0999 V2000
    0.4709   -8.9825   46.6733 C   0  0  2  0  0  0  0  0  0  0  0  0
   -0.3732   -9.9090   45.9236 O   0  0  0  0  0  0  0  0  0  0  0  0
   -4.5663  -11.0595   46.0695 C   0  0  2  0  0  0  0  0  0  0  0  0
   -5.8503  -11.6596   46.5421 N   0  0  0  0  0  0  0  0  0  0  0  0
    8.4899   -6.5840   43.4379 C   0  0  2  0  0  0  0  0  0  0  0  0
    8.2052   -5.5231   42.5004 O   0  0  0  0  0  0  0  0  0  0  0  0
    1.0735   -8.0706   45.5581 C   0  0  2  0  0  0  0  0  0  0  0  0
    0.0062   -7.3855   44.7913 N   0  0  0  0  0  0  0  0  0  0  0  0
   -3.4839  -12.1993   45.8353 C   0  0  0  0  0  0  0  0  0  0  0  0
    7.2721   -7.5714   43.4158 C   0  0  2  0  0  0  0  0  0  0  0  0
    7.0371   -8.0968   42.0470 N   0  0  0  0  0  0  0  0  0  0  0  0
    2.0010   -8.8976   44.5655 C   0  0  1  0  0  0  0  0  0  0  0  0
    2.5282   -8.0215   43.4871 O   0  0  0  0  0  0  0  0  0  0  0  0
   -2.1256  -11.5339   45.3447 C   0  0  2  0  0  0  0  0  0  0  0  0
   -1.1000  -12.5775   45.1317 N   0  0  0  0  0  0  0  0  0  0  0  0
    5.9509   -6.8842   43.9791 C   0  0  1  0  0  0  0  0  0  0  0  0
    4.8150   -7.7863   44.0013 O   0  0  0  0  0  0  0  0  0  0  0  0
    3.1271   -9.6026   45.4420 C   0  0  2  0  0  0  0  0  0  0  0  0
    3.9923  -10.3872   44.6409 O   0  0  0  0  0  0  0  0  0  0  0  0
   -1.6172  -10.4883   46.4206 C   0  0  2  0  0  0  0  0  0  0  0  0
    6.2412   -6.3610   45.4215 C   0  0  2  0  0  0  0  0  0  0  0  0
    5.1016   -5.7288   45.9705 O   0  0  0  0  0  0  0  0  0  0  0  0
    2.4759  -10.4993   46.5626 C   0  0  2  0  0  0  0  0  0  0  0  0
    1.5704   -9.6801   47.3952 O   0  0  0  0  0  0  0  0  0  0  0  0
   -2.6841   -9.3809   46.6479 C   0  0  2  0  0  0  0  0  0  0  0  0
   -2.1679   -8.4836   47.6724 O   0  0  0  0  0  0  0  0  0  0  0  0
    7.4763   -5.3745   45.3994 C   0  0  2  0  0  0  0  0  0  0  0  0
    8.6596   -6.0459   44.8147 O   0  0  0  0  0  0  0  0  0  0  0  0
    3.5365  -11.1590   47.4428 C   0  0  0  0  0  0  0  0  0  0  0  0
    2.9457  -11.9911   48.4110 O   0  0  0  0  0  0  0  0  0  0  0  0
   -4.0083  -10.0242   47.1220 C   0  0  1  0  0  0  0  0  0  0  0  0
   -4.9604   -8.9994   47.3154 O   0  0  0  0  0  0  0  0  0  0  0  0
    7.8248   -4.8718   46.7922 C   0  0  0  0  0  0  0  0  0  0  0  0
    8.1491   -5.9497   47.6364 O   0  0  0  0  0  0  0  0  0  0  0  0
    3.5700   -7.0297   43.9490 C   0  0  0  0  0  0  0  0  0  0  0  0
  1  2  1  6  0  0  0
  1  7  1  0  0  0  0
  1 24  1  0  0  0  0
  3  4  1  1  0  0  0
  3  9  1  0  0  0  0
  3 31  1  0  0  0  0
  5  6  1  6  0  0  0
  5 10  1  0  0  0  0
  5 28  1  0  0  0  0
  7  8  1  6  0  0  0
  7 12  1  0  0  0  0
  9 14  1  0  0  0  0
 10 11  1  6  0  0  0
 10 16  1  0  0  0  0
 12 13  1  6  0  0  0
 12 18  1  0  0  0  0
 13 35  1  0  0  0  0
 14 15  1  1  0  0  0
 14 20  1  0  0  0  0
 16 17  1  1  0  0  0
 16 21  1  0  0  0  0
 17 35  1  0  0  0  0
 18 19  1  6  0  0  0
 18 23  1  0  0  0  0
 20  2  1  6  0  0  0
 20 25  1  0  0  0  0
 21 22  1  6  0  0  0
 21 27  1  0  0  0  0
 23 24  1  0  0  0  0
 23 29  1  1  0  0  0
 25 26  1  1  0  0  0
 25 31  1  0  0  0  0
 27 28  1  0  0  0  0
 27 33  1  1  0  0  0
 29 30  1  0  0  0  0
 31 32  1  6  0  0  0
 33 34  1  0  0  0  0
M  END
>  <CHROM.1>
-147.43509536,71.21059818,81.17254058,-155.32220073,160.42347432,-174.68732699
-178.05743099,59.89156341,2.32747415,-8.68327959,45.56817130,2.74803018,-0.14657446
3.05320047

>  <Name>
2o3v_lig

>  <RI>
0

>  <Rbt.Current_Directory>
/home/afrankz/demos/rdock_decoys_rna/rnas/2o3v

>  <Rbt.Executable>
rbdock ($Id: //depot/dev/client3/rdock/2013.1/src/exe/rbdock.cxx#4 $)

>  <Rbt.Library>
libRbt.so (2013.1, Build901 2013/11/27)

>  <Rbt.Parameter_File>
/export/apps/rDock/src/rDock_2013.1_src/data/scripts/dock_solv.prm

>  <Rbt.Receptor>
prm/pocket_docking_5.prm

>  <SCORE>
-1.88152

>  <SCORE.INTER>
-0.00135424

>  <SCORE.INTER.CONST>
1

>  <SCORE.INTER.POLAR>
0

>  <SCORE.INTER.ROT>
8

>  <SCORE.INTER.SOLV>
12.4066

>  <SCORE.INTER.VDW>
-13.0698

>  <SCORE.INTER.norm>
-3.86926e-05

>  <SCORE.INTRA>
-1.88017

>  <SCORE.INTRA.DIHEDRAL>
-1.91928

>  <SCORE.INTRA.DIHEDRAL.0>
13.1227

>  <SCORE.INTRA.POLAR>
0

>  <SCORE.INTRA.POLAR.0>
0

>  <SCORE.INTRA.REPUL>
0

>  <SCORE.INTRA.REPUL.0>
0

>  <SCORE.INTRA.SOLV>
0.211643

>  <SCORE.INTRA.SOLV.lig_0>
-89.1587

>  <SCORE.INTRA.VDW>
-1.02635

>  <SCORE.INTRA.VDW.0>
-0.838383

>  <SCORE.INTRA.norm>
-0.0537191

>  <SCORE.RESTR>
0

>  <SCORE.RESTR.CAVITY>
0

>  <SCORE.RESTR.norm>
0

>  <SCORE.SYSTEM>
0

>  <SCORE.SYSTEM.CONST>
0

>  <SCORE.SYSTEM.DIHEDRAL>
0

>  <SCORE.SYSTEM.SOLV>
0

>  <SCORE.SYSTEM.norm>
0

>  <SCORE.heavy>
35

>  <SCORE.norm>
-0.0537578

>  <RMSD>
10.262

$$$$
2o3v_lig
 OpenBabel02141814113D
libRbt.so/2013.1/901 2013/11/27
 35 37  0  0  0  0  0  0  0  0999 V2000
   -3.3918   -8.1405   45.5156 C   0  0  2  0  0  0  0  0  0  0  0  0
   -4.0649   -8.1834   46.8109 O   0  0  0  0  0  0  0  0  0  0  0  0
   -7.3535  -10.4743   48.5034 C   0  0  2  0  0  0  0  0  0  0  0  0
   -8.7343  -10.9832   48.7614 N   0  0  0  0  0  0  0  0  0  0  0  0
    4.8836   -4.4401   44.4657 C   0  0  2  0  0  0  0  0  0  0  0  0
    4.6923   -5.3927   43.3973 O   0  0  0  0  0  0  0  0  0  0  0  0
   -1.9961   -7.5316   45.8616 C   0  0  2  0  0  0  0  0  0  0  0  0
   -1.2794   -8.3652   46.8556 N   0  0  0  0  0  0  0  0  0  0  0  0
   -7.2723   -8.9222   48.8349 C   0  0  0  0  0  0  0  0  0  0  0  0
    3.8653   -4.7975   45.6031 C   0  0  2  0  0  0  0  0  0  0  0  0
    4.0581   -6.1934   46.0714 N   0  0  0  0  0  0  0  0  0  0  0  0
   -2.1270   -6.0425   46.4046 C   0  0  1  0  0  0  0  0  0  0  0  0
   -0.7935   -5.4977   46.7696 O   0  0  0  0  0  0  0  0  0  0  0  0
   -5.7980   -8.4040   48.5412 C   0  0  2  0  0  0  0  0  0  0  0  0
   -5.7037   -6.9573   48.8326 N   0  0  0  0  0  0  0  0  0  0  0  0
    2.3606   -4.5742   45.1332 C   0  0  1  0  0  0  0  0  0  0  0  0
    1.3973   -4.8658   46.1781 O   0  0  0  0  0  0  0  0  0  0  0  0
   -2.8957   -5.1973   45.2963 C   0  0  2  0  0  0  0  0  0  0  0  0
   -3.0820   -3.8542   45.7051 O   0  0  0  0  0  0  0  0  0  0  0  0
   -5.4218   -8.6758   47.0267 C   0  0  2  0  0  0  0  0  0  0  0  0
    2.2027   -3.0931   44.6644 C   0  0  2  0  0  0  0  0  0  0  0  0
    0.8833   -2.8384   44.2239 O   0  0  0  0  0  0  0  0  0  0  0  0
   -4.2899   -5.8545   44.9672 C   0  0  2  0  0  0  0  0  0  0  0  0
   -4.0942   -7.2572   44.5445 O   0  0  0  0  0  0  0  0  0  0  0  0
   -5.5098  -10.1950   46.7096 C   0  0  2  0  0  0  0  0  0  0  0  0
   -5.1919  -10.3637   45.2984 O   0  0  0  0  0  0  0  0  0  0  0  0
    3.2487   -2.7739   43.5228 C   0  0  2  0  0  0  0  0  0  0  0  0
    4.6246   -3.0528   43.9941 O   0  0  0  0  0  0  0  0  0  0  0  0
   -5.0330   -5.0825   43.8778 C   0  0  0  0  0  0  0  0  0  0  0  0
   -4.3118   -5.0893   42.6701 O   0  0  0  0  0  0  0  0  0  0  0  0
   -6.9416  -10.7041   46.9973 C   0  0  1  0  0  0  0  0  0  0  0  0
   -6.9930  -12.0852   46.7070 O   0  0  0  0  0  0  0  0  0  0  0  0
    3.1620   -1.3264   43.0634 C   0  0  0  0  0  0  0  0  0  0  0  0
    1.9143   -1.0756   42.4631 O   0  0  0  0  0  0  0  0  0  0  0  0
    0.1234   -5.2642   45.5919 C   0  0  0  0  0  0  0  0  0  0  0  0
  1  2  1  1  0  0  0
  1  7  1  0  0  0  0
  1 24  1  0  0  0  0
  3  4  1  6  0  0  0
  3  9  1  0  0  0  0
  3 31  1  0  0  0  0
  5  6  1  6  0  0  0
  5 10  1  0  0  0  0
  5 28  1  0  0  0  0
  7  8  1  1  0  0  0
  7 12  1  0  0  0  0
  9 14  1  0  0  0  0
 10 11  1  6  0  0  0
 10 16  1  0  0  0  0
 12 13  1  6  0  0  0
 12 18  1  0  0  0  0
 13 35  1  0  0  0  0
 14 15  1  6  0  0  0
 14 20  1  0  0  0  0
 16 17  1  1  0  0  0
 16 21  1  0  0  0  0
 17 35  1  0  0  0  0
 18 19  1  1  0  0  0
 18 23  1  0  0  0  0
 20  2  1  1  0  0  0
 20 25  1  0  0  0  0
 21 22  1  6  0  0  0
 21 27  1  0  0  0  0
 23 24  1  0  0  0  0
 23 29  1  6  0  0  0
 25 26  1  6  0  0  0
 25 31  1  0  0  0  0
 27 28  1  0  0  0  0
 27 33  1  1  0  0  0
 29 30  1  0  0  0  0
 31 32  1  1  0  0  0
 33 34  1  0  0  0  0
M  END
>  <CHROM.1>
179.78392853,68.25062392,-174.48055618,-153.22574023,-178.39384757,-174.33521205
62.16347429,-64.62989090,-1.82177555,-6.34853978,45.66433354,-2.52172615
-0.05565633,-0.54468309

>  <Name>
2o3v_lig

>  <RI>
0

>  <Rbt.Current_Directory>
/home/afrankz/demos/rdock_decoys_rna/rnas/2o3v

>  <Rbt.Executable>
rbdock ($Id: //depot/dev/client3/rdock/2013.1/src/exe/rbdock.cxx#4 $)

>  <Rbt.Library>
libRbt.so (2013.1, Build901 2013/11/27)

>  <Rbt.Parameter_File>
/export/apps/rDock/src/rDock_2013.1_src/data/scripts/dock_solv.prm

>  <Rbt.Receptor>
prm/pocket_docking_5.prm

>  <SCORE>
-11.8844

>  <SCORE.INTER>
-5.97584

>  <SCORE.INTER.CONST>
1

>  <SCORE.INTER.POLAR>
-0.959166

>  <SCORE.INTER.ROT>
8

>  <SCORE.INTER.SOLV>
6.03779

>  <SCORE.INTER.VDW>
-11.7326

>  <SCORE.INTER.norm>
-0.170738

>  <SCORE.INTRA>
-5.90852

>  <SCORE.INTRA.DIHEDRAL>
-9.33864

>  <SCORE.INTRA.DIHEDRAL.0>
13.1227

>  <SCORE.INTRA.POLAR>
0

>  <SCORE.INTRA.POLAR.0>
0

>  <SCORE.INTRA.REPUL>
0

>  <SCORE.INTRA.REPUL.0>
0

>  <SCORE.INTRA.SOLV>
-0.668721

>  <SCORE.INTRA.SOLV.lig_0>
-89.1587

>  <SCORE.INTRA.VDW>
-0.904836

>  <SCORE.INTRA.VDW.0>
-0.838383

>  <SCORE.INTRA.norm>
-0.168815

>  <SCORE.RESTR>
0

>  <SCORE.RESTR.CAVITY>
0

>  <SCORE.RESTR.norm>
0

>  <SCORE.SYSTEM>
0

>  <SCORE.SYSTEM.CONST>
0

>  <SCORE.SYSTEM.DIHEDRAL>
0

>  <SCORE.SYSTEM.SOLV>
0

>  <SCORE.SYSTEM.norm>
0

>  <SCORE.heavy>
35

>  <SCORE.norm>
-0.339553

>  <RMSD>
10.268

$$$$
2o3v_lig
 OpenBabel02141814113D
libRbt.so/2013.1/901 2013/11/27
 35 37  0  0  0  0  0  0  0  0999 V2000
   -1.8686   -6.8320   45.8897 C   0  0  2  0  0  0  0  0  0  0  0  0
   -3.0029   -6.6233   44.9939 O   0  0  0  0  0  0  0  0  0  0  0  0
   -6.4955   -7.4945   47.4372 C   0  0  2  0  0  0  0  0  0  0  0  0
   -7.9183   -7.6986   47.8449 N   0  0  0  0  0  0  0  0  0  0  0  0
    6.7333   -4.9849   43.1653 C   0  0  2  0  0  0  0  0  0  0  0  0
    6.6446   -4.4159   44.4897 O   0  0  0  0  0  0  0  0  0  0  0  0
   -0.6610   -6.2823   45.0663 C   0  0  2  0  0  0  0  0  0  0  0  0
   -0.8592   -4.8573   44.7107 N   0  0  0  0  0  0  0  0  0  0  0  0
   -6.2762   -5.9980   46.9495 C   0  0  0  0  0  0  0  0  0  0  0  0
    5.2944   -4.9569   42.5433 C   0  0  2  0  0  0  0  0  0  0  0  0
    4.7548   -3.5738   42.5114 N   0  0  0  0  0  0  0  0  0  0  0  0
   -0.4173   -7.1359   43.7466 C   0  0  1  0  0  0  0  0  0  0  0  0
    0.7066   -6.5703   42.9558 O   0  0  0  0  0  0  0  0  0  0  0  0
   -4.7593   -5.8109   46.5110 C   0  0  2  0  0  0  0  0  0  0  0  0
   -4.5361   -4.4264   46.0421 N   0  0  0  0  0  0  0  0  0  0  0  0
    4.2990   -5.9213   43.3268 C   0  0  1  0  0  0  0  0  0  0  0  0
    2.9672   -5.9404   42.7517 O   0  0  0  0  0  0  0  0  0  0  0  0
   -0.2052   -8.6496   44.1908 C   0  0  2  0  0  0  0  0  0  0  0  0
   -0.0039   -9.4948   43.0724 O   0  0  0  0  0  0  0  0  0  0  0  0
   -4.4001   -6.8362   45.3581 C   0  0  2  0  0  0  0  0  0  0  0  0
    4.8996   -7.3628   43.3221 C   0  0  2  0  0  0  0  0  0  0  0  0
    4.0599   -8.2644   44.0160 O   0  0  0  0  0  0  0  0  0  0  0  0
   -1.4382   -9.1579   45.0305 C   0  0  2  0  0  0  0  0  0  0  0  0
   -1.6493   -8.2726   46.1950 O   0  0  0  0  0  0  0  0  0  0  0  0
   -4.6233   -8.2966   45.8414 C   0  0  2  0  0  0  0  0  0  0  0  0
   -4.3135   -9.1768   44.7232 O   0  0  0  0  0  0  0  0  0  0  0  0
    6.3494   -7.3453   43.9521 C   0  0  2  0  0  0  0  0  0  0  0  0
    7.2155   -6.3915   43.2220 O   0  0  0  0  0  0  0  0  0  0  0  0
   -1.2431  -10.5984   45.5015 C   0  0  0  0  0  0  0  0  0  0  0  0
   -0.0946  -10.7178   46.3048 O   0  0  0  0  0  0  0  0  0  0  0  0
   -6.0971   -8.4821   46.2724 C   0  0  1  0  0  0  0  0  0  0  0  0
   -6.2716   -9.8129   46.7114 O   0  0  0  0  0  0  0  0  0  0  0  0
    6.9937   -8.7232   43.9292 C   0  0  0  0  0  0  0  0  0  0  0  0
    6.3268   -9.5918   44.8128 O   0  0  0  0  0  0  0  0  0  0  0  0
    2.0121   -6.4816   43.7108 C   0  0  0  0  0  0  0  0  0  0  0  0
  1  2  1  6  0  0  0
  1  7  1  0  0  0  0
  1 24  1  0  0  0  0
  3  4  1  6  0  0  0
  3  9  1  0  0  0  0
  3 31  1  0  0  0  0
  5  6  1  1  0  0  0
  5 10  1  0  0  0  0
  5 28  1  0  0  0  0
  7  8  1  6  0  0  0
  7 12  1  0  0  0  0
  9 14  1  0  0  0  0
 10 11  1  1  0  0  0
 10 16  1  0  0  0  0
 12 13  1  1  0  0  0
 12 18  1  0  0  0  0
 13 35  1  0  0  0  0
 14 15  1  6  0  0  0
 14 20  1  0  0  0  0
 16 17  1  6  0  0  0
 16 21  1  0  0  0  0
 17 35  1  0  0  0  0
 18 19  1  6  0  0  0
 18 23  1  0  0  0  0
 20  2  1  1  0  0  0
 20 25  1  0  0  0  0
 21 22  1  1  0  0  0
 21 27  1  0  0  0  0
 23 24  1  0  0  0  0
 23 29  1  1  0  0  0
 25 26  1  6  0  0  0
 25 31  1  0  0  0  0
 27 28  1  0  0  0  0
 27 33  1  6  0  0  0
 29 30  1  0  0  0  0
 31 32  1  1  0  0  0
 33 34  1  0  0  0  0
M  END
>  <CHROM.1>
-172.71643539,57.49014737,178.61880416,-162.35267748,-174.80425848,63.35415356
59.51758954,-68.33171534,0.11651421,-7.27344748,44.76217349,2.99876458,-0.23746327
3.00253949

>  <Name>
2o3v_lig

>  <RI>
0

>  <Rbt.Current_Directory>
/home/afrankz/demos/rdock_decoys_rna/rnas/2o3v

>  <Rbt.Executable>
rbdock ($Id: //depot/dev/client3/rdock/2013.1/src/exe/rbdock.cxx#4 $)

>  <Rbt.Library>
libRbt.so (2013.1, Build901 2013/11/27)

>  <Rbt.Parameter_File>
/export/apps/rDock/src/rDock_2013.1_src/data/scripts/dock_solv.prm

>  <Rbt.Receptor>
prm/pocket_docking_3.prm

>  <SCORE>
-15.9019

>  <SCORE.INTER>
-10.574

>  <SCORE.INTER.CONST>
1

>  <SCORE.INTER.POLAR>
-1.48768

>  <SCORE.INTER.ROT>
8

>  <SCORE.INTER.SOLV>
13.5569

>  <SCORE.INTER.VDW>
-15.5427

>  <SCORE.INTER.norm>
-0.302114

>  <SCORE.INTRA>
-5.52168

>  <SCORE.INTRA.DIHEDRAL>
-10.9162

>  <SCORE.INTRA.DIHEDRAL.0>
13.1227

>  <SCORE.INTRA.POLAR>
0

>  <SCORE.INTRA.POLAR.0>
0

>  <SCORE.INTRA.REPUL>
0

>  <SCORE.INTRA.REPUL.0>
0

>  <SCORE.INTRA.SOLV>
0.851317

>  <SCORE.INTRA.SOLV.lig_0>
-89.1587

>  <SCORE.INTRA.VDW>
-0.48922

>  <SCORE.INTRA.VDW.0>
-0.838383

>  <SCORE.INTRA.norm>
-0.157762

>  <SCORE.RESTR>
0.193777

>  <SCORE.RESTR.CAVITY>
0.193777

>  <SCORE.RESTR.norm>
0.00553649

>  <SCORE.SYSTEM>
0

>  <SCORE.SYSTEM.CONST>
0

>  <SCORE.SYSTEM.DIHEDRAL>
0

>  <SCORE.SYSTEM.SOLV>
0

>  <SCORE.SYSTEM.norm>
0

>  <SCORE.heavy>
35

>  <SCORE.norm>
-0.45434

>  <RMSD>
10.269

$$$$
2o3v_lig
 OpenBabel02141814113D
libRbt.so/2013.1/901 2013/11/27
 35 37  0  0  0  0  0  0  0  0999 V2000
   -0.2817   -6.5750   46.2983 C   0  0  2  0  0  0  0  0  0  0  0  0
   -1.3758   -5.8161   45.6985 O   0  0  0  0  0  0  0  0  0  0  0  0
   -5.6352   -5.2965   46.4161 C   0  0  2  0  0  0  0  0  0  0  0  0
   -6.9220   -4.9638   47.0985 N   0  0  0  0  0  0  0  0  0  0  0  0
    7.2682   -8.1571   44.1779 C   0  0  2  0  0  0  0  0  0  0  0  0
    8.1755   -8.0023   43.0650 O   0  0  0  0  0  0  0  0  0  0  0  0
    0.9498   -6.1688   45.4283 C   0  0  2  0  0  0  0  0  0  0  0  0
    1.1748   -4.7046   45.4685 N   0  0  0  0  0  0  0  0  0  0  0  0
   -4.8754   -6.4434   47.2116 C   0  0  0  0  0  0  0  0  0  0  0  0
    5.8155   -7.9203   43.6375 C   0  0  2  0  0  0  0  0  0  0  0  0
    5.4972   -8.8624   42.5347 N   0  0  0  0  0  0  0  0  0  0  0  0
    0.7816   -6.6448   43.9201 C   0  0  1  0  0  0  0  0  0  0  0  0
    1.9422   -6.2103   43.1000 O   0  0  0  0  0  0  0  0  0  0  0  0
   -3.5061   -6.7700   46.4721 C   0  0  2  0  0  0  0  0  0  0  0  0
   -2.7769   -7.8281   47.2035 N   0  0  0  0  0  0  0  0  0  0  0  0
    5.6071   -6.4164   43.1582 C   0  0  1  0  0  0  0  0  0  0  0  0
    4.2602   -6.1603   42.6838 O   0  0  0  0  0  0  0  0  0  0  0  0
    0.5506   -8.2195   43.9405 C   0  0  2  0  0  0  0  0  0  0  0  0
    0.3648   -8.7333   42.6339 O   0  0  0  0  0  0  0  0  0  0  0  0
   -2.6156   -5.4630   46.3828 C   0  0  2  0  0  0  0  0  0  0  0  0
    5.9390   -5.4656   44.3516 C   0  0  2  0  0  0  0  0  0  0  0  0
    5.7810   -4.1106   43.9796 O   0  0  0  0  0  0  0  0  0  0  0  0
   -0.6903   -8.5853   44.8406 C   0  0  2  0  0  0  0  0  0  0  0  0
   -0.4967   -8.0451   46.2027 O   0  0  0  0  0  0  0  0  0  0  0  0
   -3.3686   -4.3448   45.6089 C   0  0  2  0  0  0  0  0  0  0  0  0
   -2.5108   -3.1678   45.6016 O   0  0  0  0  0  0  0  0  0  0  0  0
    7.4078   -5.7400   44.8679 C   0  0  2  0  0  0  0  0  0  0  0  0
    7.5620   -7.1635   45.2458 O   0  0  0  0  0  0  0  0  0  0  0  0
   -0.9117  -10.0957   44.9073 C   0  0  0  0  0  0  0  0  0  0  0  0
   -2.0470  -10.4080   45.6770 O   0  0  0  0  0  0  0  0  0  0  0  0
   -4.7031   -4.0263   46.3230 C   0  0  1  0  0  0  0  0  0  0  0  0
   -5.3687   -3.0136   45.5981 O   0  0  0  0  0  0  0  0  0  0  0  0
    7.7615   -4.8654   46.0612 C   0  0  0  0  0  0  0  0  0  0  0  0
    9.0718   -5.1359   46.4970 O   0  0  0  0  0  0  0  0  0  0  0  0
    3.2858   -6.5799   43.6835 C   0  0  0  0  0  0  0  0  0  0  0  0
  1  2  1  6  0  0  0
  1  7  1  0  0  0  0
  1 24  1  0  0  0  0
  3  4  1  1  0  0  0
  3  9  1  0  0  0  0
  3 31  1  0  0  0  0
  5  6  1  6  0  0  0
  5 10  1  0  0  0  0
  5 28  1  0  0  0  0
  7  8  1  6  0  0  0
  7 12  1  0  0  0  0
  9 14  1  0  0  0  0
 10 11  1  6  0  0  0
 10 16  1  0  0  0  0
 12 13  1  6  0  0  0
 12 18  1  0  0  0  0
 13 35  1  0  0  0  0
 14 15  1  1  0  0  0
 14 20  1  0  0  0  0
 16 17  1  1  0  0  0
 16 21  1  0  0  0  0
 17 35  1  0  0  0  0
 18 19  1  6  0  0  0
 18 23  1  0  0  0  0
 20  2  1  6  0  0  0
 20 25  1  0  0  0  0
 21 22  1  6  0  0  0
 21 27  1  0  0  0  0
 23 24  1  0  0  0  0
 23 29  1  1  0  0  0
 25 26  1  1  0  0  0
 25 31  1  0  0  0  0
 27 28  1  0  0  0  0
 27 33  1  1  0  0  0
 29 30  1  0  0  0  0
 31 32  1  6  0  0  0
 33 34  1  0  0  0  0
M  END
>  <CHROM.1>
-157.39412682,51.43835150,175.67249531,52.69173822,177.69484684,-74.89647983
-178.07024484,179.88134269,1.22767632,-6.45617223,45.00978186,-3.02118837
-0.15223156,-2.88380205

>  <Name>
2o3v_lig

>  <RI>
0

>  <Rbt.Current_Directory>
/home/afrankz/demos/rdock_decoys_rna/rnas/2o3v

>  <Rbt.Executable>
rbdock ($Id: //depot/dev/client3/rdock/2013.1/src/exe/rbdock.cxx#4 $)

>  <Rbt.Library>
libRbt.so (2013.1, Build901 2013/11/27)

>  <Rbt.Parameter_File>
/export/apps/rDock/src/rDock_2013.1_src/data/scripts/dock_solv.prm

>  <Rbt.Receptor>
prm/pocket_docking_6.prm

>  <SCORE>
-12.7569

>  <SCORE.INTER>
-10.6578

>  <SCORE.INTER.CONST>
1

>  <SCORE.INTER.POLAR>
-0.88563

>  <SCORE.INTER.ROT>
8

>  <SCORE.INTER.SOLV>
17.0152

>  <SCORE.INTER.VDW>
-18.7581

>  <SCORE.INTER.norm>
-0.304507

>  <SCORE.INTRA>
-2.09919

>  <SCORE.INTRA.DIHEDRAL>
-9.05177

>  <SCORE.INTRA.DIHEDRAL.0>
13.1227

>  <SCORE.INTRA.POLAR>
0

>  <SCORE.INTRA.POLAR.0>
0

>  <SCORE.INTRA.REPUL>
0

>  <SCORE.INTRA.REPUL.0>
0

>  <SCORE.INTRA.SOLV>
3.26242

>  <SCORE.INTRA.SOLV.lig_0>
-89.1587

>  <SCORE.INTRA.VDW>
0.795485

>  <SCORE.INTRA.VDW.0>
-0.838383

>  <SCORE.INTRA.norm>
-0.0599768

>  <SCORE.RESTR>
0

>  <SCORE.RESTR.CAVITY>
0

>  <SCORE.RESTR.norm>
0

>  <SCORE.SYSTEM>
0

>  <SCORE.SYSTEM.CONST>
0

>  <SCORE.SYSTEM.DIHEDRAL>
0

>  <SCORE.SYSTEM.SOLV>
0

>  <SCORE.SYSTEM.norm>
0

>  <SCORE.heavy>
35

>  <SCORE.norm>
-0.364484

>  <RMSD>
10.274

$$$$
2o3v_lig
 OpenBabel02141814113D
libRbt.so/2013.1/901 2013/11/27
 35 37  0  0  0  0  0  0  0  0999 V2000
   -1.6712   -7.8959   44.3069 C   0  0  2  0  0  0  0  0  0  0  0  0
   -1.4681   -8.4739   45.6326 O   0  0  0  0  0  0  0  0  0  0  0  0
   -4.1943   -9.6855   48.7991 C   0  0  2  0  0  0  0  0  0  0  0  0
   -5.1487   -9.6105   49.9462 N   0  0  0  0  0  0  0  0  0  0  0  0
    8.3562   -8.2765   43.4712 C   0  0  2  0  0  0  0  0  0  0  0  0
    8.4687   -7.0103   44.1565 O   0  0  0  0  0  0  0  0  0  0  0  0
   -0.4009   -8.3535   43.5224 C   0  0  2  0  0  0  0  0  0  0  0  0
   -0.2912   -9.8312   43.4955 N   0  0  0  0  0  0  0  0  0  0  0  0
   -2.7911   -9.0659   49.2143 C   0  0  0  0  0  0  0  0  0  0  0  0
    6.9624   -8.3015   42.7537 C   0  0  2  0  0  0  0  0  0  0  0  0
    6.8244   -7.1569   41.8179 N   0  0  0  0  0  0  0  0  0  0  0  0
    0.9241   -7.7280   44.1409 C   0  0  1  0  0  0  0  0  0  0  0  0
    2.1238   -8.2105   43.4085 O   0  0  0  0  0  0  0  0  0  0  0  0
   -1.7991   -9.1472   47.9742 C   0  0  2  0  0  0  0  0  0  0  0  0
   -0.4892   -8.5646   48.3362 N   0  0  0  0  0  0  0  0  0  0  0  0
    5.7642   -8.3067   43.8021 C   0  0  1  0  0  0  0  0  0  0  0  0
    4.4618   -8.3634   43.1655 O   0  0  0  0  0  0  0  0  0  0  0  0
    0.7505   -6.1458   44.1374 C   0  0  2  0  0  0  0  0  0  0  0  0
    1.8796   -5.4991   44.6968 O   0  0  0  0  0  0  0  0  0  0  0  0
   -2.4139   -8.3689   46.7391 C   0  0  2  0  0  0  0  0  0  0  0  0
    5.9436   -9.5322   44.7532 C   0  0  2  0  0  0  0  0  0  0  0  0
    4.9095   -9.5823   45.7164 O   0  0  0  0  0  0  0  0  0  0  0  0
   -0.5493   -5.7298   44.9255 C   0  0  2  0  0  0  0  0  0  0  0  0
   -1.7260   -6.4085   44.3430 O   0  0  0  0  0  0  0  0  0  0  0  0
   -3.7886   -8.9772   46.3437 C   0  0  2  0  0  0  0  0  0  0  0  0
   -4.3092   -8.1905   45.2341 O   0  0  0  0  0  0  0  0  0  0  0  0
    7.3606   -9.4706   45.4513 C   0  0  2  0  0  0  0  0  0  0  0  0
    8.4332   -9.4101   44.4321 O   0  0  0  0  0  0  0  0  0  0  0  0
   -0.7596   -4.2165   44.9056 C   0  0  0  0  0  0  0  0  0  0  0  0
   -1.9336   -3.8589   45.5932 O   0  0  0  0  0  0  0  0  0  0  0  0
   -4.7557   -8.9034   47.5484 C   0  0  1  0  0  0  0  0  0  0  0  0
   -5.9928   -9.4663   47.1653 O   0  0  0  0  0  0  0  0  0  0  0  0
    7.5989  -10.6699   46.3563 C   0  0  0  0  0  0  0  0  0  0  0  0
    7.5360  -11.8644   45.6153 O   0  0  0  0  0  0  0  0  0  0  0  0
    3.4357   -7.8639   44.0726 C   0  0  0  0  0  0  0  0  0  0  0  0
  1  2  1  1  0  0  0
  1  7  1  0  0  0  0
  1 24  1  0  0  0  0
  3  4  1  1  0  0  0
  3  9  1  0  0  0  0
  3 31  1  0  0  0  0
  5  6  1  1  0  0  0
  5 10  1  0  0  0  0
  5 28  1  0  0  0  0
  7  8  1  1  0  0  0
  7 12  1  0  0  0  0
  9 14  1  0  0  0  0
 10 11  1  6  0  0  0
 10 16  1  0  0  0  0
 12 13  1  6  0  0  0
 12 18  1  0  0  0  0
 13 35  1  0  0  0  0
 14 15  1  1  0  0  0
 14 20  1  0  0  0  0
 16 17  1  6  0  0  0
 16 21  1  0  0  0  0
 17 35  1  0  0  0  0
 18 19  1  1  0  0  0
 18 23  1  0  0  0  0
 20  2  1  6  0  0  0
 20 25  1  0  0  0  0
 21 22  1  1  0  0  0
 21 27  1  0  0  0  0
 23 24  1  0  0  0  0
 23 29  1  6  0  0  0
 25 26  1  6  0  0  0
 25 31  1  0  0  0  0
 27 28  1  0  0  0  0
 27 33  1  6  0  0  0
 29 30  1  0  0  0  0
 31 32  1  6  0  0  0
 33 34  1  0  0  0  0
M  END
>  <CHROM.1>
-177.85964139,-169.81339272,-177.18265650,-158.41686665,-169.75789324,179.49721447
179.04223966,59.94449031,1.38221896,-8.22011334,45.29732183,3.01779026,-0.23105169
2.44645834

>  <Name>
2o3v_lig

>  <RI>
0

>  <Rbt.Current_Directory>
/home/afrankz/demos/rdock_decoys_rna/rnas/2o3v

>  <Rbt.Executable>
rbdock ($Id: //depot/dev/client3/rdock/2013.1/src/exe/rbdock.cxx#4 $)

>  <Rbt.Library>
libRbt.so (2013.1, Build901 2013/11/27)

>  <Rbt.Parameter_File>
/export/apps/rDock/src/rDock_2013.1_src/data/scripts/dock_solv.prm

>  <Rbt.Receptor>
prm/pocket_docking_4.prm

>  <SCORE>
-12.3678

>  <SCORE.INTER>
-6.00817

>  <SCORE.INTER.CONST>
1

>  <SCORE.INTER.POLAR>
0

>  <SCORE.INTER.ROT>
8

>  <SCORE.INTER.SOLV>
17.6353

>  <SCORE.INTER.VDW>
-18.8172

>  <SCORE.INTER.norm>
-0.171662

>  <SCORE.INTRA>
-6.35963

>  <SCORE.INTRA.DIHEDRAL>
-9.93907

>  <SCORE.INTRA.DIHEDRAL.0>
13.1227

>  <SCORE.INTRA.POLAR>
0

>  <SCORE.INTRA.POLAR.0>
0

>  <SCORE.INTRA.REPUL>
0

>  <SCORE.INTRA.REPUL.0>
0

>  <SCORE.INTRA.SOLV>
-1.46622

>  <SCORE.INTRA.SOLV.lig_0>
-89.1587

>  <SCORE.INTRA.VDW>
-0.656982

>  <SCORE.INTRA.VDW.0>
-0.838383

>  <SCORE.INTRA.norm>
-0.181704

>  <SCORE.RESTR>
0

>  <SCORE.RESTR.CAVITY>
0

>  <SCORE.RESTR.norm>
0

>  <SCORE.SYSTEM>
0

>  <SCORE.SYSTEM.CONST>
0

>  <SCORE.SYSTEM.DIHEDRAL>
0

>  <SCORE.SYSTEM.SOLV>
0

>  <SCORE.SYSTEM.norm>
0

>  <SCORE.heavy>
35

>  <SCORE.norm>
-0.353366

>  <RMSD>
10.289

$$$$
2o3v_lig
 OpenBabel02141814113D
libRbt.so/2013.1/901 2013/11/27
 35 37  0  0  0  0  0  0  0  0999 V2000
   -3.2466   -7.7175   45.3514 C   0  0  2  0  0  0  0  0  0  0  0  0
   -2.9910   -8.1469   46.7237 O   0  0  0  0  0  0  0  0  0  0  0  0
   -5.3115   -7.6533   50.3705 C   0  0  2  0  0  0  0  0  0  0  0  0
   -6.3681   -7.8467   51.4089 N   0  0  0  0  0  0  0  0  0  0  0  0
    5.0166   -4.8469   42.9187 C   0  0  2  0  0  0  0  0  0  0  0  0
    5.3633   -4.4811   44.2721 O   0  0  0  0  0  0  0  0  0  0  0  0
   -1.9964   -8.2429   44.5772 C   0  0  2  0  0  0  0  0  0  0  0  0
   -1.8657   -9.7135   44.7054 N   0  0  0  0  0  0  0  0  0  0  0  0
   -5.9717   -7.2069   48.9956 C   0  0  0  0  0  0  0  0  0  0  0  0
    3.7149   -5.7184   42.9852 C   0  0  2  0  0  0  0  0  0  0  0  0
    2.6133   -4.9803   43.6536 N   0  0  0  0  0  0  0  0  0  0  0  0
   -0.6609   -7.5396   45.0788 C   0  0  1  0  0  0  0  0  0  0  0  0
    0.5208   -8.0848   44.3614 O   0  0  0  0  0  0  0  0  0  0  0  0
   -4.8286   -7.0195   47.9063 C   0  0  2  0  0  0  0  0  0  0  0  0
   -5.4234   -6.6147   46.6145 N   0  0  0  0  0  0  0  0  0  0  0  0
    3.9766   -7.1065   43.7198 C   0  0  1  0  0  0  0  0  0  0  0  0
    2.7958   -7.9481   43.7661 O   0  0  0  0  0  0  0  0  0  0  0  0
   -0.8580   -5.9690   44.9114 C   0  0  2  0  0  0  0  0  0  0  0  0
    0.2793   -5.2532   45.3588 O   0  0  0  0  0  0  0  0  0  0  0  0
   -4.0236   -8.3724   47.7302 C   0  0  2  0  0  0  0  0  0  0  0  0
    5.1299   -7.8511   42.9754 C   0  0  2  0  0  0  0  0  0  0  0  0
    5.4143   -9.0911   43.5926 O   0  0  0  0  0  0  0  0  0  0  0  0
   -2.1369   -5.4850   45.6948 C   0  0  2  0  0  0  0  0  0  0  0  0
   -3.3221   -6.2356   45.2295 O   0  0  0  0  0  0  0  0  0  0  0  0
   -3.3866   -8.8048   49.0806 C   0  0  2  0  0  0  0  0  0  0  0  0
   -2.7006  -10.0691   48.8526 O   0  0  0  0  0  0  0  0  0  0  0  0
    6.4192   -6.9375   42.9271 C   0  0  2  0  0  0  0  0  0  0  0  0
    6.1055   -5.6397   42.2865 O   0  0  0  0  0  0  0  0  0  0  0  0
   -2.3703   -3.9851   45.5197 C   0  0  0  0  0  0  0  0  0  0  0  0
   -3.4799   -3.5539   46.2692 O   0  0  0  0  0  0  0  0  0  0  0  0
   -4.4949   -8.9848   50.1443 C   0  0  1  0  0  0  0  0  0  0  0  0
   -3.8903   -9.3715   51.3605 O   0  0  0  0  0  0  0  0  0  0  0  0
    7.5584   -7.6049   42.1716 C   0  0  0  0  0  0  0  0  0  0  0  0
    8.0884   -8.6700   42.9230 O   0  0  0  0  0  0  0  0  0  0  0  0
    1.8232   -7.4001   44.7036 C   0  0  0  0  0  0  0  0  0  0  0  0
  1  2  1  1  0  0  0
  1  7  1  0  0  0  0
  1 24  1  0  0  0  0
  3  4  1  1  0  0  0
  3  9  1  0  0  0  0
  3 31  1  0  0  0  0
  5  6  1  1  0  0  0
  5 10  1  0  0  0  0
  5 28  1  0  0  0  0
  7  8  1  1  0  0  0
  7 12  1  0  0  0  0
  9 14  1  0  0  0  0
 10 11  1  1  0  0  0
 10 16  1  0  0  0  0
 12 13  1  6  0  0  0
 12 18  1  0  0  0  0
 13 35  1  0  0  0  0
 14 15  1  6  0  0  0
 14 20  1  0  0  0  0
 16 17  1  6  0  0  0
 16 21  1  0  0  0  0
 17 35  1  0  0  0  0
 18 19  1  1  0  0  0
 18 23  1  0  0  0  0
 20  2  1  6  0  0  0
 20 25  1  0  0  0  0
 21 22  1  1  0  0  0
 21 27  1  0  0  0  0
 23 24  1  0  0  0  0
 23 29  1  6  0  0  0
 25 26  1  6  0  0  0
 25 31  1  0  0  0  0
 27 28  1  0  0  0  0
 27 33  1  6  0  0  0
 29 30  1  0  0  0  0
 31 32  1  1  0  0  0
 33 34  1  0  0  0  0
M  END
>  <CHROM.1>
-155.28841460,175.71923858,-172.14046832,-71.51757448,163.23834329,-58.51398932
-177.45374605,-71.46170174,-0.06453465,-7.14799556,45.67455148,2.82790788
-0.41146778,2.61490592

>  <Name>
2o3v_lig

>  <RI>
0

>  <Rbt.Current_Directory>
/home/afrankz/demos/rdock_decoys_rna/rnas/2o3v

>  <Rbt.Executable>
rbdock ($Id: //depot/dev/client3/rdock/2013.1/src/exe/rbdock.cxx#4 $)

>  <Rbt.Library>
libRbt.so (2013.1, Build901 2013/11/27)

>  <Rbt.Parameter_File>
/export/apps/rDock/src/rDock_2013.1_src/data/scripts/dock_solv.prm

>  <Rbt.Receptor>
prm/pocket_docking_5.prm

>  <SCORE>
-11.5554

>  <SCORE.INTER>
-10.6263

>  <SCORE.INTER.CONST>
1

>  <SCORE.INTER.POLAR>
0

>  <SCORE.INTER.ROT>
8

>  <SCORE.INTER.SOLV>
10.9414

>  <SCORE.INTER.VDW>
-19.6647

>  <SCORE.INTER.norm>
-0.303608

>  <SCORE.INTRA>
-0.92914

>  <SCORE.INTRA.DIHEDRAL>
-7.65553

>  <SCORE.INTRA.DIHEDRAL.0>
13.1227

>  <SCORE.INTRA.POLAR>
0

>  <SCORE.INTRA.POLAR.0>
0

>  <SCORE.INTRA.REPUL>
0.0134951

>  <SCORE.INTRA.REPUL.0>
0

>  <SCORE.INTRA.SOLV>
4.33759

>  <SCORE.INTRA.SOLV.lig_0>
-89.1587

>  <SCORE.INTRA.VDW>
0.662353

>  <SCORE.INTRA.VDW.0>
-0.838383

>  <SCORE.INTRA.norm>
-0.0265468

>  <SCORE.RESTR>
0

>  <SCORE.RESTR.CAVITY>
0

>  <SCORE.RESTR.norm>
0

>  <SCORE.SYSTEM>
0

>  <SCORE.SYSTEM.CONST>
0

>  <SCORE.SYSTEM.DIHEDRAL>
0

>  <SCORE.SYSTEM.SOLV>
0

>  <SCORE.SYSTEM.norm>
0

>  <SCORE.heavy>
35

>  <SCORE.norm>
-0.330155

>  <RMSD>
10.303

$$$$
2o3v_lig
 OpenBabel02141814113D
libRbt.so/2013.1/901 2013/11/27
 35 37  0  0  0  0  0  0  0  0999 V2000
    2.6646   -7.0934   43.8056 C   0  0  2  0  0  0  0  0  0  0  0  0
    2.4129   -6.8379   45.2213 O   0  0  0  0  0  0  0  0  0  0  0  0
   -1.9141   -6.4946   45.5149 C   0  0  2  0  0  0  0  0  0  0  0  0
   -3.2843   -6.3674   46.0968 N   0  0  0  0  0  0  0  0  0  0  0  0
   10.4018   -5.3708   48.1926 C   0  0  2  0  0  0  0  0  0  0  0  0
   10.2119   -3.9491   48.3610 O   0  0  0  0  0  0  0  0  0  0  0  0
    4.2194   -7.2227   43.7399 C   0  0  2  0  0  0  0  0  0  0  0  0
    4.7039   -8.3146   44.6171 N   0  0  0  0  0  0  0  0  0  0  0  0
   -1.2340   -7.8434   46.0082 C   0  0  0  0  0  0  0  0  0  0  0  0
    9.4579   -5.8376   47.0309 C   0  0  2  0  0  0  0  0  0  0  0  0
    9.7461   -5.0932   45.7788 N   0  0  0  0  0  0  0  0  0  0  0  0
    4.9359   -5.8589   44.1351 C   0  0  1  0  0  0  0  0  0  0  0  0
    6.4135   -6.0155   44.1094 O   0  0  0  0  0  0  0  0  0  0  0  0
    0.2251   -7.9484   45.3849 C   0  0  2  0  0  0  0  0  0  0  0  0
    0.8809   -9.1927   45.8413 N   0  0  0  0  0  0  0  0  0  0  0  0
    7.9232   -5.6833   47.4256 C   0  0  1  0  0  0  0  0  0  0  0  0
    7.0265   -6.1396   46.3805 O   0  0  0  0  0  0  0  0  0  0  0  0
    4.3828   -4.7300   43.1588 C   0  0  2  0  0  0  0  0  0  0  0  0
    4.9501   -3.4661   43.4534 O   0  0  0  0  0  0  0  0  0  0  0  0
    1.0885   -6.6927   45.8172 C   0  0  2  0  0  0  0  0  0  0  0  0
    7.6652   -6.4919   48.7364 C   0  0  2  0  0  0  0  0  0  0  0  0
    6.3152   -6.3824   49.1424 O   0  0  0  0  0  0  0  0  0  0  0  0
    2.8115   -4.6443   43.2456 C   0  0  2  0  0  0  0  0  0  0  0  0
    2.2212   -5.9648   42.9418 O   0  0  0  0  0  0  0  0  0  0  0  0
    0.4131   -5.3779   45.3363 C   0  0  2  0  0  0  0  0  0  0  0  0
    1.2368   -4.2705   45.8015 O   0  0  0  0  0  0  0  0  0  0  0  0
    8.6386   -5.9938   49.8782 C   0  0  2  0  0  0  0  0  0  0  0  0
   10.0478   -6.1058   49.4371 O   0  0  0  0  0  0  0  0  0  0  0  0
    2.2514   -3.5924   42.2894 C   0  0  0  0  0  0  0  0  0  0  0  0
    2.6586   -2.2990   42.6638 O   0  0  0  0  0  0  0  0  0  0  0  0
   -1.0081   -5.2733   45.9374 C   0  0  1  0  0  0  0  0  0  0  0  0
   -1.6006   -4.0753   45.4814 O   0  0  0  0  0  0  0  0  0  0  0  0
    8.4538   -6.7839   51.1648 C   0  0  0  0  0  0  0  0  0  0  0  0
    7.1686   -6.5660   51.6946 O   0  0  0  0  0  0  0  0  0  0  0  0
    7.1340   -5.2751   45.2117 C   0  0  0  0  0  0  0  0  0  0  0  0
  1  2  1  1  0  0  0
  1  7  1  0  0  0  0
  1 24  1  0  0  0  0
  3  4  1  1  0  0  0
  3  9  1  0  0  0  0
  3 31  1  0  0  0  0
  5  6  1  1  0  0  0
  5 10  1  0  0  0  0
  5 28  1  0  0  0  0
  7  8  1  1  0  0  0
  7 12  1  0  0  0  0
  9 14  1  0  0  0  0
 10 11  1  6  0  0  0
 10 16  1  0  0  0  0
 12 13  1  6  0  0  0
 12 18  1  0  0  0  0
 13 35  1  0  0  0  0
 14 15  1  1  0  0  0
 14 20  1  0  0  0  0
 16 17  1  6  0  0  0
 16 21  1  0  0  0  0
 17 35  1  0  0  0  0
 18 19  1  1  0  0  0
 18 23  1  0  0  0  0
 20  2  1  6  0  0  0
 20 25  1  0  0  0  0
 21 22  1  1  0  0  0
 21 27  1  0  0  0  0
 23 24  1  0  0  0  0
 23 29  1  6  0  0  0
 25 26  1  1  0  0  0
 25 31  1  0  0  0  0
 27 28  1  0  0  0  0
 27 33  1  1  0  0  0
 29 30  1  0  0  0  0
 31 32  1  6  0  0  0
 33 34  1  0  0  0  0
M  END
>  <CHROM.1>
-177.41401300,-141.91272711,81.45591852,-66.43173330,167.54544183,51.94591190
-65.70955991,-64.70500861,4.31020725,-5.82568379,45.98897242,-2.78936736
0.17350163,1.98167822

>  <Name>
2o3v_lig

>  <RI>
0

>  <Rbt.Current_Directory>
/home/afrankz/demos/rdock_decoys_rna/rnas/2o3v

>  <Rbt.Executable>
rbdock ($Id: //depot/dev/client3/rdock/2013.1/src/exe/rbdock.cxx#4 $)

>  <Rbt.Library>
libRbt.so (2013.1, Build901 2013/11/27)

>  <Rbt.Parameter_File>
/export/apps/rDock/src/rDock_2013.1_src/data/scripts/dock_solv.prm

>  <Rbt.Receptor>
prm/pocket_docking_8.prm

>  <SCORE>
-15.3784

>  <SCORE.INTER>
-13.2466

>  <SCORE.INTER.CONST>
1

>  <SCORE.INTER.POLAR>
-2.61016

>  <SCORE.INTER.ROT>
8

>  <SCORE.INTER.SOLV>
12.2973

>  <SCORE.INTER.VDW>
-13.163

>  <SCORE.INTER.norm>
-0.378475

>  <SCORE.INTRA>
-2.13176

>  <SCORE.INTRA.DIHEDRAL>
-4.4801

>  <SCORE.INTRA.DIHEDRAL.0>
13.1227

>  <SCORE.INTRA.POLAR>
0

>  <SCORE.INTRA.POLAR.0>
0

>  <SCORE.INTRA.REPUL>
0

>  <SCORE.INTRA.REPUL.0>
0

>  <SCORE.INTRA.SOLV>
1.93252

>  <SCORE.INTRA.SOLV.lig_0>
-89.1587

>  <SCORE.INTRA.VDW>
-0.857969

>  <SCORE.INTRA.VDW.0>
-0.838383

>  <SCORE.INTRA.norm>
-0.0609075

>  <SCORE.RESTR>
0

>  <SCORE.RESTR.CAVITY>
0

>  <SCORE.RESTR.norm>
0

>  <SCORE.SYSTEM>
0

>  <SCORE.SYSTEM.CONST>
0

>  <SCORE.SYSTEM.DIHEDRAL>
0

>  <SCORE.SYSTEM.SOLV>
0

>  <SCORE.SYSTEM.norm>
0

>  <SCORE.heavy>
35

>  <SCORE.norm>
-0.439382

>  <RMSD>
10.305

$$$$
2o3v_lig
 OpenBabel02141814113D
libRbt.so/2013.1/901 2013/11/27
 35 37  0  0  0  0  0  0  0  0999 V2000
   -0.7173   -8.5981   48.7041 C   0  0  2  0  0  0  0  0  0  0  0  0
   -1.7627   -9.0725   47.8013 O   0  0  0  0  0  0  0  0  0  0  0  0
   -5.9422  -10.2049   48.2211 C   0  0  2  0  0  0  0  0  0  0  0  0
   -7.1664  -10.9658   48.6142 N   0  0  0  0  0  0  0  0  0  0  0  0
    5.4823   -5.0531   43.5841 C   0  0  2  0  0  0  0  0  0  0  0  0
    5.6837   -5.0172   45.0137 O   0  0  0  0  0  0  0  0  0  0  0  0
    0.2202   -7.7792   47.7613 C   0  0  2  0  0  0  0  0  0  0  0  0
   -0.5155   -6.6747   47.1015 N   0  0  0  0  0  0  0  0  0  0  0  0
   -5.0098  -11.1066   47.3029 C   0  0  0  0  0  0  0  0  0  0  0  0
    4.0208   -5.5591   43.3269 C   0  0  2  0  0  0  0  0  0  0  0  0
    3.0279   -4.6832   43.9991 N   0  0  0  0  0  0  0  0  0  0  0  0
    0.8960   -8.7069   46.6604 C   0  0  1  0  0  0  0  0  0  0  0  0
    1.7484   -7.9021   45.7471 O   0  0  0  0  0  0  0  0  0  0  0  0
   -3.7107  -10.2786   46.9087 C   0  0  2  0  0  0  0  0  0  0  0  0
   -2.8228  -11.1045   46.0626 N   0  0  0  0  0  0  0  0  0  0  0  0
    3.8331   -7.0692   43.7951 C   0  0  1  0  0  0  0  0  0  0  0  0
    2.4977   -7.5746   43.5380 O   0  0  0  0  0  0  0  0  0  0  0  0
    1.6736   -9.8656   47.4261 C   0  0  2  0  0  0  0  0  0  0  0  0
    2.2914  -10.7620   46.5202 O   0  0  0  0  0  0  0  0  0  0  0  0
   -2.9418   -9.8253   48.2174 C   0  0  2  0  0  0  0  0  0  0  0  0
    4.8863   -7.9522   43.0535 C   0  0  2  0  0  0  0  0  0  0  0  0
    4.7735   -9.3078   43.4395 O   0  0  0  0  0  0  0  0  0  0  0  0
    0.6947  -10.6552   48.3759 C   0  0  2  0  0  0  0  0  0  0  0  0
    0.0478   -9.7179   49.3181 O   0  0  0  0  0  0  0  0  0  0  0  0
   -3.8628   -8.9493   49.1123 C   0  0  2  0  0  0  0  0  0  0  0  0
   -3.1068   -8.6051   50.3085 O   0  0  0  0  0  0  0  0  0  0  0  0
    6.3428   -7.4059   43.3353 C   0  0  2  0  0  0  0  0  0  0  0  0
    6.4446   -5.9840   42.9346 O   0  0  0  0  0  0  0  0  0  0  0  0
    1.4247  -11.7506   49.1518 C   0  0  0  0  0  0  0  0  0  0  0  0
    1.9281  -12.7368   48.2841 O   0  0  0  0  0  0  0  0  0  0  0  0
   -5.1296   -9.7497   49.4952 C   0  0  1  0  0  0  0  0  0  0  0  0
   -5.9502   -8.9311   50.3018 O   0  0  0  0  0  0  0  0  0  0  0  0
    7.4021   -8.2099   42.5966 C   0  0  0  0  0  0  0  0  0  0  0  0
    8.6865   -7.7143   42.8878 O   0  0  0  0  0  0  0  0  0  0  0  0
    2.1660   -8.6279   44.4897 C   0  0  0  0  0  0  0  0  0  0  0  0
  1  2  1  6  0  0  0
  1  7  1  0  0  0  0
  1 24  1  0  0  0  0
  3  4  1  1  0  0  0
  3  9  1  0  0  0  0
  3 31  1  0  0  0  0
  5  6  1  1  0  0  0
  5 10  1  0  0  0  0
  5 28  1  0  0  0  0
  7  8  1  6  0  0  0
  7 12  1  0  0  0  0
  9 14  1  0  0  0  0
 10 11  1  1  0  0  0
 10 16  1  0  0  0  0
 12 13  1  1  0  0  0
 12 18  1  0  0  0  0
 13 35  1  0  0  0  0
 14 15  1  6  0  0  0
 14 20  1  0  0  0  0
 16 17  1  6  0  0  0
 16 21  1  0  0  0  0
 17 35  1  0  0  0  0
 18 19  1  6  0  0  0
 18 23  1  0  0  0  0
 20  2  1  6  0  0  0
 20 25  1  0  0  0  0
 21 22  1  1  0  0  0
 21 27  1  0  0  0  0
 23 24  1  0  0  0  0
 23 29  1  1  0  0  0
 25 26  1  1  0  0  0
 25 31  1  0  0  0  0
 27 28  1  0  0  0  0
 27 33  1  6  0  0  0
 29 30  1  0  0  0  0
 31 32  1  1  0  0  0
 33 34  1  0  0  0  0
M  END
>  <CHROM.1>
-175.88601380,-166.30678200,157.99435033,-152.91337147,80.48332760,-173.41317465
-64.33869602,-178.91628589,0.85400483,-8.69034934,46.37610501,2.70095377
-0.34908059,2.71636133

>  <Name>
2o3v_lig

>  <RI>
0

>  <Rbt.Current_Directory>
/home/afrankz/demos/rdock_decoys_rna/rnas/2o3v

>  <Rbt.Executable>
rbdock ($Id: //depot/dev/client3/rdock/2013.1/src/exe/rbdock.cxx#4 $)

>  <Rbt.Library>
libRbt.so (2013.1, Build901 2013/11/27)

>  <Rbt.Parameter_File>
/export/apps/rDock/src/rDock_2013.1_src/data/scripts/dock_solv.prm

>  <Rbt.Receptor>
prm/pocket_docking_7.prm

>  <SCORE>
-10.8839

>  <SCORE.INTER>
-6.81953

>  <SCORE.INTER.CONST>
1

>  <SCORE.INTER.POLAR>
0

>  <SCORE.INTER.ROT>
8

>  <SCORE.INTER.SOLV>
9.74777

>  <SCORE.INTER.VDW>
-16.7289

>  <SCORE.INTER.norm>
-0.194844

>  <SCORE.INTRA>
-4.06432

>  <SCORE.INTRA.DIHEDRAL>
-4.75613

>  <SCORE.INTRA.DIHEDRAL.0>
13.1227

>  <SCORE.INTRA.POLAR>
0

>  <SCORE.INTRA.POLAR.0>
0

>  <SCORE.INTRA.REPUL>
0.000512124

>  <SCORE.INTRA.REPUL.0>
0

>  <SCORE.INTRA.SOLV>
-0.903691

>  <SCORE.INTRA.SOLV.lig_0>
-89.1587

>  <SCORE.INTRA.VDW>
-1.23697

>  <SCORE.INTRA.VDW.0>
-0.838383

>  <SCORE.INTRA.norm>
-0.116123

>  <SCORE.RESTR>
0

>  <SCORE.RESTR.CAVITY>
0

>  <SCORE.RESTR.norm>
0

>  <SCORE.SYSTEM>
0

>  <SCORE.SYSTEM.CONST>
0

>  <SCORE.SYSTEM.DIHEDRAL>
0

>  <SCORE.SYSTEM.SOLV>
0

>  <SCORE.SYSTEM.norm>
0

>  <SCORE.heavy>
35

>  <SCORE.norm>
-0.310967

>  <RMSD>
10.309

$$$$
2o3v_lig
 OpenBabel02141814113D
libRbt.so/2013.1/901 2013/11/27
 35 37  0  0  0  0  0  0  0  0999 V2000
   -2.6448  -10.2512   45.9283 C   0  0  2  0  0  0  0  0  0  0  0  0
   -1.9571  -10.3440   47.2133 O   0  0  0  0  0  0  0  0  0  0  0  0
   -5.0685  -10.6493   50.2388 C   0  0  2  0  0  0  0  0  0  0  0  0
   -5.7655  -10.9743   51.5197 N   0  0  0  0  0  0  0  0  0  0  0  0
    5.8112   -6.6110   45.4289 C   0  0  2  0  0  0  0  0  0  0  0  0
    6.0328   -7.5671   46.4882 O   0  0  0  0  0  0  0  0  0  0  0  0
   -1.4702  -10.1500   44.9044 C   0  0  2  0  0  0  0  0  0  0  0  0
   -0.5769  -11.3290   44.9954 N   0  0  0  0  0  0  0  0  0  0  0  0
   -4.5798  -11.9843   49.5286 C   0  0  0  0  0  0  0  0  0  0  0  0
    4.3409   -6.8044   44.9199 C   0  0  2  0  0  0  0  0  0  0  0  0
    3.3668   -6.6320   46.0274 N   0  0  0  0  0  0  0  0  0  0  0  0
   -0.6254   -8.8190   45.1146 C   0  0  1  0  0  0  0  0  0  0  0  0
    0.5127   -8.7635   44.1606 O   0  0  0  0  0  0  0  0  0  0  0  0
   -3.8323  -11.6103   48.1760 C   0  0  2  0  0  0  0  0  0  0  0  0
   -3.3587  -12.8395   47.5041 N   0  0  0  0  0  0  0  0  0  0  0  0
    4.1436   -8.2233   44.2253 C   0  0  1  0  0  0  0  0  0  0  0  0
    2.7995   -8.4161   43.7146 O   0  0  0  0  0  0  0  0  0  0  0  0
   -1.6330   -7.5922   44.9997 C   0  0  2  0  0  0  0  0  0  0  0  0
   -0.9703   -6.3565   45.1991 O   0  0  0  0  0  0  0  0  0  0  0  0
   -2.6060  -10.6557   48.4830 C   0  0  2  0  0  0  0  0  0  0  0  0
    5.1769   -8.3530   43.0616 C   0  0  2  0  0  0  0  0  0  0  0  0
    5.0550   -9.6032   42.4122 O   0  0  0  0  0  0  0  0  0  0  0  0
   -2.8086   -7.7423   46.0385 C   0  0  2  0  0  0  0  0  0  0  0  0
   -3.4967   -9.0340   45.8318 O   0  0  0  0  0  0  0  0  0  0  0  0
   -3.0920   -9.3556   49.1829 C   0  0  2  0  0  0  0  0  0  0  0  0
   -1.9135   -8.5492   49.4690 O   0  0  0  0  0  0  0  0  0  0  0  0
    6.6429   -8.1473   43.6162 C   0  0  2  0  0  0  0  0  0  0  0  0
    6.7543   -6.8389   44.3007 O   0  0  0  0  0  0  0  0  0  0  0  0
   -3.8114   -6.5952   45.9236 C   0  0  0  0  0  0  0  0  0  0  0  0
   -4.7267   -6.6131   46.9917 O   0  0  0  0  0  0  0  0  0  0  0  0
   -3.8230   -9.7150   50.4976 C   0  0  1  0  0  0  0  0  0  0  0  0
   -4.2584   -8.5192   51.1097 O   0  0  0  0  0  0  0  0  0  0  0  0
    7.6832   -8.2216   42.5087 C   0  0  0  0  0  0  0  0  0  0  0  0
    7.4160   -7.2582   41.5186 O   0  0  0  0  0  0  0  0  0  0  0  0
    1.8636   -8.6007   44.8170 C   0  0  0  0  0  0  0  0  0  0  0  0
  1  2  1  1  0  0  0
  1  7  1  0  0  0  0
  1 24  1  0  0  0  0
  3  4  1  1  0  0  0
  3  9  1  0  0  0  0
  3 31  1  0  0  0  0
  5  6  1  1  0  0  0
  5 10  1  0  0  0  0
  5 28  1  0  0  0  0
  7  8  1  1  0  0  0
  7 12  1  0  0  0  0
  9 14  1  0  0  0  0
 10 11  1  1  0  0  0
 10 16  1  0  0  0  0
 12 13  1  6  0  0  0
 12 18  1  0  0  0  0
 13 35  1  0  0  0  0
 14 15  1  1  0  0  0
 14 20  1  0  0  0  0
 16 17  1  6  0  0  0
 16 21  1  0  0  0  0
 17 35  1  0  0  0  0
 18 19  1  1  0  0  0
 18 23  1  0  0  0  0
 20  2  1  6  0  0  0
 20 25  1  0  0  0  0
 21 22  1  1  0  0  0
 21 27  1  0  0  0  0
 23 24  1  0  0  0  0
 23 29  1  6  0  0  0
 25 26  1  1  0  0  0
 25 31  1  0  0  0  0
 27 28  1  0  0  0  0
 27 33  1  6  0  0  0
 29 30  1  0  0  0  0
 31 32  1  6  0  0  0
 33 34  1  0  0  0  0
M  END
>  <CHROM.1>
-170.48627286,-124.05232657,-173.66880998,-71.73999915,178.99083793,31.14877838
-170.09606482,57.77153409,0.17634094,-8.81205934,46.14577001,2.62335147,0.06751562
1.85034877

>  <Name>
2o3v_lig

>  <RI>
0

>  <Rbt.Current_Directory>
/home/afrankz/demos/rdock_decoys_rna/rnas/2o3v

>  <Rbt.Executable>
rbdock ($Id: //depot/dev/client3/rdock/2013.1/src/exe/rbdock.cxx#4 $)

>  <Rbt.Library>
libRbt.so (2013.1, Build901 2013/11/27)

>  <Rbt.Parameter_File>
/export/apps/rDock/src/rDock_2013.1_src/data/scripts/dock_solv.prm

>  <Rbt.Receptor>
prm/pocket_docking_4.prm

>  <SCORE>
-6.66414

>  <SCORE.INTER>
-5.55657

>  <SCORE.INTER.CONST>
1

>  <SCORE.INTER.POLAR>
0

>  <SCORE.INTER.ROT>
8

>  <SCORE.INTER.SOLV>
9.38255

>  <SCORE.INTER.VDW>
-15.7652

>  <SCORE.INTER.norm>
-0.158759

>  <SCORE.INTRA>
-1.10757

>  <SCORE.INTRA.DIHEDRAL>
-0.918776

>  <SCORE.INTRA.DIHEDRAL.0>
13.1227

>  <SCORE.INTRA.POLAR>
0

>  <SCORE.INTRA.POLAR.0>
0

>  <SCORE.INTRA.REPUL>
0

>  <SCORE.INTRA.REPUL.0>
0

>  <SCORE.INTRA.SOLV>
1.22686

>  <SCORE.INTRA.SOLV.lig_0>
-89.1587

>  <SCORE.INTRA.VDW>
-1.26161

>  <SCORE.INTRA.VDW.0>
-0.838383

>  <SCORE.INTRA.norm>
-0.031645

>  <SCORE.RESTR>
0

>  <SCORE.RESTR.CAVITY>
0

>  <SCORE.RESTR.norm>
0

>  <SCORE.SYSTEM>
0

>  <SCORE.SYSTEM.CONST>
0

>  <SCORE.SYSTEM.DIHEDRAL>
0

>  <SCORE.SYSTEM.SOLV>
0

>  <SCORE.SYSTEM.norm>
0

>  <SCORE.heavy>
35

>  <SCORE.norm>
-0.190404

>  <RMSD>
10.315

$$$$
2o3v_lig
 OpenBabel02141814113D
libRbt.so/2013.1/901 2013/11/27
 35 37  0  0  0  0  0  0  0  0999 V2000
   -0.5514   -6.0316   45.0237 C   0  0  2  0  0  0  0  0  0  0  0  0
   -1.5867   -6.9675   44.5937 O   0  0  0  0  0  0  0  0  0  0  0  0
   -5.1403   -5.7514   46.7892 C   0  0  2  0  0  0  0  0  0  0  0  0
   -6.5627   -5.6676   47.2387 N   0  0  0  0  0  0  0  0  0  0  0  0
    7.7942   -6.2516   43.1692 C   0  0  2  0  0  0  0  0  0  0  0  0
    7.6178   -5.3647   44.2952 O   0  0  0  0  0  0  0  0  0  0  0  0
    0.7247   -6.5535   44.2906 C   0  0  2  0  0  0  0  0  0  0  0  0
    0.5321   -6.5636   42.8212 N   0  0  0  0  0  0  0  0  0  0  0  0
   -5.0251   -5.3355   45.2598 C   0  0  0  0  0  0  0  0  0  0  0  0
    6.4030   -6.9068   42.8634 C   0  0  2  0  0  0  0  0  0  0  0  0
    5.3748   -5.8709   42.5903 N   0  0  0  0  0  0  0  0  0  0  0  0
    1.1303   -8.0085   44.7887 C   0  0  1  0  0  0  0  0  0  0  0  0
    2.3194   -8.5044   44.0480 O   0  0  0  0  0  0  0  0  0  0  0  0
   -3.5056   -5.4444   44.8041 C   0  0  2  0  0  0  0  0  0  0  0  0
   -3.3778   -5.0722   43.3788 N   0  0  0  0  0  0  0  0  0  0  0  0
    5.9297   -7.8569   44.0500 C   0  0  1  0  0  0  0  0  0  0  0  0
    4.6595   -8.5032   43.7789 O   0  0  0  0  0  0  0  0  0  0  0  0
    1.3292   -7.9335   46.3662 C   0  0  2  0  0  0  0  0  0  0  0  0
    1.6707   -9.1975   46.9063 O   0  0  0  0  0  0  0  0  0  0  0  0
   -2.9800   -6.9221   45.0259 C   0  0  2  0  0  0  0  0  0  0  0  0
    7.0330   -8.9355   44.2910 C   0  0  2  0  0  0  0  0  0  0  0  0
    6.6705   -9.8049   45.3456 O   0  0  0  0  0  0  0  0  0  0  0  0
    0.0251   -7.3886   47.0632 C   0  0  2  0  0  0  0  0  0  0  0  0
   -0.3321   -6.0714   46.4958 O   0  0  0  0  0  0  0  0  0  0  0  0
   -3.1020   -7.3228   46.5229 C   0  0  2  0  0  0  0  0  0  0  0  0
   -2.6408   -8.6990   46.6436 O   0  0  0  0  0  0  0  0  0  0  0  0
    8.4175   -8.2337   44.5908 C   0  0  2  0  0  0  0  0  0  0  0  0
    8.7809   -7.3203   43.4833 O   0  0  0  0  0  0  0  0  0  0  0  0
    0.2025   -7.2716   48.5764 C   0  0  0  0  0  0  0  0  0  0  0  0
    1.2196   -6.3546   48.8981 O   0  0  0  0  0  0  0  0  0  0  0  0
   -4.5783   -7.2149   46.9714 C   0  0  1  0  0  0  0  0  0  0  0  0
   -4.6606   -7.5782   48.3335 O   0  0  0  0  0  0  0  0  0  0  0  0
    9.5348   -9.2466   44.7896 C   0  0  0  0  0  0  0  0  0  0  0  0
    9.7440   -9.9849   43.6100 O   0  0  0  0  0  0  0  0  0  0  0  0
    3.5591   -7.6606   44.2309 C   0  0  0  0  0  0  0  0  0  0  0  0
  1  2  1  1  0  0  0
  1  7  1  0  0  0  0
  1 24  1  0  0  0  0
  3  4  1  6  0  0  0
  3  9  1  0  0  0  0
  3 31  1  0  0  0  0
  5  6  1  1  0  0  0
  5 10  1  0  0  0  0
  5 28  1  0  0  0  0
  7  8  1  6  0  0  0
  7 12  1  0  0  0  0
  9 14  1  0  0  0  0
 10 11  1  1  0  0  0
 10 16  1  0  0  0  0
 12 13  1  6  0  0  0
 12 18  1  0  0  0  0
 13 35  1  0  0  0  0
 14 15  1  6  0  0  0
 14 20  1  0  0  0  0
 16 17  1  6  0  0  0
 16 21  1  0  0  0  0
 17 35  1  0  0  0  0
 18 19  1  1  0  0  0
 18 23  1  0  0  0  0
 20  2  1  1  0  0  0
 20 25  1  0  0  0  0
 21 22  1  1  0  0  0
 21 27  1  0  0  0  0
 23 24  1  0  0  0  0
 23 29  1  1  0  0  0
 25 26  1  6  0  0  0
 25 31  1  0  0  0  0
 27 28  1  0  0  0  0
 27 33  1  6  0  0  0
 29 30  1  0  0  0  0
 31 32  1  1  0  0  0
 33 34  1  0  0  0  0
M  END
>  <CHROM.1>
178.98642154,61.39946034,163.61256330,-88.47467098,-173.42759634,50.80913222
62.19230341,63.23930097,1.68466219,-7.28456231,45.21689882,3.03981852,-0.22103258
2.12656025

>  <Name>
2o3v_lig

>  <RI>
0

>  <Rbt.Current_Directory>
/home/afrankz/demos/rdock_decoys_rna/rnas/2o3v

>  <Rbt.Executable>
rbdock ($Id: //depot/dev/client3/rdock/2013.1/src/exe/rbdock.cxx#4 $)

>  <Rbt.Library>
libRbt.so (2013.1, Build901 2013/11/27)

>  <Rbt.Parameter_File>
/export/apps/rDock/src/rDock_2013.1_src/data/scripts/dock_solv.prm

>  <Rbt.Receptor>
prm/pocket_docking_4.prm

>  <SCORE>
-15.334

>  <SCORE.INTER>
-10.1225

>  <SCORE.INTER.CONST>
1

>  <SCORE.INTER.POLAR>
-0.87178

>  <SCORE.INTER.ROT>
8

>  <SCORE.INTER.SOLV>
14.1789

>  <SCORE.INTER.VDW>
-17.5021

>  <SCORE.INTER.norm>
-0.289216

>  <SCORE.INTRA>
-5.21146

>  <SCORE.INTRA.DIHEDRAL>
-7.82293

>  <SCORE.INTRA.DIHEDRAL.0>
13.1227

>  <SCORE.INTRA.POLAR>
0

>  <SCORE.INTRA.POLAR.0>
0

>  <SCORE.INTRA.REPUL>
0

>  <SCORE.INTRA.REPUL.0>
0

>  <SCORE.INTRA.SOLV>
0.98672

>  <SCORE.INTRA.SOLV.lig_0>
-89.1587

>  <SCORE.INTRA.VDW>
-1.79336

>  <SCORE.INTRA.VDW.0>
-0.838383

>  <SCORE.INTRA.norm>
-0.148899

>  <SCORE.RESTR>
0

>  <SCORE.RESTR.CAVITY>
0

>  <SCORE.RESTR.norm>
0

>  <SCORE.SYSTEM>
0

>  <SCORE.SYSTEM.CONST>
0

>  <SCORE.SYSTEM.DIHEDRAL>
0

>  <SCORE.SYSTEM.SOLV>
0

>  <SCORE.SYSTEM.norm>
0

>  <SCORE.heavy>
35

>  <SCORE.norm>
-0.438114

>  <RMSD>
10.320

$$$$
2o3v_lig
 OpenBabel02141814113D
libRbt.so/2013.1/901 2013/11/27
 35 37  0  0  0  0  0  0  0  0999 V2000
    0.9696   -3.1384   45.7341 C   0  0  2  0  0  0  0  0  0  0  0  0
    0.3662   -3.9746   44.6999 O   0  0  0  0  0  0  0  0  0  0  0  0
   -3.3550   -5.3752   46.4656 C   0  0  2  0  0  0  0  0  0  0  0  0
   -4.6899   -6.0301   46.6122 N   0  0  0  0  0  0  0  0  0  0  0  0
    7.3635   -8.4841   43.1369 C   0  0  2  0  0  0  0  0  0  0  0  0
    7.9923   -7.9715   41.9422 O   0  0  0  0  0  0  0  0  0  0  0  0
    2.3079   -2.6733   45.0775 C   0  0  2  0  0  0  0  0  0  0  0  0
    2.0583   -1.9377   43.8154 N   0  0  0  0  0  0  0  0  0  0  0  0
   -3.4299   -4.2193   45.3777 C   0  0  0  0  0  0  0  0  0  0  0  0
    6.3443   -7.4015   43.6343 C   0  0  2  0  0  0  0  0  0  0  0  0
    5.3462   -7.0859   42.5811 N   0  0  0  0  0  0  0  0  0  0  0  0
    3.2797   -3.9013   44.7998 C   0  0  1  0  0  0  0  0  0  0  0  0
    4.5275   -3.4433   44.1351 O   0  0  0  0  0  0  0  0  0  0  0  0
   -1.9960   -3.5475   45.2329 C   0  0  2  0  0  0  0  0  0  0  0  0
   -2.0409   -2.4753   44.2156 N   0  0  0  0  0  0  0  0  0  0  0  0
    7.0849   -6.0749   44.1102 C   0  0  1  0  0  0  0  0  0  0  0  0
    6.1671   -5.0673   44.6072 O   0  0  0  0  0  0  0  0  0  0  0  0
    3.5152   -4.6455   46.1870 C   0  0  2  0  0  0  0  0  0  0  0  0
    4.3550   -5.7755   46.0331 O   0  0  0  0  0  0  0  0  0  0  0  0
   -0.9269   -4.6407   44.8189 C   0  0  2  0  0  0  0  0  0  0  0  0
    8.1115   -6.4533   45.2244 C   0  0  2  0  0  0  0  0  0  0  0  0
    8.8097   -5.3111   45.6798 O   0  0  0  0  0  0  0  0  0  0  0  0
    2.1402   -5.0833   46.8206 C   0  0  2  0  0  0  0  0  0  0  0  0
    1.2636   -3.9036   46.9769 O   0  0  0  0  0  0  0  0  0  0  0  0
   -0.8647   -5.7703   45.8850 C   0  0  2  0  0  0  0  0  0  0  0  0
    0.1039   -6.7536   45.4204 O   0  0  0  0  0  0  0  0  0  0  0  0
    9.1155   -7.5484   44.6839 C   0  0  2  0  0  0  0  0  0  0  0  0
    8.3713   -8.7348   44.2026 O   0  0  0  0  0  0  0  0  0  0  0  0
    2.3360   -5.7679   48.1726 C   0  0  0  0  0  0  0  0  0  0  0  0
    1.1062   -6.1891   48.7102 O   0  0  0  0  0  0  0  0  0  0  0  0
   -2.2586   -6.4242   46.0316 C   0  0  1  0  0  0  0  0  0  0  0  0
   -2.1761   -7.4411   47.0080 O   0  0  0  0  0  0  0  0  0  0  0  0
   10.1096   -7.9814   45.7507 C   0  0  0  0  0  0  0  0  0  0  0  0
   10.8080   -9.1298   45.3340 O   0  0  0  0  0  0  0  0  0  0  0  0
    5.3444   -4.5545   43.5185 C   0  0  0  0  0  0  0  0  0  0  0  0
  1  2  1  6  0  0  0
  1  7  1  0  0  0  0
  1 24  1  0  0  0  0
  3  4  1  6  0  0  0
  3  9  1  0  0  0  0
  3 31  1  0  0  0  0
  5  6  1  6  0  0  0
  5 10  1  0  0  0  0
  5 28  1  0  0  0  0
  7  8  1  6  0  0  0
  7 12  1  0  0  0  0
  9 14  1  0  0  0  0
 10 11  1  6  0  0  0
 10 16  1  0  0  0  0
 12 13  1  1  0  0  0
 12 18  1  0  0  0  0
 13 35  1  0  0  0  0
 14 15  1  6  0  0  0
 14 20  1  0  0  0  0
 16 17  1  1  0  0  0
 16 21  1  0  0  0  0
 17 35  1  0  0  0  0
 18 19  1  6  0  0  0
 18 23  1  0  0  0  0
 20  2  1  1  0  0  0
 20 25  1  0  0  0  0
 21 22  1  6  0  0  0
 21 27  1  0  0  0  0
 23 24  1  0  0  0  0
 23 29  1  1  0  0  0
 25 26  1  6  0  0  0
 25 31  1  0  0  0  0
 27 28  1  0  0  0  0
 27 33  1  1  0  0  0
 29 30  1  0  0  0  0
 31 32  1  1  0  0  0
 33 34  1  0  0  0  0
M  END
>  <CHROM.1>
-179.00433686,-165.14536475,-85.13006022,-67.84841943,-175.25592574,52.67887054
-178.27054950,168.33400406,3.14277338,-5.60095709,45.22760772,-2.98158482
-0.23298129,2.73113751

>  <Name>
2o3v_lig

>  <RI>
0

>  <Rbt.Current_Directory>
/home/afrankz/demos/rdock_decoys_rna/rnas/2o3v

>  <Rbt.Executable>
rbdock ($Id: //depot/dev/client3/rdock/2013.1/src/exe/rbdock.cxx#4 $)

>  <Rbt.Library>
libRbt.so (2013.1, Build901 2013/11/27)

>  <Rbt.Parameter_File>
/export/apps/rDock/src/rDock_2013.1_src/data/scripts/dock_solv.prm

>  <Rbt.Receptor>
prm/pocket_docking_8.prm

>  <SCORE>
-18.3662

>  <SCORE.INTER>
-14.7218

>  <SCORE.INTER.CONST>
1

>  <SCORE.INTER.POLAR>
-0.959166

>  <SCORE.INTER.ROT>
8

>  <SCORE.INTER.SOLV>
18.2905

>  <SCORE.INTER.VDW>
-21.6475

>  <SCORE.INTER.norm>
-0.420622

>  <SCORE.INTRA>
-3.64661

>  <SCORE.INTRA.DIHEDRAL>
-8.19141

>  <SCORE.INTRA.DIHEDRAL.0>
13.1227

>  <SCORE.INTRA.POLAR>
0

>  <SCORE.INTRA.POLAR.0>
0

>  <SCORE.INTRA.REPUL>
0

>  <SCORE.INTRA.REPUL.0>
0

>  <SCORE.INTRA.SOLV>
2.12127

>  <SCORE.INTRA.SOLV.lig_0>
-89.1587

>  <SCORE.INTRA.VDW>
-0.611542

>  <SCORE.INTRA.VDW.0>
-0.838383

>  <SCORE.INTRA.norm>
-0.104189

>  <SCORE.RESTR>
0.0022292

>  <SCORE.RESTR.CAVITY>
0.0022292

>  <SCORE.RESTR.norm>
6.36913e-05

>  <SCORE.SYSTEM>
0

>  <SCORE.SYSTEM.CONST>
0

>  <SCORE.SYSTEM.DIHEDRAL>
0

>  <SCORE.SYSTEM.SOLV>
0

>  <SCORE.SYSTEM.norm>
0

>  <SCORE.heavy>
35

>  <SCORE.norm>
-0.524748

>  <RMSD>
10.323

$$$$
2o3v_lig
 OpenBabel02141814113D
libRbt.so/2013.1/901 2013/11/27
 35 37  0  0  0  0  0  0  0  0999 V2000
   -2.9115   -9.9033   45.8784 C   0  0  2  0  0  0  0  0  0  0  0  0
   -2.2866  -10.3998   47.1014 O   0  0  0  0  0  0  0  0  0  0  0  0
   -5.3172   -9.9010   50.1826 C   0  0  2  0  0  0  0  0  0  0  0  0
   -6.0410  -10.0219   51.4840 N   0  0  0  0  0  0  0  0  0  0  0  0
    5.1025   -5.3670   43.4146 C   0  0  2  0  0  0  0  0  0  0  0  0
    5.2504   -5.1336   44.8321 O   0  0  0  0  0  0  0  0  0  0  0  0
   -1.7419   -9.9358   44.8444 C   0  0  2  0  0  0  0  0  0  0  0  0
   -1.1953  -11.3053   44.6965 N   0  0  0  0  0  0  0  0  0  0  0  0
   -5.1612  -11.3320   49.5091 C   0  0  0  0  0  0  0  0  0  0  0  0
    3.7961   -6.2095   43.2098 C   0  0  2  0  0  0  0  0  0  0  0  0
    2.6161   -5.5087   43.7766 N   0  0  0  0  0  0  0  0  0  0  0  0
   -0.5757   -8.9334   45.2502 C   0  0  1  0  0  0  0  0  0  0  0  0
    0.5459   -9.0120   44.2786 O   0  0  0  0  0  0  0  0  0  0  0  0
   -4.3786  -11.1770   48.1336 C   0  0  2  0  0  0  0  0  0  0  0  0
   -4.2123  -12.5004   47.4953 N   0  0  0  0  0  0  0  0  0  0  0  0
    3.9324   -7.6642   43.8422 C   0  0  1  0  0  0  0  0  0  0  0  0
    2.7489   -8.4780   43.6379 O   0  0  0  0  0  0  0  0  0  0  0  0
   -1.2195   -7.4841   45.3872 C   0  0  2  0  0  0  0  0  0  0  0  0
   -0.2541   -6.5222   45.7727 O   0  0  0  0  0  0  0  0  0  0  0  0
   -2.9608  -10.5189   48.3903 C   0  0  2  0  0  0  0  0  0  0  0  0
    5.1748   -8.3659   43.2075 C   0  0  2  0  0  0  0  0  0  0  0  0
    5.3524   -9.6631   43.7414 O   0  0  0  0  0  0  0  0  0  0  0  0
   -2.4033   -7.5004   46.4274 C   0  0  2  0  0  0  0  0  0  0  0  0
   -3.4080   -8.5074   46.0259 O   0  0  0  0  0  0  0  0  0  0  0  0
   -3.1224   -9.1229   49.0546 C   0  0  2  0  0  0  0  0  0  0  0  0
   -1.7852   -8.5989   49.2960 O   0  0  0  0  0  0  0  0  0  0  0  0
    6.4667   -7.4828   43.4322 C   0  0  2  0  0  0  0  0  0  0  0  0
    6.2642   -6.1253   42.8763 O   0  0  0  0  0  0  0  0  0  0  0  0
   -3.0637   -6.1280   46.5503 C   0  0  0  0  0  0  0  0  0  0  0  0
   -3.6342   -5.7288   45.3280 O   0  0  0  0  0  0  0  0  0  0  0  0
   -3.8864   -9.2685   50.3915 C   0  0  1  0  0  0  0  0  0  0  0  0
   -4.0244   -7.9880   50.9706 O   0  0  0  0  0  0  0  0  0  0  0  0
    7.6975   -8.1063   42.7916 C   0  0  0  0  0  0  0  0  0  0  0  0
    7.5225   -8.2200   41.4000 O   0  0  0  0  0  0  0  0  0  0  0  0
    1.7396   -8.1597   44.6405 C   0  0  0  0  0  0  0  0  0  0  0  0
  1  2  1  1  0  0  0
  1  7  1  0  0  0  0
  1 24  1  0  0  0  0
  3  4  1  1  0  0  0
  3  9  1  0  0  0  0
  3 31  1  0  0  0  0
  5  6  1  1  0  0  0
  5 10  1  0  0  0  0
  5 28  1  0  0  0  0
  7  8  1  1  0  0  0
  7 12  1  0  0  0  0
  9 14  1  0  0  0  0
 10 11  1  1  0  0  0
 10 16  1  0  0  0  0
 12 13  1  6  0  0  0
 12 18  1  0  0  0  0
 13 35  1  0  0  0  0
 14 15  1  1  0  0  0
 14 20  1  0  0  0  0
 16 17  1  6  0  0  0
 16 21  1  0  0  0  0
 17 35  1  0  0  0  0
 18 19  1  1  0  0  0
 18 23  1  0  0  0  0
 20  2  1  6  0  0  0
 20 25  1  0  0  0  0
 21 22  1  1  0  0  0
 21 27  1  0  0  0  0
 23 24  1  0  0  0  0
 23 29  1  6  0  0  0
 25 26  1  1  0  0  0
 25 31  1  0  0  0  0
 27 28  1  0  0  0  0
 27 33  1  6  0  0  0
 29 30  1  0  0  0  0
 31 32  1  6  0  0  0
 33 34  1  0  0  0  0
M  END
>  <CHROM.1>
177.80693715,-176.02957562,174.96120066,-82.08116168,177.16847125,45.28637265
62.19323170,61.32673542,0.07468022,-8.43254890,45.89392456,-2.96161911,0.54281359
0.06640907

>  <Name>
2o3v_lig

>  <RI>
0

>  <Rbt.Current_Directory>
/home/afrankz/demos/rdock_decoys_rna/rnas/2o3v

>  <Rbt.Executable>
rbdock ($Id: //depot/dev/client3/rdock/2013.1/src/exe/rbdock.cxx#4 $)

>  <Rbt.Library>
libRbt.so (2013.1, Build901 2013/11/27)

>  <Rbt.Parameter_File>
/export/apps/rDock/src/rDock_2013.1_src/data/scripts/dock_solv.prm

>  <Rbt.Receptor>
prm/pocket_docking_5.prm

>  <SCORE>
-14.4298

>  <SCORE.INTER>
-8.97793

>  <SCORE.INTER.CONST>
1

>  <SCORE.INTER.POLAR>
0

>  <SCORE.INTER.ROT>
8

>  <SCORE.INTER.SOLV>
11.5251

>  <SCORE.INTER.VDW>
-18.7603

>  <SCORE.INTER.norm>
-0.256512

>  <SCORE.INTRA>
-5.45187

>  <SCORE.INTRA.DIHEDRAL>
-9.61668

>  <SCORE.INTRA.DIHEDRAL.0>
13.1227

>  <SCORE.INTRA.POLAR>
0

>  <SCORE.INTRA.POLAR.0>
0

>  <SCORE.INTRA.REPUL>
0.082467

>  <SCORE.INTRA.REPUL.0>
0

>  <SCORE.INTRA.SOLV>
1.10689

>  <SCORE.INTRA.SOLV.lig_0>
-89.1587

>  <SCORE.INTRA.VDW>
-1.60931

>  <SCORE.INTRA.VDW.0>
-0.838383

>  <SCORE.INTRA.norm>
-0.155768

>  <SCORE.RESTR>
0

>  <SCORE.RESTR.CAVITY>
0

>  <SCORE.RESTR.norm>
0

>  <SCORE.SYSTEM>
0

>  <SCORE.SYSTEM.CONST>
0

>  <SCORE.SYSTEM.DIHEDRAL>
0

>  <SCORE.SYSTEM.SOLV>
0

>  <SCORE.SYSTEM.norm>
0

>  <SCORE.heavy>
35

>  <SCORE.norm>
-0.41228

>  <RMSD>
10.325

$$$$
2o3v_lig
 OpenBabel02141814113D
libRbt.so/2013.1/901 2013/11/27
 35 37  0  0  0  0  0  0  0  0999 V2000
   -0.6023   -5.7429   44.8302 C   0  0  2  0  0  0  0  0  0  0  0  0
   -1.6605   -6.6558   44.4064 O   0  0  0  0  0  0  0  0  0  0  0  0
   -5.1747   -5.3630   46.6214 C   0  0  2  0  0  0  0  0  0  0  0  0
   -6.5933   -5.2442   47.0748 N   0  0  0  0  0  0  0  0  0  0  0  0
    7.7674   -6.1849   43.2726 C   0  0  2  0  0  0  0  0  0  0  0  0
    7.6012   -5.3960   44.4707 O   0  0  0  0  0  0  0  0  0  0  0  0
    0.6627   -6.3079   44.1098 C   0  0  2  0  0  0  0  0  0  0  0  0
    0.4767   -6.3309   42.6397 N   0  0  0  0  0  0  0  0  0  0  0  0
   -5.0511   -4.9358   45.0958 C   0  0  0  0  0  0  0  0  0  0  0  0
    6.3600   -6.7587   42.8875 C   0  0  2  0  0  0  0  0  0  0  0  0
    5.3743   -5.6655   42.6924 N   0  0  0  0  0  0  0  0  0  0  0  0
    1.0266   -7.7670   44.6276 C   0  0  1  0  0  0  0  0  0  0  0  0
    2.2052   -8.3039   43.8989 O   0  0  0  0  0  0  0  0  0  0  0  0
   -3.5360   -5.0822   44.6357 C   0  0  2  0  0  0  0  0  0  0  0  0
   -3.4008   -4.7001   43.2136 N   0  0  0  0  0  0  0  0  0  0  0  0
    5.8313   -7.7927   43.9767 C   0  0  1  0  0  0  0  0  0  0  0  0
    4.5445   -8.3651   43.6288 O   0  0  0  0  0  0  0  0  0  0  0  0
    1.2201   -7.6781   46.2050 C   0  0  2  0  0  0  0  0  0  0  0  0
    1.5248   -8.9440   46.7622 O   0  0  0  0  0  0  0  0  0  0  0  0
   -3.0511   -6.5760   44.8422 C   0  0  2  0  0  0  0  0  0  0  0  0
    6.8912   -8.9282   44.1372 C   0  0  2  0  0  0  0  0  0  0  0  0
    6.4784   -9.8742   45.1038 O   0  0  0  0  0  0  0  0  0  0  0  0
   -0.0720   -7.0896   46.8889 C   0  0  2  0  0  0  0  0  0  0  0  0
   -0.3909   -5.7704   46.3037 O   0  0  0  0  0  0  0  0  0  0  0  0
   -3.1812   -6.9875   46.3355 C   0  0  2  0  0  0  0  0  0  0  0  0
   -2.7580   -8.3770   46.4421 O   0  0  0  0  0  0  0  0  0  0  0  0
    8.2937   -8.3073   44.5202 C   0  0  2  0  0  0  0  0  0  0  0  0
    8.7097   -7.3128   43.5049 O   0  0  0  0  0  0  0  0  0  0  0  0
    0.1014   -6.9588   48.4014 C   0  0  0  0  0  0  0  0  0  0  0  0
    0.2078   -8.2224   49.0105 O   0  0  0  0  0  0  0  0  0  0  0  0
   -4.6530   -6.8431   46.7883 C   0  0  1  0  0  0  0  0  0  0  0  0
   -4.7426   -7.2170   48.1471 O   0  0  0  0  0  0  0  0  0  0  0  0
    9.3706   -9.3743   44.6448 C   0  0  0  0  0  0  0  0  0  0  0  0
   10.4217   -8.9181   45.4617 O   0  0  0  0  0  0  0  0  0  0  0  0
    3.4669   -7.4927   44.0791 C   0  0  0  0  0  0  0  0  0  0  0  0
  1  2  1  1  0  0  0
  1  7  1  0  0  0  0
  1 24  1  0  0  0  0
  3  4  1  6  0  0  0
  3  9  1  0  0  0  0
  3 31  1  0  0  0  0
  5  6  1  1  0  0  0
  5 10  1  0  0  0  0
  5 28  1  0  0  0  0
  7  8  1  6  0  0  0
  7 12  1  0  0  0  0
  9 14  1  0  0  0  0
 10 11  1  1  0  0  0
 10 16  1  0  0  0  0
 12 13  1  6  0  0  0
 12 18  1  0  0  0  0
 13 35  1  0  0  0  0
 14 15  1  6  0  0  0
 14 20  1  0  0  0  0
 16 17  1  6  0  0  0
 16 21  1  0  0  0  0
 17 35  1  0  0  0  0
 18 19  1  1  0  0  0
 18 23  1  0  0  0  0
 20  2  1  1  0  0  0
 20 25  1  0  0  0  0
 21 22  1  1  0  0  0
 21 27  1  0  0  0  0
 23 24  1  0  0  0  0
 23 29  1  1  0  0  0
 25 26  1  6  0  0  0
 25 31  1  0  0  0  0
 27 28  1  0  0  0  0
 27 33  1  6  0  0  0
 29 30  1  0  0  0  0
 31 32  1  1  0  0  0
 33 34  1  0  0  0  0
M  END
>  <CHROM.1>
178.30807979,61.47391827,164.20694908,-85.65755247,-169.68852135,50.00938473
-66.75540608,-157.01375129,1.59861834,-7.10974319,45.15994229,3.08190976
-0.21594243,2.15884960

>  <Name>
2o3v_lig

>  <RI>
0

>  <Rbt.Current_Directory>
/home/afrankz/demos/rdock_decoys_rna/rnas/2o3v

>  <Rbt.Executable>
rbdock ($Id: //depot/dev/client3/rdock/2013.1/src/exe/rbdock.cxx#4 $)

>  <Rbt.Library>
libRbt.so (2013.1, Build901 2013/11/27)

>  <Rbt.Parameter_File>
/export/apps/rDock/src/rDock_2013.1_src/data/scripts/dock_solv.prm

>  <Rbt.Receptor>
prm/pocket_docking_5.prm

>  <SCORE>
-14.7296

>  <SCORE.INTER>
-10.3131

>  <SCORE.INTER.CONST>
1

>  <SCORE.INTER.POLAR>
-0.87178

>  <SCORE.INTER.ROT>
8

>  <SCORE.INTER.SOLV>
13.4721

>  <SCORE.INTER.VDW>
-17.3935

>  <SCORE.INTER.norm>
-0.29466

>  <SCORE.INTRA>
-4.41654

>  <SCORE.INTRA.DIHEDRAL>
-6.25

>  <SCORE.INTRA.DIHEDRAL.0>
13.1227

>  <SCORE.INTRA.POLAR>
0

>  <SCORE.INTRA.POLAR.0>
0

>  <SCORE.INTRA.REPUL>
0

>  <SCORE.INTRA.REPUL.0>
0

>  <SCORE.INTRA.SOLV>
0.69549

>  <SCORE.INTRA.SOLV.lig_0>
-89.1587

>  <SCORE.INTRA.VDW>
-1.63929

>  <SCORE.INTRA.VDW.0>
-0.838383

>  <SCORE.INTRA.norm>
-0.126187

>  <SCORE.RESTR>
0

>  <SCORE.RESTR.CAVITY>
0

>  <SCORE.RESTR.norm>
0

>  <SCORE.SYSTEM>
0

>  <SCORE.SYSTEM.CONST>
0

>  <SCORE.SYSTEM.DIHEDRAL>
0

>  <SCORE.SYSTEM.SOLV>
0

>  <SCORE.SYSTEM.norm>
0

>  <SCORE.heavy>
35

>  <SCORE.norm>
-0.420847

>  <RMSD>
10.327

$$$$
2o3v_lig
 OpenBabel02141814113D
libRbt.so/2013.1/901 2013/11/27
 35 37  0  0  0  0  0  0  0  0999 V2000
   -2.3927   -6.5925   44.2522 C   0  0  2  0  0  0  0  0  0  0  0  0
   -2.0823   -5.9610   45.5319 O   0  0  0  0  0  0  0  0  0  0  0  0
   -5.0508   -2.8067   45.9387 C   0  0  2  0  0  0  0  0  0  0  0  0
   -5.8589   -1.6952   46.5251 N   0  0  0  0  0  0  0  0  0  0  0  0
    6.7294   -4.8518   43.0467 C   0  0  2  0  0  0  0  0  0  0  0  0
    7.0622   -4.8171   44.4516 O   0  0  0  0  0  0  0  0  0  0  0  0
   -1.2046   -7.5854   44.0496 C   0  0  2  0  0  0  0  0  0  0  0  0
   -1.1217   -8.5567   45.1658 N   0  0  0  0  0  0  0  0  0  0  0  0
   -5.2437   -4.1324   46.7934 C   0  0  0  0  0  0  0  0  0  0  0  0
    5.1663   -4.9002   42.9341 C   0  0  2  0  0  0  0  0  0  0  0  0
    4.5468   -3.7358   43.6163 N   0  0  0  0  0  0  0  0  0  0  0  0
    0.1801   -6.8168   43.9029 C   0  0  1  0  0  0  0  0  0  0  0  0
    1.3020   -7.7800   43.7557 O   0  0  0  0  0  0  0  0  0  0  0  0
   -4.3655   -5.2947   46.1560 C   0  0  2  0  0  0  0  0  0  0  0  0
   -4.5218   -6.5360   46.9441 N   0  0  0  0  0  0  0  0  0  0  0  0
    4.5791   -6.2602   43.5176 C   0  0  1  0  0  0  0  0  0  0  0  0
    3.1361   -6.3463   43.3957 O   0  0  0  0  0  0  0  0  0  0  0  0
    0.0326   -5.7971   42.6896 C   0  0  2  0  0  0  0  0  0  0  0  0
    1.2172   -5.0448   42.4977 O   0  0  0  0  0  0  0  0  0  0  0  0
   -2.8415   -4.8637   46.1233 C   0  0  2  0  0  0  0  0  0  0  0  0
    5.2474   -7.4525   42.7625 C   0  0  2  0  0  0  0  0  0  0  0  0
    4.7700   -8.6918   43.2480 O   0  0  0  0  0  0  0  0  0  0  0  0
   -1.1853   -4.8256   42.9279 C   0  0  2  0  0  0  0  0  0  0  0  0
   -2.4199   -5.6122   43.1319 O   0  0  0  0  0  0  0  0  0  0  0  0
   -2.6627   -3.5632   45.2908 C   0  0  2  0  0  0  0  0  0  0  0  0
   -1.2513   -3.2072   45.3382 O   0  0  0  0  0  0  0  0  0  0  0  0
    6.8200   -7.3632   42.8971 C   0  0  2  0  0  0  0  0  0  0  0  0
    7.3055   -6.0581   42.3933 O   0  0  0  0  0  0  0  0  0  0  0  0
   -1.3719   -3.8596   41.7589 C   0  0  0  0  0  0  0  0  0  0  0  0
   -2.4930   -3.0335   41.9580 O   0  0  0  0  0  0  0  0  0  0  0  0
   -3.5183   -2.4308   45.9053 C   0  0  1  0  0  0  0  0  0  0  0  0
   -3.3426   -1.2645   45.1287 O   0  0  0  0  0  0  0  0  0  0  0  0
    7.5180   -8.4821   42.1390 C   0  0  0  0  0  0  0  0  0  0  0  0
    8.8996   -8.4684   42.4054 O   0  0  0  0  0  0  0  0  0  0  0  0
    2.6061   -7.3079   44.3547 C   0  0  0  0  0  0  0  0  0  0  0  0
  1  2  1  1  0  0  0
  1  7  1  0  0  0  0
  1 24  1  0  0  0  0
  3  4  1  1  0  0  0
  3  9  1  0  0  0  0
  3 31  1  0  0  0  0
  5  6  1  1  0  0  0
  5 10  1  0  0  0  0
  5 28  1  0  0  0  0
  7  8  1  1  0  0  0
  7 12  1  0  0  0  0
  9 14  1  0  0  0  0
 10 11  1  1  0  0  0
 10 16  1  0  0  0  0
 12 13  1  6  0  0  0
 12 18  1  0  0  0  0
 13 35  1  0  0  0  0
 14 15  1  1  0  0  0
 14 20  1  0  0  0  0
 16 17  1  6  0  0  0
 16 21  1  0  0  0  0
 17 35  1  0  0  0  0
 18 19  1  1  0  0  0
 18 23  1  0  0  0  0
 20  2  1  6  0  0  0
 20 25  1  0  0  0  0
 21 22  1  1  0  0  0
 21 27  1  0  0  0  0
 23 24  1  0  0  0  0
 23 29  1  6  0  0  0
 25 26  1  1  0  0  0
 25 31  1  0  0  0  0
 27 28  1  0  0  0  0
 27 33  1  6  0  0  0
 29 30  1  0  0  0  0
 31 32  1  6  0  0  0
 33 34  1  0  0  0  0
M  END
>  <CHROM.1>
174.75190080,-147.69068698,-77.26666708,-158.46636563,-154.93053905,52.42933982
177.65365972,-173.10832072,0.75584596,-5.48921599,44.05833328,2.88389668
0.25495783,-0.05942060

>  <Name>
2o3v_lig

>  <RI>
0

>  <Rbt.Current_Directory>
/home/afrankz/demos/rdock_decoys_rna/rnas/2o3v

>  <Rbt.Executable>
rbdock ($Id: //depot/dev/client3/rdock/2013.1/src/exe/rbdock.cxx#4 $)

>  <Rbt.Library>
libRbt.so (2013.1, Build901 2013/11/27)

>  <Rbt.Parameter_File>
/export/apps/rDock/src/rDock_2013.1_src/data/scripts/dock_solv.prm

>  <Rbt.Receptor>
prm/pocket_docking_6.prm

>  <SCORE>
-17.6403

>  <SCORE.INTER>
-15.1677

>  <SCORE.INTER.CONST>
1

>  <SCORE.INTER.POLAR>
-0.591245

>  <SCORE.INTER.ROT>
8

>  <SCORE.INTER.SOLV>
17.1486

>  <SCORE.INTER.VDW>
-22.7905

>  <SCORE.INTER.norm>
-0.433362

>  <SCORE.INTRA>
-2.47268

>  <SCORE.INTRA.DIHEDRAL>
-2.32924

>  <SCORE.INTRA.DIHEDRAL.0>
13.1227

>  <SCORE.INTRA.POLAR>
0

>  <SCORE.INTRA.POLAR.0>
0

>  <SCORE.INTRA.REPUL>
0

>  <SCORE.INTRA.REPUL.0>
0

>  <SCORE.INTRA.SOLV>
0.950075

>  <SCORE.INTRA.SOLV.lig_0>
-89.1587

>  <SCORE.INTRA.VDW>
-1.7831

>  <SCORE.INTRA.VDW.0>
-0.838383

>  <SCORE.INTRA.norm>
-0.070648

>  <SCORE.RESTR>
0

>  <SCORE.RESTR.CAVITY>
0

>  <SCORE.RESTR.norm>
0

>  <SCORE.SYSTEM>
0

>  <SCORE.SYSTEM.CONST>
0

>  <SCORE.SYSTEM.DIHEDRAL>
0

>  <SCORE.SYSTEM.SOLV>
0

>  <SCORE.SYSTEM.norm>
0

>  <SCORE.heavy>
35

>  <SCORE.norm>
-0.50401

>  <RMSD>
10.337

$$$$
2o3v_lig
 OpenBabel02141814113D
libRbt.so/2013.1/901 2013/11/27
 35 37  0  0  0  0  0  0  0  0999 V2000
   -4.4890   -8.4512   45.7369 C   0  0  2  0  0  0  0  0  0  0  0  0
   -4.5007   -7.3451   46.6905 O   0  0  0  0  0  0  0  0  0  0  0  0
   -5.9397   -6.3619   50.6766 C   0  0  2  0  0  0  0  0  0  0  0  0
   -6.8455   -6.2241   51.8568 N   0  0  0  0  0  0  0  0  0  0  0  0
    2.4332   -3.0080   45.0459 C   0  0  2  0  0  0  0  0  0  0  0  0
    2.4313   -3.4235   46.4290 O   0  0  0  0  0  0  0  0  0  0  0  0
   -3.1272   -8.2657   44.9957 C   0  0  2  0  0  0  0  0  0  0  0  0
   -1.9899   -8.3117   45.9448 N   0  0  0  0  0  0  0  0  0  0  0  0
   -6.5148   -5.5356   49.4470 C   0  0  0  0  0  0  0  0  0  0  0  0
    1.2682   -3.7693   44.3239 C   0  0  2  0  0  0  0  0  0  0  0  0
   -0.0355   -3.4921   44.9784 N   0  0  0  0  0  0  0  0  0  0  0  0
   -3.0886   -6.9023   44.1777 C   0  0  1  0  0  0  0  0  0  0  0  0
   -1.7697   -6.7239   43.5167 O   0  0  0  0  0  0  0  0  0  0  0  0
   -5.5399   -5.7083   48.2028 C   0  0  2  0  0  0  0  0  0  0  0  0
   -6.0635   -4.9556   47.0427 N   0  0  0  0  0  0  0  0  0  0  0  0
    1.5381   -5.3375   44.2704 C   0  0  1  0  0  0  0  0  0  0  0  0
    0.4907   -6.0639   43.5775 O   0  0  0  0  0  0  0  0  0  0  0  0
   -4.3245   -6.9136   43.1747 C   0  0  2  0  0  0  0  0  0  0  0  0
   -4.3870   -5.7197   42.4153 O   0  0  0  0  0  0  0  0  0  0  0  0
   -5.4020   -7.2426   47.8338 C   0  0  2  0  0  0  0  0  0  0  0  0
    2.9091   -5.5802   43.5632 C   0  0  2  0  0  0  0  0  0  0  0  0
    3.2077   -6.9608   43.4962 O   0  0  0  0  0  0  0  0  0  0  0  0
   -5.6744   -7.1179   43.9620 C   0  0  2  0  0  0  0  0  0  0  0  0
   -5.6062   -8.3621   44.7569 O   0  0  0  0  0  0  0  0  0  0  0  0
   -4.8450   -8.0440   49.0436 C   0  0  2  0  0  0  0  0  0  0  0  0
   -4.7835   -9.4439   48.6465 O   0  0  0  0  0  0  0  0  0  0  0  0
    4.0530   -4.7929   44.3188 C   0  0  2  0  0  0  0  0  0  0  0  0
    3.7238   -3.3508   44.3893 O   0  0  0  0  0  0  0  0  0  0  0  0
   -6.8746   -7.1699   43.0176 C   0  0  0  0  0  0  0  0  0  0  0  0
   -6.7467   -8.2221   42.0928 O   0  0  0  0  0  0  0  0  0  0  0  0
   -5.7885   -7.8759   50.2575 C   0  0  1  0  0  0  0  0  0  0  0  0
   -5.2579   -8.6077   51.3423 O   0  0  0  0  0  0  0  0  0  0  0  0
    5.4029   -4.9643   43.6390 C   0  0  0  0  0  0  0  0  0  0  0  0
    5.3640   -4.4447   42.3319 O   0  0  0  0  0  0  0  0  0  0  0  0
   -0.6968   -6.1590   44.4178 C   0  0  0  0  0  0  0  0  0  0  0  0
  1  2  1  1  0  0  0
  1  7  1  0  0  0  0
  1 24  1  0  0  0  0
  3  4  1  1  0  0  0
  3  9  1  0  0  0  0
  3 31  1  0  0  0  0
  5  6  1  1  0  0  0
  5 10  1  0  0  0  0
  5 28  1  0  0  0  0
  7  8  1  1  0  0  0
  7 12  1  0  0  0  0
  9 14  1  0  0  0  0
 10 11  1  1  0  0  0
 10 16  1  0  0  0  0
 12 13  1  6  0  0  0
 12 18  1  0  0  0  0
 13 35  1  0  0  0  0
 14 15  1  6  0  0  0
 14 20  1  0  0  0  0
 16 17  1  6  0  0  0
 16 21  1  0  0  0  0
 17 35  1  0  0  0  0
 18 19  1  1  0  0  0
 18 23  1  0  0  0  0
 20  2  1  6  0  0  0
 20 25  1  0  0  0  0
 21 22  1  1  0  0  0
 21 27  1  0  0  0  0
 23 24  1  0  0  0  0
 23 29  1  6  0  0  0
 25 26  1  6  0  0  0
 25 31  1  0  0  0  0
 27 28  1  0  0  0  0
 27 33  1  6  0  0  0
 29 30  1  0  0  0  0
 31 32  1  1  0  0  0
 33 34  1  0  0  0  0
M  END
>  <CHROM.1>
-164.90285922,-82.33401293,-179.77488059,-74.80454892,171.03747912,-155.60787487
59.35478979,61.87211971,-2.17299756,-6.32032553,45.66020871,2.76145874,0.33345408
1.45911524

>  <Name>
2o3v_lig

>  <RI>
0

>  <Rbt.Current_Directory>
/home/afrankz/demos/rdock_decoys_rna/rnas/2o3v

>  <Rbt.Executable>
rbdock ($Id: //depot/dev/client3/rdock/2013.1/src/exe/rbdock.cxx#4 $)

>  <Rbt.Library>
libRbt.so (2013.1, Build901 2013/11/27)

>  <Rbt.Parameter_File>
/export/apps/rDock/src/rDock_2013.1_src/data/scripts/dock_solv.prm

>  <Rbt.Receptor>
prm/pocket_docking_4.prm

>  <SCORE>
-6.55143

>  <SCORE.INTER>
-3.55948

>  <SCORE.INTER.CONST>
1

>  <SCORE.INTER.POLAR>
0

>  <SCORE.INTER.ROT>
8

>  <SCORE.INTER.SOLV>
10.0206

>  <SCORE.INTER.VDW>
-14.6465

>  <SCORE.INTER.norm>
-0.101699

>  <SCORE.INTRA>
-3.51533

>  <SCORE.INTRA.DIHEDRAL>
-5.82992

>  <SCORE.INTRA.DIHEDRAL.0>
13.1227

>  <SCORE.INTRA.POLAR>
0

>  <SCORE.INTRA.POLAR.0>
0

>  <SCORE.INTRA.REPUL>
0

>  <SCORE.INTRA.REPUL.0>
0

>  <SCORE.INTRA.SOLV>
1.48583

>  <SCORE.INTRA.SOLV.lig_0>
-89.1587

>  <SCORE.INTRA.VDW>
-1.34328

>  <SCORE.INTRA.VDW.0>
-0.838383

>  <SCORE.INTRA.norm>
-0.100438

>  <SCORE.RESTR>
0.523384

>  <SCORE.RESTR.CAVITY>
0.523384

>  <SCORE.RESTR.norm>
0.0149538

>  <SCORE.SYSTEM>
0

>  <SCORE.SYSTEM.CONST>
0

>  <SCORE.SYSTEM.DIHEDRAL>
0

>  <SCORE.SYSTEM.SOLV>
0

>  <SCORE.SYSTEM.norm>
0

>  <SCORE.heavy>
35

>  <SCORE.norm>
-0.187184

>  <RMSD>
10.344

$$$$
2o3v_lig
 OpenBabel02141814113D
libRbt.so/2013.1/901 2013/11/27
 35 37  0  0  0  0  0  0  0  0999 V2000
   -1.4440   -6.0407   46.4130 C   0  0  2  0  0  0  0  0  0  0  0  0
   -2.6151   -6.4665   45.6515 O   0  0  0  0  0  0  0  0  0  0  0  0
   -5.8794   -6.3489   48.5252 C   0  0  2  0  0  0  0  0  0  0  0  0
   -7.2493   -6.4580   49.1112 N   0  0  0  0  0  0  0  0  0  0  0  0
    6.7065   -4.8371   43.0120 C   0  0  2  0  0  0  0  0  0  0  0  0
    6.9023   -4.7393   44.4394 O   0  0  0  0  0  0  0  0  0  0  0  0
   -0.3255   -5.9586   45.3264 C   0  0  2  0  0  0  0  0  0  0  0  0
   -0.6912   -5.0057   44.2519 N   0  0  0  0  0  0  0  0  0  0  0  0
   -5.8685   -5.2700   47.3585 C   0  0  0  0  0  0  0  0  0  0  0  0
    5.1611   -4.8762   42.7503 C   0  0  2  0  0  0  0  0  0  0  0  0
    4.4947   -3.6752   43.3147 N   0  0  0  0  0  0  0  0  0  0  0  0
   -0.0179   -7.3860   44.6960 C   0  0  1  0  0  0  0  0  0  0  0  0
    1.0164   -7.2791   43.6344 O   0  0  0  0  0  0  0  0  0  0  0  0
   -4.4041   -5.1820   46.7450 C   0  0  2  0  0  0  0  0  0  0  0  0
   -4.3747   -4.1905   45.6484 N   0  0  0  0  0  0  0  0  0  0  0  0
    4.5014   -6.2016   43.3359 C   0  0  1  0  0  0  0  0  0  0  0  0
    3.0759   -6.2799   43.0783 O   0  0  0  0  0  0  0  0  0  0  0  0
    0.3736   -8.3605   45.8922 C   0  0  2  0  0  0  0  0  0  0  0  0
    0.6428   -9.6707   45.4266 O   0  0  0  0  0  0  0  0  0  0  0  0
   -3.9602   -6.6021   46.2015 C   0  0  2  0  0  0  0  0  0  0  0  0
    5.2230   -7.4344   42.7050 C   0  0  2  0  0  0  0  0  0  0  0  0
    4.6838   -8.6449   43.1984 O   0  0  0  0  0  0  0  0  0  0  0  0
   -0.7744   -8.4015   46.9711 C   0  0  2  0  0  0  0  0  0  0  0  0
   -1.0568   -7.0332   47.4531 O   0  0  0  0  0  0  0  0  0  0  0  0
   -3.9796   -7.6523   47.3474 C   0  0  2  0  0  0  0  0  0  0  0  0
   -3.6017   -8.9342   46.7687 O   0  0  0  0  0  0  0  0  0  0  0  0
    6.7763   -7.3535   42.9877 C   0  0  2  0  0  0  0  0  0  0  0  0
    7.3263   -6.0782   42.4738 O   0  0  0  0  0  0  0  0  0  0  0  0
   -0.4074   -9.3021   48.1497 C   0  0  0  0  0  0  0  0  0  0  0  0
   -0.2647  -10.6402   47.7399 O   0  0  0  0  0  0  0  0  0  0  0  0
   -5.4017   -7.7386   47.9495 C   0  0  1  0  0  0  0  0  0  0  0  0
   -5.3907   -8.6936   48.9897 O   0  0  0  0  0  0  0  0  0  0  0  0
    7.5288   -8.5134   42.3533 C   0  0  0  0  0  0  0  0  0  0  0  0
    8.8944   -8.4541   42.6872 O   0  0  0  0  0  0  0  0  0  0  0  0
    2.4093   -7.0066   44.1520 C   0  0  0  0  0  0  0  0  0  0  0  0
  1  2  1  6  0  0  0
  1  7  1  0  0  0  0
  1 24  1  0  0  0  0
  3  4  1  6  0  0  0
  3  9  1  0  0  0  0
  3 31  1  0  0  0  0
  5  6  1  1  0  0  0
  5 10  1  0  0  0  0
  5 28  1  0  0  0  0
  7  8  1  6  0  0  0
  7 12  1  0  0  0  0
  9 14  1  0  0  0  0
 10 11  1  1  0  0  0
 10 16  1  0  0  0  0
 12 13  1  6  0  0  0
 12 18  1  0  0  0  0
 13 35  1  0  0  0  0
 14 15  1  6  0  0  0
 14 20  1  0  0  0  0
 16 17  1  6  0  0  0
 16 21  1  0  0  0  0
 17 35  1  0  0  0  0
 18 19  1  6  0  0  0
 18 23  1  0  0  0  0
 20  2  1  1  0  0  0
 20 25  1  0  0  0  0
 21 22  1  1  0  0  0
 21 27  1  0  0  0  0
 23 24  1  0  0  0  0
 23 29  1  1  0  0  0
 25 26  1  6  0  0  0
 25 31  1  0  0  0  0
 27 28  1  0  0  0  0
 27 33  1  6  0  0  0
 29 30  1  0  0  0  0
 31 32  1  1  0  0  0
 33 34  1  0  0  0  0
M  END
>  <CHROM.1>
-175.49333018,71.96659057,-151.47705051,-148.98974337,-168.13742863,60.21872184
-63.91463285,-176.62766910,0.57847338,-6.98057542,45.32386924,2.97808858
-0.36744575,2.78905433

>  <Name>
2o3v_lig

>  <RI>
0

>  <Rbt.Current_Directory>
/home/afrankz/demos/rdock_decoys_rna/rnas/2o3v

>  <Rbt.Executable>
rbdock ($Id: //depot/dev/client3/rdock/2013.1/src/exe/rbdock.cxx#4 $)

>  <Rbt.Library>
libRbt.so (2013.1, Build901 2013/11/27)

>  <Rbt.Parameter_File>
/export/apps/rDock/src/rDock_2013.1_src/data/scripts/dock_solv.prm

>  <Rbt.Receptor>
prm/pocket_docking_5.prm

>  <SCORE>
-14.3292

>  <SCORE.INTER>
-10.9889

>  <SCORE.INTER.CONST>
1

>  <SCORE.INTER.POLAR>
-0.651924

>  <SCORE.INTER.ROT>
8

>  <SCORE.INTER.SOLV>
14.1165

>  <SCORE.INTER.VDW>
-18.7917

>  <SCORE.INTER.norm>
-0.31397

>  <SCORE.INTRA>
-3.34028

>  <SCORE.INTRA.DIHEDRAL>
-4.41275

>  <SCORE.INTRA.DIHEDRAL.0>
13.1227

>  <SCORE.INTRA.POLAR>
0

>  <SCORE.INTRA.POLAR.0>
0

>  <SCORE.INTRA.REPUL>
0

>  <SCORE.INTRA.REPUL.0>
0

>  <SCORE.INTRA.SOLV>
0.542095

>  <SCORE.INTRA.SOLV.lig_0>
-89.1587

>  <SCORE.INTRA.VDW>
-1.40495

>  <SCORE.INTRA.VDW.0>
-0.838383

>  <SCORE.INTRA.norm>
-0.0954365

>  <SCORE.RESTR>
0

>  <SCORE.RESTR.CAVITY>
0

>  <SCORE.RESTR.norm>
0

>  <SCORE.SYSTEM>
0

>  <SCORE.SYSTEM.CONST>
0

>  <SCORE.SYSTEM.DIHEDRAL>
0

>  <SCORE.SYSTEM.SOLV>
0

>  <SCORE.SYSTEM.norm>
0

>  <SCORE.heavy>
35

>  <SCORE.norm>
-0.409406

>  <RMSD>
10.347

$$$$
2o3v_lig
 OpenBabel02141814113D
libRbt.so/2013.1/901 2013/11/27
 35 37  0  0  0  0  0  0  0  0999 V2000
   -1.7116   -8.0906   44.5061 C   0  0  2  0  0  0  0  0  0  0  0  0
   -1.3586   -7.6372   45.8487 O   0  0  0  0  0  0  0  0  0  0  0  0
   -4.4373   -9.3040   48.4314 C   0  0  2  0  0  0  0  0  0  0  0  0
   -5.2638   -9.5840   49.6442 N   0  0  0  0  0  0  0  0  0  0  0  0
    6.9881   -5.0035   44.1494 C   0  0  2  0  0  0  0  0  0  0  0  0
    6.7235   -5.2468   45.5481 O   0  0  0  0  0  0  0  0  0  0  0  0
   -0.4099   -7.8198   43.6870 C   0  0  2  0  0  0  0  0  0  0  0  0
    0.7445   -8.5535   44.2575 N   0  0  0  0  0  0  0  0  0  0  0  0
   -2.9299   -9.7385   48.6851 C   0  0  0  0  0  0  0  0  0  0  0  0
    5.6042   -4.8803   43.4228 C   0  0  2  0  0  0  0  0  0  0  0  0
    4.7823   -3.7985   44.0221 N   0  0  0  0  0  0  0  0  0  0  0  0
   -0.0769   -6.2663   43.6167 C   0  0  1  0  0  0  0  0  0  0  0  0
    1.1877   -6.0337   42.8718 O   0  0  0  0  0  0  0  0  0  0  0  0
   -2.0709   -9.4196   47.3856 C   0  0  2  0  0  0  0  0  0  0  0  0
   -0.6606   -9.8062   47.6050 N   0  0  0  0  0  0  0  0  0  0  0  0
    4.8066   -6.2581   43.4449 C   0  0  1  0  0  0  0  0  0  0  0  0
    3.5355   -6.1818   42.7498 O   0  0  0  0  0  0  0  0  0  0  0  0
   -1.3454   -5.5350   42.9924 C   0  0  2  0  0  0  0  0  0  0  0  0
   -1.1496   -4.1346   42.9128 O   0  0  0  0  0  0  0  0  0  0  0  0
   -2.1610   -7.8754   47.0443 C   0  0  2  0  0  0  0  0  0  0  0  0
    5.7021   -7.3593   42.7938 C   0  0  2  0  0  0  0  0  0  0  0  0
    5.0467   -8.6123   42.7954 O   0  0  0  0  0  0  0  0  0  0  0  0
   -2.6370   -5.8472   43.8398 C   0  0  2  0  0  0  0  0  0  0  0  0
   -2.8378   -7.3090   43.9252 O   0  0  0  0  0  0  0  0  0  0  0  0
   -3.6389   -7.4579   46.8039 C   0  0  2  0  0  0  0  0  0  0  0  0
   -3.6482   -6.0262   46.5367 O   0  0  0  0  0  0  0  0  0  0  0  0
    7.0865   -7.4472   43.5521 C   0  0  2  0  0  0  0  0  0  0  0  0
    7.7578   -6.1273   43.5504 O   0  0  0  0  0  0  0  0  0  0  0  0
   -3.8773   -5.1866   43.2398 C   0  0  0  0  0  0  0  0  0  0  0  0
   -3.7387   -3.7872   43.2033 O   0  0  0  0  0  0  0  0  0  0  0  0
   -4.4790   -7.7696   48.0645 C   0  0  1  0  0  0  0  0  0  0  0  0
   -5.8157   -7.3868   47.8182 O   0  0  0  0  0  0  0  0  0  0  0  0
    8.0116   -8.4788   42.9246 C   0  0  0  0  0  0  0  0  0  0  0  0
    9.1350   -8.6941   43.7442 O   0  0  0  0  0  0  0  0  0  0  0  0
    2.4365   -6.1900   43.7076 C   0  0  0  0  0  0  0  0  0  0  0  0
  1  2  1  1  0  0  0
  1  7  1  0  0  0  0
  1 24  1  0  0  0  0
  3  4  1  1  0  0  0
  3  9  1  0  0  0  0
  3 31  1  0  0  0  0
  5  6  1  1  0  0  0
  5 10  1  0  0  0  0
  5 28  1  0  0  0  0
  7  8  1  1  0  0  0
  7 12  1  0  0  0  0
  9 14  1  0  0  0  0
 10 11  1  1  0  0  0
 10 16  1  0  0  0  0
 12 13  1  6  0  0  0
 12 18  1  0  0  0  0
 13 35  1  0  0  0  0
 14 15  1  1  0  0  0
 14 20  1  0  0  0  0
 16 17  1  6  0  0  0
 16 21  1  0  0  0  0
 17 35  1  0  0  0  0
 18 19  1  1  0  0  0
 18 23  1  0  0  0  0
 20  2  1  6  0  0  0
 20 25  1  0  0  0  0
 21 22  1  1  0  0  0
 21 27  1  0  0  0  0
 23 24  1  0  0  0  0
 23 29  1  6  0  0  0
 25 26  1  1  0  0  0
 25 31  1  0  0  0  0
 27 28  1  0  0  0  0
 27 33  1  6  0  0  0
 29 30  1  0  0  0  0
 31 32  1  6  0  0  0
 33 34  1  0  0  0  0
M  END
>  <CHROM.1>
-169.47422463,-83.45850420,169.26729181,-107.34619626,177.09359683,70.28109960
-60.69308273,-170.19174848,0.75465619,-6.96591049,44.80938489,2.86964286
-0.15485394,2.37430360

>  <Name>
2o3v_lig

>  <RI>
0

>  <Rbt.Current_Directory>
/home/afrankz/demos/rdock_decoys_rna/rnas/2o3v

>  <Rbt.Executable>
rbdock ($Id: //depot/dev/client3/rdock/2013.1/src/exe/rbdock.cxx#4 $)

>  <Rbt.Library>
libRbt.so (2013.1, Build901 2013/11/27)

>  <Rbt.Parameter_File>
/export/apps/rDock/src/rDock_2013.1_src/data/scripts/dock_solv.prm

>  <Rbt.Receptor>
prm/pocket_docking_5.prm

>  <SCORE>
-15.3174

>  <SCORE.INTER>
-12.8539

>  <SCORE.INTER.CONST>
1

>  <SCORE.INTER.POLAR>
-1.27536

>  <SCORE.INTER.ROT>
8

>  <SCORE.INTER.SOLV>
14.017

>  <SCORE.INTER.VDW>
-17.9237

>  <SCORE.INTER.norm>
-0.367253

>  <SCORE.INTRA>
-2.46359

>  <SCORE.INTRA.DIHEDRAL>
-2.27124

>  <SCORE.INTRA.DIHEDRAL.0>
13.1227

>  <SCORE.INTRA.POLAR>
0

>  <SCORE.INTRA.POLAR.0>
0

>  <SCORE.INTRA.REPUL>
0

>  <SCORE.INTRA.REPUL.0>
0

>  <SCORE.INTRA.SOLV>
1.45493

>  <SCORE.INTRA.SOLV.lig_0>
-89.1587

>  <SCORE.INTRA.VDW>
-2.05544

>  <SCORE.INTRA.VDW.0>
-0.838383

>  <SCORE.INTRA.norm>
-0.0703883

>  <SCORE.RESTR>
0

>  <SCORE.RESTR.CAVITY>
0

>  <SCORE.RESTR.norm>
0

>  <SCORE.SYSTEM>
0

>  <SCORE.SYSTEM.CONST>
0

>  <SCORE.SYSTEM.DIHEDRAL>
0

>  <SCORE.SYSTEM.SOLV>
0

>  <SCORE.SYSTEM.norm>
0

>  <SCORE.heavy>
35

>  <SCORE.norm>
-0.437641

>  <RMSD>
10.367

$$$$
2o3v_lig
 OpenBabel02141814113D
libRbt.so/2013.1/901 2013/11/27
 35 37  0  0  0  0  0  0  0  0999 V2000
   -2.4162   -4.4000   44.0158 C   0  0  2  0  0  0  0  0  0  0  0  0
   -3.1303   -4.4849   42.7447 O   0  0  0  0  0  0  0  0  0  0  0  0
   -7.3326   -4.6734   43.8549 C   0  0  2  0  0  0  0  0  0  0  0  0
   -8.8228   -4.6726   43.7479 N   0  0  0  0  0  0  0  0  0  0  0  0
    6.6711   -5.6343   44.6747 C   0  0  2  0  0  0  0  0  0  0  0  0
    6.2111   -5.2642   45.9926 O   0  0  0  0  0  0  0  0  0  0  0  0
   -0.9164   -4.4419   43.5830 C   0  0  2  0  0  0  0  0  0  0  0  0
   -0.5922   -3.3248   42.6648 N   0  0  0  0  0  0  0  0  0  0  0  0
   -6.7488   -3.2793   43.3638 C   0  0  0  0  0  0  0  0  0  0  0  0
    5.5404   -5.2539   43.6572 C   0  0  2  0  0  0  0  0  0  0  0  0
    5.2151   -3.8074   43.7388 N   0  0  0  0  0  0  0  0  0  0  0  0
   -0.5457   -5.8271   42.8950 C   0  0  1  0  0  0  0  0  0  0  0  0
    0.8725   -5.8298   42.4511 O   0  0  0  0  0  0  0  0  0  0  0  0
   -5.1630   -3.3107   43.4768 C   0  0  2  0  0  0  0  0  0  0  0  0
   -4.5981   -2.0253   43.0131 N   0  0  0  0  0  0  0  0  0  0  0  0
    4.2301   -6.1295   43.8837 C   0  0  1  0  0  0  0  0  0  0  0  0
    3.1782   -5.8213   42.9334 O   0  0  0  0  0  0  0  0  0  0  0  0
   -0.9083   -6.9835   43.9268 C   0  0  2  0  0  0  0  0  0  0  0  0
   -0.6333   -8.2641   43.3880 O   0  0  0  0  0  0  0  0  0  0  0  0
   -4.5832   -4.5008   42.6068 C   0  0  2  0  0  0  0  0  0  0  0  0
    4.6178   -7.6383   43.7752 C   0  0  2  0  0  0  0  0  0  0  0  0
    3.4906   -8.4674   43.9791 O   0  0  0  0  0  0  0  0  0  0  0  0
   -2.4245   -6.8946   44.3476 C   0  0  2  0  0  0  0  0  0  0  0  0
   -2.7108   -5.5564   44.9060 O   0  0  0  0  0  0  0  0  0  0  0  0
   -5.1640   -5.8594   43.0897 C   0  0  2  0  0  0  0  0  0  0  0  0
   -4.6211   -6.8968   42.2236 O   0  0  0  0  0  0  0  0  0  0  0  0
    5.7613   -7.9777   44.8127 C   0  0  2  0  0  0  0  0  0  0  0  0
    6.9316   -7.0971   44.5936 O   0  0  0  0  0  0  0  0  0  0  0  0
   -2.7898   -7.9722   45.3674 C   0  0  0  0  0  0  0  0  0  0  0  0
   -2.6247   -9.2598   44.8255 O   0  0  0  0  0  0  0  0  0  0  0  0
   -6.7068   -5.8320   42.9849 C   0  0  1  0  0  0  0  0  0  0  0  0
   -7.2087   -7.0733   43.4338 O   0  0  0  0  0  0  0  0  0  0  0  0
    6.2035   -9.4298   44.7135 C   0  0  0  0  0  0  0  0  0  0  0  0
    7.2186   -9.6990   45.6501 O   0  0  0  0  0  0  0  0  0  0  0  0
    1.8742   -5.9104   43.5791 C   0  0  0  0  0  0  0  0  0  0  0  0
  1  2  1  6  0  0  0
  1  7  1  0  0  0  0
  1 24  1  0  0  0  0
  3  4  1  6  0  0  0
  3  9  1  0  0  0  0
  3 31  1  0  0  0  0
  5  6  1  1  0  0  0
  5 10  1  0  0  0  0
  5 28  1  0  0  0  0
  7  8  1  6  0  0  0
  7 12  1  0  0  0  0
  9 14  1  0  0  0  0
 10 11  1  1  0  0  0
 10 16  1  0  0  0  0
 12 13  1  1  0  0  0
 12 18  1  0  0  0  0
 13 35  1  0  0  0  0
 14 15  1  6  0  0  0
 14 20  1  0  0  0  0
 16 17  1  6  0  0  0
 16 21  1  0  0  0  0
 17 35  1  0  0  0  0
 18 19  1  6  0  0  0
 18 23  1  0  0  0  0
 20  2  1  1  0  0  0
 20 25  1  0  0  0  0
 21 22  1  1  0  0  0
 21 27  1  0  0  0  0
 23 24  1  0  0  0  0
 23 29  1  1  0  0  0
 25 26  1  6  0  0  0
 25 31  1  0  0  0  0
 27 28  1  0  0  0  0
 27 33  1  6  0  0  0
 29 30  1  0  0  0  0
 31 32  1  1  0  0  0
 33 34  1  0  0  0  0
M  END
>  <CHROM.1>
179.19218640,71.78089881,-176.80414674,-143.89047694,-169.68007948,48.76897346
-62.51919691,-179.89577080,-0.30785142,-6.04181012,43.80599084,-2.95530513
0.05982725,2.94034449

>  <Name>
2o3v_lig

>  <RI>
0

>  <Rbt.Current_Directory>
/home/afrankz/demos/rdock_decoys_rna/rnas/2o3v

>  <Rbt.Executable>
rbdock ($Id: //depot/dev/client3/rdock/2013.1/src/exe/rbdock.cxx#4 $)

>  <Rbt.Library>
libRbt.so (2013.1, Build901 2013/11/27)

>  <Rbt.Parameter_File>
/export/apps/rDock/src/rDock_2013.1_src/data/scripts/dock_solv.prm

>  <Rbt.Receptor>
prm/pocket_docking_8.prm

>  <SCORE>
-14.3351

>  <SCORE.INTER>
-9.48672

>  <SCORE.INTER.CONST>
1

>  <SCORE.INTER.POLAR>
-1.60211

>  <SCORE.INTER.ROT>
8

>  <SCORE.INTER.SOLV>
11.5354

>  <SCORE.INTER.VDW>
-13.7626

>  <SCORE.INTER.norm>
-0.271049

>  <SCORE.INTRA>
-4.84837

>  <SCORE.INTRA.DIHEDRAL>
-6.49015

>  <SCORE.INTRA.DIHEDRAL.0>
13.1227

>  <SCORE.INTRA.POLAR>
0

>  <SCORE.INTRA.POLAR.0>
0

>  <SCORE.INTRA.REPUL>
0

>  <SCORE.INTRA.REPUL.0>
0

>  <SCORE.INTRA.SOLV>
0.144317

>  <SCORE.INTRA.SOLV.lig_0>
-89.1587

>  <SCORE.INTRA.VDW>
-1.67545

>  <SCORE.INTRA.VDW.0>
-0.838383

>  <SCORE.INTRA.norm>
-0.138525

>  <SCORE.RESTR>
0

>  <SCORE.RESTR.CAVITY>
0

>  <SCORE.RESTR.norm>
0

>  <SCORE.SYSTEM>
0

>  <SCORE.SYSTEM.CONST>
0

>  <SCORE.SYSTEM.DIHEDRAL>
0

>  <SCORE.SYSTEM.SOLV>
0

>  <SCORE.SYSTEM.norm>
0

>  <SCORE.heavy>
35

>  <SCORE.norm>
-0.409574

>  <RMSD>
10.368

$$$$
2o3v_lig
 OpenBabel02141814113D
libRbt.so/2013.1/901 2013/11/27
 35 37  0  0  0  0  0  0  0  0999 V2000
   -0.2553   -3.8747   45.7696 C   0  0  2  0  0  0  0  0  0  0  0  0
   -0.9830   -2.8080   45.0874 O   0  0  0  0  0  0  0  0  0  0  0  0
   -4.6685   -2.1736   42.8644 C   0  0  2  0  0  0  0  0  0  0  0  0
   -5.7612   -2.3528   41.8614 N   0  0  0  0  0  0  0  0  0  0  0  0
    3.2791   -0.9088   38.9053 C   0  0  2  0  0  0  0  0  0  0  0  0
    4.5292   -1.1938   38.2408 O   0  0  0  0  0  0  0  0  0  0  0  0
    1.2380   -3.5385   45.4607 C   0  0  2  0  0  0  0  0  0  0  0  0
    1.5970   -2.1887   45.9561 N   0  0  0  0  0  0  0  0  0  0  0  0
   -3.2897   -1.8923   42.1259 C   0  0  0  0  0  0  0  0  0  0  0  0
    3.5983   -0.6512   40.4186 C   0  0  2  0  0  0  0  0  0  0  0  0
    4.5696    0.4607   40.5764 N   0  0  0  0  0  0  0  0  0  0  0  0
    1.5494   -3.6394   43.9043 C   0  0  1  0  0  0  0  0  0  0  0  0
    2.9625   -3.2730   43.6268 O   0  0  0  0  0  0  0  0  0  0  0  0
   -2.1433   -1.7173   43.2138 C   0  0  2  0  0  0  0  0  0  0  0  0
   -0.8479   -1.4658   42.5465 N   0  0  0  0  0  0  0  0  0  0  0  0
    4.1408   -1.9657   41.1345 C   0  0  1  0  0  0  0  0  0  0  0  0
    4.4131   -1.7647   42.5453 O   0  0  0  0  0  0  0  0  0  0  0  0
    1.1516   -5.1068   43.4331 C   0  0  2  0  0  0  0  0  0  0  0  0
    1.3726   -5.2836   42.0454 O   0  0  0  0  0  0  0  0  0  0  0  0
   -2.0456   -3.0200   44.1096 C   0  0  2  0  0  0  0  0  0  0  0  0
    3.0829   -3.1002   40.9548 C   0  0  2  0  0  0  0  0  0  0  0  0
    3.5175   -4.3001   41.5640 O   0  0  0  0  0  0  0  0  0  0  0  0
   -0.3564   -5.4089   43.7773 C   0  0  2  0  0  0  0  0  0  0  0  0
   -0.5864   -5.2203   45.2251 O   0  0  0  0  0  0  0  0  0  0  0  0
   -3.3998   -3.2911   44.8231 C   0  0  2  0  0  0  0  0  0  0  0  0
   -3.2480   -4.5186   45.5920 O   0  0  0  0  0  0  0  0  0  0  0  0
    2.7874   -3.3240   39.4180 C   0  0  2  0  0  0  0  0  0  0  0  0
    2.3417   -2.0587   38.7910 O   0  0  0  0  0  0  0  0  0  0  0  0
   -0.7541   -6.8265   43.3685 C   0  0  0  0  0  0  0  0  0  0  0  0
    0.2365   -7.4188   42.5642 O   0  0  0  0  0  0  0  0  0  0  0  0
   -4.5187   -3.4585   43.7685 C   0  0  1  0  0  0  0  0  0  0  0  0
   -5.7369   -3.6977   44.4416 O   0  0  0  0  0  0  0  0  0  0  0  0
    1.7279   -4.3924   39.1946 C   0  0  0  0  0  0  0  0  0  0  0  0
    1.7577   -4.8425   37.8617 O   0  0  0  0  0  0  0  0  0  0  0  0
    3.1724   -1.8110   43.3092 C   0  0  0  0  0  0  0  0  0  0  0  0
  1  2  1  6  0  0  0
  1  7  1  0  0  0  0
  1 24  1  0  0  0  0
  3  4  1  6  0  0  0
  3  9  1  0  0  0  0
  3 31  1  0  0  0  0
  5  6  1  6  0  0  0
  5 10  1  0  0  0  0
  5 28  1  0  0  0  0
  7  8  1  6  0  0  0
  7 12  1  0  0  0  0
  9 14  1  0  0  0  0
 10 11  1  6  0  0  0
 10 16  1  0  0  0  0
 12 13  1  1  0  0  0
 12 18  1  0  0  0  0
 13 35  1  0  0  0  0
 14 15  1  6  0  0  0
 14 20  1  0  0  0  0
 16 17  1  1  0  0  0
 16 21  1  0  0  0  0
 17 35  1  0  0  0  0
 18 19  1  6  0  0  0
 18 23  1  0  0  0  0
 20  2  1  1  0  0  0
 20 25  1  0  0  0  0
 21 22  1  6  0  0  0
 21 27  1  0  0  0  0
 23 24  1  0  0  0  0
 23 29  1  1  0  0  0
 25 26  1  6  0  0  0
 25 31  1  0  0  0  0
 27 28  1  0  0  0  0
 27 33  1  1  0  0  0
 29 30  1  0  0  0  0
 31 32  1  1  0  0  0
 33 34  1  0  0  0  0
M  END
>  <CHROM.1>
125.58064092,-91.79673557,-156.65259580,79.22498170,87.13732804,-157.29324867
-11.20484696,-163.10393850,0.44015153,-3.23828937,42.50893553,-2.58735328
0.07804659,-1.09339280

>  <Name>
2o3v_lig

>  <RI>
0

>  <Rbt.Current_Directory>
/home/afrankz/demos/rdock_decoys_rna/rnas/2o3v

>  <Rbt.Executable>
rbdock ($Id: //depot/dev/client3/rdock/2013.1/src/exe/rbdock.cxx#4 $)

>  <Rbt.Library>
libRbt.so (2013.1, Build901 2013/11/27)

>  <Rbt.Parameter_File>
/export/apps/rDock/src/rDock_2013.1_src/data/scripts/dock_solv.prm

>  <Rbt.Receptor>
prm/blind_docking_60.prm

>  <SCORE>
9.56428

>  <SCORE.INTER>
-7.44431

>  <SCORE.INTER.CONST>
1

>  <SCORE.INTER.POLAR>
-2.81101

>  <SCORE.INTER.ROT>
8

>  <SCORE.INTER.SOLV>
23.7618

>  <SCORE.INTER.VDW>
-12.4468

>  <SCORE.INTER.norm>
-0.212695

>  <SCORE.INTRA>
13.0215

>  <SCORE.INTRA.DIHEDRAL>
13.0423

>  <SCORE.INTRA.DIHEDRAL.0>
13.1227

>  <SCORE.INTRA.POLAR>
0

>  <SCORE.INTRA.POLAR.0>
0

>  <SCORE.INTRA.REPUL>
0

>  <SCORE.INTRA.REPUL.0>
0

>  <SCORE.INTRA.SOLV>
3.70887

>  <SCORE.INTRA.SOLV.lig_0>
-89.1587

>  <SCORE.INTRA.VDW>
4.64586

>  <SCORE.INTRA.VDW.0>
-0.838383

>  <SCORE.INTRA.norm>
0.372042

>  <SCORE.RESTR>
3.98714

>  <SCORE.RESTR.CAVITY>
3.98714

>  <SCORE.RESTR.norm>
0.113918

>  <SCORE.SYSTEM>
0

>  <SCORE.SYSTEM.CONST>
0

>  <SCORE.SYSTEM.DIHEDRAL>
0

>  <SCORE.SYSTEM.SOLV>
0

>  <SCORE.SYSTEM.norm>
0

>  <SCORE.heavy>
35

>  <SCORE.norm>
0.273265

>  <RMSD>
10.376

$$$$
2o3v_lig
 OpenBabel02141814113D
libRbt.so/2013.1/901 2013/11/27
 35 37  0  0  0  0  0  0  0  0999 V2000
   -1.7492   -7.2095   45.9443 C   0  0  2  0  0  0  0  0  0  0  0  0
   -2.9272   -6.9352   45.1258 O   0  0  0  0  0  0  0  0  0  0  0  0
   -6.2982   -7.8446   47.7213 C   0  0  2  0  0  0  0  0  0  0  0  0
   -7.7001   -8.0487   48.1960 N   0  0  0  0  0  0  0  0  0  0  0  0
    6.6144   -4.7475   43.1558 C   0  0  2  0  0  0  0  0  0  0  0  0
    6.5659   -4.4356   44.5650 O   0  0  0  0  0  0  0  0  0  0  0  0
   -0.5882   -6.5681   45.1203 C   0  0  2  0  0  0  0  0  0  0  0  0
   -0.8178   -5.1194   44.9088 N   0  0  0  0  0  0  0  0  0  0  0  0
   -6.0906   -6.3374   47.2624 C   0  0  0  0  0  0  0  0  0  0  0  0
    5.1451   -4.6949   42.6111 C   0  0  2  0  0  0  0  0  0  0  0  0
    4.5326   -3.3650   42.8581 N   0  0  0  0  0  0  0  0  0  0  0  0
   -0.3991   -7.2920   43.7168 C   0  0  1  0  0  0  0  0  0  0  0  0
    0.6798   -6.6391   42.9305 O   0  0  0  0  0  0  0  0  0  0  0  0
   -4.5965   -6.1502   46.7517 C   0  0  2  0  0  0  0  0  0  0  0  0
   -4.3852   -4.7554   46.3085 N   0  0  0  0  0  0  0  0  0  0  0  0
    4.2445   -5.8451   43.2442 C   0  0  1  0  0  0  0  0  0  0  0  0
    2.8871   -5.8408   42.7322 O   0  0  0  0  0  0  0  0  0  0  0  0
   -0.1505   -8.8371   44.0074 C   0  0  2  0  0  0  0  0  0  0  0  0
    0.0057   -9.5720   42.8068 O   0  0  0  0  0  0  0  0  0  0  0  0
   -4.3058   -7.1471   45.5555 C   0  0  2  0  0  0  0  0  0  0  0  0
    4.9189   -7.2220   42.9479 C   0  0  2  0  0  0  0  0  0  0  0  0
    4.1655   -8.2847   43.4980 O   0  0  0  0  0  0  0  0  0  0  0  0
   -1.3366   -9.4391   44.8526 C   0  0  2  0  0  0  0  0  0  0  0  0
   -1.5009   -8.6688   46.1033 O   0  0  0  0  0  0  0  0  0  0  0  0
   -4.5172   -8.6182   46.0112 C   0  0  2  0  0  0  0  0  0  0  0  0
   -4.2728   -9.4706   44.8559 O   0  0  0  0  0  0  0  0  0  0  0  0
    6.3971   -7.2307   43.5085 C   0  0  2  0  0  0  0  0  0  0  0  0
    7.1720   -6.1086   42.9312 O   0  0  0  0  0  0  0  0  0  0  0  0
   -1.1045  -10.9140   45.1776 C   0  0  0  0  0  0  0  0  0  0  0  0
    0.0051  -11.0774   46.0267 O   0  0  0  0  0  0  0  0  0  0  0  0
   -5.9686   -8.8039   46.5122 C   0  0  1  0  0  0  0  0  0  0  0  0
   -6.1323  -10.1445   46.9246 O   0  0  0  0  0  0  0  0  0  0  0  0
    7.1107   -8.5392   43.2041 C   0  0  0  0  0  0  0  0  0  0  0  0
    8.4268   -8.5078   43.7010 O   0  0  0  0  0  0  0  0  0  0  0  0
    1.9952   -6.5202   43.6639 C   0  0  0  0  0  0  0  0  0  0  0  0
  1  2  1  6  0  0  0
  1  7  1  0  0  0  0
  1 24  1  0  0  0  0
  3  4  1  6  0  0  0
  3  9  1  0  0  0  0
  3 31  1  0  0  0  0
  5  6  1  1  0  0  0
  5 10  1  0  0  0  0
  5 28  1  0  0  0  0
  7  8  1  6  0  0  0
  7 12  1  0  0  0  0
  9 14  1  0  0  0  0
 10 11  1  1  0  0  0
 10 16  1  0  0  0  0
 12 13  1  1  0  0  0
 12 18  1  0  0  0  0
 13 35  1  0  0  0  0
 14 15  1  6  0  0  0
 14 20  1  0  0  0  0
 16 17  1  6  0  0  0
 16 21  1  0  0  0  0
 17 35  1  0  0  0  0
 18 19  1  6  0  0  0
 18 23  1  0  0  0  0
 20  2  1  1  0  0  0
 20 25  1  0  0  0  0
 21 22  1  1  0  0  0
 21 27  1  0  0  0  0
 23 24  1  0  0  0  0
 23 29  1  1  0  0  0
 25 26  1  6  0  0  0
 25 31  1  0  0  0  0
 27 28  1  0  0  0  0
 27 33  1  6  0  0  0
 29 30  1  0  0  0  0
 31 32  1  1  0  0  0
 33 34  1  0  0  0  0
M  END
>  <CHROM.1>
-169.91215047,53.67509501,-179.02335271,-158.16275389,-171.43299474,65.03899289
65.59403960,179.26944705,0.23434308,-7.37627684,44.70736606,2.98782859,-0.28664832
3.12530644

>  <Name>
2o3v_lig

>  <RI>
0

>  <Rbt.Current_Directory>
/home/afrankz/demos/rdock_decoys_rna/rnas/2o3v

>  <Rbt.Executable>
rbdock ($Id: //depot/dev/client3/rdock/2013.1/src/exe/rbdock.cxx#4 $)

>  <Rbt.Library>
libRbt.so (2013.1, Build901 2013/11/27)

>  <Rbt.Parameter_File>
/export/apps/rDock/src/rDock_2013.1_src/data/scripts/dock_solv.prm

>  <Rbt.Receptor>
prm/pocket_docking_4.prm

>  <SCORE>
-18.0507

>  <SCORE.INTER>
-12.6272

>  <SCORE.INTER.CONST>
1

>  <SCORE.INTER.POLAR>
-1.58238

>  <SCORE.INTER.ROT>
8

>  <SCORE.INTER.SOLV>
15.7129

>  <SCORE.INTER.VDW>
-17.3145

>  <SCORE.INTER.norm>
-0.360778

>  <SCORE.INTRA>
-5.43784

>  <SCORE.INTRA.DIHEDRAL>
-9.67955

>  <SCORE.INTRA.DIHEDRAL.0>
13.1227

>  <SCORE.INTRA.POLAR>
0

>  <SCORE.INTRA.POLAR.0>
0

>  <SCORE.INTRA.REPUL>
0

>  <SCORE.INTRA.REPUL.0>
0

>  <SCORE.INTRA.SOLV>
0.717671

>  <SCORE.INTRA.SOLV.lig_0>
-89.1587

>  <SCORE.INTRA.VDW>
-0.956903

>  <SCORE.INTRA.VDW.0>
-0.838383

>  <SCORE.INTRA.norm>
-0.155367

>  <SCORE.RESTR>
0.014376

>  <SCORE.RESTR.CAVITY>
0.014376

>  <SCORE.RESTR.norm>
0.000410744

>  <SCORE.SYSTEM>
0

>  <SCORE.SYSTEM.CONST>
0

>  <SCORE.SYSTEM.DIHEDRAL>
0

>  <SCORE.SYSTEM.SOLV>
0

>  <SCORE.SYSTEM.norm>
0

>  <SCORE.heavy>
35

>  <SCORE.norm>
-0.515734

>  <RMSD>
10.376

$$$$
2o3v_lig
 OpenBabel02141814113D
libRbt.so/2013.1/901 2013/11/27
 35 37  0  0  0  0  0  0  0  0999 V2000
    1.8199   -6.9681   43.7917 C   0  0  2  0  0  0  0  0  0  0  0  0
    1.5539   -6.5908   45.1772 O   0  0  0  0  0  0  0  0  0  0  0  0
   -1.1176   -8.2806   48.1664 C   0  0  2  0  0  0  0  0  0  0  0  0
   -1.6749   -9.2002   49.2037 N   0  0  0  0  0  0  0  0  0  0  0  0
   10.2412   -5.3121   47.4706 C   0  0  2  0  0  0  0  0  0  0  0  0
   10.3506   -3.9326   47.0575 O   0  0  0  0  0  0  0  0  0  0  0  0
    3.3338   -7.3501   43.8129 C   0  0  2  0  0  0  0  0  0  0  0  0
    3.5953   -8.4512   44.7697 N   0  0  0  0  0  0  0  0  0  0  0  0
   -0.9572   -9.0487   46.7845 C   0  0  0  0  0  0  0  0  0  0  0  0
    9.0628   -5.9544   46.6600 C   0  0  2  0  0  0  0  0  0  0  0  0
    9.2952   -5.8360   45.1981 N   0  0  0  0  0  0  0  0  0  0  0  0
    4.2469   -6.0985   44.1725 C   0  0  1  0  0  0  0  0  0  0  0  0
    5.6785   -6.4926   44.2310 O   0  0  0  0  0  0  0  0  0  0  0  0
   -0.3524   -8.0524   45.7028 C   0  0  2  0  0  0  0  0  0  0  0  0
   -0.1840   -8.7514   44.4107 N   0  0  0  0  0  0  0  0  0  0  0  0
    7.6617   -5.3075   47.0517 C   0  0  1  0  0  0  0  0  0  0  0  0
    6.5485   -5.9068   46.3402 O   0  0  0  0  0  0  0  0  0  0  0  0
    3.9280   -4.9558   43.1112 C   0  0  2  0  0  0  0  0  0  0  0  0
    4.6818   -3.7846   43.3681 O   0  0  0  0  0  0  0  0  0  0  0  0
    1.0442   -7.4962   46.2022 C   0  0  2  0  0  0  0  0  0  0  0  0
    7.4554   -5.4679   48.5913 C   0  0  2  0  0  0  0  0  0  0  0  0
    6.2267   -4.8998   49.0002 O   0  0  0  0  0  0  0  0  0  0  0  0
    2.3898   -4.6128   43.1126 C   0  0  2  0  0  0  0  0  0  0  0  0
    1.6043   -5.8366   42.8483 O   0  0  0  0  0  0  0  0  0  0  0  0
    0.8792   -6.7521   47.5569 C   0  0  2  0  0  0  0  0  0  0  0  0
    2.2021   -6.3060   47.9718 O   0  0  0  0  0  0  0  0  0  0  0  0
    8.6654   -4.8121   49.3692 C   0  0  2  0  0  0  0  0  0  0  0  0
    9.9456   -5.4097   48.9257 O   0  0  0  0  0  0  0  0  0  0  0  0
    2.0505   -3.5435   42.0751 C   0  0  0  0  0  0  0  0  0  0  0  0
    0.6952   -3.1745   42.1521 O   0  0  0  0  0  0  0  0  0  0  0  0
    0.2878   -7.7167   48.6114 C   0  0  1  0  0  0  0  0  0  0  0  0
    0.1430   -7.0158   49.8287 O   0  0  0  0  0  0  0  0  0  0  0  0
    8.5299   -4.9823   50.8748 C   0  0  0  0  0  0  0  0  0  0  0  0
    9.5941   -4.3448   51.5388 O   0  0  0  0  0  0  0  0  0  0  0  0
    6.5662   -5.4976   44.9411 C   0  0  0  0  0  0  0  0  0  0  0  0
  1  2  1  1  0  0  0
  1  7  1  0  0  0  0
  1 24  1  0  0  0  0
  3  4  1  1  0  0  0
  3  9  1  0  0  0  0
  3 31  1  0  0  0  0
  5  6  1  6  0  0  0
  5 10  1  0  0  0  0
  5 28  1  0  0  0  0
  7  8  1  1  0  0  0
  7 12  1  0  0  0  0
  9 14  1  0  0  0  0
 10 11  1  6  0  0  0
 10 16  1  0  0  0  0
 12 13  1  6  0  0  0
 12 18  1  0  0  0  0
 13 35  1  0  0  0  0
 14 15  1  6  0  0  0
 14 20  1  0  0  0  0
 16 17  1  6  0  0  0
 16 21  1  0  0  0  0
 17 35  1  0  0  0  0
 18 19  1  1  0  0  0
 18 23  1  0  0  0  0
 20  2  1  6  0  0  0
 20 25  1  0  0  0  0
 21 22  1  1  0  0  0
 21 27  1  0  0  0  0
 23 24  1  0  0  0  0
 23 29  1  6  0  0  0
 25 26  1  1  0  0  0
 25 31  1  0  0  0  0
 27 28  1  0  0  0  0
 27 33  1  1  0  0  0
 29 30  1  0  0  0  0
 31 32  1  1  0  0  0
 33 34  1  0  0  0  0
M  END
>  <CHROM.1>
-93.44046578,-163.25012310,89.63136258,-72.06789832,162.40137940,-59.05610550
-175.65278317,-177.76842990,4.21373186,-6.07284720,46.30176256,-2.93826277
0.30763970,1.84064169

>  <Name>
2o3v_lig

>  <RI>
0

>  <Rbt.Current_Directory>
/home/afrankz/demos/rdock_decoys_rna/rnas/2o3v

>  <Rbt.Executable>
rbdock ($Id: //depot/dev/client3/rdock/2013.1/src/exe/rbdock.cxx#4 $)

>  <Rbt.Library>
libRbt.so (2013.1, Build901 2013/11/27)

>  <Rbt.Parameter_File>
/export/apps/rDock/src/rDock_2013.1_src/data/scripts/dock_solv.prm

>  <Rbt.Receptor>
prm/pocket_docking_8.prm

>  <SCORE>
-11.7328

>  <SCORE.INTER>
-11.8144

>  <SCORE.INTER.CONST>
1

>  <SCORE.INTER.POLAR>
-1.67366

>  <SCORE.INTER.ROT>
8

>  <SCORE.INTER.SOLV>
17.8585

>  <SCORE.INTER.VDW>
-17.1836

>  <SCORE.INTER.norm>
-0.337554

>  <SCORE.INTRA>
0.0815637

>  <SCORE.INTRA.DIHEDRAL>
-1.80574

>  <SCORE.INTRA.DIHEDRAL.0>
13.1227

>  <SCORE.INTRA.POLAR>
0

>  <SCORE.INTRA.POLAR.0>
0

>  <SCORE.INTRA.REPUL>
0.0039382

>  <SCORE.INTRA.REPUL.0>
0

>  <SCORE.INTRA.SOLV>
2.65119

>  <SCORE.INTRA.SOLV.lig_0>
-89.1587

>  <SCORE.INTRA.VDW>
-0.36085

>  <SCORE.INTRA.VDW.0>
-0.838383

>  <SCORE.INTRA.norm>
0.00233039

>  <SCORE.RESTR>
0

>  <SCORE.RESTR.CAVITY>
0

>  <SCORE.RESTR.norm>
0

>  <SCORE.SYSTEM>
0

>  <SCORE.SYSTEM.CONST>
0

>  <SCORE.SYSTEM.DIHEDRAL>
0

>  <SCORE.SYSTEM.SOLV>
0

>  <SCORE.SYSTEM.norm>
0

>  <SCORE.heavy>
35

>  <SCORE.norm>
-0.335223

>  <RMSD>
10.381

$$$$
2o3v_lig
 OpenBabel02141814113D
libRbt.so/2013.1/901 2013/11/27
 35 37  0  0  0  0  0  0  0  0999 V2000
   -2.4908   -8.1507   46.6245 C   0  0  2  0  0  0  0  0  0  0  0  0
   -3.8046   -8.2347   45.9924 O   0  0  0  0  0  0  0  0  0  0  0  0
   -7.8446   -8.6159   47.5611 C   0  0  2  0  0  0  0  0  0  0  0  0
   -9.0743   -9.2113   48.1656 N   0  0  0  0  0  0  0  0  0  0  0  0
    3.3730   -2.6967   42.9469 C   0  0  2  0  0  0  0  0  0  0  0  0
    2.9638   -2.2845   44.2691 O   0  0  0  0  0  0  0  0  0  0  0  0
   -1.6679   -7.2859   45.6177 C   0  0  2  0  0  0  0  0  0  0  0  0
   -2.2949   -5.9586   45.4143 N   0  0  0  0  0  0  0  0  0  0  0  0
   -7.4998   -9.3463   46.1925 C   0  0  0  0  0  0  0  0  0  0  0  0
    2.2534   -3.6361   42.3789 C   0  0  2  0  0  0  0  0  0  0  0  0
    0.9392   -2.9453   42.3563 N   0  0  0  0  0  0  0  0  0  0  0  0
   -1.5009   -8.0210   44.2173 C   0  0  1  0  0  0  0  0  0  0  0  0
   -0.7540   -7.1637   43.2603 O   0  0  0  0  0  0  0  0  0  0  0  0
   -6.1826   -8.7027   45.5768 C   0  0  2  0  0  0  0  0  0  0  0  0
   -5.8371   -9.3767   44.3068 N   0  0  0  0  0  0  0  0  0  0  0  0
    2.1516   -4.9923   43.2067 C   0  0  1  0  0  0  0  0  0  0  0  0
    1.1450   -5.8957   42.6819 O   0  0  0  0  0  0  0  0  0  0  0  0
   -0.8193   -9.4317   44.4981 C   0  0  2  0  0  0  0  0  0  0  0  0
   -0.6515  -10.1735   43.3034 O   0  0  0  0  0  0  0  0  0  0  0  0
   -4.9843   -8.8384   46.6039 C   0  0  2  0  0  0  0  0  0  0  0  0
    3.5493   -5.6884   43.1909 C   0  0  2  0  0  0  0  0  0  0  0  0
    3.5218   -6.8980   43.9228 O   0  0  0  0  0  0  0  0  0  0  0  0
   -1.6732  -10.2636   45.5289 C   0  0  2  0  0  0  0  0  0  0  0  0
   -1.8507   -9.4866   46.7736 O   0  0  0  0  0  0  0  0  0  0  0  0
   -5.3324   -8.1268   47.9413 C   0  0  2  0  0  0  0  0  0  0  0  0
   -4.2081   -8.3264   48.8454 O   0  0  0  0  0  0  0  0  0  0  0  0
    4.6474   -4.7073   43.7661 C   0  0  2  0  0  0  0  0  0  0  0  0
    4.6598   -3.4422   42.9965 O   0  0  0  0  0  0  0  0  0  0  0  0
   -1.0207  -11.6087   45.8446 C   0  0  0  0  0  0  0  0  0  0  0  0
   -1.0151  -12.4470   44.7150 O   0  0  0  0  0  0  0  0  0  0  0  0
   -6.6152   -8.7475   48.5421 C   0  0  1  0  0  0  0  0  0  0  0  0
   -6.9120   -8.0809   49.7511 O   0  0  0  0  0  0  0  0  0  0  0  0
    6.0360   -5.3274   43.7299 C   0  0  0  0  0  0  0  0  0  0  0  0
    6.4116   -5.6137   42.4044 O   0  0  0  0  0  0  0  0  0  0  0  0
    0.6051   -6.7248   43.7526 C   0  0  0  0  0  0  0  0  0  0  0  0
  1  2  1  6  0  0  0
  1  7  1  0  0  0  0
  1 24  1  0  0  0  0
  3  4  1  1  0  0  0
  3  9  1  0  0  0  0
  3 31  1  0  0  0  0
  5  6  1  1  0  0  0
  5 10  1  0  0  0  0
  5 28  1  0  0  0  0
  7  8  1  6  0  0  0
  7 12  1  0  0  0  0
  9 14  1  0  0  0  0
 10 11  1  1  0  0  0
 10 16  1  0  0  0  0
 12 13  1  6  0  0  0
 12 18  1  0  0  0  0
 13 35  1  0  0  0  0
 14 15  1  6  0  0  0
 14 20  1  0  0  0  0
 16 17  1  6  0  0  0
 16 21  1  0  0  0  0
 17 35  1  0  0  0  0
 18 19  1  6  0  0  0
 18 23  1  0  0  0  0
 20  2  1  6  0  0  0
 20 25  1  0  0  0  0
 21 22  1  1  0  0  0
 21 27  1  0  0  0  0
 23 24  1  0  0  0  0
 23 29  1  1  0  0  0
 25 26  1  1  0  0  0
 25 31  1  0  0  0  0
 27 28  1  0  0  0  0
 27 33  1  6  0  0  0
 29 30  1  0  0  0  0
 31 32  1  1  0  0  0
 33 34  1  0  0  0  0
M  END
>  <CHROM.1>
-173.86691946,56.46092748,-179.36077390,-150.93181188,156.85938375,179.64517401
-66.52036695,61.60818665,-1.12797643,-7.33176308,45.04205007,-2.75755915
0.41268237,0.03305227

>  <Name>
2o3v_lig

>  <RI>
0

>  <Rbt.Current_Directory>
/home/afrankz/demos/rdock_decoys_rna/rnas/2o3v

>  <Rbt.Executable>
rbdock ($Id: //depot/dev/client3/rdock/2013.1/src/exe/rbdock.cxx#4 $)

>  <Rbt.Library>
libRbt.so (2013.1, Build901 2013/11/27)

>  <Rbt.Parameter_File>
/export/apps/rDock/src/rDock_2013.1_src/data/scripts/dock_solv.prm

>  <Rbt.Receptor>
prm/pocket_docking_7.prm

>  <SCORE>
-14.9581

>  <SCORE.INTER>
-10.4804

>  <SCORE.INTER.CONST>
1

>  <SCORE.INTER.POLAR>
-1.82502

>  <SCORE.INTER.ROT>
8

>  <SCORE.INTER.SOLV>
8.86402

>  <SCORE.INTER.VDW>
-12.7915

>  <SCORE.INTER.norm>
-0.29944

>  <SCORE.INTRA>
-4.4777

>  <SCORE.INTRA.DIHEDRAL>
-6.91051

>  <SCORE.INTRA.DIHEDRAL.0>
13.1227

>  <SCORE.INTRA.POLAR>
0

>  <SCORE.INTRA.POLAR.0>
0

>  <SCORE.INTRA.REPUL>
0

>  <SCORE.INTRA.REPUL.0>
0

>  <SCORE.INTRA.SOLV>
-0.707353

>  <SCORE.INTRA.SOLV.lig_0>
-89.1587

>  <SCORE.INTRA.VDW>
-0.668763

>  <SCORE.INTRA.VDW.0>
-0.838383

>  <SCORE.INTRA.norm>
-0.127934

>  <SCORE.RESTR>
0

>  <SCORE.RESTR.CAVITY>
0

>  <SCORE.RESTR.norm>
0

>  <SCORE.SYSTEM>
0

>  <SCORE.SYSTEM.CONST>
0

>  <SCORE.SYSTEM.DIHEDRAL>
0

>  <SCORE.SYSTEM.SOLV>
0

>  <SCORE.SYSTEM.norm>
0

>  <SCORE.heavy>
35

>  <SCORE.norm>
-0.427374

>  <RMSD>
10.386

$$$$
2o3v_lig
 OpenBabel02141814113D
libRbt.so/2013.1/901 2013/11/27
 35 37  0  0  0  0  0  0  0  0999 V2000
   -3.0182   -7.3832   46.3836 C   0  0  2  0  0  0  0  0  0  0  0  0
   -4.0971   -7.9566   45.5837 O   0  0  0  0  0  0  0  0  0  0  0  0
   -8.3285   -8.7178   46.2494 C   0  0  2  0  0  0  0  0  0  0  0  0
   -9.5885   -9.3236   46.7765 N   0  0  0  0  0  0  0  0  0  0  0  0
    3.3417   -2.6108   42.4557 C   0  0  2  0  0  0  0  0  0  0  0  0
    2.7681   -1.9055   43.5778 O   0  0  0  0  0  0  0  0  0  0  0  0
   -2.0629   -6.7770   45.3074 C   0  0  2  0  0  0  0  0  0  0  0  0
   -2.7625   -5.7684   44.4769 N   0  0  0  0  0  0  0  0  0  0  0  0
   -7.4853   -9.8100   45.4610 C   0  0  0  0  0  0  0  0  0  0  0  0
    2.3040   -3.6941   42.0000 C   0  0  2  0  0  0  0  0  0  0  0  0
    1.0026   -3.0709   41.6493 N   0  0  0  0  0  0  0  0  0  0  0  0
   -1.4446   -7.9060   44.3731 C   0  0  1  0  0  0  0  0  0  0  0  0
   -0.5744   -7.3050   43.3292 O   0  0  0  0  0  0  0  0  0  0  0  0
   -6.1463   -9.1436   44.9213 C   0  0  2  0  0  0  0  0  0  0  0  0
   -5.3403  -10.1471   44.1935 N   0  0  0  0  0  0  0  0  0  0  0  0
    2.0992   -4.8137   43.1133 C   0  0  1  0  0  0  0  0  0  0  0  0
    1.1681   -5.8482   42.7042 O   0  0  0  0  0  0  0  0  0  0  0  0
   -0.7036   -8.9520   45.3168 C   0  0  2  0  0  0  0  0  0  0  0  0
   -0.1388  -10.0146   44.5700 O   0  0  0  0  0  0  0  0  0  0  0  0
   -5.3109   -8.5541   46.1313 C   0  0  2  0  0  0  0  0  0  0  0  0
    3.4883   -5.4487   43.4386 C   0  0  2  0  0  0  0  0  0  0  0  0
    3.3693   -6.4467   44.4332 O   0  0  0  0  0  0  0  0  0  0  0  0
   -1.6989   -9.5263   46.3953 C   0  0  2  0  0  0  0  0  0  0  0  0
   -2.2905   -8.4161   47.1712 O   0  0  0  0  0  0  0  0  0  0  0  0
   -6.1451   -7.4916   46.9004 C   0  0  2  0  0  0  0  0  0  0  0  0
   -5.3332   -7.0256   48.0161 O   0  0  0  0  0  0  0  0  0  0  0  0
    4.5039   -4.3237   43.8886 C   0  0  2  0  0  0  0  0  0  0  0  0
    4.6125   -3.2814   42.8424 O   0  0  0  0  0  0  0  0  0  0  0  0
   -1.0027  -10.5062   47.3387 C   0  0  0  0  0  0  0  0  0  0  0  0
   -1.9033  -11.0224   48.2881 O   0  0  0  0  0  0  0  0  0  0  0  0
   -7.4505   -8.1348   47.4241 C   0  0  1  0  0  0  0  0  0  0  0  0
   -8.1910   -7.1491   48.1127 O   0  0  0  0  0  0  0  0  0  0  0  0
    5.8864   -4.8901   44.1747 C   0  0  0  0  0  0  0  0  0  0  0  0
    5.8612   -5.6834   45.3367 O   0  0  0  0  0  0  0  0  0  0  0  0
    0.5611   -6.4708   43.8743 C   0  0  0  0  0  0  0  0  0  0  0  0
  1  2  1  6  0  0  0
  1  7  1  0  0  0  0
  1 24  1  0  0  0  0
  3  4  1  1  0  0  0
  3  9  1  0  0  0  0
  3 31  1  0  0  0  0
  5  6  1  1  0  0  0
  5 10  1  0  0  0  0
  5 28  1  0  0  0  0
  7  8  1  6  0  0  0
  7 12  1  0  0  0  0
  9 14  1  0  0  0  0
 10 11  1  1  0  0  0
 10 16  1  0  0  0  0
 12 13  1  6  0  0  0
 12 18  1  0  0  0  0
 13 35  1  0  0  0  0
 14 15  1  1  0  0  0
 14 20  1  0  0  0  0
 16 17  1  6  0  0  0
 16 21  1  0  0  0  0
 17 35  1  0  0  0  0
 18 19  1  6  0  0  0
 18 23  1  0  0  0  0
 20  2  1  6  0  0  0
 20 25  1  0  0  0  0
 21 22  1  1  0  0  0
 21 27  1  0  0  0  0
 23 24  1  0  0  0  0
 23 29  1  1  0  0  0
 25 26  1  1  0  0  0
 25 31  1  0  0  0  0
 27 28  1  0  0  0  0
 27 33  1  6  0  0  0
 29 30  1  0  0  0  0
 31 32  1  6  0  0  0
 33 34  1  0  0  0  0
M  END
>  <CHROM.1>
-174.71413370,57.65655168,-172.89242175,-154.56543917,168.56926969,-175.72729153
-179.40262820,-69.29188210,-1.37020854,-7.00995120,45.05115323,-2.65121213
0.07758404,-0.49109787

>  <Name>
2o3v_lig

>  <RI>
0

>  <Rbt.Current_Directory>
/home/afrankz/demos/rdock_decoys_rna/rnas/2o3v

>  <Rbt.Executable>
rbdock ($Id: //depot/dev/client3/rdock/2013.1/src/exe/rbdock.cxx#4 $)

>  <Rbt.Library>
libRbt.so (2013.1, Build901 2013/11/27)

>  <Rbt.Parameter_File>
/export/apps/rDock/src/rDock_2013.1_src/data/scripts/dock_solv.prm

>  <Rbt.Receptor>
prm/pocket_docking_5.prm

>  <SCORE>
-14.3651

>  <SCORE.INTER>
-8.72777

>  <SCORE.INTER.CONST>
1

>  <SCORE.INTER.POLAR>
-1.81086

>  <SCORE.INTER.ROT>
8

>  <SCORE.INTER.SOLV>
5.82631

>  <SCORE.INTER.VDW>
-10.6578

>  <SCORE.INTER.norm>
-0.249365

>  <SCORE.INTRA>
-5.63733

>  <SCORE.INTRA.DIHEDRAL>
-8.90185

>  <SCORE.INTRA.DIHEDRAL.0>
13.1227

>  <SCORE.INTRA.POLAR>
0

>  <SCORE.INTRA.POLAR.0>
0

>  <SCORE.INTRA.REPUL>
0

>  <SCORE.INTRA.REPUL.0>
0

>  <SCORE.INTRA.SOLV>
-0.988377

>  <SCORE.INTRA.SOLV.lig_0>
-89.1587

>  <SCORE.INTRA.VDW>
-0.692219

>  <SCORE.INTRA.VDW.0>
-0.838383

>  <SCORE.INTRA.norm>
-0.161067

>  <SCORE.RESTR>
0

>  <SCORE.RESTR.CAVITY>
0

>  <SCORE.RESTR.norm>
0

>  <SCORE.SYSTEM>
0

>  <SCORE.SYSTEM.CONST>
0

>  <SCORE.SYSTEM.DIHEDRAL>
0

>  <SCORE.SYSTEM.SOLV>
0

>  <SCORE.SYSTEM.norm>
0

>  <SCORE.heavy>
35

>  <SCORE.norm>
-0.410431

>  <RMSD>
10.390

$$$$
2o3v_lig
 OpenBabel02141814113D
libRbt.so/2013.1/901 2013/11/27
 35 37  0  0  0  0  0  0  0  0999 V2000
   -1.6987   -7.2748   44.3425 C   0  0  2  0  0  0  0  0  0  0  0  0
   -1.5303   -6.6936   45.6716 O   0  0  0  0  0  0  0  0  0  0  0  0
   -5.3668   -4.8328   46.5351 C   0  0  2  0  0  0  0  0  0  0  0  0
   -6.4502   -4.1002   47.2575 N   0  0  0  0  0  0  0  0  0  0  0  0
    8.3088   -6.6215   43.3331 C   0  0  2  0  0  0  0  0  0  0  0  0
    8.1598   -5.4641   42.4823 O   0  0  0  0  0  0  0  0  0  0  0  0
   -0.3194   -7.9569   44.0767 C   0  0  2  0  0  0  0  0  0  0  0  0
   -0.0142   -8.9705   45.1138 N   0  0  0  0  0  0  0  0  0  0  0  0
   -4.9803   -6.1557   47.3262 C   0  0  0  0  0  0  0  0  0  0  0  0
    7.0023   -7.4775   43.1968 C   0  0  2  0  0  0  0  0  0  0  0  0
    6.7631   -7.8629   41.7828 N   0  0  0  0  0  0  0  0  0  0  0  0
    0.8567   -6.8885   44.0078 C   0  0  1  0  0  0  0  0  0  0  0  0
    2.1653   -7.5611   43.7987 O   0  0  0  0  0  0  0  0  0  0  0  0
   -3.8192   -6.9093   46.5437 C   0  0  2  0  0  0  0  0  0  0  0  0
   -3.4361   -8.1390   47.2700 N   0  0  0  0  0  0  0  0  0  0  0  0
    5.7362   -6.7108   43.7832 C   0  0  1  0  0  0  0  0  0  0  0  0
    4.5178   -7.4941   43.7003 O   0  0  0  0  0  0  0  0  0  0  0  0
    0.4772   -5.8346   42.8770 C   0  0  2  0  0  0  0  0  0  0  0  0
    1.4617   -4.8232   42.7593 O   0  0  0  0  0  0  0  0  0  0  0  0
   -2.5626   -5.9566   46.3937 C   0  0  2  0  0  0  0  0  0  0  0  0
    6.0277   -6.3393   45.2717 C   0  0  2  0  0  0  0  0  0  0  0  0
    4.9373   -5.6441   45.8438 O   0  0  0  0  0  0  0  0  0  0  0  0
   -0.9261   -5.1828   43.1763 C   0  0  2  0  0  0  0  0  0  0  0  0
   -1.9516   -6.2396   43.3027 O   0  0  0  0  0  0  0  0  0  0  0  0
   -2.9509   -4.6629   45.6245 C   0  0  2  0  0  0  0  0  0  0  0  0
   -1.7633   -3.8223   45.5603 O   0  0  0  0  0  0  0  0  0  0  0  0
    7.3529   -5.4822   45.3644 C   0  0  2  0  0  0  0  0  0  0  0  0
    8.4842   -6.2178   44.7545 O   0  0  0  0  0  0  0  0  0  0  0  0
   -1.3316   -4.1933   42.0849 C   0  0  0  0  0  0  0  0  0  0  0  0
   -2.5623   -3.5823   42.3864 O   0  0  0  0  0  0  0  0  0  0  0  0
   -4.0827   -3.9283   46.3805 C   0  0  1  0  0  0  0  0  0  0  0  0
   -4.4199   -2.7620   45.6594 O   0  0  0  0  0  0  0  0  0  0  0  0
    7.7020   -5.1327   46.8031 C   0  0  0  0  0  0  0  0  0  0  0  0
    7.9135   -6.3030   47.5552 O   0  0  0  0  0  0  0  0  0  0  0  0
    3.3523   -6.6269   43.8219 C   0  0  0  0  0  0  0  0  0  0  0  0
  1  2  1  1  0  0  0
  1  7  1  0  0  0  0
  1 24  1  0  0  0  0
  3  4  1  1  0  0  0
  3  9  1  0  0  0  0
  3 31  1  0  0  0  0
  5  6  1  6  0  0  0
  5 10  1  0  0  0  0
  5 28  1  0  0  0  0
  7  8  1  1  0  0  0
  7 12  1  0  0  0  0
  9 14  1  0  0  0  0
 10 11  1  6  0  0  0
 10 16  1  0  0  0  0
 12 13  1  6  0  0  0
 12 18  1  0  0  0  0
 13 35  1  0  0  0  0
 14 15  1  1  0  0  0
 14 20  1  0  0  0  0
 16 17  1  1  0  0  0
 16 21  1  0  0  0  0
 17 35  1  0  0  0  0
 18 19  1  1  0  0  0
 18 23  1  0  0  0  0
 20  2  1  6  0  0  0
 20 25  1  0  0  0  0
 21 22  1  6  0  0  0
 21 27  1  0  0  0  0
 23 24  1  0  0  0  0
 23 29  1  6  0  0  0
 25 26  1  1  0  0  0
 25 31  1  0  0  0  0
 27 28  1  0  0  0  0
 27 33  1  1  0  0  0
 29 30  1  0  0  0  0
 31 32  1  6  0  0  0
 33 34  1  0  0  0  0
M  END
>  <CHROM.1>
-178.83273465,-175.75903598,175.91968307,-161.23147181,-176.92495401,57.73124846
-177.87880256,60.85757122,1.22520951,-5.97003671,44.72520134,3.02810488,-0.12030520
1.64916907

>  <Name>
2o3v_lig

>  <RI>
0

>  <Rbt.Current_Directory>
/home/afrankz/demos/rdock_decoys_rna/rnas/2o3v

>  <Rbt.Executable>
rbdock ($Id: //depot/dev/client3/rdock/2013.1/src/exe/rbdock.cxx#4 $)

>  <Rbt.Library>
libRbt.so (2013.1, Build901 2013/11/27)

>  <Rbt.Parameter_File>
/export/apps/rDock/src/rDock_2013.1_src/data/scripts/dock_solv.prm

>  <Rbt.Receptor>
prm/pocket_docking_7.prm

>  <SCORE>
-12.3037

>  <SCORE.INTER>
-5.9391

>  <SCORE.INTER.CONST>
1

>  <SCORE.INTER.POLAR>
0

>  <SCORE.INTER.ROT>
8

>  <SCORE.INTER.SOLV>
15.8281

>  <SCORE.INTER.VDW>
-18.1688

>  <SCORE.INTER.norm>
-0.169688

>  <SCORE.INTRA>
-6.3646

>  <SCORE.INTRA.DIHEDRAL>
-11.2004

>  <SCORE.INTRA.DIHEDRAL.0>
13.1227

>  <SCORE.INTRA.POLAR>
0

>  <SCORE.INTRA.POLAR.0>
0

>  <SCORE.INTRA.REPUL>
0

>  <SCORE.INTRA.REPUL.0>
0

>  <SCORE.INTRA.SOLV>
0.302265

>  <SCORE.INTRA.SOLV.lig_0>
-89.1587

>  <SCORE.INTRA.VDW>
-0.915524

>  <SCORE.INTRA.VDW.0>
-0.838383

>  <SCORE.INTRA.norm>
-0.181846

>  <SCORE.RESTR>
0

>  <SCORE.RESTR.CAVITY>
0

>  <SCORE.RESTR.norm>
0

>  <SCORE.SYSTEM>
0

>  <SCORE.SYSTEM.CONST>
0

>  <SCORE.SYSTEM.DIHEDRAL>
0

>  <SCORE.SYSTEM.SOLV>
0

>  <SCORE.SYSTEM.norm>
0

>  <SCORE.heavy>
35

>  <SCORE.norm>
-0.351534

>  <RMSD>
10.394

$$$$
2o3v_lig
 OpenBabel02141814113D
libRbt.so/2013.1/901 2013/11/27
 35 37  0  0  0  0  0  0  0  0999 V2000
   -4.2183   -8.4951   46.3918 C   0  0  2  0  0  0  0  0  0  0  0  0
   -4.0239   -7.3896   47.3262 O   0  0  0  0  0  0  0  0  0  0  0  0
   -7.9485   -6.7567   49.0936 C   0  0  2  0  0  0  0  0  0  0  0  0
   -9.0312   -6.2235   49.9743 N   0  0  0  0  0  0  0  0  0  0  0  0
    3.9451   -5.7416   44.8423 C   0  0  2  0  0  0  0  0  0  0  0  0
    3.3467   -5.4923   46.1328 O   0  0  0  0  0  0  0  0  0  0  0  0
   -2.8128   -8.6505   45.7294 C   0  0  2  0  0  0  0  0  0  0  0  0
   -1.7701   -8.9312   46.7444 N   0  0  0  0  0  0  0  0  0  0  0  0
   -6.8404   -7.4848   49.9696 C   0  0  0  0  0  0  0  0  0  0  0  0
    2.8104   -5.6253   43.7667 C   0  0  2  0  0  0  0  0  0  0  0  0
    2.1592   -4.2919   43.8213 N   0  0  0  0  0  0  0  0  0  0  0  0
   -2.4145   -7.3567   44.8945 C   0  0  1  0  0  0  0  0  0  0  0  0
   -1.0567   -7.5068   44.3097 O   0  0  0  0  0  0  0  0  0  0  0  0
   -5.6959   -8.0319   49.0109 C   0  0  2  0  0  0  0  0  0  0  0  0
   -4.6475   -8.7038   49.8082 N   0  0  0  0  0  0  0  0  0  0  0  0
    1.7252   -6.7784   43.9334 C   0  0  1  0  0  0  0  0  0  0  0  0
    0.6801   -6.7148   42.9293 O   0  0  0  0  0  0  0  0  0  0  0  0
   -3.5634   -7.1105   43.8207 C   0  0  2  0  0  0  0  0  0  0  0  0
   -3.3058   -5.9565   43.0411 O   0  0  0  0  0  0  0  0  0  0  0  0
   -5.0645   -6.8356   48.1866 C   0  0  2  0  0  0  0  0  0  0  0  0
    2.4525   -8.1581   43.8555 C   0  0  2  0  0  0  0  0  0  0  0  0
    1.5360   -9.2239   44.0086 O   0  0  0  0  0  0  0  0  0  0  0  0
   -4.9642   -6.9749   44.5301 C   0  0  2  0  0  0  0  0  0  0  0  0
   -5.2299   -8.1780   45.3464 O   0  0  0  0  0  0  0  0  0  0  0  0
   -6.1559   -6.1254   47.3377 C   0  0  2  0  0  0  0  0  0  0  0  0
   -5.5140   -5.0184   46.6424 O   0  0  0  0  0  0  0  0  0  0  0  0
    3.5895   -8.2315   44.9515 C   0  0  2  0  0  0  0  0  0  0  0  0
    4.5369   -7.1056   44.7850 O   0  0  0  0  0  0  0  0  0  0  0  0
   -6.0910   -6.7748   43.5176 C   0  0  0  0  0  0  0  0  0  0  0  0
   -7.3333   -6.6361   44.1627 O   0  0  0  0  0  0  0  0  0  0  0  0
   -7.2732   -5.5946   48.2662 C   0  0  1  0  0  0  0  0  0  0  0  0
   -8.2528   -4.9601   47.4713 O   0  0  0  0  0  0  0  0  0  0  0  0
    4.3564   -9.5435   44.8852 C   0  0  0  0  0  0  0  0  0  0  0  0
    5.0699   -9.6347   43.6758 O   0  0  0  0  0  0  0  0  0  0  0  0
   -0.5781   -6.2997   43.5375 C   0  0  0  0  0  0  0  0  0  0  0  0
  1  2  1  1  0  0  0
  1  7  1  0  0  0  0
  1 24  1  0  0  0  0
  3  4  1  1  0  0  0
  3  9  1  0  0  0  0
  3 31  1  0  0  0  0
  5  6  1  1  0  0  0
  5 10  1  0  0  0  0
  5 28  1  0  0  0  0
  7  8  1  1  0  0  0
  7 12  1  0  0  0  0
  9 14  1  0  0  0  0
 10 11  1  1  0  0  0
 10 16  1  0  0  0  0
 12 13  1  6  0  0  0
 12 18  1  0  0  0  0
 13 35  1  0  0  0  0
 14 15  1  1  0  0  0
 14 20  1  0  0  0  0
 16 17  1  6  0  0  0
 16 21  1  0  0  0  0
 17 35  1  0  0  0  0
 18 19  1  1  0  0  0
 18 23  1  0  0  0  0
 20  2  1  6  0  0  0
 20 25  1  0  0  0  0
 21 22  1  1  0  0  0
 21 27  1  0  0  0  0
 23 24  1  0  0  0  0
 23 29  1  6  0  0  0
 25 26  1  1  0  0  0
 25 31  1  0  0  0  0
 27 28  1  0  0  0  0
 27 33  1  6  0  0  0
 29 30  1  0  0  0  0
 31 32  1  6  0  0  0
 33 34  1  0  0  0  0
M  END
>  <CHROM.1>
178.98883451,-177.99248415,-173.51431958,-109.72541449,-73.98432340,53.55270768
-179.16571034,65.68228073,-2.18375251,-7.09564070,45.69328133,-2.85611609
0.18238007,-1.23051145

>  <Name>
2o3v_lig

>  <RI>
0

>  <Rbt.Current_Directory>
/home/afrankz/demos/rdock_decoys_rna/rnas/2o3v

>  <Rbt.Executable>
rbdock ($Id: //depot/dev/client3/rdock/2013.1/src/exe/rbdock.cxx#4 $)

>  <Rbt.Library>
libRbt.so (2013.1, Build901 2013/11/27)

>  <Rbt.Parameter_File>
/export/apps/rDock/src/rDock_2013.1_src/data/scripts/dock_solv.prm

>  <Rbt.Receptor>
prm/pocket_docking_3.prm

>  <SCORE>
-8.39211

>  <SCORE.INTER>
-4.44681

>  <SCORE.INTER.CONST>
1

>  <SCORE.INTER.POLAR>
-0.792225

>  <SCORE.INTER.ROT>
8

>  <SCORE.INTER.SOLV>
6.53341

>  <SCORE.INTER.VDW>
-11.4349

>  <SCORE.INTER.norm>
-0.127052

>  <SCORE.INTRA>
-4.32435

>  <SCORE.INTRA.DIHEDRAL>
-4.9085

>  <SCORE.INTRA.DIHEDRAL.0>
13.1227

>  <SCORE.INTRA.POLAR>
0

>  <SCORE.INTRA.POLAR.0>
0

>  <SCORE.INTRA.REPUL>
0

>  <SCORE.INTRA.REPUL.0>
0

>  <SCORE.INTRA.SOLV>
0.872179

>  <SCORE.INTRA.SOLV.lig_0>
-89.1587

>  <SCORE.INTRA.VDW>
-2.30619

>  <SCORE.INTRA.VDW.0>
-0.838383

>  <SCORE.INTRA.norm>
-0.123553

>  <SCORE.RESTR>
0.379051

>  <SCORE.RESTR.CAVITY>
0.379051

>  <SCORE.RESTR.norm>
0.01083

>  <SCORE.SYSTEM>
0

>  <SCORE.SYSTEM.CONST>
0

>  <SCORE.SYSTEM.DIHEDRAL>
0

>  <SCORE.SYSTEM.SOLV>
0

>  <SCORE.SYSTEM.norm>
0

>  <SCORE.heavy>
35

>  <SCORE.norm>
-0.239775

>  <RMSD>
10.401

$$$$
2o3v_lig
 OpenBabel02141814113D
libRbt.so/2013.1/901 2013/11/27
 35 37  0  0  0  0  0  0  0  0999 V2000
   -2.0170   -6.5289   45.7279 C   0  0  2  0  0  0  0  0  0  0  0  0
   -3.1164   -6.4439   44.7704 O   0  0  0  0  0  0  0  0  0  0  0  0
   -6.6605   -7.4133   47.1000 C   0  0  2  0  0  0  0  0  0  0  0  0
   -8.0908   -7.6433   47.4654 N   0  0  0  0  0  0  0  0  0  0  0  0
    6.6166   -4.7730   43.2928 C   0  0  2  0  0  0  0  0  0  0  0  0
    6.5337   -4.5140   44.7111 O   0  0  0  0  0  0  0  0  0  0  0  0
   -0.7822   -6.0658   44.8917 C   0  0  2  0  0  0  0  0  0  0  0  0
   -0.9781   -4.6964   44.3602 N   0  0  0  0  0  0  0  0  0  0  0  0
   -6.4465   -5.9031   46.6540 C   0  0  0  0  0  0  0  0  0  0  0  0
    5.1619   -4.6920   42.7134 C   0  0  2  0  0  0  0  0  0  0  0  0
    4.5494   -3.3689   42.9948 N   0  0  0  0  0  0  0  0  0  0  0  0
   -0.4788   -7.0679   43.6944 C   0  0  1  0  0  0  0  0  0  0  0  0
    0.6709   -6.5863   42.8854 O   0  0  0  0  0  0  0  0  0  0  0  0
   -4.9210   -5.6883   46.2599 C   0  0  2  0  0  0  0  0  0  0  0  0
   -4.7024   -4.2904   45.8303 N   0  0  0  0  0  0  0  0  0  0  0  0
    4.2403   -5.8601   43.2797 C   0  0  1  0  0  0  0  0  0  0  0  0
    2.8964   -5.8292   42.7340 O   0  0  0  0  0  0  0  0  0  0  0  0
   -0.2718   -8.5146   44.3251 C   0  0  2  0  0  0  0  0  0  0  0  0
   -0.0189   -9.4849   43.3249 O   0  0  0  0  0  0  0  0  0  0  0  0
   -4.5199   -6.6813   45.0928 C   0  0  2  0  0  0  0  0  0  0  0  0
    4.9158   -7.2286   42.9488 C   0  0  2  0  0  0  0  0  0  0  0  0
    4.1438   -8.3070   43.4393 O   0  0  0  0  0  0  0  0  0  0  0  0
   -1.5330   -8.9351   45.1715 C   0  0  2  0  0  0  0  0  0  0  0  0
   -1.7979   -7.9196   46.2123 O   0  0  0  0  0  0  0  0  0  0  0  0
   -4.7381   -8.1554   45.5351 C   0  0  2  0  0  0  0  0  0  0  0  0
   -4.3889   -9.0048   44.4047 O   0  0  0  0  0  0  0  0  0  0  0  0
    6.3791   -7.2665   43.5459 C   0  0  2  0  0  0  0  0  0  0  0  0
    7.1736   -6.1278   43.0312 O   0  0  0  0  0  0  0  0  0  0  0  0
   -1.3447  -10.3061   45.8193 C   0  0  0  0  0  0  0  0  0  0  0  0
   -1.2674  -11.3197   44.8470 O   0  0  0  0  0  0  0  0  0  0  0  0
   -6.2202   -8.3680   45.9228 C   0  0  1  0  0  0  0  0  0  0  0  0
   -6.3901   -9.7109   46.3253 O   0  0  0  0  0  0  0  0  0  0  0  0
    7.0943   -8.5665   43.2106 C   0  0  0  0  0  0  0  0  0  0  0  0
    7.2643   -8.6887   41.8192 O   0  0  0  0  0  0  0  0  0  0  0  0
    1.9628   -6.4608   43.6585 C   0  0  0  0  0  0  0  0  0  0  0  0
  1  2  1  6  0  0  0
  1  7  1  0  0  0  0
  1 24  1  0  0  0  0
  3  4  1  6  0  0  0
  3  9  1  0  0  0  0
  3 31  1  0  0  0  0
  5  6  1  1  0  0  0
  5 10  1  0  0  0  0
  5 28  1  0  0  0  0
  7  8  1  6  0  0  0
  7 12  1  0  0  0  0
  9 14  1  0  0  0  0
 10 11  1  1  0  0  0
 10 16  1  0  0  0  0
 12 13  1  1  0  0  0
 12 18  1  0  0  0  0
 13 35  1  0  0  0  0
 14 15  1  6  0  0  0
 14 20  1  0  0  0  0
 16 17  1  6  0  0  0
 16 21  1  0  0  0  0
 17 35  1  0  0  0  0
 18 19  1  6  0  0  0
 18 23  1  0  0  0  0
 20  2  1  1  0  0  0
 20 25  1  0  0  0  0
 21 22  1  1  0  0  0
 21 27  1  0  0  0  0
 23 24  1  0  0  0  0
 23 29  1  1  0  0  0
 25 26  1  6  0  0  0
 25 31  1  0  0  0  0
 27 28  1  0  0  0  0
 27 33  1  6  0  0  0
 29 30  1  0  0  0  0
 31 32  1  1  0  0  0
 33 34  1  0  0  0  0
M  END
>  <CHROM.1>
-175.22959701,60.57968987,-173.28000719,-154.42395490,-170.25861208,56.74852474
-65.78483855,63.38950048,0.02597008,-7.13893543,44.48817080,3.04594577,-0.26419771
-3.09495528

>  <Name>
2o3v_lig

>  <RI>
0

>  <Rbt.Current_Directory>
/home/afrankz/demos/rdock_decoys_rna/rnas/2o3v

>  <Rbt.Executable>
rbdock ($Id: //depot/dev/client3/rdock/2013.1/src/exe/rbdock.cxx#4 $)

>  <Rbt.Library>
libRbt.so (2013.1, Build901 2013/11/27)

>  <Rbt.Parameter_File>
/export/apps/rDock/src/rDock_2013.1_src/data/scripts/dock_solv.prm

>  <Rbt.Receptor>
prm/pocket_docking_4.prm

>  <SCORE>
-18.1583

>  <SCORE.INTER>
-12.5557

>  <SCORE.INTER.CONST>
1

>  <SCORE.INTER.POLAR>
-1.63448

>  <SCORE.INTER.ROT>
8

>  <SCORE.INTER.SOLV>
14.8429

>  <SCORE.INTER.VDW>
-16.8032

>  <SCORE.INTER.norm>
-0.358735

>  <SCORE.INTRA>
-5.61918

>  <SCORE.INTRA.DIHEDRAL>
-9.29728

>  <SCORE.INTRA.DIHEDRAL.0>
13.1227

>  <SCORE.INTRA.POLAR>
0

>  <SCORE.INTRA.POLAR.0>
0

>  <SCORE.INTRA.REPUL>
0

>  <SCORE.INTRA.REPUL.0>
0

>  <SCORE.INTRA.SOLV>
0.802934

>  <SCORE.INTRA.SOLV.lig_0>
-89.1587

>  <SCORE.INTRA.VDW>
-1.372

>  <SCORE.INTRA.VDW.0>
-0.838383

>  <SCORE.INTRA.norm>
-0.160548

>  <SCORE.RESTR>
0.0166059

>  <SCORE.RESTR.CAVITY>
0.0166059

>  <SCORE.RESTR.norm>
0.000474453

>  <SCORE.SYSTEM>
0

>  <SCORE.SYSTEM.CONST>
0

>  <SCORE.SYSTEM.DIHEDRAL>
0

>  <SCORE.SYSTEM.SOLV>
0

>  <SCORE.SYSTEM.norm>
0

>  <SCORE.heavy>
35

>  <SCORE.norm>
-0.518809

>  <RMSD>
10.403

$$$$
2o3v_lig
 OpenBabel02141814113D
libRbt.so/2013.1/901 2013/11/27
 35 37  0  0  0  0  0  0  0  0999 V2000
   -1.4564   -5.2113   45.3538 C   0  0  2  0  0  0  0  0  0  0  0  0
   -2.5056   -5.4208   44.3598 O   0  0  0  0  0  0  0  0  0  0  0  0
   -6.3632   -3.4924   43.7874 C   0  0  2  0  0  0  0  0  0  0  0  0
   -7.8080   -3.1484   43.9504 N   0  0  0  0  0  0  0  0  0  0  0  0
    6.2900   -4.8678   43.1478 C   0  0  2  0  0  0  0  0  0  0  0  0
    6.3727   -4.6390   44.5713 O   0  0  0  0  0  0  0  0  0  0  0  0
   -0.1479   -5.5120   44.5566 C   0  0  2  0  0  0  0  0  0  0  0  0
   -0.0171   -4.6156   43.3837 N   0  0  0  0  0  0  0  0  0  0  0  0
   -6.2098   -5.0096   43.3402 C   0  0  0  0  0  0  0  0  0  0  0  0
    4.8873   -5.5037   42.8538 C   0  0  2  0  0  0  0  0  0  0  0  0
    3.7921   -4.6227   43.3326 N   0  0  0  0  0  0  0  0  0  0  0  0
   -0.0888   -7.0288   44.0820 C   0  0  1  0  0  0  0  0  0  0  0  0
    1.1415   -7.2829   43.2881 O   0  0  0  0  0  0  0  0  0  0  0  0
   -4.6649   -5.3527   43.1854 C   0  0  2  0  0  0  0  0  0  0  0  0
   -4.4993   -6.7652   42.7805 N   0  0  0  0  0  0  0  0  0  0  0  0
    4.7544   -6.9527   43.4998 C   0  0  1  0  0  0  0  0  0  0  0  0
    3.4772   -7.5791   43.2150 O   0  0  0  0  0  0  0  0  0  0  0  0
   -0.2269   -7.9396   45.3801 C   0  0  2  0  0  0  0  0  0  0  0  0
   -0.2094   -9.3171   45.0512 O   0  0  0  0  0  0  0  0  0  0  0  0
   -3.9140   -5.0918   44.5556 C   0  0  2  0  0  0  0  0  0  0  0  0
    5.9156   -7.8452   42.9578 C   0  0  2  0  0  0  0  0  0  0  0  0
    5.8545   -9.1464   43.5079 O   0  0  0  0  0  0  0  0  0  0  0  0
   -1.5512   -7.5930   46.1611 C   0  0  2  0  0  0  0  0  0  0  0  0
   -1.5698   -6.1545   46.5001 O   0  0  0  0  0  0  0  0  0  0  0  0
   -4.0743   -3.6075   44.9885 C   0  0  2  0  0  0  0  0  0  0  0  0
   -3.3966   -3.4523   46.2682 O   0  0  0  0  0  0  0  0  0  0  0  0
    7.3088   -7.1666   43.2705 C   0  0  2  0  0  0  0  0  0  0  0  0
    7.3562   -5.8024   42.6965 O   0  0  0  0  0  0  0  0  0  0  0  0
   -1.6897   -8.4284   47.4330 C   0  0  0  0  0  0  0  0  0  0  0  0
   -0.6510   -8.1479   48.3393 O   0  0  0  0  0  0  0  0  0  0  0  0
   -5.5760   -3.2685   45.1369 C   0  0  1  0  0  0  0  0  0  0  0  0
   -5.6939   -1.9157   45.5246 O   0  0  0  0  0  0  0  0  0  0  0  0
    8.4711   -7.9801   42.7215 C   0  0  0  0  0  0  0  0  0  0  0  0
    8.7170   -9.0988   43.5389 O   0  0  0  0  0  0  0  0  0  0  0  0
    2.4258   -6.9671   44.0182 C   0  0  0  0  0  0  0  0  0  0  0  0
  1  2  1  6  0  0  0
  1  7  1  0  0  0  0
  1 24  1  0  0  0  0
  3  4  1  1  0  0  0
  3  9  1  0  0  0  0
  3 31  1  0  0  0  0
  5  6  1  1  0  0  0
  5 10  1  0  0  0  0
  5 28  1  0  0  0  0
  7  8  1  6  0  0  0
  7 12  1  0  0  0  0
  9 14  1  0  0  0  0
 10 11  1  1  0  0  0
 10 16  1  0  0  0  0
 12 13  1  1  0  0  0
 12 18  1  0  0  0  0
 13 35  1  0  0  0  0
 14 15  1  1  0  0  0
 14 20  1  0  0  0  0
 16 17  1  6  0  0  0
 16 21  1  0  0  0  0
 17 35  1  0  0  0  0
 18 19  1  6  0  0  0
 18 23  1  0  0  0  0
 20  2  1  6  0  0  0
 20 25  1  0  0  0  0
 21 22  1  1  0  0  0
 21 27  1  0  0  0  0
 23 24  1  0  0  0  0
 23 29  1  1  0  0  0
 25 26  1  1  0  0  0
 25 31  1  0  0  0  0
 27 28  1  0  0  0  0
 27 33  1  6  0  0  0
 29 30  1  0  0  0  0
 31 32  1  6  0  0  0
 33 34  1  0  0  0  0
M  END
>  <CHROM.1>
-171.32025243,57.64093224,166.60191057,-74.45607091,158.62904593,174.70950826
63.27469414,-76.55355474,0.47863619,-6.08506928,44.33081656,2.98434181,0.21221288
-0.45040813

>  <Name>
2o3v_lig

>  <RI>
0

>  <Rbt.Current_Directory>
/home/afrankz/demos/rdock_decoys_rna/rnas/2o3v

>  <Rbt.Executable>
rbdock ($Id: //depot/dev/client3/rdock/2013.1/src/exe/rbdock.cxx#4 $)

>  <Rbt.Library>
libRbt.so (2013.1, Build901 2013/11/27)

>  <Rbt.Parameter_File>
/export/apps/rDock/src/rDock_2013.1_src/data/scripts/dock_solv.prm

>  <Rbt.Receptor>
prm/pocket_docking_5.prm

>  <SCORE>
-13.2498

>  <SCORE.INTER>
-9.53508

>  <SCORE.INTER.CONST>
1

>  <SCORE.INTER.POLAR>
-0.406384

>  <SCORE.INTER.ROT>
8

>  <SCORE.INTER.SOLV>
12.519

>  <SCORE.INTER.VDW>
-18.1084

>  <SCORE.INTER.norm>
-0.272431

>  <SCORE.INTRA>
-3.71471

>  <SCORE.INTRA.DIHEDRAL>
-7.72674

>  <SCORE.INTRA.DIHEDRAL.0>
13.1227

>  <SCORE.INTRA.POLAR>
0

>  <SCORE.INTRA.POLAR.0>
0

>  <SCORE.INTRA.REPUL>
0

>  <SCORE.INTRA.REPUL.0>
0

>  <SCORE.INTRA.SOLV>
1.07177

>  <SCORE.INTRA.SOLV.lig_0>
-89.1587

>  <SCORE.INTRA.VDW>
-0.387227

>  <SCORE.INTRA.VDW.0>
-0.838383

>  <SCORE.INTRA.norm>
-0.106135

>  <SCORE.RESTR>
0

>  <SCORE.RESTR.CAVITY>
0

>  <SCORE.RESTR.norm>
0

>  <SCORE.SYSTEM>
0

>  <SCORE.SYSTEM.CONST>
0

>  <SCORE.SYSTEM.DIHEDRAL>
0

>  <SCORE.SYSTEM.SOLV>
0

>  <SCORE.SYSTEM.norm>
0

>  <SCORE.heavy>
35

>  <SCORE.norm>
-0.378565

>  <RMSD>
10.418

$$$$
2o3v_lig
 OpenBabel02141814113D
libRbt.so/2013.1/901 2013/11/27
 35 37  0  0  0  0  0  0  0  0999 V2000
   -2.2229   -6.9443   45.8776 C   0  0  2  0  0  0  0  0  0  0  0  0
   -3.2298   -7.7273   45.1664 O   0  0  0  0  0  0  0  0  0  0  0  0
   -7.5794   -7.6963   45.0790 C   0  0  2  0  0  0  0  0  0  0  0  0
   -9.0015   -7.8864   45.4957 N   0  0  0  0  0  0  0  0  0  0  0  0
    5.4581   -5.2767   43.8026 C   0  0  2  0  0  0  0  0  0  0  0  0
    5.6302   -5.3108   45.2361 O   0  0  0  0  0  0  0  0  0  0  0  0
   -0.9516   -7.1085   44.9859 C   0  0  2  0  0  0  0  0  0  0  0  0
   -1.1957   -6.6177   43.6090 N   0  0  0  0  0  0  0  0  0  0  0  0
   -6.8382   -9.1003   45.0092 C   0  0  0  0  0  0  0  0  0  0  0  0
    4.1098   -6.0056   43.4727 C   0  0  2  0  0  0  0  0  0  0  0  0
    2.9711   -5.3642   44.1776 N   0  0  0  0  0  0  0  0  0  0  0  0
   -0.4636   -8.6215   44.9377 C   0  0  1  0  0  0  0  0  0  0  0  0
    0.7193   -8.7635   44.0495 O   0  0  0  0  0  0  0  0  0  0  0  0
   -5.3259   -8.8691   44.5755 C   0  0  2  0  0  0  0  0  0  0  0  0
   -4.6141  -10.1638   44.5155 N   0  0  0  0  0  0  0  0  0  0  0  0
    4.1795   -7.5556   43.8300 C   0  0  1  0  0  0  0  0  0  0  0  0
    2.9553   -8.2623   43.5035 O   0  0  0  0  0  0  0  0  0  0  0  0
   -0.2122   -9.0889   46.4383 C   0  0  2  0  0  0  0  0  0  0  0  0
    0.2046  -10.4412   46.4973 O   0  0  0  0  0  0  0  0  0  0  0  0
   -4.6092   -7.9058   45.6088 C   0  0  2  0  0  0  0  0  0  0  0  0
    5.3797   -8.1886   43.0571 C   0  0  2  0  0  0  0  0  0  0  0  0
    5.4976   -9.5679   43.3452 O   0  0  0  0  0  0  0  0  0  0  0  0
   -1.5138   -8.8921   47.3048 C   0  0  2  0  0  0  0  0  0  0  0  0
   -1.9497   -7.4813   47.2391 O   0  0  0  0  0  0  0  0  0  0  0  0
   -5.3441   -6.5377   45.6754 C   0  0  2  0  0  0  0  0  0  0  0  0
   -4.6576   -5.7233   46.6687 O   0  0  0  0  0  0  0  0  0  0  0  0
    6.7158   -7.4227   43.4142 C   0  0  2  0  0  0  0  0  0  0  0  0
    6.5758   -5.9790   43.1159 O   0  0  0  0  0  0  0  0  0  0  0  0
   -1.2881   -9.2989   48.7603 C   0  0  0  0  0  0  0  0  0  0  0  0
   -1.0762  -10.6851   48.8721 O   0  0  0  0  0  0  0  0  0  0  0  0
   -6.8167   -6.7582   46.0935 C   0  0  1  0  0  0  0  0  0  0  0  0
   -7.4619   -5.5030   46.1409 O   0  0  0  0  0  0  0  0  0  0  0  0
    7.9083   -7.9772   42.6498 C   0  0  0  0  0  0  0  0  0  0  0  0
    7.6985   -7.8640   41.2631 O   0  0  0  0  0  0  0  0  0  0  0  0
    1.9345   -7.9922   44.5086 C   0  0  0  0  0  0  0  0  0  0  0  0
  1  2  1  6  0  0  0
  1  7  1  0  0  0  0
  1 24  1  0  0  0  0
  3  4  1  1  0  0  0
  3  9  1  0  0  0  0
  3 31  1  0  0  0  0
  5  6  1  1  0  0  0
  5 10  1  0  0  0  0
  5 28  1  0  0  0  0
  7  8  1  6  0  0  0
  7 12  1  0  0  0  0
  9 14  1  0  0  0  0
 10 11  1  1  0  0  0
 10 16  1  0  0  0  0
 12 13  1  6  0  0  0
 12 18  1  0  0  0  0
 13 35  1  0  0  0  0
 14 15  1  1  0  0  0
 14 20  1  0  0  0  0
 16 17  1  6  0  0  0
 16 21  1  0  0  0  0
 17 35  1  0  0  0  0
 18 19  1  6  0  0  0
 18 23  1  0  0  0  0
 20  2  1  6  0  0  0
 20 25  1  0  0  0  0
 21 22  1  1  0  0  0
 21 27  1  0  0  0  0
 23 24  1  0  0  0  0
 23 29  1  1  0  0  0
 25 26  1  1  0  0  0
 25 31  1  0  0  0  0
 27 28  1  0  0  0  0
 27 33  1  6  0  0  0
 29 30  1  0  0  0  0
 31 32  1  6  0  0  0
 33 34  1  0  0  0  0
M  END
>  <CHROM.1>
179.28687160,62.58488543,-179.61209885,-77.32204739,179.34732889,-177.73129129
-67.16712413,59.63395532,-0.17420608,-7.73928748,44.97739311,2.99195620,-0.16351344
2.57197746

>  <Name>
2o3v_lig

>  <RI>
0

>  <Rbt.Current_Directory>
/home/afrankz/demos/rdock_decoys_rna/rnas/2o3v

>  <Rbt.Executable>
rbdock ($Id: //depot/dev/client3/rdock/2013.1/src/exe/rbdock.cxx#4 $)

>  <Rbt.Library>
libRbt.so (2013.1, Build901 2013/11/27)

>  <Rbt.Parameter_File>
/export/apps/rDock/src/rDock_2013.1_src/data/scripts/dock_solv.prm

>  <Rbt.Receptor>
prm/pocket_docking_6.prm

>  <SCORE>
-13.4535

>  <SCORE.INTER>
-7.22118

>  <SCORE.INTER.CONST>
1

>  <SCORE.INTER.POLAR>
0

>  <SCORE.INTER.ROT>
8

>  <SCORE.INTER.SOLV>
10.8238

>  <SCORE.INTER.VDW>
-17.3554

>  <SCORE.INTER.norm>
-0.206319

>  <SCORE.INTRA>
-6.23237

>  <SCORE.INTRA.DIHEDRAL>
-11.4486

>  <SCORE.INTRA.DIHEDRAL.0>
13.1227

>  <SCORE.INTRA.POLAR>
0

>  <SCORE.INTRA.POLAR.0>
0

>  <SCORE.INTRA.REPUL>
0

>  <SCORE.INTRA.REPUL.0>
0

>  <SCORE.INTRA.SOLV>
0.281912

>  <SCORE.INTRA.SOLV.lig_0>
-89.1587

>  <SCORE.INTRA.VDW>
-0.649043

>  <SCORE.INTRA.VDW.0>
-0.838383

>  <SCORE.INTRA.norm>
-0.178068

>  <SCORE.RESTR>
0

>  <SCORE.RESTR.CAVITY>
0

>  <SCORE.RESTR.norm>
0

>  <SCORE.SYSTEM>
0

>  <SCORE.SYSTEM.CONST>
0

>  <SCORE.SYSTEM.DIHEDRAL>
0

>  <SCORE.SYSTEM.SOLV>
0

>  <SCORE.SYSTEM.norm>
0

>  <SCORE.heavy>
35

>  <SCORE.norm>
-0.384387

>  <RMSD>
10.422

$$$$
2o3v_lig
 OpenBabel02141814113D
libRbt.so/2013.1/901 2013/11/27
 35 37  0  0  0  0  0  0  0  0999 V2000
   -1.7178   -6.2231   45.5515 C   0  0  2  0  0  0  0  0  0  0  0  0
   -2.6587   -5.7711   44.5302 O   0  0  0  0  0  0  0  0  0  0  0  0
   -6.5418   -5.9354   46.4851 C   0  0  2  0  0  0  0  0  0  0  0  0
   -8.0126   -5.8106   46.7168 N   0  0  0  0  0  0  0  0  0  0  0  0
    6.5139   -5.2410   45.3304 C   0  0  2  0  0  0  0  0  0  0  0  0
    6.2663   -6.1121   46.4552 O   0  0  0  0  0  0  0  0  0  0  0  0
   -0.3268   -5.9030   44.9183 C   0  0  2  0  0  0  0  0  0  0  0  0
   -0.1961   -4.4585   44.6141 N   0  0  0  0  0  0  0  0  0  0  0  0
   -5.9125   -4.5069   46.1869 C   0  0  0  0  0  0  0  0  0  0  0  0
    5.1827   -5.1445   44.5075 C   0  0  2  0  0  0  0  0  0  0  0  0
    4.0687   -4.6458   45.3532 N   0  0  0  0  0  0  0  0  0  0  0  0
   -0.0763   -6.7542   43.5984 C   0  0  1  0  0  0  0  0  0  0  0  0
    1.2321   -6.4028   42.9875 O   0  0  0  0  0  0  0  0  0  0  0  0
   -4.3512   -4.6691   45.9329 C   0  0  2  0  0  0  0  0  0  0  0  0
   -3.7473   -3.3512   45.6417 N   0  0  0  0  0  0  0  0  0  0  0  0
    4.7968   -6.5433   43.8523 C   0  0  1  0  0  0  0  0  0  0  0  0
    3.5855   -6.4751   43.0567 O   0  0  0  0  0  0  0  0  0  0  0  0
   -0.2226   -8.2907   43.9876 C   0  0  2  0  0  0  0  0  0  0  0  0
   -0.0390   -9.1305   42.8620 O   0  0  0  0  0  0  0  0  0  0  0  0
   -4.1013   -5.6577   44.7206 C   0  0  2  0  0  0  0  0  0  0  0  0
    5.9891   -7.0198   42.9636 C   0  0  2  0  0  0  0  0  0  0  0  0
    5.7061   -8.2678   42.3619 O   0  0  0  0  0  0  0  0  0  0  0  0
   -1.6325   -8.5657   44.6357 C   0  0  2  0  0  0  0  0  0  0  0  0
   -1.8242   -7.6859   45.8078 O   0  0  0  0  0  0  0  0  0  0  0  0
   -4.7252   -7.0500   45.0180 C   0  0  2  0  0  0  0  0  0  0  0  0
   -4.4927   -7.8889   43.8504 O   0  0  0  0  0  0  0  0  0  0  0  0
    7.3096   -7.0988   43.8293 C   0  0  2  0  0  0  0  0  0  0  0  0
    7.5895   -5.7886   44.4601 O   0  0  0  0  0  0  0  0  0  0  0  0
   -1.7848  -10.0277   45.0531 C   0  0  0  0  0  0  0  0  0  0  0  0
   -3.0618  -10.2709   45.5906 O   0  0  0  0  0  0  0  0  0  0  0  0
   -6.2436   -6.8965   45.2692 C   0  0  1  0  0  0  0  0  0  0  0  0
   -6.7841   -8.1723   45.5419 O   0  0  0  0  0  0  0  0  0  0  0  0
    8.5102   -7.5177   42.9943 C   0  0  0  0  0  0  0  0  0  0  0  0
    8.3404   -8.8291   42.5135 O   0  0  0  0  0  0  0  0  0  0  0  0
    2.4121   -6.5612   43.9175 C   0  0  0  0  0  0  0  0  0  0  0  0
  1  2  1  6  0  0  0
  1  7  1  0  0  0  0
  1 24  1  0  0  0  0
  3  4  1  6  0  0  0
  3  9  1  0  0  0  0
  3 31  1  0  0  0  0
  5  6  1  1  0  0  0
  5 10  1  0  0  0  0
  5 28  1  0  0  0  0
  7  8  1  6  0  0  0
  7 12  1  0  0  0  0
  9 14  1  0  0  0  0
 10 11  1  1  0  0  0
 10 16  1  0  0  0  0
 12 13  1  1  0  0  0
 12 18  1  0  0  0  0
 13 35  1  0  0  0  0
 14 15  1  6  0  0  0
 14 20  1  0  0  0  0
 16 17  1  6  0  0  0
 16 21  1  0  0  0  0
 17 35  1  0  0  0  0
 18 19  1  6  0  0  0
 18 23  1  0  0  0  0
 20  2  1  1  0  0  0
 20 25  1  0  0  0  0
 21 22  1  1  0  0  0
 21 27  1  0  0  0  0
 23 24  1  0  0  0  0
 23 29  1  1  0  0  0
 25 26  1  6  0  0  0
 25 31  1  0  0  0  0
 27 28  1  0  0  0  0
 27 33  1  6  0  0  0
 29 30  1  0  0  0  0
 31 32  1  1  0  0  0
 33 34  1  0  0  0  0
M  END
>  <CHROM.1>
-169.96159847,56.05335159,167.20668028,-81.38777701,176.96853626,58.10795382
-178.10306778,-64.72796071,0.30954811,-6.75319231,44.57883408,-3.07351125
-0.13251778,-2.79974863

>  <Name>
2o3v_lig

>  <RI>
0

>  <Rbt.Current_Directory>
/home/afrankz/demos/rdock_decoys_rna/rnas/2o3v

>  <Rbt.Executable>
rbdock ($Id: //depot/dev/client3/rdock/2013.1/src/exe/rbdock.cxx#4 $)

>  <Rbt.Library>
libRbt.so (2013.1, Build901 2013/11/27)

>  <Rbt.Parameter_File>
/export/apps/rDock/src/rDock_2013.1_src/data/scripts/dock_solv.prm

>  <Rbt.Receptor>
prm/pocket_docking_8.prm

>  <SCORE>
-13.9917

>  <SCORE.INTER>
-8.59731

>  <SCORE.INTER.CONST>
1

>  <SCORE.INTER.POLAR>
-0.740568

>  <SCORE.INTER.ROT>
8

>  <SCORE.INTER.SOLV>
12.2845

>  <SCORE.INTER.VDW>
-16.2911

>  <SCORE.INTER.norm>
-0.245637

>  <SCORE.INTRA>
-5.40758

>  <SCORE.INTRA.DIHEDRAL>
-9.55054

>  <SCORE.INTRA.DIHEDRAL.0>
13.1227

>  <SCORE.INTRA.POLAR>
0

>  <SCORE.INTRA.POLAR.0>
0

>  <SCORE.INTRA.REPUL>
0

>  <SCORE.INTRA.REPUL.0>
0

>  <SCORE.INTRA.SOLV>
1.84328

>  <SCORE.INTRA.SOLV.lig_0>
-89.1587

>  <SCORE.INTRA.VDW>
-1.55395

>  <SCORE.INTRA.VDW.0>
-0.838383

>  <SCORE.INTRA.norm>
-0.154502

>  <SCORE.RESTR>
0.0131653

>  <SCORE.RESTR.CAVITY>
0.0131653

>  <SCORE.RESTR.norm>
0.000376152

>  <SCORE.SYSTEM>
0

>  <SCORE.SYSTEM.CONST>
0

>  <SCORE.SYSTEM.DIHEDRAL>
0

>  <SCORE.SYSTEM.SOLV>
0

>  <SCORE.SYSTEM.norm>
0

>  <SCORE.heavy>
35

>  <SCORE.norm>
-0.399764

>  <RMSD>
10.423

$$$$
2o3v_lig
 OpenBabel02141814113D
libRbt.so/2013.1/901 2013/11/27
 35 37  0  0  0  0  0  0  0  0999 V2000
   -4.1255   -3.5853   43.1063 C   0  0  2  0  0  0  0  0  0  0  0  0
   -3.4971   -2.9802   44.2776 O   0  0  0  0  0  0  0  0  0  0  0  0
   -3.8223    0.3734   47.0299 C   0  0  2  0  0  0  0  0  0  0  0  0
   -4.4128    1.4601   47.8680 N   0  0  0  0  0  0  0  0  0  0  0  0
    4.1248   -3.7837   44.1937 C   0  0  2  0  0  0  0  0  0  0  0  0
    5.1787   -3.6201   43.2200 O   0  0  0  0  0  0  0  0  0  0  0  0
   -3.2168   -4.8215   42.8156 C   0  0  2  0  0  0  0  0  0  0  0  0
   -3.1684   -5.7366   43.9803 N   0  0  0  0  0  0  0  0  0  0  0  0
   -4.1479    0.6285   45.4955 C   0  0  0  0  0  0  0  0  0  0  0  0
    3.0077   -4.6649   43.5351 C   0  0  2  0  0  0  0  0  0  0  0  0
    3.5533   -5.9729   43.0917 N   0  0  0  0  0  0  0  0  0  0  0  0
   -1.7414   -4.3809   42.4176 C   0  0  1  0  0  0  0  0  0  0  0  0
   -0.8819   -5.5713   42.1886 O   0  0  0  0  0  0  0  0  0  0  0  0
   -3.5193   -0.5465   44.6279 C   0  0  2  0  0  0  0  0  0  0  0  0
   -3.8209   -0.3342   43.1960 N   0  0  0  0  0  0  0  0  0  0  0  0
    2.3122   -3.9136   42.3159 C   0  0  1  0  0  0  0  0  0  0  0  0
    1.2506   -4.6935   41.7080 O   0  0  0  0  0  0  0  0  0  0  0  0
   -1.8569   -3.4088   41.1625 C   0  0  2  0  0  0  0  0  0  0  0  0
   -0.5851   -2.9424   40.7491 O   0  0  0  0  0  0  0  0  0  0  0  0
   -4.1038   -1.9402   45.1024 C   0  0  2  0  0  0  0  0  0  0  0  0
    1.7429   -2.5540   42.8317 C   0  0  2  0  0  0  0  0  0  0  0  0
    1.1201   -1.8352   41.7853 O   0  0  0  0  0  0  0  0  0  0  0  0
   -2.7933   -2.1854   41.4943 C   0  0  2  0  0  0  0  0  0  0  0  0
   -4.1188   -2.6737   41.9292 O   0  0  0  0  0  0  0  0  0  0  0  0
   -3.7864   -2.1788   46.6053 C   0  0  2  0  0  0  0  0  0  0  0  0
   -4.3854   -3.4525   46.9793 O   0  0  0  0  0  0  0  0  0  0  0  0
    2.8986   -1.7003   43.4911 C   0  0  2  0  0  0  0  0  0  0  0  0
    3.5474   -2.4675   44.5789 O   0  0  0  0  0  0  0  0  0  0  0  0
   -2.9511   -1.2550   40.2925 C   0  0  0  0  0  0  0  0  0  0  0  0
   -3.9676   -0.3082   40.5144 O   0  0  0  0  0  0  0  0  0  0  0  0
   -4.3931   -1.0360   47.4527 C   0  0  1  0  0  0  0  0  0  0  0  0
   -4.0863   -1.2734   48.8105 O   0  0  0  0  0  0  0  0  0  0  0  0
    2.3821   -0.3826   44.0486 C   0  0  0  0  0  0  0  0  0  0  0  0
    3.4008    0.5881   44.0379 O   0  0  0  0  0  0  0  0  0  0  0  0
    0.5219   -5.4349   42.7300 C   0  0  0  0  0  0  0  0  0  0  0  0
  1  2  1  1  0  0  0
  1  7  1  0  0  0  0
  1 24  1  0  0  0  0
  3  4  1  1  0  0  0
  3  9  1  0  0  0  0
  3 31  1  0  0  0  0
  5  6  1  6  0  0  0
  5 10  1  0  0  0  0
  5 28  1  0  0  0  0
  7  8  1  1  0  0  0
  7 12  1  0  0  0  0
  9 14  1  0  0  0  0
 10 11  1  6  0  0  0
 10 16  1  0  0  0  0
 12 13  1  6  0  0  0
 12 18  1  0  0  0  0
 13 35  1  0  0  0  0
 14 15  1  6  0  0  0
 14 20  1  0  0  0  0
 16 17  1  1  0  0  0
 16 21  1  0  0  0  0
 17 35  1  0  0  0  0
 18 19  1  1  0  0  0
 18 23  1  0  0  0  0
 20  2  1  6  0  0  0
 20 25  1  0  0  0  0
 21 22  1  6  0  0  0
 21 27  1  0  0  0  0
 23 24  1  0  0  0  0
 23 29  1  6  0  0  0
 25 26  1  1  0  0  0
 25 31  1  0  0  0  0
 27 28  1  0  0  0  0
 27 33  1  1  0  0  0
 29 30  1  0  0  0  0
 31 32  1  1  0  0  0
 33 34  1  0  0  0  0
M  END
>  <CHROM.1>
-167.66726179,-139.87866360,-82.40408206,36.89387634,150.52692704,-98.05839403
169.35750860,-152.09656173,-1.06540705,-2.52957002,43.68473329,2.68765397
-0.05451975,0.95132391

>  <Name>
2o3v_lig

>  <RI>
0

>  <Rbt.Current_Directory>
/home/afrankz/demos/rdock_decoys_rna/rnas/2o3v

>  <Rbt.Executable>
rbdock ($Id: //depot/dev/client3/rdock/2013.1/src/exe/rbdock.cxx#4 $)

>  <Rbt.Library>
libRbt.so (2013.1, Build901 2013/11/27)

>  <Rbt.Parameter_File>
/export/apps/rDock/src/rDock_2013.1_src/data/scripts/dock_solv.prm

>  <Rbt.Receptor>
prm/blind_docking_60.prm

>  <SCORE>
10.3493

>  <SCORE.INTER>
-0.646415

>  <SCORE.INTER.CONST>
1

>  <SCORE.INTER.POLAR>
-0.457381

>  <SCORE.INTER.ROT>
8

>  <SCORE.INTER.SOLV>
16.5037

>  <SCORE.INTER.VDW>
-13.3409

>  <SCORE.INTER.norm>
-0.018469

>  <SCORE.INTRA>
9.47672

>  <SCORE.INTRA.DIHEDRAL>
8.90948

>  <SCORE.INTRA.DIHEDRAL.0>
13.1227

>  <SCORE.INTRA.POLAR>
0

>  <SCORE.INTRA.POLAR.0>
0

>  <SCORE.INTRA.REPUL>
0

>  <SCORE.INTRA.REPUL.0>
0

>  <SCORE.INTRA.SOLV>
5.34154

>  <SCORE.INTRA.SOLV.lig_0>
-89.1587

>  <SCORE.INTRA.VDW>
2.35121

>  <SCORE.INTRA.VDW.0>
-0.838383

>  <SCORE.INTRA.norm>
0.270763

>  <SCORE.RESTR>
1.51904

>  <SCORE.RESTR.CAVITY>
1.51904

>  <SCORE.RESTR.norm>
0.0434012

>  <SCORE.SYSTEM>
0

>  <SCORE.SYSTEM.CONST>
0

>  <SCORE.SYSTEM.DIHEDRAL>
0

>  <SCORE.SYSTEM.SOLV>
0

>  <SCORE.SYSTEM.norm>
0

>  <SCORE.heavy>
35

>  <SCORE.norm>
0.295696

>  <RMSD>
10.435

$$$$
2o3v_lig
 OpenBabel02141814113D
libRbt.so/2013.1/901 2013/11/27
 35 37  0  0  0  0  0  0  0  0999 V2000
   -3.0468   -8.8114   45.1667 C   0  0  2  0  0  0  0  0  0  0  0  0
   -2.8175   -8.2931   46.5126 O   0  0  0  0  0  0  0  0  0  0  0  0
   -6.6307   -6.5456   47.6671 C   0  0  2  0  0  0  0  0  0  0  0  0
   -7.6914   -5.8866   48.4873 N   0  0  0  0  0  0  0  0  0  0  0  0
    5.4805   -5.2282   43.6232 C   0  0  2  0  0  0  0  0  0  0  0  0
    5.6916   -5.1871   45.0512 O   0  0  0  0  0  0  0  0  0  0  0  0
   -1.6438   -9.3589   44.7541 C   0  0  2  0  0  0  0  0  0  0  0  0
   -1.1753  -10.3995   45.6997 N   0  0  0  0  0  0  0  0  0  0  0  0
   -6.2088   -7.9279   48.3279 C   0  0  0  0  0  0  0  0  0  0  0  0
    4.1143   -5.9545   43.3698 C   0  0  2  0  0  0  0  0  0  0  0  0
    3.0038   -5.2596   44.0691 N   0  0  0  0  0  0  0  0  0  0  0  0
   -0.5660   -8.1930   44.6620 C   0  0  1  0  0  0  0  0  0  0  0  0
    0.7706   -8.7401   44.3119 O   0  0  0  0  0  0  0  0  0  0  0  0
   -5.0724   -8.6020   47.4433 C   0  0  2  0  0  0  0  0  0  0  0  0
   -4.6567   -9.8859   48.0478 N   0  0  0  0  0  0  0  0  0  0  0  0
    4.1739   -7.4837   43.8091 C   0  0  1  0  0  0  0  0  0  0  0  0
    2.9321   -8.1894   43.5547 O   0  0  0  0  0  0  0  0  0  0  0  0
   -1.1191   -7.1134   43.6313 C   0  0  2  0  0  0  0  0  0  0  0  0
   -0.2312   -6.0177   43.5018 O   0  0  0  0  0  0  0  0  0  0  0  0
   -3.8272   -7.6293   47.3311 C   0  0  2  0  0  0  0  0  0  0  0  0
    5.3440   -8.1747   43.0399 C   0  0  2  0  0  0  0  0  0  0  0  0
    5.4521   -9.5380   43.3994 O   0  0  0  0  0  0  0  0  0  0  0  0
   -2.5408   -6.6000   44.0773 C   0  0  2  0  0  0  0  0  0  0  0  0
   -3.4651   -7.7449   44.2158 O   0  0  0  0  0  0  0  0  0  0  0  0
   -4.2500   -6.2780   46.6896 C   0  0  2  0  0  0  0  0  0  0  0  0
   -3.0701   -5.4249   46.6557 O   0  0  0  0  0  0  0  0  0  0  0  0
    6.6992   -7.4099   43.3186 C   0  0  2  0  0  0  0  0  0  0  0  0
    6.5696   -5.9826   42.9459 O   0  0  0  0  0  0  0  0  0  0  0  0
   -3.1113   -5.5889   43.0838 C   0  0  0  0  0  0  0  0  0  0  0  0
   -4.3579   -5.1013   43.5164 O   0  0  0  0  0  0  0  0  0  0  0  0
   -5.3579   -5.6203   47.5452 C   0  0  1  0  0  0  0  0  0  0  0  0
   -5.7272   -4.3996   46.9389 O   0  0  0  0  0  0  0  0  0  0  0  0
    7.8629   -8.0221   42.5538 C   0  0  0  0  0  0  0  0  0  0  0  0
    7.6381   -7.9374   41.1673 O   0  0  0  0  0  0  0  0  0  0  0  0
    1.9082   -7.7642   44.5012 C   0  0  0  0  0  0  0  0  0  0  0  0
  1  2  1  1  0  0  0
  1  7  1  0  0  0  0
  1 24  1  0  0  0  0
  3  4  1  1  0  0  0
  3  9  1  0  0  0  0
  3 31  1  0  0  0  0
  5  6  1  1  0  0  0
  5 10  1  0  0  0  0
  5 28  1  0  0  0  0
  7  8  1  1  0  0  0
  7 12  1  0  0  0  0
  9 14  1  0  0  0  0
 10 11  1  1  0  0  0
 10 16  1  0  0  0  0
 12 13  1  6  0  0  0
 12 18  1  0  0  0  0
 13 35  1  0  0  0  0
 14 15  1  1  0  0  0
 14 20  1  0  0  0  0
 16 17  1  6  0  0  0
 16 21  1  0  0  0  0
 17 35  1  0  0  0  0
 18 19  1  1  0  0  0
 18 23  1  0  0  0  0
 20  2  1  6  0  0  0
 20 25  1  0  0  0  0
 21 22  1  1  0  0  0
 21 27  1  0  0  0  0
 23 24  1  0  0  0  0
 23 29  1  6  0  0  0
 25 26  1  1  0  0  0
 25 31  1  0  0  0  0
 27 28  1  0  0  0  0
 27 33  1  6  0  0  0
 29 30  1  0  0  0  0
 31 32  1  6  0  0  0
 33 34  1  0  0  0  0
M  END
>  <CHROM.1>
178.06026237,-167.09900756,-153.13445884,-72.45214003,-169.50386579,54.96844969
-177.85759204,61.75690290,-0.19656649,-7.19093102,44.89954039,-3.11177150
0.32965541,-0.17598333

>  <Name>
2o3v_lig

>  <RI>
0

>  <Rbt.Current_Directory>
/home/afrankz/demos/rdock_decoys_rna/rnas/2o3v

>  <Rbt.Executable>
rbdock ($Id: //depot/dev/client3/rdock/2013.1/src/exe/rbdock.cxx#4 $)

>  <Rbt.Library>
libRbt.so (2013.1, Build901 2013/11/27)

>  <Rbt.Parameter_File>
/export/apps/rDock/src/rDock_2013.1_src/data/scripts/dock_solv.prm

>  <Rbt.Receptor>
prm/pocket_docking_4.prm

>  <SCORE>
-15.2061

>  <SCORE.INTER>
-10.805

>  <SCORE.INTER.CONST>
1

>  <SCORE.INTER.POLAR>
0

>  <SCORE.INTER.ROT>
8

>  <SCORE.INTER.SOLV>
10.9684

>  <SCORE.INTER.VDW>
-19.7928

>  <SCORE.INTER.norm>
-0.308713

>  <SCORE.INTRA>
-4.40111

>  <SCORE.INTRA.DIHEDRAL>
-7.8292

>  <SCORE.INTRA.DIHEDRAL.0>
13.1227

>  <SCORE.INTRA.POLAR>
0

>  <SCORE.INTRA.POLAR.0>
0

>  <SCORE.INTRA.REPUL>
0.0480945

>  <SCORE.INTRA.REPUL.0>
0

>  <SCORE.INTRA.SOLV>
1.80723

>  <SCORE.INTRA.SOLV.lig_0>
-89.1587

>  <SCORE.INTRA.VDW>
-1.6306

>  <SCORE.INTRA.VDW.0>
-0.838383

>  <SCORE.INTRA.norm>
-0.125746

>  <SCORE.RESTR>
0

>  <SCORE.RESTR.CAVITY>
0

>  <SCORE.RESTR.norm>
0

>  <SCORE.SYSTEM>
0

>  <SCORE.SYSTEM.CONST>
0

>  <SCORE.SYSTEM.DIHEDRAL>
0

>  <SCORE.SYSTEM.SOLV>
0

>  <SCORE.SYSTEM.norm>
0

>  <SCORE.heavy>
35

>  <SCORE.norm>
-0.434459

>  <RMSD>
10.449

$$$$
2o3v_lig
 OpenBabel02141814113D
libRbt.so/2013.1/901 2013/11/27
 35 37  0  0  0  0  0  0  0  0999 V2000
   -2.0497   -2.7393   44.4166 C   0  0  2  0  0  0  0  0  0  0  0  0
   -3.3679   -2.1747   44.1403 O   0  0  0  0  0  0  0  0  0  0  0  0
   -4.0146    0.9286   47.1200 C   0  0  2  0  0  0  0  0  0  0  0  0
   -4.7058    1.9094   48.0102 N   0  0  0  0  0  0  0  0  0  0  0  0
    3.2589   -3.6904   43.3782 C   0  0  2  0  0  0  0  0  0  0  0  0
    3.6207   -5.0782   43.2087 O   0  0  0  0  0  0  0  0  0  0  0  0
   -1.5282   -3.1322   42.9982 C   0  0  2  0  0  0  0  0  0  0  0  0
   -1.4732   -1.9532   42.1019 N   0  0  0  0  0  0  0  0  0  0  0  0
   -4.2940    1.2826   45.5961 C   0  0  0  0  0  0  0  0  0  0  0  0
    1.7628   -3.5363   42.9350 C   0  0  2  0  0  0  0  0  0  0  0  0
    0.8792   -4.4339   43.7214 N   0  0  0  0  0  0  0  0  0  0  0  0
   -2.4275   -4.2662   42.3388 C   0  0  1  0  0  0  0  0  0  0  0  0
   -1.9415   -4.5938   40.9732 O   0  0  0  0  0  0  0  0  0  0  0  0
   -3.5580    0.2186   44.6716 C   0  0  2  0  0  0  0  0  0  0  0  0
   -3.8149    0.5234   43.2477 N   0  0  0  0  0  0  0  0  0  0  0  0
    1.5828   -3.8088   41.3768 C   0  0  1  0  0  0  0  0  0  0  0  0
    0.2121   -3.6402   40.9324 O   0  0  0  0  0  0  0  0  0  0  0  0
   -2.4433   -5.5037   43.3398 C   0  0  2  0  0  0  0  0  0  0  0  0
   -3.2453   -6.5608   42.8447 O   0  0  0  0  0  0  0  0  0  0  0  0
   -4.0718   -1.2404   45.0131 C   0  0  2  0  0  0  0  0  0  0  0  0
    2.5183   -2.8351   40.5923 C   0  0  2  0  0  0  0  0  0  0  0  0
    2.4081   -3.0395   39.1975 O   0  0  0  0  0  0  0  0  0  0  0  0
   -2.9609   -5.0598   44.7606 C   0  0  2  0  0  0  0  0  0  0  0  0
   -2.1254   -3.9540   45.2742 O   0  0  0  0  0  0  0  0  0  0  0  0
   -3.8003   -1.5759   46.5064 C   0  0  2  0  0  0  0  0  0  0  0  0
   -4.3320   -2.9085   46.7563 O   0  0  0  0  0  0  0  0  0  0  0  0
    4.0133   -3.0196   41.0720 C   0  0  2  0  0  0  0  0  0  0  0  0
    4.1130   -2.8112   42.5347 O   0  0  0  0  0  0  0  0  0  0  0  0
   -2.9507   -6.2224   45.7520 C   0  0  0  0  0  0  0  0  0  0  0  0
   -3.6105   -5.8768   46.9454 O   0  0  0  0  0  0  0  0  0  0  0  0
   -4.5116   -0.5411   47.4095 C   0  0  1  0  0  0  0  0  0  0  0  0
   -4.2450   -0.8647   48.7579 O   0  0  0  0  0  0  0  0  0  0  0  0
    4.9577   -2.0590   40.3652 C   0  0  0  0  0  0  0  0  0  0  0  0
    5.0913   -2.4104   39.0092 O   0  0  0  0  0  0  0  0  0  0  0  0
   -0.4699   -4.9284   40.9034 C   0  0  0  0  0  0  0  0  0  0  0  0
  1  2  1  6  0  0  0
  1  7  1  0  0  0  0
  1 24  1  0  0  0  0
  3  4  1  1  0  0  0
  3  9  1  0  0  0  0
  3 31  1  0  0  0  0
  5  6  1  6  0  0  0
  5 10  1  0  0  0  0
  5 28  1  0  0  0  0
  7  8  1  6  0  0  0
  7 12  1  0  0  0  0
  9 14  1  0  0  0  0
 10 11  1  1  0  0  0
 10 16  1  0  0  0  0
 12 13  1  6  0  0  0
 12 18  1  0  0  0  0
 13 35  1  0  0  0  0
 14 15  1  6  0  0  0
 14 20  1  0  0  0  0
 16 17  1  6  0  0  0
 16 21  1  0  0  0  0
 17 35  1  0  0  0  0
 18 19  1  6  0  0  0
 18 23  1  0  0  0  0
 20  2  1  6  0  0  0
 20 25  1  0  0  0  0
 21 22  1  6  0  0  0
 21 27  1  0  0  0  0
 23 24  1  0  0  0  0
 23 29  1  1  0  0  0
 25 26  1  1  0  0  0
 25 31  1  0  0  0  0
 27 28  1  0  0  0  0
 27 33  1  6  0  0  0
 29 30  1  0  0  0  0
 31 32  1  1  0  0  0
 33 34  1  0  0  0  0
M  END
>  <CHROM.1>
-156.87035925,52.57643349,-79.11769198,-95.96782678,158.33710720,84.92769928
-170.49297992,-69.58521608,-1.04608621,-2.89028980,43.64341381,2.79280893
0.60638880,0.19517202

>  <Name>
2o3v_lig

>  <RI>
0

>  <Rbt.Current_Directory>
/home/afrankz/demos/rdock_decoys_rna/rnas/2o3v

>  <Rbt.Executable>
rbdock ($Id: //depot/dev/client3/rdock/2013.1/src/exe/rbdock.cxx#4 $)

>  <Rbt.Library>
libRbt.so (2013.1, Build901 2013/11/27)

>  <Rbt.Parameter_File>
/export/apps/rDock/src/rDock_2013.1_src/data/scripts/dock_solv.prm

>  <Rbt.Receptor>
prm/blind_docking_60.prm

>  <SCORE>
-4.89151

>  <SCORE.INTER>
-9.69491

>  <SCORE.INTER.CONST>
1

>  <SCORE.INTER.POLAR>
-1.43964

>  <SCORE.INTER.ROT>
8

>  <SCORE.INTER.SOLV>
10.9847

>  <SCORE.INTER.VDW>
-14.2594

>  <SCORE.INTER.norm>
-0.276997

>  <SCORE.INTRA>
2.75907

>  <SCORE.INTRA.DIHEDRAL>
1.25224

>  <SCORE.INTRA.DIHEDRAL.0>
13.1227

>  <SCORE.INTRA.POLAR>
0

>  <SCORE.INTRA.POLAR.0>
0

>  <SCORE.INTRA.REPUL>
0

>  <SCORE.INTRA.REPUL.0>
0

>  <SCORE.INTRA.SOLV>
8.41525

>  <SCORE.INTRA.SOLV.lig_0>
-89.1587

>  <SCORE.INTRA.VDW>
-2.07467

>  <SCORE.INTRA.VDW.0>
-0.838383

>  <SCORE.INTRA.norm>
0.0788306

>  <SCORE.RESTR>
2.04433

>  <SCORE.RESTR.CAVITY>
2.04433

>  <SCORE.RESTR.norm>
0.0584093

>  <SCORE.SYSTEM>
0

>  <SCORE.SYSTEM.CONST>
0

>  <SCORE.SYSTEM.DIHEDRAL>
0

>  <SCORE.SYSTEM.SOLV>
0

>  <SCORE.SYSTEM.norm>
0

>  <SCORE.heavy>
35

>  <SCORE.norm>
-0.139757

>  <RMSD>
10.465

$$$$
2o3v_lig
 OpenBabel02141814113D
libRbt.so/2013.1/901 2013/11/27
 35 37  0  0  0  0  0  0  0  0999 V2000
    0.1662   -7.0065   43.5009 C   0  0  2  0  0  0  0  0  0  0  0  0
   -0.3724   -6.2348   44.6176 O   0  0  0  0  0  0  0  0  0  0  0  0
   -4.1608   -4.6648   46.0702 C   0  0  2  0  0  0  0  0  0  0  0  0
   -5.4787   -3.9618   46.1024 N   0  0  0  0  0  0  0  0  0  0  0  0
    8.4959   -7.1141   43.1075 C   0  0  2  0  0  0  0  0  0  0  0  0
    7.9357   -5.7920   42.9524 O   0  0  0  0  0  0  0  0  0  0  0  0
    1.4492   -7.6586   44.1069 C   0  0  2  0  0  0  0  0  0  0  0  0
    1.1190   -8.4996   45.2816 N   0  0  0  0  0  0  0  0  0  0  0  0
   -2.9987   -3.6324   45.7400 C   0  0  0  0  0  0  0  0  0  0  0  0
    7.3064   -8.1021   43.3668 C   0  0  2  0  0  0  0  0  0  0  0  0
    6.3199   -8.0506   42.2581 N   0  0  0  0  0  0  0  0  0  0  0  0
    2.5238   -6.5606   44.5179 C   0  0  1  0  0  0  0  0  0  0  0  0
    3.7171   -7.1982   45.1326 O   0  0  0  0  0  0  0  0  0  0  0  0
   -1.6105   -4.4069   45.7003 C   0  0  2  0  0  0  0  0  0  0  0  0
   -0.5156   -3.4653   45.3827 N   0  0  0  0  0  0  0  0  0  0  0  0
    6.5914   -7.8053   44.7580 C   0  0  1  0  0  0  0  0  0  0  0  0
    5.5069   -8.7269   45.0394 O   0  0  0  0  0  0  0  0  0  0  0  0
    2.8422   -5.6964   43.2197 C   0  0  2  0  0  0  0  0  0  0  0  0
    3.7781   -4.6701   43.4967 O   0  0  0  0  0  0  0  0  0  0  0  0
   -1.6655   -5.5581   44.6135 C   0  0  2  0  0  0  0  0  0  0  0  0
    7.6622   -7.8840   45.8919 C   0  0  2  0  0  0  0  0  0  0  0  0
    7.0842   -7.6175   47.1547 O   0  0  0  0  0  0  0  0  0  0  0  0
    1.5200   -5.0705   42.6334 C   0  0  2  0  0  0  0  0  0  0  0  0
    0.5430   -6.1423   42.3485 O   0  0  0  0  0  0  0  0  0  0  0  0
   -2.8084   -6.5595   44.9407 C   0  0  2  0  0  0  0  0  0  0  0  0
   -2.8245   -7.5613   43.8837 O   0  0  0  0  0  0  0  0  0  0  0  0
    8.8434   -6.8777   45.5897 C   0  0  2  0  0  0  0  0  0  0  0  0
    9.4337   -7.1623   44.2618 O   0  0  0  0  0  0  0  0  0  0  0  0
    1.7931   -4.2655   41.3636 C   0  0  0  0  0  0  0  0  0  0  0  0
    2.6021   -3.1476   41.6365 O   0  0  0  0  0  0  0  0  0  0  0  0
   -4.1604   -5.8096   44.9838 C   0  0  1  0  0  0  0  0  0  0  0  0
   -5.1791   -6.7391   45.2877 O   0  0  0  0  0  0  0  0  0  0  0  0
    9.9344   -6.9506   46.6472 C   0  0  0  0  0  0  0  0  0  0  0  0
   10.9575   -6.0277   46.3617 O   0  0  0  0  0  0  0  0  0  0  0  0
    4.3054   -8.3261   44.3176 C   0  0  0  0  0  0  0  0  0  0  0  0
  1  2  1  1  0  0  0
  1  7  1  0  0  0  0
  1 24  1  0  0  0  0
  3  4  1  6  0  0  0
  3  9  1  0  0  0  0
  3 31  1  0  0  0  0
  5  6  1  1  0  0  0
  5 10  1  0  0  0  0
  5 28  1  0  0  0  0
  7  8  1  1  0  0  0
  7 12  1  0  0  0  0
  9 14  1  0  0  0  0
 10 11  1  6  0  0  0
 10 16  1  0  0  0  0
 12 13  1  6  0  0  0
 12 18  1  0  0  0  0
 13 35  1  0  0  0  0
 14 15  1  6  0  0  0
 14 20  1  0  0  0  0
 16 17  1  1  0  0  0
 16 21  1  0  0  0  0
 17 35  1  0  0  0  0
 18 19  1  1  0  0  0
 18 23  1  0  0  0  0
 20  2  1  1  0  0  0
 20 25  1  0  0  0  0
 21 22  1  1  0  0  0
 21 27  1  0  0  0  0
 23 24  1  0  0  0  0
 23 29  1  6  0  0  0
 25 26  1  6  0  0  0
 25 31  1  0  0  0  0
 27 28  1  0  0  0  0
 27 33  1  1  0  0  0
 29 30  1  0  0  0  0
 31 32  1  1  0  0  0
 33 34  1  0  0  0  0
M  END
>  <CHROM.1>
-172.38004385,51.04119960,175.58387896,-80.36444904,-79.31397006,-157.34351386
-64.61187922,-178.97166516,2.65016408,-6.31360529,44.45913478,-3.05399882
-0.12342473,2.23005769

>  <Name>
2o3v_lig

>  <RI>
0

>  <Rbt.Current_Directory>
/home/afrankz/demos/rdock_decoys_rna/rnas/2o3v

>  <Rbt.Executable>
rbdock ($Id: //depot/dev/client3/rdock/2013.1/src/exe/rbdock.cxx#4 $)

>  <Rbt.Library>
libRbt.so (2013.1, Build901 2013/11/27)

>  <Rbt.Parameter_File>
/export/apps/rDock/src/rDock_2013.1_src/data/scripts/dock_solv.prm

>  <Rbt.Receptor>
prm/pocket_docking_7.prm

>  <SCORE>
-11.9885

>  <SCORE.INTER>
-8.11815

>  <SCORE.INTER.CONST>
1

>  <SCORE.INTER.POLAR>
-0.589736

>  <SCORE.INTER.ROT>
8

>  <SCORE.INTER.SOLV>
14.8826

>  <SCORE.INTER.VDW>
-17.3405

>  <SCORE.INTER.norm>
-0.231947

>  <SCORE.INTRA>
-3.87033

>  <SCORE.INTRA.DIHEDRAL>
-6.43242

>  <SCORE.INTRA.DIHEDRAL.0>
13.1227

>  <SCORE.INTRA.POLAR>
0

>  <SCORE.INTRA.POLAR.0>
0

>  <SCORE.INTRA.REPUL>
0

>  <SCORE.INTRA.REPUL.0>
0

>  <SCORE.INTRA.SOLV>
0.945773

>  <SCORE.INTRA.SOLV.lig_0>
-89.1587

>  <SCORE.INTRA.VDW>
-1.127

>  <SCORE.INTRA.VDW.0>
-0.838383

>  <SCORE.INTRA.norm>
-0.110581

>  <SCORE.RESTR>
0

>  <SCORE.RESTR.CAVITY>
0

>  <SCORE.RESTR.norm>
0

>  <SCORE.SYSTEM>
0

>  <SCORE.SYSTEM.CONST>
0

>  <SCORE.SYSTEM.DIHEDRAL>
0

>  <SCORE.SYSTEM.SOLV>
0

>  <SCORE.SYSTEM.norm>
0

>  <SCORE.heavy>
35

>  <SCORE.norm>
-0.342528

>  <RMSD>
10.470

$$$$
2o3v_lig
 OpenBabel02141814113D
libRbt.so/2013.1/901 2013/11/27
 35 37  0  0  0  0  0  0  0  0999 V2000
   -1.5110   -6.4697   45.7952 C   0  0  2  0  0  0  0  0  0  0  0  0
   -2.5965   -6.0753   44.9013 O   0  0  0  0  0  0  0  0  0  0  0  0
   -6.2118   -6.6840   47.2435 C   0  0  2  0  0  0  0  0  0  0  0  0
   -7.6560   -6.7445   47.6214 N   0  0  0  0  0  0  0  0  0  0  0  0
    6.9888   -4.9732   44.0227 C   0  0  2  0  0  0  0  0  0  0  0  0
    6.7834   -5.2516   45.4248 O   0  0  0  0  0  0  0  0  0  0  0  0
   -0.2344   -5.9854   45.0375 C   0  0  2  0  0  0  0  0  0  0  0  0
   -0.2776   -4.5242   44.7943 N   0  0  0  0  0  0  0  0  0  0  0  0
   -5.8095   -5.1955   46.8590 C   0  0  0  0  0  0  0  0  0  0  0  0
    5.5755   -4.8458   43.3559 C   0  0  2  0  0  0  0  0  0  0  0  0
    4.7697   -3.7861   44.0136 N   0  0  0  0  0  0  0  0  0  0  0  0
   -0.0476   -6.7539   43.6576 C   0  0  1  0  0  0  0  0  0  0  0  0
    1.1466   -6.2478   42.9324 O   0  0  0  0  0  0  0  0  0  0  0  0
   -4.2732   -5.1610   46.4502 C   0  0  2  0  0  0  0  0  0  0  0  0
   -3.8806   -3.7851   46.0771 N   0  0  0  0  0  0  0  0  0  0  0  0
    4.7910   -6.2311   43.3776 C   0  0  1  0  0  0  0  0  0  0  0  0
    3.4921   -6.1504   42.7365 O   0  0  0  0  0  0  0  0  0  0  0  0
   -0.0018   -8.3115   43.9823 C   0  0  2  0  0  0  0  0  0  0  0  0
    0.1388   -9.0831   42.8030 O   0  0  0  0  0  0  0  0  0  0  0  0
   -4.0155   -6.1446   45.2356 C   0  0  2  0  0  0  0  0  0  0  0  0
    5.6684   -7.3084   42.6647 C   0  0  2  0  0  0  0  0  0  0  0  0
    5.0241   -8.5672   42.6630 O   0  0  0  0  0  0  0  0  0  0  0  0
   -1.2999   -8.7534   44.7591 C   0  0  2  0  0  0  0  0  0  0  0  0
   -1.4472   -7.9447   45.9874 O   0  0  0  0  0  0  0  0  0  0  0  0
   -4.4174   -7.5967   45.6181 C   0  0  2  0  0  0  0  0  0  0  0  0
   -4.1922   -8.4328   44.4471 O   0  0  0  0  0  0  0  0  0  0  0  0
    7.0832   -7.4011   43.3640 C   0  0  2  0  0  0  0  0  0  0  0  0
    7.7429   -6.0754   43.3665 O   0  0  0  0  0  0  0  0  0  0  0  0
   -1.2641  -10.2387   45.1161 C   0  0  0  0  0  0  0  0  0  0  0  0
   -1.3627  -11.0395   43.9638 O   0  0  0  0  0  0  0  0  0  0  0  0
   -5.9104   -7.6342   46.0198 C   0  0  1  0  0  0  0  0  0  0  0  0
   -6.2479   -8.9607   46.3674 O   0  0  0  0  0  0  0  0  0  0  0  0
    7.9906   -8.4091   42.6751 C   0  0  0  0  0  0  0  0  0  0  0  0
    9.0835   -8.7307   43.5010 O   0  0  0  0  0  0  0  0  0  0  0  0
    2.4324   -6.3338   43.7208 C   0  0  0  0  0  0  0  0  0  0  0  0
  1  2  1  6  0  0  0
  1  7  1  0  0  0  0
  1 24  1  0  0  0  0
  3  4  1  6  0  0  0
  3  9  1  0  0  0  0
  3 31  1  0  0  0  0
  5  6  1  1  0  0  0
  5 10  1  0  0  0  0
  5 28  1  0  0  0  0
  7  8  1  6  0  0  0
  7 12  1  0  0  0  0
  9 14  1  0  0  0  0
 10 11  1  1  0  0  0
 10 16  1  0  0  0  0
 12 13  1  1  0  0  0
 12 18  1  0  0  0  0
 13 35  1  0  0  0  0
 14 15  1  6  0  0  0
 14 20  1  0  0  0  0
 16 17  1  6  0  0  0
 16 21  1  0  0  0  0
 17 35  1  0  0  0  0
 18 19  1  6  0  0  0
 18 23  1  0  0  0  0
 20  2  1  1  0  0  0
 20 25  1  0  0  0  0
 21 22  1  1  0  0  0
 21 27  1  0  0  0  0
 23 24  1  0  0  0  0
 23 29  1  1  0  0  0
 25 26  1  6  0  0  0
 25 31  1  0  0  0  0
 27 28  1  0  0  0  0
 27 33  1  6  0  0  0
 29 30  1  0  0  0  0
 31 32  1  1  0  0  0
 33 34  1  0  0  0  0
M  END
>  <CHROM.1>
-171.40857615,56.56992344,164.82728852,-113.36235289,-179.25358060,63.11796203
-68.40737394,-164.51660456,0.51617122,-6.95473435,44.56002961,-3.11541761
-0.22943528,-2.89837886

>  <Name>
2o3v_lig

>  <RI>
0

>  <Rbt.Current_Directory>
/home/afrankz/demos/rdock_decoys_rna/rnas/2o3v

>  <Rbt.Executable>
rbdock ($Id: //depot/dev/client3/rdock/2013.1/src/exe/rbdock.cxx#4 $)

>  <Rbt.Library>
libRbt.so (2013.1, Build901 2013/11/27)

>  <Rbt.Parameter_File>
/export/apps/rDock/src/rDock_2013.1_src/data/scripts/dock_solv.prm

>  <Rbt.Receptor>
prm/pocket_docking_4.prm

>  <SCORE>
-17.0117

>  <SCORE.INTER>
-13.8488

>  <SCORE.INTER.CONST>
1

>  <SCORE.INTER.POLAR>
-1.20658

>  <SCORE.INTER.ROT>
8

>  <SCORE.INTER.SOLV>
16.7576

>  <SCORE.INTER.VDW>
-19.7298

>  <SCORE.INTER.norm>
-0.395679

>  <SCORE.INTRA>
-3.16298

>  <SCORE.INTRA.DIHEDRAL>
-3.4792

>  <SCORE.INTRA.DIHEDRAL.0>
13.1227

>  <SCORE.INTRA.POLAR>
0

>  <SCORE.INTRA.POLAR.0>
0

>  <SCORE.INTRA.REPUL>
0

>  <SCORE.INTRA.REPUL.0>
0

>  <SCORE.INTRA.SOLV>
0.906124

>  <SCORE.INTRA.SOLV.lig_0>
-89.1587

>  <SCORE.INTRA.VDW>
-1.87644

>  <SCORE.INTRA.VDW.0>
-0.838383

>  <SCORE.INTRA.norm>
-0.0903708

>  <SCORE.RESTR>
0

>  <SCORE.RESTR.CAVITY>
0

>  <SCORE.RESTR.norm>
0

>  <SCORE.SYSTEM>
0

>  <SCORE.SYSTEM.CONST>
0

>  <SCORE.SYSTEM.DIHEDRAL>
0

>  <SCORE.SYSTEM.SOLV>
0

>  <SCORE.SYSTEM.norm>
0

>  <SCORE.heavy>
35

>  <SCORE.norm>
-0.48605

>  <RMSD>
10.492

$$$$
2o3v_lig
 OpenBabel02141814113D
libRbt.so/2013.1/901 2013/11/27
 35 37  0  0  0  0  0  0  0  0999 V2000
   -2.0022   -7.1731   45.6335 C   0  0  2  0  0  0  0  0  0  0  0  0
   -3.1136   -6.9176   44.7213 O   0  0  0  0  0  0  0  0  0  0  0  0
   -7.3159   -6.0779   45.4715 C   0  0  2  0  0  0  0  0  0  0  0  0
   -8.7646   -6.2823   45.7745 N   0  0  0  0  0  0  0  0  0  0  0  0
    6.5982   -4.7702   43.4527 C   0  0  2  0  0  0  0  0  0  0  0  0
    6.5038   -4.5711   44.8799 O   0  0  0  0  0  0  0  0  0  0  0  0
   -0.7893   -6.5077   44.9093 C   0  0  2  0  0  0  0  0  0  0  0  0
   -1.0275   -5.0627   44.6827 N   0  0  0  0  0  0  0  0  0  0  0  0
   -6.9295   -6.8223   44.1217 C   0  0  0  0  0  0  0  0  0  0  0  0
    5.1518   -4.6388   42.8621 C   0  0  2  0  0  0  0  0  0  0  0  0
    4.5589   -3.3185   43.1940 N   0  0  0  0  0  0  0  0  0  0  0  0
   -0.4718   -7.2230   43.5247 C   0  0  1  0  0  0  0  0  0  0  0  0
    0.6559   -6.5477   42.8315 O   0  0  0  0  0  0  0  0  0  0  0  0
   -5.3827   -6.5990   43.8289 C   0  0  2  0  0  0  0  0  0  0  0  0
   -4.9993   -7.2942   42.5815 N   0  0  0  0  0  0  0  0  0  0  0  0
    4.2039   -5.8139   43.3677 C   0  0  1  0  0  0  0  0  0  0  0  0
    2.8670   -5.7359   42.8098 O   0  0  0  0  0  0  0  0  0  0  0  0
   -0.2194   -8.7643   43.8318 C   0  0  2  0  0  0  0  0  0  0  0  0
    0.0487   -9.4919   42.6466 O   0  0  0  0  0  0  0  0  0  0  0  0
   -4.5196   -7.1459   45.0394 C   0  0  2  0  0  0  0  0  0  0  0  0
    4.8596   -7.1785   42.9851 C   0  0  2  0  0  0  0  0  0  0  0  0
    4.0638   -8.2633   43.4204 O   0  0  0  0  0  0  0  0  0  0  0  0
   -1.4598   -9.3910   44.5751 C   0  0  2  0  0  0  0  0  0  0  0  0
   -1.7407   -8.6282   45.8095 O   0  0  0  0  0  0  0  0  0  0  0  0
   -4.9082   -6.4170   46.3563 C   0  0  2  0  0  0  0  0  0  0  0  0
   -4.1077   -6.9962   47.4262 O   0  0  0  0  0  0  0  0  0  0  0  0
    6.3153   -7.2677   43.5953 C   0  0  2  0  0  0  0  0  0  0  0  0
    7.1349   -6.1221   43.1386 O   0  0  0  0  0  0  0  0  0  0  0  0
   -1.2279  -10.8625   44.9150 C   0  0  0  0  0  0  0  0  0  0  0  0
   -0.2351  -11.0045   45.9014 O   0  0  0  0  0  0  0  0  0  0  0  0
   -6.4132   -6.6287   46.6431 C   0  0  1  0  0  0  0  0  0  0  0  0
   -6.7408   -5.9532   47.8392 O   0  0  0  0  0  0  0  0  0  0  0  0
    7.0119   -8.5645   43.2117 C   0  0  0  0  0  0  0  0  0  0  0  0
    7.2564   -8.5994   41.8264 O   0  0  0  0  0  0  0  0  0  0  0  0
    1.9305   -6.4837   43.6398 C   0  0  0  0  0  0  0  0  0  0  0  0
  1  2  1  6  0  0  0
  1  7  1  0  0  0  0
  1 24  1  0  0  0  0
  3  4  1  1  0  0  0
  3  9  1  0  0  0  0
  3 31  1  0  0  0  0
  5  6  1  1  0  0  0
  5 10  1  0  0  0  0
  5 28  1  0  0  0  0
  7  8  1  6  0  0  0
  7 12  1  0  0  0  0
  9 14  1  0  0  0  0
 10 11  1  1  0  0  0
 10 16  1  0  0  0  0
 12 13  1  1  0  0  0
 12 18  1  0  0  0  0
 13 35  1  0  0  0  0
 14 15  1  6  0  0  0
 14 20  1  0  0  0  0
 16 17  1  6  0  0  0
 16 21  1  0  0  0  0
 17 35  1  0  0  0  0
 18 19  1  6  0  0  0
 18 23  1  0  0  0  0
 20  2  1  6  0  0  0
 20 25  1  0  0  0  0
 21 22  1  1  0  0  0
 21 27  1  0  0  0  0
 23 24  1  0  0  0  0
 23 29  1  1  0  0  0
 25 26  1  1  0  0  0
 25 31  1  0  0  0  0
 27 28  1  0  0  0  0
 27 33  1  6  0  0  0
 29 30  1  0  0  0  0
 31 32  1  1  0  0  0
 33 34  1  0  0  0  0
M  END
>  <CHROM.1>
-169.38398705,57.27930960,-177.30839389,-159.06535678,-169.60800985,174.30398782
68.53286048,66.37653424,-0.02711901,-7.02952725,44.33001749,-3.11392478,0.20886684
0.04943564

>  <Name>
2o3v_lig

>  <RI>
0

>  <Rbt.Current_Directory>
/home/afrankz/demos/rdock_decoys_rna/rnas/2o3v

>  <Rbt.Executable>
rbdock ($Id: //depot/dev/client3/rdock/2013.1/src/exe/rbdock.cxx#4 $)

>  <Rbt.Library>
libRbt.so (2013.1, Build901 2013/11/27)

>  <Rbt.Parameter_File>
/export/apps/rDock/src/rDock_2013.1_src/data/scripts/dock_solv.prm

>  <Rbt.Receptor>
prm/pocket_docking_4.prm

>  <SCORE>
-18.3206

>  <SCORE.INTER>
-12.9606

>  <SCORE.INTER.CONST>
1

>  <SCORE.INTER.POLAR>
-1.57268

>  <SCORE.INTER.ROT>
8

>  <SCORE.INTER.SOLV>
18.8159

>  <SCORE.INTER.VDW>
-18.6035

>  <SCORE.INTER.norm>
-0.370303

>  <SCORE.INTRA>
-5.35995

>  <SCORE.INTRA.DIHEDRAL>
-9.41469

>  <SCORE.INTRA.DIHEDRAL.0>
13.1227

>  <SCORE.INTRA.POLAR>
0

>  <SCORE.INTRA.POLAR.0>
0

>  <SCORE.INTRA.REPUL>
0

>  <SCORE.INTRA.REPUL.0>
0

>  <SCORE.INTRA.SOLV>
-0.748916

>  <SCORE.INTRA.SOLV.lig_0>
-89.1587

>  <SCORE.INTRA.VDW>
-0.278152

>  <SCORE.INTRA.VDW.0>
-0.838383

>  <SCORE.INTRA.norm>
-0.153142

>  <SCORE.RESTR>
0

>  <SCORE.RESTR.CAVITY>
0

>  <SCORE.RESTR.norm>
0

>  <SCORE.SYSTEM>
0

>  <SCORE.SYSTEM.CONST>
0

>  <SCORE.SYSTEM.DIHEDRAL>
0

>  <SCORE.SYSTEM.SOLV>
0

>  <SCORE.SYSTEM.norm>
0

>  <SCORE.heavy>
35

>  <SCORE.norm>
-0.523445

>  <RMSD>
10.493

$$$$
2o3v_lig
 OpenBabel02141814113D
libRbt.so/2013.1/901 2013/11/27
 35 37  0  0  0  0  0  0  0  0999 V2000
   -2.5175   -6.7981   45.1989 C   0  0  2  0  0  0  0  0  0  0  0  0
   -3.4929   -6.8277   44.1124 O   0  0  0  0  0  0  0  0  0  0  0  0
   -7.6714   -7.9811   43.7430 C   0  0  2  0  0  0  0  0  0  0  0  0
   -9.1541   -7.9946   43.9263 N   0  0  0  0  0  0  0  0  0  0  0  0
    6.5062   -5.1255   43.5144 C   0  0  2  0  0  0  0  0  0  0  0  0
    6.3436   -4.6280   44.8604 O   0  0  0  0  0  0  0  0  0  0  0  0
   -1.2481   -6.1940   44.5191 C   0  0  2  0  0  0  0  0  0  0  0  0
   -1.5278   -4.8504   43.9599 N   0  0  0  0  0  0  0  0  0  0  0  0
   -6.9463   -8.2264   45.1356 C   0  0  0  0  0  0  0  0  0  0  0  0
    5.1250   -4.9772   42.7874 C   0  0  2  0  0  0  0  0  0  0  0  0
    4.6660   -3.5650   42.7988 N   0  0  0  0  0  0  0  0  0  0  0  0
   -0.6897   -7.1463   43.3742 C   0  0  1  0  0  0  0  0  0  0  0  0
    0.4904   -6.5335   42.7108 O   0  0  0  0  0  0  0  0  0  0  0  0
   -5.3719   -8.1957   44.9149 C   0  0  2  0  0  0  0  0  0  0  0  0
   -4.6771   -8.4108   46.2023 N   0  0  0  0  0  0  0  0  0  0  0  0
    4.0192   -5.9237   43.4325 C   0  0  1  0  0  0  0  0  0  0  0  0
    2.7384   -5.8314   42.7573 O   0  0  0  0  0  0  0  0  0  0  0  0
   -0.4027   -8.5663   44.0336 C   0  0  2  0  0  0  0  0  0  0  0  0
    0.0779   -9.4943   43.0777 O   0  0  0  0  0  0  0  0  0  0  0  0
   -4.9408   -6.8036   44.2941 C   0  0  2  0  0  0  0  0  0  0  0  0
    4.5387   -7.3956   43.3857 C   0  0  2  0  0  0  0  0  0  0  0  0
    3.5984   -8.2838   43.9572 O   0  0  0  0  0  0  0  0  0  0  0  0
   -1.7042   -9.1310   44.7200 C   0  0  2  0  0  0  0  0  0  0  0  0
   -2.2067   -8.1599   45.7144 O   0  0  0  0  0  0  0  0  0  0  0  0
   -5.6591   -6.5691   42.9357 C   0  0  2  0  0  0  0  0  0  0  0  0
   -5.2478   -5.2603   42.4467 O   0  0  0  0  0  0  0  0  0  0  0  0
    5.9326   -7.4997   44.1243 C   0  0  2  0  0  0  0  0  0  0  0  0
    6.9047   -6.5591   43.5218 O   0  0  0  0  0  0  0  0  0  0  0  0
   -1.4461  -10.4780   45.3937 C   0  0  0  0  0  0  0  0  0  0  0  0
   -1.1378  -11.4689   44.4440 O   0  0  0  0  0  0  0  0  0  0  0  0
   -7.1912   -6.6016   43.1452 C   0  0  1  0  0  0  0  0  0  0  0  0
   -7.8187   -6.3920   41.8977 O   0  0  0  0  0  0  0  0  0  0  0  0
    6.5004   -8.9098   44.0666 C   0  0  0  0  0  0  0  0  0  0  0  0
    7.7442   -8.9655   44.7222 O   0  0  0  0  0  0  0  0  0  0  0  0
    1.6754   -6.3250   43.6243 C   0  0  0  0  0  0  0  0  0  0  0  0
  1  2  1  6  0  0  0
  1  7  1  0  0  0  0
  1 24  1  0  0  0  0
  3  4  1  1  0  0  0
  3  9  1  0  0  0  0
  3 31  1  0  0  0  0
  5  6  1  1  0  0  0
  5 10  1  0  0  0  0
  5 28  1  0  0  0  0
  7  8  1  6  0  0  0
  7 12  1  0  0  0  0
  9 14  1  0  0  0  0
 10 11  1  1  0  0  0
 10 16  1  0  0  0  0
 12 13  1  1  0  0  0
 12 18  1  0  0  0  0
 13 35  1  0  0  0  0
 14 15  1  1  0  0  0
 14 20  1  0  0  0  0
 16 17  1  6  0  0  0
 16 21  1  0  0  0  0
 17 35  1  0  0  0  0
 18 19  1  6  0  0  0
 18 23  1  0  0  0  0
 20  2  1  6  0  0  0
 20 25  1  0  0  0  0
 21 22  1  1  0  0  0
 21 27  1  0  0  0  0
 23 24  1  0  0  0  0
 23 29  1  1  0  0  0
 25 26  1  1  0  0  0
 25 31  1  0  0  0  0
 27 28  1  0  0  0  0
 27 33  1  6  0  0  0
 29 30  1  0  0  0  0
 31 32  1  6  0  0  0
 33 34  1  0  0  0  0
M  END
>  <CHROM.1>
-154.92839182,63.00351780,175.25577663,-160.36028085,-165.02742719,-70.19210663
-65.80849043,179.50669341,-0.34381075,-7.21636766,43.91729465,3.07188549
0.01112438,2.79076015

>  <Name>
2o3v_lig

>  <RI>
0

>  <Rbt.Current_Directory>
/home/afrankz/demos/rdock_decoys_rna/rnas/2o3v

>  <Rbt.Executable>
rbdock ($Id: //depot/dev/client3/rdock/2013.1/src/exe/rbdock.cxx#4 $)

>  <Rbt.Library>
libRbt.so (2013.1, Build901 2013/11/27)

>  <Rbt.Parameter_File>
/export/apps/rDock/src/rDock_2013.1_src/data/scripts/dock_solv.prm

>  <Rbt.Receptor>
prm/pocket_docking_5.prm

>  <SCORE>
-15.2496

>  <SCORE.INTER>
-12.7117

>  <SCORE.INTER.CONST>
1

>  <SCORE.INTER.POLAR>
-1.87841

>  <SCORE.INTER.ROT>
8

>  <SCORE.INTER.SOLV>
12.8495

>  <SCORE.INTER.VDW>
-15.4296

>  <SCORE.INTER.norm>
-0.36319

>  <SCORE.INTRA>
-2.54029

>  <SCORE.INTRA.DIHEDRAL>
-6.83857

>  <SCORE.INTRA.DIHEDRAL.0>
13.1227

>  <SCORE.INTRA.POLAR>
0

>  <SCORE.INTRA.POLAR.0>
0

>  <SCORE.INTRA.REPUL>
0

>  <SCORE.INTRA.REPUL.0>
0

>  <SCORE.INTRA.SOLV>
2.21131

>  <SCORE.INTRA.SOLV.lig_0>
-89.1587

>  <SCORE.INTRA.VDW>
-0.226658

>  <SCORE.INTRA.VDW.0>
-0.838383

>  <SCORE.INTRA.norm>
-0.0725797

>  <SCORE.RESTR>
0.00231488

>  <SCORE.RESTR.CAVITY>
0.00231488

>  <SCORE.RESTR.norm>
6.61395e-05

>  <SCORE.SYSTEM>
0

>  <SCORE.SYSTEM.CONST>
0

>  <SCORE.SYSTEM.DIHEDRAL>
0

>  <SCORE.SYSTEM.SOLV>
0

>  <SCORE.SYSTEM.norm>
0

>  <SCORE.heavy>
35

>  <SCORE.norm>
-0.435704

>  <RMSD>
10.528

$$$$
2o3v_lig
 OpenBabel02141814113D
libRbt.so/2013.1/901 2013/11/27
 35 37  0  0  0  0  0  0  0  0999 V2000
   -1.8609   -7.0801   45.7495 C   0  0  2  0  0  0  0  0  0  0  0  0
   -2.9922   -6.8199   44.8635 O   0  0  0  0  0  0  0  0  0  0  0  0
   -7.2713   -6.5858   45.6131 C   0  0  2  0  0  0  0  0  0  0  0  0
   -8.6874   -6.9972   45.8534 N   0  0  0  0  0  0  0  0  0  0  0  0
    6.7216   -4.8266   43.3217 C   0  0  2  0  0  0  0  0  0  0  0  0
    6.6451   -4.5506   44.7371 O   0  0  0  0  0  0  0  0  0  0  0  0
   -0.6603   -6.4303   44.9914 C   0  0  2  0  0  0  0  0  0  0  0  0
   -0.8910   -4.9845   44.7617 N   0  0  0  0  0  0  0  0  0  0  0  0
   -6.7866   -7.1011   44.1900 C   0  0  0  0  0  0  0  0  0  0  0  0
    5.2710   -4.7051   42.7391 C   0  0  2  0  0  0  0  0  0  0  0  0
    4.7007   -3.3604   43.0060 N   0  0  0  0  0  0  0  0  0  0  0  0
   -0.3838   -7.1568   43.6039 C   0  0  1  0  0  0  0  0  0  0  0  0
    0.7325   -6.4962   42.8788 O   0  0  0  0  0  0  0  0  0  0  0  0
   -5.2754   -6.6608   43.9645 C   0  0  2  0  0  0  0  0  0  0  0  0
   -4.8004   -7.1409   42.6491 N   0  0  0  0  0  0  0  0  0  0  0  0
    4.3118   -5.8374   43.3158 C   0  0  1  0  0  0  0  0  0  0  0  0
    2.9703   -5.7692   42.7676 O   0  0  0  0  0  0  0  0  0  0  0  0
   -0.1378   -8.6985   43.9143 C   0  0  2  0  0  0  0  0  0  0  0  0
    0.0943   -9.4357   42.7275 O   0  0  0  0  0  0  0  0  0  0  0  0
   -4.3632   -7.2516   45.1169 C   0  0  2  0  0  0  0  0  0  0  0  0
    4.9437   -7.2301   43.0000 C   0  0  2  0  0  0  0  0  0  0  0  0
    4.1370   -8.2783   43.5002 O   0  0  0  0  0  0  0  0  0  0  0  0
   -1.3650   -9.3092   44.6919 C   0  0  2  0  0  0  0  0  0  0  0  0
   -1.6084   -8.5365   45.9281 O   0  0  0  0  0  0  0  0  0  0  0  0
   -4.8479   -6.7477   46.5052 C   0  0  2  0  0  0  0  0  0  0  0  0
   -3.9927   -7.3598   47.5127 O   0  0  0  0  0  0  0  0  0  0  0  0
    6.4043   -7.3085   43.5999 C   0  0  2  0  0  0  0  0  0  0  0  0
    7.2354   -6.2011   43.0748 O   0  0  0  0  0  0  0  0  0  0  0  0
   -1.1381  -10.7807   45.0353 C   0  0  0  0  0  0  0  0  0  0  0  0
   -2.2675  -11.3342   45.6654 O   0  0  0  0  0  0  0  0  0  0  0  0
   -6.3189   -7.1708   46.7273 C   0  0  1  0  0  0  0  0  0  0  0  0
   -6.7357   -6.6969   47.9906 O   0  0  0  0  0  0  0  0  0  0  0  0
    7.0781   -8.6341   43.2790 C   0  0  0  0  0  0  0  0  0  0  0  0
    8.3692   -8.6763   43.8368 O   0  0  0  0  0  0  0  0  0  0  0  0
    2.0303   -6.4489   43.6506 C   0  0  0  0  0  0  0  0  0  0  0  0
  1  2  1  6  0  0  0
  1  7  1  0  0  0  0
  1 24  1  0  0  0  0
  3  4  1  1  0  0  0
  3  9  1  0  0  0  0
  3 31  1  0  0  0  0
  5  6  1  1  0  0  0
  5 10  1  0  0  0  0
  5 28  1  0  0  0  0
  7  8  1  6  0  0  0
  7 12  1  0  0  0  0
  9 14  1  0  0  0  0
 10 11  1  1  0  0  0
 10 16  1  0  0  0  0
 12 13  1  1  0  0  0
 12 18  1  0  0  0  0
 13 35  1  0  0  0  0
 14 15  1  6  0  0  0
 14 20  1  0  0  0  0
 16 17  1  6  0  0  0
 16 21  1  0  0  0  0
 17 35  1  0  0  0  0
 18 19  1  6  0  0  0
 18 23  1  0  0  0  0
 20  2  1  6  0  0  0
 20 25  1  0  0  0  0
 21 22  1  1  0  0  0
 21 27  1  0  0  0  0
 23 24  1  0  0  0  0
 23 29  1  1  0  0  0
 25 26  1  1  0  0  0
 25 31  1  0  0  0  0
 27 28  1  0  0  0  0
 27 33  1  6  0  0  0
 29 30  1  0  0  0  0
 31 32  1  1  0  0  0
 33 34  1  0  0  0  0
M  END
>  <CHROM.1>
179.02871137,57.74400898,-179.93506611,-158.62349006,-171.49669496,175.62033046
-176.85121076,-179.45244467,0.03910717,-7.12973672,44.43034872,3.04983396
-0.19208671,3.06049798

>  <Name>
2o3v_lig

>  <RI>
0

>  <Rbt.Current_Directory>
/home/afrankz/demos/rdock_decoys_rna/rnas/2o3v

>  <Rbt.Executable>
rbdock ($Id: //depot/dev/client3/rdock/2013.1/src/exe/rbdock.cxx#4 $)

>  <Rbt.Library>
libRbt.so (2013.1, Build901 2013/11/27)

>  <Rbt.Parameter_File>
/export/apps/rDock/src/rDock_2013.1_src/data/scripts/dock_solv.prm

>  <Rbt.Receptor>
prm/pocket_docking_5.prm

>  <SCORE>
-18.0994

>  <SCORE.INTER>
-11.798

>  <SCORE.INTER.CONST>
1

>  <SCORE.INTER.POLAR>
-1.7069

>  <SCORE.INTER.ROT>
8

>  <SCORE.INTER.SOLV>
17.47

>  <SCORE.INTER.VDW>
-16.9323

>  <SCORE.INTER.norm>
-0.337085

>  <SCORE.INTRA>
-6.3014

>  <SCORE.INTRA.DIHEDRAL>
-10.5301

>  <SCORE.INTRA.DIHEDRAL.0>
13.1227

>  <SCORE.INTRA.POLAR>
0

>  <SCORE.INTRA.POLAR.0>
0

>  <SCORE.INTRA.REPUL>
0

>  <SCORE.INTRA.REPUL.0>
0

>  <SCORE.INTRA.SOLV>
-1.37758

>  <SCORE.INTRA.SOLV.lig_0>
-89.1587

>  <SCORE.INTRA.VDW>
-0.347545

>  <SCORE.INTRA.VDW.0>
-0.838383

>  <SCORE.INTRA.norm>
-0.18004

>  <SCORE.RESTR>
0

>  <SCORE.RESTR.CAVITY>
0

>  <SCORE.RESTR.norm>
0

>  <SCORE.SYSTEM>
0

>  <SCORE.SYSTEM.CONST>
0

>  <SCORE.SYSTEM.DIHEDRAL>
0

>  <SCORE.SYSTEM.SOLV>
0

>  <SCORE.SYSTEM.norm>
0

>  <SCORE.heavy>
35

>  <SCORE.norm>
-0.517125

>  <RMSD>
10.548

$$$$
2o3v_lig
 OpenBabel02141814113D
libRbt.so/2013.1/901 2013/11/27
 35 37  0  0  0  0  0  0  0  0999 V2000
   -2.2699   -6.3864   45.4680 C   0  0  2  0  0  0  0  0  0  0  0  0
   -3.3134   -6.2389   44.4570 O   0  0  0  0  0  0  0  0  0  0  0  0
   -7.5496   -5.2597   44.6071 C   0  0  2  0  0  0  0  0  0  0  0  0
   -9.0206   -5.3849   44.8367 N   0  0  0  0  0  0  0  0  0  0  0  0
    6.5796   -5.0701   43.3969 C   0  0  2  0  0  0  0  0  0  0  0  0
    6.4294   -4.5653   44.7416 O   0  0  0  0  0  0  0  0  0  0  0  0
   -0.9735   -5.9726   44.7021 C   0  0  2  0  0  0  0  0  0  0  0  0
   -1.0779   -4.5896   44.1800 N   0  0  0  0  0  0  0  0  0  0  0  0
   -7.0676   -6.3425   43.5486 C   0  0  0  0  0  0  0  0  0  0  0  0
    5.1806   -4.9676   42.6964 C   0  0  2  0  0  0  0  0  0  0  0  0
    4.6817   -3.5690   42.7052 N   0  0  0  0  0  0  0  0  0  0  0  0
   -0.6557   -6.9744   43.5084 C   0  0  1  0  0  0  0  0  0  0  0  0
    0.5553   -6.5384   42.7656 O   0  0  0  0  0  0  0  0  0  0  0  0
   -5.4992   -6.1956   43.3316 C   0  0  2  0  0  0  0  0  0  0  0  0
   -5.0276   -7.2030   42.3574 N   0  0  0  0  0  0  0  0  0  0  0  0
    4.1153   -5.9393   43.3714 C   0  0  1  0  0  0  0  0  0  0  0  0
    2.8193   -5.8895   42.7212 O   0  0  0  0  0  0  0  0  0  0  0  0
   -0.5490   -8.4363   44.1290 C   0  0  2  0  0  0  0  0  0  0  0  0
   -0.2903   -9.4061   43.1299 O   0  0  0  0  0  0  0  0  0  0  0  0
   -4.7434   -6.3826   44.7110 C   0  0  2  0  0  0  0  0  0  0  0  0
    4.6756   -7.3962   43.3266 C   0  0  2  0  0  0  0  0  0  0  0  0
    3.7725   -8.3055   43.9243 O   0  0  0  0  0  0  0  0  0  0  0  0
   -1.8703   -8.8063   44.9043 C   0  0  2  0  0  0  0  0  0  0  0  0
   -2.1410   -7.7912   45.9439 O   0  0  0  0  0  0  0  0  0  0  0  0
   -5.2252   -5.3237   45.7421 C   0  0  2  0  0  0  0  0  0  0  0  0
   -4.5210   -5.5808   46.9907 O   0  0  0  0  0  0  0  0  0  0  0  0
    6.0862   -7.4541   44.0381 C   0  0  2  0  0  0  0  0  0  0  0  0
    7.0190   -6.4917   43.4084 O   0  0  0  0  0  0  0  0  0  0  0  0
   -1.7795  -10.1918   45.5421 C   0  0  0  0  0  0  0  0  0  0  0  0
   -1.7015  -11.1972   44.5613 O   0  0  0  0  0  0  0  0  0  0  0  0
   -6.7512   -5.4608   45.9536 C   0  0  1  0  0  0  0  0  0  0  0  0
   -7.1634   -4.4860   46.8884 O   0  0  0  0  0  0  0  0  0  0  0  0
    6.6928   -8.8479   43.9809 C   0  0  0  0  0  0  0  0  0  0  0  0
    7.9288   -8.8734   44.6529 O   0  0  0  0  0  0  0  0  0  0  0  0
    1.7815   -6.3609   43.6300 C   0  0  0  0  0  0  0  0  0  0  0  0
  1  2  1  6  0  0  0
  1  7  1  0  0  0  0
  1 24  1  0  0  0  0
  3  4  1  1  0  0  0
  3  9  1  0  0  0  0
  3 31  1  0  0  0  0
  5  6  1  1  0  0  0
  5 10  1  0  0  0  0
  5 28  1  0  0  0  0
  7  8  1  6  0  0  0
  7 12  1  0  0  0  0
  9 14  1  0  0  0  0
 10 11  1  1  0  0  0
 10 16  1  0  0  0  0
 12 13  1  1  0  0  0
 12 18  1  0  0  0  0
 13 35  1  0  0  0  0
 14 15  1  6  0  0  0
 14 20  1  0  0  0  0
 16 17  1  6  0  0  0
 16 21  1  0  0  0  0
 17 35  1  0  0  0  0
 18 19  1  6  0  0  0
 18 23  1  0  0  0  0
 20  2  1  6  0  0  0
 20 25  1  0  0  0  0
 21 22  1  1  0  0  0
 21 27  1  0  0  0  0
 23 24  1  0  0  0  0
 23 29  1  1  0  0  0
 25 26  1  1  0  0  0
 25 31  1  0  0  0  0
 27 28  1  0  0  0  0
 27 33  1  6  0  0  0
 29 30  1  0  0  0  0
 31 32  1  1  0  0  0
 33 34  1  0  0  0  0
M  END
>  <CHROM.1>
-173.71196494,55.27346037,-177.92369164,-158.35801614,-168.41721827,-177.91260650
-65.87578218,-178.42300981,-0.24878176,-6.71145234,44.26530977,-3.09609141
-0.11684419,3.09715586

>  <Name>
2o3v_lig

>  <RI>
0

>  <Rbt.Current_Directory>
/home/afrankz/demos/rdock_decoys_rna/rnas/2o3v

>  <Rbt.Executable>
rbdock ($Id: //depot/dev/client3/rdock/2013.1/src/exe/rbdock.cxx#4 $)

>  <Rbt.Library>
libRbt.so (2013.1, Build901 2013/11/27)

>  <Rbt.Parameter_File>
/export/apps/rDock/src/rDock_2013.1_src/data/scripts/dock_solv.prm

>  <Rbt.Receptor>
prm/pocket_docking_6.prm

>  <SCORE>
-17.4705

>  <SCORE.INTER>
-11.754

>  <SCORE.INTER.CONST>
1

>  <SCORE.INTER.POLAR>
-1.80812

>  <SCORE.INTER.ROT>
8

>  <SCORE.INTER.SOLV>
15.7535

>  <SCORE.INTER.VDW>
-15.9934

>  <SCORE.INTER.norm>
-0.335829

>  <SCORE.INTRA>
-5.71647

>  <SCORE.INTRA.DIHEDRAL>
-9.88254

>  <SCORE.INTRA.DIHEDRAL.0>
13.1227

>  <SCORE.INTRA.POLAR>
0

>  <SCORE.INTRA.POLAR.0>
0

>  <SCORE.INTRA.REPUL>
0

>  <SCORE.INTRA.REPUL.0>
0

>  <SCORE.INTRA.SOLV>
-0.89497

>  <SCORE.INTRA.SOLV.lig_0>
-89.1587

>  <SCORE.INTRA.VDW>
-0.327717

>  <SCORE.INTRA.VDW.0>
-0.838383

>  <SCORE.INTRA.norm>
-0.163328

>  <SCORE.RESTR>
0

>  <SCORE.RESTR.CAVITY>
0

>  <SCORE.RESTR.norm>
0

>  <SCORE.SYSTEM>
0

>  <SCORE.SYSTEM.CONST>
0

>  <SCORE.SYSTEM.DIHEDRAL>
0

>  <SCORE.SYSTEM.SOLV>
0

>  <SCORE.SYSTEM.norm>
0

>  <SCORE.heavy>
35

>  <SCORE.norm>
-0.499156

>  <RMSD>
10.550

$$$$
2o3v_lig
 OpenBabel02141814113D
libRbt.so/2013.1/901 2013/11/27
 35 37  0  0  0  0  0  0  0  0999 V2000
   -4.7941   -4.5489   43.9630 C   0  0  2  0  0  0  0  0  0  0  0  0
   -4.9624   -5.5696   44.9939 O   0  0  0  0  0  0  0  0  0  0  0  0
   -8.2030   -6.4990   47.7437 C   0  0  2  0  0  0  0  0  0  0  0  0
   -9.1272   -6.4209   48.9151 N   0  0  0  0  0  0  0  0  0  0  0  0
    4.9809   -5.7934   43.6613 C   0  0  2  0  0  0  0  0  0  0  0  0
    4.8891   -5.1925   44.9712 O   0  0  0  0  0  0  0  0  0  0  0  0
   -3.5874   -5.0837   43.1286 C   0  0  2  0  0  0  0  0  0  0  0  0
   -3.8757   -6.4253   42.5688 N   0  0  0  0  0  0  0  0  0  0  0  0
   -6.7105   -6.7273   48.2394 C   0  0  0  0  0  0  0  0  0  0  0  0
    3.6000   -5.5836   42.9491 C   0  0  2  0  0  0  0  0  0  0  0  0
    3.2560   -4.1414   42.8683 N   0  0  0  0  0  0  0  0  0  0  0  0
   -2.2560   -5.1391   43.9967 C   0  0  1  0  0  0  0  0  0  0  0  0
   -1.1312   -5.6918   43.1981 O   0  0  0  0  0  0  0  0  0  0  0  0
   -5.7474   -6.7949   46.9760 C   0  0  2  0  0  0  0  0  0  0  0  0
   -4.3501   -6.9956   47.4163 N   0  0  0  0  0  0  0  0  0  0  0  0
    2.4368   -6.3900   43.6780 C   0  0  1  0  0  0  0  0  0  0  0  0
    1.1526   -6.2405   43.0198 O   0  0  0  0  0  0  0  0  0  0  0  0
   -1.9956   -3.6746   44.5634 C   0  0  2  0  0  0  0  0  0  0  0  0
   -0.8357   -3.6313   45.3749 O   0  0  0  0  0  0  0  0  0  0  0  0
   -5.8625   -5.4561   46.1371 C   0  0  2  0  0  0  0  0  0  0  0  0
    2.8355   -7.8991   43.7267 C   0  0  2  0  0  0  0  0  0  0  0  0
    1.8402   -8.6660   44.3754 O   0  0  0  0  0  0  0  0  0  0  0  0
   -3.2422   -3.1692   45.3846 C   0  0  2  0  0  0  0  0  0  0  0  0
   -4.4524   -3.2186   44.5377 O   0  0  0  0  0  0  0  0  0  0  0  0
   -7.3262   -5.2375   45.6617 C   0  0  2  0  0  0  0  0  0  0  0  0
   -7.3637   -3.9755   44.9359 O   0  0  0  0  0  0  0  0  0  0  0  0
    4.2328   -8.0651   44.4472 C   0  0  2  0  0  0  0  0  0  0  0  0
    5.2634   -7.2508   43.7633 O   0  0  0  0  0  0  0  0  0  0  0  0
   -3.0327   -1.7493   45.9090 C   0  0  0  0  0  0  0  0  0  0  0  0
   -4.1030   -1.3490   46.7295 O   0  0  0  0  0  0  0  0  0  0  0  0
   -8.2672   -5.1747   46.8875 C   0  0  1  0  0  0  0  0  0  0  0  0
   -9.5887   -4.9815   46.4287 O   0  0  0  0  0  0  0  0  0  0  0  0
    4.6844   -9.5174   44.4798 C   0  0  0  0  0  0  0  0  0  0  0  0
    3.7988  -10.2898   45.2538 O   0  0  0  0  0  0  0  0  0  0  0  0
    0.1047   -6.0098   44.0066 C   0  0  0  0  0  0  0  0  0  0  0  0
  1  2  1  1  0  0  0
  1  7  1  0  0  0  0
  1 24  1  0  0  0  0
  3  4  1  1  0  0  0
  3  9  1  0  0  0  0
  3 31  1  0  0  0  0
  5  6  1  1  0  0  0
  5 10  1  0  0  0  0
  5 28  1  0  0  0  0
  7  8  1  1  0  0  0
  7 12  1  0  0  0  0
  9 14  1  0  0  0  0
 10 11  1  1  0  0  0
 10 16  1  0  0  0  0
 12 13  1  6  0  0  0
 12 18  1  0  0  0  0
 13 35  1  0  0  0  0
 14 15  1  1  0  0  0
 14 20  1  0  0  0  0
 16 17  1  6  0  0  0
 16 21  1  0  0  0  0
 17 35  1  0  0  0  0
 18 19  1  1  0  0  0
 18 23  1  0  0  0  0
 20  2  1  6  0  0  0
 20 25  1  0  0  0  0
 21 22  1  1  0  0  0
 21 27  1  0  0  0  0
 23 24  1  0  0  0  0
 23 29  1  6  0  0  0
 25 26  1  1  0  0  0
 25 31  1  0  0  0  0
 27 28  1  0  0  0  0
 27 33  1  6  0  0  0
 29 30  1  0  0  0  0
 31 32  1  6  0  0  0
 33 34  1  0  0  0  0
M  END
>  <CHROM.1>
171.94778640,-169.68477836,-167.62315674,-135.89229804,172.75317441,178.91292548
-175.23380713,-64.24460017,-1.89622639,-5.66609000,44.99152753,-3.03736389
-0.27121815,2.83521147

>  <Name>
2o3v_lig

>  <RI>
0

>  <Rbt.Current_Directory>
/home/afrankz/demos/rdock_decoys_rna/rnas/2o3v

>  <Rbt.Executable>
rbdock ($Id: //depot/dev/client3/rdock/2013.1/src/exe/rbdock.cxx#4 $)

>  <Rbt.Library>
libRbt.so (2013.1, Build901 2013/11/27)

>  <Rbt.Parameter_File>
/export/apps/rDock/src/rDock_2013.1_src/data/scripts/dock_solv.prm

>  <Rbt.Receptor>
prm/pocket_docking_7.prm

>  <SCORE>
-9.10361

>  <SCORE.INTER>
-4.39077

>  <SCORE.INTER.CONST>
1

>  <SCORE.INTER.POLAR>
-0.761707

>  <SCORE.INTER.ROT>
8

>  <SCORE.INTER.SOLV>
12.0198

>  <SCORE.INTER.VDW>
-13.3281

>  <SCORE.INTER.norm>
-0.12545

>  <SCORE.INTRA>
-4.71284

>  <SCORE.INTRA.DIHEDRAL>
-5.09111

>  <SCORE.INTRA.DIHEDRAL.0>
13.1227

>  <SCORE.INTRA.POLAR>
0

>  <SCORE.INTRA.POLAR.0>
0

>  <SCORE.INTRA.REPUL>
0

>  <SCORE.INTRA.REPUL.0>
0

>  <SCORE.INTRA.SOLV>
-1.32266

>  <SCORE.INTRA.SOLV.lig_0>
-89.1587

>  <SCORE.INTRA.VDW>
-1.50595

>  <SCORE.INTRA.VDW.0>
-0.838383

>  <SCORE.INTRA.norm>
-0.134653

>  <SCORE.RESTR>
0

>  <SCORE.RESTR.CAVITY>
0

>  <SCORE.RESTR.norm>
0

>  <SCORE.SYSTEM>
0

>  <SCORE.SYSTEM.CONST>
0

>  <SCORE.SYSTEM.DIHEDRAL>
0

>  <SCORE.SYSTEM.SOLV>
0

>  <SCORE.SYSTEM.norm>
0

>  <SCORE.heavy>
35

>  <SCORE.norm>
-0.260103

>  <RMSD>
10.613

$$$$
2o3v_lig
 OpenBabel02141814113D
libRbt.so/2013.1/901 2013/11/27
 35 37  0  0  0  0  0  0  0  0999 V2000
   -1.0833   -3.7633   45.0047 C   0  0  2  0  0  0  0  0  0  0  0  0
   -2.0528   -3.5960   43.9253 O   0  0  0  0  0  0  0  0  0  0  0  0
   -5.6817   -1.2618   43.3688 C   0  0  2  0  0  0  0  0  0  0  0  0
   -7.0893   -0.7831   43.5163 N   0  0  0  0  0  0  0  0  0  0  0  0
    7.0668   -5.0206   44.1327 C   0  0  2  0  0  0  0  0  0  0  0  0
    6.7917   -5.2763   45.5271 O   0  0  0  0  0  0  0  0  0  0  0  0
    0.2351   -4.1149   44.2454 C   0  0  2  0  0  0  0  0  0  0  0  0
    0.6099   -3.0401   43.2964 N   0  0  0  0  0  0  0  0  0  0  0  0
   -5.6667   -2.7611   42.8424 C   0  0  0  0  0  0  0  0  0  0  0  0
    5.6891   -4.9298   43.3897 C   0  0  2  0  0  0  0  0  0  0  0  0
    4.8327   -3.8718   43.9831 N   0  0  0  0  0  0  0  0  0  0  0  0
    0.1107   -5.4972   43.4688 C   0  0  1  0  0  0  0  0  0  0  0  0
    1.3588   -5.7915   42.7176 O   0  0  0  0  0  0  0  0  0  0  0  0
   -4.1596   -3.2493   42.7056 C   0  0  2  0  0  0  0  0  0  0  0  0
   -4.1232   -4.6480   42.2274 N   0  0  0  0  0  0  0  0  0  0  0  0
    4.9269   -6.3276   43.3969 C   0  0  1  0  0  0  0  0  0  0  0  0
    3.6627   -6.2810   42.6866 O   0  0  0  0  0  0  0  0  0  0  0  0
   -0.2853   -6.6094   44.5364 C   0  0  2  0  0  0  0  0  0  0  0  0
   -0.4435   -7.8788   43.9285 O   0  0  0  0  0  0  0  0  0  0  0  0
   -3.4267   -3.1377   44.1055 C   0  0  2  0  0  0  0  0  0  0  0  0
    5.8581   -7.4029   42.7526 C   0  0  2  0  0  0  0  0  0  0  0  0
    5.2351   -8.6722   42.7413 O   0  0  0  0  0  0  0  0  0  0  0  0
   -1.6107   -6.2076   45.2885 C   0  0  2  0  0  0  0  0  0  0  0  0
   -1.4454   -4.8811   45.9190 O   0  0  0  0  0  0  0  0  0  0  0  0
   -3.4515   -1.6696   44.6157 C   0  0  2  0  0  0  0  0  0  0  0  0
   -2.7993   -1.6508   45.9178 O   0  0  0  0  0  0  0  0  0  0  0  0
    7.2350   -7.4584   43.5273 C   0  0  2  0  0  0  0  0  0  0  0  0
    7.8723   -6.1218   43.5388 O   0  0  0  0  0  0  0  0  0  0  0  0
   -1.9934   -7.2416   46.3464 C   0  0  0  0  0  0  0  0  0  0  0  0
   -1.0034   -7.3393   47.3410 O   0  0  0  0  0  0  0  0  0  0  0  0
   -4.9158   -1.1893   44.7469 C   0  0  1  0  0  0  0  0  0  0  0  0
   -4.9101    0.1462   45.2058 O   0  0  0  0  0  0  0  0  0  0  0  0
    8.1938   -8.4635   42.9072 C   0  0  0  0  0  0  0  0  0  0  0  0
    9.2064   -8.8054   43.8224 O   0  0  0  0  0  0  0  0  0  0  0  0
    2.6065   -5.8012   43.5694 C   0  0  0  0  0  0  0  0  0  0  0  0
  1  2  1  6  0  0  0
  1  7  1  0  0  0  0
  1 24  1  0  0  0  0
  3  4  1  1  0  0  0
  3  9  1  0  0  0  0
  3 31  1  0  0  0  0
  5  6  1  1  0  0  0
  5 10  1  0  0  0  0
  5 28  1  0  0  0  0
  7  8  1  6  0  0  0
  7 12  1  0  0  0  0
  9 14  1  0  0  0  0
 10 11  1  1  0  0  0
 10 16  1  0  0  0  0
 12 13  1  1  0  0  0
 12 18  1  0  0  0  0
 13 35  1  0  0  0  0
 14 15  1  1  0  0  0
 14 20  1  0  0  0  0
 16 17  1  6  0  0  0
 16 21  1  0  0  0  0
 17 35  1  0  0  0  0
 18 19  1  6  0  0  0
 18 23  1  0  0  0  0
 20  2  1  6  0  0  0
 20 25  1  0  0  0  0
 21 22  1  1  0  0  0
 21 27  1  0  0  0  0
 23 24  1  0  0  0  0
 23 29  1  1  0  0  0
 25 26  1  1  0  0  0
 25 31  1  0  0  0  0
 27 28  1  0  0  0  0
 27 33  1  6  0  0  0
 29 30  1  0  0  0  0
 31 32  1  6  0  0  0
 33 34  1  0  0  0  0
M  END
>  <CHROM.1>
-174.13981285,55.84770553,172.54918546,-85.16571757,179.67461582,-174.14980737
62.16954176,-161.36675830,0.78391915,-4.91540312,44.05735657,-2.76087638
-0.10733661,3.02083450

>  <Name>
2o3v_lig

>  <RI>
0

>  <Rbt.Current_Directory>
/home/afrankz/demos/rdock_decoys_rna/rnas/2o3v

>  <Rbt.Executable>
rbdock ($Id: //depot/dev/client3/rdock/2013.1/src/exe/rbdock.cxx#4 $)

>  <Rbt.Library>
libRbt.so (2013.1, Build901 2013/11/27)

>  <Rbt.Parameter_File>
/export/apps/rDock/src/rDock_2013.1_src/data/scripts/dock_solv.prm

>  <Rbt.Receptor>
prm/pocket_docking_8.prm

>  <SCORE>
-17.8058

>  <SCORE.INTER>
-12.3171

>  <SCORE.INTER.CONST>
1

>  <SCORE.INTER.POLAR>
-1.25796

>  <SCORE.INTER.ROT>
8

>  <SCORE.INTER.SOLV>
15.9611

>  <SCORE.INTER.VDW>
-18.2719

>  <SCORE.INTER.norm>
-0.351918

>  <SCORE.INTRA>
-5.48862

>  <SCORE.INTRA.DIHEDRAL>
-8.50072

>  <SCORE.INTRA.DIHEDRAL.0>
13.1227

>  <SCORE.INTRA.POLAR>
0

>  <SCORE.INTRA.POLAR.0>
0

>  <SCORE.INTRA.REPUL>
0

>  <SCORE.INTRA.REPUL.0>
0

>  <SCORE.INTRA.SOLV>
-0.169127

>  <SCORE.INTRA.SOLV.lig_0>
-89.1587

>  <SCORE.INTRA.VDW>
-1.1537

>  <SCORE.INTRA.VDW.0>
-0.838383

>  <SCORE.INTRA.norm>
-0.156818

>  <SCORE.RESTR>
0

>  <SCORE.RESTR.CAVITY>
0

>  <SCORE.RESTR.norm>
0

>  <SCORE.SYSTEM>
0

>  <SCORE.SYSTEM.CONST>
0

>  <SCORE.SYSTEM.DIHEDRAL>
0

>  <SCORE.SYSTEM.SOLV>
0

>  <SCORE.SYSTEM.norm>
0

>  <SCORE.heavy>
35

>  <SCORE.norm>
-0.508736

>  <RMSD>
10.614

$$$$
2o3v_lig
 OpenBabel02141814113D
libRbt.so/2013.1/901 2013/11/27
 35 37  0  0  0  0  0  0  0  0999 V2000
   -4.8885   -6.9536   46.2706 C   0  0  2  0  0  0  0  0  0  0  0  0
   -4.3038   -7.2536   47.5747 O   0  0  0  0  0  0  0  0  0  0  0  0
   -7.5154   -9.1831   49.7860 C   0  0  2  0  0  0  0  0  0  0  0  0
   -8.2626   -9.8589   50.8893 N   0  0  0  0  0  0  0  0  0  0  0  0
    3.7115   -4.7330   46.7751 C   0  0  2  0  0  0  0  0  0  0  0  0
    3.6467   -6.0706   47.3156 O   0  0  0  0  0  0  0  0  0  0  0  0
   -3.6669   -6.4409   45.4440 C   0  0  2  0  0  0  0  0  0  0  0  0
   -2.5989   -7.4660   45.3741 N   0  0  0  0  0  0  0  0  0  0  0  0
   -6.2703  -10.0679   49.3474 C   0  0  0  0  0  0  0  0  0  0  0  0
    2.2574   -4.3238   46.3553 C   0  0  2  0  0  0  0  0  0  0  0  0
    1.3270   -4.4048   47.5097 N   0  0  0  0  0  0  0  0  0  0  0  0
   -3.0779   -5.0926   46.0479 C   0  0  1  0  0  0  0  0  0  0  0  0
   -1.8903   -4.6458   45.2744 O   0  0  0  0  0  0  0  0  0  0  0  0
   -5.4868   -9.3219   48.1820 C   0  0  2  0  0  0  0  0  0  0  0  0
   -4.3162  -10.1240   47.7664 N   0  0  0  0  0  0  0  0  0  0  0  0
    1.7229   -5.2163   45.1501 C   0  0  1  0  0  0  0  0  0  0  0  0
    0.3908   -4.8369   44.7185 O   0  0  0  0  0  0  0  0  0  0  0  0
   -4.2642   -4.0322   46.0918 C   0  0  2  0  0  0  0  0  0  0  0  0
   -3.8372   -2.7989   46.6419 O   0  0  0  0  0  0  0  0  0  0  0  0
   -5.0147   -7.8933   48.6773 C   0  0  2  0  0  0  0  0  0  0  0  0
    2.7232   -5.0889   43.9577 C   0  0  2  0  0  0  0  0  0  0  0  0
    2.3036   -5.8721   42.8577 O   0  0  0  0  0  0  0  0  0  0  0  0
   -5.4798   -4.5957   46.9215 C   0  0  2  0  0  0  0  0  0  0  0  0
   -5.9217   -5.8845   46.3487 O   0  0  0  0  0  0  0  0  0  0  0  0
   -6.2377   -7.0371   49.1100 C   0  0  2  0  0  0  0  0  0  0  0  0
   -5.7269   -5.7598   49.5883 O   0  0  0  0  0  0  0  0  0  0  0  0
    4.1750   -5.5057   44.4244 C   0  0  2  0  0  0  0  0  0  0  0  0
    4.5985   -4.6841   45.5813 O   0  0  0  0  0  0  0  0  0  0  0  0
   -6.6480   -3.6111   46.9480 C   0  0  0  0  0  0  0  0  0  0  0  0
   -7.7121   -4.1078   47.7226 O   0  0  0  0  0  0  0  0  0  0  0  0
   -7.0049   -7.7608   50.2413 C   0  0  1  0  0  0  0  0  0  0  0  0
   -8.1121   -6.9663   50.6115 O   0  0  0  0  0  0  0  0  0  0  0  0
    5.1946   -5.3556   43.3055 C   0  0  0  0  0  0  0  0  0  0  0  0
    5.1910   -6.4962   42.4815 O   0  0  0  0  0  0  0  0  0  0  0  0
   -0.6052   -5.3428   45.6551 C   0  0  0  0  0  0  0  0  0  0  0  0
  1  2  1  1  0  0  0
  1  7  1  0  0  0  0
  1 24  1  0  0  0  0
  3  4  1  1  0  0  0
  3  9  1  0  0  0  0
  3 31  1  0  0  0  0
  5  6  1  6  0  0  0
  5 10  1  0  0  0  0
  5 28  1  0  0  0  0
  7  8  1  1  0  0  0
  7 12  1  0  0  0  0
  9 14  1  0  0  0  0
 10 11  1  1  0  0  0
 10 16  1  0  0  0  0
 12 13  1  6  0  0  0
 12 18  1  0  0  0  0
 13 35  1  0  0  0  0
 14 15  1  1  0  0  0
 14 20  1  0  0  0  0
 16 17  1  6  0  0  0
 16 21  1  0  0  0  0
 17 35  1  0  0  0  0
 18 19  1  1  0  0  0
 18 23  1  0  0  0  0
 20  2  1  6  0  0  0
 20 25  1  0  0  0  0
 21 22  1  6  0  0  0
 21 27  1  0  0  0  0
 23 24  1  0  0  0  0
 23 29  1  6  0  0  0
 25 26  1  1  0  0  0
 25 31  1  0  0  0  0
 27 28  1  0  0  0  0
 27 33  1  6  0  0  0
 29 30  1  0  0  0  0
 31 32  1  6  0  0  0
 33 34  1  0  0  0  0
M  END
>  <CHROM.1>
-173.64964150,-81.55882352,175.74688164,-76.90873345,168.18986251,60.40370681
-178.31633799,-83.96153821,-2.29895197,-6.10153543,46.74806778,2.81187757
-0.29010912,2.72358737

>  <Name>
2o3v_lig

>  <RI>
0

>  <Rbt.Current_Directory>
/home/afrankz/demos/rdock_decoys_rna/rnas/2o3v

>  <Rbt.Executable>
rbdock ($Id: //depot/dev/client3/rdock/2013.1/src/exe/rbdock.cxx#4 $)

>  <Rbt.Library>
libRbt.so (2013.1, Build901 2013/11/27)

>  <Rbt.Parameter_File>
/export/apps/rDock/src/rDock_2013.1_src/data/scripts/dock_solv.prm

>  <Rbt.Receptor>
prm/pocket_docking_8.prm

>  <SCORE>
-6.34414

>  <SCORE.INTER>
-2.09637

>  <SCORE.INTER.CONST>
1

>  <SCORE.INTER.POLAR>
-0.419635

>  <SCORE.INTER.ROT>
8

>  <SCORE.INTER.SOLV>
10.46

>  <SCORE.INTER.VDW>
-12.4188

>  <SCORE.INTER.norm>
-0.0598962

>  <SCORE.INTRA>
-4.24778

>  <SCORE.INTRA.DIHEDRAL>
-6.93502

>  <SCORE.INTRA.DIHEDRAL.0>
13.1227

>  <SCORE.INTRA.POLAR>
0

>  <SCORE.INTRA.POLAR.0>
0

>  <SCORE.INTRA.REPUL>
0

>  <SCORE.INTRA.REPUL.0>
0

>  <SCORE.INTRA.SOLV>
2.10055

>  <SCORE.INTRA.SOLV.lig_0>
-89.1587

>  <SCORE.INTRA.VDW>
-1.83054

>  <SCORE.INTRA.VDW.0>
-0.838383

>  <SCORE.INTRA.norm>
-0.121365

>  <SCORE.RESTR>
0

>  <SCORE.RESTR.CAVITY>
0

>  <SCORE.RESTR.norm>
0

>  <SCORE.SYSTEM>
0

>  <SCORE.SYSTEM.CONST>
0

>  <SCORE.SYSTEM.DIHEDRAL>
0

>  <SCORE.SYSTEM.SOLV>
0

>  <SCORE.SYSTEM.norm>
0

>  <SCORE.heavy>
35

>  <SCORE.norm>
-0.181261

>  <RMSD>
10.625

$$$$
2o3v_lig
 OpenBabel02141814113D
libRbt.so/2013.1/901 2013/11/27
 35 37  0  0  0  0  0  0  0  0999 V2000
    1.3117   -3.5750   40.5079 C   0  0  2  0  0  0  0  0  0  0  0  0
    0.5618   -2.6697   41.3743 O   0  0  0  0  0  0  0  0  0  0  0  0
   -3.5230   -3.0042   42.8337 C   0  0  2  0  0  0  0  0  0  0  0  0
   -5.0112   -2.8915   42.9037 N   0  0  0  0  0  0  0  0  0  0  0  0
    7.3448   -8.2789   41.6132 C   0  0  2  0  0  0  0  0  0  0  0  0
    8.6788   -8.3483   42.1622 O   0  0  0  0  0  0  0  0  0  0  0  0
    2.4298   -4.1224   41.4505 C   0  0  2  0  0  0  0  0  0  0  0  0
    1.8490   -4.8046   42.6311 N   0  0  0  0  0  0  0  0  0  0  0  0
   -2.8682   -1.5580   42.7633 C   0  0  0  0  0  0  0  0  0  0  0  0
    6.8801   -6.7836   41.6927 C   0  0  2  0  0  0  0  0  0  0  0  0
    7.8201   -5.8942   40.9645 N   0  0  0  0  0  0  0  0  0  0  0  0
    3.4097   -2.9643   41.9281 C   0  0  1  0  0  0  0  0  0  0  0  0
    4.4386   -3.4975   42.8584 O   0  0  0  0  0  0  0  0  0  0  0  0
   -1.2874   -1.7063   42.6778 C   0  0  2  0  0  0  0  0  0  0  0  0
   -0.6582   -0.3705   42.5998 N   0  0  0  0  0  0  0  0  0  0  0  0
    6.7172   -6.3004   43.2009 C   0  0  1  0  0  0  0  0  0  0  0  0
    6.2554   -4.9290   43.3040 O   0  0  0  0  0  0  0  0  0  0  0  0
    4.0052   -2.2757   40.6224 C   0  0  2  0  0  0  0  0  0  0  0  0
    4.8765   -1.2084   40.9506 O   0  0  0  0  0  0  0  0  0  0  0  0
   -0.8936   -2.5642   41.4057 C   0  0  2  0  0  0  0  0  0  0  0  0
    5.7119   -7.2542   43.9208 C   0  0  2  0  0  0  0  0  0  0  0  0
    5.5353   -6.8784   45.2725 O   0  0  0  0  0  0  0  0  0  0  0  0
    2.8442   -1.7522   39.6942 C   0  0  2  0  0  0  0  0  0  0  0  0
    1.9337   -2.8662   39.3558 O   0  0  0  0  0  0  0  0  0  0  0  0
   -1.5431   -3.9745   41.4797 C   0  0  2  0  0  0  0  0  0  0  0  0
   -1.1724   -4.6881   40.2654 O   0  0  0  0  0  0  0  0  0  0  0  0
    6.2149   -8.7491   43.8133 C   0  0  2  0  0  0  0  0  0  0  0  0
    6.4037   -9.1268   42.3939 O   0  0  0  0  0  0  0  0  0  0  0  0
    3.3886   -1.1192   38.4145 C   0  0  0  0  0  0  0  0  0  0  0  0
    4.2771   -1.9892   37.7569 O   0  0  0  0  0  0  0  0  0  0  0  0
   -3.0809   -3.8348   41.5665 C   0  0  1  0  0  0  0  0  0  0  0  0
   -3.6451   -5.1274   41.6381 O   0  0  0  0  0  0  0  0  0  0  0  0
    5.2432   -9.7220   44.4639 C   0  0  0  0  0  0  0  0  0  0  0  0
    3.9676   -9.6051   43.8817 O   0  0  0  0  0  0  0  0  0  0  0  0
    5.2180   -4.6710   42.3129 C   0  0  0  0  0  0  0  0  0  0  0  0
  1  2  1  1  0  0  0
  1  7  1  0  0  0  0
  1 24  1  0  0  0  0
  3  4  1  6  0  0  0
  3  9  1  0  0  0  0
  3 31  1  0  0  0  0
  5  6  1  1  0  0  0
  5 10  1  0  0  0  0
  5 28  1  0  0  0  0
  7  8  1  1  0  0  0
  7 12  1  0  0  0  0
  9 14  1  0  0  0  0
 10 11  1  1  0  0  0
 10 16  1  0  0  0  0
 12 13  1  1  0  0  0
 12 18  1  0  0  0  0
 13 35  1  0  0  0  0
 14 15  1  6  0  0  0
 14 20  1  0  0  0  0
 16 17  1  6  0  0  0
 16 21  1  0  0  0  0
 17 35  1  0  0  0  0
 18 19  1  1  0  0  0
 18 23  1  0  0  0  0
 20  2  1  1  0  0  0
 20 25  1  0  0  0  0
 21 22  1  1  0  0  0
 21 27  1  0  0  0  0
 23 24  1  0  0  0  0
 23 29  1  6  0  0  0
 25 26  1  6  0  0  0
 25 31  1  0  0  0  0
 27 28  1  0  0  0  0
 27 33  1  6  0  0  0
 29 30  1  0  0  0  0
 31 32  1  1  0  0  0
 33 34  1  0  0  0  0
M  END
>  <CHROM.1>
-138.24025181,54.04386492,173.67578920,41.19262312,157.06086451,168.24031873
52.47816213,57.37907932,2.72229552,-4.57335351,41.89877033,-2.63730553,-0.17772558
2.58900628

>  <Name>
2o3v_lig

>  <RI>
0

>  <Rbt.Current_Directory>
/home/afrankz/demos/rdock_decoys_rna/rnas/2o3v

>  <Rbt.Executable>
rbdock ($Id: //depot/dev/client3/rdock/2013.1/src/exe/rbdock.cxx#4 $)

>  <Rbt.Library>
libRbt.so (2013.1, Build901 2013/11/27)

>  <Rbt.Parameter_File>
/export/apps/rDock/src/rDock_2013.1_src/data/scripts/dock_solv.prm

>  <Rbt.Receptor>
prm/blind_docking_60.prm

>  <SCORE>
-8.67175

>  <SCORE.INTER>
-14.8517

>  <SCORE.INTER.CONST>
1

>  <SCORE.INTER.POLAR>
-2.15487

>  <SCORE.INTER.ROT>
8

>  <SCORE.INTER.SOLV>
26.0483

>  <SCORE.INTER.VDW>
-20.3344

>  <SCORE.INTER.norm>
-0.424335

>  <SCORE.INTRA>
1.17642

>  <SCORE.INTRA.DIHEDRAL>
-2.26128

>  <SCORE.INTRA.DIHEDRAL.0>
13.1227

>  <SCORE.INTRA.POLAR>
0

>  <SCORE.INTRA.POLAR.0>
0

>  <SCORE.INTRA.REPUL>
0

>  <SCORE.INTRA.REPUL.0>
0

>  <SCORE.INTRA.SOLV>
0.882232

>  <SCORE.INTRA.SOLV.lig_0>
-89.1587

>  <SCORE.INTRA.VDW>
1.86594

>  <SCORE.INTRA.VDW.0>
-0.838383

>  <SCORE.INTRA.norm>
0.0336119

>  <SCORE.RESTR>
5.00357

>  <SCORE.RESTR.CAVITY>
5.00357

>  <SCORE.RESTR.norm>
0.142959

>  <SCORE.SYSTEM>
0

>  <SCORE.SYSTEM.CONST>
0

>  <SCORE.SYSTEM.DIHEDRAL>
0

>  <SCORE.SYSTEM.SOLV>
0

>  <SCORE.SYSTEM.norm>
0

>  <SCORE.heavy>
35

>  <SCORE.norm>
-0.247764

>  <RMSD>
10.628

$$$$
2o3v_lig
 OpenBabel02141814113D
libRbt.so/2013.1/901 2013/11/27
 35 37  0  0  0  0  0  0  0  0999 V2000
   -4.3419   -4.6247   43.8017 C   0  0  2  0  0  0  0  0  0  0  0  0
   -3.3906   -4.2020   44.8260 O   0  0  0  0  0  0  0  0  0  0  0  0
   -5.4292   -1.0319   46.9988 C   0  0  2  0  0  0  0  0  0  0  0  0
   -5.7530   -0.0264   48.0555 N   0  0  0  0  0  0  0  0  0  0  0  0
    3.4101   -2.7261   44.1641 C   0  0  2  0  0  0  0  0  0  0  0  0
    3.8696   -4.0579   44.4813 O   0  0  0  0  0  0  0  0  0  0  0  0
   -3.4278   -5.2765   42.7164 C   0  0  2  0  0  0  0  0  0  0  0  0
   -2.6487   -6.4046   43.2792 N   0  0  0  0  0  0  0  0  0  0  0  0
   -5.4534   -2.4973   47.6131 C   0  0  0  0  0  0  0  0  0  0  0  0
    1.8755   -2.8183   43.8562 C   0  0  2  0  0  0  0  0  0  0  0  0
    1.1350   -3.3948   45.0070 N   0  0  0  0  0  0  0  0  0  0  0  0
   -2.4394   -4.2117   42.0693 C   0  0  1  0  0  0  0  0  0  0  0  0
   -1.5488   -4.8603   41.0721 O   0  0  0  0  0  0  0  0  0  0  0  0
   -5.0948   -3.5455   46.4725 C   0  0  2  0  0  0  0  0  0  0  0  0
   -5.1005   -4.9165   47.0265 N   0  0  0  0  0  0  0  0  0  0  0  0
    1.5928   -3.6634   42.5368 C   0  0  1  0  0  0  0  0  0  0  0  0
    0.1814   -3.7370   42.2093 O   0  0  0  0  0  0  0  0  0  0  0  0
   -3.3303   -3.0324   41.4784 C   0  0  2  0  0  0  0  0  0  0  0  0
   -2.5297   -2.0179   40.8992 O   0  0  0  0  0  0  0  0  0  0  0  0
   -3.6703   -3.2146   45.8637 C   0  0  2  0  0  0  0  0  0  0  0  0
    2.3787   -3.0133   41.3543 C   0  0  2  0  0  0  0  0  0  0  0  0
    2.1731   -3.7310   40.1534 O   0  0  0  0  0  0  0  0  0  0  0  0
   -4.2465   -2.4145   42.6020 C   0  0  2  0  0  0  0  0  0  0  0  0
   -5.0786   -3.4751   43.2082 O   0  0  0  0  0  0  0  0  0  0  0  0
   -3.6536   -1.7778   45.2709 C   0  0  2  0  0  0  0  0  0  0  0  0
   -2.3092   -1.5303   44.7686 O   0  0  0  0  0  0  0  0  0  0  0  0
    3.9177   -2.9356   41.7072 C   0  0  2  0  0  0  0  0  0  0  0  0
    4.1181   -2.1893   42.9705 O   0  0  0  0  0  0  0  0  0  0  0  0
   -5.1401   -1.3037   42.0521 C   0  0  0  0  0  0  0  0  0  0  0  0
   -5.9454   -1.7754   40.9996 O   0  0  0  0  0  0  0  0  0  0  0  0
   -4.0055   -0.7550   46.3764 C   0  0  1  0  0  0  0  0  0  0  0  0
   -3.9890    0.5391   45.8115 O   0  0  0  0  0  0  0  0  0  0  0  0
    4.7197   -2.2681   40.6003 C   0  0  0  0  0  0  0  0  0  0  0  0
    4.3170   -0.9293   40.4410 O   0  0  0  0  0  0  0  0  0  0  0  0
   -0.1101   -4.9856   41.5155 C   0  0  0  0  0  0  0  0  0  0  0  0
  1  2  1  1  0  0  0
  1  7  1  0  0  0  0
  1 24  1  0  0  0  0
  3  4  1  1  0  0  0
  3  9  1  0  0  0  0
  3 31  1  0  0  0  0
  5  6  1  6  0  0  0
  5 10  1  0  0  0  0
  5 28  1  0  0  0  0
  7  8  1  1  0  0  0
  7 12  1  0  0  0  0
  9 14  1  0  0  0  0
 10 11  1  1  0  0  0
 10 16  1  0  0  0  0
 12 13  1  6  0  0  0
 12 18  1  0  0  0  0
 13 35  1  0  0  0  0
 14 15  1  1  0  0  0
 14 20  1  0  0  0  0
 16 17  1  6  0  0  0
 16 21  1  0  0  0  0
 17 35  1  0  0  0  0
 18 19  1  1  0  0  0
 18 23  1  0  0  0  0
 20  2  1  6  0  0  0
 20 25  1  0  0  0  0
 21 22  1  6  0  0  0
 21 27  1  0  0  0  0
 23 24  1  0  0  0  0
 23 29  1  6  0  0  0
 25 26  1  1  0  0  0
 25 31  1  0  0  0  0
 27 28  1  0  0  0  0
 27 33  1  6  0  0  0
 29 30  1  0  0  0  0
 31 32  1  6  0  0  0
 33 34  1  0  0  0  0
M  END
>  <CHROM.1>
161.59581642,-108.59384353,-39.52324262,-150.18660729,-172.70586187,45.36805351
57.58642383,63.57326290,-1.52940829,-2.92221232,43.49925490,2.73741594,0.08481502
1.19627877

>  <Name>
2o3v_lig

>  <RI>
0

>  <Rbt.Current_Directory>
/home/afrankz/demos/rdock_decoys_rna/rnas/2o3v

>  <Rbt.Executable>
rbdock ($Id: //depot/dev/client3/rdock/2013.1/src/exe/rbdock.cxx#4 $)

>  <Rbt.Library>
libRbt.so (2013.1, Build901 2013/11/27)

>  <Rbt.Parameter_File>
/export/apps/rDock/src/rDock_2013.1_src/data/scripts/dock_solv.prm

>  <Rbt.Receptor>
prm/blind_docking_60.prm

>  <SCORE>
-4.37965

>  <SCORE.INTER>
-7.07413

>  <SCORE.INTER.CONST>
1

>  <SCORE.INTER.POLAR>
-0.959166

>  <SCORE.INTER.ROT>
8

>  <SCORE.INTER.SOLV>
14.8684

>  <SCORE.INTER.VDW>
-15.4083

>  <SCORE.INTER.norm>
-0.202118

>  <SCORE.INTRA>
0.672921

>  <SCORE.INTRA.DIHEDRAL>
1.80593

>  <SCORE.INTRA.DIHEDRAL.0>
13.1227

>  <SCORE.INTRA.POLAR>
0

>  <SCORE.INTRA.POLAR.0>
0

>  <SCORE.INTRA.REPUL>
0.0947333

>  <SCORE.INTRA.REPUL.0>
0

>  <SCORE.INTRA.SOLV>
1.44654

>  <SCORE.INTRA.SOLV.lig_0>
-89.1587

>  <SCORE.INTRA.VDW>
-1.42698

>  <SCORE.INTRA.VDW.0>
-0.838383

>  <SCORE.INTRA.norm>
0.0192263

>  <SCORE.RESTR>
2.02156

>  <SCORE.RESTR.CAVITY>
2.02156

>  <SCORE.RESTR.norm>
0.0577588

>  <SCORE.SYSTEM>
0

>  <SCORE.SYSTEM.CONST>
0

>  <SCORE.SYSTEM.DIHEDRAL>
0

>  <SCORE.SYSTEM.SOLV>
0

>  <SCORE.SYSTEM.norm>
0

>  <SCORE.heavy>
35

>  <SCORE.norm>
-0.125133

>  <RMSD>
10.668

$$$$
2o3v_lig
 OpenBabel02141814113D
libRbt.so/2013.1/901 2013/11/27
 35 37  0  0  0  0  0  0  0  0999 V2000
    0.3321   -3.3222   41.6003 C   0  0  2  0  0  0  0  0  0  0  0  0
   -0.3423   -3.4556   42.8888 O   0  0  0  0  0  0  0  0  0  0  0  0
   -3.2598   -0.8908   44.8476 C   0  0  2  0  0  0  0  0  0  0  0  0
   -4.5578   -0.2377   45.1956 N   0  0  0  0  0  0  0  0  0  0  0  0
    8.4889   -7.4963   42.9697 C   0  0  2  0  0  0  0  0  0  0  0  0
    8.8529   -6.3572   43.7793 O   0  0  0  0  0  0  0  0  0  0  0  0
    1.2063   -4.6138   41.5227 C   0  0  2  0  0  0  0  0  0  0  0  0
    0.3693   -5.8336   41.6108 N   0  0  0  0  0  0  0  0  0  0  0  0
   -2.8752   -0.5726   43.3389 C   0  0  0  0  0  0  0  0  0  0  0  0
    6.9687   -7.3542   42.6131 C   0  0  2  0  0  0  0  0  0  0  0  0
    6.7041   -6.0736   41.9094 N   0  0  0  0  0  0  0  0  0  0  0  0
    2.3134   -4.6390   42.6642 C   0  0  1  0  0  0  0  0  0  0  0  0
    3.1047   -5.8952   42.6004 O   0  0  0  0  0  0  0  0  0  0  0  0
   -1.4982   -1.2876   42.9912 C   0  0  2  0  0  0  0  0  0  0  0  0
   -1.1272   -1.0135   41.5863 N   0  0  0  0  0  0  0  0  0  0  0  0
    6.0500   -7.4742   43.9079 C   0  0  1  0  0  0  0  0  0  0  0  0
    4.6349   -7.3796   43.6025 O   0  0  0  0  0  0  0  0  0  0  0  0
    3.1816   -3.3132   42.5151 C   0  0  2  0  0  0  0  0  0  0  0  0
    4.1848   -3.2355   43.5118 O   0  0  0  0  0  0  0  0  0  0  0  0
   -1.6279   -2.8496   43.2209 C   0  0  2  0  0  0  0  0  0  0  0  0
    6.3522   -8.8385   44.6049 C   0  0  2  0  0  0  0  0  0  0  0  0
    5.5694   -8.9962   45.7719 O   0  0  0  0  0  0  0  0  0  0  0  0
    2.2594   -2.0371   42.5838 C   0  0  2  0  0  0  0  0  0  0  0  0
    1.2107   -2.1215   41.5458 O   0  0  0  0  0  0  0  0  0  0  0  0
   -2.0103   -3.1515   44.6970 C   0  0  2  0  0  0  0  0  0  0  0  0
   -2.1505   -4.5956   44.8231 O   0  0  0  0  0  0  0  0  0  0  0  0
    7.8932   -8.9425   44.9424 C   0  0  2  0  0  0  0  0  0  0  0  0
    8.7011   -8.7673   43.7138 O   0  0  0  0  0  0  0  0  0  0  0  0
    3.0643   -0.7505   42.4058 C   0  0  0  0  0  0  0  0  0  0  0  0
    3.6315   -0.6814   41.1204 O   0  0  0  0  0  0  0  0  0  0  0  0
   -3.3476   -2.4547   45.0406 C   0  0  1  0  0  0  0  0  0  0  0  0
   -3.6688   -2.7397   46.3858 O   0  0  0  0  0  0  0  0  0  0  0  0
    8.2438  -10.2761   45.5846 C   0  0  0  0  0  0  0  0  0  0  0  0
    9.6180  -10.3318   45.8819 O   0  0  0  0  0  0  0  0  0  0  0  0
    4.2056   -5.9867   43.6310 C   0  0  0  0  0  0  0  0  0  0  0  0
  1  2  1  1  0  0  0
  1  7  1  0  0  0  0
  1 24  1  0  0  0  0
  3  4  1  6  0  0  0
  3  9  1  0  0  0  0
  3 31  1  0  0  0  0
  5  6  1  1  0  0  0
  5 10  1  0  0  0  0
  5 28  1  0  0  0  0
  7  8  1  1  0  0  0
  7 12  1  0  0  0  0
  9 14  1  0  0  0  0
 10 11  1  1  0  0  0
 10 16  1  0  0  0  0
 12 13  1  6  0  0  0
 12 18  1  0  0  0  0
 13 35  1  0  0  0  0
 14 15  1  6  0  0  0
 14 20  1  0  0  0  0
 16 17  1  6  0  0  0
 16 21  1  0  0  0  0
 17 35  1  0  0  0  0
 18 19  1  1  0  0  0
 18 23  1  0  0  0  0
 20  2  1  1  0  0  0
 20 25  1  0  0  0  0
 21 22  1  1  0  0  0
 21 27  1  0  0  0  0
 23 24  1  0  0  0  0
 23 29  1  6  0  0  0
 25 26  1  6  0  0  0
 25 31  1  0  0  0  0
 27 28  1  0  0  0  0
 27 33  1  6  0  0  0
 29 30  1  0  0  0  0
 31 32  1  1  0  0  0
 33 34  1  0  0  0  0
M  END
>  <CHROM.1>
-153.86013305,178.52102662,167.21572871,-88.68664656,148.01581383,-56.76765865
64.83662155,-179.51619146,2.65072466,-4.72115344,43.49303864,-2.64967035
-0.34623229,2.49886396

>  <Name>
2o3v_lig

>  <RI>
0

>  <Rbt.Current_Directory>
/home/afrankz/demos/rdock_decoys_rna/rnas/2o3v

>  <Rbt.Executable>
rbdock ($Id: //depot/dev/client3/rdock/2013.1/src/exe/rbdock.cxx#4 $)

>  <Rbt.Library>
libRbt.so (2013.1, Build901 2013/11/27)

>  <Rbt.Parameter_File>
/export/apps/rDock/src/rDock_2013.1_src/data/scripts/dock_solv.prm

>  <Rbt.Receptor>
prm/pocket_docking_7.prm

>  <SCORE>
-14.3278

>  <SCORE.INTER>
-14.1697

>  <SCORE.INTER.CONST>
1

>  <SCORE.INTER.POLAR>
-1.40242

>  <SCORE.INTER.ROT>
8

>  <SCORE.INTER.SOLV>
16.4123

>  <SCORE.INTER.VDW>
-19.1758

>  <SCORE.INTER.norm>
-0.404848

>  <SCORE.INTRA>
-0.185387

>  <SCORE.INTRA.DIHEDRAL>
-1.95682

>  <SCORE.INTRA.DIHEDRAL.0>
13.1227

>  <SCORE.INTRA.POLAR>
0

>  <SCORE.INTRA.POLAR.0>
0

>  <SCORE.INTRA.REPUL>
0

>  <SCORE.INTRA.REPUL.0>
0

>  <SCORE.INTRA.SOLV>
2.32295

>  <SCORE.INTRA.SOLV.lig_0>
-89.1587

>  <SCORE.INTRA.VDW>
-0.368451

>  <SCORE.INTRA.VDW.0>
-0.838383

>  <SCORE.INTRA.norm>
-0.00529677

>  <SCORE.RESTR>
0.027237

>  <SCORE.RESTR.CAVITY>
0.027237

>  <SCORE.RESTR.norm>
0.000778199

>  <SCORE.SYSTEM>
0

>  <SCORE.SYSTEM.CONST>
0

>  <SCORE.SYSTEM.DIHEDRAL>
0

>  <SCORE.SYSTEM.SOLV>
0

>  <SCORE.SYSTEM.norm>
0

>  <SCORE.heavy>
35

>  <SCORE.norm>
-0.409366

>  <RMSD>
10.695

$$$$
2o3v_lig
 OpenBabel02141814113D
libRbt.so/2013.1/901 2013/11/27
 35 37  0  0  0  0  0  0  0  0999 V2000
   -4.4496   -3.9141   43.1809 C   0  0  2  0  0  0  0  0  0  0  0  0
   -3.8156   -3.4942   44.4277 O   0  0  0  0  0  0  0  0  0  0  0  0
   -4.4359   -1.3062   48.1365 C   0  0  2  0  0  0  0  0  0  0  0  0
   -5.0007   -0.3457   49.1318 N   0  0  0  0  0  0  0  0  0  0  0  0
    3.3003   -1.7193   43.7193 C   0  0  2  0  0  0  0  0  0  0  0  0
    2.2895   -1.7744   44.7493 O   0  0  0  0  0  0  0  0  0  0  0  0
   -3.2463   -4.4227   42.3253 C   0  0  2  0  0  0  0  0  0  0  0  0
   -2.5320   -5.5270   43.0083 N   0  0  0  0  0  0  0  0  0  0  0  0
   -3.8440   -0.5171   46.8905 C   0  0  0  0  0  0  0  0  0  0  0  0
    2.5704   -1.8358   42.3365 C   0  0  2  0  0  0  0  0  0  0  0  0
    1.5619   -0.7581   42.1741 N   0  0  0  0  0  0  0  0  0  0  0  0
   -2.2269   -3.2475   41.9948 C   0  0  1  0  0  0  0  0  0  0  0  0
   -1.0681   -3.7606   41.2188 O   0  0  0  0  0  0  0  0  0  0  0  0
   -3.2608   -1.5613   45.8428 C   0  0  2  0  0  0  0  0  0  0  0  0
   -2.7147   -0.8473   44.6687 N   0  0  0  0  0  0  0  0  0  0  0  0
    1.8895   -3.2631   42.1523 C   0  0  1  0  0  0  0  0  0  0  0  0
    1.2346   -3.4106   40.8662 O   0  0  0  0  0  0  0  0  0  0  0  0
   -3.0469   -2.0984   41.2593 C   0  0  2  0  0  0  0  0  0  0  0  0
   -2.2209   -0.9915   40.9456 O   0  0  0  0  0  0  0  0  0  0  0  0
   -4.4011   -2.5609   45.3849 C   0  0  2  0  0  0  0  0  0  0  0  0
    2.9879   -4.3608   42.3172 C   0  0  2  0  0  0  0  0  0  0  0  0
    2.4370   -5.6552   42.1736 O   0  0  0  0  0  0  0  0  0  0  0  0
   -4.2585   -1.6264   42.1498 C   0  0  2  0  0  0  0  0  0  0  0  0
   -5.1173   -2.7832   42.4796 O   0  0  0  0  0  0  0  0  0  0  0  0
   -4.9785   -3.3238   46.6101 C   0  0  2  0  0  0  0  0  0  0  0  0
   -6.0427   -4.1895   46.1211 O   0  0  0  0  0  0  0  0  0  0  0  0
    3.7006   -4.2048   43.7197 C   0  0  2  0  0  0  0  0  0  0  0  0
    4.2653   -2.8431   43.8604 O   0  0  0  0  0  0  0  0  0  0  0  0
   -5.0850   -0.5484   41.4501 C   0  0  0  0  0  0  0  0  0  0  0  0
   -5.6805   -1.0477   40.2775 O   0  0  0  0  0  0  0  0  0  0  0  0
   -5.5439   -2.3115   47.6336 C   0  0  1  0  0  0  0  0  0  0  0  0
   -6.0561   -3.0285   48.7371 O   0  0  0  0  0  0  0  0  0  0  0  0
    4.8106   -5.2277   43.9081 C   0  0  0  0  0  0  0  0  0  0  0  0
    4.3880   -6.4969   43.4717 O   0  0  0  0  0  0  0  0  0  0  0  0
   -0.0427   -2.7080   40.8680 C   0  0  0  0  0  0  0  0  0  0  0  0
  1  2  1  1  0  0  0
  1  7  1  0  0  0  0
  1 24  1  0  0  0  0
  3  4  1  1  0  0  0
  3  9  1  0  0  0  0
  3 31  1  0  0  0  0
  5  6  1  1  0  0  0
  5 10  1  0  0  0  0
  5 28  1  0  0  0  0
  7  8  1  1  0  0  0
  7 12  1  0  0  0  0
  9 14  1  0  0  0  0
 10 11  1  1  0  0  0
 10 16  1  0  0  0  0
 12 13  1  6  0  0  0
 12 18  1  0  0  0  0
 13 35  1  0  0  0  0
 14 15  1  6  0  0  0
 14 20  1  0  0  0  0
 16 17  1  6  0  0  0
 16 21  1  0  0  0  0
 17 35  1  0  0  0  0
 18 19  1  1  0  0  0
 18 23  1  0  0  0  0
 20  2  1  6  0  0  0
 20 25  1  0  0  0  0
 21 22  1  1  0  0  0
 21 27  1  0  0  0  0
 23 24  1  0  0  0  0
 23 29  1  6  0  0  0
 25 26  1  6  0  0  0
 25 31  1  0  0  0  0
 27 28  1  0  0  0  0
 27 33  1  6  0  0  0
 29 30  1  0  0  0  0
 31 32  1  1  0  0  0
 33 34  1  0  0  0  0
M  END
>  <CHROM.1>
159.03540053,-179.65542535,147.63132138,-77.23584012,-95.18668251,-136.43991531
63.67193788,-43.62797637,-1.51554153,-2.81574473,43.69262461,2.80730758,-0.20713538
1.58647772

>  <Name>
2o3v_lig

>  <RI>
0

>  <Rbt.Current_Directory>
/home/afrankz/demos/rdock_decoys_rna/rnas/2o3v

>  <Rbt.Executable>
rbdock ($Id: //depot/dev/client3/rdock/2013.1/src/exe/rbdock.cxx#4 $)

>  <Rbt.Library>
libRbt.so (2013.1, Build901 2013/11/27)

>  <Rbt.Parameter_File>
/export/apps/rDock/src/rDock_2013.1_src/data/scripts/dock_solv.prm

>  <Rbt.Receptor>
prm/blind_docking_60.prm

>  <SCORE>
-2.4292

>  <SCORE.INTER>
-9.10941

>  <SCORE.INTER.CONST>
1

>  <SCORE.INTER.POLAR>
-1.31976

>  <SCORE.INTER.ROT>
8

>  <SCORE.INTER.SOLV>
14.6068

>  <SCORE.INTER.VDW>
-15.476

>  <SCORE.INTER.norm>
-0.260269

>  <SCORE.INTRA>
4.00364

>  <SCORE.INTRA.DIHEDRAL>
5.77194

>  <SCORE.INTRA.DIHEDRAL.0>
13.1227

>  <SCORE.INTRA.POLAR>
0

>  <SCORE.INTRA.POLAR.0>
0

>  <SCORE.INTRA.REPUL>
0.0120815

>  <SCORE.INTRA.REPUL.0>
0

>  <SCORE.INTRA.SOLV>
3.34105

>  <SCORE.INTRA.SOLV.lig_0>
-89.1587

>  <SCORE.INTRA.VDW>
-0.613262

>  <SCORE.INTRA.VDW.0>
-0.838383

>  <SCORE.INTRA.norm>
0.11439

>  <SCORE.RESTR>
2.67657

>  <SCORE.RESTR.CAVITY>
2.67657

>  <SCORE.RESTR.norm>
0.0764734

>  <SCORE.SYSTEM>
0

>  <SCORE.SYSTEM.CONST>
0

>  <SCORE.SYSTEM.DIHEDRAL>
0

>  <SCORE.SYSTEM.SOLV>
0

>  <SCORE.SYSTEM.norm>
0

>  <SCORE.heavy>
35

>  <SCORE.norm>
-0.0694057

>  <RMSD>
10.846

$$$$
2o3v_lig
 OpenBabel02141814113D
libRbt.so/2013.1/901 2013/11/27
 35 37  0  0  0  0  0  0  0  0999 V2000
    2.6215   -7.9397   45.8132 C   0  0  2  0  0  0  0  0  0  0  0  0
    2.9166   -8.6350   47.0632 O   0  0  0  0  0  0  0  0  0  0  0  0
   -0.7863  -10.6773   48.0849 C   0  0  2  0  0  0  0  0  0  0  0  0
   -1.7916  -11.4855   48.8389 N   0  0  0  0  0  0  0  0  0  0  0  0
    9.4606   -4.7853   50.3495 C   0  0  2  0  0  0  0  0  0  0  0  0
    9.9777   -5.9293   51.0632 O   0  0  0  0  0  0  0  0  0  0  0  0
    4.0374   -7.5549   45.2790 C   0  0  2  0  0  0  0  0  0  0  0  0
    4.8814   -8.7572   45.0835 N   0  0  0  0  0  0  0  0  0  0  0  0
    0.4925  -11.5624   47.7583 C   0  0  0  0  0  0  0  0  0  0  0  0
    8.2516   -5.2788   49.4817 C   0  0  2  0  0  0  0  0  0  0  0  0
    7.2108   -5.9130   50.3300 N   0  0  0  0  0  0  0  0  0  0  0  0
    4.7724   -6.5359   46.2542 C   0  0  1  0  0  0  0  0  0  0  0  0
    6.1339   -6.2173   45.7512 O   0  0  0  0  0  0  0  0  0  0  0  0
    1.5498  -10.6768   46.9671 C   0  0  2  0  0  0  0  0  0  0  0  0
    2.7540  -11.4792   46.6630 N   0  0  0  0  0  0  0  0  0  0  0  0
    8.7221   -6.2832   48.3395 C   0  0  1  0  0  0  0  0  0  0  0  0
    7.6271   -6.7302   47.4994 O   0  0  0  0  0  0  0  0  0  0  0  0
    3.8249   -5.2676   46.4198 C   0  0  2  0  0  0  0  0  0  0  0  0
    4.3895   -4.3097   47.2971 O   0  0  0  0  0  0  0  0  0  0  0  0
    1.9483   -9.4107   47.8317 C   0  0  2  0  0  0  0  0  0  0  0  0
    9.8031   -5.5697   47.4671 C   0  0  2  0  0  0  0  0  0  0  0  0
   10.2676   -6.4215   46.4383 O   0  0  0  0  0  0  0  0  0  0  0  0
    2.4044   -5.7028   46.9455 C   0  0  2  0  0  0  0  0  0  0  0  0
    1.8183   -6.7052   46.0312 O   0  0  0  0  0  0  0  0  0  0  0  0
    0.6912   -8.5543   48.1517 C   0  0  2  0  0  0  0  0  0  0  0  0
    1.1255   -7.4363   48.9779 O   0  0  0  0  0  0  0  0  0  0  0  0
   10.9995   -5.0851   48.3798 C   0  0  2  0  0  0  0  0  0  0  0  0
   10.4984   -4.2014   49.4573 O   0  0  0  0  0  0  0  0  0  0  0  0
    1.4625   -4.5069   47.0780 C   0  0  0  0  0  0  0  0  0  0  0  0
    1.1537   -3.9629   45.8180 O   0  0  0  0  0  0  0  0  0  0  0  0
   -0.3417   -9.4130   48.9184 C   0  0  1  0  0  0  0  0  0  0  0  0
   -1.4740   -8.6147   49.1914 O   0  0  0  0  0  0  0  0  0  0  0  0
   12.0592   -4.3441   47.5786 C   0  0  0  0  0  0  0  0  0  0  0  0
   12.6894   -5.2169   46.6726 O   0  0  0  0  0  0  0  0  0  0  0  0
    7.0470   -5.6000   46.7844 C   0  0  0  0  0  0  0  0  0  0  0  0
  1  2  1  1  0  0  0
  1  7  1  0  0  0  0
  1 24  1  0  0  0  0
  3  4  1  1  0  0  0
  3  9  1  0  0  0  0
  3 31  1  0  0  0  0
  5  6  1  6  0  0  0
  5 10  1  0  0  0  0
  5 28  1  0  0  0  0
  7  8  1  1  0  0  0
  7 12  1  0  0  0  0
  9 14  1  0  0  0  0
 10 11  1  1  0  0  0
 10 16  1  0  0  0  0
 12 13  1  6  0  0  0
 12 18  1  0  0  0  0
 13 35  1  0  0  0  0
 14 15  1  1  0  0  0
 14 20  1  0  0  0  0
 16 17  1  6  0  0  0
 16 21  1  0  0  0  0
 17 35  1  0  0  0  0
 18 19  1  1  0  0  0
 18 23  1  0  0  0  0
 20  2  1  6  0  0  0
 20 25  1  0  0  0  0
 21 22  1  6  0  0  0
 21 27  1  0  0  0  0
 23 24  1  0  0  0  0
 23 29  1  6  0  0  0
 25 26  1  1  0  0  0
 25 31  1  0  0  0  0
 27 28  1  0  0  0  0
 27 33  1  6  0  0  0
 29 30  1  0  0  0  0
 31 32  1  6  0  0  0
 33 34  1  0  0  0  0
M  END
>  <CHROM.1>
-168.18992591,-162.91335516,85.19150732,63.32500720,168.64542825,66.60576351
66.88493751,-66.06077053,4.87968572,-7.00361295,47.60048258,2.80298830,0.18607891
2.79424688

>  <Name>
2o3v_lig

>  <RI>
0

>  <Rbt.Current_Directory>
/home/afrankz/demos/rdock_decoys_rna/rnas/2o3v

>  <Rbt.Executable>
rbdock ($Id: //depot/dev/client3/rdock/2013.1/src/exe/rbdock.cxx#4 $)

>  <Rbt.Library>
libRbt.so (2013.1, Build901 2013/11/27)

>  <Rbt.Parameter_File>
/export/apps/rDock/src/rDock_2013.1_src/data/scripts/dock_solv.prm

>  <Rbt.Receptor>
prm/pocket_docking_8.prm

>  <SCORE>
-12.1815

>  <SCORE.INTER>
-8.81763

>  <SCORE.INTER.CONST>
1

>  <SCORE.INTER.POLAR>
-1.14424

>  <SCORE.INTER.ROT>
8

>  <SCORE.INTER.SOLV>
10.3688

>  <SCORE.INTER.VDW>
-14.4539

>  <SCORE.INTER.norm>
-0.251932

>  <SCORE.INTRA>
-3.36384

>  <SCORE.INTRA.DIHEDRAL>
-7.17393

>  <SCORE.INTRA.DIHEDRAL.0>
13.1227

>  <SCORE.INTRA.POLAR>
0

>  <SCORE.INTRA.POLAR.0>
0

>  <SCORE.INTRA.REPUL>
0

>  <SCORE.INTRA.REPUL.0>
0

>  <SCORE.INTRA.SOLV>
1.15094

>  <SCORE.INTRA.SOLV.lig_0>
-89.1587

>  <SCORE.INTRA.VDW>
-0.35234

>  <SCORE.INTRA.VDW.0>
-0.838383

>  <SCORE.INTRA.norm>
-0.0961096

>  <SCORE.RESTR>
0

>  <SCORE.RESTR.CAVITY>
0

>  <SCORE.RESTR.norm>
0

>  <SCORE.SYSTEM>
0

>  <SCORE.SYSTEM.CONST>
0

>  <SCORE.SYSTEM.DIHEDRAL>
0

>  <SCORE.SYSTEM.SOLV>
0

>  <SCORE.SYSTEM.norm>
0

>  <SCORE.heavy>
35

>  <SCORE.norm>
-0.348042

>  <RMSD>
10.954

$$$$
2o3v_lig
 OpenBabel02141814113D
libRbt.so/2013.1/901 2013/11/27
 35 37  0  0  0  0  0  0  0  0999 V2000
   -5.6227   -6.3076   47.6040 C   0  0  2  0  0  0  0  0  0  0  0  0
   -6.6020   -7.0893   46.8538 O   0  0  0  0  0  0  0  0  0  0  0  0
  -10.9435   -7.3705   46.8465 C   0  0  2  0  0  0  0  0  0  0  0  0
  -12.3391   -7.6818   47.2796 N   0  0  0  0  0  0  0  0  0  0  0  0
    3.1389   -5.7700   44.7752 C   0  0  2  0  0  0  0  0  0  0  0  0
    2.7004   -4.3941   44.7902 O   0  0  0  0  0  0  0  0  0  0  0  0
   -4.3443   -6.3904   46.7111 C   0  0  2  0  0  0  0  0  0  0  0  0
   -4.6004   -5.8455   45.3569 N   0  0  0  0  0  0  0  0  0  0  0  0
  -10.1051   -8.7123   46.6984 C   0  0  0  0  0  0  0  0  0  0  0  0
    1.8939   -6.6573   44.4273 C   0  0  2  0  0  0  0  0  0  0  0  0
    1.3007   -6.2562   43.1265 N   0  0  0  0  0  0  0  0  0  0  0  0
   -3.8078   -7.8832   46.5964 C   0  0  1  0  0  0  0  0  0  0  0  0
   -2.6185   -7.9468   45.7078 O   0  0  0  0  0  0  0  0  0  0  0  0
   -8.6229   -8.3527   46.2487 C   0  0  2  0  0  0  0  0  0  0  0  0
   -7.8215   -9.5883   46.1160 N   0  0  0  0  0  0  0  0  0  0  0  0
    0.7947   -6.6006   45.5777 C   0  0  1  0  0  0  0  0  0  0  0  0
   -0.3551   -7.4397   45.2970 O   0  0  0  0  0  0  0  0  0  0  0  0
   -3.5457   -8.4100   48.0754 C   0  0  2  0  0  0  0  0  0  0  0  0
   -3.0858   -9.7496   48.0748 O   0  0  0  0  0  0  0  0  0  0  0  0
   -7.9553   -7.3872   47.3123 C   0  0  2  0  0  0  0  0  0  0  0  0
    1.4591   -7.0428   46.9199 C   0  0  2  0  0  0  0  0  0  0  0  0
    0.5288   -7.0017   47.9841 O   0  0  0  0  0  0  0  0  0  0  0  0
   -4.8554   -8.2945   48.9444 C   0  0  2  0  0  0  0  0  0  0  0  0
   -5.3362   -6.8969   48.9409 O   0  0  0  0  0  0  0  0  0  0  0  0
   -8.7848   -6.0804   47.4553 C   0  0  2  0  0  0  0  0  0  0  0  0
   -8.1374   -5.2637   48.4727 O   0  0  0  0  0  0  0  0  0  0  0  0
    2.7101   -6.1274   47.2301 C   0  0  2  0  0  0  0  0  0  0  0  0
    3.6717   -6.1729   46.1049 O   0  0  0  0  0  0  0  0  0  0  0  0
   -4.6207   -8.7596   50.3809 C   0  0  0  0  0  0  0  0  0  0  0  0
   -5.8142   -8.7290   51.1249 O   0  0  0  0  0  0  0  0  0  0  0  0
  -10.2285   -6.4259   47.8893 C   0  0  1  0  0  0  0  0  0  0  0  0
  -10.9610   -5.2243   48.0064 O   0  0  0  0  0  0  0  0  0  0  0  0
    3.4176   -6.5492   48.5090 C   0  0  0  0  0  0  0  0  0  0  0  0
    4.5772   -5.7769   48.7063 O   0  0  0  0  0  0  0  0  0  0  0  0
   -1.4875   -7.0342   46.1206 C   0  0  0  0  0  0  0  0  0  0  0  0
  1  2  1  6  0  0  0
  1  7  1  0  0  0  0
  1 24  1  0  0  0  0
  3  4  1  1  0  0  0
  3  9  1  0  0  0  0
  3 31  1  0  0  0  0
  5  6  1  1  0  0  0
  5 10  1  0  0  0  0
  5 28  1  0  0  0  0
  7  8  1  6  0  0  0
  7 12  1  0  0  0  0
  9 14  1  0  0  0  0
 10 11  1  6  0  0  0
 10 16  1  0  0  0  0
 12 13  1  6  0  0  0
 12 18  1  0  0  0  0
 13 35  1  0  0  0  0
 14 15  1  1  0  0  0
 14 20  1  0  0  0  0
 16 17  1  6  0  0  0
 16 21  1  0  0  0  0
 17 35  1  0  0  0  0
 18 19  1  6  0  0  0
 18 23  1  0  0  0  0
 20  2  1  6  0  0  0
 20 25  1  0  0  0  0
 21 22  1  1  0  0  0
 21 27  1  0  0  0  0
 23 24  1  0  0  0  0
 23 29  1  1  0  0  0
 25 26  1  1  0  0  0
 25 31  1  0  0  0  0
 27 28  1  0  0  0  0
 27 33  1  1  0  0  0
 29 30  1  0  0  0  0
 31 32  1  6  0  0  0
 33 34  1  0  0  0  0
M  END
>  <CHROM.1>
176.10499436,55.85503992,169.16000537,-161.52866953,178.35024861,-175.43474175
-176.42106223,175.88197196,-3.55493417,-7.05274861,47.06455936,3.00393324
0.04403992,1.89715196

>  <Name>
2o3v_lig

>  <RI>
0

>  <Rbt.Current_Directory>
/home/afrankz/demos/rdock_decoys_rna/rnas/2o3v

>  <Rbt.Executable>
rbdock ($Id: //depot/dev/client3/rdock/2013.1/src/exe/rbdock.cxx#4 $)

>  <Rbt.Library>
libRbt.so (2013.1, Build901 2013/11/27)

>  <Rbt.Parameter_File>
/export/apps/rDock/src/rDock_2013.1_src/data/scripts/dock_solv.prm

>  <Rbt.Receptor>
prm/pocket_docking_4.prm

>  <SCORE>
-4.37741

>  <SCORE.INTER>
1.74959

>  <SCORE.INTER.CONST>
1

>  <SCORE.INTER.POLAR>
-0.718948

>  <SCORE.INTER.ROT>
8

>  <SCORE.INTER.SOLV>
4.91022

>  <SCORE.INTER.VDW>
-7.00718

>  <SCORE.INTER.norm>
0.0499884

>  <SCORE.INTRA>
-6.127

>  <SCORE.INTRA.DIHEDRAL>
-10.5715

>  <SCORE.INTRA.DIHEDRAL.0>
13.1227

>  <SCORE.INTRA.POLAR>
0

>  <SCORE.INTRA.POLAR.0>
0

>  <SCORE.INTRA.REPUL>
0

>  <SCORE.INTRA.REPUL.0>
0

>  <SCORE.INTRA.SOLV>
-1.17169

>  <SCORE.INTRA.SOLV.lig_0>
-89.1587

>  <SCORE.INTRA.VDW>
-0.255401

>  <SCORE.INTRA.VDW.0>
-0.838383

>  <SCORE.INTRA.norm>
-0.175057

>  <SCORE.RESTR>
0

>  <SCORE.RESTR.CAVITY>
0

>  <SCORE.RESTR.norm>
0

>  <SCORE.SYSTEM>
0

>  <SCORE.SYSTEM.CONST>
0

>  <SCORE.SYSTEM.DIHEDRAL>
0

>  <SCORE.SYSTEM.SOLV>
0

>  <SCORE.SYSTEM.norm>
0

>  <SCORE.heavy>
35

>  <SCORE.norm>
-0.125069

>  <RMSD>
11.080

$$$$
2o3v_lig
 OpenBabel02141814113D
libRbt.so/2013.1/901 2013/11/27
 35 37  0  0  0  0  0  0  0  0999 V2000
   -1.3660   -3.1362   41.8182 C   0  0  2  0  0  0  0  0  0  0  0  0
   -1.5634   -3.6263   43.1797 O   0  0  0  0  0  0  0  0  0  0  0  0
   -4.1002   -6.8647   44.5956 C   0  0  2  0  0  0  0  0  0  0  0  0
   -5.2981   -7.6053   45.0944 N   0  0  0  0  0  0  0  0  0  0  0  0
    3.7137   -3.2135   38.3673 C   0  0  2  0  0  0  0  0  0  0  0  0
    2.3101   -3.0194   38.0887 O   0  0  0  0  0  0  0  0  0  0  0  0
    0.1852   -2.9881   41.7164 C   0  0  2  0  0  0  0  0  0  0  0  0
    0.8646   -4.2811   41.9670 N   0  0  0  0  0  0  0  0  0  0  0  0
   -3.6940   -5.7252   45.6261 C   0  0  0  0  0  0  0  0  0  0  0  0
    3.9610   -2.7913   39.8569 C   0  0  2  0  0  0  0  0  0  0  0  0
    3.1043   -3.5756   40.7820 N   0  0  0  0  0  0  0  0  0  0  0  0
    0.7343   -1.8888   42.7262 C   0  0  1  0  0  0  0  0  0  0  0  0
    2.2152   -1.7949   42.6454 O   0  0  0  0  0  0  0  0  0  0  0  0
   -2.4258   -4.9460   45.0668 C   0  0  2  0  0  0  0  0  0  0  0  0
   -2.0378   -3.8723   46.0064 N   0  0  0  0  0  0  0  0  0  0  0  0
    3.7231   -1.2316   40.0706 C   0  0  1  0  0  0  0  0  0  0  0  0
    3.9775   -0.8069   41.4342 O   0  0  0  0  0  0  0  0  0  0  0  0
   -0.0240   -0.5265   42.4056 C   0  0  2  0  0  0  0  0  0  0  0  0
    0.3849    0.5121   43.2774 O   0  0  0  0  0  0  0  0  0  0  0  0
   -2.7553   -4.3277   43.6461 C   0  0  2  0  0  0  0  0  0  0  0  0
    4.6528   -0.4497   39.0892 C   0  0  2  0  0  0  0  0  0  0  0  0
    4.4762    0.9464   39.2273 O   0  0  0  0  0  0  0  0  0  0  0  0
   -1.5843   -0.7249   42.5047 C   0  0  2  0  0  0  0  0  0  0  0  0
   -2.0088   -1.8116   41.5973 O   0  0  0  0  0  0  0  0  0  0  0  0
   -3.1575   -5.4480   42.6464 C   0  0  2  0  0  0  0  0  0  0  0  0
   -3.4833   -4.8050   41.3809 O   0  0  0  0  0  0  0  0  0  0  0  0
    4.3747   -0.9080   37.6020 C   0  0  2  0  0  0  0  0  0  0  0  0
    4.5547   -2.3722   37.4733 O   0  0  0  0  0  0  0  0  0  0  0  0
   -2.3379    0.5601   42.1647 C   0  0  0  0  0  0  0  0  0  0  0  0
   -1.5196    1.4537   41.4502 O   0  0  0  0  0  0  0  0  0  0  0  0
   -4.3889   -6.2110   43.1883 C   0  0  1  0  0  0  0  0  0  0  0  0
   -4.7296   -7.2247   42.2661 O   0  0  0  0  0  0  0  0  0  0  0  0
    5.2896   -0.2034   36.6117 C   0  0  0  0  0  0  0  0  0  0  0  0
    5.3271   -0.9053   35.3927 O   0  0  0  0  0  0  0  0  0  0  0  0
    2.7236   -0.4801   42.1021 C   0  0  0  0  0  0  0  0  0  0  0  0
  1  2  1  1  0  0  0
  1  7  1  0  0  0  0
  1 24  1  0  0  0  0
  3  4  1  1  0  0  0
  3  9  1  0  0  0  0
  3 31  1  0  0  0  0
  5  6  1  6  0  0  0
  5 10  1  0  0  0  0
  5 28  1  0  0  0  0
  7  8  1  1  0  0  0
  7 12  1  0  0  0  0
  9 14  1  0  0  0  0
 10 11  1  1  0  0  0
 10 16  1  0  0  0  0
 12 13  1  6  0  0  0
 12 18  1  0  0  0  0
 13 35  1  0  0  0  0
 14 15  1  1  0  0  0
 14 20  1  0  0  0  0
 16 17  1  1  0  0  0
 16 21  1  0  0  0  0
 17 35  1  0  0  0  0
 18 19  1  1  0  0  0
 18 23  1  0  0  0  0
 20  2  1  6  0  0  0
 20 25  1  0  0  0  0
 21 22  1  6  0  0  0
 21 27  1  0  0  0  0
 23 24  1  0  0  0  0
 23 29  1  6  0  0  0
 25 26  1  6  0  0  0
 25 31  1  0  0  0  0
 27 28  1  0  0  0  0
 27 33  1  6  0  0  0
 29 30  1  0  0  0  0
 31 32  1  6  0  0  0
 33 34  1  0  0  0  0
M  END
>  <CHROM.1>
-159.21999375,113.81803022,-149.83235561,-108.59796813,85.86874416,167.93296103
18.85898814,161.52677436,0.31991303,-2.64809404,41.46816474,-2.95489604,0.70799279
0.39589272

>  <Name>
2o3v_lig

>  <RI>
0

>  <Rbt.Current_Directory>
/home/afrankz/demos/rdock_decoys_rna/rnas/2o3v

>  <Rbt.Executable>
rbdock ($Id: //depot/dev/client3/rdock/2013.1/src/exe/rbdock.cxx#4 $)

>  <Rbt.Library>
libRbt.so (2013.1, Build901 2013/11/27)

>  <Rbt.Parameter_File>
/export/apps/rDock/src/rDock_2013.1_src/data/scripts/dock_solv.prm

>  <Rbt.Receptor>
prm/blind_docking_100.prm

>  <SCORE>
7.97262

>  <SCORE.INTER>
-4.52375

>  <SCORE.INTER.CONST>
1

>  <SCORE.INTER.POLAR>
-0.979796

>  <SCORE.INTER.ROT>
8

>  <SCORE.INTER.SOLV>
16.1873

>  <SCORE.INTER.VDW>
-14.079

>  <SCORE.INTER.norm>
-0.12925

>  <SCORE.INTRA>
10.9062

>  <SCORE.INTRA.DIHEDRAL>
14.7653

>  <SCORE.INTRA.DIHEDRAL.0>
13.1227

>  <SCORE.INTRA.POLAR>
0

>  <SCORE.INTRA.POLAR.0>
0

>  <SCORE.INTRA.REPUL>
0

>  <SCORE.INTRA.REPUL.0>
0

>  <SCORE.INTRA.SOLV>
4.12286

>  <SCORE.INTRA.SOLV.lig_0>
-89.1587

>  <SCORE.INTRA.VDW>
1.46208

>  <SCORE.INTRA.VDW.0>
-0.838383

>  <SCORE.INTRA.norm>
0.311605

>  <SCORE.RESTR>
1.5902

>  <SCORE.RESTR.CAVITY>
1.5902

>  <SCORE.RESTR.norm>
0.0454342

>  <SCORE.SYSTEM>
0

>  <SCORE.SYSTEM.CONST>
0

>  <SCORE.SYSTEM.DIHEDRAL>
0

>  <SCORE.SYSTEM.SOLV>
0

>  <SCORE.SYSTEM.norm>
0

>  <SCORE.heavy>
35

>  <SCORE.norm>
0.227789

>  <RMSD>
11.449

$$$$
2o3v_lig
 OpenBabel02141814113D
libRbt.so/2013.1/901 2013/11/27
 35 37  0  0  0  0  0  0  0  0999 V2000
   -1.8081   -4.5507   42.5096 C   0  0  2  0  0  0  0  0  0  0  0  0
   -2.1629   -3.1686   42.8205 O   0  0  0  0  0  0  0  0  0  0  0  0
   -4.3671   -1.6972   46.2707 C   0  0  2  0  0  0  0  0  0  0  0  0
   -4.6668   -1.1936   47.6450 N   0  0  0  0  0  0  0  0  0  0  0  0
    3.2370    1.0666   40.2150 C   0  0  2  0  0  0  0  0  0  0  0  0
    4.4246    1.6689   40.7739 O   0  0  0  0  0  0  0  0  0  0  0  0
   -0.2615   -4.5762   42.7236 C   0  0  2  0  0  0  0  0  0  0  0  0
    0.0942   -4.1883   44.1090 N   0  0  0  0  0  0  0  0  0  0  0  0
   -3.7404   -3.1555   46.3477 C   0  0  0  0  0  0  0  0  0  0  0  0
    3.0109   -0.2993   40.9509 C   0  0  2  0  0  0  0  0  0  0  0  0
    2.8873   -0.1004   42.4172 N   0  0  0  0  0  0  0  0  0  0  0  0
    0.4866   -3.6255   41.6912 C   0  0  1  0  0  0  0  0  0  0  0  0
    1.9517   -3.6298   41.9402 O   0  0  0  0  0  0  0  0  0  0  0  0
   -3.4205   -3.6626   44.8750 C   0  0  2  0  0  0  0  0  0  0  0  0
   -2.8250   -5.0152   44.9248 N   0  0  0  0  0  0  0  0  0  0  0  0
    4.1746   -1.3372   40.6294 C   0  0  1  0  0  0  0  0  0  0  0  0
    3.9733   -2.6225   41.2714 O   0  0  0  0  0  0  0  0  0  0  0  0
    0.0726   -4.0929   40.2271 C   0  0  2  0  0  0  0  0  0  0  0  0
    0.6756   -3.2827   39.2342 O   0  0  0  0  0  0  0  0  0  0  0  0
   -2.4228   -2.6590   44.1632 C   0  0  2  0  0  0  0  0  0  0  0  0
    4.2574   -1.5247   39.0813 C   0  0  2  0  0  0  0  0  0  0  0  0
    5.2852   -2.4318   38.7346 O   0  0  0  0  0  0  0  0  0  0  0  0
   -1.4943   -4.0666   40.0600 C   0  0  2  0  0  0  0  0  0  0  0  0
   -2.1222   -4.9095   41.0992 O   0  0  0  0  0  0  0  0  0  0  0  0
   -3.0408   -1.2342   44.0978 C   0  0  2  0  0  0  0  0  0  0  0  0
   -2.0572   -0.3620   43.4709 O   0  0  0  0  0  0  0  0  0  0  0  0
    4.4808   -0.1258   38.3795 C   0  0  2  0  0  0  0  0  0  0  0  0
    3.4030    0.8166   38.7576 O   0  0  0  0  0  0  0  0  0  0  0  0
   -1.9207   -4.5471   38.6736 C   0  0  0  0  0  0  0  0  0  0  0  0
   -1.3736   -5.8104   38.3845 O   0  0  0  0  0  0  0  0  0  0  0  0
   -3.3570   -0.7383   45.5282 C   0  0  1  0  0  0  0  0  0  0  0  0
   -3.9214    0.5531   45.4404 O   0  0  0  0  0  0  0  0  0  0  0  0
    4.5244   -0.2527   36.8643 C   0  0  0  0  0  0  0  0  0  0  0  0
    5.3457   -1.3306   36.4852 O   0  0  0  0  0  0  0  0  0  0  0  0
    2.7862   -3.2745   40.7320 C   0  0  0  0  0  0  0  0  0  0  0  0
  1  2  1  6  0  0  0
  1  7  1  0  0  0  0
  1 24  1  0  0  0  0
  3  4  1  1  0  0  0
  3  9  1  0  0  0  0
  3 31  1  0  0  0  0
  5  6  1  1  0  0  0
  5 10  1  0  0  0  0
  5 28  1  0  0  0  0
  7  8  1  1  0  0  0
  7 12  1  0  0  0  0
  9 14  1  0  0  0  0
 10 11  1  1  0  0  0
 10 16  1  0  0  0  0
 12 13  1  6  0  0  0
 12 18  1  0  0  0  0
 13 35  1  0  0  0  0
 14 15  1  1  0  0  0
 14 20  1  0  0  0  0
 16 17  1  1  0  0  0
 16 21  1  0  0  0  0
 17 35  1  0  0  0  0
 18 19  1  6  0  0  0
 18 23  1  0  0  0  0
 20  2  1  6  0  0  0
 20 25  1  0  0  0  0
 21 22  1  1  0  0  0
 21 27  1  0  0  0  0
 23 24  1  0  0  0  0
 23 29  1  6  0  0  0
 25 26  1  1  0  0  0
 25 31  1  0  0  0  0
 27 28  1  0  0  0  0
 27 33  1  6  0  0  0
 29 30  1  0  0  0  0
 31 32  1  6  0  0  0
 33 34  1  0  0  0  0
M  END
>  <CHROM.1>
-84.74822550,155.22427151,149.27040240,65.22938785,-127.31303486,-47.96156672
53.75920771,-45.85597006,0.33803548,-2.25850926,41.69721983,2.86926757,0.65075985
0.67573206

>  <Name>
2o3v_lig

>  <RI>
0

>  <Rbt.Current_Directory>
/home/afrankz/demos/rdock_decoys_rna/rnas/2o3v

>  <Rbt.Executable>
rbdock ($Id: //depot/dev/client3/rdock/2013.1/src/exe/rbdock.cxx#4 $)

>  <Rbt.Library>
libRbt.so (2013.1, Build901 2013/11/27)

>  <Rbt.Parameter_File>
/export/apps/rDock/src/rDock_2013.1_src/data/scripts/dock_solv.prm

>  <Rbt.Receptor>
prm/blind_docking_60.prm

>  <SCORE>
-4.76181

>  <SCORE.INTER>
-15.436

>  <SCORE.INTER.CONST>
1

>  <SCORE.INTER.POLAR>
-1.37961

>  <SCORE.INTER.ROT>
8

>  <SCORE.INTER.SOLV>
18.4046

>  <SCORE.INTER.VDW>
-20.7602

>  <SCORE.INTER.norm>
-0.441029

>  <SCORE.INTRA>
9.31341

>  <SCORE.INTRA.DIHEDRAL>
4.49841

>  <SCORE.INTRA.DIHEDRAL.0>
13.1227

>  <SCORE.INTRA.POLAR>
0

>  <SCORE.INTRA.POLAR.0>
0

>  <SCORE.INTRA.REPUL>
0

>  <SCORE.INTRA.REPUL.0>
0

>  <SCORE.INTRA.SOLV>
4.51743

>  <SCORE.INTRA.SOLV.lig_0>
-89.1587

>  <SCORE.INTRA.VDW>
4.80549

>  <SCORE.INTRA.VDW.0>
-0.838383

>  <SCORE.INTRA.norm>
0.266098

>  <SCORE.RESTR>
1.36081

>  <SCORE.RESTR.CAVITY>
1.36081

>  <SCORE.RESTR.norm>
0.0388802

>  <SCORE.SYSTEM>
0

>  <SCORE.SYSTEM.CONST>
0

>  <SCORE.SYSTEM.DIHEDRAL>
0

>  <SCORE.SYSTEM.SOLV>
0

>  <SCORE.SYSTEM.norm>
0

>  <SCORE.heavy>
35

>  <SCORE.norm>
-0.136052

>  <RMSD>
11.676

$$$$
2o3v_lig
 OpenBabel02141814113D
libRbt.so/2013.1/901 2013/11/27
 35 37  0  0  0  0  0  0  0  0999 V2000
    1.3028   -2.4193   43.3815 C   0  0  2  0  0  0  0  0  0  0  0  0
    0.4445   -2.6569   42.2241 O   0  0  0  0  0  0  0  0  0  0  0  0
   -2.9696   -5.0622   43.4432 C   0  0  2  0  0  0  0  0  0  0  0  0
   -4.0747   -6.0669   43.4052 N   0  0  0  0  0  0  0  0  0  0  0  0
    3.5031   -2.6111   36.7001 C   0  0  2  0  0  0  0  0  0  0  0  0
    2.2785   -1.9735   36.2762 O   0  0  0  0  0  0  0  0  0  0  0  0
    1.9086   -1.0099   43.0899 C   0  0  2  0  0  0  0  0  0  0  0  0
    0.8442    0.0109   42.9433 N   0  0  0  0  0  0  0  0  0  0  0  0
   -3.1905   -3.9640   42.3160 C   0  0  0  0  0  0  0  0  0  0  0  0
    3.8242   -2.0992   38.1468 C   0  0  2  0  0  0  0  0  0  0  0  0
    2.7033   -2.3909   39.0761 N   0  0  0  0  0  0  0  0  0  0  0  0
    2.8212   -1.0246   41.7875 C   0  0  1  0  0  0  0  0  0  0  0  0
    3.3514    0.3341   41.5027 O   0  0  0  0  0  0  0  0  0  0  0  0
   -1.9965   -2.9153   42.3704 C   0  0  2  0  0  0  0  0  0  0  0  0
   -2.1769   -1.8896   41.3207 N   0  0  0  0  0  0  0  0  0  0  0  0
    4.1599   -0.5429   38.1561 C   0  0  1  0  0  0  0  0  0  0  0  0
    4.4939   -0.0488   39.4786 O   0  0  0  0  0  0  0  0  0  0  0  0
    3.9449   -2.1306   42.0058 C   0  0  2  0  0  0  0  0  0  0  0  0
    4.7969   -2.2336   40.8791 O   0  0  0  0  0  0  0  0  0  0  0  0
   -0.6137   -3.6604   42.1658 C   0  0  2  0  0  0  0  0  0  0  0  0
    5.3502   -0.2871   37.1781 C   0  0  2  0  0  0  0  0  0  0  0  0
    5.6868    1.0857   37.1370 O   0  0  0  0  0  0  0  0  0  0  0  0
    3.2908   -3.5314   42.3116 C   0  0  2  0  0  0  0  0  0  0  0  0
    2.3991   -3.4214   43.4852 O   0  0  0  0  0  0  0  0  0  0  0  0
   -0.4086   -4.7367   43.2685 C   0  0  2  0  0  0  0  0  0  0  0  0
    0.8565   -5.4042   42.9945 O   0  0  0  0  0  0  0  0  0  0  0  0
    4.9872   -0.8211   35.7350 C   0  0  2  0  0  0  0  0  0  0  0  0
    4.6286   -2.2567   35.7936 O   0  0  0  0  0  0  0  0  0  0  0  0
    4.3494   -4.6044   42.5622 C   0  0  0  0  0  0  0  0  0  0  0  0
    5.3803   -4.1167   43.3859 O   0  0  0  0  0  0  0  0  0  0  0  0
   -1.5699   -5.7571   43.2215 C   0  0  1  0  0  0  0  0  0  0  0  0
   -1.3629   -6.7188   44.2346 O   0  0  0  0  0  0  0  0  0  0  0  0
    6.1359   -0.6329   34.7558 C   0  0  0  0  0  0  0  0  0  0  0  0
    5.7944   -1.1507   33.4928 O   0  0  0  0  0  0  0  0  0  0  0  0
    3.3716    0.6961   40.0361 C   0  0  0  0  0  0  0  0  0  0  0  0
  1  2  1  6  0  0  0
  1  7  1  0  0  0  0
  1 24  1  0  0  0  0
  3  4  1  6  0  0  0
  3  9  1  0  0  0  0
  3 31  1  0  0  0  0
  5  6  1  6  0  0  0
  5 10  1  0  0  0  0
  5 28  1  0  0  0  0
  7  8  1  6  0  0  0
  7 12  1  0  0  0  0
  9 14  1  0  0  0  0
 10 11  1  1  0  0  0
 10 16  1  0  0  0  0
 12 13  1  1  0  0  0
 12 18  1  0  0  0  0
 13 35  1  0  0  0  0
 14 15  1  6  0  0  0
 14 20  1  0  0  0  0
 16 17  1  1  0  0  0
 16 21  1  0  0  0  0
 17 35  1  0  0  0  0
 18 19  1  6  0  0  0
 18 23  1  0  0  0  0
 20  2  1  1  0  0  0
 20 25  1  0  0  0  0
 21 22  1  6  0  0  0
 21 27  1  0  0  0  0
 23 24  1  0  0  0  0
 23 29  1  1  0  0  0
 25 26  1  6  0  0  0
 25 31  1  0  0  0  0
 27 28  1  0  0  0  0
 27 33  1  6  0  0  0
 29 30  1  0  0  0  0
 31 32  1  1  0  0  0
 33 34  1  0  0  0  0
M  END
>  <CHROM.1>
-162.91526797,-140.20740564,-75.17253160,-103.75382793,141.64204419,101.85678585
43.27150664,178.38981308,2.18289226,-2.45027774,40.54613551,-2.33220041,-0.41651316
-1.42756732

>  <Name>
2o3v_lig

>  <RI>
0

>  <Rbt.Current_Directory>
/home/afrankz/demos/rdock_decoys_rna/rnas/2o3v

>  <Rbt.Executable>
rbdock ($Id: //depot/dev/client3/rdock/2013.1/src/exe/rbdock.cxx#4 $)

>  <Rbt.Library>
libRbt.so (2013.1, Build901 2013/11/27)

>  <Rbt.Parameter_File>
/export/apps/rDock/src/rDock_2013.1_src/data/scripts/dock_solv.prm

>  <Rbt.Receptor>
prm/blind_docking_80.prm

>  <SCORE>
-0.293823

>  <SCORE.INTER>
-11.0033

>  <SCORE.INTER.CONST>
1

>  <SCORE.INTER.POLAR>
-0.852806

>  <SCORE.INTER.ROT>
8

>  <SCORE.INTER.SOLV>
16.1042

>  <SCORE.INTER.VDW>
-18.7942

>  <SCORE.INTER.norm>
-0.314379

>  <SCORE.INTRA>
8.73611

>  <SCORE.INTRA.DIHEDRAL>
12.4326

>  <SCORE.INTRA.DIHEDRAL.0>
13.1227

>  <SCORE.INTRA.POLAR>
0

>  <SCORE.INTRA.POLAR.0>
0

>  <SCORE.INTRA.REPUL>
0.476794

>  <SCORE.INTRA.REPUL.0>
0

>  <SCORE.INTRA.SOLV>
5.45315

>  <SCORE.INTRA.SOLV.lig_0>
-89.1587

>  <SCORE.INTRA.VDW>
-2.59074

>  <SCORE.INTRA.VDW.0>
-0.838383

>  <SCORE.INTRA.norm>
0.249603

>  <SCORE.RESTR>
1.97332

>  <SCORE.RESTR.CAVITY>
1.97332

>  <SCORE.RESTR.norm>
0.0563807

>  <SCORE.SYSTEM>
0

>  <SCORE.SYSTEM.CONST>
0

>  <SCORE.SYSTEM.DIHEDRAL>
0

>  <SCORE.SYSTEM.SOLV>
0

>  <SCORE.SYSTEM.norm>
0

>  <SCORE.heavy>
35

>  <SCORE.norm>
-0.00839495

>  <RMSD>
11.694

$$$$
2o3v_lig
 OpenBabel02141814113D
libRbt.so/2013.1/901 2013/11/27
 35 37  0  0  0  0  0  0  0  0999 V2000
    1.3834   -2.3689   43.6374 C   0  0  2  0  0  0  0  0  0  0  0  0
    0.4319   -2.5757   42.5489 O   0  0  0  0  0  0  0  0  0  0  0  0
   -3.6225   -4.1520   42.4898 C   0  0  2  0  0  0  0  0  0  0  0  0
   -4.7621   -5.1183   42.4914 N   0  0  0  0  0  0  0  0  0  0  0  0
    3.5320   -2.6286   36.7059 C   0  0  2  0  0  0  0  0  0  0  0  0
    2.2967   -1.9998   36.3009 O   0  0  0  0  0  0  0  0  0  0  0  0
    2.0297   -0.9915   43.2861 C   0  0  2  0  0  0  0  0  0  0  0  0
    1.0053    0.0764   43.2063 N   0  0  0  0  0  0  0  0  0  0  0  0
   -2.7077   -4.3882   41.2120 C   0  0  0  0  0  0  0  0  0  0  0  0
    3.8539   -2.1407   38.1608 C   0  0  2  0  0  0  0  0  0  0  0  0
    2.7422   -2.4660   39.0899 N   0  0  0  0  0  0  0  0  0  0  0  0
    2.8421   -1.0590   41.9205 C   0  0  1  0  0  0  0  0  0  0  0  0
    3.4115    0.2712   41.5821 O   0  0  0  0  0  0  0  0  0  0  0  0
   -1.4980   -3.3566   41.2405 C   0  0  2  0  0  0  0  0  0  0  0  0
   -0.6267   -3.5672   40.0645 N   0  0  0  0  0  0  0  0  0  0  0  0
    4.1685   -0.5805   38.1989 C   0  0  1  0  0  0  0  0  0  0  0  0
    4.5027   -0.1078   39.5292 O   0  0  0  0  0  0  0  0  0  0  0  0
    3.9271   -2.2142   42.0684 C   0  0  2  0  0  0  0  0  0  0  0  0
    4.6880   -2.3658   40.8835 O   0  0  0  0  0  0  0  0  0  0  0  0
   -0.6615   -3.5421   42.5729 C   0  0  2  0  0  0  0  0  0  0  0  0
    5.3498   -0.2893   37.2200 C   0  0  2  0  0  0  0  0  0  0  0  0
    5.6675    1.0885   37.2042 O   0  0  0  0  0  0  0  0  0  0  0  0
    3.2340   -3.5807   42.4374 C   0  0  2  0  0  0  0  0  0  0  0  0
    2.4373   -3.4199   43.6719 O   0  0  0  0  0  0  0  0  0  0  0  0
   -1.5651   -3.3155   43.8172 C   0  0  2  0  0  0  0  0  0  0  0  0
   -0.7431   -3.5407   44.9982 O   0  0  0  0  0  0  0  0  0  0  0  0
    4.9864   -0.7999   35.7687 C   0  0  2  0  0  0  0  0  0  0  0  0
    4.6478   -2.2411   35.8009 O   0  0  0  0  0  0  0  0  0  0  0  0
    4.2581   -4.6996   42.6220 C   0  0  0  0  0  0  0  0  0  0  0  0
    3.6268   -5.9192   42.9269 O   0  0  0  0  0  0  0  0  0  0  0  0
   -2.7453   -4.3147   43.7917 C   0  0  1  0  0  0  0  0  0  0  0  0
   -3.5522   -4.0845   44.9275 O   0  0  0  0  0  0  0  0  0  0  0  0
    6.1272   -0.5767   34.7874 C   0  0  0  0  0  0  0  0  0  0  0  0
    5.7631   -1.0193   33.5023 O   0  0  0  0  0  0  0  0  0  0  0  0
    3.3714    0.6054   40.1093 C   0  0  0  0  0  0  0  0  0  0  0  0
  1  2  1  6  0  0  0
  1  7  1  0  0  0  0
  1 24  1  0  0  0  0
  3  4  1  1  0  0  0
  3  9  1  0  0  0  0
  3 31  1  0  0  0  0
  5  6  1  6  0  0  0
  5 10  1  0  0  0  0
  5 28  1  0  0  0  0
  7  8  1  6  0  0  0
  7 12  1  0  0  0  0
  9 14  1  0  0  0  0
 10 11  1  1  0  0  0
 10 16  1  0  0  0  0
 12 13  1  1  0  0  0
 12 18  1  0  0  0  0
 13 35  1  0  0  0  0
 14 15  1  6  0  0  0
 14 20  1  0  0  0  0
 16 17  1  1  0  0  0
 16 21  1  0  0  0  0
 17 35  1  0  0  0  0
 18 19  1  6  0  0  0
 18 23  1  0  0  0  0
 20  2  1  6  0  0  0
 20 25  1  0  0  0  0
 21 22  1  6  0  0  0
 21 27  1  0  0  0  0
 23 24  1  0  0  0  0
 23 29  1  1  0  0  0
 25 26  1  1  0  0  0
 25 31  1  0  0  0  0
 27 28  1  0  0  0  0
 27 33  1  6  0  0  0
 29 30  1  0  0  0  0
 31 32  1  1  0  0  0
 33 34  1  0  0  0  0
M  END
>  <CHROM.1>
-163.78265063,-141.66388924,-79.78489992,-103.50276892,144.55338687,175.98036543
-178.92222622,-178.94816732,1.98450994,-2.31636429,40.57177037,-2.37251473
-0.38702395,-1.53031936

>  <Name>
2o3v_lig

>  <RI>
0

>  <Rbt.Current_Directory>
/home/afrankz/demos/rdock_decoys_rna/rnas/2o3v

>  <Rbt.Executable>
rbdock ($Id: //depot/dev/client3/rdock/2013.1/src/exe/rbdock.cxx#4 $)

>  <Rbt.Library>
libRbt.so (2013.1, Build901 2013/11/27)

>  <Rbt.Parameter_File>
/export/apps/rDock/src/rDock_2013.1_src/data/scripts/dock_solv.prm

>  <Rbt.Receptor>
prm/blind_docking_60.prm

>  <SCORE>
-1.30883

>  <SCORE.INTER>
-8.3888

>  <SCORE.INTER.CONST>
1

>  <SCORE.INTER.POLAR>
-0.398007

>  <SCORE.INTER.ROT>
8

>  <SCORE.INTER.SOLV>
17.9566

>  <SCORE.INTER.VDW>
-19.1847

>  <SCORE.INTER.norm>
-0.23968

>  <SCORE.INTRA>
5.6616

>  <SCORE.INTRA.DIHEDRAL>
5.65712

>  <SCORE.INTRA.DIHEDRAL.0>
13.1227

>  <SCORE.INTRA.POLAR>
0

>  <SCORE.INTRA.POLAR.0>
0

>  <SCORE.INTRA.REPUL>
0.704009

>  <SCORE.INTRA.REPUL.0>
0

>  <SCORE.INTRA.SOLV>
4.1838

>  <SCORE.INTRA.SOLV.lig_0>
-89.1587

>  <SCORE.INTRA.VDW>
-2.7789

>  <SCORE.INTRA.VDW.0>
-0.838383

>  <SCORE.INTRA.norm>
0.16176

>  <SCORE.RESTR>
1.41838

>  <SCORE.RESTR.CAVITY>
1.41838

>  <SCORE.RESTR.norm>
0.040525

>  <SCORE.SYSTEM>
0

>  <SCORE.SYSTEM.CONST>
0

>  <SCORE.SYSTEM.DIHEDRAL>
0

>  <SCORE.SYSTEM.SOLV>
0

>  <SCORE.SYSTEM.norm>
0

>  <SCORE.heavy>
35

>  <SCORE.norm>
-0.0373952

>  <RMSD>
11.863

$$$$
2o3v_lig
 OpenBabel02141814113D
libRbt.so/2013.1/901 2013/11/27
 35 37  0  0  0  0  0  0  0  0999 V2000
    1.4635   -2.4191   43.6998 C   0  0  2  0  0  0  0  0  0  0  0  0
    0.4954   -2.6529   42.6317 O   0  0  0  0  0  0  0  0  0  0  0  0
   -3.6727   -3.8993   42.6662 C   0  0  2  0  0  0  0  0  0  0  0  0
   -4.8869   -4.7654   42.7553 N   0  0  0  0  0  0  0  0  0  0  0  0
    3.5770   -2.6022   36.6497 C   0  0  2  0  0  0  0  0  0  0  0  0
    2.3550   -1.9682   36.2134 O   0  0  0  0  0  0  0  0  0  0  0  0
    2.1001   -1.0483   43.3071 C   0  0  2  0  0  0  0  0  0  0  0  0
    1.0713    0.0149   43.2197 N   0  0  0  0  0  0  0  0  0  0  0  0
   -2.7634   -4.3570   41.4458 C   0  0  0  0  0  0  0  0  0  0  0  0
    3.8741   -2.1007   38.1052 C   0  0  2  0  0  0  0  0  0  0  0  0
    2.7416   -2.4066   39.0156 N   0  0  0  0  0  0  0  0  0  0  0  0
    2.8907   -1.1446   41.9304 C   0  0  1  0  0  0  0  0  0  0  0  0
    3.4506    0.1791   41.5529 O   0  0  0  0  0  0  0  0  0  0  0  0
   -1.4744   -3.4282   41.3805 C   0  0  2  0  0  0  0  0  0  0  0  0
   -0.6079   -3.8451   40.2573 N   0  0  0  0  0  0  0  0  0  0  0  0
    4.2006   -0.5426   38.1323 C   0  0  1  0  0  0  0  0  0  0  0  0
    4.5124   -0.0578   39.4636 O   0  0  0  0  0  0  0  0  0  0  0  0
    3.9813   -2.2934   42.0869 C   0  0  2  0  0  0  0  0  0  0  0  0
    4.7235   -2.4697   40.8937 O   0  0  0  0  0  0  0  0  0  0  0  0
   -0.6732   -3.5200   42.7440 C   0  0  2  0  0  0  0  0  0  0  0  0
    5.4033   -0.2718   37.1738 C   0  0  2  0  0  0  0  0  0  0  0  0
    5.7325    1.1032   37.1491 O   0  0  0  0  0  0  0  0  0  0  0  0
    3.2982   -3.6529   42.4978 C   0  0  2  0  0  0  0  0  0  0  0  0
    2.5209   -3.4663   43.7410 O   0  0  0  0  0  0  0  0  0  0  0  0
   -1.5716   -3.0767   43.9325 C   0  0  2  0  0  0  0  0  0  0  0  0
   -0.7861   -3.2247   45.1500 O   0  0  0  0  0  0  0  0  0  0  0  0
    5.0644   -0.7957   35.7213 C   0  0  2  0  0  0  0  0  0  0  0  0
    4.7135   -2.2338   35.7627 O   0  0  0  0  0  0  0  0  0  0  0  0
    4.3284   -4.7647   42.6911 C   0  0  0  0  0  0  0  0  0  0  0  0
    3.7032   -5.9881   42.9933 O   0  0  0  0  0  0  0  0  0  0  0  0
   -2.8286   -3.9755   43.9976 C   0  0  1  0  0  0  0  0  0  0  0  0
   -3.6289   -3.5491   45.0802 O   0  0  0  0  0  0  0  0  0  0  0  0
    6.2261   -0.5926   34.7604 C   0  0  0  0  0  0  0  0  0  0  0  0
    5.8666   -0.9996   33.4623 O   0  0  0  0  0  0  0  0  0  0  0  0
    3.3219    0.5100   40.0845 C   0  0  0  0  0  0  0  0  0  0  0  0
  1  2  1  6  0  0  0
  1  7  1  0  0  0  0
  1 24  1  0  0  0  0
  3  4  1  1  0  0  0
  3  9  1  0  0  0  0
  3 31  1  0  0  0  0
  5  6  1  6  0  0  0
  5 10  1  0  0  0  0
  5 28  1  0  0  0  0
  7  8  1  6  0  0  0
  7 12  1  0  0  0  0
  9 14  1  0  0  0  0
 10 11  1  1  0  0  0
 10 16  1  0  0  0  0
 12 13  1  1  0  0  0
 12 18  1  0  0  0  0
 13 35  1  0  0  0  0
 14 15  1  6  0  0  0
 14 20  1  0  0  0  0
 16 17  1  1  0  0  0
 16 21  1  0  0  0  0
 17 35  1  0  0  0  0
 18 19  1  6  0  0  0
 18 23  1  0  0  0  0
 20  2  1  6  0  0  0
 20 25  1  0  0  0  0
 21 22  1  6  0  0  0
 21 27  1  0  0  0  0
 23 24  1  0  0  0  0
 23 29  1  1  0  0  0
 25 26  1  1  0  0  0
 25 31  1  0  0  0  0
 27 28  1  0  0  0  0
 27 33  1  6  0  0  0
 29 30  1  0  0  0  0
 31 32  1  1  0  0  0
 33 34  1  0  0  0  0
M  END
>  <CHROM.1>
-157.22833881,-138.68607625,-87.57913736,-95.78876139,145.56586180,177.49390288
-177.11497822,-176.71649927,2.01147639,-2.28494363,40.61535037,-2.34468082
-0.31624826,-1.48982182

>  <Name>
2o3v_lig

>  <RI>
0

>  <Rbt.Current_Directory>
/home/afrankz/demos/rdock_decoys_rna/rnas/2o3v

>  <Rbt.Executable>
rbdock ($Id: //depot/dev/client3/rdock/2013.1/src/exe/rbdock.cxx#4 $)

>  <Rbt.Library>
libRbt.so (2013.1, Build901 2013/11/27)

>  <Rbt.Parameter_File>
/export/apps/rDock/src/rDock_2013.1_src/data/scripts/dock_solv.prm

>  <Rbt.Receptor>
prm/blind_docking_60.prm

>  <SCORE>
-1.4515

>  <SCORE.INTER>
-7.82874

>  <SCORE.INTER.CONST>
1

>  <SCORE.INTER.POLAR>
-0.390652

>  <SCORE.INTER.ROT>
8

>  <SCORE.INTER.SOLV>
17.3299

>  <SCORE.INTER.VDW>
-18.627

>  <SCORE.INTER.norm>
-0.223678

>  <SCORE.INTRA>
4.86162

>  <SCORE.INTRA.DIHEDRAL>
7.13599

>  <SCORE.INTRA.DIHEDRAL.0>
13.1227

>  <SCORE.INTRA.POLAR>
0

>  <SCORE.INTRA.POLAR.0>
0

>  <SCORE.INTRA.REPUL>
0.468006

>  <SCORE.INTRA.REPUL.0>
0

>  <SCORE.INTRA.SOLV>
3.87098

>  <SCORE.INTRA.SOLV.lig_0>
-89.1587

>  <SCORE.INTRA.VDW>
-2.9819

>  <SCORE.INTRA.VDW.0>
-0.838383

>  <SCORE.INTRA.norm>
0.138903

>  <SCORE.RESTR>
1.51563

>  <SCORE.RESTR.CAVITY>
1.51563

>  <SCORE.RESTR.norm>
0.0433036

>  <SCORE.SYSTEM>
0

>  <SCORE.SYSTEM.CONST>
0

>  <SCORE.SYSTEM.DIHEDRAL>
0

>  <SCORE.SYSTEM.SOLV>
0

>  <SCORE.SYSTEM.norm>
0

>  <SCORE.heavy>
35

>  <SCORE.norm>
-0.0414714

>  <RMSD>
11.912

$$$$
2o3v_lig
 OpenBabel02141814113D
libRbt.so/2013.1/901 2013/11/27
 35 37  0  0  0  0  0  0  0  0999 V2000
   -2.3832   -3.7380   40.8269 C   0  0  2  0  0  0  0  0  0  0  0  0
   -2.3336   -4.8491   41.7733 O   0  0  0  0  0  0  0  0  0  0  0  0
   -3.7967   -5.7844   45.7623 C   0  0  2  0  0  0  0  0  0  0  0  0
   -4.0352   -5.6996   47.2347 N   0  0  0  0  0  0  0  0  0  0  0  0
    3.7107   -1.8502   35.3988 C   0  0  2  0  0  0  0  0  0  0  0  0
    2.5564   -1.0308   35.1125 O   0  0  0  0  0  0  0  0  0  0  0  0
   -0.9685   -3.7716   40.1666 C   0  0  2  0  0  0  0  0  0  0  0  0
   -0.7143   -5.0759   39.5104 N   0  0  0  0  0  0  0  0  0  0  0  0
   -2.2459   -5.9709   45.4697 C   0  0  0  0  0  0  0  0  0  0  0  0
    3.4073   -2.6481   36.7139 C   0  0  2  0  0  0  0  0  0  0  0  0
    2.1763   -3.4657   36.5689 N   0  0  0  0  0  0  0  0  0  0  0  0
    0.1781   -3.4719   41.2272 C   0  0  1  0  0  0  0  0  0  0  0  0
    1.5177   -3.5523   40.5889 O   0  0  0  0  0  0  0  0  0  0  0  0
   -2.0185   -6.0464   43.8978 C   0  0  2  0  0  0  0  0  0  0  0  0
   -0.5786   -6.2086   43.6030 N   0  0  0  0  0  0  0  0  0  0  0  0
    3.2832   -1.6792   37.9712 C   0  0  1  0  0  0  0  0  0  0  0  0
    3.0355   -2.3946   39.2087 O   0  0  0  0  0  0  0  0  0  0  0  0
   -0.1442   -2.0616   41.8912 C   0  0  2  0  0  0  0  0  0  0  0  0
    0.8169   -1.7194   42.8737 O   0  0  0  0  0  0  0  0  0  0  0  0
   -2.5659   -4.7291   43.2092 C   0  0  2  0  0  0  0  0  0  0  0  0
    4.6025   -0.8523   38.0914 C   0  0  2  0  0  0  0  0  0  0  0  0
    4.5454    0.0371   39.1892 O   0  0  0  0  0  0  0  0  0  0  0  0
   -1.5844   -2.0673   42.5310 C   0  0  2  0  0  0  0  0  0  0  0  0
   -2.5857   -2.4283   41.5055 O   0  0  0  0  0  0  0  0  0  0  0  0
   -4.0815   -4.5512   43.5055 C   0  0  2  0  0  0  0  0  0  0  0  0
   -4.5039   -3.3064   42.8784 O   0  0  0  0  0  0  0  0  0  0  0  0
    4.8727   -0.0685   36.7454 C   0  0  2  0  0  0  0  0  0  0  0  0
    4.9217   -1.0101   35.6035 O   0  0  0  0  0  0  0  0  0  0  0  0
   -1.9337   -0.7117   43.1435 C   0  0  0  0  0  0  0  0  0  0  0  0
   -1.8343    0.3166   42.1887 O   0  0  0  0  0  0  0  0  0  0  0  0
   -4.3077   -4.4808   45.0339 C   0  0  1  0  0  0  0  0  0  0  0  0
   -5.6903   -4.3250   45.2756 O   0  0  0  0  0  0  0  0  0  0  0  0
    6.1732    0.7188   36.7996 C   0  0  0  0  0  0  0  0  0  0  0  0
    6.1015    1.8439   35.9576 O   0  0  0  0  0  0  0  0  0  0  0  0
    1.6333   -2.7843   39.2930 C   0  0  0  0  0  0  0  0  0  0  0  0
  1  2  1  1  0  0  0
  1  7  1  0  0  0  0
  1 24  1  0  0  0  0
  3  4  1  1  0  0  0
  3  9  1  0  0  0  0
  3 31  1  0  0  0  0
  5  6  1  1  0  0  0
  5 10  1  0  0  0  0
  5 28  1  0  0  0  0
  7  8  1  1  0  0  0
  7 12  1  0  0  0  0
  9 14  1  0  0  0  0
 10 11  1  6  0  0  0
 10 16  1  0  0  0  0
 12 13  1  6  0  0  0
 12 18  1  0  0  0  0
 13 35  1  0  0  0  0
 14 15  1  1  0  0  0
 14 20  1  0  0  0  0
 16 17  1  1  0  0  0
 16 21  1  0  0  0  0
 17 35  1  0  0  0  0
 18 19  1  1  0  0  0
 18 23  1  0  0  0  0
 20  2  1  6  0  0  0
 20 25  1  0  0  0  0
 21 22  1  1  0  0  0
 21 27  1  0  0  0  0
 23 24  1  0  0  0  0
 23 29  1  6  0  0  0
 25 26  1  6  0  0  0
 25 31  1  0  0  0  0
 27 28  1  0  0  0  0
 27 33  1  1  0  0  0
 29 30  1  0  0  0  0
 31 32  1  6  0  0  0
 33 34  1  0  0  0  0
M  END
>  <CHROM.1>
122.72362299,48.46524733,151.09275087,-78.28887890,178.16142310,-164.06109414
56.75349767,-151.90884875,0.17640238,-2.78353827,40.73338720,-3.08141602
0.82853203,0.39336371

>  <Name>
2o3v_lig

>  <RI>
0

>  <Rbt.Current_Directory>
/home/afrankz/demos/rdock_decoys_rna/rnas/2o3v

>  <Rbt.Executable>
rbdock ($Id: //depot/dev/client3/rdock/2013.1/src/exe/rbdock.cxx#4 $)

>  <Rbt.Library>
libRbt.so (2013.1, Build901 2013/11/27)

>  <Rbt.Parameter_File>
/export/apps/rDock/src/rDock_2013.1_src/data/scripts/dock_solv.prm

>  <Rbt.Receptor>
prm/blind_docking_60.prm

>  <SCORE>
5.10591

>  <SCORE.INTER>
-1.62715

>  <SCORE.INTER.CONST>
1

>  <SCORE.INTER.POLAR>
-0.341395

>  <SCORE.INTER.ROT>
8

>  <SCORE.INTER.SOLV>
19.0715

>  <SCORE.INTER.VDW>
-15.2373

>  <SCORE.INTER.norm>
-0.0464899

>  <SCORE.INTRA>
2.02575

>  <SCORE.INTRA.DIHEDRAL>
3.23116

>  <SCORE.INTRA.DIHEDRAL.0>
13.1227

>  <SCORE.INTRA.POLAR>
0

>  <SCORE.INTRA.POLAR.0>
0

>  <SCORE.INTRA.REPUL>
0

>  <SCORE.INTRA.REPUL.0>
0

>  <SCORE.INTRA.SOLV>
1.58493

>  <SCORE.INTRA.SOLV.lig_0>
-89.1587

>  <SCORE.INTRA.VDW>
-0.382299

>  <SCORE.INTRA.VDW.0>
-0.838383

>  <SCORE.INTRA.norm>
0.0578785

>  <SCORE.RESTR>
4.70732

>  <SCORE.RESTR.CAVITY>
4.70732

>  <SCORE.RESTR.norm>
0.134495

>  <SCORE.SYSTEM>
0

>  <SCORE.SYSTEM.CONST>
0

>  <SCORE.SYSTEM.DIHEDRAL>
0

>  <SCORE.SYSTEM.SOLV>
0

>  <SCORE.SYSTEM.norm>
0

>  <SCORE.heavy>
35

>  <SCORE.norm>
0.145883

>  <RMSD>
12.009

$$$$
2o3v_lig
 OpenBabel02141814113D
libRbt.so/2013.1/901 2013/11/27
 35 37  0  0  0  0  0  0  0  0999 V2000
    0.2301   -2.8527   41.6202 C   0  0  2  0  0  0  0  0  0  0  0  0
    0.2456   -4.2392   42.0785 O   0  0  0  0  0  0  0  0  0  0  0  0
   -2.3452   -5.9445   45.1292 C   0  0  2  0  0  0  0  0  0  0  0  0
   -3.5063   -6.6281   45.7748 N   0  0  0  0  0  0  0  0  0  0  0  0
    5.4034    1.3188   36.4702 C   0  0  2  0  0  0  0  0  0  0  0  0
    6.7044    1.0722   37.0466 O   0  0  0  0  0  0  0  0  0  0  0  0
    1.0244   -2.9145   40.2772 C   0  0  2  0  0  0  0  0  0  0  0  0
    0.3838   -3.8450   39.3181 N   0  0  0  0  0  0  0  0  0  0  0  0
   -2.8319   -4.6290   44.3822 C   0  0  0  0  0  0  0  0  0  0  0  0
    4.3955    0.3210   37.1386 C   0  0  2  0  0  0  0  0  0  0  0  0
    4.3822    0.4859   38.6143 N   0  0  0  0  0  0  0  0  0  0  0  0
    2.5374   -3.3444   40.5130 C   0  0  1  0  0  0  0  0  0  0  0  0
    3.2635   -3.4403   39.2200 O   0  0  0  0  0  0  0  0  0  0  0  0
   -1.5809   -3.9280   43.6951 C   0  0  2  0  0  0  0  0  0  0  0  0
   -2.0142   -2.7062   42.9838 N   0  0  0  0  0  0  0  0  0  0  0  0
    4.7237   -1.1886   36.7535 C   0  0  1  0  0  0  0  0  0  0  0  0
    3.7855   -2.1320   37.3320 O   0  0  0  0  0  0  0  0  0  0  0  0
    3.1719   -2.3089   41.5420 C   0  0  2  0  0  0  0  0  0  0  0  0
    4.5206   -2.6281   41.8337 O   0  0  0  0  0  0  0  0  0  0  0  0
   -0.8918   -4.9291   42.6791 C   0  0  2  0  0  0  0  0  0  0  0  0
    4.7127   -1.3163   35.1971 C   0  0  2  0  0  0  0  0  0  0  0  0
    5.0096   -2.6389   34.7947 O   0  0  0  0  0  0  0  0  0  0  0  0
    2.3318   -2.2675   42.8747 C   0  0  2  0  0  0  0  0  0  0  0  0
    0.9239   -1.9381   42.5682 O   0  0  0  0  0  0  0  0  0  0  0  0
   -0.4246   -6.2152   43.4167 C   0  0  2  0  0  0  0  0  0  0  0  0
    0.1596   -7.1007   42.4188 O   0  0  0  0  0  0  0  0  0  0  0  0
    5.7373   -0.2920   34.5644 C   0  0  2  0  0  0  0  0  0  0  0  0
    5.4203    1.0873   35.0004 O   0  0  0  0  0  0  0  0  0  0  0  0
    2.8988   -1.2527   43.8664 C   0  0  0  0  0  0  0  0  0  0  0  0
    4.2711   -1.4706   44.0857 O   0  0  0  0  0  0  0  0  0  0  0  0
   -1.6380   -6.8984   44.0896 C   0  0  1  0  0  0  0  0  0  0  0  0
   -1.1863   -8.0587   44.7560 O   0  0  0  0  0  0  0  0  0  0  0  0
    5.7299   -0.3493   33.0443 C   0  0  0  0  0  0  0  0  0  0  0  0
    6.4172   -1.4910   32.5926 O   0  0  0  0  0  0  0  0  0  0  0  0
    3.9229   -2.1532   38.7831 C   0  0  0  0  0  0  0  0  0  0  0  0
  1  2  1  1  0  0  0
  1  7  1  0  0  0  0
  1 24  1  0  0  0  0
  3  4  1  6  0  0  0
  3  9  1  0  0  0  0
  3 31  1  0  0  0  0
  5  6  1  1  0  0  0
  5 10  1  0  0  0  0
  5 28  1  0  0  0  0
  7  8  1  6  0  0  0
  7 12  1  0  0  0  0
  9 14  1  0  0  0  0
 10 11  1  1  0  0  0
 10 16  1  0  0  0  0
 12 13  1  6  0  0  0
 12 18  1  0  0  0  0
 13 35  1  0  0  0  0
 14 15  1  6  0  0  0
 14 20  1  0  0  0  0
 16 17  1  1  0  0  0
 16 21  1  0  0  0  0
 17 35  1  0  0  0  0
 18 19  1  1  0  0  0
 18 23  1  0  0  0  0
 20  2  1  1  0  0  0
 20 25  1  0  0  0  0
 21 22  1  1  0  0  0
 21 27  1  0  0  0  0
 23 24  1  0  0  0  0
 23 29  1  1  0  0  0
 25 26  1  6  0  0  0
 25 31  1  0  0  0  0
 27 28  1  0  0  0  0
 27 33  1  6  0  0  0
 29 30  1  0  0  0  0
 31 32  1  1  0  0  0
 33 34  1  0  0  0  0
M  END
>  <CHROM.1>
-138.81400840,89.81678915,-144.02637323,-66.77848005,-162.00615615,-42.56084136
-52.73851504,-75.98137684,2.23237035,-2.76268733,40.14421102,-2.58523582
-0.85307755,-1.92654135

>  <Name>
2o3v_lig

>  <RI>
0

>  <Rbt.Current_Directory>
/home/afrankz/demos/rdock_decoys_rna/rnas/2o3v

>  <Rbt.Executable>
rbdock ($Id: //depot/dev/client3/rdock/2013.1/src/exe/rbdock.cxx#4 $)

>  <Rbt.Library>
libRbt.so (2013.1, Build901 2013/11/27)

>  <Rbt.Parameter_File>
/export/apps/rDock/src/rDock_2013.1_src/data/scripts/dock_solv.prm

>  <Rbt.Receptor>
prm/blind_docking_60.prm

>  <SCORE>
19.038

>  <SCORE.INTER>
9.68338

>  <SCORE.INTER.CONST>
1

>  <SCORE.INTER.POLAR>
-1.59122

>  <SCORE.INTER.ROT>
8

>  <SCORE.INTER.SOLV>
17.149

>  <SCORE.INTER.VDW>
-2.88998

>  <SCORE.INTER.norm>
0.276668

>  <SCORE.INTRA>
6.11406

>  <SCORE.INTRA.DIHEDRAL>
4.91649

>  <SCORE.INTRA.DIHEDRAL.0>
13.1227

>  <SCORE.INTRA.POLAR>
0

>  <SCORE.INTRA.POLAR.0>
0

>  <SCORE.INTRA.REPUL>
0

>  <SCORE.INTRA.REPUL.0>
0

>  <SCORE.INTRA.SOLV>
2.19188

>  <SCORE.INTRA.SOLV.lig_0>
-89.1587

>  <SCORE.INTRA.VDW>
2.55988

>  <SCORE.INTRA.VDW.0>
-0.838383

>  <SCORE.INTRA.norm>
0.174687

>  <SCORE.RESTR>
3.24057

>  <SCORE.RESTR.CAVITY>
3.24057

>  <SCORE.RESTR.norm>
0.0925878

>  <SCORE.SYSTEM>
0

>  <SCORE.SYSTEM.CONST>
0

>  <SCORE.SYSTEM.DIHEDRAL>
0

>  <SCORE.SYSTEM.SOLV>
0

>  <SCORE.SYSTEM.norm>
0

>  <SCORE.heavy>
35

>  <SCORE.norm>
0.543943

>  <RMSD>
12.275

$$$$
2o3v_lig
 OpenBabel02141814113D
libRbt.so/2013.1/901 2013/11/27
 35 37  0  0  0  0  0  0  0  0999 V2000
   -5.0890    8.7603   23.8003 C   0  0  2  0  0  0  0  0  0  0  0  0
   -5.0432    7.6713   24.7723 O   0  0  0  0  0  0  0  0  0  0  0  0
   -7.4530    5.3514   27.5540 C   0  0  2  0  0  0  0  0  0  0  0  0
   -8.6373    4.7157   28.2064 N   0  0  0  0  0  0  0  0  0  0  0  0
   -6.3597    4.6277   17.4524 C   0  0  2  0  0  0  0  0  0  0  0  0
   -6.2071    5.3785   16.2283 O   0  0  0  0  0  0  0  0  0  0  0  0
   -5.3508    8.0198   22.4507 C   0  0  2  0  0  0  0  0  0  0  0  0
   -6.6106    7.2410   22.5024 N   0  0  0  0  0  0  0  0  0  0  0  0
   -7.6040    6.9333   27.5701 C   0  0  0  0  0  0  0  0  0  0  0  0
   -5.4013    5.2640   18.5178 C   0  0  2  0  0  0  0  0  0  0  0  0
   -5.7056    6.7038   18.7155 N   0  0  0  0  0  0  0  0  0  0  0  0
   -4.1419    7.0602   22.0671 C   0  0  1  0  0  0  0  0  0  0  0  0
   -4.4299    6.3324   20.8039 O   0  0  0  0  0  0  0  0  0  0  0  0
   -6.3383    7.5838   26.8607 C   0  0  2  0  0  0  0  0  0  0  0  0
   -6.4645    9.0571   26.8546 N   0  0  0  0  0  0  0  0  0  0  0  0
   -3.8721    5.0713   18.1188 C   0  0  1  0  0  0  0  0  0  0  0  0
   -2.9613    5.6219   19.1047 O   0  0  0  0  0  0  0  0  0  0  0  0
   -2.8233    7.9506   22.0206 C   0  0  2  0  0  0  0  0  0  0  0  0
   -1.6824    7.1716   21.7085 O   0  0  0  0  0  0  0  0  0  0  0  0
   -6.2157    7.0458   25.3759 C   0  0  2  0  0  0  0  0  0  0  0  0
   -3.5964    3.5451   17.9358 C   0  0  2  0  0  0  0  0  0  0  0  0
   -2.2506    3.3132   17.5690 O   0  0  0  0  0  0  0  0  0  0  0  0
   -2.6062    8.6903   23.3951 C   0  0  2  0  0  0  0  0  0  0  0  0
   -3.7992    9.4997   23.7213 O   0  0  0  0  0  0  0  0  0  0  0  0
   -6.0747    5.4978   25.3692 C   0  0  2  0  0  0  0  0  0  0  0  0
   -6.0078    5.0734   23.9776 O   0  0  0  0  0  0  0  0  0  0  0  0
   -4.5851    2.9434   16.8589 C   0  0  2  0  0  0  0  0  0  0  0  0
   -5.9898    3.2005   17.2507 O   0  0  0  0  0  0  0  0  0  0  0  0
   -1.3658    9.5821   23.3648 C   0  0  0  0  0  0  0  0  0  0  0  0
   -0.2681    8.9046   22.8036 O   0  0  0  0  0  0  0  0  0  0  0  0
   -7.3023    4.8609   26.0615 C   0  0  1  0  0  0  0  0  0  0  0  0
   -7.1470    3.4574   26.0470 O   0  0  0  0  0  0  0  0  0  0  0  0
   -4.3831    1.4466   16.6780 C   0  0  0  0  0  0  0  0  0  0  0  0
   -4.8851    0.7455   17.7899 O   0  0  0  0  0  0  0  0  0  0  0  0
   -3.4071    5.2784   20.4495 C   0  0  0  0  0  0  0  0  0  0  0  0
  1  2  1  1  0  0  0
  1  7  1  0  0  0  0
  1 24  1  0  0  0  0
  3  4  1  6  0  0  0
  3  9  1  0  0  0  0
  3 31  1  0  0  0  0
  5  6  1  6  0  0  0
  5 10  1  0  0  0  0
  5 28  1  0  0  0  0
  7  8  1  1  0  0  0
  7 12  1  0  0  0  0
  9 14  1  0  0  0  0
 10 11  1  6  0  0  0
 10 16  1  0  0  0  0
 12 13  1  6  0  0  0
 12 18  1  0  0  0  0
 13 35  1  0  0  0  0
 14 15  1  6  0  0  0
 14 20  1  0  0  0  0
 16 17  1  1  0  0  0
 16 21  1  0  0  0  0
 17 35  1  0  0  0  0
 18 19  1  1  0  0  0
 18 23  1  0  0  0  0
 20  2  1  1  0  0  0
 20 25  1  0  0  0  0
 21 22  1  6  0  0  0
 21 27  1  0  0  0  0
 23 24  1  0  0  0  0
 23 29  1  6  0  0  0
 25 26  1  6  0  0  0
 25 31  1  0  0  0  0
 27 28  1  0  0  0  0
 27 33  1  1  0  0  0
 29 30  1  0  0  0  0
 31 32  1  1  0  0  0
 33 34  1  0  0  0  0
M  END
>  <CHROM.1>
-82.12316649,-173.17929295,-124.83941042,43.27724319,-84.27872096,-104.41108234
-46.28790229,72.91864652,-4.87580388,5.96179771,21.94241336,-1.82269362,-0.76309894
-2.11127022

>  <Name>
2o3v_lig

>  <RI>
0

>  <Rbt.Current_Directory>
/home/afrankz/demos/rdock_decoys_rna/rnas/2o3v

>  <Rbt.Executable>
rbdock ($Id: //depot/dev/client3/rdock/2013.1/src/exe/rbdock.cxx#4 $)

>  <Rbt.Library>
libRbt.so (2013.1, Build901 2013/11/27)

>  <Rbt.Parameter_File>
/export/apps/rDock/src/rDock_2013.1_src/data/scripts/dock_solv.prm

>  <Rbt.Receptor>
prm/blind_docking_80.prm

>  <SCORE>
-8.95616

>  <SCORE.INTER>
-21.2762

>  <SCORE.INTER.CONST>
1

>  <SCORE.INTER.POLAR>
-2.88233

>  <SCORE.INTER.ROT>
8

>  <SCORE.INTER.SOLV>
25.5744

>  <SCORE.INTER.VDW>
-22.0345

>  <SCORE.INTER.norm>
-0.607892

>  <SCORE.INTRA>
8.75936

>  <SCORE.INTRA.DIHEDRAL>
7.52611

>  <SCORE.INTRA.DIHEDRAL.0>
13.1227

>  <SCORE.INTRA.POLAR>
0

>  <SCORE.INTRA.POLAR.0>
0

>  <SCORE.INTRA.REPUL>
0

>  <SCORE.INTRA.REPUL.0>
0

>  <SCORE.INTRA.SOLV>
5.67162

>  <SCORE.INTRA.SOLV.lig_0>
-89.1587

>  <SCORE.INTRA.VDW>
2.16049

>  <SCORE.INTRA.VDW.0>
-0.838383

>  <SCORE.INTRA.norm>
0.250267

>  <SCORE.RESTR>
3.56069

>  <SCORE.RESTR.CAVITY>
3.56069

>  <SCORE.RESTR.norm>
0.101734

>  <SCORE.SYSTEM>
0

>  <SCORE.SYSTEM.CONST>
0

>  <SCORE.SYSTEM.DIHEDRAL>
0

>  <SCORE.SYSTEM.SOLV>
0

>  <SCORE.SYSTEM.norm>
0

>  <SCORE.heavy>
35

>  <SCORE.norm>
-0.25589

>  <RMSD>
28.981

$$$$
2o3v_lig
 OpenBabel02141814113D
libRbt.so/2013.1/901 2013/11/27
 35 37  0  0  0  0  0  0  0  0999 V2000
   -3.0378   -2.4238   15.4917 C   0  0  2  0  0  0  0  0  0  0  0  0
   -4.1215   -1.6274   16.0611 O   0  0  0  0  0  0  0  0  0  0  0  0
   -4.4328    2.6928   16.4688 C   0  0  2  0  0  0  0  0  0  0  0  0
   -4.3042    4.0710   17.0311 N   0  0  0  0  0  0  0  0  0  0  0  0
   -5.8180   -9.6118   19.8361 C   0  0  2  0  0  0  0  0  0  0  0  0
   -4.9094   -8.7924   20.6033 O   0  0  0  0  0  0  0  0  0  0  0  0
   -3.6079   -3.8771   15.5310 C   0  0  2  0  0  0  0  0  0  0  0  0
   -4.8668   -3.9800   14.7557 N   0  0  0  0  0  0  0  0  0  0  0  0
   -5.2982    1.7836   17.4434 C   0  0  0  0  0  0  0  0  0  0  0  0
   -5.7422   -9.1306   18.3458 C   0  0  2  0  0  0  0  0  0  0  0  0
   -4.3534   -9.2182   17.8277 N   0  0  0  0  0  0  0  0  0  0  0  0
   -3.8552   -4.3672   17.0236 C   0  0  1  0  0  0  0  0  0  0  0  0
   -4.4386   -5.7338   17.0376 O   0  0  0  0  0  0  0  0  0  0  0  0
   -5.4098    0.3215   16.8284 C   0  0  2  0  0  0  0  0  0  0  0  0
   -6.2025   -0.5452   17.7267 N   0  0  0  0  0  0  0  0  0  0  0  0
   -6.3024   -7.6495   18.1797 C   0  0  1  0  0  0  0  0  0  0  0  0
   -6.2751   -7.1904   16.8038 O   0  0  0  0  0  0  0  0  0  0  0  0
   -2.4724   -4.2405   17.8018 C   0  0  2  0  0  0  0  0  0  0  0  0
   -2.6015   -4.6345   19.1560 O   0  0  0  0  0  0  0  0  0  0  0  0
   -3.9629   -0.2907   16.6253 C   0  0  2  0  0  0  0  0  0  0  0  0
   -7.7658   -7.6096   18.7234 C   0  0  2  0  0  0  0  0  0  0  0  0
   -8.3134   -6.3107   18.6107 O   0  0  0  0  0  0  0  0  0  0  0  0
   -1.9267   -2.7641   17.7240 C   0  0  2  0  0  0  0  0  0  0  0  0
   -1.7962   -2.3530   16.3103 O   0  0  0  0  0  0  0  0  0  0  0  0
   -3.1216    0.6078   15.6761 C   0  0  2  0  0  0  0  0  0  0  0  0
   -1.7989    0.0079   15.5686 O   0  0  0  0  0  0  0  0  0  0  0  0
   -7.7977   -8.1057   20.2240 C   0  0  2  0  0  0  0  0  0  0  0  0
   -7.2141   -9.4627   20.3290 O   0  0  0  0  0  0  0  0  0  0  0  0
   -0.5802   -2.6235   18.4323 C   0  0  0  0  0  0  0  0  0  0  0  0
    0.4681   -3.1084   17.6292 O   0  0  0  0  0  0  0  0  0  0  0  0
   -3.0134    2.0323   16.2688 C   0  0  1  0  0  0  0  0  0  0  0  0
   -2.2506    2.8282   15.3864 O   0  0  0  0  0  0  0  0  0  0  0  0
   -9.2119   -8.1257   20.7842 C   0  0  0  0  0  0  0  0  0  0  0  0
   -9.1902   -8.4091   22.1623 O   0  0  0  0  0  0  0  0  0  0  0  0
   -5.9214   -5.7771   16.7514 C   0  0  0  0  0  0  0  0  0  0  0  0
  1  2  1  1  0  0  0
  1  7  1  0  0  0  0
  1 24  1  0  0  0  0
  3  4  1  1  0  0  0
  3  9  1  0  0  0  0
  3 31  1  0  0  0  0
  5  6  1  1  0  0  0
  5 10  1  0  0  0  0
  5 28  1  0  0  0  0
  7  8  1  6  0  0  0
  7 12  1  0  0  0  0
  9 14  1  0  0  0  0
 10 11  1  1  0  0  0
 10 16  1  0  0  0  0
 12 13  1  6  0  0  0
 12 18  1  0  0  0  0
 13 35  1  0  0  0  0
 14 15  1  1  0  0  0
 14 20  1  0  0  0  0
 16 17  1  6  0  0  0
 16 21  1  0  0  0  0
 17 35  1  0  0  0  0
 18 19  1  1  0  0  0
 18 23  1  0  0  0  0
 20  2  1  6  0  0  0
 20 25  1  0  0  0  0
 21 22  1  1  0  0  0
 21 27  1  0  0  0  0
 23 24  1  0  0  0  0
 23 29  1  6  0  0  0
 25 26  1  1  0  0  0
 25 31  1  0  0  0  0
 27 28  1  0  0  0  0
 27 33  1  6  0  0  0
 29 30  1  0  0  0  0
 31 32  1  6  0  0  0
 33 34  1  0  0  0  0
M  END
>  <CHROM.1>
160.17188418,-79.11557030,179.56704113,-142.49890364,74.53842325,167.75481646
78.72835749,-172.67922496,-4.60307087,-3.85907247,17.65686010,-1.18538094
-0.28720588,2.92201048

>  <Name>
2o3v_lig

>  <RI>
0

>  <Rbt.Current_Directory>
/home/afrankz/demos/rdock_decoys_rna/rnas/2o3v

>  <Rbt.Executable>
rbdock ($Id: //depot/dev/client3/rdock/2013.1/src/exe/rbdock.cxx#4 $)

>  <Rbt.Library>
libRbt.so (2013.1, Build901 2013/11/27)

>  <Rbt.Parameter_File>
/export/apps/rDock/src/rDock_2013.1_src/data/scripts/dock_solv.prm

>  <Rbt.Receptor>
prm/blind_docking_60.prm

>  <SCORE>
-5.43548

>  <SCORE.INTER>
-8.74008

>  <SCORE.INTER.CONST>
1

>  <SCORE.INTER.POLAR>
-1.07988

>  <SCORE.INTER.ROT>
8

>  <SCORE.INTER.SOLV>
19.7572

>  <SCORE.INTER.VDW>
-17.7462

>  <SCORE.INTER.norm>
-0.249716

>  <SCORE.INTRA>
-1.48965

>  <SCORE.INTRA.DIHEDRAL>
-1.59778

>  <SCORE.INTRA.DIHEDRAL.0>
13.1227

>  <SCORE.INTRA.POLAR>
0

>  <SCORE.INTRA.POLAR.0>
0

>  <SCORE.INTRA.REPUL>
0

>  <SCORE.INTRA.REPUL.0>
0

>  <SCORE.INTRA.SOLV>
0.178275

>  <SCORE.INTRA.SOLV.lig_0>
-89.1587

>  <SCORE.INTRA.VDW>
-0.779897

>  <SCORE.INTRA.VDW.0>
-0.838383

>  <SCORE.INTRA.norm>
-0.0425613

>  <SCORE.RESTR>
4.79424

>  <SCORE.RESTR.CAVITY>
4.79424

>  <SCORE.RESTR.norm>
0.136978

>  <SCORE.SYSTEM>
0

>  <SCORE.SYSTEM.CONST>
0

>  <SCORE.SYSTEM.DIHEDRAL>
0

>  <SCORE.SYSTEM.SOLV>
0

>  <SCORE.SYSTEM.norm>
0

>  <SCORE.heavy>
35

>  <SCORE.norm>
-0.1553

>  <RMSD>
29.267

$$$$
2o3v_lig
 OpenBabel02141814113D
libRbt.so/2013.1/901 2013/11/27
 35 37  0  0  0  0  0  0  0  0999 V2000
   -5.7234   -7.2104   20.3782 C   0  0  2  0  0  0  0  0  0  0  0  0
   -6.6113   -6.5643   19.4155 O   0  0  0  0  0  0  0  0  0  0  0  0
  -10.3850   -4.4618   18.8997 C   0  0  2  0  0  0  0  0  0  0  0  0
  -11.7097   -3.8425   19.2059 N   0  0  0  0  0  0  0  0  0  0  0  0
   -5.1688   -4.1715   16.5339 C   0  0  2  0  0  0  0  0  0  0  0  0
   -5.7318   -4.6961   17.7560 O   0  0  0  0  0  0  0  0  0  0  0  0
   -4.4023   -7.4028   19.5682 C   0  0  2  0  0  0  0  0  0  0  0  0
   -3.8778   -6.1047   19.0824 N   0  0  0  0  0  0  0  0  0  0  0  0
  -10.4307   -6.0229   19.1933 C   0  0  0  0  0  0  0  0  0  0  0  0
   -4.6572   -5.3900   15.6901 C   0  0  2  0  0  0  0  0  0  0  0  0
   -5.7572   -6.3501   15.4198 N   0  0  0  0  0  0  0  0  0  0  0  0
   -4.6094   -8.3916   18.3398 C   0  0  1  0  0  0  0  0  0  0  0  0
   -3.3535   -8.5263   17.5569 O   0  0  0  0  0  0  0  0  0  0  0  0
   -9.0075   -6.6547   18.8710 C   0  0  2  0  0  0  0  0  0  0  0  0
   -9.0249   -8.1069   19.1488 N   0  0  0  0  0  0  0  0  0  0  0  0
   -3.4415   -6.1283   16.4054 C   0  0  1  0  0  0  0  0  0  0  0  0
   -2.9260   -7.2407   15.6299 O   0  0  0  0  0  0  0  0  0  0  0  0
   -5.1651   -9.7648   18.9222 C   0  0  2  0  0  0  0  0  0  0  0  0
   -5.4049  -10.7060   17.8914 O   0  0  0  0  0  0  0  0  0  0  0  0
   -7.8927   -5.9500   19.7484 C   0  0  2  0  0  0  0  0  0  0  0  0
   -2.3067   -5.0852   16.6560 C   0  0  2  0  0  0  0  0  0  0  0  0
   -1.2005   -5.6845   17.3015 O   0  0  0  0  0  0  0  0  0  0  0  0
   -6.4881   -9.5225   19.7437 C   0  0  2  0  0  0  0  0  0  0  0  0
   -6.2373   -8.5373   20.8165 O   0  0  0  0  0  0  0  0  0  0  0  0
   -7.8592   -4.4230   19.4596 C   0  0  2  0  0  0  0  0  0  0  0  0
   -6.8446   -3.8389   20.3259 O   0  0  0  0  0  0  0  0  0  0  0  0
   -2.8651   -3.8737   17.5045 C   0  0  2  0  0  0  0  0  0  0  0  0
   -4.0276   -3.2611   16.8219 O   0  0  0  0  0  0  0  0  0  0  0  0
   -7.0228  -10.8212   20.3456 C   0  0  0  0  0  0  0  0  0  0  0  0
   -8.2758  -10.6203   20.9527 O   0  0  0  0  0  0  0  0  0  0  0  0
   -9.2428   -3.8049   19.7685 C   0  0  1  0  0  0  0  0  0  0  0  0
   -9.1871   -2.4210   19.4931 O   0  0  0  0  0  0  0  0  0  0  0  0
   -1.8043   -2.8086   17.7371 C   0  0  0  0  0  0  0  0  0  0  0  0
   -1.2747   -2.3668   16.5106 O   0  0  0  0  0  0  0  0  0  0  0  0
   -3.5499   -8.4863   16.0596 C   0  0  0  0  0  0  0  0  0  0  0  0
  1  2  1  6  0  0  0
  1  7  1  0  0  0  0
  1 24  1  0  0  0  0
  3  4  1  1  0  0  0
  3  9  1  0  0  0  0
  3 31  1  0  0  0  0
  5  6  1  1  0  0  0
  5 10  1  0  0  0  0
  5 28  1  0  0  0  0
  7  8  1  6  0  0  0
  7 12  1  0  0  0  0
  9 14  1  0  0  0  0
 10 11  1  1  0  0  0
 10 16  1  0  0  0  0
 12 13  1  1  0  0  0
 12 18  1  0  0  0  0
 13 35  1  0  0  0  0
 14 15  1  1  0  0  0
 14 20  1  0  0  0  0
 16 17  1  6  0  0  0
 16 21  1  0  0  0  0
 17 35  1  0  0  0  0
 18 19  1  6  0  0  0
 18 23  1  0  0  0  0
 20  2  1  6  0  0  0
 20 25  1  0  0  0  0
 21 22  1  1  0  0  0
 21 27  1  0  0  0  0
 23 24  1  0  0  0  0
 23 29  1  1  0  0  0
 25 26  1  1  0  0  0
 25 31  1  0  0  0  0
 27 28  1  0  0  0  0
 27 33  1  6  0  0  0
 29 30  1  0  0  0  0
 31 32  1  6  0  0  0
 33 34  1  0  0  0  0
M  END
>  <CHROM.1>
-168.25312292,-136.71324370,112.23269931,-94.52230175,-52.41552181,-122.69395196
-173.62917662,55.70492935,-5.77468942,-6.26477269,18.37396492,-2.83593179
0.39563046,-0.18115899

>  <Name>
2o3v_lig

>  <RI>
0

>  <Rbt.Current_Directory>
/home/afrankz/demos/rdock_decoys_rna/rnas/2o3v

>  <Rbt.Executable>
rbdock ($Id: //depot/dev/client3/rdock/2013.1/src/exe/rbdock.cxx#4 $)

>  <Rbt.Library>
libRbt.so (2013.1, Build901 2013/11/27)

>  <Rbt.Parameter_File>
/export/apps/rDock/src/rDock_2013.1_src/data/scripts/dock_solv.prm

>  <Rbt.Receptor>
prm/blind_docking_100.prm

>  <SCORE>
9.39405

>  <SCORE.INTER>
-6.34933

>  <SCORE.INTER.CONST>
1

>  <SCORE.INTER.POLAR>
-1.72888

>  <SCORE.INTER.ROT>
8

>  <SCORE.INTER.SOLV>
12.3948

>  <SCORE.INTER.VDW>
-11.5349

>  <SCORE.INTER.norm>
-0.181409

>  <SCORE.INTRA>
11.0974

>  <SCORE.INTRA.DIHEDRAL>
12.4813

>  <SCORE.INTRA.DIHEDRAL.0>
13.1227

>  <SCORE.INTRA.POLAR>
0

>  <SCORE.INTRA.POLAR.0>
0

>  <SCORE.INTRA.REPUL>
0.513993

>  <SCORE.INTRA.REPUL.0>
0

>  <SCORE.INTRA.SOLV>
12.0313

>  <SCORE.INTRA.SOLV.lig_0>
-89.1587

>  <SCORE.INTRA.VDW>
-3.72879

>  <SCORE.INTRA.VDW.0>
-0.838383

>  <SCORE.INTRA.norm>
0.31707

>  <SCORE.RESTR>
4.64593

>  <SCORE.RESTR.CAVITY>
4.64593

>  <SCORE.RESTR.norm>
0.132741

>  <SCORE.SYSTEM>
0

>  <SCORE.SYSTEM.CONST>
0

>  <SCORE.SYSTEM.DIHEDRAL>
0

>  <SCORE.SYSTEM.SOLV>
0

>  <SCORE.SYSTEM.norm>
0

>  <SCORE.heavy>
35

>  <SCORE.norm>
0.268401

>  <RMSD>
29.311

$$$$
2o3v_lig
 OpenBabel02141814113D
libRbt.so/2013.1/901 2013/11/27
 35 37  0  0  0  0  0  0  0  0999 V2000
   -3.8604   -4.9516   16.2906 C   0  0  2  0  0  0  0  0  0  0  0  0
   -4.5337   -3.7517   16.7801 O   0  0  0  0  0  0  0  0  0  0  0  0
   -2.9407    0.2861   17.0732 C   0  0  2  0  0  0  0  0  0  0  0  0
   -2.5509    1.6806   16.7047 N   0  0  0  0  0  0  0  0  0  0  0  0
  -11.0769   -7.8707   19.6594 C   0  0  2  0  0  0  0  0  0  0  0  0
   -9.9238   -7.7367   20.5184 O   0  0  0  0  0  0  0  0  0  0  0  0
   -4.9578   -5.6443   15.4222 C   0  0  2  0  0  0  0  0  0  0  0  0
   -5.4165   -4.7551   14.3289 N   0  0  0  0  0  0  0  0  0  0  0  0
   -2.1738   -0.7572   16.1520 C   0  0  0  0  0  0  0  0  0  0  0  0
  -10.5577   -7.9379   18.1814 C   0  0  2  0  0  0  0  0  0  0  0  0
   -9.6057   -9.0632   18.0018 N   0  0  0  0  0  0  0  0  0  0  0  0
   -6.2018   -6.0958   16.3044 C   0  0  1  0  0  0  0  0  0  0  0  0
   -7.2528   -6.7120   15.4534 O   0  0  0  0  0  0  0  0  0  0  0  0
   -2.6147   -2.2305   16.5563 C   0  0  2  0  0  0  0  0  0  0  0  0
   -1.9204   -3.2178   15.7021 N   0  0  0  0  0  0  0  0  0  0  0  0
   -9.8839   -6.5663   17.7347 C   0  0  1  0  0  0  0  0  0  0  0  0
   -9.4239   -6.5890   16.3590 O   0  0  0  0  0  0  0  0  0  0  0  0
   -5.6500   -7.0500   17.4527 C   0  0  2  0  0  0  0  0  0  0  0  0
   -6.6903   -7.4855   18.3094 O   0  0  0  0  0  0  0  0  0  0  0  0
   -4.1830   -2.3874   16.3981 C   0  0  2  0  0  0  0  0  0  0  0  0
  -10.9240   -5.4175   17.9274 C   0  0  2  0  0  0  0  0  0  0  0  0
  -10.3751   -4.1687   17.5551 O   0  0  0  0  0  0  0  0  0  0  0  0
   -4.5361   -6.3176   18.2933 C   0  0  2  0  0  0  0  0  0  0  0  0
   -3.4532   -5.8604   17.3974 O   0  0  0  0  0  0  0  0  0  0  0  0
   -4.9249   -1.3593   17.2976 C   0  0  2  0  0  0  0  0  0  0  0  0
   -6.3529   -1.5343   17.0710 O   0  0  0  0  0  0  0  0  0  0  0  0
  -11.4239   -5.3881   19.4269 C   0  0  2  0  0  0  0  0  0  0  0  0
  -11.9881   -6.7036   19.8062 O   0  0  0  0  0  0  0  0  0  0  0  0
   -3.9627   -7.2258   19.3801 C   0  0  0  0  0  0  0  0  0  0  0  0
   -4.9536   -7.5933   20.3085 O   0  0  0  0  0  0  0  0  0  0  0  0
   -4.4963    0.0753   16.9100 C   0  0  1  0  0  0  0  0  0  0  0  0
   -5.1789    0.9877   17.7440 O   0  0  0  0  0  0  0  0  0  0  0  0
  -12.4735   -4.3106   19.6531 C   0  0  0  0  0  0  0  0  0  0  0  0
  -13.5774   -4.5145   18.8046 O   0  0  0  0  0  0  0  0  0  0  0  0
   -8.2908   -7.4959   16.2217 C   0  0  0  0  0  0  0  0  0  0  0  0
  1  2  1  1  0  0  0
  1  7  1  0  0  0  0
  1 24  1  0  0  0  0
  3  4  1  6  0  0  0
  3  9  1  0  0  0  0
  3 31  1  0  0  0  0
  5  6  1  1  0  0  0
  5 10  1  0  0  0  0
  5 28  1  0  0  0  0
  7  8  1  6  0  0  0
  7 12  1  0  0  0  0
  9 14  1  0  0  0  0
 10 11  1  1  0  0  0
 10 16  1  0  0  0  0
 12 13  1  6  0  0  0
 12 18  1  0  0  0  0
 13 35  1  0  0  0  0
 14 15  1  6  0  0  0
 14 20  1  0  0  0  0
 16 17  1  6  0  0  0
 16 21  1  0  0  0  0
 17 35  1  0  0  0  0
 18 19  1  1  0  0  0
 18 23  1  0  0  0  0
 20  2  1  1  0  0  0
 20 25  1  0  0  0  0
 21 22  1  1  0  0  0
 21 27  1  0  0  0  0
 23 24  1  0  0  0  0
 23 29  1  1  0  0  0
 25 26  1  6  0  0  0
 25 31  1  0  0  0  0
 27 28  1  0  0  0  0
 27 33  1  6  0  0  0
 29 30  1  0  0  0  0
 31 32  1  1  0  0  0
 33 34  1  0  0  0  0
M  END
>  <CHROM.1>
-112.68768089,164.42869759,98.58890112,-68.71282647,-131.66062581,-48.87454858
-62.52943143,58.33584925,-6.86500091,-4.75689455,17.54660205,-0.61314068
-0.23621557,3.08082413

>  <Name>
2o3v_lig

>  <RI>
0

>  <Rbt.Current_Directory>
/home/afrankz/demos/rdock_decoys_rna/rnas/2o3v

>  <Rbt.Executable>
rbdock ($Id: //depot/dev/client3/rdock/2013.1/src/exe/rbdock.cxx#4 $)

>  <Rbt.Library>
libRbt.so (2013.1, Build901 2013/11/27)

>  <Rbt.Parameter_File>
/export/apps/rDock/src/rDock_2013.1_src/data/scripts/dock_solv.prm

>  <Rbt.Receptor>
prm/blind_docking_100.prm

>  <SCORE>
10.6272

>  <SCORE.INTER>
-1.95484

>  <SCORE.INTER.CONST>
1

>  <SCORE.INTER.POLAR>
-1.1454

>  <SCORE.INTER.ROT>
8

>  <SCORE.INTER.SOLV>
15.3517

>  <SCORE.INTER.VDW>
-11.5358

>  <SCORE.INTER.norm>
-0.0558525

>  <SCORE.INTRA>
7.74821

>  <SCORE.INTRA.DIHEDRAL>
7.67387

>  <SCORE.INTRA.DIHEDRAL.0>
13.1227

>  <SCORE.INTRA.POLAR>
0

>  <SCORE.INTRA.POLAR.0>
0

>  <SCORE.INTRA.REPUL>
0

>  <SCORE.INTRA.REPUL.0>
0

>  <SCORE.INTRA.SOLV>
3.32388

>  <SCORE.INTRA.SOLV.lig_0>
-89.1587

>  <SCORE.INTRA.VDW>
2.24934

>  <SCORE.INTRA.VDW.0>
-0.838383

>  <SCORE.INTRA.norm>
0.221378

>  <SCORE.RESTR>
4.83384

>  <SCORE.RESTR.CAVITY>
4.83384

>  <SCORE.RESTR.norm>
0.13811

>  <SCORE.SYSTEM>
0

>  <SCORE.SYSTEM.CONST>
0

>  <SCORE.SYSTEM.DIHEDRAL>
0

>  <SCORE.SYSTEM.SOLV>
0

>  <SCORE.SYSTEM.norm>
0

>  <SCORE.heavy>
35

>  <SCORE.norm>
0.303635

>  <RMSD>
29.454

$$$$
2o3v_lig
 OpenBabel02141814113D
libRbt.so/2013.1/901 2013/11/27
 35 37  0  0  0  0  0  0  0  0999 V2000
   -2.1114   -3.5225   16.4348 C   0  0  2  0  0  0  0  0  0  0  0  0
   -1.3979   -3.0006   17.5972 O   0  0  0  0  0  0  0  0  0  0  0  0
    2.3717   -4.4782   19.1892 C   0  0  2  0  0  0  0  0  0  0  0  0
    3.8383   -4.6460   19.4197 N   0  0  0  0  0  0  0  0  0  0  0  0
   -3.0221    4.1473   16.5661 C   0  0  2  0  0  0  0  0  0  0  0  0
   -3.5581    4.8825   15.4446 O   0  0  0  0  0  0  0  0  0  0  0  0
   -3.1648   -2.4091   16.1363 C   0  0  2  0  0  0  0  0  0  0  0  0
   -2.5080   -1.1071   15.8719 N   0  0  0  0  0  0  0  0  0  0  0  0
    2.0145   -4.8115   17.6770 C   0  0  0  0  0  0  0  0  0  0  0  0
   -3.4478    2.6482   16.3931 C   0  0  2  0  0  0  0  0  0  0  0  0
   -2.9653    2.1035   15.0987 N   0  0  0  0  0  0  0  0  0  0  0  0
   -4.2040   -2.2533   17.3302 C   0  0  1  0  0  0  0  0  0  0  0  0
   -5.1696   -1.1600   17.0463 O   0  0  0  0  0  0  0  0  0  0  0  0
    0.4522   -4.6141   17.4559 C   0  0  2  0  0  0  0  0  0  0  0  0
    0.0999   -4.9084   16.0503 N   0  0  0  0  0  0  0  0  0  0  0  0
   -5.0251    2.4696   16.5152 C   0  0  1  0  0  0  0  0  0  0  0  0
   -5.4444    1.0862   16.3922 O   0  0  0  0  0  0  0  0  0  0  0  0
   -4.8794   -3.6759   17.5624 C   0  0  2  0  0  0  0  0  0  0  0  0
   -5.8086   -3.6405   18.6306 O   0  0  0  0  0  0  0  0  0  0  0  0
    0.0394   -3.1280   17.8166 C   0  0  2  0  0  0  0  0  0  0  0  0
   -5.4832    3.0422   17.8939 C   0  0  2  0  0  0  0  0  0  0  0  0
   -6.8828    2.9198   18.0542 O   0  0  0  0  0  0  0  0  0  0  0  0
   -3.7812   -4.7705   17.8446 C   0  0  2  0  0  0  0  0  0  0  0  0
   -2.8102   -4.8034   16.7309 O   0  0  0  0  0  0  0  0  0  0  0  0
    0.3979   -2.8085   19.2950 C   0  0  2  0  0  0  0  0  0  0  0  0
    0.0288   -1.4214   19.5419 O   0  0  0  0  0  0  0  0  0  0  0  0
   -5.0310    4.5510   18.0288 C   0  0  2  0  0  0  0  0  0  0  0  0
   -3.5654    4.6659   17.8506 O   0  0  0  0  0  0  0  0  0  0  0  0
   -4.4012   -6.1541   18.0345 C   0  0  0  0  0  0  0  0  0  0  0  0
   -5.2827   -6.1684   19.1307 O   0  0  0  0  0  0  0  0  0  0  0  0
    1.9163   -3.0026   19.5155 C   0  0  1  0  0  0  0  0  0  0  0  0
    2.2141   -2.7121   20.8649 O   0  0  0  0  0  0  0  0  0  0  0  0
   -5.4178    5.1400   19.3770 C   0  0  0  0  0  0  0  0  0  0  0  0
   -4.9263    6.4528   19.4985 O   0  0  0  0  0  0  0  0  0  0  0  0
   -4.5995    0.2289   17.2146 C   0  0  0  0  0  0  0  0  0  0  0  0
  1  2  1  1  0  0  0
  1  7  1  0  0  0  0
  1 24  1  0  0  0  0
  3  4  1  6  0  0  0
  3  9  1  0  0  0  0
  3 31  1  0  0  0  0
  5  6  1  6  0  0  0
  5 10  1  0  0  0  0
  5 28  1  0  0  0  0
  7  8  1  1  0  0  0
  7 12  1  0  0  0  0
  9 14  1  0  0  0  0
 10 11  1  6  0  0  0
 10 16  1  0  0  0  0
 12 13  1  6  0  0  0
 12 18  1  0  0  0  0
 13 35  1  0  0  0  0
 14 15  1  6  0  0  0
 14 20  1  0  0  0  0
 16 17  1  1  0  0  0
 16 21  1  0  0  0  0
 17 35  1  0  0  0  0
 18 19  1  1  0  0  0
 18 23  1  0  0  0  0
 20  2  1  1  0  0  0
 20 25  1  0  0  0  0
 21 22  1  6  0  0  0
 21 27  1  0  0  0  0
 23 24  1  0  0  0  0
 23 29  1  6  0  0  0
 25 26  1  6  0  0  0
 25 31  1  0  0  0  0
 27 28  1  0  0  0  0
 27 33  1  1  0  0  0
 29 30  1  0  0  0  0
 31 32  1  1  0  0  0
 33 34  1  0  0  0  0
M  END
>  <CHROM.1>
-141.44829999,-75.22076792,156.97623767,46.23901154,177.68627745,-44.06940824
-60.83033465,176.19988458,-2.66798689,-0.95423367,17.72066519,1.04643231
0.19834653,-3.12869342

>  <Name>
2o3v_lig

>  <RI>
0

>  <Rbt.Current_Directory>
/home/afrankz/demos/rdock_decoys_rna/rnas/2o3v

>  <Rbt.Executable>
rbdock ($Id: //depot/dev/client3/rdock/2013.1/src/exe/rbdock.cxx#4 $)

>  <Rbt.Library>
libRbt.so (2013.1, Build901 2013/11/27)

>  <Rbt.Parameter_File>
/export/apps/rDock/src/rDock_2013.1_src/data/scripts/dock_solv.prm

>  <Rbt.Receptor>
prm/blind_docking_100.prm

>  <SCORE>
-1.23179

>  <SCORE.INTER>
-7.71478

>  <SCORE.INTER.CONST>
1

>  <SCORE.INTER.POLAR>
-1.75328

>  <SCORE.INTER.ROT>
8

>  <SCORE.INTER.SOLV>
26.6891

>  <SCORE.INTER.VDW>
-17.1286

>  <SCORE.INTER.norm>
-0.220422

>  <SCORE.INTRA>
2.68747

>  <SCORE.INTRA.DIHEDRAL>
-2.38675

>  <SCORE.INTRA.DIHEDRAL.0>
13.1227

>  <SCORE.INTRA.POLAR>
0

>  <SCORE.INTRA.POLAR.0>
0

>  <SCORE.INTRA.REPUL>
0

>  <SCORE.INTRA.REPUL.0>
0

>  <SCORE.INTRA.SOLV>
3.88353

>  <SCORE.INTRA.SOLV.lig_0>
-89.1587

>  <SCORE.INTRA.VDW>
1.93908

>  <SCORE.INTRA.VDW.0>
-0.838383

>  <SCORE.INTRA.norm>
0.0767848

>  <SCORE.RESTR>
3.79552

>  <SCORE.RESTR.CAVITY>
3.79552

>  <SCORE.RESTR.norm>
0.108443

>  <SCORE.SYSTEM>
0

>  <SCORE.SYSTEM.CONST>
0

>  <SCORE.SYSTEM.DIHEDRAL>
0

>  <SCORE.SYSTEM.SOLV>
0

>  <SCORE.SYSTEM.norm>
0

>  <SCORE.heavy>
35

>  <SCORE.norm>
-0.035194

>  <RMSD>
29.566

$$$$
2o3v_lig
 OpenBabel02141814113D
libRbt.so/2013.1/901 2013/11/27
 35 37  0  0  0  0  0  0  0  0999 V2000
   -5.5276    8.1465   22.8520 C   0  0  2  0  0  0  0  0  0  0  0  0
   -5.7335    7.2122   23.9554 O   0  0  0  0  0  0  0  0  0  0  0  0
   -6.1287    9.0099   27.8974 C   0  0  2  0  0  0  0  0  0  0  0  0
   -5.8868    9.3196   29.3388 N   0  0  0  0  0  0  0  0  0  0  0  0
   -2.9993    3.7257   15.4253 C   0  0  2  0  0  0  0  0  0  0  0  0
   -2.0077    2.7042   15.6680 O   0  0  0  0  0  0  0  0  0  0  0  0
   -6.1362    7.3900   21.6290 C   0  0  2  0  0  0  0  0  0  0  0  0
   -7.5658    7.0707   21.8538 N   0  0  0  0  0  0  0  0  0  0  0  0
   -6.5302    7.4818   27.7267 C   0  0  0  0  0  0  0  0  0  0  0  0
   -3.2342    4.4846   16.7770 C   0  0  2  0  0  0  0  0  0  0  0  0
   -1.9663    5.0617   17.2912 N   0  0  0  0  0  0  0  0  0  0  0  0
   -5.3322    6.0557   21.3086 C   0  0  1  0  0  0  0  0  0  0  0  0
   -5.9533    5.3289   20.1709 O   0  0  0  0  0  0  0  0  0  0  0  0
   -6.7703    7.1762   26.1848 C   0  0  2  0  0  0  0  0  0  0  0  0
   -7.1341    5.7546   26.0024 N   0  0  0  0  0  0  0  0  0  0  0  0
   -3.8958    3.5378   17.8727 C   0  0  1  0  0  0  0  0  0  0  0  0
   -4.1553    4.2240   19.1243 O   0  0  0  0  0  0  0  0  0  0  0  0
   -3.8115    6.4615   21.0709 C   0  0  2  0  0  0  0  0  0  0  0  0
   -3.0081    5.3267   20.8012 O   0  0  0  0  0  0  0  0  0  0  0  0
   -5.4607    7.5091   25.3581 C   0  0  2  0  0  0  0  0  0  0  0  0
   -5.2293    2.9672   17.2942 C   0  0  2  0  0  0  0  0  0  0  0  0
   -5.8585    2.1071   18.2237 O   0  0  0  0  0  0  0  0  0  0  0  0
   -3.2430    7.2344   22.3212 C   0  0  2  0  0  0  0  0  0  0  0  0
   -4.0846    8.4161   22.6038 O   0  0  0  0  0  0  0  0  0  0  0  0
   -5.0718    9.0036   25.5356 C   0  0  2  0  0  0  0  0  0  0  0  0
   -3.8440    9.2255   24.7844 O   0  0  0  0  0  0  0  0  0  0  0  0
   -4.9486    2.2154   15.9321 C   0  0  2  0  0  0  0  0  0  0  0  0
   -4.2824    3.1243   14.9714 O   0  0  0  0  0  0  0  0  0  0  0  0
   -1.7941    7.6685   22.1037 C   0  0  0  0  0  0  0  0  0  0  0  0
   -1.7112    8.6965   21.1471 O   0  0  0  0  0  0  0  0  0  0  0  0
   -4.8407    9.3062   27.0346 C   0  0  1  0  0  0  0  0  0  0  0  0
   -4.4949   10.6688   27.1687 O   0  0  0  0  0  0  0  0  0  0  0  0
   -6.2275    1.6787   15.3073 C   0  0  0  0  0  0  0  0  0  0  0  0
   -7.3406    2.4092   15.7626 O   0  0  0  0  0  0  0  0  0  0  0  0
   -5.1108    5.3054   18.9171 C   0  0  0  0  0  0  0  0  0  0  0  0
  1  2  1  1  0  0  0
  1  7  1  0  0  0  0
  1 24  1  0  0  0  0
  3  4  1  1  0  0  0
  3  9  1  0  0  0  0
  3 31  1  0  0  0  0
  5  6  1  1  0  0  0
  5 10  1  0  0  0  0
  5 28  1  0  0  0  0
  7  8  1  1  0  0  0
  7 12  1  0  0  0  0
  9 14  1  0  0  0  0
 10 11  1  1  0  0  0
 10 16  1  0  0  0  0
 12 13  1  6  0  0  0
 12 18  1  0  0  0  0
 13 35  1  0  0  0  0
 14 15  1  1  0  0  0
 14 20  1  0  0  0  0
 16 17  1  1  0  0  0
 16 21  1  0  0  0  0
 17 35  1  0  0  0  0
 18 19  1  1  0  0  0
 18 23  1  0  0  0  0
 20  2  1  6  0  0  0
 20 25  1  0  0  0  0
 21 22  1  1  0  0  0
 21 27  1  0  0  0  0
 23 24  1  0  0  0  0
 23 29  1  6  0  0  0
 25 26  1  6  0  0  0
 25 31  1  0  0  0  0
 27 28  1  0  0  0  0
 27 33  1  6  0  0  0
 29 30  1  0  0  0  0
 31 32  1  6  0  0  0
 33 34  1  0  0  0  0
M  END
>  <CHROM.1>
-173.23410545,111.83759146,81.76509928,62.45407495,144.03369313,127.07417912
70.28352035,23.74301547,-4.75924068,6.06574260,21.29903895,-1.66630987,-0.49434170
-2.12343777

>  <Name>
2o3v_lig

>  <RI>
0

>  <Rbt.Current_Directory>
/home/afrankz/demos/rdock_decoys_rna/rnas/2o3v

>  <Rbt.Executable>
rbdock ($Id: //depot/dev/client3/rdock/2013.1/src/exe/rbdock.cxx#4 $)

>  <Rbt.Library>
libRbt.so (2013.1, Build901 2013/11/27)

>  <Rbt.Parameter_File>
/export/apps/rDock/src/rDock_2013.1_src/data/scripts/dock_solv.prm

>  <Rbt.Receptor>
prm/blind_docking_80.prm

>  <SCORE>
7.67913

>  <SCORE.INTER>
-11.1696

>  <SCORE.INTER.CONST>
1

>  <SCORE.INTER.POLAR>
-2.425

>  <SCORE.INTER.ROT>
8

>  <SCORE.INTER.SOLV>
24.4897

>  <SCORE.INTER.VDW>
-16.4596

>  <SCORE.INTER.norm>
-0.319132

>  <SCORE.INTRA>
13.4829

>  <SCORE.INTRA.DIHEDRAL>
11.6358

>  <SCORE.INTRA.DIHEDRAL.0>
13.1227

>  <SCORE.INTRA.POLAR>
0

>  <SCORE.INTRA.POLAR.0>
0

>  <SCORE.INTRA.REPUL>
0

>  <SCORE.INTRA.REPUL.0>
0

>  <SCORE.INTRA.SOLV>
1.13596

>  <SCORE.INTRA.SOLV.lig_0>
-89.1587

>  <SCORE.INTRA.VDW>
7.09697

>  <SCORE.INTRA.VDW.0>
-0.838383

>  <SCORE.INTRA.norm>
0.385225

>  <SCORE.RESTR>
5.36589

>  <SCORE.RESTR.CAVITY>
5.36589

>  <SCORE.RESTR.norm>
0.153311

>  <SCORE.SYSTEM>
0

>  <SCORE.SYSTEM.CONST>
0

>  <SCORE.SYSTEM.DIHEDRAL>
0

>  <SCORE.SYSTEM.SOLV>
0

>  <SCORE.SYSTEM.norm>
0

>  <SCORE.heavy>
35

>  <SCORE.norm>
0.219404

>  <RMSD>
29.583

$$$$
2o3v_lig
 OpenBabel02141814113D
libRbt.so/2013.1/901 2013/11/27
 35 37  0  0  0  0  0  0  0  0999 V2000
   -5.7829    7.5952   23.1205 C   0  0  2  0  0  0  0  0  0  0  0  0
   -5.6099    6.8470   24.3627 O   0  0  0  0  0  0  0  0  0  0  0  0
   -7.6447    5.1604   27.8184 C   0  0  2  0  0  0  0  0  0  0  0  0
   -8.7340    4.7599   28.7593 N   0  0  0  0  0  0  0  0  0  0  0  0
   -3.6841    3.9918   14.9680 C   0  0  2  0  0  0  0  0  0  0  0  0
   -4.8132    4.8305   14.6404 O   0  0  0  0  0  0  0  0  0  0  0  0
   -5.5132    6.5211   22.0195 C   0  0  2  0  0  0  0  0  0  0  0  0
   -6.4530    5.3816   22.1410 N   0  0  0  0  0  0  0  0  0  0  0  0
   -7.6047    6.7421   27.6702 C   0  0  0  0  0  0  0  0  0  0  0  0
   -3.9120    3.4405   16.4180 C   0  0  2  0  0  0  0  0  0  0  0  0
   -5.1935    2.6961   16.5095 N   0  0  0  0  0  0  0  0  0  0  0  0
   -4.0153    5.9898   22.0766 C   0  0  1  0  0  0  0  0  0  0  0  0
   -3.7920    4.9378   21.0510 O   0  0  0  0  0  0  0  0  0  0  0  0
   -6.4463    7.1404   26.6564 C   0  0  2  0  0  0  0  0  0  0  0  0
   -6.3993    8.6095   26.4950 N   0  0  0  0  0  0  0  0  0  0  0  0
   -3.8710    4.6069   17.5009 C   0  0  1  0  0  0  0  0  0  0  0  0
   -4.0460    4.1204   18.8564 O   0  0  0  0  0  0  0  0  0  0  0  0
   -3.0564    7.2524   21.9351 C   0  0  2  0  0  0  0  0  0  0  0  0
   -1.6922    6.8773   22.0000 O   0  0  0  0  0  0  0  0  0  0  0  0
   -6.6966    6.4504   25.2526 C   0  0  2  0  0  0  0  0  0  0  0  0
   -2.5034    5.3504   17.3766 C   0  0  2  0  0  0  0  0  0  0  0  0
   -2.4143    6.4080   18.3109 O   0  0  0  0  0  0  0  0  0  0  0  0
   -3.3726    8.3157   23.0546 C   0  0  2  0  0  0  0  0  0  0  0  0
   -4.7973    8.7032   22.9881 O   0  0  0  0  0  0  0  0  0  0  0  0
   -6.7405    4.9044   25.4076 C   0  0  2  0  0  0  0  0  0  0  0  0
   -7.0125    4.3430   24.0916 O   0  0  0  0  0  0  0  0  0  0  0  0
   -2.3120    5.8850   15.9012 C   0  0  2  0  0  0  0  0  0  0  0  0
   -2.4160    4.7694   14.9330 O   0  0  0  0  0  0  0  0  0  0  0  0
   -2.4900    9.5557   22.9186 C   0  0  0  0  0  0  0  0  0  0  0  0
   -2.4595   10.0127   21.5885 O   0  0  0  0  0  0  0  0  0  0  0  0
   -7.8638    4.5126   26.3960 C   0  0  1  0  0  0  0  0  0  0  0  0
   -7.8787    3.1063   26.5230 O   0  0  0  0  0  0  0  0  0  0  0  0
   -0.9711    6.5802   15.7200 C   0  0  0  0  0  0  0  0  0  0  0  0
   -0.9549    7.8043   16.4137 O   0  0  0  0  0  0  0  0  0  0  0  0
   -4.4739    5.2063   19.7299 C   0  0  0  0  0  0  0  0  0  0  0  0
  1  2  1  1  0  0  0
  1  7  1  0  0  0  0
  1 24  1  0  0  0  0
  3  4  1  1  0  0  0
  3  9  1  0  0  0  0
  3 31  1  0  0  0  0
  5  6  1  1  0  0  0
  5 10  1  0  0  0  0
  5 28  1  0  0  0  0
  7  8  1  1  0  0  0
  7 12  1  0  0  0  0
  9 14  1  0  0  0  0
 10 11  1  6  0  0  0
 10 16  1  0  0  0  0
 12 13  1  6  0  0  0
 12 18  1  0  0  0  0
 13 35  1  0  0  0  0
 14 15  1  6  0  0  0
 14 20  1  0  0  0  0
 16 17  1  1  0  0  0
 16 21  1  0  0  0  0
 17 35  1  0  0  0  0
 18 19  1  1  0  0  0
 18 23  1  0  0  0  0
 20  2  1  6  0  0  0
 20 25  1  0  0  0  0
 21 22  1  1  0  0  0
 21 27  1  0  0  0  0
 23 24  1  0  0  0  0
 23 29  1  6  0  0  0
 25 26  1  6  0  0  0
 25 31  1  0  0  0  0
 27 28  1  0  0  0  0
 27 33  1  1  0  0  0
 29 30  1  0  0  0  0
 31 32  1  1  0  0  0
 33 34  1  0  0  0  0
M  END
>  <CHROM.1>
-107.61953206,39.26723050,175.88507608,-159.78072775,-143.93511122,-118.70529501
47.17505229,-70.21161595,-4.63547673,5.99230902,21.41931796,-2.19057907,-0.85405555
-2.12935080

>  <Name>
2o3v_lig

>  <RI>
0

>  <Rbt.Current_Directory>
/home/afrankz/demos/rdock_decoys_rna/rnas/2o3v

>  <Rbt.Executable>
rbdock ($Id: //depot/dev/client3/rdock/2013.1/src/exe/rbdock.cxx#4 $)

>  <Rbt.Library>
libRbt.so (2013.1, Build901 2013/11/27)

>  <Rbt.Parameter_File>
/export/apps/rDock/src/rDock_2013.1_src/data/scripts/dock_solv.prm

>  <Rbt.Receptor>
prm/blind_docking_80.prm

>  <SCORE>
5.98502

>  <SCORE.INTER>
-6.01666

>  <SCORE.INTER.CONST>
1

>  <SCORE.INTER.POLAR>
-0.782529

>  <SCORE.INTER.ROT>
8

>  <SCORE.INTER.SOLV>
24.4617

>  <SCORE.INTER.VDW>
-18.4899

>  <SCORE.INTER.norm>
-0.171905

>  <SCORE.INTRA>
8.80202

>  <SCORE.INTRA.DIHEDRAL>
10.0393

>  <SCORE.INTRA.DIHEDRAL.0>
13.1227

>  <SCORE.INTRA.POLAR>
0

>  <SCORE.INTRA.POLAR.0>
0

>  <SCORE.INTRA.REPUL>
0.0200498

>  <SCORE.INTRA.REPUL.0>
0

>  <SCORE.INTRA.SOLV>
2.79178

>  <SCORE.INTRA.SOLV.lig_0>
-89.1587

>  <SCORE.INTRA.VDW>
2.28625

>  <SCORE.INTRA.VDW.0>
-0.838383

>  <SCORE.INTRA.norm>
0.251486

>  <SCORE.RESTR>
3.19966

>  <SCORE.RESTR.CAVITY>
3.19966

>  <SCORE.RESTR.norm>
0.0914188

>  <SCORE.SYSTEM>
0

>  <SCORE.SYSTEM.CONST>
0

>  <SCORE.SYSTEM.DIHEDRAL>
0

>  <SCORE.SYSTEM.SOLV>
0

>  <SCORE.SYSTEM.norm>
0

>  <SCORE.heavy>
35

>  <SCORE.norm>
0.171001

>  <RMSD>
29.603

$$$$
2o3v_lig
 OpenBabel02141814113D
libRbt.so/2013.1/901 2013/11/27
 35 37  0  0  0  0  0  0  0  0999 V2000
   -5.9194   -6.5694   18.8777 C   0  0  2  0  0  0  0  0  0  0  0  0
   -7.2047   -6.8467   18.2423 O   0  0  0  0  0  0  0  0  0  0  0  0
  -10.9810   -8.1162   19.9901 C   0  0  2  0  0  0  0  0  0  0  0  0
  -12.0590   -8.9930   20.5391 N   0  0  0  0  0  0  0  0  0  0  0  0
   -1.7250   -2.1378   17.3795 C   0  0  2  0  0  0  0  0  0  0  0  0
   -2.5165   -2.4485   18.5468 O   0  0  0  0  0  0  0  0  0  0  0  0
   -4.9863   -6.2526   17.6664 C   0  0  2  0  0  0  0  0  0  0  0  0
   -5.4993   -5.1057   16.8804 N   0  0  0  0  0  0  0  0  0  0  0  0
  -10.6959   -8.4865   18.4713 C   0  0  0  0  0  0  0  0  0  0  0  0
   -2.2298   -3.0532   16.2109 C   0  0  2  0  0  0  0  0  0  0  0  0
   -3.6792   -2.8481   15.9617 N   0  0  0  0  0  0  0  0  0  0  0  0
   -4.8106   -7.5174   16.7182 C   0  0  1  0  0  0  0  0  0  0  0  0
   -3.9562   -7.1826   15.5494 O   0  0  0  0  0  0  0  0  0  0  0  0
   -9.5387   -7.5482   17.9155 C   0  0  2  0  0  0  0  0  0  0  0  0
   -9.2494   -7.8845   16.5049 N   0  0  0  0  0  0  0  0  0  0  0  0
   -1.9300   -4.5900   16.4996 C   0  0  1  0  0  0  0  0  0  0  0  0
   -2.3572   -5.4578   15.4184 O   0  0  0  0  0  0  0  0  0  0  0  0
   -4.2532   -8.7098   17.6132 C   0  0  2  0  0  0  0  0  0  0  0  0
   -4.0871   -9.8940   16.8542 O   0  0  0  0  0  0  0  0  0  0  0  0
   -8.2315   -7.7260   18.7924 C   0  0  2  0  0  0  0  0  0  0  0  0
   -0.3964   -4.7586   16.7410 C   0  0  2  0  0  0  0  0  0  0  0  0
   -0.0713   -6.1074   17.0140 O   0  0  0  0  0  0  0  0  0  0  0  0
   -5.2159   -8.9852   18.8303 C   0  0  2  0  0  0  0  0  0  0  0  0
   -5.3914   -7.7476   19.6190 O   0  0  0  0  0  0  0  0  0  0  0  0
   -8.5208   -7.3679   20.2771 C   0  0  2  0  0  0  0  0  0  0  0  0
   -7.2919   -7.5921   21.0258 O   0  0  0  0  0  0  0  0  0  0  0  0
    0.0709   -3.8168   17.9216 C   0  0  2  0  0  0  0  0  0  0  0  0
   -0.2830   -2.4094   17.6269 O   0  0  0  0  0  0  0  0  0  0  0  0
   -4.6841  -10.1020   19.7273 C   0  0  0  0  0  0  0  0  0  0  0  0
   -3.4783   -9.7245   20.3457 O   0  0  0  0  0  0  0  0  0  0  0  0
   -9.6485   -8.2760   20.8208 C   0  0  1  0  0  0  0  0  0  0  0  0
   -9.8953   -7.9271   22.1667 O   0  0  0  0  0  0  0  0  0  0  0  0
    1.5693   -3.9145   18.1650 C   0  0  0  0  0  0  0  0  0  0  0  0
    1.8996   -5.1757   18.6942 O   0  0  0  0  0  0  0  0  0  0  0  0
   -2.5335   -6.8203   15.9059 C   0  0  0  0  0  0  0  0  0  0  0  0
  1  2  1  6  0  0  0
  1  7  1  0  0  0  0
  1 24  1  0  0  0  0
  3  4  1  1  0  0  0
  3  9  1  0  0  0  0
  3 31  1  0  0  0  0
  5  6  1  1  0  0  0
  5 10  1  0  0  0  0
  5 28  1  0  0  0  0
  7  8  1  6  0  0  0
  7 12  1  0  0  0  0
  9 14  1  0  0  0  0
 10 11  1  1  0  0  0
 10 16  1  0  0  0  0
 12 13  1  6  0  0  0
 12 18  1  0  0  0  0
 13 35  1  0  0  0  0
 14 15  1  6  0  0  0
 14 20  1  0  0  0  0
 16 17  1  6  0  0  0
 16 21  1  0  0  0  0
 17 35  1  0  0  0  0
 18 19  1  6  0  0  0
 18 23  1  0  0  0  0
 20  2  1  6  0  0  0
 20 25  1  0  0  0  0
 21 22  1  1  0  0  0
 21 27  1  0  0  0  0
 23 24  1  0  0  0  0
 23 29  1  1  0  0  0
 25 26  1  1  0  0  0
 25 31  1  0  0  0  0
 27 28  1  0  0  0  0
 27 33  1  6  0  0  0
 29 30  1  0  0  0  0
 31 32  1  1  0  0  0
 33 34  1  0  0  0  0
M  END
>  <CHROM.1>
151.84615898,64.14167138,-119.73097247,-158.71905655,124.01716901,170.63123323
65.20291122,-68.86022398,-4.78558195,-6.52292953,18.17053819,2.65209065,-0.12606175
2.82904172

>  <Name>
2o3v_lig

>  <RI>
0

>  <Rbt.Current_Directory>
/home/afrankz/demos/rdock_decoys_rna/rnas/2o3v

>  <Rbt.Executable>
rbdock ($Id: //depot/dev/client3/rdock/2013.1/src/exe/rbdock.cxx#4 $)

>  <Rbt.Library>
libRbt.so (2013.1, Build901 2013/11/27)

>  <Rbt.Parameter_File>
/export/apps/rDock/src/rDock_2013.1_src/data/scripts/dock_solv.prm

>  <Rbt.Receptor>
prm/blind_docking_100.prm

>  <SCORE>
7.17076

>  <SCORE.INTER>
-1.35524

>  <SCORE.INTER.CONST>
1

>  <SCORE.INTER.POLAR>
-0.735161

>  <SCORE.INTER.ROT>
8

>  <SCORE.INTER.SOLV>
12.8858

>  <SCORE.INTER.VDW>
-11.6816

>  <SCORE.INTER.norm>
-0.0387212

>  <SCORE.INTRA>
5.22178

>  <SCORE.INTRA.DIHEDRAL>
7.37823

>  <SCORE.INTRA.DIHEDRAL.0>
13.1227

>  <SCORE.INTRA.POLAR>
0

>  <SCORE.INTRA.POLAR.0>
0

>  <SCORE.INTRA.REPUL>
0

>  <SCORE.INTRA.REPUL.0>
0

>  <SCORE.INTRA.SOLV>
2.99287

>  <SCORE.INTRA.SOLV.lig_0>
-89.1587

>  <SCORE.INTRA.VDW>
0.0362318

>  <SCORE.INTRA.VDW.0>
-0.838383

>  <SCORE.INTRA.norm>
0.149194

>  <SCORE.RESTR>
3.30422

>  <SCORE.RESTR.CAVITY>
3.30422

>  <SCORE.RESTR.norm>
0.0944064

>  <SCORE.SYSTEM>
0

>  <SCORE.SYSTEM.CONST>
0

>  <SCORE.SYSTEM.DIHEDRAL>
0

>  <SCORE.SYSTEM.SOLV>
0

>  <SCORE.SYSTEM.norm>
0

>  <SCORE.heavy>
35

>  <SCORE.norm>
0.204879

>  <RMSD>
29.639

$$$$
2o3v_lig
 OpenBabel02141814113D
libRbt.so/2013.1/901 2013/11/27
 35 37  0  0  0  0  0  0  0  0999 V2000
   -5.5835    6.9317   21.4658 C   0  0  2  0  0  0  0  0  0  0  0  0
   -5.7811    6.0167   22.5867 O   0  0  0  0  0  0  0  0  0  0  0  0
   -6.7880    6.5730   26.7824 C   0  0  2  0  0  0  0  0  0  0  0  0
   -7.5646    6.8946   28.0176 N   0  0  0  0  0  0  0  0  0  0  0  0
   -4.3535    3.8256   14.9485 C   0  0  2  0  0  0  0  0  0  0  0  0
   -3.4671    3.2648   13.9559 O   0  0  0  0  0  0  0  0  0  0  0  0
   -4.9505    6.0175   20.3695 C   0  0  2  0  0  0  0  0  0  0  0  0
   -5.8442    4.8832   20.0361 N   0  0  0  0  0  0  0  0  0  0  0  0
   -6.6628    7.8638   25.8640 C   0  0  0  0  0  0  0  0  0  0  0  0
   -3.4688    4.5972   15.9878 C   0  0  2  0  0  0  0  0  0  0  0  0
   -2.6571    5.6469   15.3211 N   0  0  0  0  0  0  0  0  0  0  0  0
   -3.5281    5.4660   20.8190 C   0  0  1  0  0  0  0  0  0  0  0  0
   -2.9633    4.5637   19.7821 O   0  0  0  0  0  0  0  0  0  0  0  0
   -5.8435    7.4920   24.5530 C   0  0  2  0  0  0  0  0  0  0  0  0
   -5.7252    8.6780   23.6779 N   0  0  0  0  0  0  0  0  0  0  0  0
   -2.5283    3.6067   16.8058 C   0  0  1  0  0  0  0  0  0  0  0  0
   -1.7217    4.2907   17.7989 O   0  0  0  0  0  0  0  0  0  0  0  0
   -2.6141    6.7247   21.1562 C   0  0  2  0  0  0  0  0  0  0  0  0
   -1.3262    6.3284   21.5924 O   0  0  0  0  0  0  0  0  0  0  0  0
   -6.5706    6.3181   23.7767 C   0  0  2  0  0  0  0  0  0  0  0  0
   -3.4245    2.5320   17.4989 C   0  0  2  0  0  0  0  0  0  0  0  0
   -2.6392    1.6146   18.2346 O   0  0  0  0  0  0  0  0  0  0  0  0
   -3.2967    7.6263   22.2539 C   0  0  2  0  0  0  0  0  0  0  0  0
   -4.6419    8.0358   21.7989 O   0  0  0  0  0  0  0  0  0  0  0  0
   -6.6943    5.0620   24.6840 C   0  0  2  0  0  0  0  0  0  0  0  0
   -7.4041    4.0437   23.9224 O   0  0  0  0  0  0  0  0  0  0  0  0
   -4.3016    1.7823   16.4182 C   0  0  2  0  0  0  0  0  0  0  0  0
   -5.1121    2.7547   15.6499 O   0  0  0  0  0  0  0  0  0  0  0  0
   -2.4561    8.8627   22.5693 C   0  0  0  0  0  0  0  0  0  0  0  0
   -2.9835    9.5678   23.6664 O   0  0  0  0  0  0  0  0  0  0  0  0
   -7.4877    5.4202   25.9624 C   0  0  1  0  0  0  0  0  0  0  0  0
   -7.5808    4.2657   26.7703 O   0  0  0  0  0  0  0  0  0  0  0  0
   -5.2252    0.7535   17.0528 C   0  0  0  0  0  0  0  0  0  0  0  0
   -6.2763    1.3924   17.7361 O   0  0  0  0  0  0  0  0  0  0  0  0
   -2.5299    5.2681   18.5178 C   0  0  0  0  0  0  0  0  0  0  0  0
  1  2  1  1  0  0  0
  1  7  1  0  0  0  0
  1 24  1  0  0  0  0
  3  4  1  1  0  0  0
  3  9  1  0  0  0  0
  3 31  1  0  0  0  0
  5  6  1  6  0  0  0
  5 10  1  0  0  0  0
  5 28  1  0  0  0  0
  7  8  1  1  0  0  0
  7 12  1  0  0  0  0
  9 14  1  0  0  0  0
 10 11  1  6  0  0  0
 10 16  1  0  0  0  0
 12 13  1  6  0  0  0
 12 18  1  0  0  0  0
 13 35  1  0  0  0  0
 14 15  1  6  0  0  0
 14 20  1  0  0  0  0
 16 17  1  1  0  0  0
 16 21  1  0  0  0  0
 17 35  1  0  0  0  0
 18 19  1  1  0  0  0
 18 23  1  0  0  0  0
 20  2  1  6  0  0  0
 20 25  1  0  0  0  0
 21 22  1  6  0  0  0
 21 27  1  0  0  0  0
 23 24  1  0  0  0  0
 23 29  1  6  0  0  0
 25 26  1  6  0  0  0
 25 31  1  0  0  0  0
 27 28  1  0  0  0  0
 27 33  1  1  0  0  0
 29 30  1  0  0  0  0
 31 32  1  1  0  0  0
 33 34  1  0  0  0  0
M  END
>  <CHROM.1>
-168.12503138,70.38698438,166.22750432,43.77548879,96.58942295,-65.58711643
-172.38853526,72.41495905,-4.60988581,5.25434056,20.77367035,-1.94461160
-0.78618888,-2.23078003

>  <Name>
2o3v_lig

>  <RI>
0

>  <Rbt.Current_Directory>
/home/afrankz/demos/rdock_decoys_rna/rnas/2o3v

>  <Rbt.Executable>
rbdock ($Id: //depot/dev/client3/rdock/2013.1/src/exe/rbdock.cxx#4 $)

>  <Rbt.Library>
libRbt.so (2013.1, Build901 2013/11/27)

>  <Rbt.Parameter_File>
/export/apps/rDock/src/rDock_2013.1_src/data/scripts/dock_solv.prm

>  <Rbt.Receptor>
prm/blind_docking_80.prm

>  <SCORE>
14.2592

>  <SCORE.INTER>
8.88894

>  <SCORE.INTER.CONST>
1

>  <SCORE.INTER.POLAR>
-1.06982

>  <SCORE.INTER.ROT>
8

>  <SCORE.INTER.SOLV>
30.1961

>  <SCORE.INTER.VDW>
-9.50668

>  <SCORE.INTER.norm>
0.25397

>  <SCORE.INTRA>
3.52395

>  <SCORE.INTRA.DIHEDRAL>
-4.0381

>  <SCORE.INTRA.DIHEDRAL.0>
13.1227

>  <SCORE.INTRA.POLAR>
0

>  <SCORE.INTRA.POLAR.0>
0

>  <SCORE.INTRA.REPUL>
0.0364334

>  <SCORE.INTRA.REPUL.0>
0

>  <SCORE.INTRA.SOLV>
4.66097

>  <SCORE.INTRA.SOLV.lig_0>
-89.1587

>  <SCORE.INTRA.VDW>
3.03034

>  <SCORE.INTRA.VDW.0>
-0.838383

>  <SCORE.INTRA.norm>
0.100684

>  <SCORE.RESTR>
1.84636

>  <SCORE.RESTR.CAVITY>
1.84636

>  <SCORE.RESTR.norm>
0.0527532

>  <SCORE.SYSTEM>
0

>  <SCORE.SYSTEM.CONST>
0

>  <SCORE.SYSTEM.DIHEDRAL>
0

>  <SCORE.SYSTEM.SOLV>
0

>  <SCORE.SYSTEM.norm>
0

>  <SCORE.heavy>
35

>  <SCORE.norm>
0.407407

>  <RMSD>
29.670

$$$$
2o3v_lig
 OpenBabel02141814113D
libRbt.so/2013.1/901 2013/11/27
 35 37  0  0  0  0  0  0  0  0999 V2000
   -5.5772    6.9115   21.4801 C   0  0  2  0  0  0  0  0  0  0  0  0
   -5.7175    6.0300   22.6361 O   0  0  0  0  0  0  0  0  0  0  0  0
   -6.8111    6.5270   26.8175 C   0  0  2  0  0  0  0  0  0  0  0  0
   -7.6096    6.8414   28.0405 N   0  0  0  0  0  0  0  0  0  0  0  0
   -4.2973    4.1999   14.8954 C   0  0  2  0  0  0  0  0  0  0  0  0
   -3.4441    3.5893   13.9030 O   0  0  0  0  0  0  0  0  0  0  0  0
   -4.9043    5.9915   20.4127 C   0  0  2  0  0  0  0  0  0  0  0  0
   -5.7385    4.7998   20.1300 N   0  0  0  0  0  0  0  0  0  0  0  0
   -6.6373    7.8322   25.9278 C   0  0  0  0  0  0  0  0  0  0  0  0
   -3.3691    4.8402   15.9848 C   0  0  2  0  0  0  0  0  0  0  0  0
   -2.4387    5.8264   15.3791 N   0  0  0  0  0  0  0  0  0  0  0  0
   -3.4512    5.5335   20.8693 C   0  0  1  0  0  0  0  0  0  0  0  0
   -2.8466    4.6241   19.8614 O   0  0  0  0  0  0  0  0  0  0  0  0
   -5.7952    7.4682   24.6291 C   0  0  2  0  0  0  0  0  0  0  0  0
   -5.6315    8.6680   23.7805 N   0  0  0  0  0  0  0  0  0  0  0  0
   -2.5550    3.7309   16.7857 C   0  0  1  0  0  0  0  0  0  0  0  0
   -1.7120    4.2936   17.8237 O   0  0  0  0  0  0  0  0  0  0  0  0
   -2.6032    6.8507   21.1510 C   0  0  2  0  0  0  0  0  0  0  0  0
   -1.2929    6.5399   21.5897 O   0  0  0  0  0  0  0  0  0  0  0  0
   -6.5283    6.3253   23.8132 C   0  0  2  0  0  0  0  0  0  0  0  0
   -3.5726    2.7273   17.4148 C   0  0  2  0  0  0  0  0  0  0  0  0
   -2.9033    1.7094   18.1326 O   0  0  0  0  0  0  0  0  0  0  0  0
   -3.3249    7.7554   22.2207 C   0  0  2  0  0  0  0  0  0  0  0  0
   -4.6934    8.0757   21.7633 O   0  0  0  0  0  0  0  0  0  0  0  0
   -6.6997    5.0550   24.6925 C   0  0  2  0  0  0  0  0  0  0  0  0
   -7.4126    4.0669   23.8946 O   0  0  0  0  0  0  0  0  0  0  0  0
   -4.4899    2.1096   16.2851 C   0  0  2  0  0  0  0  0  0  0  0  0
   -5.1779    3.1860   15.5362 O   0  0  0  0  0  0  0  0  0  0  0  0
   -2.5493    9.0457   22.4822 C   0  0  0  0  0  0  0  0  0  0  0  0
   -1.2488    8.7708   22.9429 O   0  0  0  0  0  0  0  0  0  0  0  0
   -7.5153    5.4054   25.9589 C   0  0  1  0  0  0  0  0  0  0  0  0
   -7.6516    4.2379   26.7416 O   0  0  0  0  0  0  0  0  0  0  0  0
   -5.5286    1.1566   16.8568 C   0  0  0  0  0  0  0  0  0  0  0  0
   -4.9036    0.0246   17.4119 O   0  0  0  0  0  0  0  0  0  0  0  0
   -2.4451    5.3057   18.5743 C   0  0  0  0  0  0  0  0  0  0  0  0
  1  2  1  1  0  0  0
  1  7  1  0  0  0  0
  1 24  1  0  0  0  0
  3  4  1  1  0  0  0
  3  9  1  0  0  0  0
  3 31  1  0  0  0  0
  5  6  1  6  0  0  0
  5 10  1  0  0  0  0
  5 28  1  0  0  0  0
  7  8  1  1  0  0  0
  7 12  1  0  0  0  0
  9 14  1  0  0  0  0
 10 11  1  6  0  0  0
 10 16  1  0  0  0  0
 12 13  1  6  0  0  0
 12 18  1  0  0  0  0
 13 35  1  0  0  0  0
 14 15  1  6  0  0  0
 14 20  1  0  0  0  0
 16 17  1  1  0  0  0
 16 21  1  0  0  0  0
 17 35  1  0  0  0  0
 18 19  1  1  0  0  0
 18 23  1  0  0  0  0
 20  2  1  6  0  0  0
 20 25  1  0  0  0  0
 21 22  1  6  0  0  0
 21 27  1  0  0  0  0
 23 24  1  0  0  0  0
 23 29  1  6  0  0  0
 25 26  1  6  0  0  0
 25 31  1  0  0  0  0
 27 28  1  0  0  0  0
 27 33  1  1  0  0  0
 29 30  1  0  0  0  0
 31 32  1  1  0  0  0
 33 34  1  0  0  0  0
M  END
>  <CHROM.1>
-167.21868426,71.09595340,172.01861038,44.66762441,102.13947484,-71.71878780
-59.04798649,-65.89344422,-4.51636722,5.27812056,20.73472433,-1.94935275
-0.77902289,-2.20970832

>  <Name>
2o3v_lig

>  <RI>
0

>  <Rbt.Current_Directory>
/home/afrankz/demos/rdock_decoys_rna/rnas/2o3v

>  <Rbt.Executable>
rbdock ($Id: //depot/dev/client3/rdock/2013.1/src/exe/rbdock.cxx#4 $)

>  <Rbt.Library>
libRbt.so (2013.1, Build901 2013/11/27)

>  <Rbt.Parameter_File>
/export/apps/rDock/src/rDock_2013.1_src/data/scripts/dock_solv.prm

>  <Rbt.Receptor>
prm/blind_docking_80.prm

>  <SCORE>
15.0579

>  <SCORE.INTER>
11.203

>  <SCORE.INTER.CONST>
1

>  <SCORE.INTER.POLAR>
-1.03473

>  <SCORE.INTER.ROT>
8

>  <SCORE.INTER.SOLV>
30.8248

>  <SCORE.INTER.VDW>
-8.2905

>  <SCORE.INTER.norm>
0.320085

>  <SCORE.INTRA>
3.00481

>  <SCORE.INTRA.DIHEDRAL>
-3.7835

>  <SCORE.INTRA.DIHEDRAL.0>
13.1227

>  <SCORE.INTRA.POLAR>
0

>  <SCORE.INTRA.POLAR.0>
0

>  <SCORE.INTRA.REPUL>
0

>  <SCORE.INTRA.REPUL.0>
0

>  <SCORE.INTRA.SOLV>
4.14568

>  <SCORE.INTRA.SOLV.lig_0>
-89.1587

>  <SCORE.INTRA.VDW>
2.82372

>  <SCORE.INTRA.VDW.0>
-0.838383

>  <SCORE.INTRA.norm>
0.0858517

>  <SCORE.RESTR>
0.850163

>  <SCORE.RESTR.CAVITY>
0.850163

>  <SCORE.RESTR.norm>
0.0242904

>  <SCORE.SYSTEM>
0

>  <SCORE.SYSTEM.CONST>
0

>  <SCORE.SYSTEM.DIHEDRAL>
0

>  <SCORE.SYSTEM.SOLV>
0

>  <SCORE.SYSTEM.norm>
0

>  <SCORE.heavy>
35

>  <SCORE.norm>
0.430227

>  <RMSD>
29.713

$$$$
2o3v_lig
 OpenBabel02141814113D
libRbt.so/2013.1/901 2013/11/27
 35 37  0  0  0  0  0  0  0  0999 V2000
   -4.0974    7.0822   22.6004 C   0  0  2  0  0  0  0  0  0  0  0  0
   -3.2398    7.9707   21.8208 O   0  0  0  0  0  0  0  0  0  0  0  0
   -0.1395   10.1747   23.9322 C   0  0  2  0  0  0  0  0  0  0  0  0
    0.6553   11.3107   24.4890 N   0  0  0  0  0  0  0  0  0  0  0  0
   -4.4866    0.4809   16.3380 C   0  0  2  0  0  0  0  0  0  0  0  0
   -4.1529   -0.2105   17.5611 O   0  0  0  0  0  0  0  0  0  0  0  0
   -3.9466    5.7115   21.8678 C   0  0  2  0  0  0  0  0  0  0  0  0
   -2.5320    5.2702   21.8425 N   0  0  0  0  0  0  0  0  0  0  0  0
   -0.1657   10.2521   22.3452 C   0  0  0  0  0  0  0  0  0  0  0  0
   -3.7093    1.8426   16.3397 C   0  0  2  0  0  0  0  0  0  0  0  0
   -2.2463    1.6206   16.4629 N   0  0  0  0  0  0  0  0  0  0  0  0
   -4.5150    5.7769   20.3838 C   0  0  1  0  0  0  0  0  0  0  0  0
   -4.3219    4.4771   19.6899 O   0  0  0  0  0  0  0  0  0  0  0  0
   -1.0261    9.0406   21.7794 C   0  0  2  0  0  0  0  0  0  0  0  0
   -1.0729    9.1005   20.3027 N   0  0  0  0  0  0  0  0  0  0  0  0
   -4.2220    2.8080   17.4972 C   0  0  1  0  0  0  0  0  0  0  0  0
   -3.5422    4.0897   17.5012 O   0  0  0  0  0  0  0  0  0  0  0  0
   -6.0327    6.2480   20.4755 C   0  0  2  0  0  0  0  0  0  0  0  0
   -6.6194    6.3596   19.1913 O   0  0  0  0  0  0  0  0  0  0  0  0
   -2.4950    9.0997   22.3694 C   0  0  2  0  0  0  0  0  0  0  0  0
   -5.7584    3.0230   17.3187 C   0  0  2  0  0  0  0  0  0  0  0  0
   -6.2731    3.8676   18.3293 O   0  0  0  0  0  0  0  0  0  0  0  0
   -6.1398    7.6252   21.2341 C   0  0  2  0  0  0  0  0  0  0  0  0
   -5.5237    7.5082   22.5725 O   0  0  0  0  0  0  0  0  0  0  0  0
   -2.4598    9.0297   23.9218 C   0  0  2  0  0  0  0  0  0  0  0  0
   -3.8343    9.1293   24.3928 O   0  0  0  0  0  0  0  0  0  0  0  0
   -6.5020    1.6279   17.3180 C   0  0  2  0  0  0  0  0  0  0  0  0
   -5.9479    0.7509   16.2614 O   0  0  0  0  0  0  0  0  0  0  0  0
   -7.5916    8.0823   21.3687 C   0  0  0  0  0  0  0  0  0  0  0  0
   -7.6693    9.3547   21.9636 O   0  0  0  0  0  0  0  0  0  0  0  0
   -1.6207   10.2046   24.4764 C   0  0  1  0  0  0  0  0  0  0  0  0
   -1.6000   10.1148   25.8855 O   0  0  0  0  0  0  0  0  0  0  0  0
   -7.9997    1.7845   17.1026 C   0  0  0  0  0  0  0  0  0  0  0  0
   -8.7051    1.3955   18.2564 O   0  0  0  0  0  0  0  0  0  0  0  0
   -3.0720    4.4062   18.8443 C   0  0  0  0  0  0  0  0  0  0  0  0
  1  2  1  6  0  0  0
  1  7  1  0  0  0  0
  1 24  1  0  0  0  0
  3  4  1  1  0  0  0
  3  9  1  0  0  0  0
  3 31  1  0  0  0  0
  5  6  1  1  0  0  0
  5 10  1  0  0  0  0
  5 28  1  0  0  0  0
  7  8  1  6  0  0  0
  7 12  1  0  0  0  0
  9 14  1  0  0  0  0
 10 11  1  1  0  0  0
 10 16  1  0  0  0  0
 12 13  1  1  0  0  0
 12 18  1  0  0  0  0
 13 35  1  0  0  0  0
 14 15  1  6  0  0  0
 14 20  1  0  0  0  0
 16 17  1  6  0  0  0
 16 21  1  0  0  0  0
 17 35  1  0  0  0  0
 18 19  1  6  0  0  0
 18 23  1  0  0  0  0
 20  2  1  6  0  0  0
 20 25  1  0  0  0  0
 21 22  1  1  0  0  0
 21 27  1  0  0  0  0
 23 24  1  0  0  0  0
 23 29  1  1  0  0  0
 25 26  1  1  0  0  0
 25 31  1  0  0  0  0
 27 28  1  0  0  0  0
 27 33  1  6  0  0  0
 29 30  1  0  0  0  0
 31 32  1  1  0  0  0
 33 34  1  0  0  0  0
M  END
>  <CHROM.1>
-147.73101655,-95.37202671,-122.39731115,-130.67711928,-61.37406590,134.35294232
-175.89928383,-113.69044023,-4.13241578,5.87108289,20.39178500,1.23510626
0.02835821,0.68757416

>  <Name>
2o3v_lig

>  <RI>
0

>  <Rbt.Current_Directory>
/home/afrankz/demos/rdock_decoys_rna/rnas/2o3v

>  <Rbt.Executable>
rbdock ($Id: //depot/dev/client3/rdock/2013.1/src/exe/rbdock.cxx#4 $)

>  <Rbt.Library>
libRbt.so (2013.1, Build901 2013/11/27)

>  <Rbt.Parameter_File>
/export/apps/rDock/src/rDock_2013.1_src/data/scripts/dock_solv.prm

>  <Rbt.Receptor>
prm/blind_docking_40.prm

>  <SCORE>
15.978

>  <SCORE.INTER>
-4.34279

>  <SCORE.INTER.CONST>
1

>  <SCORE.INTER.POLAR>
-1.24183

>  <SCORE.INTER.ROT>
8

>  <SCORE.INTER.SOLV>
31.9735

>  <SCORE.INTER.VDW>
-18.3469

>  <SCORE.INTER.norm>
-0.12408

>  <SCORE.INTRA>
10.0697

>  <SCORE.INTRA.DIHEDRAL>
20.7506

>  <SCORE.INTRA.DIHEDRAL.0>
13.1227

>  <SCORE.INTRA.POLAR>
0

>  <SCORE.INTRA.POLAR.0>
0

>  <SCORE.INTRA.REPUL>
0

>  <SCORE.INTRA.REPUL.0>
0

>  <SCORE.INTRA.SOLV>
0.783605

>  <SCORE.INTRA.SOLV.lig_0>
-89.1587

>  <SCORE.INTRA.VDW>
-0.697362

>  <SCORE.INTRA.VDW.0>
-0.838383

>  <SCORE.INTRA.norm>
0.287707

>  <SCORE.RESTR>
10.2511

>  <SCORE.RESTR.CAVITY>
10.2511

>  <SCORE.RESTR.norm>
0.292888

>  <SCORE.SYSTEM>
0

>  <SCORE.SYSTEM.CONST>
0

>  <SCORE.SYSTEM.DIHEDRAL>
0

>  <SCORE.SYSTEM.SOLV>
0

>  <SCORE.SYSTEM.norm>
0

>  <SCORE.heavy>
35

>  <SCORE.norm>
0.456515

>  <RMSD>
29.735

$$$$
2o3v_lig
 OpenBabel02141814113D
libRbt.so/2013.1/901 2013/11/27
 35 37  0  0  0  0  0  0  0  0999 V2000
   -3.8073    3.1249   16.2288 C   0  0  2  0  0  0  0  0  0  0  0  0
   -3.5986    1.9040   17.0025 O   0  0  0  0  0  0  0  0  0  0  0  0
   -4.2349   -2.3989   17.0892 C   0  0  2  0  0  0  0  0  0  0  0  0
   -4.5920   -3.7826   16.6533 N   0  0  0  0  0  0  0  0  0  0  0  0
   -3.9411    8.1406   24.1511 C   0  0  2  0  0  0  0  0  0  0  0  0
   -4.9442    9.1713   24.0213 O   0  0  0  0  0  0  0  0  0  0  0  0
   -3.0042    4.1957   17.0331 C   0  0  2  0  0  0  0  0  0  0  0  0
   -1.5745    3.8216   17.1438 N   0  0  0  0  0  0  0  0  0  0  0  0
   -5.5100   -1.4540   17.0075 C   0  0  0  0  0  0  0  0  0  0  0  0
   -3.5234    7.7051   22.7040 C   0  0  2  0  0  0  0  0  0  0  0  0
   -3.0216    8.8641   21.9230 N   0  0  0  0  0  0  0  0  0  0  0  0
   -3.6154    4.4152   18.4849 C   0  0  1  0  0  0  0  0  0  0  0  0
   -2.8113    5.4040   19.2490 O   0  0  0  0  0  0  0  0  0  0  0  0
   -5.1007    0.0128   17.4648 C   0  0  2  0  0  0  0  0  0  0  0  0
   -6.2718    0.9121   17.3850 N   0  0  0  0  0  0  0  0  0  0  0  0
   -4.7254    6.9985   21.9353 C   0  0  1  0  0  0  0  0  0  0  0  0
   -4.3566    6.5549   20.6042 O   0  0  0  0  0  0  0  0  0  0  0  0
   -5.1440    4.8196   18.3019 C   0  0  2  0  0  0  0  0  0  0  0  0
   -5.7823    5.0130   19.5514 O   0  0  0  0  0  0  0  0  0  0  0  0
   -3.9352    0.5604   16.5423 C   0  0  2  0  0  0  0  0  0  0  0  0
   -5.2093    5.7811   22.7852 C   0  0  2  0  0  0  0  0  0  0  0  0
   -6.2873    5.1185   22.1541 O   0  0  0  0  0  0  0  0  0  0  0  0
   -5.9120    3.7207   17.4734 C   0  0  2  0  0  0  0  0  0  0  0  0
   -5.2424    3.5173   16.1715 O   0  0  0  0  0  0  0  0  0  0  0  0
   -2.6946   -0.3727   16.6234 C   0  0  2  0  0  0  0  0  0  0  0  0
   -1.6843    0.1680   15.7245 O   0  0  0  0  0  0  0  0  0  0  0  0
   -5.6156    6.2625   24.2352 C   0  0  2  0  0  0  0  0  0  0  0  0
   -4.4811    6.9617   24.8810 O   0  0  0  0  0  0  0  0  0  0  0  0
   -7.3746    4.1030   17.2513 C   0  0  0  0  0  0  0  0  0  0  0  0
   -7.5090    5.4854   17.0286 O   0  0  0  0  0  0  0  0  0  0  0  0
   -3.0892   -1.8017   16.1827 C   0  0  1  0  0  0  0  0  0  0  0  0
   -1.9482   -2.6290   16.2707 O   0  0  0  0  0  0  0  0  0  0  0  0
   -6.0533    5.1018   25.1156 C   0  0  0  0  0  0  0  0  0  0  0  0
   -6.5224    5.5752   26.3549 O   0  0  0  0  0  0  0  0  0  0  0  0
   -3.2611    5.5959   20.6784 C   0  0  0  0  0  0  0  0  0  0  0  0
  1  2  1  1  0  0  0
  1  7  1  0  0  0  0
  1 24  1  0  0  0  0
  3  4  1  6  0  0  0
  3  9  1  0  0  0  0
  3 31  1  0  0  0  0
  5  6  1  6  0  0  0
  5 10  1  0  0  0  0
  5 28  1  0  0  0  0
  7  8  1  1  0  0  0
  7 12  1  0  0  0  0
  9 14  1  0  0  0  0
 10 11  1  6  0  0  0
 10 16  1  0  0  0  0
 12 13  1  6  0  0  0
 12 18  1  0  0  0  0
 13 35  1  0  0  0  0
 14 15  1  6  0  0  0
 14 20  1  0  0  0  0
 16 17  1  6  0  0  0
 16 21  1  0  0  0  0
 17 35  1  0  0  0  0
 18 19  1  1  0  0  0
 18 23  1  0  0  0  0
 20  2  1  1  0  0  0
 20 25  1  0  0  0  0
 21 22  1  6  0  0  0
 21 27  1  0  0  0  0
 23 24  1  0  0  0  0
 23 29  1  6  0  0  0
 25 26  1  6  0  0  0
 25 31  1  0  0  0  0
 27 28  1  0  0  0  0
 27 33  1  1  0  0  0
 29 30  1  0  0  0  0
 31 32  1  1  0  0  0
 33 34  1  0  0  0  0
M  END
>  <CHROM.1>
-167.99851983,-175.62627550,-83.39823364,59.93256954,-170.19575814,-114.04415906
37.47652896,-174.65930196,-4.48119901,3.65764593,19.44376146,-1.17597478
1.28926650,0.36466357

>  <Name>
2o3v_lig

>  <RI>
0

>  <Rbt.Current_Directory>
/home/afrankz/demos/rdock_decoys_rna/rnas/2o3v

>  <Rbt.Executable>
rbdock ($Id: //depot/dev/client3/rdock/2013.1/src/exe/rbdock.cxx#4 $)

>  <Rbt.Library>
libRbt.so (2013.1, Build901 2013/11/27)

>  <Rbt.Parameter_File>
/export/apps/rDock/src/rDock_2013.1_src/data/scripts/dock_solv.prm

>  <Rbt.Receptor>
prm/blind_docking_40.prm

>  <SCORE>
-19.9846

>  <SCORE.INTER>
-25.2818

>  <SCORE.INTER.CONST>
1

>  <SCORE.INTER.POLAR>
-4.01269

>  <SCORE.INTER.ROT>
8

>  <SCORE.INTER.SOLV>
29.1404

>  <SCORE.INTER.VDW>
-22.1257

>  <SCORE.INTER.norm>
-0.722338

>  <SCORE.INTRA>
2.91667

>  <SCORE.INTRA.DIHEDRAL>
-0.704977

>  <SCORE.INTRA.DIHEDRAL.0>
13.1227

>  <SCORE.INTRA.POLAR>
0

>  <SCORE.INTRA.POLAR.0>
0

>  <SCORE.INTRA.REPUL>
0

>  <SCORE.INTRA.REPUL.0>
0

>  <SCORE.INTRA.SOLV>
3.53487

>  <SCORE.INTRA.SOLV.lig_0>
-89.1587

>  <SCORE.INTRA.VDW>
1.50173

>  <SCORE.INTRA.VDW.0>
-0.838383

>  <SCORE.INTRA.norm>
0.0833335

>  <SCORE.RESTR>
2.38059

>  <SCORE.RESTR.CAVITY>
2.38059

>  <SCORE.RESTR.norm>
0.0680169

>  <SCORE.SYSTEM>
0

>  <SCORE.SYSTEM.CONST>
0

>  <SCORE.SYSTEM.DIHEDRAL>
0

>  <SCORE.SYSTEM.SOLV>
0

>  <SCORE.SYSTEM.norm>
0

>  <SCORE.heavy>
35

>  <SCORE.norm>
-0.570987

>  <RMSD>
29.735

$$$$
2o3v_lig
 OpenBabel02141814113D
libRbt.so/2013.1/901 2013/11/27
 35 37  0  0  0  0  0  0  0  0999 V2000
   -5.3569    7.6605   22.4104 C   0  0  2  0  0  0  0  0  0  0  0  0
   -5.4386    6.5259   23.3262 O   0  0  0  0  0  0  0  0  0  0  0  0
   -7.1637    5.5962   27.2104 C   0  0  2  0  0  0  0  0  0  0  0  0
   -8.1582    5.4538   28.3163 N   0  0  0  0  0  0  0  0  0  0  0  0
   -4.1139    2.2199   15.7738 C   0  0  2  0  0  0  0  0  0  0  0  0
   -5.4299    2.4931   16.3020 O   0  0  0  0  0  0  0  0  0  0  0  0
   -5.1076    6.9816   21.0265 C   0  0  2  0  0  0  0  0  0  0  0  0
   -6.2029    6.0436   20.6848 N   0  0  0  0  0  0  0  0  0  0  0  0
   -7.0153    7.1250   26.8026 C   0  0  0  0  0  0  0  0  0  0  0  0
   -3.0878    2.4116   16.9437 C   0  0  2  0  0  0  0  0  0  0  0  0
   -3.4143    1.5251   18.0893 N   0  0  0  0  0  0  0  0  0  0  0  0
   -3.7147    6.2145   20.9949 C   0  0  1  0  0  0  0  0  0  0  0  0
   -3.5170    5.5391   19.6860 O   0  0  0  0  0  0  0  0  0  0  0  0
   -5.9616    7.2474   25.6180 C   0  0  2  0  0  0  0  0  0  0  0  0
   -5.8169    8.6627   25.2149 N   0  0  0  0  0  0  0  0  0  0  0  0
   -3.0200    3.9293   17.4202 C   0  0  1  0  0  0  0  0  0  0  0  0
   -2.0530    4.1419   18.4805 O   0  0  0  0  0  0  0  0  0  0  0  0
   -2.5812    7.2702   21.3617 C   0  0  2  0  0  0  0  0  0  0  0  0
   -1.2993    6.6684   21.3825 O   0  0  0  0  0  0  0  0  0  0  0  0
   -6.4364    6.3791   24.3812 C   0  0  2  0  0  0  0  0  0  0  0  0
   -2.6611    4.8196   16.1884 C   0  0  2  0  0  0  0  0  0  0  0  0
   -2.5971    6.1849   16.5509 O   0  0  0  0  0  0  0  0  0  0  0  0
   -2.8799    7.9410   22.7561 C   0  0  2  0  0  0  0  0  0  0  0  0
   -4.2195    8.5651   22.7341 O   0  0  0  0  0  0  0  0  0  0  0  0
   -6.5850    4.8869   24.7904 C   0  0  2  0  0  0  0  0  0  0  0  0
   -7.0602    4.1606   23.6209 O   0  0  0  0  0  0  0  0  0  0  0  0
   -3.7158    4.5927   15.0329 C   0  0  2  0  0  0  0  0  0  0  0  0
   -3.7787    3.1587   14.6690 O   0  0  0  0  0  0  0  0  0  0  0  0
   -1.8253    8.9868   23.1152 C   0  0  0  0  0  0  0  0  0  0  0  0
   -0.5595    8.6196   22.6237 O   0  0  0  0  0  0  0  0  0  0  0  0
   -7.6066    4.7636   25.9450 C   0  0  1  0  0  0  0  0  0  0  0  0
   -7.7186    3.4016   26.3008 O   0  0  0  0  0  0  0  0  0  0  0  0
   -3.3818    5.4083   13.7930 C   0  0  0  0  0  0  0  0  0  0  0  0
   -4.1655    4.9874   12.7026 O   0  0  0  0  0  0  0  0  0  0  0  0
   -2.7313    4.2512   19.7662 C   0  0  0  0  0  0  0  0  0  0  0  0
  1  2  1  1  0  0  0
  1  7  1  0  0  0  0
  1 24  1  0  0  0  0
  3  4  1  1  0  0  0
  3  9  1  0  0  0  0
  3 31  1  0  0  0  0
  5  6  1  1  0  0  0
  5 10  1  0  0  0  0
  5 28  1  0  0  0  0
  7  8  1  1  0  0  0
  7 12  1  0  0  0  0
  9 14  1  0  0  0  0
 10 11  1  1  0  0  0
 10 16  1  0  0  0  0
 12 13  1  6  0  0  0
 12 18  1  0  0  0  0
 13 35  1  0  0  0  0
 14 15  1  6  0  0  0
 14 20  1  0  0  0  0
 16 17  1  1  0  0  0
 16 21  1  0  0  0  0
 17 35  1  0  0  0  0
 18 19  1  1  0  0  0
 18 23  1  0  0  0  0
 20  2  1  6  0  0  0
 20 25  1  0  0  0  0
 21 22  1  1  0  0  0
 21 27  1  0  0  0  0
 23 24  1  0  0  0  0
 23 29  1  6  0  0  0
 25 26  1  6  0  0  0
 25 31  1  0  0  0  0
 27 28  1  0  0  0  0
 27 33  1  6  0  0  0
 29 30  1  0  0  0  0
 31 32  1  1  0  0  0
 33 34  1  0  0  0  0
M  END
>  <CHROM.1>
-136.09840363,-147.63339563,-150.47408233,-102.14253961,-67.28043070,-80.71617030
-33.44820450,168.05763381,-4.43880560,5.55810911,20.85626302,-1.96518755
-0.77340590,-2.07877161

>  <Name>
2o3v_lig

>  <RI>
0

>  <Rbt.Current_Directory>
/home/afrankz/demos/rdock_decoys_rna/rnas/2o3v

>  <Rbt.Executable>
rbdock ($Id: //depot/dev/client3/rdock/2013.1/src/exe/rbdock.cxx#4 $)

>  <Rbt.Library>
libRbt.so (2013.1, Build901 2013/11/27)

>  <Rbt.Parameter_File>
/export/apps/rDock/src/rDock_2013.1_src/data/scripts/dock_solv.prm

>  <Rbt.Receptor>
prm/blind_docking_80.prm

>  <SCORE>
39.5607

>  <SCORE.INTER>
32.9309

>  <SCORE.INTER.CONST>
1

>  <SCORE.INTER.POLAR>
-1.23606

>  <SCORE.INTER.ROT>
8

>  <SCORE.INTER.SOLV>
32.214

>  <SCORE.INTER.VDW>
6.40281

>  <SCORE.INTER.norm>
0.940883

>  <SCORE.INTRA>
5.50751

>  <SCORE.INTRA.DIHEDRAL>
11.0118

>  <SCORE.INTRA.DIHEDRAL.0>
13.1227

>  <SCORE.INTRA.POLAR>
0

>  <SCORE.INTRA.POLAR.0>
0

>  <SCORE.INTRA.REPUL>
0

>  <SCORE.INTRA.REPUL.0>
0

>  <SCORE.INTRA.SOLV>
2.22773

>  <SCORE.INTRA.SOLV.lig_0>
-89.1587

>  <SCORE.INTRA.VDW>
-1.11225

>  <SCORE.INTRA.VDW.0>
-0.838383

>  <SCORE.INTRA.norm>
0.157358

>  <SCORE.RESTR>
1.12233

>  <SCORE.RESTR.CAVITY>
1.12233

>  <SCORE.RESTR.norm>
0.0320666

>  <SCORE.SYSTEM>
0

>  <SCORE.SYSTEM.CONST>
0

>  <SCORE.SYSTEM.DIHEDRAL>
0

>  <SCORE.SYSTEM.SOLV>
0

>  <SCORE.SYSTEM.norm>
0

>  <SCORE.heavy>
35

>  <SCORE.norm>
1.13031

>  <RMSD>
29.735

$$$$
2o3v_lig
 OpenBabel02141814113D
libRbt.so/2013.1/901 2013/11/27
 35 37  0  0  0  0  0  0  0  0999 V2000
   -2.3778   -2.7489   16.2519 C   0  0  2  0  0  0  0  0  0  0  0  0
   -1.6818   -2.5078   17.5129 O   0  0  0  0  0  0  0  0  0  0  0  0
    2.3009   -4.0619   18.3194 C   0  0  2  0  0  0  0  0  0  0  0  0
    3.4019   -4.9036   18.8775 N   0  0  0  0  0  0  0  0  0  0  0  0
   -2.5358    5.0954   17.9577 C   0  0  2  0  0  0  0  0  0  0  0  0
   -2.5032    5.9664   16.8063 O   0  0  0  0  0  0  0  0  0  0  0  0
   -3.2194   -1.4480   16.0573 C   0  0  2  0  0  0  0  0  0  0  0  0
   -2.3499   -0.2486   16.0149 N   0  0  0  0  0  0  0  0  0  0  0  0
    1.5362   -3.3133   19.4942 C   0  0  0  0  0  0  0  0  0  0  0  0
   -2.8420    3.6462   17.4434 C   0  0  2  0  0  0  0  0  0  0  0  0
   -1.8275    3.2075   16.4519 N   0  0  0  0  0  0  0  0  0  0  0  0
   -4.3091   -1.2806   17.2036 C   0  0  1  0  0  0  0  0  0  0  0  0
   -5.0685   -0.0158   17.0254 O   0  0  0  0  0  0  0  0  0  0  0  0
    0.3640   -2.4351   18.8753 C   0  0  2  0  0  0  0  0  0  0  0  0
   -0.3687   -1.7381   19.9542 N   0  0  0  0  0  0  0  0  0  0  0  0
   -4.3042    3.5422   16.8221 C   0  0  1  0  0  0  0  0  0  0  0  0
   -4.6269    2.2027   16.3680 O   0  0  0  0  0  0  0  0  0  0  0  0
   -5.2132   -2.5907   17.1962 C   0  0  2  0  0  0  0  0  0  0  0  0
   -6.2038   -2.5427   18.2073 O   0  0  0  0  0  0  0  0  0  0  0  0
   -0.6291   -3.3594   18.0576 C   0  0  2  0  0  0  0  0  0  0  0  0
   -5.3351    3.9989   17.9024 C   0  0  2  0  0  0  0  0  0  0  0  0
   -6.6559    3.9373   17.4012 O   0  0  0  0  0  0  0  0  0  0  0  0
   -4.3233   -3.8784   17.3798 C   0  0  2  0  0  0  0  0  0  0  0  0
   -3.2877   -3.9249   16.3263 O   0  0  0  0  0  0  0  0  0  0  0  0
    0.1280   -4.0923   16.9148 C   0  0  2  0  0  0  0  0  0  0  0  0
   -0.8340   -4.9492   16.2356 O   0  0  0  0  0  0  0  0  0  0  0  0
   -4.9879    5.4601   18.3961 C   0  0  2  0  0  0  0  0  0  0  0  0
   -3.6002    5.5125   18.9102 O   0  0  0  0  0  0  0  0  0  0  0  0
   -5.1637   -5.1539   17.3390 C   0  0  0  0  0  0  0  0  0  0  0  0
   -6.1095   -5.1713   18.3801 O   0  0  0  0  0  0  0  0  0  0  0  0
    1.2717   -4.9452   17.5122 C   0  0  1  0  0  0  0  0  0  0  0  0
    1.9457   -5.5947   16.4549 O   0  0  0  0  0  0  0  0  0  0  0  0
   -5.9414    5.9323   19.4832 C   0  0  0  0  0  0  0  0  0  0  0  0
   -5.6553    5.2882   20.7011 O   0  0  0  0  0  0  0  0  0  0  0  0
   -4.2970    1.2278   17.4004 C   0  0  0  0  0  0  0  0  0  0  0  0
  1  2  1  1  0  0  0
  1  7  1  0  0  0  0
  1 24  1  0  0  0  0
  3  4  1  1  0  0  0
  3  9  1  0  0  0  0
  3 31  1  0  0  0  0
  5  6  1  6  0  0  0
  5 10  1  0  0  0  0
  5 28  1  0  0  0  0
  7  8  1  1  0  0  0
  7 12  1  0  0  0  0
  9 14  1  0  0  0  0
 10 11  1  6  0  0  0
 10 16  1  0  0  0  0
 12 13  1  6  0  0  0
 12 18  1  0  0  0  0
 13 35  1  0  0  0  0
 14 15  1  1  0  0  0
 14 20  1  0  0  0  0
 16 17  1  1  0  0  0
 16 21  1  0  0  0  0
 17 35  1  0  0  0  0
 18 19  1  1  0  0  0
 18 23  1  0  0  0  0
 20  2  1  6  0  0  0
 20 25  1  0  0  0  0
 21 22  1  6  0  0  0
 21 27  1  0  0  0  0
 23 24  1  0  0  0  0
 23 29  1  6  0  0  0
 25 26  1  1  0  0  0
 25 31  1  0  0  0  0
 27 28  1  0  0  0  0
 27 33  1  1  0  0  0
 29 30  1  0  0  0  0
 31 32  1  6  0  0  0
 33 34  1  0  0  0  0
M  END
>  <CHROM.1>
-171.71108925,-74.42509534,138.87199240,48.43639693,161.96499740,148.49557150
-61.33003934,74.10689276,-2.77894724,-0.43480020,17.64588436,1.12177016,0.08617336
-3.04581666

>  <Name>
2o3v_lig

>  <RI>
0

>  <Rbt.Current_Directory>
/home/afrankz/demos/rdock_decoys_rna/rnas/2o3v

>  <Rbt.Executable>
rbdock ($Id: //depot/dev/client3/rdock/2013.1/src/exe/rbdock.cxx#4 $)

>  <Rbt.Library>
libRbt.so (2013.1, Build901 2013/11/27)

>  <Rbt.Parameter_File>
/export/apps/rDock/src/rDock_2013.1_src/data/scripts/dock_solv.prm

>  <Rbt.Receptor>
prm/blind_docking_100.prm

>  <SCORE>
-7.0453

>  <SCORE.INTER>
-14.5463

>  <SCORE.INTER.CONST>
1

>  <SCORE.INTER.POLAR>
-2.73463

>  <SCORE.INTER.ROT>
8

>  <SCORE.INTER.SOLV>
33.5173

>  <SCORE.INTER.VDW>
-20.6879

>  <SCORE.INTER.norm>
-0.41561

>  <SCORE.INTRA>
3.14427

>  <SCORE.INTRA.DIHEDRAL>
0.529011

>  <SCORE.INTRA.DIHEDRAL.0>
13.1227

>  <SCORE.INTRA.POLAR>
0

>  <SCORE.INTRA.POLAR.0>
0

>  <SCORE.INTRA.REPUL>
0

>  <SCORE.INTRA.REPUL.0>
0

>  <SCORE.INTRA.SOLV>
2.1323

>  <SCORE.INTRA.SOLV.lig_0>
-89.1587

>  <SCORE.INTRA.VDW>
1.81361

>  <SCORE.INTRA.VDW.0>
-0.838383

>  <SCORE.INTRA.norm>
0.0898363

>  <SCORE.RESTR>
4.35677

>  <SCORE.RESTR.CAVITY>
4.35677

>  <SCORE.RESTR.norm>
0.124479

>  <SCORE.SYSTEM>
0

>  <SCORE.SYSTEM.CONST>
0

>  <SCORE.SYSTEM.DIHEDRAL>
0

>  <SCORE.SYSTEM.SOLV>
0

>  <SCORE.SYSTEM.norm>
0

>  <SCORE.heavy>
35

>  <SCORE.norm>
-0.201294

>  <RMSD>
29.748

$$$$
2o3v_lig
 OpenBabel02141814113D
libRbt.so/2013.1/901 2013/11/27
 35 37  0  0  0  0  0  0  0  0999 V2000
   -3.7713    3.5484   16.7044 C   0  0  2  0  0  0  0  0  0  0  0  0
   -4.0721    2.3111   17.4195 O   0  0  0  0  0  0  0  0  0  0  0  0
   -4.0199   -2.0207   17.0198 C   0  0  2  0  0  0  0  0  0  0  0  0
   -4.1209   -3.3846   16.4182 N   0  0  0  0  0  0  0  0  0  0  0  0
   -5.8927    8.9310   22.9949 C   0  0  2  0  0  0  0  0  0  0  0  0
   -6.5808    8.8616   21.7272 O   0  0  0  0  0  0  0  0  0  0  0  0
   -3.0098    4.3978   17.7708 C   0  0  2  0  0  0  0  0  0  0  0  0
   -1.7934    3.6967   18.2452 N   0  0  0  0  0  0  0  0  0  0  0  0
   -5.4203   -1.2758   16.9230 C   0  0  0  0  0  0  0  0  0  0  0  0
   -4.4657    8.3144   22.7905 C   0  0  2  0  0  0  0  0  0  0  0  0
   -3.7234    9.0317   21.7231 N   0  0  0  0  0  0  0  0  0  0  0  0
   -3.9424    4.7523   19.0093 C   0  0  1  0  0  0  0  0  0  0  0  0
   -3.1870    5.5220   20.0318 O   0  0  0  0  0  0  0  0  0  0  0  0
   -5.2826    0.1753   17.5586 C   0  0  2  0  0  0  0  0  0  0  0  0
   -6.5735    0.8908   17.4682 N   0  0  0  0  0  0  0  0  0  0  0  0
   -4.5419    6.7584   22.4618 C   0  0  1  0  0  0  0  0  0  0  0  0
   -3.2328    6.1542   22.3005 O   0  0  0  0  0  0  0  0  0  0  0  0
   -5.2235    5.5064   18.4404 C   0  0  2  0  0  0  0  0  0  0  0  0
   -6.1297    5.8424   19.4757 O   0  0  0  0  0  0  0  0  0  0  0  0
   -4.1576    0.9925   16.7998 C   0  0  2  0  0  0  0  0  0  0  0  0
   -5.3166    6.0458   23.6153 C   0  0  2  0  0  0  0  0  0  0  0  0
   -5.4250    4.6572   23.3712 O   0  0  0  0  0  0  0  0  0  0  0  0
   -5.9517    4.6214   17.3586 C   0  0  2  0  0  0  0  0  0  0  0  0
   -5.0037    4.2684   16.2809 O   0  0  0  0  0  0  0  0  0  0  0  0
   -2.7931    0.2539   16.8941 C   0  0  2  0  0  0  0  0  0  0  0  0
   -1.8214    1.0383   16.1445 O   0  0  0  0  0  0  0  0  0  0  0  0
   -6.7452    6.6998   23.7904 C   0  0  2  0  0  0  0  0  0  0  0  0
   -6.6176    8.1544   24.0368 O   0  0  0  0  0  0  0  0  0  0  0  0
   -7.1652    5.3384   16.7687 C   0  0  0  0  0  0  0  0  0  0  0  0
   -8.0024    5.8364   17.7836 O   0  0  0  0  0  0  0  0  0  0  0  0
   -2.9234   -1.1596   16.2801 C   0  0  1  0  0  0  0  0  0  0  0  0
   -1.6742   -1.8100   16.3832 O   0  0  0  0  0  0  0  0  0  0  0  0
   -7.5221    6.0658   24.9343 C   0  0  0  0  0  0  0  0  0  0  0  0
   -7.7169    4.6931   24.6942 O   0  0  0  0  0  0  0  0  0  0  0  0
   -3.3216    4.9832   21.4368 C   0  0  0  0  0  0  0  0  0  0  0  0
  1  2  1  1  0  0  0
  1  7  1  0  0  0  0
  1 24  1  0  0  0  0
  3  4  1  6  0  0  0
  3  9  1  0  0  0  0
  3 31  1  0  0  0  0
  5  6  1  6  0  0  0
  5 10  1  0  0  0  0
  5 28  1  0  0  0  0
  7  8  1  1  0  0  0
  7 12  1  0  0  0  0
  9 14  1  0  0  0  0
 10 11  1  6  0  0  0
 10 16  1  0  0  0  0
 12 13  1  1  0  0  0
 12 18  1  0  0  0  0
 13 35  1  0  0  0  0
 14 15  1  6  0  0  0
 14 20  1  0  0  0  0
 16 17  1  1  0  0  0
 16 21  1  0  0  0  0
 17 35  1  0  0  0  0
 18 19  1  1  0  0  0
 18 23  1  0  0  0  0
 20  2  1  1  0  0  0
 20 25  1  0  0  0  0
 21 22  1  6  0  0  0
 21 27  1  0  0  0  0
 23 24  1  0  0  0  0
 23 29  1  6  0  0  0
 25 26  1  6  0  0  0
 25 31  1  0  0  0  0
 27 28  1  0  0  0  0
 27 33  1  1  0  0  0
 29 30  1  0  0  0  0
 31 32  1  1  0  0  0
 33 34  1  0  0  0  0
M  END
>  <CHROM.1>
-148.25085581,-130.32255468,-148.16054902,-153.82689375,86.56553182,-145.41633607
-50.48320018,-60.56872747,-4.79137390,3.99765207,19.54415811,-0.79980640
1.25779289,-0.04477980

>  <Name>
2o3v_lig

>  <RI>
0

>  <Rbt.Current_Directory>
/home/afrankz/demos/rdock_decoys_rna/rnas/2o3v

>  <Rbt.Executable>
rbdock ($Id: //depot/dev/client3/rdock/2013.1/src/exe/rbdock.cxx#4 $)

>  <Rbt.Library>
libRbt.so (2013.1, Build901 2013/11/27)

>  <Rbt.Parameter_File>
/export/apps/rDock/src/rDock_2013.1_src/data/scripts/dock_solv.prm

>  <Rbt.Receptor>
prm/blind_docking_80.prm

>  <SCORE>
-7.55841

>  <SCORE.INTER>
-13.407

>  <SCORE.INTER.CONST>
1

>  <SCORE.INTER.POLAR>
-2.03508

>  <SCORE.INTER.ROT>
8

>  <SCORE.INTER.SOLV>
30.4703

>  <SCORE.INTER.VDW>
-21.2445

>  <SCORE.INTER.norm>
-0.383057

>  <SCORE.INTRA>
5.05302

>  <SCORE.INTRA.DIHEDRAL>
12.0792

>  <SCORE.INTRA.DIHEDRAL.0>
13.1227

>  <SCORE.INTRA.POLAR>
0

>  <SCORE.INTRA.POLAR.0>
0

>  <SCORE.INTRA.REPUL>
0.00196564

>  <SCORE.INTRA.REPUL.0>
0

>  <SCORE.INTRA.SOLV>
1.77254

>  <SCORE.INTRA.SOLV.lig_0>
-89.1587

>  <SCORE.INTRA.VDW>
-1.88266

>  <SCORE.INTRA.VDW.0>
-0.838383

>  <SCORE.INTRA.norm>
0.144372

>  <SCORE.RESTR>
0.795578

>  <SCORE.RESTR.CAVITY>
0.795578

>  <SCORE.RESTR.norm>
0.0227308

>  <SCORE.SYSTEM>
0

>  <SCORE.SYSTEM.CONST>
0

>  <SCORE.SYSTEM.DIHEDRAL>
0

>  <SCORE.SYSTEM.SOLV>
0

>  <SCORE.SYSTEM.norm>
0

>  <SCORE.heavy>
35

>  <SCORE.norm>
-0.215954

>  <RMSD>
29.760

$$$$
2o3v_lig
 OpenBabel02141814113D
libRbt.so/2013.1/901 2013/11/27
 35 37  0  0  0  0  0  0  0  0999 V2000
   -5.7872    8.3839   22.5263 C   0  0  2  0  0  0  0  0  0  0  0  0
   -6.1370    7.2843   23.4215 O   0  0  0  0  0  0  0  0  0  0  0  0
   -6.6158    7.2419   27.7454 C   0  0  2  0  0  0  0  0  0  0  0  0
   -7.2198    7.4146   29.1010 N   0  0  0  0  0  0  0  0  0  0  0  0
   -2.5029    5.5579   15.7535 C   0  0  2  0  0  0  0  0  0  0  0  0
   -1.0804    5.3431   15.8794 O   0  0  0  0  0  0  0  0  0  0  0  0
   -5.5426    7.6655   21.1615 C   0  0  2  0  0  0  0  0  0  0  0  0
   -6.7493    6.9264   20.7213 N   0  0  0  0  0  0  0  0  0  0  0  0
   -6.4928    8.6497   27.0186 C   0  0  0  0  0  0  0  0  0  0  0  0
   -3.1245    5.4488   17.1888 C   0  0  2  0  0  0  0  0  0  0  0  0
   -2.5015    6.4280   18.1150 N   0  0  0  0  0  0  0  0  0  0  0  0
   -4.3030    6.6721   21.2384 C   0  0  1  0  0  0  0  0  0  0  0  0
   -4.1148    5.9664   19.9443 O   0  0  0  0  0  0  0  0  0  0  0  0
   -5.8591    8.4367   25.5759 C   0  0  2  0  0  0  0  0  0  0  0  0
   -5.7464    9.7349   24.8770 N   0  0  0  0  0  0  0  0  0  0  0  0
   -2.9933    3.9735   17.7730 C   0  0  1  0  0  0  0  0  0  0  0  0
   -3.5906    3.8355   19.0879 O   0  0  0  0  0  0  0  0  0  0  0  0
   -3.0409    7.5208   21.7079 C   0  0  2  0  0  0  0  0  0  0  0  0
   -1.8865    6.7093   21.8295 O   0  0  0  0  0  0  0  0  0  0  0  0
   -6.7604    7.4448   24.7314 C   0  0  2  0  0  0  0  0  0  0  0  0
   -3.6730    2.9833   16.7750 C   0  0  2  0  0  0  0  0  0  0  0  0
   -3.5775    1.6508   17.2385 O   0  0  0  0  0  0  0  0  0  0  0  0
   -3.3362    8.2396   23.0790 C   0  0  2  0  0  0  0  0  0  0  0  0
   -4.5434    9.0829   22.9517 O   0  0  0  0  0  0  0  0  0  0  0  0
   -6.8804    6.0729   25.4523 C   0  0  2  0  0  0  0  0  0  0  0  0
   -7.7506    5.2311   24.6429 O   0  0  0  0  0  0  0  0  0  0  0  0
   -3.0211    3.1289   15.3421 C   0  0  2  0  0  0  0  0  0  0  0  0
   -3.1202    4.5298   14.8726 O   0  0  0  0  0  0  0  0  0  0  0  0
   -2.1526    9.0920   23.5342 C   0  0  0  0  0  0  0  0  0  0  0  0
   -2.4981    9.8896   24.6402 O   0  0  0  0  0  0  0  0  0  0  0  0
   -7.4933    6.2760   26.8577 C   0  0  1  0  0  0  0  0  0  0  0  0
   -7.5861    5.0178   27.4922 O   0  0  0  0  0  0  0  0  0  0  0  0
   -3.6819    2.2128   14.3233 C   0  0  0  0  0  0  0  0  0  0  0  0
   -4.5536    2.9455   13.4967 O   0  0  0  0  0  0  0  0  0  0  0  0
   -3.0802    4.8662   19.9836 C   0  0  0  0  0  0  0  0  0  0  0  0
  1  2  1  1  0  0  0
  1  7  1  0  0  0  0
  1 24  1  0  0  0  0
  3  4  1  1  0  0  0
  3  9  1  0  0  0  0
  3 31  1  0  0  0  0
  5  6  1  1  0  0  0
  5 10  1  0  0  0  0
  5 28  1  0  0  0  0
  7  8  1  1  0  0  0
  7 12  1  0  0  0  0
  9 14  1  0  0  0  0
 10 11  1  1  0  0  0
 10 16  1  0  0  0  0
 12 13  1  6  0  0  0
 12 18  1  0  0  0  0
 13 35  1  0  0  0  0
 14 15  1  6  0  0  0
 14 20  1  0  0  0  0
 16 17  1  1  0  0  0
 16 21  1  0  0  0  0
 17 35  1  0  0  0  0
 18 19  1  1  0  0  0
 18 23  1  0  0  0  0
 20  2  1  6  0  0  0
 20 25  1  0  0  0  0
 21 22  1  1  0  0  0
 21 27  1  0  0  0  0
 23 24  1  0  0  0  0
 23 29  1  6  0  0  0
 25 26  1  6  0  0  0
 25 31  1  0  0  0  0
 27 28  1  0  0  0  0
 27 33  1  6  0  0  0
 29 30  1  0  0  0  0
 31 32  1  1  0  0  0
 33 34  1  0  0  0  0
M  END
>  <CHROM.1>
-164.84253120,-172.04725252,144.84903535,-51.86096471,96.30670347,-54.53541628
170.73335233,102.95623318,-4.52088610,6.19239983,21.26918866,-1.96718298
-0.77840495,-2.21278037

>  <Name>
2o3v_lig

>  <RI>
0

>  <Rbt.Current_Directory>
/home/afrankz/demos/rdock_decoys_rna/rnas/2o3v

>  <Rbt.Executable>
rbdock ($Id: //depot/dev/client3/rdock/2013.1/src/exe/rbdock.cxx#4 $)

>  <Rbt.Library>
libRbt.so (2013.1, Build901 2013/11/27)

>  <Rbt.Parameter_File>
/export/apps/rDock/src/rDock_2013.1_src/data/scripts/dock_solv.prm

>  <Rbt.Receptor>
prm/blind_docking_80.prm

>  <SCORE>
19.0744

>  <SCORE.INTER>
5.24148

>  <SCORE.INTER.CONST>
1

>  <SCORE.INTER.POLAR>
-1.5265

>  <SCORE.INTER.ROT>
8

>  <SCORE.INTER.SOLV>
27.1925

>  <SCORE.INTER.VDW>
-9.41486

>  <SCORE.INTER.norm>
0.149757

>  <SCORE.INTRA>
9.7807

>  <SCORE.INTRA.DIHEDRAL>
2.68488

>  <SCORE.INTRA.DIHEDRAL.0>
13.1227

>  <SCORE.INTRA.POLAR>
0

>  <SCORE.INTRA.POLAR.0>
0

>  <SCORE.INTRA.REPUL>
0

>  <SCORE.INTRA.REPUL.0>
0

>  <SCORE.INTRA.SOLV>
5.86724

>  <SCORE.INTRA.SOLV.lig_0>
-89.1587

>  <SCORE.INTRA.VDW>
5.50463

>  <SCORE.INTRA.VDW.0>
-0.838383

>  <SCORE.INTRA.norm>
0.279448

>  <SCORE.RESTR>
4.05221

>  <SCORE.RESTR.CAVITY>
4.05221

>  <SCORE.RESTR.norm>
0.115777

>  <SCORE.SYSTEM>
0

>  <SCORE.SYSTEM.CONST>
0

>  <SCORE.SYSTEM.DIHEDRAL>
0

>  <SCORE.SYSTEM.SOLV>
0

>  <SCORE.SYSTEM.norm>
0

>  <SCORE.heavy>
35

>  <SCORE.norm>
0.544983

>  <RMSD>
29.788

$$$$
2o3v_lig
 OpenBabel02141814113D
libRbt.so/2013.1/901 2013/11/27
 35 37  0  0  0  0  0  0  0  0999 V2000
   -4.0389    2.3878   15.8502 C   0  0  2  0  0  0  0  0  0  0  0  0
   -3.6749    1.2518   16.6926 O   0  0  0  0  0  0  0  0  0  0  0  0
   -3.6807   -3.0861   17.0244 C   0  0  2  0  0  0  0  0  0  0  0  0
   -3.9004   -4.5271   16.6966 N   0  0  0  0  0  0  0  0  0  0  0  0
   -3.8218    8.0668   23.6114 C   0  0  2  0  0  0  0  0  0  0  0  0
   -4.6305    9.0425   22.9189 O   0  0  0  0  0  0  0  0  0  0  0  0
   -3.3052    3.5850   16.5334 C   0  0  2  0  0  0  0  0  0  0  0  0
   -1.8422    3.3553   16.5894 N   0  0  0  0  0  0  0  0  0  0  0  0
   -5.0738   -2.3260   17.1079 C   0  0  0  0  0  0  0  0  0  0  0  0
   -3.2378    7.0890   22.5338 C   0  0  2  0  0  0  0  0  0  0  0  0
   -2.4521    7.8286   21.5136 N   0  0  0  0  0  0  0  0  0  0  0  0
   -3.8630    3.8524   17.9986 C   0  0  1  0  0  0  0  0  0  0  0  0
   -3.1223    4.9654   18.6472 O   0  0  0  0  0  0  0  0  0  0  0  0
   -4.8114   -0.7946   17.4459 C   0  0  2  0  0  0  0  0  0  0  0  0
   -6.0959   -0.0657   17.5168 N   0  0  0  0  0  0  0  0  0  0  0  0
   -4.3852    6.2341   21.8358 C   0  0  1  0  0  0  0  0  0  0  0  0
   -3.8692    5.2960   20.8567 O   0  0  0  0  0  0  0  0  0  0  0  0
   -5.4308    4.0977   17.8739 C   0  0  2  0  0  0  0  0  0  0  0  0
   -6.0229    4.3218   19.1408 O   0  0  0  0  0  0  0  0  0  0  0  0
   -3.8838   -0.1481   16.3364 C   0  0  2  0  0  0  0  0  0  0  0  0
   -5.1732    5.4652   22.9432 C   0  0  2  0  0  0  0  0  0  0  0  0
   -6.2162    4.6937   22.3805 O   0  0  0  0  0  0  0  0  0  0  0  0
   -6.1280    2.8741   17.1665 C   0  0  2  0  0  0  0  0  0  0  0  0
   -5.5064    2.6391   15.8463 O   0  0  0  0  0  0  0  0  0  0  0  0
   -2.5263   -0.9012   16.2572 C   0  0  2  0  0  0  0  0  0  0  0  0
   -1.7463   -0.2809   15.1952 O   0  0  0  0  0  0  0  0  0  0  0  0
   -5.7400    6.4856   24.0094 C   0  0  2  0  0  0  0  0  0  0  0  0
   -4.6393    7.2924   24.5841 O   0  0  0  0  0  0  0  0  0  0  0  0
   -7.6299    3.1007   17.0007 C   0  0  0  0  0  0  0  0  0  0  0  0
   -8.2155    2.0765   16.2346 O   0  0  0  0  0  0  0  0  0  0  0  0
   -2.7771   -2.3923   15.9321 C   0  0  1  0  0  0  0  0  0  0  0  0
   -1.5309   -3.0536   15.8715 O   0  0  0  0  0  0  0  0  0  0  0  0
   -6.4799    5.7773   25.1340 C   0  0  0  0  0  0  0  0  0  0  0  0
   -5.6091    4.9189   25.8305 O   0  0  0  0  0  0  0  0  0  0  0  0
   -3.9793    5.8565   19.5154 C   0  0  0  0  0  0  0  0  0  0  0  0
  1  2  1  1  0  0  0
  1  7  1  0  0  0  0
  1 24  1  0  0  0  0
  3  4  1  6  0  0  0
  3  9  1  0  0  0  0
  3 31  1  0  0  0  0
  5  6  1  6  0  0  0
  5 10  1  0  0  0  0
  5 28  1  0  0  0  0
  7  8  1  1  0  0  0
  7 12  1  0  0  0  0
  9 14  1  0  0  0  0
 10 11  1  6  0  0  0
 10 16  1  0  0  0  0
 12 13  1  6  0  0  0
 12 18  1  0  0  0  0
 13 35  1  0  0  0  0
 14 15  1  6  0  0  0
 14 20  1  0  0  0  0
 16 17  1  6  0  0  0
 16 21  1  0  0  0  0
 17 35  1  0  0  0  0
 18 19  1  1  0  0  0
 18 23  1  0  0  0  0
 20  2  1  1  0  0  0
 20 25  1  0  0  0  0
 21 22  1  6  0  0  0
 21 27  1  0  0  0  0
 23 24  1  0  0  0  0
 23 29  1  6  0  0  0
 25 26  1  6  0  0  0
 25 31  1  0  0  0  0
 27 28  1  0  0  0  0
 27 33  1  1  0  0  0
 29 30  1  0  0  0  0
 31 32  1  1  0  0  0
 33 34  1  0  0  0  0
M  END
>  <CHROM.1>
-167.05979344,143.14255716,92.93044031,-97.81470141,166.53413674,-120.91460366
173.22894484,61.74221692,-4.44363119,3.03232190,19.12978300,-1.31675958,1.17514688
0.48989200

>  <Name>
2o3v_lig

>  <RI>
0

>  <Rbt.Current_Directory>
/home/afrankz/demos/rdock_decoys_rna/rnas/2o3v

>  <Rbt.Executable>
rbdock ($Id: //depot/dev/client3/rdock/2013.1/src/exe/rbdock.cxx#4 $)

>  <Rbt.Library>
libRbt.so (2013.1, Build901 2013/11/27)

>  <Rbt.Parameter_File>
/export/apps/rDock/src/rDock_2013.1_src/data/scripts/dock_solv.prm

>  <Rbt.Receptor>
prm/blind_docking_40.prm

>  <SCORE>
11.858

>  <SCORE.INTER>
2.18703

>  <SCORE.INTER.CONST>
1

>  <SCORE.INTER.POLAR>
-3.03181

>  <SCORE.INTER.ROT>
8

>  <SCORE.INTER.SOLV>
28.7595

>  <SCORE.INTER.VDW>
-6.95577

>  <SCORE.INTER.norm>
0.0624865

>  <SCORE.INTRA>
7.35996

>  <SCORE.INTRA.DIHEDRAL>
9.97573

>  <SCORE.INTRA.DIHEDRAL.0>
13.1227

>  <SCORE.INTRA.POLAR>
0

>  <SCORE.INTRA.POLAR.0>
0

>  <SCORE.INTRA.REPUL>
0

>  <SCORE.INTRA.REPUL.0>
0

>  <SCORE.INTRA.SOLV>
3.55535

>  <SCORE.INTRA.SOLV.lig_0>
-89.1587

>  <SCORE.INTRA.VDW>
0.594414

>  <SCORE.INTRA.VDW.0>
-0.838383

>  <SCORE.INTRA.norm>
0.210284

>  <SCORE.RESTR>
2.31103

>  <SCORE.RESTR.CAVITY>
2.31103

>  <SCORE.RESTR.norm>
0.0660295

>  <SCORE.SYSTEM>
0

>  <SCORE.SYSTEM.CONST>
0

>  <SCORE.SYSTEM.DIHEDRAL>
0

>  <SCORE.SYSTEM.SOLV>
0

>  <SCORE.SYSTEM.norm>
0

>  <SCORE.heavy>
35

>  <SCORE.norm>
0.3388

>  <RMSD>
29.809

$$$$
2o3v_lig
 OpenBabel02141814113D
libRbt.so/2013.1/901 2013/11/27
 35 37  0  0  0  0  0  0  0  0999 V2000
   -4.1943   -3.7522   18.2576 C   0  0  2  0  0  0  0  0  0  0  0  0
   -4.0683   -5.0134   17.5322 O   0  0  0  0  0  0  0  0  0  0  0  0
   -5.8415   -8.8997   18.3564 C   0  0  2  0  0  0  0  0  0  0  0  0
   -6.0499  -10.2641   18.9285 N   0  0  0  0  0  0  0  0  0  0  0  0
   -4.3712    3.7264   16.9405 C   0  0  2  0  0  0  0  0  0  0  0  0
   -4.2524    4.0425   15.5364 O   0  0  0  0  0  0  0  0  0  0  0  0
   -4.1053   -2.6814   17.1245 C   0  0  2  0  0  0  0  0  0  0  0  0
   -5.1755   -2.8761   16.1179 N   0  0  0  0  0  0  0  0  0  0  0  0
   -4.4846   -8.8548   17.5305 C   0  0  0  0  0  0  0  0  0  0  0  0
   -3.6259    2.3683   17.1822 C   0  0  2  0  0  0  0  0  0  0  0  0
   -2.2057    2.4573   16.7579 N   0  0  0  0  0  0  0  0  0  0  0  0
   -2.6850   -2.7049   16.4091 C   0  0  1  0  0  0  0  0  0  0  0  0
   -2.6363   -1.7102   15.3061 O   0  0  0  0  0  0  0  0  0  0  0  0
   -4.2813   -7.3912   16.9432 C   0  0  2  0  0  0  0  0  0  0  0  0
   -3.0167   -7.3245   16.1797 N   0  0  0  0  0  0  0  0  0  0  0  0
   -4.3512    1.1620   16.4382 C   0  0  1  0  0  0  0  0  0  0  0  0
   -3.7011   -0.1137   16.6721 O   0  0  0  0  0  0  0  0  0  0  0  0
   -1.5812   -2.4851   17.5347 C   0  0  2  0  0  0  0  0  0  0  0  0
   -0.2736   -2.5156   16.9914 O   0  0  0  0  0  0  0  0  0  0  0  0
   -4.2565   -6.3346   18.1231 C   0  0  2  0  0  0  0  0  0  0  0  0
   -5.8336    1.0992   16.9252 C   0  0  2  0  0  0  0  0  0  0  0  0
   -6.5329    0.0486   16.2874 O   0  0  0  0  0  0  0  0  0  0  0  0
   -1.7169   -3.5764   18.6636 C   0  0  2  0  0  0  0  0  0  0  0  0
   -3.0831   -3.5460   19.2268 O   0  0  0  0  0  0  0  0  0  0  0  0
   -5.5844   -6.3896   18.9292 C   0  0  2  0  0  0  0  0  0  0  0  0
   -5.4741   -5.4255   20.0152 O   0  0  0  0  0  0  0  0  0  0  0  0
   -6.5455    2.4871   16.6677 C   0  0  2  0  0  0  0  0  0  0  0  0
   -5.7987    3.5788   17.3336 O   0  0  0  0  0  0  0  0  0  0  0  0
   -0.6914   -3.3656   19.7766 C   0  0  0  0  0  0  0  0  0  0  0  0
   -0.4673   -1.9960   20.0066 O   0  0  0  0  0  0  0  0  0  0  0  0
   -5.7880   -7.8128   19.4995 C   0  0  1  0  0  0  0  0  0  0  0  0
   -7.0016   -7.8371   20.2211 O   0  0  0  0  0  0  0  0  0  0  0  0
   -7.9824    2.4880   17.1671 C   0  0  0  0  0  0  0  0  0  0  0  0
   -8.1109    1.6559   18.2945 O   0  0  0  0  0  0  0  0  0  0  0  0
   -2.5673   -0.2741   15.7699 C   0  0  0  0  0  0  0  0  0  0  0  0
  1  2  1  6  0  0  0
  1  7  1  0  0  0  0
  1 24  1  0  0  0  0
  3  4  1  1  0  0  0
  3  9  1  0  0  0  0
  3 31  1  0  0  0  0
  5  6  1  6  0  0  0
  5 10  1  0  0  0  0
  5 28  1  0  0  0  0
  7  8  1  6  0  0  0
  7 12  1  0  0  0  0
  9 14  1  0  0  0  0
 10 11  1  6  0  0  0
 10 16  1  0  0  0  0
 12 13  1  6  0  0  0
 12 18  1  0  0  0  0
 13 35  1  0  0  0  0
 14 15  1  1  0  0  0
 14 20  1  0  0  0  0
 16 17  1  1  0  0  0
 16 21  1  0  0  0  0
 17 35  1  0  0  0  0
 18 19  1  6  0  0  0
 18 23  1  0  0  0  0
 20  2  1  6  0  0  0
 20 25  1  0  0  0  0
 21 22  1  6  0  0  0
 21 27  1  0  0  0  0
 23 24  1  0  0  0  0
 23 29  1  1  0  0  0
 25 26  1  1  0  0  0
 25 31  1  0  0  0  0
 27 28  1  0  0  0  0
 27 33  1  1  0  0  0
 29 30  1  0  0  0  0
 31 32  1  6  0  0  0
 33 34  1  0  0  0  0
M  END
>  <CHROM.1>
-171.96256638,72.52890996,-54.03210781,-82.34004233,-138.27133650,170.12563774
35.78741576,31.88854083,-4.23791621,-2.46302449,17.59895902,-1.56287411,0.07016381
-0.18131180

>  <Name>
2o3v_lig

>  <RI>
0

>  <Rbt.Current_Directory>
/home/afrankz/demos/rdock_decoys_rna/rnas/2o3v

>  <Rbt.Executable>
rbdock ($Id: //depot/dev/client3/rdock/2013.1/src/exe/rbdock.cxx#4 $)

>  <Rbt.Library>
libRbt.so (2013.1, Build901 2013/11/27)

>  <Rbt.Parameter_File>
/export/apps/rDock/src/rDock_2013.1_src/data/scripts/dock_solv.prm

>  <Rbt.Receptor>
prm/blind_docking_100.prm

>  <SCORE>
-10.796

>  <SCORE.INTER>
-18.5465

>  <SCORE.INTER.CONST>
1

>  <SCORE.INTER.POLAR>
-2.73073

>  <SCORE.INTER.ROT>
8

>  <SCORE.INTER.SOLV>
18.9066

>  <SCORE.INTER.VDW>
-18.4974

>  <SCORE.INTER.norm>
-0.529899

>  <SCORE.INTRA>
1.97569

>  <SCORE.INTRA.DIHEDRAL>
0.684047

>  <SCORE.INTRA.DIHEDRAL.0>
13.1227

>  <SCORE.INTRA.POLAR>
0

>  <SCORE.INTRA.POLAR.0>
0

>  <SCORE.INTRA.REPUL>
0

>  <SCORE.INTRA.REPUL.0>
0

>  <SCORE.INTRA.SOLV>
2.28354

>  <SCORE.INTRA.SOLV.lig_0>
-89.1587

>  <SCORE.INTRA.VDW>
0.491893

>  <SCORE.INTRA.VDW.0>
-0.838383

>  <SCORE.INTRA.norm>
0.0564482

>  <SCORE.RESTR>
5.77476

>  <SCORE.RESTR.CAVITY>
5.77476

>  <SCORE.RESTR.norm>
0.164993

>  <SCORE.SYSTEM>
0

>  <SCORE.SYSTEM.CONST>
0

>  <SCORE.SYSTEM.DIHEDRAL>
0

>  <SCORE.SYSTEM.SOLV>
0

>  <SCORE.SYSTEM.norm>
0

>  <SCORE.heavy>
35

>  <SCORE.norm>
-0.308458

>  <RMSD>
29.849

$$$$
2o3v_lig
 OpenBabel02141814113D
libRbt.so/2013.1/901 2013/11/27
 35 37  0  0  0  0  0  0  0  0999 V2000
   -5.9020    7.3113   20.4526 C   0  0  2  0  0  0  0  0  0  0  0  0
   -6.7396    6.5169   21.3470 O   0  0  0  0  0  0  0  0  0  0  0  0
   -5.8692    7.6597   25.4536 C   0  0  2  0  0  0  0  0  0  0  0  0
   -6.0588    7.9813   26.9002 N   0  0  0  0  0  0  0  0  0  0  0  0
   -6.3659   -0.5569   17.4838 C   0  0  2  0  0  0  0  0  0  0  0  0
   -6.9830   -0.9909   16.2524 O   0  0  0  0  0  0  0  0  0  0  0  0
   -5.7265    6.3802   19.2114 C   0  0  2  0  0  0  0  0  0  0  0  0
   -7.0370    6.0310   18.6139 N   0  0  0  0  0  0  0  0  0  0  0  0
   -6.7044    8.6701   24.5552 C   0  0  0  0  0  0  0  0  0  0  0  0
   -6.5586    0.9957   17.5854 C   0  0  2  0  0  0  0  0  0  0  0  0
   -7.9977    1.3583   17.5352 N   0  0  0  0  0  0  0  0  0  0  0  0
   -4.9360    5.0517   19.5852 C   0  0  1  0  0  0  0  0  0  0  0  0
   -4.8186    4.1603   18.4020 O   0  0  0  0  0  0  0  0  0  0  0  0
   -6.4948    8.2993   23.0232 C   0  0  2  0  0  0  0  0  0  0  0  0
   -7.2737    9.2215   22.1692 N   0  0  0  0  0  0  0  0  0  0  0  0
   -5.7549    1.7615   16.4441 C   0  0  1  0  0  0  0  0  0  0  0  0
   -5.8886    3.2032   16.5345 O   0  0  0  0  0  0  0  0  0  0  0  0
   -3.5403    5.4888   20.2134 C   0  0  2  0  0  0  0  0  0  0  0  0
   -2.7718    4.3644   20.6021 O   0  0  0  0  0  0  0  0  0  0  0  0
   -6.9517    6.8052   22.7620 C   0  0  2  0  0  0  0  0  0  0  0  0
   -4.2489    1.3610   16.5450 C   0  0  2  0  0  0  0  0  0  0  0  0
   -3.4847    2.0053   15.5448 O   0  0  0  0  0  0  0  0  0  0  0  0
   -3.7636    6.4380   21.4515 C   0  0  2  0  0  0  0  0  0  0  0  0
   -4.5689    7.6088   21.0452 O   0  0  0  0  0  0  0  0  0  0  0  0
   -6.1344    5.8246   23.6489 C   0  0  2  0  0  0  0  0  0  0  0  0
   -6.6336    4.4818   23.3863 O   0  0  0  0  0  0  0  0  0  0  0  0
   -4.1001   -0.2096   16.4427 C   0  0  2  0  0  0  0  0  0  0  0  0
   -4.9116   -0.8717   17.4897 O   0  0  0  0  0  0  0  0  0  0  0  0
   -2.4372    6.9026   22.0512 C   0  0  0  0  0  0  0  0  0  0  0  0
   -1.8993    7.9773   21.3202 O   0  0  0  0  0  0  0  0  0  0  0  0
   -6.3326    6.1839   25.1401 C   0  0  1  0  0  0  0  0  0  0  0  0
   -5.5767    5.2835   25.9224 O   0  0  0  0  0  0  0  0  0  0  0  0
   -2.6510   -0.6515   16.5801 C   0  0  0  0  0  0  0  0  0  0  0  0
   -1.9064   -0.2494   15.4559 O   0  0  0  0  0  0  0  0  0  0  0  0
   -6.1347    3.6006   17.9153 C   0  0  0  0  0  0  0  0  0  0  0  0
  1  2  1  1  0  0  0
  1  7  1  0  0  0  0
  1 24  1  0  0  0  0
  3  4  1  1  0  0  0
  3  9  1  0  0  0  0
  3 31  1  0  0  0  0
  5  6  1  6  0  0  0
  5 10  1  0  0  0  0
  5 28  1  0  0  0  0
  7  8  1  1  0  0  0
  7 12  1  0  0  0  0
  9 14  1  0  0  0  0
 10 11  1  6  0  0  0
 10 16  1  0  0  0  0
 12 13  1  6  0  0  0
 12 18  1  0  0  0  0
 13 35  1  0  0  0  0
 14 15  1  6  0  0  0
 14 20  1  0  0  0  0
 16 17  1  1  0  0  0
 16 21  1  0  0  0  0
 17 35  1  0  0  0  0
 18 19  1  1  0  0  0
 18 23  1  0  0  0  0
 20  2  1  6  0  0  0
 20 25  1  0  0  0  0
 21 22  1  6  0  0  0
 21 27  1  0  0  0  0
 23 24  1  0  0  0  0
 23 29  1  6  0  0  0
 25 26  1  1  0  0  0
 25 31  1  0  0  0  0
 27 28  1  0  0  0  0
 27 33  1  1  0  0  0
 29 30  1  0  0  0  0
 31 32  1  1  0  0  0
 33 34  1  0  0  0  0
M  END
>  <CHROM.1>
165.64497222,-66.22012272,159.42922323,27.62842848,103.94373082,16.45820625
81.04113891,-68.94983703,-5.25435201,4.39656269,20.10462534,-1.67818062,-0.49703943
-2.38249088

>  <Name>
2o3v_lig

>  <RI>
0

>  <Rbt.Current_Directory>
/home/afrankz/demos/rdock_decoys_rna/rnas/2o3v

>  <Rbt.Executable>
rbdock ($Id: //depot/dev/client3/rdock/2013.1/src/exe/rbdock.cxx#4 $)

>  <Rbt.Library>
libRbt.so (2013.1, Build901 2013/11/27)

>  <Rbt.Parameter_File>
/export/apps/rDock/src/rDock_2013.1_src/data/scripts/dock_solv.prm

>  <Rbt.Receptor>
prm/blind_docking_80.prm

>  <SCORE>
13.6008

>  <SCORE.INTER>
1.58133

>  <SCORE.INTER.CONST>
1

>  <SCORE.INTER.POLAR>
-0.454414

>  <SCORE.INTER.ROT>
8

>  <SCORE.INTER.SOLV>
29.9456

>  <SCORE.INTER.VDW>
-16.3463

>  <SCORE.INTER.norm>
0.0451807

>  <SCORE.INTRA>
8.95616

>  <SCORE.INTRA.DIHEDRAL>
7.68901

>  <SCORE.INTRA.DIHEDRAL.0>
13.1227

>  <SCORE.INTRA.POLAR>
0

>  <SCORE.INTRA.POLAR.0>
0

>  <SCORE.INTRA.REPUL>
0

>  <SCORE.INTRA.REPUL.0>
0

>  <SCORE.INTRA.SOLV>
2.50733

>  <SCORE.INTRA.SOLV.lig_0>
-89.1587

>  <SCORE.INTRA.VDW>
3.85799

>  <SCORE.INTRA.VDW.0>
-0.838383

>  <SCORE.INTRA.norm>
0.25589

>  <SCORE.RESTR>
3.06327

>  <SCORE.RESTR.CAVITY>
3.06327

>  <SCORE.RESTR.norm>
0.0875219

>  <SCORE.SYSTEM>
0

>  <SCORE.SYSTEM.CONST>
0

>  <SCORE.SYSTEM.DIHEDRAL>
0

>  <SCORE.SYSTEM.SOLV>
0

>  <SCORE.SYSTEM.norm>
0

>  <SCORE.heavy>
35

>  <SCORE.norm>
0.388593

>  <RMSD>
29.850

$$$$
2o3v_lig
 OpenBabel02141814113D
libRbt.so/2013.1/901 2013/11/27
 35 37  0  0  0  0  0  0  0  0999 V2000
   -3.7382    2.5387   15.7202 C   0  0  2  0  0  0  0  0  0  0  0  0
   -3.3855    1.3958   16.5582 O   0  0  0  0  0  0  0  0  0  0  0  0
   -3.7580   -2.9105   17.0517 C   0  0  2  0  0  0  0  0  0  0  0  0
   -4.1325   -4.3341   16.7956 N   0  0  0  0  0  0  0  0  0  0  0  0
   -4.4699    8.3259   23.9329 C   0  0  2  0  0  0  0  0  0  0  0  0
   -5.4568    9.1628   23.2915 O   0  0  0  0  0  0  0  0  0  0  0  0
   -3.2839    3.7613   16.5788 C   0  0  2  0  0  0  0  0  0  0  0  0
   -1.8346    3.6947   16.8813 N   0  0  0  0  0  0  0  0  0  0  0  0
   -5.0657   -2.0218   17.2115 C   0  0  0  0  0  0  0  0  0  0  0  0
   -3.5940    7.6808   22.8038 C   0  0  2  0  0  0  0  0  0  0  0  0
   -2.9620    8.7248   21.9579 N   0  0  0  0  0  0  0  0  0  0  0  0
   -4.1108    3.8629   17.9336 C   0  0  1  0  0  0  0  0  0  0  0  0
   -3.6335    5.0052   18.7555 O   0  0  0  0  0  0  0  0  0  0  0  0
   -4.6399   -0.5119   17.4711 C   0  0  2  0  0  0  0  0  0  0  0  0
   -5.8436    0.3354   17.6114 N   0  0  0  0  0  0  0  0  0  0  0  0
   -4.4436    6.6790   21.9041 C   0  0  1  0  0  0  0  0  0  0  0  0
   -3.6494    6.0416   20.8708 O   0  0  0  0  0  0  0  0  0  0  0  0
   -5.6528    3.9378   17.5459 C   0  0  2  0  0  0  0  0  0  0  0  0
   -6.4743    4.0062   18.6976 O   0  0  0  0  0  0  0  0  0  0  0  0
   -3.7477    0.0114   16.2714 C   0  0  2  0  0  0  0  0  0  0  0  0
   -5.0756    5.5940   22.8324 C   0  0  2  0  0  0  0  0  0  0  0  0
   -5.8536    4.6788   22.0863 O   0  0  0  0  0  0  0  0  0  0  0  0
   -6.0640    2.6948   16.6686 C   0  0  2  0  0  0  0  0  0  0  0  0
   -5.2034    2.6226   15.4692 O   0  0  0  0  0  0  0  0  0  0  0  0
   -2.4744   -0.8670   16.1183 C   0  0  2  0  0  0  0  0  0  0  0  0
   -1.7273   -0.3547   14.9779 O   0  0  0  0  0  0  0  0  0  0  0  0
   -5.9450    6.2859   23.9570 C   0  0  2  0  0  0  0  0  0  0  0  0
   -5.1209    7.2473   24.7248 O   0  0  0  0  0  0  0  0  0  0  0  0
   -7.5324    2.7614   16.2512 C   0  0  0  0  0  0  0  0  0  0  0  0
   -8.3822    2.5348   17.3491 O   0  0  0  0  0  0  0  0  0  0  0  0
   -2.8840   -2.3374   15.8690 C   0  0  1  0  0  0  0  0  0  0  0  0
   -1.7114   -3.1135   15.7394 O   0  0  0  0  0  0  0  0  0  0  0  0
   -6.5469    5.2683   24.9142 C   0  0  0  0  0  0  0  0  0  0  0  0
   -5.5744    4.8158   25.8250 O   0  0  0  0  0  0  0  0  0  0  0  0
   -4.5140    5.3262   19.9404 C   0  0  0  0  0  0  0  0  0  0  0  0
  1  2  1  1  0  0  0
  1  7  1  0  0  0  0
  1 24  1  0  0  0  0
  3  4  1  6  0  0  0
  3  9  1  0  0  0  0
  3 31  1  0  0  0  0
  5  6  1  6  0  0  0
  5 10  1  0  0  0  0
  5 28  1  0  0  0  0
  7  8  1  1  0  0  0
  7 12  1  0  0  0  0
  9 14  1  0  0  0  0
 10 11  1  6  0  0  0
 10 16  1  0  0  0  0
 12 13  1  6  0  0  0
 12 18  1  0  0  0  0
 13 35  1  0  0  0  0
 14 15  1  6  0  0  0
 14 20  1  0  0  0  0
 16 17  1  6  0  0  0
 16 21  1  0  0  0  0
 17 35  1  0  0  0  0
 18 19  1  1  0  0  0
 18 23  1  0  0  0  0
 20  2  1  1  0  0  0
 20 25  1  0  0  0  0
 21 22  1  6  0  0  0
 21 27  1  0  0  0  0
 23 24  1  0  0  0  0
 23 29  1  6  0  0  0
 25 26  1  6  0  0  0
 25 31  1  0  0  0  0
 27 28  1  0  0  0  0
 27 33  1  1  0  0  0
 29 30  1  0  0  0  0
 31 32  1  1  0  0  0
 33 34  1  0  0  0  0
M  END
>  <CHROM.1>
172.53613389,169.82441386,157.61072229,-170.04142495,166.55036716,-119.34994401
-70.99232640,77.36132119,-4.54371091,3.13194255,19.13009411,-1.16893461,1.26030487
0.35005585

>  <Name>
2o3v_lig

>  <RI>
0

>  <Rbt.Current_Directory>
/home/afrankz/demos/rdock_decoys_rna/rnas/2o3v

>  <Rbt.Executable>
rbdock ($Id: //depot/dev/client3/rdock/2013.1/src/exe/rbdock.cxx#4 $)

>  <Rbt.Library>
libRbt.so (2013.1, Build901 2013/11/27)

>  <Rbt.Parameter_File>
/export/apps/rDock/src/rDock_2013.1_src/data/scripts/dock_solv.prm

>  <Rbt.Receptor>
prm/blind_docking_80.prm

>  <SCORE>
-9.69529

>  <SCORE.INTER>
-16.4678

>  <SCORE.INTER.CONST>
1

>  <SCORE.INTER.POLAR>
-3.23754

>  <SCORE.INTER.ROT>
8

>  <SCORE.INTER.SOLV>
27.8795

>  <SCORE.INTER.VDW>
-18.4132

>  <SCORE.INTER.norm>
-0.470509

>  <SCORE.INTRA>
5.86597

>  <SCORE.INTRA.DIHEDRAL>
-0.130595

>  <SCORE.INTRA.DIHEDRAL.0>
13.1227

>  <SCORE.INTRA.POLAR>
0

>  <SCORE.INTRA.POLAR.0>
0

>  <SCORE.INTRA.REPUL>
0.259236

>  <SCORE.INTRA.REPUL.0>
0

>  <SCORE.INTRA.SOLV>
3.41004

>  <SCORE.INTRA.SOLV.lig_0>
-89.1587

>  <SCORE.INTRA.VDW>
2.93006

>  <SCORE.INTRA.VDW.0>
-0.838383

>  <SCORE.INTRA.norm>
0.167599

>  <SCORE.RESTR>
0.906574

>  <SCORE.RESTR.CAVITY>
0.906574

>  <SCORE.RESTR.norm>
0.0259021

>  <SCORE.SYSTEM>
0

>  <SCORE.SYSTEM.CONST>
0

>  <SCORE.SYSTEM.DIHEDRAL>
0

>  <SCORE.SYSTEM.SOLV>
0

>  <SCORE.SYSTEM.norm>
0

>  <SCORE.heavy>
35

>  <SCORE.norm>
-0.277008

>  <RMSD>
29.854

$$$$
2o3v_lig
 OpenBabel02141814113D
libRbt.so/2013.1/901 2013/11/27
 35 37  0  0  0  0  0  0  0  0999 V2000
   -3.8065    3.5764   16.5089 C   0  0  2  0  0  0  0  0  0  0  0  0
   -3.9474    2.3398   17.2729 O   0  0  0  0  0  0  0  0  0  0  0  0
   -4.0709   -1.9987   16.9738 C   0  0  2  0  0  0  0  0  0  0  0  0
   -4.2342   -3.3709   16.4058 N   0  0  0  0  0  0  0  0  0  0  0  0
   -6.8396    8.4708   22.8342 C   0  0  2  0  0  0  0  0  0  0  0  0
   -7.5749    8.2390   21.6131 O   0  0  0  0  0  0  0  0  0  0  0  0
   -3.0079    4.5033   17.4793 C   0  0  2  0  0  0  0  0  0  0  0  0
   -1.7042    3.9004   17.8445 N   0  0  0  0  0  0  0  0  0  0  0  0
   -5.4423   -1.2015   16.8794 C   0  0  0  0  0  0  0  0  0  0  0  0
   -5.3143    8.3320   22.4991 C   0  0  2  0  0  0  0  0  0  0  0  0
   -4.9153    9.2816   21.4295 N   0  0  0  0  0  0  0  0  0  0  0  0
   -3.8389    4.8236   18.7969 C   0  0  1  0  0  0  0  0  0  0  0  0
   -3.0450    5.6694   19.7257 O   0  0  0  0  0  0  0  0  0  0  0  0
   -5.2384    0.2571   17.4789 C   0  0  2  0  0  0  0  0  0  0  0  0
   -6.5015    1.0209   17.3900 N   0  0  0  0  0  0  0  0  0  0  0  0
   -4.9394    6.8414   22.0837 C   0  0  1  0  0  0  0  0  0  0  0  0
   -3.5262    6.6765   21.8000 O   0  0  0  0  0  0  0  0  0  0  0  0
   -5.2198    5.4724   18.3431 C   0  0  2  0  0  0  0  0  0  0  0  0
   -6.0431    5.7710   19.4562 O   0  0  0  0  0  0  0  0  0  0  0  0
   -4.0937    1.0117   16.6855 C   0  0  2  0  0  0  0  0  0  0  0  0
   -5.3634    5.8831   23.2414 C   0  0  2  0  0  0  0  0  0  0  0  0
   -5.0632    4.5386   22.9226 O   0  0  0  0  0  0  0  0  0  0  0  0
   -5.9843    4.5120   17.3547 C   0  0  2  0  0  0  0  0  0  0  0  0
   -5.1225    4.1983   16.1957 O   0  0  0  0  0  0  0  0  0  0  0  0
   -2.7579    0.2222   16.7778 C   0  0  2  0  0  0  0  0  0  0  0  0
   -1.7677    0.9503   15.9965 O   0  0  0  0  0  0  0  0  0  0  0  0
   -6.9041    6.0580   23.5498 C   0  0  2  0  0  0  0  0  0  0  0  0
   -7.2060    7.4711   23.8737 O   0  0  0  0  0  0  0  0  0  0  0  0
   -7.2974    5.1280   16.8742 C   0  0  0  0  0  0  0  0  0  0  0  0
   -7.9988    5.7213   17.9395 O   0  0  0  0  0  0  0  0  0  0  0  0
   -2.9527   -1.1987   16.1989 C   0  0  1  0  0  0  0  0  0  0  0  0
   -1.7286   -1.8954   16.2996 O   0  0  0  0  0  0  0  0  0  0  0  0
   -7.3549    5.1741   24.7029 C   0  0  0  0  0  0  0  0  0  0  0  0
   -6.7059    5.5507   25.8932 O   0  0  0  0  0  0  0  0  0  0  0  0
   -3.2838    5.3757   21.1882 C   0  0  0  0  0  0  0  0  0  0  0  0
  1  2  1  1  0  0  0
  1  7  1  0  0  0  0
  1 24  1  0  0  0  0
  3  4  1  6  0  0  0
  3  9  1  0  0  0  0
  3 31  1  0  0  0  0
  5  6  1  6  0  0  0
  5 10  1  0  0  0  0
  5 28  1  0  0  0  0
  7  8  1  1  0  0  0
  7 12  1  0  0  0  0
  9 14  1  0  0  0  0
 10 11  1  6  0  0  0
 10 16  1  0  0  0  0
 12 13  1  1  0  0  0
 12 18  1  0  0  0  0
 13 35  1  0  0  0  0
 14 15  1  6  0  0  0
 14 20  1  0  0  0  0
 16 17  1  1  0  0  0
 16 21  1  0  0  0  0
 17 35  1  0  0  0  0
 18 19  1  1  0  0  0
 18 23  1  0  0  0  0
 20  2  1  1  0  0  0
 20 25  1  0  0  0  0
 21 22  1  6  0  0  0
 21 27  1  0  0  0  0
 23 24  1  0  0  0  0
 23 29  1  6  0  0  0
 25 26  1  6  0  0  0
 25 31  1  0  0  0  0
 27 28  1  0  0  0  0
 27 33  1  1  0  0  0
 29 30  1  0  0  0  0
 31 32  1  1  0  0  0
 33 34  1  0  0  0  0
M  END
>  <CHROM.1>
-152.84137020,-145.19782557,-130.75470997,-169.32224788,104.80721742,-135.85279272
-44.09024768,63.73864096,-4.89035005,3.95961335,19.41930786,-0.52583865,1.27408739
-0.31041737

>  <Name>
2o3v_lig

>  <RI>
0

>  <Rbt.Current_Directory>
/home/afrankz/demos/rdock_decoys_rna/rnas/2o3v

>  <Rbt.Executable>
rbdock ($Id: //depot/dev/client3/rdock/2013.1/src/exe/rbdock.cxx#4 $)

>  <Rbt.Library>
libRbt.so (2013.1, Build901 2013/11/27)

>  <Rbt.Parameter_File>
/export/apps/rDock/src/rDock_2013.1_src/data/scripts/dock_solv.prm

>  <Rbt.Receptor>
prm/blind_docking_80.prm

>  <SCORE>
-12.1163

>  <SCORE.INTER>
-21.201

>  <SCORE.INTER.CONST>
1

>  <SCORE.INTER.POLAR>
-3.33757

>  <SCORE.INTER.ROT>
8

>  <SCORE.INTER.SOLV>
30.8379

>  <SCORE.INTER.VDW>
-22.2214

>  <SCORE.INTER.norm>
-0.605744

>  <SCORE.INTRA>
8.2132

>  <SCORE.INTRA.DIHEDRAL>
14.7311

>  <SCORE.INTRA.DIHEDRAL.0>
13.1227

>  <SCORE.INTRA.POLAR>
0

>  <SCORE.INTRA.POLAR.0>
0

>  <SCORE.INTRA.REPUL>
0

>  <SCORE.INTRA.REPUL.0>
0

>  <SCORE.INTRA.SOLV>
2.29966

>  <SCORE.INTRA.SOLV.lig_0>
-89.1587

>  <SCORE.INTRA.VDW>
-0.302191

>  <SCORE.INTRA.VDW.0>
-0.838383

>  <SCORE.INTRA.norm>
0.234663

>  <SCORE.RESTR>
0.871517

>  <SCORE.RESTR.CAVITY>
0.871517

>  <SCORE.RESTR.norm>
0.0249005

>  <SCORE.SYSTEM>
0

>  <SCORE.SYSTEM.CONST>
0

>  <SCORE.SYSTEM.DIHEDRAL>
0

>  <SCORE.SYSTEM.SOLV>
0

>  <SCORE.SYSTEM.norm>
0

>  <SCORE.heavy>
35

>  <SCORE.norm>
-0.346181

>  <RMSD>
29.855

$$$$
2o3v_lig
 OpenBabel02141814113D
libRbt.so/2013.1/901 2013/11/27
 35 37  0  0  0  0  0  0  0  0999 V2000
   -4.8197    5.2554   22.7687 C   0  0  2  0  0  0  0  0  0  0  0  0
   -3.9882    6.3521   23.2573 O   0  0  0  0  0  0  0  0  0  0  0  0
   -4.5077    9.6713   26.0213 C   0  0  2  0  0  0  0  0  0  0  0  0
   -4.9984   10.9523   26.6134 N   0  0  0  0  0  0  0  0  0  0  0  0
   -4.3501    4.4009   15.1881 C   0  0  2  0  0  0  0  0  0  0  0  0
   -3.4734    3.9910   14.1162 O   0  0  0  0  0  0  0  0  0  0  0  0
   -4.0691    4.7879   21.4817 C   0  0  2  0  0  0  0  0  0  0  0  0
   -2.6834    4.3649   21.7935 N   0  0  0  0  0  0  0  0  0  0  0  0
   -3.7732    9.9535   24.6407 C   0  0  0  0  0  0  0  0  0  0  0  0
   -3.4478    4.8324   16.3956 C   0  0  2  0  0  0  0  0  0  0  0  0
   -2.5160    5.9197   16.0024 N   0  0  0  0  0  0  0  0  0  0  0  0
   -4.0457    5.9277   20.3728 C   0  0  1  0  0  0  0  0  0  0  0  0
   -3.2894    5.4791   19.1748 O   0  0  0  0  0  0  0  0  0  0  0  0
   -3.2719    8.5749   24.0270 C   0  0  2  0  0  0  0  0  0  0  0  0
   -2.5947    8.8140   22.7344 N   0  0  0  0  0  0  0  0  0  0  0  0
   -2.6377    3.5981   16.9916 C   0  0  1  0  0  0  0  0  0  0  0  0
   -1.8190    3.9625   18.1324 O   0  0  0  0  0  0  0  0  0  0  0  0
   -5.5557    6.3345   20.0761 C   0  0  2  0  0  0  0  0  0  0  0  0
   -5.6341    7.3685   19.1113 O   0  0  0  0  0  0  0  0  0  0  0  0
   -4.5009    7.5971   23.8204 C   0  0  2  0  0  0  0  0  0  0  0  0
   -3.6570    2.4888   17.4029 C   0  0  2  0  0  0  0  0  0  0  0  0
   -2.9911    1.3589   17.9314 O   0  0  0  0  0  0  0  0  0  0  0  0
   -6.2785    6.7845   21.4023 C   0  0  2  0  0  0  0  0  0  0  0  0
   -6.1924    5.7061   22.4093 O   0  0  0  0  0  0  0  0  0  0  0  0
   -5.2170    7.3316   25.1742 C   0  0  2  0  0  0  0  0  0  0  0  0
   -6.3534    6.4625   24.9018 O   0  0  0  0  0  0  0  0  0  0  0  0
   -4.5479    2.0870   16.1602 C   0  0  2  0  0  0  0  0  0  0  0  0
   -5.2325    3.2801   15.6117 O   0  0  0  0  0  0  0  0  0  0  0  0
   -7.7419    7.1453   21.1512 C   0  0  0  0  0  0  0  0  0  0  0  0
   -8.1573    8.1929   21.9932 O   0  0  0  0  0  0  0  0  0  0  0  0
   -5.7033    8.6706   25.7766 C   0  0  1  0  0  0  0  0  0  0  0  0
   -6.3441    8.4025   27.0061 O   0  0  0  0  0  0  0  0  0  0  0  0
   -5.5877    1.0379   16.5241 C   0  0  0  0  0  0  0  0  0  0  0  0
   -4.9654   -0.1058   17.0576 O   0  0  0  0  0  0  0  0  0  0  0  0
   -2.6503    4.1179   19.3198 C   0  0  0  0  0  0  0  0  0  0  0  0
  1  2  1  6  0  0  0
  1  7  1  0  0  0  0
  1 24  1  0  0  0  0
  3  4  1  6  0  0  0
  3  9  1  0  0  0  0
  3 31  1  0  0  0  0
  5  6  1  6  0  0  0
  5 10  1  0  0  0  0
  5 28  1  0  0  0  0
  7  8  1  1  0  0  0
  7 12  1  0  0  0  0
  9 14  1  0  0  0  0
 10 11  1  6  0  0  0
 10 16  1  0  0  0  0
 12 13  1  6  0  0  0
 12 18  1  0  0  0  0
 13 35  1  0  0  0  0
 14 15  1  6  0  0  0
 14 20  1  0  0  0  0
 16 17  1  1  0  0  0
 16 21  1  0  0  0  0
 17 35  1  0  0  0  0
 18 19  1  6  0  0  0
 18 23  1  0  0  0  0
 20  2  1  1  0  0  0
 20 25  1  0  0  0  0
 21 22  1  6  0  0  0
 21 27  1  0  0  0  0
 23 24  1  0  0  0  0
 23 29  1  6  0  0  0
 25 26  1  6  0  0  0
 25 31  1  0  0  0  0
 27 28  1  0  0  0  0
 27 33  1  1  0  0  0
 29 30  1  0  0  0  0
 31 32  1  1  0  0  0
 33 34  1  0  0  0  0
M  END
>  <CHROM.1>
139.97966683,-4.02134116,-172.19370849,76.53708664,-78.71097616,-172.13901269
-146.00026948,-57.24304487,-4.52224163,5.70746203,20.60926547,1.73154345
0.60467475,0.89759988

>  <Name>
2o3v_lig

>  <RI>
0

>  <Rbt.Current_Directory>
/home/afrankz/demos/rdock_decoys_rna/rnas/2o3v

>  <Rbt.Executable>
rbdock ($Id: //depot/dev/client3/rdock/2013.1/src/exe/rbdock.cxx#4 $)

>  <Rbt.Library>
libRbt.so (2013.1, Build901 2013/11/27)

>  <Rbt.Parameter_File>
/export/apps/rDock/src/rDock_2013.1_src/data/scripts/dock_solv.prm

>  <Rbt.Receptor>
prm/blind_docking_80.prm

>  <SCORE>
48.1658

>  <SCORE.INTER>
31.8041

>  <SCORE.INTER.CONST>
1

>  <SCORE.INTER.POLAR>
-1.06191

>  <SCORE.INTER.ROT>
8

>  <SCORE.INTER.SOLV>
31.6691

>  <SCORE.INTER.VDW>
5.25269

>  <SCORE.INTER.norm>
0.908687

>  <SCORE.INTRA>
12.5825

>  <SCORE.INTRA.DIHEDRAL>
6.09291

>  <SCORE.INTRA.DIHEDRAL.0>
13.1227

>  <SCORE.INTRA.POLAR>
0

>  <SCORE.INTRA.POLAR.0>
0

>  <SCORE.INTRA.REPUL>
0

>  <SCORE.INTRA.REPUL.0>
0

>  <SCORE.INTRA.SOLV>
2.104

>  <SCORE.INTRA.SOLV.lig_0>
-89.1587

>  <SCORE.INTRA.VDW>
8.48405

>  <SCORE.INTRA.VDW.0>
-0.838383

>  <SCORE.INTRA.norm>
0.3595

>  <SCORE.RESTR>
3.77924

>  <SCORE.RESTR.CAVITY>
3.77924

>  <SCORE.RESTR.norm>
0.107978

>  <SCORE.SYSTEM>
0

>  <SCORE.SYSTEM.CONST>
0

>  <SCORE.SYSTEM.DIHEDRAL>
0

>  <SCORE.SYSTEM.SOLV>
0

>  <SCORE.SYSTEM.norm>
0

>  <SCORE.heavy>
35

>  <SCORE.norm>
1.37617

>  <RMSD>
29.900

$$$$
2o3v_lig
 OpenBabel02141814113D
libRbt.so/2013.1/901 2013/11/27
 35 37  0  0  0  0  0  0  0  0999 V2000
   -3.3164    3.4498   16.5527 C   0  0  2  0  0  0  0  0  0  0  0  0
   -3.2202    2.1841   17.2748 O   0  0  0  0  0  0  0  0  0  0  0  0
   -3.1903   -1.8688   15.6936 C   0  0  2  0  0  0  0  0  0  0  0  0
   -2.7016   -3.1472   15.0944 N   0  0  0  0  0  0  0  0  0  0  0  0
   -5.0368    9.3796   22.8770 C   0  0  2  0  0  0  0  0  0  0  0  0
   -5.6146    9.5494   21.5644 O   0  0  0  0  0  0  0  0  0  0  0  0
   -2.7847    4.4902   17.5887 C   0  0  2  0  0  0  0  0  0  0  0  0
   -1.3995    4.1699   18.0070 N   0  0  0  0  0  0  0  0  0  0  0  0
   -2.9597   -0.6669   14.6799 C   0  0  0  0  0  0  0  0  0  0  0  0
   -3.7395    8.5146   22.7122 C   0  0  2  0  0  0  0  0  0  0  0  0
   -2.7866    9.1573   21.7721 N   0  0  0  0  0  0  0  0  0  0  0  0
   -3.7260    4.5737   18.8680 C   0  0  1  0  0  0  0  0  0  0  0  0
   -3.1792    5.5356   19.8600 O   0  0  0  0  0  0  0  0  0  0  0  0
   -3.4768    0.6815   15.3454 C   0  0  2  0  0  0  0  0  0  0  0  0
   -3.2607    1.8159   14.4219 N   0  0  0  0  0  0  0  0  0  0  0  0
   -4.0793    7.0356   22.2307 C   0  0  1  0  0  0  0  0  0  0  0  0
   -2.8987    6.2023   22.1018 O   0  0  0  0  0  0  0  0  0  0  0  0
   -5.1923    4.9254   18.3582 C   0  0  2  0  0  0  0  0  0  0  0  0
   -6.1117    4.9970   19.4332 O   0  0  0  0  0  0  0  0  0  0  0  0
   -2.7103    0.9398   16.7074 C   0  0  2  0  0  0  0  0  0  0  0  0
   -5.0703    6.3967   23.2545 C   0  0  2  0  0  0  0  0  0  0  0  0
   -5.4173    5.0806   22.8710 O   0  0  0  0  0  0  0  0  0  0  0  0
   -5.6825    3.8603   17.3051 C   0  0  2  0  0  0  0  0  0  0  0  0
   -4.7201    3.7840   16.1860 O   0  0  0  0  0  0  0  0  0  0  0  0
   -2.9361   -0.2430   17.6903 C   0  0  2  0  0  0  0  0  0  0  0  0
   -2.1737    0.0435   18.8977 O   0  0  0  0  0  0  0  0  0  0  0  0
   -6.3596    7.3009   23.3938 C   0  0  2  0  0  0  0  0  0  0  0  0
   -5.9816    8.6775   23.7873 O   0  0  0  0  0  0  0  0  0  0  0  0
   -7.0745    4.1957   16.7714 C   0  0  0  0  0  0  0  0  0  0  0  0
   -8.0767    3.6118   17.5673 O   0  0  0  0  0  0  0  0  0  0  0  0
   -2.4376   -1.5574   17.0454 C   0  0  1  0  0  0  0  0  0  0  0  0
   -2.6589   -2.6149   17.9547 O   0  0  0  0  0  0  0  0  0  0  0  0
   -7.3372    6.7401   24.4155 C   0  0  0  0  0  0  0  0  0  0  0  0
   -8.0802    5.6841   23.8562 O   0  0  0  0  0  0  0  0  0  0  0  0
   -3.1949    5.0322   21.2843 C   0  0  0  0  0  0  0  0  0  0  0  0
  1  2  1  1  0  0  0
  1  7  1  0  0  0  0
  1 24  1  0  0  0  0
  3  4  1  6  0  0  0
  3  9  1  0  0  0  0
  3 31  1  0  0  0  0
  5  6  1  6  0  0  0
  5 10  1  0  0  0  0
  5 28  1  0  0  0  0
  7  8  1  1  0  0  0
  7 12  1  0  0  0  0
  9 14  1  0  0  0  0
 10 11  1  6  0  0  0
 10 16  1  0  0  0  0
 12 13  1  1  0  0  0
 12 18  1  0  0  0  0
 13 35  1  0  0  0  0
 14 15  1  6  0  0  0
 14 20  1  0  0  0  0
 16 17  1  1  0  0  0
 16 21  1  0  0  0  0
 17 35  1  0  0  0  0
 18 19  1  1  0  0  0
 18 23  1  0  0  0  0
 20  2  1  1  0  0  0
 20 25  1  0  0  0  0
 21 22  1  6  0  0  0
 21 27  1  0  0  0  0
 23 24  1  0  0  0  0
 23 29  1  6  0  0  0
 25 26  1  1  0  0  0
 25 31  1  0  0  0  0
 27 28  1  0  0  0  0
 27 33  1  1  0  0  0
 29 30  1  0  0  0  0
 31 32  1  1  0  0  0
 33 34  1  0  0  0  0
M  END
>  <CHROM.1>
-136.20079127,-134.88650558,-168.22783951,-162.42153424,77.98358458,-51.34596740
-89.43044534,-79.16025797,-4.28194913,3.96447004,19.28837003,1.26635811,0.75716502
-2.23603857

>  <Name>
2o3v_lig

>  <RI>
0

>  <Rbt.Current_Directory>
/home/afrankz/demos/rdock_decoys_rna/rnas/2o3v

>  <Rbt.Executable>
rbdock ($Id: //depot/dev/client3/rdock/2013.1/src/exe/rbdock.cxx#4 $)

>  <Rbt.Library>
libRbt.so (2013.1, Build901 2013/11/27)

>  <Rbt.Parameter_File>
/export/apps/rDock/src/rDock_2013.1_src/data/scripts/dock_solv.prm

>  <Rbt.Receptor>
prm/blind_docking_80.prm

>  <SCORE>
-6.44836

>  <SCORE.INTER>
-11.8716

>  <SCORE.INTER.CONST>
1

>  <SCORE.INTER.POLAR>
-2.53943

>  <SCORE.INTER.ROT>
8

>  <SCORE.INTER.SOLV>
31.9912

>  <SCORE.INTER.VDW>
-19.0467

>  <SCORE.INTER.norm>
-0.339189

>  <SCORE.INTRA>
3.36128

>  <SCORE.INTRA.DIHEDRAL>
6.70064

>  <SCORE.INTRA.DIHEDRAL.0>
13.1227

>  <SCORE.INTRA.POLAR>
0

>  <SCORE.INTRA.POLAR.0>
0

>  <SCORE.INTRA.REPUL>
0

>  <SCORE.INTRA.REPUL.0>
0

>  <SCORE.INTRA.SOLV>
1.358

>  <SCORE.INTRA.SOLV.lig_0>
-89.1587

>  <SCORE.INTRA.VDW>
-0.668037

>  <SCORE.INTRA.VDW.0>
-0.838383

>  <SCORE.INTRA.norm>
0.0960367

>  <SCORE.RESTR>
2.06197

>  <SCORE.RESTR.CAVITY>
2.06197

>  <SCORE.RESTR.norm>
0.0589134

>  <SCORE.SYSTEM>
0

>  <SCORE.SYSTEM.CONST>
0

>  <SCORE.SYSTEM.DIHEDRAL>
0

>  <SCORE.SYSTEM.SOLV>
0

>  <SCORE.SYSTEM.norm>
0

>  <SCORE.heavy>
35

>  <SCORE.norm>
-0.184239

>  <RMSD>
29.905

$$$$
2o3v_lig
 OpenBabel02141814113D
libRbt.so/2013.1/901 2013/11/27
 35 37  0  0  0  0  0  0  0  0999 V2000
   -3.4631    3.1111   16.3551 C   0  0  2  0  0  0  0  0  0  0  0  0
   -3.0856    1.9619   17.1734 O   0  0  0  0  0  0  0  0  0  0  0  0
   -3.2884   -2.1171   15.6741 C   0  0  2  0  0  0  0  0  0  0  0  0
   -2.8716   -3.4383   15.1147 N   0  0  0  0  0  0  0  0  0  0  0  0
   -6.7462    8.7236   22.7009 C   0  0  2  0  0  0  0  0  0  0  0  0
   -7.6129    8.4704   21.5739 O   0  0  0  0  0  0  0  0  0  0  0  0
   -3.0071    4.3278   17.2213 C   0  0  2  0  0  0  0  0  0  0  0  0
   -1.5525    4.2721   17.4997 N   0  0  0  0  0  0  0  0  0  0  0  0
   -2.9487   -0.9558   14.6439 C   0  0  0  0  0  0  0  0  0  0  0  0
   -5.2717    8.4846   22.2241 C   0  0  2  0  0  0  0  0  0  0  0  0
   -4.9379    9.3552   21.0685 N   0  0  0  0  0  0  0  0  0  0  0  0
   -3.8130    4.4047   18.5903 C   0  0  1  0  0  0  0  0  0  0  0  0
   -3.3337    5.5418   19.4183 O   0  0  0  0  0  0  0  0  0  0  0  0
   -3.3909    0.4385   15.2674 C   0  0  2  0  0  0  0  0  0  0  0  0
   -3.0726    1.5354   14.3283 N   0  0  0  0  0  0  0  0  0  0  0  0
   -5.0152    6.9565   21.8581 C   0  0  1  0  0  0  0  0  0  0  0  0
   -3.6483    6.7003   21.4451 O   0  0  0  0  0  0  0  0  0  0  0  0
   -5.3617    4.4688   18.2283 C   0  0  2  0  0  0  0  0  0  0  0  0
   -6.1651    4.5150   19.3937 O   0  0  0  0  0  0  0  0  0  0  0  0
   -2.6463    0.6740   16.6456 C   0  0  2  0  0  0  0  0  0  0  0  0
   -5.3655    6.0831   23.1043 C   0  0  2  0  0  0  0  0  0  0  0  0
   -5.1661    4.7097   22.8333 O   0  0  0  0  0  0  0  0  0  0  0  0
   -5.7747    3.2324   17.3426 C   0  0  2  0  0  0  0  0  0  0  0  0
   -4.9328    3.1833   16.1287 O   0  0  0  0  0  0  0  0  0  0  0  0
   -2.9791   -0.4693   17.6448 C   0  0  2  0  0  0  0  0  0  0  0  0
   -2.2324   -0.2088   18.8678 O   0  0  0  0  0  0  0  0  0  0  0  0
   -6.8560    6.3576   23.5540 C   0  0  2  0  0  0  0  0  0  0  0  0
   -7.0532    7.7997   23.8262 O   0  0  0  0  0  0  0  0  0  0  0  0
   -7.2502    3.2892   16.9496 C   0  0  0  0  0  0  0  0  0  0  0  0
   -7.6177    2.1601   16.1954 O   0  0  0  0  0  0  0  0  0  0  0  0
   -2.5537   -1.8280   17.0407 C   0  0  1  0  0  0  0  0  0  0  0  0
   -2.8715   -2.8482   17.9640 O   0  0  0  0  0  0  0  0  0  0  0  0
   -7.2297    5.5596   24.7940 C   0  0  0  0  0  0  0  0  0  0  0  0
   -7.3816    4.1978   24.4742 O   0  0  0  0  0  0  0  0  0  0  0  0
   -3.5300    5.3517   20.9042 C   0  0  0  0  0  0  0  0  0  0  0  0
  1  2  1  1  0  0  0
  1  7  1  0  0  0  0
  1 24  1  0  0  0  0
  3  4  1  6  0  0  0
  3  9  1  0  0  0  0
  3 31  1  0  0  0  0
  5  6  1  6  0  0  0
  5 10  1  0  0  0  0
  5 28  1  0  0  0  0
  7  8  1  1  0  0  0
  7 12  1  0  0  0  0
  9 14  1  0  0  0  0
 10 11  1  6  0  0  0
 10 16  1  0  0  0  0
 12 13  1  6  0  0  0
 12 18  1  0  0  0  0
 13 35  1  0  0  0  0
 14 15  1  6  0  0  0
 14 20  1  0  0  0  0
 16 17  1  1  0  0  0
 16 21  1  0  0  0  0
 17 35  1  0  0  0  0
 18 19  1  1  0  0  0
 18 23  1  0  0  0  0
 20  2  1  1  0  0  0
 20 25  1  0  0  0  0
 21 22  1  6  0  0  0
 21 27  1  0  0  0  0
 23 24  1  0  0  0  0
 23 29  1  6  0  0  0
 25 26  1  1  0  0  0
 25 31  1  0  0  0  0
 27 28  1  0  0  0  0
 27 33  1  1  0  0  0
 29 30  1  0  0  0  0
 31 32  1  1  0  0  0
 33 34  1  0  0  0  0
M  END
>  <CHROM.1>
-146.94676284,-153.17859926,-152.61055290,-170.14178155,108.70323291,-31.81811150
-178.12943355,-72.54913507,-4.60321541,3.55805438,19.13368041,-0.35396483
1.26567569,-0.48963442

>  <Name>
2o3v_lig

>  <RI>
0

>  <Rbt.Current_Directory>
/home/afrankz/demos/rdock_decoys_rna/rnas/2o3v

>  <Rbt.Executable>
rbdock ($Id: //depot/dev/client3/rdock/2013.1/src/exe/rbdock.cxx#4 $)

>  <Rbt.Library>
libRbt.so (2013.1, Build901 2013/11/27)

>  <Rbt.Parameter_File>
/export/apps/rDock/src/rDock_2013.1_src/data/scripts/dock_solv.prm

>  <Rbt.Receptor>
prm/blind_docking_80.prm

>  <SCORE>
-10.7705

>  <SCORE.INTER>
-18.5747

>  <SCORE.INTER.CONST>
1

>  <SCORE.INTER.POLAR>
-3.04897

>  <SCORE.INTER.ROT>
8

>  <SCORE.INTER.SOLV>
31.5445

>  <SCORE.INTER.VDW>
-21.6681

>  <SCORE.INTER.norm>
-0.530705

>  <SCORE.INTRA>
6.14167

>  <SCORE.INTRA.DIHEDRAL>
8.05661

>  <SCORE.INTRA.DIHEDRAL.0>
13.1227

>  <SCORE.INTRA.POLAR>
0

>  <SCORE.INTRA.POLAR.0>
0

>  <SCORE.INTRA.REPUL>
0

>  <SCORE.INTRA.REPUL.0>
0

>  <SCORE.INTRA.SOLV>
0.920555

>  <SCORE.INTRA.SOLV.lig_0>
-89.1587

>  <SCORE.INTRA.VDW>
1.65309

>  <SCORE.INTRA.VDW.0>
-0.838383

>  <SCORE.INTRA.norm>
0.175476

>  <SCORE.RESTR>
1.6625

>  <SCORE.RESTR.CAVITY>
1.6625

>  <SCORE.RESTR.norm>
0.0475

>  <SCORE.SYSTEM>
0

>  <SCORE.SYSTEM.CONST>
0

>  <SCORE.SYSTEM.DIHEDRAL>
0

>  <SCORE.SYSTEM.SOLV>
0

>  <SCORE.SYSTEM.norm>
0

>  <SCORE.heavy>
35

>  <SCORE.norm>
-0.307728

>  <RMSD>
29.907

$$$$
2o3v_lig
 OpenBabel02141814113D
libRbt.so/2013.1/901 2013/11/27
 35 37  0  0  0  0  0  0  0  0999 V2000
   -3.4340    2.8787   16.0893 C   0  0  2  0  0  0  0  0  0  0  0  0
   -3.0315    1.8032   16.9916 O   0  0  0  0  0  0  0  0  0  0  0  0
   -3.2311   -2.3589   15.7408 C   0  0  2  0  0  0  0  0  0  0  0  0
   -2.8108   -3.7171   15.2817 N   0  0  0  0  0  0  0  0  0  0  0  0
   -4.1972    7.1468   24.3474 C   0  0  2  0  0  0  0  0  0  0  0  0
   -4.2287    8.5842   24.4837 O   0  0  0  0  0  0  0  0  0  0  0  0
   -3.0931    4.1684   16.9010 C   0  0  2  0  0  0  0  0  0  0  0  0
   -1.6535    4.2175   17.2491 N   0  0  0  0  0  0  0  0  0  0  0  0
   -2.8347   -1.2681   14.6553 C   0  0  0  0  0  0  0  0  0  0  0  0
   -3.8299    6.8230   22.8579 C   0  0  2  0  0  0  0  0  0  0  0  0
   -2.5315    7.4384   22.4836 N   0  0  0  0  0  0  0  0  0  0  0  0
   -3.9692    4.2741   18.2241 C   0  0  1  0  0  0  0  0  0  0  0  0
   -3.5987    5.4838   19.0037 O   0  0  0  0  0  0  0  0  0  0  0  0
   -3.2820    0.1674   15.1729 C   0  0  2  0  0  0  0  0  0  0  0  0
   -2.9115    1.1998   14.1813 N   0  0  0  0  0  0  0  0  0  0  0  0
   -4.9748    7.2943   21.8569 C   0  0  1  0  0  0  0  0  0  0  0  0
   -4.6760    6.9767   20.4732 O   0  0  0  0  0  0  0  0  0  0  0  0
   -5.4991    4.2229   17.7878 C   0  0  2  0  0  0  0  0  0  0  0  0
   -6.3608    4.2866   18.9100 O   0  0  0  0  0  0  0  0  0  0  0  0
   -2.5895    0.4800   16.5628 C   0  0  2  0  0  0  0  0  0  0  0  0
   -6.3144    6.6127   22.2803 C   0  0  2  0  0  0  0  0  0  0  0  0
   -7.3738    7.0043   21.4294 O   0  0  0  0  0  0  0  0  0  0  0  0
   -5.7950    2.9150   16.9598 C   0  0  2  0  0  0  0  0  0  0  0  0
   -4.8924    2.8480   15.7913 O   0  0  0  0  0  0  0  0  0  0  0  0
   -2.9775   -0.5948   17.6166 C   0  0  2  0  0  0  0  0  0  0  0  0
   -2.2764   -0.2670   18.8504 O   0  0  0  0  0  0  0  0  0  0  0  0
   -6.6444    6.9605   23.7867 C   0  0  2  0  0  0  0  0  0  0  0  0
   -5.5241    6.5532   24.6653 O   0  0  0  0  0  0  0  0  0  0  0  0
   -7.2500    2.8593   16.4963 C   0  0  0  0  0  0  0  0  0  0  0  0
   -7.4255    1.8889   15.4930 O   0  0  0  0  0  0  0  0  0  0  0  0
   -2.5473   -1.9934   17.1155 C   0  0  1  0  0  0  0  0  0  0  0  0
   -2.9156   -2.9502   18.0866 O   0  0  0  0  0  0  0  0  0  0  0  0
   -7.9213    6.2814   24.2583 C   0  0  0  0  0  0  0  0  0  0  0  0
   -8.8937    6.3036   23.2415 O   0  0  0  0  0  0  0  0  0  0  0  0
   -4.2717    5.5813   20.3527 C   0  0  0  0  0  0  0  0  0  0  0  0
  1  2  1  1  0  0  0
  1  7  1  0  0  0  0
  1 24  1  0  0  0  0
  3  4  1  6  0  0  0
  3  9  1  0  0  0  0
  3 31  1  0  0  0  0
  5  6  1  6  0  0  0
  5 10  1  0  0  0  0
  5 28  1  0  0  0  0
  7  8  1  1  0  0  0
  7 12  1  0  0  0  0
  9 14  1  0  0  0  0
 10 11  1  6  0  0  0
 10 16  1  0  0  0  0
 12 13  1  6  0  0  0
 12 18  1  0  0  0  0
 13 35  1  0  0  0  0
 14 15  1  6  0  0  0
 14 20  1  0  0  0  0
 16 17  1  6  0  0  0
 16 21  1  0  0  0  0
 17 35  1  0  0  0  0
 18 19  1  1  0  0  0
 18 23  1  0  0  0  0
 20  2  1  1  0  0  0
 20 25  1  0  0  0  0
 21 22  1  6  0  0  0
 21 27  1  0  0  0  0
 23 24  1  0  0  0  0
 23 29  1  6  0  0  0
 25 26  1  1  0  0  0
 25 31  1  0  0  0  0
 27 28  1  0  0  0  0
 27 33  1  1  0  0  0
 29 30  1  0  0  0  0
 31 32  1  1  0  0  0
 33 34  1  0  0  0  0
M  END
>  <CHROM.1>
-151.90248100,-173.47300659,-137.27519997,49.28987916,-163.27410910,-28.10463686
165.03918787,-39.52460801,-4.49024551,3.46572565,19.05995347,1.29897733,0.57320738
-2.24494679

>  <Name>
2o3v_lig

>  <RI>
0

>  <Rbt.Current_Directory>
/home/afrankz/demos/rdock_decoys_rna/rnas/2o3v

>  <Rbt.Executable>
rbdock ($Id: //depot/dev/client3/rdock/2013.1/src/exe/rbdock.cxx#4 $)

>  <Rbt.Library>
libRbt.so (2013.1, Build901 2013/11/27)

>  <Rbt.Parameter_File>
/export/apps/rDock/src/rDock_2013.1_src/data/scripts/dock_solv.prm

>  <Rbt.Receptor>
prm/blind_docking_80.prm

>  <SCORE>
0.169781

>  <SCORE.INTER>
-8.53767

>  <SCORE.INTER.CONST>
1

>  <SCORE.INTER.POLAR>
-3.17942

>  <SCORE.INTER.ROT>
8

>  <SCORE.INTER.SOLV>
30.3674

>  <SCORE.INTER.VDW>
-14.1495

>  <SCORE.INTER.norm>
-0.243934

>  <SCORE.INTRA>
6.13305

>  <SCORE.INTRA.DIHEDRAL>
4.13015

>  <SCORE.INTRA.DIHEDRAL.0>
13.1227

>  <SCORE.INTRA.POLAR>
0

>  <SCORE.INTRA.POLAR.0>
0

>  <SCORE.INTRA.REPUL>
0

>  <SCORE.INTRA.REPUL.0>
0

>  <SCORE.INTRA.SOLV>
1.60132

>  <SCORE.INTRA.SOLV.lig_0>
-89.1587

>  <SCORE.INTRA.VDW>
3.26731

>  <SCORE.INTRA.VDW.0>
-0.838383

>  <SCORE.INTRA.norm>
0.17523

>  <SCORE.RESTR>
2.57441

>  <SCORE.RESTR.CAVITY>
2.57441

>  <SCORE.RESTR.norm>
0.0735545

>  <SCORE.SYSTEM>
0

>  <SCORE.SYSTEM.CONST>
0

>  <SCORE.SYSTEM.DIHEDRAL>
0

>  <SCORE.SYSTEM.SOLV>
0

>  <SCORE.SYSTEM.norm>
0

>  <SCORE.heavy>
35

>  <SCORE.norm>
0.00485089

>  <RMSD>
29.917

$$$$
2o3v_lig
 OpenBabel02141814113D
libRbt.so/2013.1/901 2013/11/27
 35 37  0  0  0  0  0  0  0  0999 V2000
   -3.5641    2.8689   16.1743 C   0  0  2  0  0  0  0  0  0  0  0  0
   -3.1491    1.7694   17.0413 O   0  0  0  0  0  0  0  0  0  0  0  0
   -3.2360   -2.3590   15.6718 C   0  0  2  0  0  0  0  0  0  0  0  0
   -2.7797   -3.6899   15.1690 N   0  0  0  0  0  0  0  0  0  0  0  0
   -6.2874    6.0538   24.1157 C   0  0  2  0  0  0  0  0  0  0  0  0
   -5.0636    6.2705   24.8513 O   0  0  0  0  0  0  0  0  0  0  0  0
   -3.0450    4.1323   16.9310 C   0  0  2  0  0  0  0  0  0  0  0  0
   -1.5769    4.0750   17.1254 N   0  0  0  0  0  0  0  0  0  0  0  0
   -2.8848   -1.2257   14.6146 C   0  0  0  0  0  0  0  0  0  0  0  0
   -5.8923    5.6235   22.6607 C   0  0  2  0  0  0  0  0  0  0  0  0
   -5.0397    4.4079   22.6777 N   0  0  0  0  0  0  0  0  0  0  0  0
   -3.7662    4.3077   18.3377 C   0  0  1  0  0  0  0  0  0  0  0  0
   -3.2270    5.4890   19.0603 O   0  0  0  0  0  0  0  0  0  0  0  0
   -3.3697    0.1798   15.1783 C   0  0  2  0  0  0  0  0  0  0  0  0
   -3.0417    1.2513   14.2136 N   0  0  0  0  0  0  0  0  0  0  0  0
   -5.1601    6.8022   21.8800 C   0  0  1  0  0  0  0  0  0  0  0  0
   -4.8127    6.4423   20.5182 O   0  0  0  0  0  0  0  0  0  0  0  0
   -5.3332    4.3694   18.0651 C   0  0  2  0  0  0  0  0  0  0  0  0
   -6.0644    4.5011   19.2709 O   0  0  0  0  0  0  0  0  0  0  0  0
   -2.6718    0.4733   16.5697 C   0  0  2  0  0  0  0  0  0  0  0  0
   -6.0977    8.0510   21.8759 C   0  0  2  0  0  0  0  0  0  0  0  0
   -5.4927    9.1372   21.2025 O   0  0  0  0  0  0  0  0  0  0  0  0
   -5.8107    3.0844   17.2876 C   0  0  2  0  0  0  0  0  0  0  0  0
   -5.0441    2.9462   16.0316 O   0  0  0  0  0  0  0  0  0  0  0  0
   -3.0154   -0.6428   17.5956 C   0  0  2  0  0  0  0  0  0  0  0  0
   -2.3112   -0.3294   18.8313 O   0  0  0  0  0  0  0  0  0  0  0  0
   -6.4746    8.4477   23.3591 C   0  0  2  0  0  0  0  0  0  0  0  0
   -7.0991    7.2994   24.0551 O   0  0  0  0  0  0  0  0  0  0  0  0
   -7.3066    3.1358   16.9802 C   0  0  0  0  0  0  0  0  0  0  0  0
   -8.0382    2.3499   17.8891 O   0  0  0  0  0  0  0  0  0  0  0  0
   -2.5486   -2.0125   17.0496 C   0  0  1  0  0  0  0  0  0  0  0  0
   -2.8769   -3.0078   17.9960 O   0  0  0  0  0  0  0  0  0  0  0  0
   -7.4241    9.6353   23.4040 C   0  0  0  0  0  0  0  0  0  0  0  0
   -8.5451    9.3990   22.5871 O   0  0  0  0  0  0  0  0  0  0  0  0
   -3.6437    5.5713   20.5101 C   0  0  0  0  0  0  0  0  0  0  0  0
  1  2  1  1  0  0  0
  1  7  1  0  0  0  0
  1 24  1  0  0  0  0
  3  4  1  6  0  0  0
  3  9  1  0  0  0  0
  3 31  1  0  0  0  0
  5  6  1  1  0  0  0
  5 10  1  0  0  0  0
  5 28  1  0  0  0  0
  7  8  1  1  0  0  0
  7 12  1  0  0  0  0
  9 14  1  0  0  0  0
 10 11  1  1  0  0  0
 10 16  1  0  0  0  0
 12 13  1  6  0  0  0
 12 18  1  0  0  0  0
 13 35  1  0  0  0  0
 14 15  1  6  0  0  0
 14 20  1  0  0  0  0
 16 17  1  6  0  0  0
 16 21  1  0  0  0  0
 17 35  1  0  0  0  0
 18 19  1  1  0  0  0
 18 23  1  0  0  0  0
 20  2  1  1  0  0  0
 20 25  1  0  0  0  0
 21 22  1  1  0  0  0
 21 27  1  0  0  0  0
 23 24  1  0  0  0  0
 23 29  1  6  0  0  0
 25 26  1  1  0  0  0
 25 31  1  0  0  0  0
 27 28  1  0  0  0  0
 27 33  1  6  0  0  0
 29 30  1  0  0  0  0
 31 32  1  1  0  0  0
 33 34  1  0  0  0  0
M  END
>  <CHROM.1>
-142.74766868,-168.12218785,-95.23948872,-76.33772034,-169.38749811,-29.62648019
-100.74047941,52.71272171,-4.65102202,3.61198603,19.09961666,0.51680335,1.23012818
-1.44432702

>  <Name>
2o3v_lig

>  <RI>
0

>  <Rbt.Current_Directory>
/home/afrankz/demos/rdock_decoys_rna/rnas/2o3v

>  <Rbt.Executable>
rbdock ($Id: //depot/dev/client3/rdock/2013.1/src/exe/rbdock.cxx#4 $)

>  <Rbt.Library>
libRbt.so (2013.1, Build901 2013/11/27)

>  <Rbt.Parameter_File>
/export/apps/rDock/src/rDock_2013.1_src/data/scripts/dock_solv.prm

>  <Rbt.Receptor>
prm/blind_docking_80.prm

>  <SCORE>
-13.7165

>  <SCORE.INTER>
-22.2652

>  <SCORE.INTER.CONST>
1

>  <SCORE.INTER.POLAR>
-3.81838

>  <SCORE.INTER.ROT>
8

>  <SCORE.INTER.SOLV>
31.6885

>  <SCORE.INTER.VDW>
-21.6117

>  <SCORE.INTER.norm>
-0.636148

>  <SCORE.INTRA>
5.05219

>  <SCORE.INTRA.DIHEDRAL>
6.74236

>  <SCORE.INTRA.DIHEDRAL.0>
13.1227

>  <SCORE.INTRA.POLAR>
0

>  <SCORE.INTRA.POLAR.0>
0

>  <SCORE.INTRA.REPUL>
0

>  <SCORE.INTRA.REPUL.0>
0

>  <SCORE.INTRA.SOLV>
2.64021

>  <SCORE.INTRA.SOLV.lig_0>
-89.1587

>  <SCORE.INTRA.VDW>
0.360905

>  <SCORE.INTRA.VDW.0>
-0.838383

>  <SCORE.INTRA.norm>
0.144348

>  <SCORE.RESTR>
3.49649

>  <SCORE.RESTR.CAVITY>
3.49649

>  <SCORE.RESTR.norm>
0.0998996

>  <SCORE.SYSTEM>
0

>  <SCORE.SYSTEM.CONST>
0

>  <SCORE.SYSTEM.DIHEDRAL>
0

>  <SCORE.SYSTEM.SOLV>
0

>  <SCORE.SYSTEM.norm>
0

>  <SCORE.heavy>
35

>  <SCORE.norm>
-0.3919

>  <RMSD>
29.917

$$$$
2o3v_lig
 OpenBabel02141814113D
libRbt.so/2013.1/901 2013/11/27
 35 37  0  0  0  0  0  0  0  0999 V2000
   -3.6644    1.9693   16.0274 C   0  0  2  0  0  0  0  0  0  0  0  0
   -3.1596    0.9762   16.9717 O   0  0  0  0  0  0  0  0  0  0  0  0
   -2.6374   -3.2662   16.1616 C   0  0  2  0  0  0  0  0  0  0  0  0
   -2.9005   -4.7358   16.1049 N   0  0  0  0  0  0  0  0  0  0  0  0
   -6.2796    8.6037   22.6765 C   0  0  2  0  0  0  0  0  0  0  0  0
   -7.5404    8.2313   22.0787 O   0  0  0  0  0  0  0  0  0  0  0  0
   -3.2924    3.3253   16.7067 C   0  0  2  0  0  0  0  0  0  0  0  0
   -1.8306    3.4311   16.9267 N   0  0  0  0  0  0  0  0  0  0  0  0
   -2.5807   -2.7791   17.6732 C   0  0  0  0  0  0  0  0  0  0  0  0
   -5.1485    8.2460   21.6513 C   0  0  2  0  0  0  0  0  0  0  0  0
   -5.3666    8.9367   20.3550 N   0  0  0  0  0  0  0  0  0  0  0  0
   -4.0582    3.5162   18.0874 C   0  0  1  0  0  0  0  0  0  0  0  0
   -3.6571    4.7905   18.7384 O   0  0  0  0  0  0  0  0  0  0  0  0
   -2.3117   -1.2123   17.7051 C   0  0  2  0  0  0  0  0  0  0  0  0
   -2.2667   -0.7359   19.1042 N   0  0  0  0  0  0  0  0  0  0  0  0
   -5.0362    6.6735   21.4285 C   0  0  1  0  0  0  0  0  0  0  0  0
   -3.9742    6.3115   20.5089 O   0  0  0  0  0  0  0  0  0  0  0  0
   -5.6171    3.3996   17.7875 C   0  0  2  0  0  0  0  0  0  0  0  0
   -6.3841    3.5332   18.9706 O   0  0  0  0  0  0  0  0  0  0  0  0
   -3.4529   -0.4522   16.9120 C   0  0  2  0  0  0  0  0  0  0  0  0
   -4.7939    5.9931   22.8130 C   0  0  2  0  0  0  0  0  0  0  0  0
   -4.6961    4.5890   22.6779 O   0  0  0  0  0  0  0  0  0  0  0  0
   -5.9452    2.0252   17.0897 C   0  0  2  0  0  0  0  0  0  0  0  0
   -5.1412    1.8856   15.8574 O   0  0  0  0  0  0  0  0  0  0  0  0
   -3.5054   -0.9390   15.4366 C   0  0  2  0  0  0  0  0  0  0  0  0
   -4.5974   -0.2304   14.7836 O   0  0  0  0  0  0  0  0  0  0  0  0
   -5.9522    6.3828   23.8160 C   0  0  2  0  0  0  0  0  0  0  0  0
   -6.0491    7.8551   23.9417 O   0  0  0  0  0  0  0  0  0  0  0  0
   -7.4315    1.9035   16.7568 C   0  0  0  0  0  0  0  0  0  0  0  0
   -7.8747    3.0073   16.0058 O   0  0  0  0  0  0  0  0  0  0  0  0
   -3.7635   -2.4635   15.4010 C   0  0  1  0  0  0  0  0  0  0  0  0
   -3.8010   -2.8804   14.0523 O   0  0  0  0  0  0  0  0  0  0  0  0
   -5.7355    5.7772   25.1945 C   0  0  0  0  0  0  0  0  0  0  0  0
   -6.0763    4.4119   25.1900 O   0  0  0  0  0  0  0  0  0  0  0  0
   -4.0421    4.8894   20.1959 C   0  0  0  0  0  0  0  0  0  0  0  0
  1  2  1  1  0  0  0
  1  7  1  0  0  0  0
  1 24  1  0  0  0  0
  3  4  1  1  0  0  0
  3  9  1  0  0  0  0
  3 31  1  0  0  0  0
  5  6  1  6  0  0  0
  5 10  1  0  0  0  0
  5 28  1  0  0  0  0
  7  8  1  1  0  0  0
  7 12  1  0  0  0  0
  9 14  1  0  0  0  0
 10 11  1  6  0  0  0
 10 16  1  0  0  0  0
 12 13  1  6  0  0  0
 12 18  1  0  0  0  0
 13 35  1  0  0  0  0
 14 15  1  1  0  0  0
 14 20  1  0  0  0  0
 16 17  1  6  0  0  0
 16 21  1  0  0  0  0
 17 35  1  0  0  0  0
 18 19  1  1  0  0  0
 18 23  1  0  0  0  0
 20  2  1  6  0  0  0
 20 25  1  0  0  0  0
 21 22  1  6  0  0  0
 21 27  1  0  0  0  0
 23 24  1  0  0  0  0
 23 29  1  6  0  0  0
 25 26  1  6  0  0  0
 25 31  1  0  0  0  0
 27 28  1  0  0  0  0
 27 33  1  1  0  0  0
 29 30  1  0  0  0  0
 31 32  1  6  0  0  0
 33 34  1  0  0  0  0
M  END
>  <CHROM.1>
169.21563781,-164.77121995,-161.80571679,-171.85297302,143.11373409,157.96788535
53.56590692,-77.13021712,-4.62576920,2.91906389,18.92765669,1.06681305,1.14910534
-2.00277750

>  <Name>
2o3v_lig

>  <RI>
0

>  <Rbt.Current_Directory>
/home/afrankz/demos/rdock_decoys_rna/rnas/2o3v

>  <Rbt.Executable>
rbdock ($Id: //depot/dev/client3/rdock/2013.1/src/exe/rbdock.cxx#4 $)

>  <Rbt.Library>
libRbt.so (2013.1, Build901 2013/11/27)

>  <Rbt.Parameter_File>
/export/apps/rDock/src/rDock_2013.1_src/data/scripts/dock_solv.prm

>  <Rbt.Receptor>
prm/blind_docking_40.prm

>  <SCORE>
8.67653

>  <SCORE.INTER>
1.08292

>  <SCORE.INTER.CONST>
1

>  <SCORE.INTER.POLAR>
-3.01607

>  <SCORE.INTER.ROT>
8

>  <SCORE.INTER.SOLV>
35.6794

>  <SCORE.INTER.VDW>
-10.051

>  <SCORE.INTER.norm>
0.0309406

>  <SCORE.INTRA>
1.15052

>  <SCORE.INTRA.DIHEDRAL>
-1.46562

>  <SCORE.INTRA.DIHEDRAL.0>
13.1227

>  <SCORE.INTRA.POLAR>
0

>  <SCORE.INTRA.POLAR.0>
0

>  <SCORE.INTRA.REPUL>
0

>  <SCORE.INTRA.REPUL.0>
0

>  <SCORE.INTRA.SOLV>
-1.02128

>  <SCORE.INTRA.SOLV.lig_0>
-89.1587

>  <SCORE.INTRA.VDW>
2.39397

>  <SCORE.INTRA.VDW.0>
-0.838383

>  <SCORE.INTRA.norm>
0.0328721

>  <SCORE.RESTR>
6.44308

>  <SCORE.RESTR.CAVITY>
6.44308

>  <SCORE.RESTR.norm>
0.184088

>  <SCORE.SYSTEM>
0

>  <SCORE.SYSTEM.CONST>
0

>  <SCORE.SYSTEM.DIHEDRAL>
0

>  <SCORE.SYSTEM.SOLV>
0

>  <SCORE.SYSTEM.norm>
0

>  <SCORE.heavy>
35

>  <SCORE.norm>
0.247901

>  <RMSD>
29.932

$$$$
2o3v_lig
 OpenBabel02141814113D
libRbt.so/2013.1/901 2013/11/27
 35 37  0  0  0  0  0  0  0  0999 V2000
   -3.8182    3.1192   16.2537 C   0  0  2  0  0  0  0  0  0  0  0  0
   -3.4986    1.8456   16.8930 O   0  0  0  0  0  0  0  0  0  0  0  0
   -4.0975   -2.4561   16.6406 C   0  0  2  0  0  0  0  0  0  0  0  0
   -4.3965   -3.8099   16.0839 N   0  0  0  0  0  0  0  0  0  0  0  0
   -6.5193    9.1399   22.7542 C   0  0  2  0  0  0  0  0  0  0  0  0
   -7.6775    8.6895   22.0186 O   0  0  0  0  0  0  0  0  0  0  0  0
   -3.1780    4.1692   17.2159 C   0  0  2  0  0  0  0  0  0  0  0  0
   -1.7198    3.9465   17.3584 N   0  0  0  0  0  0  0  0  0  0  0  0
   -5.3679   -1.5125   16.4950 C   0  0  0  0  0  0  0  0  0  0  0  0
   -5.2496    8.7300   21.9306 C   0  0  2  0  0  0  0  0  0  0  0  0
   -5.2913    9.3095   20.5640 N   0  0  0  0  0  0  0  0  0  0  0  0
   -3.8673    4.1444   18.6490 C   0  0  1  0  0  0  0  0  0  0  0  0
   -3.2150    5.1186   19.5622 O   0  0  0  0  0  0  0  0  0  0  0  0
   -5.0197   -0.0769   17.0835 C   0  0  2  0  0  0  0  0  0  0  0  0
   -6.1864    0.8213   16.9471 N   0  0  0  0  0  0  0  0  0  0  0  0
   -5.0855    7.1482   21.8561 C   0  0  1  0  0  0  0  0  0  0  0  0
   -3.8992    6.7408   21.1273 O   0  0  0  0  0  0  0  0  0  0  0  0
   -5.4243    4.3947   18.4330 C   0  0  2  0  0  0  0  0  0  0  0  0
   -6.1295    4.3653   19.6609 O   0  0  0  0  0  0  0  0  0  0  0  0
   -3.7752    0.5336   16.3168 C   0  0  2  0  0  0  0  0  0  0  0  0
   -5.0325    6.5866   23.3123 C   0  0  2  0  0  0  0  0  0  0  0  0
   -4.8975    5.1790   23.3085 O   0  0  0  0  0  0  0  0  0  0  0  0
   -6.0253    3.3237   17.4453 C   0  0  2  0  0  0  0  0  0  0  0  0
   -5.2859    3.3529   16.1659 O   0  0  0  0  0  0  0  0  0  0  0  0
   -2.5393   -0.3984   16.4592 C   0  0  2  0  0  0  0  0  0  0  0  0
   -1.4515    0.2031   15.7002 O   0  0  0  0  0  0  0  0  0  0  0  0
   -6.3263    7.0259   24.1076 C   0  0  2  0  0  0  0  0  0  0  0  0
   -6.4601    8.5006   24.0966 O   0  0  0  0  0  0  0  0  0  0  0  0
   -7.5128    3.5641   17.1914 C   0  0  0  0  0  0  0  0  0  0  0  0
   -8.2994    2.5807   17.8183 O   0  0  0  0  0  0  0  0  0  0  0  0
   -2.8748   -1.7973   15.8911 C   0  0  1  0  0  0  0  0  0  0  0  0
   -1.7396   -2.6244   16.0373 O   0  0  0  0  0  0  0  0  0  0  0  0
   -6.2988    6.5376   25.5480 C   0  0  0  0  0  0  0  0  0  0  0  0
   -5.1453    7.0064   26.2035 O   0  0  0  0  0  0  0  0  0  0  0  0
   -3.9278    5.3042   20.8812 C   0  0  0  0  0  0  0  0  0  0  0  0
  1  2  1  1  0  0  0
  1  7  1  0  0  0  0
  1 24  1  0  0  0  0
  3  4  1  6  0  0  0
  3  9  1  0  0  0  0
  3 31  1  0  0  0  0
  5  6  1  6  0  0  0
  5 10  1  0  0  0  0
  5 28  1  0  0  0  0
  7  8  1  1  0  0  0
  7 12  1  0  0  0  0
  9 14  1  0  0  0  0
 10 11  1  6  0  0  0
 10 16  1  0  0  0  0
 12 13  1  1  0  0  0
 12 18  1  0  0  0  0
 13 35  1  0  0  0  0
 14 15  1  6  0  0  0
 14 20  1  0  0  0  0
 16 17  1  1  0  0  0
 16 21  1  0  0  0  0
 17 35  1  0  0  0  0
 18 19  1  1  0  0  0
 18 23  1  0  0  0  0
 20  2  1  1  0  0  0
 20 25  1  0  0  0  0
 21 22  1  6  0  0  0
 21 27  1  0  0  0  0
 23 24  1  0  0  0  0
 23 29  1  6  0  0  0
 25 26  1  6  0  0  0
 25 31  1  0  0  0  0
 27 28  1  0  0  0  0
 27 33  1  1  0  0  0
 29 30  1  0  0  0  0
 31 32  1  1  0  0  0
 33 34  1  0  0  0  0
M  END
>  <CHROM.1>
-174.14249346,171.75384440,-137.75593076,-169.67028566,148.09400432,-105.00529254
-108.57559273,56.97693245,-4.78531289,3.70764405,19.29643391,1.32573792,0.67999189
-2.28911333

>  <Name>
2o3v_lig

>  <RI>
0

>  <Rbt.Current_Directory>
/home/afrankz/demos/rdock_decoys_rna/rnas/2o3v

>  <Rbt.Executable>
rbdock ($Id: //depot/dev/client3/rdock/2013.1/src/exe/rbdock.cxx#4 $)

>  <Rbt.Library>
libRbt.so (2013.1, Build901 2013/11/27)

>  <Rbt.Parameter_File>
/export/apps/rDock/src/rDock_2013.1_src/data/scripts/dock_solv.prm

>  <Rbt.Receptor>
prm/blind_docking_80.prm

>  <SCORE>
0.549111

>  <SCORE.INTER>
-9.40592

>  <SCORE.INTER.CONST>
1

>  <SCORE.INTER.POLAR>
-4.08505

>  <SCORE.INTER.ROT>
8

>  <SCORE.INTER.SOLV>
30.1926

>  <SCORE.INTER.VDW>
-11.6513

>  <SCORE.INTER.norm>
-0.26874

>  <SCORE.INTRA>
8.74238

>  <SCORE.INTRA.DIHEDRAL>
8.62037

>  <SCORE.INTRA.DIHEDRAL.0>
13.1227

>  <SCORE.INTRA.POLAR>
0

>  <SCORE.INTRA.POLAR.0>
0

>  <SCORE.INTRA.REPUL>
0

>  <SCORE.INTRA.REPUL.0>
0

>  <SCORE.INTRA.SOLV>
3.7442

>  <SCORE.INTRA.SOLV.lig_0>
-89.1587

>  <SCORE.INTRA.VDW>
2.56009

>  <SCORE.INTRA.VDW.0>
-0.838383

>  <SCORE.INTRA.norm>
0.249782

>  <SCORE.RESTR>
1.21265

>  <SCORE.RESTR.CAVITY>
1.21265

>  <SCORE.RESTR.norm>
0.0346471

>  <SCORE.SYSTEM>
0

>  <SCORE.SYSTEM.CONST>
0

>  <SCORE.SYSTEM.DIHEDRAL>
0

>  <SCORE.SYSTEM.SOLV>
0

>  <SCORE.SYSTEM.norm>
0

>  <SCORE.heavy>
35

>  <SCORE.norm>
0.0156889

>  <RMSD>
29.935

$$$$
2o3v_lig
 OpenBabel02141814113D
libRbt.so/2013.1/901 2013/11/27
 35 37  0  0  0  0  0  0  0  0999 V2000
   -3.8913    2.8454   15.9032 C   0  0  2  0  0  0  0  0  0  0  0  0
   -3.5848    1.6860   16.7366 O   0  0  0  0  0  0  0  0  0  0  0  0
   -3.9746   -2.6316   17.1024 C   0  0  2  0  0  0  0  0  0  0  0  0
   -4.2793   -4.0554   16.7673 N   0  0  0  0  0  0  0  0  0  0  0  0
   -6.2026    8.8157   23.2233 C   0  0  2  0  0  0  0  0  0  0  0  0
   -7.4866    8.4997   22.6428 O   0  0  0  0  0  0  0  0  0  0  0  0
   -3.3607    4.0430   16.7533 C   0  0  2  0  0  0  0  0  0  0  0  0
   -1.9122    3.9016   17.0327 N   0  0  0  0  0  0  0  0  0  0  0  0
   -5.3029   -1.7610   17.0476 C   0  0  0  0  0  0  0  0  0  0  0  0
   -5.1115    8.5399   22.1315 C   0  0  2  0  0  0  0  0  0  0  0  0
   -5.3709    9.3372   20.9059 N   0  0  0  0  0  0  0  0  0  0  0  0
   -4.1596    4.1874   18.1209 C   0  0  1  0  0  0  0  0  0  0  0  0
   -3.6108    5.3037   18.9340 O   0  0  0  0  0  0  0  0  0  0  0  0
   -4.9494   -0.2503   17.3961 C   0  0  2  0  0  0  0  0  0  0  0  0
   -6.1714    0.5804   17.3394 N   0  0  0  0  0  0  0  0  0  0  0  0
   -5.0185    6.9911   21.7749 C   0  0  1  0  0  0  0  0  0  0  0  0
   -3.9927    6.7026   20.7904 O   0  0  0  0  0  0  0  0  0  0  0  0
   -5.7016    4.3419   17.7578 C   0  0  2  0  0  0  0  0  0  0  0  0
   -6.4999    4.4529   18.9223 O   0  0  0  0  0  0  0  0  0  0  0  0
   -3.8727    0.3019   16.3739 C   0  0  2  0  0  0  0  0  0  0  0  0
   -4.7316    6.1967   23.0883 C   0  0  2  0  0  0  0  0  0  0  0  0
   -4.6488    4.8083   22.8335 O   0  0  0  0  0  0  0  0  0  0  0  0
   -6.1905    3.1217   16.8884 C   0  0  2  0  0  0  0  0  0  0  0  0
   -5.3539    3.0048   15.6755 O   0  0  0  0  0  0  0  0  0  0  0  0
   -2.5796   -0.5589   16.4296 C   0  0  2  0  0  0  0  0  0  0  0  0
   -1.6558   -0.0202   15.4408 O   0  0  0  0  0  0  0  0  0  0  0  0
   -5.8504    6.5063   24.1616 C   0  0  2  0  0  0  0  0  0  0  0  0
   -5.9323    7.9633   24.4126 O   0  0  0  0  0  0  0  0  0  0  0  0
   -7.6599    3.2641   16.4943 C   0  0  0  0  0  0  0  0  0  0  0  0
   -8.0960    2.1508   15.7532 O   0  0  0  0  0  0  0  0  0  0  0  0
   -2.9194   -2.0301   16.0946 C   0  0  1  0  0  0  0  0  0  0  0  0
   -1.7310   -2.7901   16.1575 O   0  0  0  0  0  0  0  0  0  0  0  0
   -5.5889    5.7869   25.4761 C   0  0  0  0  0  0  0  0  0  0  0  0
   -6.5593    6.1415   26.4314 O   0  0  0  0  0  0  0  0  0  0  0  0
   -4.0741    5.3085   20.3719 C   0  0  0  0  0  0  0  0  0  0  0  0
  1  2  1  1  0  0  0
  1  7  1  0  0  0  0
  1 24  1  0  0  0  0
  3  4  1  6  0  0  0
  3  9  1  0  0  0  0
  3 31  1  0  0  0  0
  5  6  1  6  0  0  0
  5 10  1  0  0  0  0
  5 28  1  0  0  0  0
  7  8  1  1  0  0  0
  7 12  1  0  0  0  0
  9 14  1  0  0  0  0
 10 11  1  6  0  0  0
 10 16  1  0  0  0  0
 12 13  1  6  0  0  0
 12 18  1  0  0  0  0
 13 35  1  0  0  0  0
 14 15  1  6  0  0  0
 14 20  1  0  0  0  0
 16 17  1  6  0  0  0
 16 21  1  0  0  0  0
 17 35  1  0  0  0  0
 18 19  1  1  0  0  0
 18 23  1  0  0  0  0
 20  2  1  1  0  0  0
 20 25  1  0  0  0  0
 21 22  1  6  0  0  0
 21 27  1  0  0  0  0
 23 24  1  0  0  0  0
 23 29  1  6  0  0  0
 25 26  1  6  0  0  0
 25 31  1  0  0  0  0
 27 28  1  0  0  0  0
 27 33  1  1  0  0  0
 29 30  1  0  0  0  0
 31 32  1  1  0  0  0
 33 34  1  0  0  0  0
M  END
>  <CHROM.1>
-179.21516808,-166.01172170,-153.70174987,-172.37005923,148.62793149,-114.85343939
-178.22968629,176.72188427,-4.81393517,3.47672946,19.15299805,0.70405966
1.34092699,-1.57256727

>  <Name>
2o3v_lig

>  <RI>
0

>  <Rbt.Current_Directory>
/home/afrankz/demos/rdock_decoys_rna/rnas/2o3v

>  <Rbt.Executable>
rbdock ($Id: //depot/dev/client3/rdock/2013.1/src/exe/rbdock.cxx#4 $)

>  <Rbt.Library>
libRbt.so (2013.1, Build901 2013/11/27)

>  <Rbt.Parameter_File>
/export/apps/rDock/src/rDock_2013.1_src/data/scripts/dock_solv.prm

>  <Rbt.Receptor>
prm/blind_docking_80.prm

>  <SCORE>
-12.3616

>  <SCORE.INTER>
-17.3003

>  <SCORE.INTER.CONST>
1

>  <SCORE.INTER.POLAR>
-4.64651

>  <SCORE.INTER.ROT>
8

>  <SCORE.INTER.SOLV>
27.6359

>  <SCORE.INTER.VDW>
-14.1904

>  <SCORE.INTER.norm>
-0.494294

>  <SCORE.INTRA>
4.03782

>  <SCORE.INTRA.DIHEDRAL>
2.01642

>  <SCORE.INTRA.DIHEDRAL.0>
13.1227

>  <SCORE.INTRA.POLAR>
0

>  <SCORE.INTRA.POLAR.0>
0

>  <SCORE.INTRA.REPUL>
0

>  <SCORE.INTRA.REPUL.0>
0

>  <SCORE.INTRA.SOLV>
2.92292

>  <SCORE.INTRA.SOLV.lig_0>
-89.1587

>  <SCORE.INTRA.VDW>
1.56815

>  <SCORE.INTRA.VDW.0>
-0.838383

>  <SCORE.INTRA.norm>
0.115366

>  <SCORE.RESTR>
0.900839

>  <SCORE.RESTR.CAVITY>
0.900839

>  <SCORE.RESTR.norm>
0.0257383

>  <SCORE.SYSTEM>
0

>  <SCORE.SYSTEM.CONST>
0

>  <SCORE.SYSTEM.DIHEDRAL>
0

>  <SCORE.SYSTEM.SOLV>
0

>  <SCORE.SYSTEM.norm>
0

>  <SCORE.heavy>
35

>  <SCORE.norm>
-0.353189

>  <RMSD>
29.993

$$$$
2o3v_lig
 OpenBabel02141814113D
libRbt.so/2013.1/901 2013/11/27
 35 37  0  0  0  0  0  0  0  0999 V2000
   -3.8958    2.9782   16.0395 C   0  0  2  0  0  0  0  0  0  0  0  0
   -3.5858    1.7857   16.8235 O   0  0  0  0  0  0  0  0  0  0  0  0
   -4.1706   -2.5159   17.1098 C   0  0  2  0  0  0  0  0  0  0  0  0
   -4.5320   -3.9192   16.7459 N   0  0  0  0  0  0  0  0  0  0  0  0
   -6.1774    6.2496   24.0517 C   0  0  2  0  0  0  0  0  0  0  0  0
   -4.9451    6.3620   24.7963 O   0  0  0  0  0  0  0  0  0  0  0  0
   -3.1824    4.1187   16.8323 C   0  0  2  0  0  0  0  0  0  0  0  0
   -1.7265    3.8649   16.9430 N   0  0  0  0  0  0  0  0  0  0  0  0
   -5.4583   -1.5867   17.0491 C   0  0  0  0  0  0  0  0  0  0  0  0
   -5.8130    5.7497   22.6109 C   0  0  2  0  0  0  0  0  0  0  0  0
   -5.0840    4.4572   22.6641 N   0  0  0  0  0  0  0  0  0  0  0  0
   -3.8074    4.3002   18.2835 C   0  0  1  0  0  0  0  0  0  0  0  0
   -3.0864    5.3589   19.0369 O   0  0  0  0  0  0  0  0  0  0  0  0
   -5.0447   -0.0990   17.4287 C   0  0  2  0  0  0  0  0  0  0  0  0
   -6.2279    0.7856   17.3669 N   0  0  0  0  0  0  0  0  0  0  0  0
   -4.9614    6.8329   21.8133 C   0  0  1  0  0  0  0  0  0  0  0  0
   -4.6384    6.4099   20.4637 O   0  0  0  0  0  0  0  0  0  0  0  0
   -5.3644    4.5755   18.1005 C   0  0  2  0  0  0  0  0  0  0  0  0
   -6.0146    4.7269   19.3496 O   0  0  0  0  0  0  0  0  0  0  0  0
   -3.9282    0.4217   16.4328 C   0  0  2  0  0  0  0  0  0  0  0  0
   -5.7718    8.1672   21.7714 C   0  0  2  0  0  0  0  0  0  0  0  0
   -5.0568    9.1733   21.0815 O   0  0  0  0  0  0  0  0  0  0  0  0
   -6.0404    3.4096   17.2836 C   0  0  2  0  0  0  0  0  0  0  0  0
   -5.3584    3.2503   15.9820 O   0  0  0  0  0  0  0  0  0  0  0  0
   -2.6752   -0.4961   16.4941 C   0  0  2  0  0  0  0  0  0  0  0  0
   -1.7126    0.0173   15.5292 O   0  0  0  0  0  0  0  0  0  0  0  0
   -6.1217    8.6325   23.2412 C   0  0  2  0  0  0  0  0  0  0  0  0
   -6.8623    7.5670   23.9547 O   0  0  0  0  0  0  0  0  0  0  0  0
   -7.5299    3.6679   17.0614 C   0  0  0  0  0  0  0  0  0  0  0  0
   -8.1164    2.6354   16.3072 O   0  0  0  0  0  0  0  0  0  0  0  0
   -3.0737   -1.9452   16.1289 C   0  0  1  0  0  0  0  0  0  0  0  0
   -1.9209   -2.7579   16.1974 O   0  0  0  0  0  0  0  0  0  0  0  0
   -6.9503    9.9081   23.2494 C   0  0  0  0  0  0  0  0  0  0  0  0
   -6.8592   10.5448   24.5010 O   0  0  0  0  0  0  0  0  0  0  0  0
   -3.5092    5.4881   20.4815 C   0  0  0  0  0  0  0  0  0  0  0  0
  1  2  1  1  0  0  0
  1  7  1  0  0  0  0
  1 24  1  0  0  0  0
  3  4  1  6  0  0  0
  3  9  1  0  0  0  0
  3 31  1  0  0  0  0
  5  6  1  1  0  0  0
  5 10  1  0  0  0  0
  5 28  1  0  0  0  0
  7  8  1  1  0  0  0
  7 12  1  0  0  0  0
  9 14  1  0  0  0  0
 10 11  1  1  0  0  0
 10 16  1  0  0  0  0
 12 13  1  6  0  0  0
 12 18  1  0  0  0  0
 13 35  1  0  0  0  0
 14 15  1  6  0  0  0
 14 20  1  0  0  0  0
 16 17  1  6  0  0  0
 16 21  1  0  0  0  0
 17 35  1  0  0  0  0
 18 19  1  1  0  0  0
 18 23  1  0  0  0  0
 20  2  1  1  0  0  0
 20 25  1  0  0  0  0
 21 22  1  1  0  0  0
 21 27  1  0  0  0  0
 23 24  1  0  0  0  0
 23 29  1  6  0  0  0
 25 26  1  6  0  0  0
 25 31  1  0  0  0  0
 27 28  1  0  0  0  0
 27 33  1  6  0  0  0
 29 30  1  0  0  0  0
 31 32  1  1  0  0  0
 33 34  1  0  0  0  0
M  END
>  <CHROM.1>
-174.22657922,-173.26809668,-87.54580572,-79.63539549,-168.21453736,-111.18703887
178.74295184,-159.71607262,-4.84004189,3.71410139,19.14481530,-0.98315743
1.22404104,0.08653587

>  <Name>
2o3v_lig

>  <RI>
0

>  <Rbt.Current_Directory>
/home/afrankz/demos/rdock_decoys_rna/rnas/2o3v

>  <Rbt.Executable>
rbdock ($Id: //depot/dev/client3/rdock/2013.1/src/exe/rbdock.cxx#4 $)

>  <Rbt.Library>
libRbt.so (2013.1, Build901 2013/11/27)

>  <Rbt.Parameter_File>
/export/apps/rDock/src/rDock_2013.1_src/data/scripts/dock_solv.prm

>  <Rbt.Receptor>
prm/blind_docking_80.prm

>  <SCORE>
-22.0709

>  <SCORE.INTER>
-27.1269

>  <SCORE.INTER.CONST>
1

>  <SCORE.INTER.POLAR>
-4.573

>  <SCORE.INTER.ROT>
8

>  <SCORE.INTER.SOLV>
28.2124

>  <SCORE.INTER.VDW>
-21.1787

>  <SCORE.INTER.norm>
-0.775054

>  <SCORE.INTRA>
2.28596

>  <SCORE.INTRA.DIHEDRAL>
1.0383

>  <SCORE.INTRA.DIHEDRAL.0>
13.1227

>  <SCORE.INTRA.POLAR>
0

>  <SCORE.INTRA.POLAR.0>
0

>  <SCORE.INTRA.REPUL>
0

>  <SCORE.INTRA.REPUL.0>
0

>  <SCORE.INTRA.SOLV>
4.86479

>  <SCORE.INTRA.SOLV.lig_0>
-89.1587

>  <SCORE.INTRA.VDW>
-0.665583

>  <SCORE.INTRA.VDW.0>
-0.838383

>  <SCORE.INTRA.norm>
0.0653132

>  <SCORE.RESTR>
2.76998

>  <SCORE.RESTR.CAVITY>
2.76998

>  <SCORE.RESTR.norm>
0.0791424

>  <SCORE.SYSTEM>
0

>  <SCORE.SYSTEM.CONST>
0

>  <SCORE.SYSTEM.DIHEDRAL>
0

>  <SCORE.SYSTEM.SOLV>
0

>  <SCORE.SYSTEM.norm>
0

>  <SCORE.heavy>
35

>  <SCORE.norm>
-0.630598

>  <RMSD>
30.012

$$$$
2o3v_lig
 OpenBabel02141814113D
libRbt.so/2013.1/901 2013/11/27
 35 37  0  0  0  0  0  0  0  0999 V2000
   -3.2784    2.8112   16.0251 C   0  0  2  0  0  0  0  0  0  0  0  0
   -2.7809    1.7804   16.9322 O   0  0  0  0  0  0  0  0  0  0  0  0
   -3.5439   -2.3727   15.8846 C   0  0  2  0  0  0  0  0  0  0  0  0
   -3.3132   -3.7919   15.4786 N   0  0  0  0  0  0  0  0  0  0  0  0
   -5.3101    7.1694   24.0859 C   0  0  2  0  0  0  0  0  0  0  0  0
   -4.6596    6.5415   25.2120 O   0  0  0  0  0  0  0  0  0  0  0  0
   -3.0448    4.1309   16.8264 C   0  0  2  0  0  0  0  0  0  0  0  0
   -1.6129    4.3053   17.1661 N   0  0  0  0  0  0  0  0  0  0  0  0
   -3.0493   -1.3891   14.7386 C   0  0  0  0  0  0  0  0  0  0  0  0
   -5.2000    6.1856   22.8699 C   0  0  2  0  0  0  0  0  0  0  0  0
   -5.8090    4.8702   23.1922 N   0  0  0  0  0  0  0  0  0  0  0  0
   -3.9200    4.1708   18.1538 C   0  0  1  0  0  0  0  0  0  0  0  0
   -3.6502    5.4131   18.9233 O   0  0  0  0  0  0  0  0  0  0  0  0
   -3.2950    0.1126   15.2000 C   0  0  2  0  0  0  0  0  0  0  0  0
   -2.8303    1.0456   14.1512 N   0  0  0  0  0  0  0  0  0  0  0  0
   -3.6892    5.9969   22.4045 C   0  0  1  0  0  0  0  0  0  0  0  0
   -3.5609    5.1166   21.2585 O   0  0  0  0  0  0  0  0  0  0  0  0
   -5.4421    3.9861   17.7264 C   0  0  2  0  0  0  0  0  0  0  0  0
   -6.3004    3.9839   18.8531 O   0  0  0  0  0  0  0  0  0  0  0  0
   -2.5233    0.3944   16.5544 C   0  0  2  0  0  0  0  0  0  0  0  0
   -3.0967    7.4010   22.0638 C   0  0  2  0  0  0  0  0  0  0  0  0
   -1.7478    7.2961   21.6527 O   0  0  0  0  0  0  0  0  0  0  0  0
   -5.6294    2.6519   16.9087 C   0  0  2  0  0  0  0  0  0  0  0  0
   -4.7303    2.6540   15.7356 O   0  0  0  0  0  0  0  0  0  0  0  0
   -3.0086   -0.5757   17.6677 C   0  0  2  0  0  0  0  0  0  0  0  0
   -2.2317   -0.2867   18.8652 O   0  0  0  0  0  0  0  0  0  0  0  0
   -3.2317    8.3611   23.3125 C   0  0  2  0  0  0  0  0  0  0  0  0
   -4.6471    8.4552   23.7376 O   0  0  0  0  0  0  0  0  0  0  0  0
   -7.0766    2.4688   16.4539 C   0  0  0  0  0  0  0  0  0  0  0  0
   -7.2772    1.1896   15.9042 O   0  0  0  0  0  0  0  0  0  0  0  0
   -2.7747   -2.0380   17.2215 C   0  0  1  0  0  0  0  0  0  0  0  0
   -3.2283   -2.8973   18.2462 O   0  0  0  0  0  0  0  0  0  0  0  0
   -2.7063    9.7569   23.0133 C   0  0  0  0  0  0  0  0  0  0  0  0
   -2.8545   10.0548   21.6461 O   0  0  0  0  0  0  0  0  0  0  0  0
   -4.4591    5.5434   20.1925 C   0  0  0  0  0  0  0  0  0  0  0  0
  1  2  1  1  0  0  0
  1  7  1  0  0  0  0
  1 24  1  0  0  0  0
  3  4  1  6  0  0  0
  3  9  1  0  0  0  0
  3 31  1  0  0  0  0
  5  6  1  1  0  0  0
  5 10  1  0  0  0  0
  5 28  1  0  0  0  0
  7  8  1  1  0  0  0
  7 12  1  0  0  0  0
  9 14  1  0  0  0  0
 10 11  1  1  0  0  0
 10 16  1  0  0  0  0
 12 13  1  6  0  0  0
 12 18  1  0  0  0  0
 13 35  1  0  0  0  0
 14 15  1  6  0  0  0
 14 20  1  0  0  0  0
 16 17  1  6  0  0  0
 16 21  1  0  0  0  0
 17 35  1  0  0  0  0
 18 19  1  1  0  0  0
 18 23  1  0  0  0  0
 20  2  1  1  0  0  0
 20 25  1  0  0  0  0
 21 22  1  1  0  0  0
 21 27  1  0  0  0  0
 23 24  1  0  0  0  0
 23 29  1  6  0  0  0
 25 26  1  1  0  0  0
 25 31  1  0  0  0  0
 27 28  1  0  0  0  0
 27 33  1  6  0  0  0
 29 30  1  0  0  0  0
 31 32  1  1  0  0  0
 33 34  1  0  0  0  0
M  END
>  <CHROM.1>
-166.95301070,179.06009532,99.11182365,51.45540999,138.02209372,-17.96467072
-171.10737305,29.10310433,-3.87885621,3.48115599,19.01906297,0.94127183,1.52390474
-1.82778681

>  <Name>
2o3v_lig

>  <RI>
0

>  <Rbt.Current_Directory>
/home/afrankz/demos/rdock_decoys_rna/rnas/2o3v

>  <Rbt.Executable>
rbdock ($Id: //depot/dev/client3/rdock/2013.1/src/exe/rbdock.cxx#4 $)

>  <Rbt.Library>
libRbt.so (2013.1, Build901 2013/11/27)

>  <Rbt.Parameter_File>
/export/apps/rDock/src/rDock_2013.1_src/data/scripts/dock_solv.prm

>  <Rbt.Receptor>
prm/blind_docking_40.prm

>  <SCORE>
-8.20093

>  <SCORE.INTER>
-19.3506

>  <SCORE.INTER.CONST>
1

>  <SCORE.INTER.POLAR>
-3.34991

>  <SCORE.INTER.ROT>
8

>  <SCORE.INTER.SOLV>
30.2791

>  <SCORE.INTER.VDW>
-20.7604

>  <SCORE.INTER.norm>
-0.552875

>  <SCORE.INTRA>
7.58054

>  <SCORE.INTRA.DIHEDRAL>
7.79603

>  <SCORE.INTRA.DIHEDRAL.0>
13.1227

>  <SCORE.INTRA.POLAR>
0

>  <SCORE.INTRA.POLAR.0>
0

>  <SCORE.INTRA.REPUL>
0

>  <SCORE.INTRA.REPUL.0>
0

>  <SCORE.INTRA.SOLV>
1.41841

>  <SCORE.INTRA.SOLV.lig_0>
-89.1587

>  <SCORE.INTRA.VDW>
2.97332

>  <SCORE.INTRA.VDW.0>
-0.838383

>  <SCORE.INTRA.norm>
0.216587

>  <SCORE.RESTR>
3.56915

>  <SCORE.RESTR.CAVITY>
3.56915

>  <SCORE.RESTR.norm>
0.101976

>  <SCORE.SYSTEM>
0

>  <SCORE.SYSTEM.CONST>
0

>  <SCORE.SYSTEM.DIHEDRAL>
0

>  <SCORE.SYSTEM.SOLV>
0

>  <SCORE.SYSTEM.norm>
0

>  <SCORE.heavy>
35

>  <SCORE.norm>
-0.234312

>  <RMSD>
30.020

$$$$
2o3v_lig
 OpenBabel02141814113D
libRbt.so/2013.1/901 2013/11/27
 35 37  0  0  0  0  0  0  0  0999 V2000
   -4.0369    2.2665   15.7105 C   0  0  2  0  0  0  0  0  0  0  0  0
   -3.6213    1.1673   16.5775 O   0  0  0  0  0  0  0  0  0  0  0  0
   -3.5444   -3.1552   17.0648 C   0  0  2  0  0  0  0  0  0  0  0  0
   -3.7634   -4.6098   16.8033 N   0  0  0  0  0  0  0  0  0  0  0  0
   -3.4190    8.6068   23.4997 C   0  0  2  0  0  0  0  0  0  0  0  0
   -4.3748    9.4926   22.8773 O   0  0  0  0  0  0  0  0  0  0  0  0
   -3.4553    3.5245   16.4298 C   0  0  2  0  0  0  0  0  0  0  0  0
   -1.9833    3.4280   16.5716 N   0  0  0  0  0  0  0  0  0  0  0  0
   -4.9404   -2.4095   17.2076 C   0  0  0  0  0  0  0  0  0  0  0  0
   -2.7179    7.7930   22.3575 C   0  0  2  0  0  0  0  0  0  0  0  0
   -2.0682    8.7008   21.3784 N   0  0  0  0  0  0  0  0  0  0  0  0
   -4.1193    3.7390   17.8590 C   0  0  1  0  0  0  0  0  0  0  0  0
   -3.5211    4.9139   18.5447 O   0  0  0  0  0  0  0  0  0  0  0  0
   -4.6795   -0.8636   17.4733 C   0  0  2  0  0  0  0  0  0  0  0  0
   -5.9675   -0.1481   17.5979 N   0  0  0  0  0  0  0  0  0  0  0  0
   -3.7402    6.8220   21.6180 C   0  0  1  0  0  0  0  0  0  0  0  0
   -3.1105    6.0315   20.5773 O   0  0  0  0  0  0  0  0  0  0  0  0
   -5.6929    3.8416   17.6426 C   0  0  2  0  0  0  0  0  0  0  0  0
   -6.3755    4.0100   18.8721 O   0  0  0  0  0  0  0  0  0  0  0  0
   -3.8318   -0.2472   16.2855 C   0  0  2  0  0  0  0  0  0  0  0  0
   -4.3864    5.8796   22.6824 C   0  0  2  0  0  0  0  0  0  0  0  0
   -5.3151    4.9982   22.0823 O   0  0  0  0  0  0  0  0  0  0  0  0
   -6.2343    2.5605   16.9013 C   0  0  2  0  0  0  0  0  0  0  0  0
   -5.5184    2.3840   15.6204 O   0  0  0  0  0  0  0  0  0  0  0  0
   -2.4711   -0.9863   16.1490 C   0  0  2  0  0  0  0  0  0  0  0  0
   -1.7673   -0.3961   15.0188 O   0  0  0  0  0  0  0  0  0  0  0  0
   -5.0769    6.7387   23.8157 C   0  0  2  0  0  0  0  0  0  0  0  0
   -4.0959    7.6627   24.4296 O   0  0  0  0  0  0  0  0  0  0  0  0
   -7.7385    2.6505   16.6477 C   0  0  0  0  0  0  0  0  0  0  0  0
   -8.0345    2.4668   15.2848 O   0  0  0  0  0  0  0  0  0  0  0  0
   -2.7202   -2.4912   15.8939 C   0  0  1  0  0  0  0  0  0  0  0  0
   -1.4708   -3.1392   15.7795 O   0  0  0  0  0  0  0  0  0  0  0  0
   -5.6839    5.8621   24.9006 C   0  0  0  0  0  0  0  0  0  0  0  0
   -6.7928    5.1562   24.3983 O   0  0  0  0  0  0  0  0  0  0  0  0
   -4.1013    5.1951   19.9110 C   0  0  0  0  0  0  0  0  0  0  0  0
  1  2  1  1  0  0  0
  1  7  1  0  0  0  0
  1 24  1  0  0  0  0
  3  4  1  6  0  0  0
  3  9  1  0  0  0  0
  3 31  1  0  0  0  0
  5  6  1  6  0  0  0
  5 10  1  0  0  0  0
  5 28  1  0  0  0  0
  7  8  1  1  0  0  0
  7 12  1  0  0  0  0
  9 14  1  0  0  0  0
 10 11  1  6  0  0  0
 10 16  1  0  0  0  0
 12 13  1  6  0  0  0
 12 18  1  0  0  0  0
 13 35  1  0  0  0  0
 14 15  1  6  0  0  0
 14 20  1  0  0  0  0
 16 17  1  6  0  0  0
 16 21  1  0  0  0  0
 17 35  1  0  0  0  0
 18 19  1  1  0  0  0
 18 23  1  0  0  0  0
 20  2  1  1  0  0  0
 20 25  1  0  0  0  0
 21 22  1  6  0  0  0
 21 27  1  0  0  0  0
 23 24  1  0  0  0  0
 23 29  1  6  0  0  0
 25 26  1  6  0  0  0
 25 31  1  0  0  0  0
 27 28  1  0  0  0  0
 27 33  1  1  0  0  0
 29 30  1  0  0  0  0
 31 32  1  1  0  0  0
 33 34  1  0  0  0  0
M  END
>  <CHROM.1>
-174.96836120,179.69273252,160.77322680,-178.25731343,155.90387613,-121.78712747
125.32037280,-68.81752460,-4.31480569,3.10539553,18.94436088,1.22677708,1.42631134
-2.12536104

>  <Name>
2o3v_lig

>  <RI>
0

>  <Rbt.Current_Directory>
/home/afrankz/demos/rdock_decoys_rna/rnas/2o3v

>  <Rbt.Executable>
rbdock ($Id: //depot/dev/client3/rdock/2013.1/src/exe/rbdock.cxx#4 $)

>  <Rbt.Library>
libRbt.so (2013.1, Build901 2013/11/27)

>  <Rbt.Parameter_File>
/export/apps/rDock/src/rDock_2013.1_src/data/scripts/dock_solv.prm

>  <Rbt.Receptor>
prm/blind_docking_40.prm

>  <SCORE>
-4.0383

>  <SCORE.INTER>
-14.5083

>  <SCORE.INTER.CONST>
1

>  <SCORE.INTER.POLAR>
-3.03237

>  <SCORE.INTER.ROT>
8

>  <SCORE.INTER.SOLV>
28.0412

>  <SCORE.INTER.VDW>
-17.8447

>  <SCORE.INTER.norm>
-0.414524

>  <SCORE.INTRA>
7.85683

>  <SCORE.INTRA.DIHEDRAL>
3.85163

>  <SCORE.INTRA.DIHEDRAL.0>
13.1227

>  <SCORE.INTRA.POLAR>
0

>  <SCORE.INTRA.POLAR.0>
0

>  <SCORE.INTRA.REPUL>
0.276093

>  <SCORE.INTRA.REPUL.0>
0

>  <SCORE.INTRA.SOLV>
2.04743

>  <SCORE.INTRA.SOLV.lig_0>
-89.1587

>  <SCORE.INTRA.VDW>
3.52683

>  <SCORE.INTRA.VDW.0>
-0.838383

>  <SCORE.INTRA.norm>
0.224481

>  <SCORE.RESTR>
2.61319

>  <SCORE.RESTR.CAVITY>
2.61319

>  <SCORE.RESTR.norm>
0.0746626

>  <SCORE.SYSTEM>
0

>  <SCORE.SYSTEM.CONST>
0

>  <SCORE.SYSTEM.DIHEDRAL>
0

>  <SCORE.SYSTEM.SOLV>
0

>  <SCORE.SYSTEM.norm>
0

>  <SCORE.heavy>
35

>  <SCORE.norm>
-0.11538

>  <RMSD>
30.021

$$$$
2o3v_lig
 OpenBabel02141814113D
libRbt.so/2013.1/901 2013/11/27
 35 37  0  0  0  0  0  0  0  0999 V2000
   -2.6557    2.6888   16.8123 C   0  0  2  0  0  0  0  0  0  0  0  0
   -3.5862    1.7046   17.3587 O   0  0  0  0  0  0  0  0  0  0  0  0
   -4.2241   -2.5708   16.8672 C   0  0  2  0  0  0  0  0  0  0  0  0
   -4.5805   -3.8835   16.2491 N   0  0  0  0  0  0  0  0  0  0  0  0
   -7.9403    7.1410   23.3758 C   0  0  2  0  0  0  0  0  0  0  0  0
   -8.9823    6.2581   22.9063 O   0  0  0  0  0  0  0  0  0  0  0  0
   -2.8654    3.9275   17.7396 C   0  0  2  0  0  0  0  0  0  0  0  0
   -2.5824    3.5914   19.1550 N   0  0  0  0  0  0  0  0  0  0  0  0
   -5.4987   -1.6226   16.9092 C   0  0  0  0  0  0  0  0  0  0  0  0
   -6.9475    7.3730   22.1848 C   0  0  2  0  0  0  0  0  0  0  0  0
   -7.6528    7.9350   21.0051 N   0  0  0  0  0  0  0  0  0  0  0  0
   -4.3396    4.5104   17.6108 C   0  0  1  0  0  0  0  0  0  0  0  0
   -4.5320    5.6598   18.5329 O   0  0  0  0  0  0  0  0  0  0  0  0
   -5.0901   -0.2304   17.5598 C   0  0  2  0  0  0  0  0  0  0  0  0
   -6.2607    0.6722   17.5980 N   0  0  0  0  0  0  0  0  0  0  0  0
   -6.1863    6.0322   21.7874 C   0  0  1  0  0  0  0  0  0  0  0  0
   -5.2356    6.2253   20.7087 O   0  0  0  0  0  0  0  0  0  0  0  0
   -4.5820    4.8577   16.0765 C   0  0  2  0  0  0  0  0  0  0  0  0
   -5.8868    5.3639   15.8593 O   0  0  0  0  0  0  0  0  0  0  0  0
   -3.9219    0.4349   16.7220 C   0  0  2  0  0  0  0  0  0  0  0  0
   -5.4501    5.4872   23.0521 C   0  0  2  0  0  0  0  0  0  0  0  0
   -4.7624    4.2865   22.7606 O   0  0  0  0  0  0  0  0  0  0  0  0
   -4.3453    3.5855   15.1769 C   0  0  2  0  0  0  0  0  0  0  0  0
   -2.9847    3.0561   15.4075 O   0  0  0  0  0  0  0  0  0  0  0  0
   -2.6819   -0.5015   16.6808 C   0  0  2  0  0  0  0  0  0  0  0  0
   -1.6690    0.1539   15.8650 O   0  0  0  0  0  0  0  0  0  0  0  0
   -6.4846    5.2721   24.2281 C   0  0  2  0  0  0  0  0  0  0  0  0
   -7.2033    6.5342   24.5172 O   0  0  0  0  0  0  0  0  0  0  0  0
   -4.5356    3.9012   13.6940 C   0  0  0  0  0  0  0  0  0  0  0  0
   -3.6667    4.9265   13.2786 O   0  0  0  0  0  0  0  0  0  0  0  0
   -3.0758   -1.8585   16.0518 C   0  0  1  0  0  0  0  0  0  0  0  0
   -1.9353   -2.6909   16.0313 O   0  0  0  0  0  0  0  0  0  0  0  0
   -5.8051    4.7822   25.4978 C   0  0  0  0  0  0  0  0  0  0  0  0
   -6.7637    4.4818   26.4831 O   0  0  0  0  0  0  0  0  0  0  0  0
   -5.6502    5.4723   19.5313 C   0  0  0  0  0  0  0  0  0  0  0  0
  1  2  1  1  0  0  0
  1  7  1  0  0  0  0
  1 24  1  0  0  0  0
  3  4  1  6  0  0  0
  3  9  1  0  0  0  0
  3 31  1  0  0  0  0
  5  6  1  6  0  0  0
  5 10  1  0  0  0  0
  5 28  1  0  0  0  0
  7  8  1  1  0  0  0
  7 12  1  0  0  0  0
  9 14  1  0  0  0  0
 10 11  1  6  0  0  0
 10 16  1  0  0  0  0
 12 13  1  1  0  0  0
 12 18  1  0  0  0  0
 13 35  1  0  0  0  0
 14 15  1  6  0  0  0
 14 20  1  0  0  0  0
 16 17  1  6  0  0  0
 16 21  1  0  0  0  0
 17 35  1  0  0  0  0
 18 19  1  1  0  0  0
 18 23  1  0  0  0  0
 20  2  1  1  0  0  0
 20 25  1  0  0  0  0
 21 22  1  6  0  0  0
 21 27  1  0  0  0  0
 23 24  1  0  0  0  0
 23 29  1  6  0  0  0
 25 26  1  6  0  0  0
 25 31  1  0  0  0  0
 27 28  1  0  0  0  0
 27 33  1  1  0  0  0
 29 30  1  0  0  0  0
 31 32  1  1  0  0  0
 33 34  1  0  0  0  0
M  END
>  <CHROM.1>
170.29947416,-121.21934562,149.31344987,-115.08781851,-175.36359483,-173.19426372
57.97954971,-174.50749774,-4.87285248,3.26066552,18.90840552,-0.09664260
1.24296116,-0.57864177

>  <Name>
2o3v_lig

>  <RI>
0

>  <Rbt.Current_Directory>
/home/afrankz/demos/rdock_decoys_rna/rnas/2o3v

>  <Rbt.Executable>
rbdock ($Id: //depot/dev/client3/rdock/2013.1/src/exe/rbdock.cxx#4 $)

>  <Rbt.Library>
libRbt.so (2013.1, Build901 2013/11/27)

>  <Rbt.Parameter_File>
/export/apps/rDock/src/rDock_2013.1_src/data/scripts/dock_solv.prm

>  <Rbt.Receptor>
prm/blind_docking_40.prm

>  <SCORE>
7.24567

>  <SCORE.INTER>
4.3707

>  <SCORE.INTER.CONST>
1

>  <SCORE.INTER.POLAR>
-1.77221

>  <SCORE.INTER.ROT>
8

>  <SCORE.INTER.SOLV>
33.67

>  <SCORE.INTER.VDW>
-11.3355

>  <SCORE.INTER.norm>
0.124877

>  <SCORE.INTRA>
0.258367

>  <SCORE.INTRA.DIHEDRAL>
5.82182

>  <SCORE.INTRA.DIHEDRAL.0>
13.1227

>  <SCORE.INTRA.POLAR>
0

>  <SCORE.INTRA.POLAR.0>
0

>  <SCORE.INTRA.REPUL>
0.0117479

>  <SCORE.INTRA.REPUL.0>
0

>  <SCORE.INTRA.SOLV>
-0.474266

>  <SCORE.INTRA.SOLV.lig_0>
-89.1587

>  <SCORE.INTRA.VDW>
-2.47415

>  <SCORE.INTRA.VDW.0>
-0.838383

>  <SCORE.INTRA.norm>
0.00738191

>  <SCORE.RESTR>
2.61661

>  <SCORE.RESTR.CAVITY>
2.61661

>  <SCORE.RESTR.norm>
0.0747602

>  <SCORE.SYSTEM>
0

>  <SCORE.SYSTEM.CONST>
0

>  <SCORE.SYSTEM.DIHEDRAL>
0

>  <SCORE.SYSTEM.SOLV>
0

>  <SCORE.SYSTEM.norm>
0

>  <SCORE.heavy>
35

>  <SCORE.norm>
0.207019

>  <RMSD>
30.037

$$$$
2o3v_lig
 OpenBabel02141814113D
libRbt.so/2013.1/901 2013/11/27
 35 37  0  0  0  0  0  0  0  0999 V2000
   -2.4531   -4.5144   17.9277 C   0  0  2  0  0  0  0  0  0  0  0  0
   -3.7683   -4.3943   18.5510 O   0  0  0  0  0  0  0  0  0  0  0  0
   -6.8106   -6.6182   20.7249 C   0  0  2  0  0  0  0  0  0  0  0  0
   -7.4552   -7.6432   21.6002 N   0  0  0  0  0  0  0  0  0  0  0  0
   -6.3443    3.3390   16.8856 C   0  0  2  0  0  0  0  0  0  0  0  0
   -6.4522    3.6931   18.2815 O   0  0  0  0  0  0  0  0  0  0  0  0
   -2.1718   -3.0674   17.4123 C   0  0  2  0  0  0  0  0  0  0  0  0
   -2.1944   -2.0885   18.5248 N   0  0  0  0  0  0  0  0  0  0  0  0
   -6.1116   -7.3217   19.4832 C   0  0  0  0  0  0  0  0  0  0  0  0
   -6.0068    1.8096   16.8124 C   0  0  2  0  0  0  0  0  0  0  0  0
   -7.0426    1.0019   17.5050 N   0  0  0  0  0  0  0  0  0  0  0  0
   -3.2155   -2.6328   16.2937 C   0  0  1  0  0  0  0  0  0  0  0  0
   -2.9580   -1.2384   15.8489 O   0  0  0  0  0  0  0  0  0  0  0  0
   -5.4245   -6.2117   18.5754 C   0  0  2  0  0  0  0  0  0  0  0  0
   -4.7574   -6.8470   17.4188 N   0  0  0  0  0  0  0  0  0  0  0  0
   -4.5669    1.4982   17.4162 C   0  0  1  0  0  0  0  0  0  0  0  0
   -4.2145    0.0935   17.3309 O   0  0  0  0  0  0  0  0  0  0  0  0
   -3.1412   -3.7135   15.1274 C   0  0  2  0  0  0  0  0  0  0  0  0
   -4.0602   -3.4210   14.0902 O   0  0  0  0  0  0  0  0  0  0  0  0
   -4.3675   -5.3957   19.4276 C   0  0  2  0  0  0  0  0  0  0  0  0
   -3.5120    2.3573   16.6496 C   0  0  2  0  0  0  0  0  0  0  0  0
   -2.2101    2.1292   17.1523 O   0  0  0  0  0  0  0  0  0  0  0  0
   -3.4158   -5.1585   15.6935 C   0  0  2  0  0  0  0  0  0  0  0  0
   -2.4586   -5.4607   16.7783 O   0  0  0  0  0  0  0  0  0  0  0  0
   -5.0583   -4.7163   20.6431 C   0  0  2  0  0  0  0  0  0  0  0  0
   -4.0246   -4.0217   21.3983 O   0  0  0  0  0  0  0  0  0  0  0  0
   -3.8916    3.8891   16.7444 C   0  0  2  0  0  0  0  0  0  0  0  0
   -5.2595    4.1126   16.2230 O   0  0  0  0  0  0  0  0  0  0  0  0
   -3.3135   -6.2204   14.5996 C   0  0  0  0  0  0  0  0  0  0  0  0
   -3.5167   -7.5097   15.1243 O   0  0  0  0  0  0  0  0  0  0  0  0
   -5.7311   -5.7923   21.5271 C   0  0  1  0  0  0  0  0  0  0  0  0
   -6.3548   -5.1495   22.6189 O   0  0  0  0  0  0  0  0  0  0  0  0
   -2.9143    4.7637   15.9738 C   0  0  0  0  0  0  0  0  0  0  0  0
   -1.6395    4.7166   16.5677 O   0  0  0  0  0  0  0  0  0  0  0  0
   -4.1608   -0.3285   15.9365 C   0  0  0  0  0  0  0  0  0  0  0  0
  1  2  1  6  0  0  0
  1  7  1  0  0  0  0
  1 24  1  0  0  0  0
  3  4  1  1  0  0  0
  3  9  1  0  0  0  0
  3 31  1  0  0  0  0
  5  6  1  1  0  0  0
  5 10  1  0  0  0  0
  5 28  1  0  0  0  0
  7  8  1  1  0  0  0
  7 12  1  0  0  0  0
  9 14  1  0  0  0  0
 10 11  1  1  0  0  0
 10 16  1  0  0  0  0
 12 13  1  6  0  0  0
 12 18  1  0  0  0  0
 13 35  1  0  0  0  0
 14 15  1  6  0  0  0
 14 20  1  0  0  0  0
 16 17  1  6  0  0  0
 16 21  1  0  0  0  0
 17 35  1  0  0  0  0
 18 19  1  6  0  0  0
 18 23  1  0  0  0  0
 20  2  1  6  0  0  0
 20 25  1  0  0  0  0
 21 22  1  1  0  0  0
 21 27  1  0  0  0  0
 23 24  1  0  0  0  0
 23 29  1  6  0  0  0
 25 26  1  1  0  0  0
 25 31  1  0  0  0  0
 27 28  1  0  0  0  0
 27 33  1  6  0  0  0
 29 30  1  0  0  0  0
 31 32  1  1  0  0  0
 33 34  1  0  0  0  0
M  END
>  <CHROM.1>
-166.60906186,-125.99129569,81.69457449,61.98904992,139.62657225,-101.46494950
178.05239087,-65.93618849,-4.29149548,-2.13017774,17.66770194,-1.72841200
1.00963118,-0.11016540

>  <Name>
2o3v_lig

>  <RI>
0

>  <Rbt.Current_Directory>
/home/afrankz/demos/rdock_decoys_rna/rnas/2o3v

>  <Rbt.Executable>
rbdock ($Id: //depot/dev/client3/rdock/2013.1/src/exe/rbdock.cxx#4 $)

>  <Rbt.Library>
libRbt.so (2013.1, Build901 2013/11/27)

>  <Rbt.Parameter_File>
/export/apps/rDock/src/rDock_2013.1_src/data/scripts/dock_solv.prm

>  <Rbt.Receptor>
prm/blind_docking_60.prm

>  <SCORE>
-10.5798

>  <SCORE.INTER>
-20.5164

>  <SCORE.INTER.CONST>
1

>  <SCORE.INTER.POLAR>
-2.72111

>  <SCORE.INTER.ROT>
8

>  <SCORE.INTER.SOLV>
25.0031

>  <SCORE.INTER.VDW>
-21.8749

>  <SCORE.INTER.norm>
-0.586184

>  <SCORE.INTRA>
5.93689

>  <SCORE.INTRA.DIHEDRAL>
8.11482

>  <SCORE.INTRA.DIHEDRAL.0>
13.1227

>  <SCORE.INTRA.POLAR>
0

>  <SCORE.INTRA.POLAR.0>
0

>  <SCORE.INTRA.REPUL>
0

>  <SCORE.INTRA.REPUL.0>
0

>  <SCORE.INTRA.SOLV>
4.86274

>  <SCORE.INTRA.SOLV.lig_0>
-89.1587

>  <SCORE.INTRA.VDW>
-0.551893

>  <SCORE.INTRA.VDW.0>
-0.838383

>  <SCORE.INTRA.norm>
0.169625

>  <SCORE.RESTR>
3.99969

>  <SCORE.RESTR.CAVITY>
3.99969

>  <SCORE.RESTR.norm>
0.114277

>  <SCORE.SYSTEM>
0

>  <SCORE.SYSTEM.CONST>
0

>  <SCORE.SYSTEM.DIHEDRAL>
0

>  <SCORE.SYSTEM.SOLV>
0

>  <SCORE.SYSTEM.norm>
0

>  <SCORE.heavy>
35

>  <SCORE.norm>
-0.302281

>  <RMSD>
30.055

$$$$
2o3v_lig
 OpenBabel02141814113D
libRbt.so/2013.1/901 2013/11/27
 35 37  0  0  0  0  0  0  0  0999 V2000
   -3.3101   -5.7021   18.1267 C   0  0  2  0  0  0  0  0  0  0  0  0
   -4.6943   -5.5764   18.5748 O   0  0  0  0  0  0  0  0  0  0  0  0
   -7.2255   -8.5446   20.5010 C   0  0  2  0  0  0  0  0  0  0  0  0
   -8.1904   -9.6698   20.6885 N   0  0  0  0  0  0  0  0  0  0  0  0
   -6.4677    2.5482   17.0393 C   0  0  2  0  0  0  0  0  0  0  0  0
   -6.7554    2.1655   18.4017 O   0  0  0  0  0  0  0  0  0  0  0  0
   -2.9592   -4.2570   17.6505 C   0  0  2  0  0  0  0  0  0  0  0  0
   -3.1217   -3.2763   18.7496 N   0  0  0  0  0  0  0  0  0  0  0  0
   -7.9290   -7.3437   19.7339 C   0  0  0  0  0  0  0  0  0  0  0  0
   -5.7821    1.3232   16.3408 C   0  0  2  0  0  0  0  0  0  0  0  0
   -6.6510    0.1206   16.4013 N   0  0  0  0  0  0  0  0  0  0  0  0
   -3.8481   -3.8204   16.4059 C   0  0  1  0  0  0  0  0  0  0  0  0
   -3.5302   -2.4276   15.9967 O   0  0  0  0  0  0  0  0  0  0  0  0
   -6.8790   -6.1659   19.5373 C   0  0  2  0  0  0  0  0  0  0  0  0
   -7.5108   -5.0414   18.8143 N   0  0  0  0  0  0  0  0  0  0  0  0
   -4.3569    1.0088   16.9769 C   0  0  1  0  0  0  0  0  0  0  0  0
   -3.6847   -0.1004   16.3270 O   0  0  0  0  0  0  0  0  0  0  0  0
   -3.6278   -4.9031   15.2602 C   0  0  2  0  0  0  0  0  0  0  0  0
   -4.4040   -4.6089   14.1126 O   0  0  0  0  0  0  0  0  0  0  0  0
   -5.6233   -6.6917   18.7272 C   0  0  2  0  0  0  0  0  0  0  0  0
   -3.4759    2.2944   16.8783 C   0  0  2  0  0  0  0  0  0  0  0  0
   -2.1965    2.0768   17.4398 O   0  0  0  0  0  0  0  0  0  0  0  0
   -3.9785   -6.3462   15.7875 C   0  0  2  0  0  0  0  0  0  0  0  0
   -3.1705   -6.6502   16.9873 O   0  0  0  0  0  0  0  0  0  0  0  0
   -4.9453   -7.8698   19.4812 C   0  0  2  0  0  0  0  0  0  0  0  0
   -3.8299   -8.3253   18.6628 O   0  0  0  0  0  0  0  0  0  0  0  0
   -4.2045    3.5038   17.5894 C   0  0  2  0  0  0  0  0  0  0  0  0
   -5.5455    3.7152   16.9980 O   0  0  0  0  0  0  0  0  0  0  0  0
   -3.7397   -7.4102   14.7171 C   0  0  0  0  0  0  0  0  0  0  0  0
   -2.3733   -7.5106   14.3982 O   0  0  0  0  0  0  0  0  0  0  0  0
   -5.9643   -9.0166   19.6778 C   0  0  1  0  0  0  0  0  0  0  0  0
   -5.3260  -10.0698   20.3687 O   0  0  0  0  0  0  0  0  0  0  0  0
   -3.4021    4.7916   17.4808 C   0  0  0  0  0  0  0  0  0  0  0  0
   -3.8711    5.7419   18.4066 O   0  0  0  0  0  0  0  0  0  0  0  0
   -4.1724   -1.3668   16.8595 C   0  0  0  0  0  0  0  0  0  0  0  0
  1  2  1  6  0  0  0
  1  7  1  0  0  0  0
  1 24  1  0  0  0  0
  3  4  1  6  0  0  0
  3  9  1  0  0  0  0
  3 31  1  0  0  0  0
  5  6  1  1  0  0  0
  5 10  1  0  0  0  0
  5 28  1  0  0  0  0
  7  8  1  1  0  0  0
  7 12  1  0  0  0  0
  9 14  1  0  0  0  0
 10 11  1  1  0  0  0
 10 16  1  0  0  0  0
 12 13  1  6  0  0  0
 12 18  1  0  0  0  0
 13 35  1  0  0  0  0
 14 15  1  6  0  0  0
 14 20  1  0  0  0  0
 16 17  1  6  0  0  0
 16 21  1  0  0  0  0
 17 35  1  0  0  0  0
 18 19  1  6  0  0  0
 18 23  1  0  0  0  0
 20  2  1  1  0  0  0
 20 25  1  0  0  0  0
 21 22  1  1  0  0  0
 21 27  1  0  0  0  0
 23 24  1  0  0  0  0
 23 29  1  6  0  0  0
 25 26  1  6  0  0  0
 25 31  1  0  0  0  0
 27 28  1  0  0  0  0
 27 33  1  6  0  0  0
 29 30  1  0  0  0  0
 31 32  1  1  0  0  0
 33 34  1  0  0  0  0
M  END
>  <CHROM.1>
160.12857010,-79.09919137,177.46539998,-82.32330904,173.32095198,167.20071662
65.51760186,-164.04608479,-4.73077430,-3.20291769,17.58074388,-1.68997956
0.81776669,-0.03702605

>  <Name>
2o3v_lig

>  <RI>
0

>  <Rbt.Current_Directory>
/home/afrankz/demos/rdock_decoys_rna/rnas/2o3v

>  <Rbt.Executable>
rbdock ($Id: //depot/dev/client3/rdock/2013.1/src/exe/rbdock.cxx#4 $)

>  <Rbt.Library>
libRbt.so (2013.1, Build901 2013/11/27)

>  <Rbt.Parameter_File>
/export/apps/rDock/src/rDock_2013.1_src/data/scripts/dock_solv.prm

>  <Rbt.Receptor>
prm/blind_docking_100.prm

>  <SCORE>
-17.6083

>  <SCORE.INTER>
-17.3619

>  <SCORE.INTER.CONST>
1

>  <SCORE.INTER.POLAR>
-2.15623

>  <SCORE.INTER.ROT>
8

>  <SCORE.INTER.SOLV>
15.1331

>  <SCORE.INTER.VDW>
-18.3648

>  <SCORE.INTER.norm>
-0.496053

>  <SCORE.INTRA>
-2.85577

>  <SCORE.INTRA.DIHEDRAL>
-5.44279

>  <SCORE.INTRA.DIHEDRAL.0>
13.1227

>  <SCORE.INTRA.POLAR>
0

>  <SCORE.INTRA.POLAR.0>
0

>  <SCORE.INTRA.REPUL>
0

>  <SCORE.INTRA.REPUL.0>
0

>  <SCORE.INTRA.SOLV>
0.341824

>  <SCORE.INTRA.SOLV.lig_0>
-89.1587

>  <SCORE.INTRA.VDW>
-0.305289

>  <SCORE.INTRA.VDW.0>
-0.838383

>  <SCORE.INTRA.norm>
-0.0815934

>  <SCORE.RESTR>
2.60934

>  <SCORE.RESTR.CAVITY>
2.60934

>  <SCORE.RESTR.norm>
0.0745526

>  <SCORE.SYSTEM>
0

>  <SCORE.SYSTEM.CONST>
0

>  <SCORE.SYSTEM.DIHEDRAL>
0

>  <SCORE.SYSTEM.SOLV>
0

>  <SCORE.SYSTEM.norm>
0

>  <SCORE.heavy>
35

>  <SCORE.norm>
-0.503094

>  <RMSD>
30.056

$$$$
2o3v_lig
 OpenBabel02141814113D
libRbt.so/2013.1/901 2013/11/27
 35 37  0  0  0  0  0  0  0  0999 V2000
   -3.7809    2.3861   15.5521 C   0  0  2  0  0  0  0  0  0  0  0  0
   -3.3876    1.2671   16.4041 O   0  0  0  0  0  0  0  0  0  0  0  0
   -3.6409   -3.0383   16.9756 C   0  0  2  0  0  0  0  0  0  0  0  0
   -3.9918   -4.4737   16.7555 N   0  0  0  0  0  0  0  0  0  0  0  0
   -6.5612    8.3532   22.8365 C   0  0  2  0  0  0  0  0  0  0  0  0
   -7.8262    8.2132   22.1541 O   0  0  0  0  0  0  0  0  0  0  0  0
   -3.4256    3.6345   16.4203 C   0  0  2  0  0  0  0  0  0  0  0  0
   -1.9849    3.6535   16.7670 N   0  0  0  0  0  0  0  0  0  0  0  0
   -4.9617   -2.1769   17.1729 C   0  0  0  0  0  0  0  0  0  0  0  0
   -5.4372    7.8977   21.8427 C   0  0  2  0  0  0  0  0  0  0  0  0
   -5.4771    8.6960   20.5913 N   0  0  0  0  0  0  0  0  0  0  0  0
   -4.2981    3.6892   17.7489 C   0  0  1  0  0  0  0  0  0  0  0  0
   -3.9140    4.8588   18.5813 O   0  0  0  0  0  0  0  0  0  0  0  0
   -4.5613   -0.6539   17.3934 C   0  0  2  0  0  0  0  0  0  0  0  0
   -5.7781    0.1681   17.5678 N   0  0  0  0  0  0  0  0  0  0  0  0
   -5.5429    6.3440   21.5116 C   0  0  1  0  0  0  0  0  0  0  0  0
   -4.4938    5.8878   20.6194 O   0  0  0  0  0  0  0  0  0  0  0  0
   -5.8293    3.6730   17.3141 C   0  0  2  0  0  0  0  0  0  0  0  0
   -6.6882    3.6946   18.4400 O   0  0  0  0  0  0  0  0  0  0  0  0
   -3.7284   -0.1295   16.1522 C   0  0  2  0  0  0  0  0  0  0  0  0
   -5.4826    5.5465   22.8528 C   0  0  2  0  0  0  0  0  0  0  0  0
   -5.5831    4.1553   22.6206 O   0  0  0  0  0  0  0  0  0  0  0  0
   -6.1398    2.4067   16.4287 C   0  0  2  0  0  0  0  0  0  0  0  0
   -5.2401    2.3834   15.2563 O   0  0  0  0  0  0  0  0  0  0  0  0
   -2.4419   -0.9812   15.9628 C   0  0  2  0  0  0  0  0  0  0  0  0
   -1.7513   -0.4701   14.7868 O   0  0  0  0  0  0  0  0  0  0  0  0
   -6.6274    6.0390   23.8255 C   0  0  2  0  0  0  0  0  0  0  0  0
   -6.5156    7.4980   24.0533 O   0  0  0  0  0  0  0  0  0  0  0  0
   -7.5961    2.3864   15.9665 C   0  0  0  0  0  0  0  0  0  0  0  0
   -8.4737    2.2796   17.0607 O   0  0  0  0  0  0  0  0  0  0  0  0
   -2.8266   -2.4643   15.7515 C   0  0  1  0  0  0  0  0  0  0  0  0
   -1.6422   -3.2156   15.5879 O   0  0  0  0  0  0  0  0  0  0  0  0
   -6.5813    5.3195   25.1649 C   0  0  0  0  0  0  0  0  0  0  0  0
   -5.4701    5.7479   25.9145 O   0  0  0  0  0  0  0  0  0  0  0  0
   -5.0620    5.4831   19.3393 C   0  0  0  0  0  0  0  0  0  0  0  0
  1  2  1  1  0  0  0
  1  7  1  0  0  0  0
  1 24  1  0  0  0  0
  3  4  1  6  0  0  0
  3  9  1  0  0  0  0
  3 31  1  0  0  0  0
  5  6  1  6  0  0  0
  5 10  1  0  0  0  0
  5 28  1  0  0  0  0
  7  8  1  1  0  0  0
  7 12  1  0  0  0  0
  9 14  1  0  0  0  0
 10 11  1  6  0  0  0
 10 16  1  0  0  0  0
 12 13  1  6  0  0  0
 12 18  1  0  0  0  0
 13 35  1  0  0  0  0
 14 15  1  6  0  0  0
 14 20  1  0  0  0  0
 16 17  1  6  0  0  0
 16 21  1  0  0  0  0
 17 35  1  0  0  0  0
 18 19  1  1  0  0  0
 18 23  1  0  0  0  0
 20  2  1  1  0  0  0
 20 25  1  0  0  0  0
 21 22  1  6  0  0  0
 21 27  1  0  0  0  0
 23 24  1  0  0  0  0
 23 29  1  6  0  0  0
 25 26  1  6  0  0  0
 25 31  1  0  0  0  0
 27 28  1  0  0  0  0
 27 33  1  1  0  0  0
 29 30  1  0  0  0  0
 31 32  1  1  0  0  0
 33 34  1  0  0  0  0
M  END
>  <CHROM.1>
168.66367139,145.76595261,143.14163680,-113.55189487,-172.44555208,-120.36837132
-63.58660301,71.27246443,-4.95005111,3.00325690,18.86885119,0.17245056,1.32754861
-1.03734033

>  <Name>
2o3v_lig

>  <RI>
0

>  <Rbt.Current_Directory>
/home/afrankz/demos/rdock_decoys_rna/rnas/2o3v

>  <Rbt.Executable>
rbdock ($Id: //depot/dev/client3/rdock/2013.1/src/exe/rbdock.cxx#4 $)

>  <Rbt.Library>
libRbt.so (2013.1, Build901 2013/11/27)

>  <Rbt.Parameter_File>
/export/apps/rDock/src/rDock_2013.1_src/data/scripts/dock_solv.prm

>  <Rbt.Receptor>
prm/blind_docking_40.prm

>  <SCORE>
0.785374

>  <SCORE.INTER>
-12.9974

>  <SCORE.INTER.CONST>
1

>  <SCORE.INTER.POLAR>
-3.03254

>  <SCORE.INTER.ROT>
8

>  <SCORE.INTER.SOLV>
29.9823

>  <SCORE.INTER.VDW>
-17.4839

>  <SCORE.INTER.norm>
-0.371355

>  <SCORE.INTRA>
10.252

>  <SCORE.INTRA.DIHEDRAL>
11.7496

>  <SCORE.INTRA.DIHEDRAL.0>
13.1227

>  <SCORE.INTRA.POLAR>
0

>  <SCORE.INTRA.POLAR.0>
0

>  <SCORE.INTRA.REPUL>
0

>  <SCORE.INTRA.REPUL.0>
0

>  <SCORE.INTRA.SOLV>
3.87367

>  <SCORE.INTRA.SOLV.lig_0>
-89.1587

>  <SCORE.INTRA.VDW>
2.44038

>  <SCORE.INTRA.VDW.0>
-0.838383

>  <SCORE.INTRA.norm>
0.292915

>  <SCORE.RESTR>
3.53078

>  <SCORE.RESTR.CAVITY>
3.53078

>  <SCORE.RESTR.norm>
0.100879

>  <SCORE.SYSTEM>
0

>  <SCORE.SYSTEM.CONST>
0

>  <SCORE.SYSTEM.DIHEDRAL>
0

>  <SCORE.SYSTEM.SOLV>
0

>  <SCORE.SYSTEM.norm>
0

>  <SCORE.heavy>
35

>  <SCORE.norm>
0.0224393

>  <RMSD>
30.058

$$$$
2o3v_lig
 OpenBabel02141814113D
libRbt.so/2013.1/901 2013/11/27
 35 37  0  0  0  0  0  0  0  0999 V2000
   -3.1446   -5.5420   18.0236 C   0  0  2  0  0  0  0  0  0  0  0  0
   -4.4899   -5.4306   18.5808 O   0  0  0  0  0  0  0  0  0  0  0  0
   -7.0906   -8.3792   20.4435 C   0  0  2  0  0  0  0  0  0  0  0  0
   -8.0681   -9.4972   20.6070 N   0  0  0  0  0  0  0  0  0  0  0  0
   -6.4846    2.7648   17.0857 C   0  0  2  0  0  0  0  0  0  0  0  0
   -6.8093    2.3241   18.4221 O   0  0  0  0  0  0  0  0  0  0  0  0
   -2.8387   -4.0883   17.5426 C   0  0  2  0  0  0  0  0  0  0  0  0
   -2.9188   -3.1243   18.6654 N   0  0  0  0  0  0  0  0  0  0  0  0
   -7.7656   -7.1735   19.6587 C   0  0  0  0  0  0  0  0  0  0  0  0
   -5.8150    1.5581   16.3416 C   0  0  2  0  0  0  0  0  0  0  0  0
   -6.7140    0.3764   16.3265 N   0  0  0  0  0  0  0  0  0  0  0  0
   -3.8246   -3.6389   16.3782 C   0  0  1  0  0  0  0  0  0  0  0  0
   -3.5461   -2.2387   15.9658 O   0  0  0  0  0  0  0  0  0  0  0  0
   -6.7023   -6.0035   19.4881 C   0  0  2  0  0  0  0  0  0  0  0  0
   -7.3075   -4.8747   18.7491 N   0  0  0  0  0  0  0  0  0  0  0  0
   -4.4111    1.1772   16.9889 C   0  0  1  0  0  0  0  0  0  0  0  0
   -3.7530    0.0841   16.2986 O   0  0  0  0  0  0  0  0  0  0  0  0
   -3.6901   -4.7039   15.2029 C   0  0  2  0  0  0  0  0  0  0  0  0
   -4.5554   -4.3978   14.1243 O   0  0  0  0  0  0  0  0  0  0  0  0
   -5.4307   -6.5389   18.7100 C   0  0  2  0  0  0  0  0  0  0  0  0
   -3.4972    2.4433   16.9702 C   0  0  2  0  0  0  0  0  0  0  0  0
   -2.2352    2.1664   17.5449 O   0  0  0  0  0  0  0  0  0  0  0  0
   -3.9918   -6.1564   15.7349 C   0  0  2  0  0  0  0  0  0  0  0  0
   -3.0907   -6.4729   16.8629 O   0  0  0  0  0  0  0  0  0  0  0  0
   -4.7805   -7.7217   19.4812 C   0  0  2  0  0  0  0  0  0  0  0  0
   -3.6483   -8.1857   18.6913 O   0  0  0  0  0  0  0  0  0  0  0  0
   -4.2105    3.6350   17.7254 C   0  0  2  0  0  0  0  0  0  0  0  0
   -5.5336    3.9088   17.1193 O   0  0  0  0  0  0  0  0  0  0  0  0
   -3.8331   -7.2036   14.6335 C   0  0  0  0  0  0  0  0  0  0  0  0
   -2.4753   -7.4516   14.3618 O   0  0  0  0  0  0  0  0  0  0  0  0
   -5.8126   -8.8607   19.6525 C   0  0  1  0  0  0  0  0  0  0  0  0
   -5.1996   -9.9184   20.3594 O   0  0  0  0  0  0  0  0  0  0  0  0
   -3.3749    4.9058   17.6953 C   0  0  0  0  0  0  0  0  0  0  0  0
   -3.9240    5.8751   18.5549 O   0  0  0  0  0  0  0  0  0  0  0  0
   -4.1926   -1.1940   16.8449 C   0  0  0  0  0  0  0  0  0  0  0  0
  1  2  1  6  0  0  0
  1  7  1  0  0  0  0
  1 24  1  0  0  0  0
  3  4  1  6  0  0  0
  3  9  1  0  0  0  0
  3 31  1  0  0  0  0
  5  6  1  1  0  0  0
  5 10  1  0  0  0  0
  5 28  1  0  0  0  0
  7  8  1  1  0  0  0
  7 12  1  0  0  0  0
  9 14  1  0  0  0  0
 10 11  1  1  0  0  0
 10 16  1  0  0  0  0
 12 13  1  6  0  0  0
 12 18  1  0  0  0  0
 13 35  1  0  0  0  0
 14 15  1  6  0  0  0
 14 20  1  0  0  0  0
 16 17  1  6  0  0  0
 16 21  1  0  0  0  0
 17 35  1  0  0  0  0
 18 19  1  6  0  0  0
 18 23  1  0  0  0  0
 20  2  1  1  0  0  0
 20 25  1  0  0  0  0
 21 22  1  1  0  0  0
 21 27  1  0  0  0  0
 23 24  1  0  0  0  0
 23 29  1  6  0  0  0
 25 26  1  6  0  0  0
 25 31  1  0  0  0  0
 27 28  1  0  0  0  0
 27 33  1  6  0  0  0
 29 30  1  0  0  0  0
 31 32  1  1  0  0  0
 33 34  1  0  0  0  0
M  END
>  <CHROM.1>
156.00023598,-82.57984355,177.91262905,-87.52208473,174.76977393,174.56094652
75.28983307,-170.26599033,-4.68760714,-3.03724027,17.57461091,-1.66852252
0.84398646,-0.03690643

>  <Name>
2o3v_lig

>  <RI>
0

>  <Rbt.Current_Directory>
/home/afrankz/demos/rdock_decoys_rna/rnas/2o3v

>  <Rbt.Executable>
rbdock ($Id: //depot/dev/client3/rdock/2013.1/src/exe/rbdock.cxx#4 $)

>  <Rbt.Library>
libRbt.so (2013.1, Build901 2013/11/27)

>  <Rbt.Parameter_File>
/export/apps/rDock/src/rDock_2013.1_src/data/scripts/dock_solv.prm

>  <Rbt.Receptor>
prm/blind_docking_60.prm

>  <SCORE>
-18.5942

>  <SCORE.INTER>
-18.2948

>  <SCORE.INTER.CONST>
1

>  <SCORE.INTER.POLAR>
-2.15751

>  <SCORE.INTER.ROT>
8

>  <SCORE.INTER.SOLV>
14.7488

>  <SCORE.INTER.VDW>
-18.8544

>  <SCORE.INTER.norm>
-0.522707

>  <SCORE.INTRA>
-3.05576

>  <SCORE.INTRA.DIHEDRAL>
-3.78182

>  <SCORE.INTRA.DIHEDRAL.0>
13.1227

>  <SCORE.INTRA.POLAR>
0

>  <SCORE.INTRA.POLAR.0>
0

>  <SCORE.INTRA.REPUL>
0

>  <SCORE.INTRA.REPUL.0>
0

>  <SCORE.INTRA.SOLV>
0.209367

>  <SCORE.INTRA.SOLV.lig_0>
-89.1587

>  <SCORE.INTRA.VDW>
-1.26953

>  <SCORE.INTRA.VDW.0>
-0.838383

>  <SCORE.INTRA.norm>
-0.0873074

>  <SCORE.RESTR>
2.75633

>  <SCORE.RESTR.CAVITY>
2.75633

>  <SCORE.RESTR.norm>
0.0787522

>  <SCORE.SYSTEM>
0

>  <SCORE.SYSTEM.CONST>
0

>  <SCORE.SYSTEM.DIHEDRAL>
0

>  <SCORE.SYSTEM.SOLV>
0

>  <SCORE.SYSTEM.norm>
0

>  <SCORE.heavy>
35

>  <SCORE.norm>
-0.531262

>  <RMSD>
30.066

$$$$
2o3v_lig
 OpenBabel02141814113D
libRbt.so/2013.1/901 2013/11/27
 35 37  0  0  0  0  0  0  0  0999 V2000
   -4.0785    2.5605   15.8320 C   0  0  2  0  0  0  0  0  0  0  0  0
   -3.6990    1.4350   16.6818 O   0  0  0  0  0  0  0  0  0  0  0  0
   -3.7914   -2.8936   17.1085 C   0  0  2  0  0  0  0  0  0  0  0  0
   -4.0220   -4.3380   16.8039 N   0  0  0  0  0  0  0  0  0  0  0  0
   -5.4770    7.4702   23.9191 C   0  0  2  0  0  0  0  0  0  0  0  0
   -5.0486    6.3626   24.7409 O   0  0  0  0  0  0  0  0  0  0  0  0
   -3.3600    3.7717   16.5066 C   0  0  2  0  0  0  0  0  0  0  0  0
   -1.8941    3.5616   16.5630 N   0  0  0  0  0  0  0  0  0  0  0  0
   -5.1737   -2.1097   17.1182 C   0  0  0  0  0  0  0  0  0  0  0  0
   -5.6476    6.9328   22.4561 C   0  0  2  0  0  0  0  0  0  0  0  0
   -6.6171    5.8089   22.4112 N   0  0  0  0  0  0  0  0  0  0  0  0
   -3.9203    4.0416   17.9705 C   0  0  1  0  0  0  0  0  0  0  0  0
   -3.1938    5.1686   18.6111 O   0  0  0  0  0  0  0  0  0  0  0  0
   -4.8994   -0.5753   17.4328 C   0  0  2  0  0  0  0  0  0  0  0  0
   -6.1733    0.1754   17.4351 N   0  0  0  0  0  0  0  0  0  0  0  0
   -4.2535    6.4863   21.8300 C   0  0  1  0  0  0  0  0  0  0  0  0
   -4.3772    6.0154   20.4634 O   0  0  0  0  0  0  0  0  0  0  0  0
   -5.4912    4.2655   17.8454 C   0  0  2  0  0  0  0  0  0  0  0  0
   -6.0853    4.4902   19.1113 O   0  0  0  0  0  0  0  0  0  0  0  0
   -3.9169    0.0309   16.3482 C   0  0  2  0  0  0  0  0  0  0  0  0
   -3.2737    7.7010   21.8860 C   0  0  2  0  0  0  0  0  0  0  0  0
   -2.0105    7.3587   21.3507 O   0  0  0  0  0  0  0  0  0  0  0  0
   -6.1728    3.0281   17.1468 C   0  0  2  0  0  0  0  0  0  0  0  0
   -5.5491    2.7924   15.8277 O   0  0  0  0  0  0  0  0  0  0  0  0
   -2.5702   -0.7454   16.3412 C   0  0  2  0  0  0  0  0  0  0  0  0
   -1.7374   -0.1619   15.2986 O   0  0  0  0  0  0  0  0  0  0  0  0
   -3.1341    8.2136   23.3749 C   0  0  2  0  0  0  0  0  0  0  0  0
   -4.4642    8.5603   23.9258 O   0  0  0  0  0  0  0  0  0  0  0  0
   -7.6777    3.2338   16.9807 C   0  0  0  0  0  0  0  0  0  0  0  0
   -8.3143    2.0374   16.6036 O   0  0  0  0  0  0  0  0  0  0  0  0
   -2.8328   -2.2393   16.0390 C   0  0  1  0  0  0  0  0  0  0  0  0
   -1.5964   -2.9216   16.0440 O   0  0  0  0  0  0  0  0  0  0  0  0
   -2.2212    9.4265   23.4732 C   0  0  0  0  0  0  0  0  0  0  0  0
   -1.8311    9.6405   24.8081 O   0  0  0  0  0  0  0  0  0  0  0  0
   -3.2468    5.1611   20.1209 C   0  0  0  0  0  0  0  0  0  0  0  0
  1  2  1  1  0  0  0
  1  7  1  0  0  0  0
  1 24  1  0  0  0  0
  3  4  1  6  0  0  0
  3  9  1  0  0  0  0
  3 31  1  0  0  0  0
  5  6  1  1  0  0  0
  5 10  1  0  0  0  0
  5 28  1  0  0  0  0
  7  8  1  1  0  0  0
  7 12  1  0  0  0  0
  9 14  1  0  0  0  0
 10 11  1  1  0  0  0
 10 16  1  0  0  0  0
 12 13  1  6  0  0  0
 12 18  1  0  0  0  0
 13 35  1  0  0  0  0
 14 15  1  6  0  0  0
 14 20  1  0  0  0  0
 16 17  1  6  0  0  0
 16 21  1  0  0  0  0
 17 35  1  0  0  0  0
 18 19  1  1  0  0  0
 18 23  1  0  0  0  0
 20  2  1  1  0  0  0
 20 25  1  0  0  0  0
 21 22  1  1  0  0  0
 21 27  1  0  0  0  0
 23 24  1  0  0  0  0
 23 29  1  6  0  0  0
 25 26  1  6  0  0  0
 25 31  1  0  0  0  0
 27 28  1  0  0  0  0
 27 33  1  6  0  0  0
 29 30  1  0  0  0  0
 31 32  1  1  0  0  0
 33 34  1  0  0  0  0
M  END
>  <CHROM.1>
-168.50222693,-157.18137477,-93.93493794,-157.95498882,-159.19703936,-117.27742640
-168.41808137,-164.31906553,-4.21156323,3.46665415,19.06730341,1.58037906
0.10911621,-2.48752254

>  <Name>
2o3v_lig

>  <RI>
0

>  <Rbt.Current_Directory>
/home/afrankz/demos/rdock_decoys_rna/rnas/2o3v

>  <Rbt.Executable>
rbdock ($Id: //depot/dev/client3/rdock/2013.1/src/exe/rbdock.cxx#4 $)

>  <Rbt.Library>
libRbt.so (2013.1, Build901 2013/11/27)

>  <Rbt.Parameter_File>
/export/apps/rDock/src/rDock_2013.1_src/data/scripts/dock_solv.prm

>  <Rbt.Receptor>
prm/blind_docking_80.prm

>  <SCORE>
-14.1935

>  <SCORE.INTER>
-20.2629

>  <SCORE.INTER.CONST>
1

>  <SCORE.INTER.POLAR>
-3.54259

>  <SCORE.INTER.ROT>
8

>  <SCORE.INTER.SOLV>
27.4949

>  <SCORE.INTER.VDW>
-19.7983

>  <SCORE.INTER.norm>
-0.578941

>  <SCORE.INTRA>
2.92105

>  <SCORE.INTRA.DIHEDRAL>
6.72646

>  <SCORE.INTRA.DIHEDRAL.0>
13.1227

>  <SCORE.INTRA.POLAR>
0

>  <SCORE.INTRA.POLAR.0>
0

>  <SCORE.INTRA.REPUL>
0

>  <SCORE.INTRA.REPUL.0>
0

>  <SCORE.INTRA.SOLV>
3.46224

>  <SCORE.INTRA.SOLV.lig_0>
-89.1587

>  <SCORE.INTRA.VDW>
-2.1733

>  <SCORE.INTRA.VDW.0>
-0.838383

>  <SCORE.INTRA.norm>
0.0834586

>  <SCORE.RESTR>
3.14837

>  <SCORE.RESTR.CAVITY>
3.14837

>  <SCORE.RESTR.norm>
0.0899535

>  <SCORE.SYSTEM>
0

>  <SCORE.SYSTEM.CONST>
0

>  <SCORE.SYSTEM.DIHEDRAL>
0

>  <SCORE.SYSTEM.SOLV>
0

>  <SCORE.SYSTEM.norm>
0

>  <SCORE.heavy>
35

>  <SCORE.norm>
-0.405529

>  <RMSD>
30.072

$$$$
2o3v_lig
 OpenBabel02141814113D
libRbt.so/2013.1/901 2013/11/27
 35 37  0  0  0  0  0  0  0  0999 V2000
   -5.0919    5.5968   18.7714 C   0  0  2  0  0  0  0  0  0  0  0  0
   -5.1479    5.0355   20.1185 O   0  0  0  0  0  0  0  0  0  0  0  0
   -6.7212    6.6368   23.8452 C   0  0  2  0  0  0  0  0  0  0  0  0
   -6.8225    7.4149   25.1166 N   0  0  0  0  0  0  0  0  0  0  0  0
   -2.1511   -3.1717   16.0538 C   0  0  2  0  0  0  0  0  0  0  0  0
   -1.3561   -3.0786   17.2558 O   0  0  0  0  0  0  0  0  0  0  0  0
   -5.4349    4.3735   17.8635 C   0  0  2  0  0  0  0  0  0  0  0  0
   -6.7654    3.8135   18.1990 N   0  0  0  0  0  0  0  0  0  0  0  0
   -5.5008    5.6218   23.9214 C   0  0  0  0  0  0  0  0  0  0  0  0
   -2.8783   -1.7959   15.8624 C   0  0  2  0  0  0  0  0  0  0  0  0
   -1.8994   -0.6818   15.7881 N   0  0  0  0  0  0  0  0  0  0  0  0
   -4.3298    3.2353   17.9752 C   0  0  1  0  0  0  0  0  0  0  0  0
   -4.6970    2.0632   17.1388 O   0  0  0  0  0  0  0  0  0  0  0  0
   -5.4083    4.8159   22.5538 C   0  0  2  0  0  0  0  0  0  0  0  0
   -4.2704    3.8727   22.5993 N   0  0  0  0  0  0  0  0  0  0  0  0
   -3.9362   -1.5266   17.0214 C   0  0  1  0  0  0  0  0  0  0  0  0
   -4.6485   -0.2743   16.8510 O   0  0  0  0  0  0  0  0  0  0  0  0
   -2.9297    3.8922   17.5986 C   0  0  2  0  0  0  0  0  0  0  0  0
   -1.8738    2.9532   17.6945 O   0  0  0  0  0  0  0  0  0  0  0  0
   -5.2271    5.8232   21.3447 C   0  0  2  0  0  0  0  0  0  0  0  0
   -4.9502   -2.7138   17.0521 C   0  0  2  0  0  0  0  0  0  0  0  0
   -5.9114   -2.5335   18.0734 O   0  0  0  0  0  0  0  0  0  0  0  0
   -2.6311    5.1297   18.5277 C   0  0  2  0  0  0  0  0  0  0  0  0
   -3.7357    6.1068   18.4294 O   0  0  0  0  0  0  0  0  0  0  0  0
   -6.4217    6.8158   21.2814 C   0  0  2  0  0  0  0  0  0  0  0  0
   -6.1682    7.7312   20.1773 O   0  0  0  0  0  0  0  0  0  0  0  0
   -4.1767   -4.0795   17.2416 C   0  0  2  0  0  0  0  0  0  0  0  0
   -3.1682   -4.2515   16.1711 O   0  0  0  0  0  0  0  0  0  0  0  0
   -1.3086    5.8020   18.1621 C   0  0  0  0  0  0  0  0  0  0  0  0
   -1.0980    6.9592   18.9337 O   0  0  0  0  0  0  0  0  0  0  0  0
   -6.5175    7.5995   22.6113 C   0  0  1  0  0  0  0  0  0  0  0  0
   -7.6118    8.4884   22.5298 O   0  0  0  0  0  0  0  0  0  0  0  0
   -5.1216   -5.2715   17.2338 C   0  0  0  0  0  0  0  0  0  0  0  0
   -5.9886   -5.2182   18.3409 O   0  0  0  0  0  0  0  0  0  0  0  0
   -3.8731    0.8263   17.4102 C   0  0  0  0  0  0  0  0  0  0  0  0
  1  2  1  1  0  0  0
  1  7  1  0  0  0  0
  1 24  1  0  0  0  0
  3  4  1  1  0  0  0
  3  9  1  0  0  0  0
  3 31  1  0  0  0  0
  5  6  1  1  0  0  0
  5 10  1  0  0  0  0
  5 28  1  0  0  0  0
  7  8  1  1  0  0  0
  7 12  1  0  0  0  0
  9 14  1  0  0  0  0
 10 11  1  1  0  0  0
 10 16  1  0  0  0  0
 12 13  1  6  0  0  0
 12 18  1  0  0  0  0
 13 35  1  0  0  0  0
 14 15  1  1  0  0  0
 14 20  1  0  0  0  0
 16 17  1  6  0  0  0
 16 21  1  0  0  0  0
 17 35  1  0  0  0  0
 18 19  1  1  0  0  0
 18 23  1  0  0  0  0
 20  2  1  6  0  0  0
 20 25  1  0  0  0  0
 21 22  1  1  0  0  0
 21 27  1  0  0  0  0
 23 24  1  0  0  0  0
 23 29  1  6  0  0  0
 25 26  1  6  0  0  0
 25 31  1  0  0  0  0
 27 28  1  0  0  0  0
 27 33  1  6  0  0  0
 29 30  1  0  0  0  0
 31 32  1  6  0  0  0
 33 34  1  0  0  0  0
M  END
>  <CHROM.1>
-164.16367968,-167.38625987,161.73265244,-84.68478801,178.52967417,174.61210833
175.83325671,-64.83460164,-4.43852519,2.42788811,18.99474382,-1.79951778
-0.78396446,-2.84887172

>  <Name>
2o3v_lig

>  <RI>
0

>  <Rbt.Current_Directory>
/home/afrankz/demos/rdock_decoys_rna/rnas/2o3v

>  <Rbt.Executable>
rbdock ($Id: //depot/dev/client3/rdock/2013.1/src/exe/rbdock.cxx#4 $)

>  <Rbt.Library>
libRbt.so (2013.1, Build901 2013/11/27)

>  <Rbt.Parameter_File>
/export/apps/rDock/src/rDock_2013.1_src/data/scripts/dock_solv.prm

>  <Rbt.Receptor>
prm/blind_docking_40.prm

>  <SCORE>
6.22271

>  <SCORE.INTER>
6.87196

>  <SCORE.INTER.CONST>
1

>  <SCORE.INTER.POLAR>
-1.67491

>  <SCORE.INTER.ROT>
8

>  <SCORE.INTER.SOLV>
33.9709

>  <SCORE.INTER.VDW>
-10.0926

>  <SCORE.INTER.norm>
0.196342

>  <SCORE.INTRA>
-4.55891

>  <SCORE.INTRA.DIHEDRAL>
-6.72667

>  <SCORE.INTRA.DIHEDRAL.0>
13.1227

>  <SCORE.INTRA.POLAR>
0

>  <SCORE.INTRA.POLAR.0>
0

>  <SCORE.INTRA.REPUL>
0.015807

>  <SCORE.INTRA.REPUL.0>
0

>  <SCORE.INTRA.SOLV>
-0.640227

>  <SCORE.INTRA.SOLV.lig_0>
-89.1587

>  <SCORE.INTRA.VDW>
-0.954497

>  <SCORE.INTRA.VDW.0>
-0.838383

>  <SCORE.INTRA.norm>
-0.130255

>  <SCORE.RESTR>
3.90966

>  <SCORE.RESTR.CAVITY>
3.90966

>  <SCORE.RESTR.norm>
0.111705

>  <SCORE.SYSTEM>
0

>  <SCORE.SYSTEM.CONST>
0

>  <SCORE.SYSTEM.DIHEDRAL>
0

>  <SCORE.SYSTEM.SOLV>
0

>  <SCORE.SYSTEM.norm>
0

>  <SCORE.heavy>
35

>  <SCORE.norm>
0.177792

>  <RMSD>
30.081

$$$$
2o3v_lig
 OpenBabel02141814113D
libRbt.so/2013.1/901 2013/11/27
 35 37  0  0  0  0  0  0  0  0999 V2000
   -3.4599    2.4469   15.7014 C   0  0  2  0  0  0  0  0  0  0  0  0
   -2.9989    1.4882   16.7019 O   0  0  0  0  0  0  0  0  0  0  0  0
   -3.3734   -2.7644   15.8637 C   0  0  2  0  0  0  0  0  0  0  0  0
   -3.0098   -4.1794   15.5512 N   0  0  0  0  0  0  0  0  0  0  0  0
   -2.7808    8.3921   22.9441 C   0  0  2  0  0  0  0  0  0  0  0  0
   -3.3784    9.4359   22.1448 O   0  0  0  0  0  0  0  0  0  0  0  0
   -3.2948    3.8209   16.4247 C   0  0  2  0  0  0  0  0  0  0  0  0
   -1.8880    4.0461   16.8325 N   0  0  0  0  0  0  0  0  0  0  0  0
   -2.9040   -1.8066   14.6857 C   0  0  0  0  0  0  0  0  0  0  0  0
   -2.6011    7.1370   22.0217 C   0  0  2  0  0  0  0  0  0  0  0  0
   -1.7706    7.4629   20.8346 N   0  0  0  0  0  0  0  0  0  0  0  0
   -4.2458    3.9302   17.6948 C   0  0  1  0  0  0  0  0  0  0  0  0
   -4.0415    5.2256   18.3937 O   0  0  0  0  0  0  0  0  0  0  0  0
   -3.2919   -0.3077   15.0480 C   0  0  2  0  0  0  0  0  0  0  0  0
   -2.8529    0.6026   13.9687 N   0  0  0  0  0  0  0  0  0  0  0  0
   -4.0048    6.5385   21.5675 C   0  0  1  0  0  0  0  0  0  0  0  0
   -3.8687    5.3551   20.7394 O   0  0  0  0  0  0  0  0  0  0  0  0
   -5.7375    3.6870   17.1951 C   0  0  2  0  0  0  0  0  0  0  0  0
   -6.6593    3.7415   18.2690 O   0  0  0  0  0  0  0  0  0  0  0  0
   -2.6125    0.1100   16.4167 C   0  0  2  0  0  0  0  0  0  0  0  0
   -4.8353    6.1988   22.8457 C   0  0  2  0  0  0  0  0  0  0  0  0
   -6.1015    5.6712   22.5023 O   0  0  0  0  0  0  0  0  0  0  0  0
   -5.8552    2.2985   16.4590 C   0  0  2  0  0  0  0  0  0  0  0  0
   -4.8899    2.2417   15.3412 O   0  0  0  0  0  0  0  0  0  0  0  0
   -3.0722   -0.8355   17.5618 C   0  0  2  0  0  0  0  0  0  0  0  0
   -2.3806   -0.4187   18.7738 O   0  0  0  0  0  0  0  0  0  0  0  0
   -4.9885    7.4878   23.7480 C   0  0  2  0  0  0  0  0  0  0  0  0
   -3.6563    8.0347   24.0930 O   0  0  0  0  0  0  0  0  0  0  0  0
   -7.2704    2.0567   15.9361 C   0  0  0  0  0  0  0  0  0  0  0  0
   -8.1956    1.9826   16.9933 O   0  0  0  0  0  0  0  0  0  0  0  0
   -2.7000   -2.2953   17.2118 C   0  0  1  0  0  0  0  0  0  0  0  0
   -3.1326   -3.1326   18.2634 O   0  0  0  0  0  0  0  0  0  0  0  0
   -5.7550    7.1949   25.0289 C   0  0  0  0  0  0  0  0  0  0  0  0
   -4.8865    6.6970   26.0179 O   0  0  0  0  0  0  0  0  0  0  0  0
   -4.8493    5.3797   19.6609 C   0  0  0  0  0  0  0  0  0  0  0  0
  1  2  1  1  0  0  0
  1  7  1  0  0  0  0
  1 24  1  0  0  0  0
  3  4  1  6  0  0  0
  3  9  1  0  0  0  0
  3 31  1  0  0  0  0
  5  6  1  6  0  0  0
  5 10  1  0  0  0  0
  5 28  1  0  0  0  0
  7  8  1  1  0  0  0
  7 12  1  0  0  0  0
  9 14  1  0  0  0  0
 10 11  1  6  0  0  0
 10 16  1  0  0  0  0
 12 13  1  6  0  0  0
 12 18  1  0  0  0  0
 13 35  1  0  0  0  0
 14 15  1  6  0  0  0
 14 20  1  0  0  0  0
 16 17  1  1  0  0  0
 16 21  1  0  0  0  0
 17 35  1  0  0  0  0
 18 19  1  1  0  0  0
 18 23  1  0  0  0  0
 20  2  1  1  0  0  0
 20 25  1  0  0  0  0
 21 22  1  6  0  0  0
 21 27  1  0  0  0  0
 23 24  1  0  0  0  0
 23 29  1  6  0  0  0
 25 26  1  1  0  0  0
 25 31  1  0  0  0  0
 27 28  1  0  0  0  0
 27 33  1  1  0  0  0
 29 30  1  0  0  0  0
 31 32  1  1  0  0  0
 33 34  1  0  0  0  0
M  END
>  <CHROM.1>
-162.68349600,-176.61983878,111.26643671,-140.11981950,125.21915477,-21.67186719
-63.40631271,84.91814008,-4.06879890,3.26179102,18.89722022,1.42610584,1.12917393
-2.29710536

>  <Name>
2o3v_lig

>  <RI>
0

>  <Rbt.Current_Directory>
/home/afrankz/demos/rdock_decoys_rna/rnas/2o3v

>  <Rbt.Executable>
rbdock ($Id: //depot/dev/client3/rdock/2013.1/src/exe/rbdock.cxx#4 $)

>  <Rbt.Library>
libRbt.so (2013.1, Build901 2013/11/27)

>  <Rbt.Parameter_File>
/export/apps/rDock/src/rDock_2013.1_src/data/scripts/dock_solv.prm

>  <Rbt.Receptor>
prm/blind_docking_40.prm

>  <SCORE>
-3.82833

>  <SCORE.INTER>
-15.1846

>  <SCORE.INTER.CONST>
1

>  <SCORE.INTER.POLAR>
-2.46763

>  <SCORE.INTER.ROT>
8

>  <SCORE.INTER.SOLV>
29.3404

>  <SCORE.INTER.VDW>
-20.6111

>  <SCORE.INTER.norm>
-0.433846

>  <SCORE.INTRA>
8.70129

>  <SCORE.INTRA.DIHEDRAL>
14.7378

>  <SCORE.INTRA.DIHEDRAL.0>
13.1227

>  <SCORE.INTRA.POLAR>
0

>  <SCORE.INTRA.POLAR.0>
0

>  <SCORE.INTRA.REPUL>
0

>  <SCORE.INTRA.REPUL.0>
0

>  <SCORE.INTRA.SOLV>
1.18081

>  <SCORE.INTRA.SOLV.lig_0>
-89.1587

>  <SCORE.INTRA.VDW>
0.741976

>  <SCORE.INTRA.VDW.0>
-0.838383

>  <SCORE.INTRA.norm>
0.248608

>  <SCORE.RESTR>
2.65498

>  <SCORE.RESTR.CAVITY>
2.65498

>  <SCORE.RESTR.norm>
0.0758565

>  <SCORE.SYSTEM>
0

>  <SCORE.SYSTEM.CONST>
0

>  <SCORE.SYSTEM.DIHEDRAL>
0

>  <SCORE.SYSTEM.SOLV>
0

>  <SCORE.SYSTEM.norm>
0

>  <SCORE.heavy>
35

>  <SCORE.norm>
-0.109381

>  <RMSD>
30.099

$$$$
2o3v_lig
 OpenBabel02141814113D
libRbt.so/2013.1/901 2013/11/27
 35 37  0  0  0  0  0  0  0  0999 V2000
   -3.6863    2.6406   15.7993 C   0  0  2  0  0  0  0  0  0  0  0  0
   -3.2314    1.6459   16.7670 O   0  0  0  0  0  0  0  0  0  0  0  0
   -3.1525   -2.5852   15.7576 C   0  0  2  0  0  0  0  0  0  0  0  0
   -2.6416   -3.9382   15.3827 N   0  0  0  0  0  0  0  0  0  0  0  0
   -3.4929    8.2776   22.8244 C   0  0  2  0  0  0  0  0  0  0  0  0
   -4.0656    9.1391   21.8167 O   0  0  0  0  0  0  0  0  0  0  0  0
   -3.3177    3.9950   16.4835 C   0  0  2  0  0  0  0  0  0  0  0  0
   -1.8633    4.0795   16.7555 N   0  0  0  0  0  0  0  0  0  0  0  0
   -2.8089   -1.5354   14.6151 C   0  0  0  0  0  0  0  0  0  0  0  0
   -2.9229    7.0127   22.0939 C   0  0  2  0  0  0  0  0  0  0  0  0
   -1.9217    7.3968   21.0668 N   0  0  0  0  0  0  0  0  0  0  0  0
   -4.1296    4.2066   17.8347 C   0  0  1  0  0  0  0  0  0  0  0  0
   -3.7322    5.4786   18.4921 O   0  0  0  0  0  0  0  0  0  0  0  0
   -3.3523   -0.1038   15.0435 C   0  0  2  0  0  0  0  0  0  0  0  0
   -3.0323    0.8916   13.9979 N   0  0  0  0  0  0  0  0  0  0  0  0
   -4.0837    6.1431   21.4373 C   0  0  1  0  0  0  0  0  0  0  0  0
   -3.5872    4.9475   20.7825 O   0  0  0  0  0  0  0  0  0  0  0  0
   -5.6783    4.1122   17.4794 C   0  0  2  0  0  0  0  0  0  0  0  0
   -6.4852    4.2652   18.6333 O   0  0  0  0  0  0  0  0  0  0  0  0
   -2.7014    0.3308   16.4206 C   0  0  2  0  0  0  0  0  0  0  0  0
   -5.1020    5.7519   22.5547 C   0  0  2  0  0  0  0  0  0  0  0  0
   -6.1652    4.9841   22.0257 O   0  0  0  0  0  0  0  0  0  0  0  0
   -6.0026    2.7386   16.7783 C   0  0  2  0  0  0  0  0  0  0  0  0
   -5.1571    2.5786   15.5766 O   0  0  0  0  0  0  0  0  0  0  0  0
   -3.0372   -0.7043   17.5306 C   0  0  2  0  0  0  0  0  0  0  0  0
   -2.3764   -0.2629   18.7511 O   0  0  0  0  0  0  0  0  0  0  0  0
   -5.6477    7.0533   23.2673 C   0  0  2  0  0  0  0  0  0  0  0  0
   -4.5243    7.8518   23.8088 O   0  0  0  0  0  0  0  0  0  0  0  0
   -7.4778    2.6378   16.3927 C   0  0  0  0  0  0  0  0  0  0  0  0
   -8.2803    2.3865   17.5204 O   0  0  0  0  0  0  0  0  0  0  0  0
   -2.5133   -2.0993   17.1163 C   0  0  1  0  0  0  0  0  0  0  0  0
   -2.8356   -3.0204   18.1371 O   0  0  0  0  0  0  0  0  0  0  0  0
   -6.6124    6.7195   24.3951 C   0  0  0  0  0  0  0  0  0  0  0  0
   -6.7270    7.8066   25.2811 O   0  0  0  0  0  0  0  0  0  0  0  0
   -2.7610    5.3072   19.6365 C   0  0  0  0  0  0  0  0  0  0  0  0
  1  2  1  1  0  0  0
  1  7  1  0  0  0  0
  1 24  1  0  0  0  0
  3  4  1  6  0  0  0
  3  9  1  0  0  0  0
  3 31  1  0  0  0  0
  5  6  1  6  0  0  0
  5 10  1  0  0  0  0
  5 28  1  0  0  0  0
  7  8  1  1  0  0  0
  7 12  1  0  0  0  0
  9 14  1  0  0  0  0
 10 11  1  6  0  0  0
 10 16  1  0  0  0  0
 12 13  1  6  0  0  0
 12 18  1  0  0  0  0
 13 35  1  0  0  0  0
 14 15  1  6  0  0  0
 14 20  1  0  0  0  0
 16 17  1  1  0  0  0
 16 21  1  0  0  0  0
 17 35  1  0  0  0  0
 18 19  1  1  0  0  0
 18 23  1  0  0  0  0
 20  2  1  1  0  0  0
 20 25  1  0  0  0  0
 21 22  1  6  0  0  0
 21 27  1  0  0  0  0
 23 24  1  0  0  0  0
 23 29  1  6  0  0  0
 25 26  1  1  0  0  0
 25 31  1  0  0  0  0
 27 28  1  0  0  0  0
 27 33  1  1  0  0  0
 29 30  1  0  0  0  0
 31 32  1  1  0  0  0
 33 34  1  0  0  0  0
M  END
>  <CHROM.1>
-146.88760903,-100.49606694,-82.09405889,-65.60801463,-86.13149423,-28.12451924
-75.55786595,160.13390778,-4.18229212,3.35576905,18.86210738,1.38362353,0.68222324
-2.32185815

>  <Name>
2o3v_lig

>  <RI>
0

>  <Rbt.Current_Directory>
/home/afrankz/demos/rdock_decoys_rna/rnas/2o3v

>  <Rbt.Executable>
rbdock ($Id: //depot/dev/client3/rdock/2013.1/src/exe/rbdock.cxx#4 $)

>  <Rbt.Library>
libRbt.so (2013.1, Build901 2013/11/27)

>  <Rbt.Parameter_File>
/export/apps/rDock/src/rDock_2013.1_src/data/scripts/dock_solv.prm

>  <Rbt.Receptor>
prm/blind_docking_80.prm

>  <SCORE>
-5.96768

>  <SCORE.INTER>
-14.9345

>  <SCORE.INTER.CONST>
1

>  <SCORE.INTER.POLAR>
-2.81205

>  <SCORE.INTER.ROT>
8

>  <SCORE.INTER.SOLV>
29.3374

>  <SCORE.INTER.VDW>
-19.2953

>  <SCORE.INTER.norm>
-0.426699

>  <SCORE.INTRA>
6.80955

>  <SCORE.INTRA.DIHEDRAL>
7.7993

>  <SCORE.INTRA.DIHEDRAL.0>
13.1227

>  <SCORE.INTRA.POLAR>
0

>  <SCORE.INTRA.POLAR.0>
0

>  <SCORE.INTRA.REPUL>
0.0673088

>  <SCORE.INTRA.REPUL.0>
0

>  <SCORE.INTRA.SOLV>
2.70317

>  <SCORE.INTRA.SOLV.lig_0>
-89.1587

>  <SCORE.INTRA.VDW>
1.22176

>  <SCORE.INTRA.VDW.0>
-0.838383

>  <SCORE.INTRA.norm>
0.194558

>  <SCORE.RESTR>
2.15724

>  <SCORE.RESTR.CAVITY>
2.15724

>  <SCORE.RESTR.norm>
0.0616355

>  <SCORE.SYSTEM>
0

>  <SCORE.SYSTEM.CONST>
0

>  <SCORE.SYSTEM.DIHEDRAL>
0

>  <SCORE.SYSTEM.SOLV>
0

>  <SCORE.SYSTEM.norm>
0

>  <SCORE.heavy>
35

>  <SCORE.norm>
-0.170505

>  <RMSD>
30.100

$$$$
2o3v_lig
 OpenBabel02141814113D
libRbt.so/2013.1/901 2013/11/27
 35 37  0  0  0  0  0  0  0  0999 V2000
   -5.9586   -6.4229   19.4072 C   0  0  2  0  0  0  0  0  0  0  0  0
   -5.7295   -6.2255   17.9785 O   0  0  0  0  0  0  0  0  0  0  0  0
   -3.3906   -3.2089   15.8912 C   0  0  2  0  0  0  0  0  0  0  0  0
   -2.2228   -2.4767   15.3148 N   0  0  0  0  0  0  0  0  0  0  0  0
  -14.0119   -6.0932   15.9499 C   0  0  2  0  0  0  0  0  0  0  0  0
  -14.1435   -5.1374   17.0244 O   0  0  0  0  0  0  0  0  0  0  0  0
   -7.0001   -7.5858   19.4417 C   0  0  2  0  0  0  0  0  0  0  0  0
   -6.4729   -8.7974   18.7705 N   0  0  0  0  0  0  0  0  0  0  0  0
   -3.2482   -3.3074   17.4709 C   0  0  0  0  0  0  0  0  0  0  0  0
  -12.9362   -7.1472   16.3862 C   0  0  2  0  0  0  0  0  0  0  0  0
  -13.3207   -7.8042   17.6611 N   0  0  0  0  0  0  0  0  0  0  0  0
   -8.3769   -7.1568   18.7710 C   0  0  1  0  0  0  0  0  0  0  0  0
   -9.3380   -8.2901   18.7741 O   0  0  0  0  0  0  0  0  0  0  0  0
   -4.4959   -4.0999   18.0572 C   0  0  2  0  0  0  0  0  0  0  0  0
   -4.3771   -4.2130   19.5268 N   0  0  0  0  0  0  0  0  0  0  0  0
  -11.4918   -6.4902   16.5158 C   0  0  1  0  0  0  0  0  0  0  0  0
  -10.4696   -7.4508   16.8863 O   0  0  0  0  0  0  0  0  0  0  0  0
   -8.8952   -5.8601   19.5350 C   0  0  2  0  0  0  0  0  0  0  0  0
  -10.1126   -5.3874   18.9870 O   0  0  0  0  0  0  0  0  0  0  0  0
   -4.5721   -5.5430   17.4086 C   0  0  2  0  0  0  0  0  0  0  0  0
  -11.1255   -5.8257   15.1509 C   0  0  2  0  0  0  0  0  0  0  0  0
   -9.8519   -5.2143   15.2101 O   0  0  0  0  0  0  0  0  0  0  0  0
   -7.8090   -4.7191   19.4885 C   0  0  2  0  0  0  0  0  0  0  0  0
   -6.5381   -5.2152   20.0571 O   0  0  0  0  0  0  0  0  0  0  0  0
   -4.7049   -5.4375   15.8634 C   0  0  2  0  0  0  0  0  0  0  0  0
   -4.7287   -6.7946   15.3354 O   0  0  0  0  0  0  0  0  0  0  0  0
  -12.2359   -4.7755   14.7468 C   0  0  2  0  0  0  0  0  0  0  0  0
  -13.5650   -5.4266   14.6969 O   0  0  0  0  0  0  0  0  0  0  0  0
   -8.2670   -3.4746   20.2476 C   0  0  0  0  0  0  0  0  0  0  0  0
   -9.5149   -3.0255   19.7786 O   0  0  0  0  0  0  0  0  0  0  0  0
   -3.4949   -4.6641   15.2892 C   0  0  1  0  0  0  0  0  0  0  0  0
   -3.6426   -4.5776   13.8874 O   0  0  0  0  0  0  0  0  0  0  0  0
  -11.9440   -4.1325   13.3995 C   0  0  0  0  0  0  0  0  0  0  0  0
  -10.7001   -3.4752   13.4283 O   0  0  0  0  0  0  0  0  0  0  0  0
  -10.7070   -7.9426   18.2379 C   0  0  0  0  0  0  0  0  0  0  0  0
  1  2  1  6  0  0  0
  1  7  1  0  0  0  0
  1 24  1  0  0  0  0
  3  4  1  6  0  0  0
  3  9  1  0  0  0  0
  3 31  1  0  0  0  0
  5  6  1  1  0  0  0
  5 10  1  0  0  0  0
  5 28  1  0  0  0  0
  7  8  1  6  0  0  0
  7 12  1  0  0  0  0
  9 14  1  0  0  0  0
 10 11  1  1  0  0  0
 10 16  1  0  0  0  0
 12 13  1  1  0  0  0
 12 18  1  0  0  0  0
 13 35  1  0  0  0  0
 14 15  1  1  0  0  0
 14 20  1  0  0  0  0
 16 17  1  6  0  0  0
 16 21  1  0  0  0  0
 17 35  1  0  0  0  0
 18 19  1  6  0  0  0
 18 23  1  0  0  0  0
 20  2  1  1  0  0  0
 20 25  1  0  0  0  0
 21 22  1  1  0  0  0
 21 27  1  0  0  0  0
 23 24  1  0  0  0  0
 23 29  1  1  0  0  0
 25 26  1  6  0  0  0
 25 31  1  0  0  0  0
 27 28  1  0  0  0  0
 27 33  1  6  0  0  0
 29 30  1  0  0  0  0
 31 32  1  6  0  0  0
 33 34  1  0  0  0  0
M  END
>  <CHROM.1>
-160.93379675,176.11056905,57.69614052,-66.50040291,-150.88570488,-55.51593222
-54.53214574,-59.16368372,-8.31177804,-5.52095232,17.14288602,0.02421999
0.18618042,1.97664142

>  <Name>
2o3v_lig

>  <RI>
0

>  <Rbt.Current_Directory>
/home/afrankz/demos/rdock_decoys_rna/rnas/2o3v

>  <Rbt.Executable>
rbdock ($Id: //depot/dev/client3/rdock/2013.1/src/exe/rbdock.cxx#4 $)

>  <Rbt.Library>
libRbt.so (2013.1, Build901 2013/11/27)

>  <Rbt.Parameter_File>
/export/apps/rDock/src/rDock_2013.1_src/data/scripts/dock_solv.prm

>  <Rbt.Receptor>
prm/blind_docking_100.prm

>  <SCORE>
4.74869

>  <SCORE.INTER>
-0.0225804

>  <SCORE.INTER.CONST>
1

>  <SCORE.INTER.POLAR>
-0.773906

>  <SCORE.INTER.ROT>
8

>  <SCORE.INTER.SOLV>
14.1899

>  <SCORE.INTER.VDW>
-11.0987

>  <SCORE.INTER.norm>
-0.000645155

>  <SCORE.INTRA>
0.487044

>  <SCORE.INTRA.DIHEDRAL>
-7.47602

>  <SCORE.INTRA.DIHEDRAL.0>
13.1227

>  <SCORE.INTRA.POLAR>
0

>  <SCORE.INTRA.POLAR.0>
0

>  <SCORE.INTRA.REPUL>
0

>  <SCORE.INTRA.REPUL.0>
0

>  <SCORE.INTRA.SOLV>
3.62066

>  <SCORE.INTRA.SOLV.lig_0>
-89.1587

>  <SCORE.INTRA.VDW>
2.41472

>  <SCORE.INTRA.VDW.0>
-0.838383

>  <SCORE.INTRA.norm>
0.0139155

>  <SCORE.RESTR>
4.28422

>  <SCORE.RESTR.CAVITY>
4.28422

>  <SCORE.RESTR.norm>
0.122406

>  <SCORE.SYSTEM>
0

>  <SCORE.SYSTEM.CONST>
0

>  <SCORE.SYSTEM.DIHEDRAL>
0

>  <SCORE.SYSTEM.SOLV>
0

>  <SCORE.SYSTEM.norm>
0

>  <SCORE.heavy>
35

>  <SCORE.norm>
0.135677

>  <RMSD>
30.103

$$$$
2o3v_lig
 OpenBabel02141814113D
libRbt.so/2013.1/901 2013/11/27
 35 37  0  0  0  0  0  0  0  0999 V2000
   -4.5854   -6.2767   18.5466 C   0  0  2  0  0  0  0  0  0  0  0  0
   -5.9993   -6.4698   18.2359 O   0  0  0  0  0  0  0  0  0  0  0  0
   -9.2117   -8.2063   20.6007 C   0  0  2  0  0  0  0  0  0  0  0  0
  -10.2906   -8.3555   21.6234 N   0  0  0  0  0  0  0  0  0  0  0  0
   -4.2062    2.8073   15.9749 C   0  0  2  0  0  0  0  0  0  0  0  0
   -4.2137    2.3155   14.6170 O   0  0  0  0  0  0  0  0  0  0  0  0
   -4.4667   -4.7283   18.7094 C   0  0  2  0  0  0  0  0  0  0  0  0
   -5.3642   -4.2315   19.7790 N   0  0  0  0  0  0  0  0  0  0  0  0
   -7.8166   -7.9389   21.3131 C   0  0  0  0  0  0  0  0  0  0  0  0
   -3.3793    1.7930   16.8385 C   0  0  2  0  0  0  0  0  0  0  0  0
   -2.0029    1.6366   16.3038 N   0  0  0  0  0  0  0  0  0  0  0  0
   -4.7852   -3.9718   17.3471 C   0  0  1  0  0  0  0  0  0  0  0  0
   -4.7103   -2.4995   17.5343 O   0  0  0  0  0  0  0  0  0  0  0  0
   -6.6895   -7.7726   20.2039 C   0  0  2  0  0  0  0  0  0  0  0  0
   -5.3835   -7.5111   20.8460 N   0  0  0  0  0  0  0  0  0  0  0  0
   -4.1016    0.3772   16.9302 C   0  0  1  0  0  0  0  0  0  0  0  0
   -3.3741   -0.5717   17.7518 O   0  0  0  0  0  0  0  0  0  0  0  0
   -3.7898   -4.5402   16.2427 C   0  0  2  0  0  0  0  0  0  0  0  0
   -4.0171   -3.9385   14.9809 O   0  0  0  0  0  0  0  0  0  0  0  0
   -7.0616   -6.5794   19.2307 C   0  0  2  0  0  0  0  0  0  0  0  0
   -5.5363    0.5896   17.5091 C   0  0  2  0  0  0  0  0  0  0  0  0
   -6.2319   -0.6379   17.6037 O   0  0  0  0  0  0  0  0  0  0  0  0
   -3.9319   -6.1052   16.1224 C   0  0  2  0  0  0  0  0  0  0  0  0
   -3.6983   -6.7313   17.4407 O   0  0  0  0  0  0  0  0  0  0  0  0
   -8.4300   -6.8461   18.5431 C   0  0  2  0  0  0  0  0  0  0  0  0
   -8.7241   -5.6961   17.6994 O   0  0  0  0  0  0  0  0  0  0  0  0
   -6.3326    1.6203   16.6131 C   0  0  2  0  0  0  0  0  0  0  0  0
   -5.5896    2.8975   16.5155 O   0  0  0  0  0  0  0  0  0  0  0  0
   -2.9597   -6.6813   15.0940 C   0  0  0  0  0  0  0  0  0  0  0  0
   -3.2105   -8.0471   14.8689 O   0  0  0  0  0  0  0  0  0  0  0  0
   -9.5288   -7.0121   19.6187 C   0  0  1  0  0  0  0  0  0  0  0  0
  -10.7583   -7.2585   18.9692 O   0  0  0  0  0  0  0  0  0  0  0  0
   -7.7241    1.8929   17.1639 C   0  0  0  0  0  0  0  0  0  0  0  0
   -8.4646    2.6780   16.2609 O   0  0  0  0  0  0  0  0  0  0  0  0
   -3.3881   -1.8904   17.1305 C   0  0  0  0  0  0  0  0  0  0  0  0
  1  2  1  6  0  0  0
  1  7  1  0  0  0  0
  1 24  1  0  0  0  0
  3  4  1  1  0  0  0
  3  9  1  0  0  0  0
  3 31  1  0  0  0  0
  5  6  1  6  0  0  0
  5 10  1  0  0  0  0
  5 28  1  0  0  0  0
  7  8  1  1  0  0  0
  7 12  1  0  0  0  0
  9 14  1  0  0  0  0
 10 11  1  6  0  0  0
 10 16  1  0  0  0  0
 12 13  1  1  0  0  0
 12 18  1  0  0  0  0
 13 35  1  0  0  0  0
 14 15  1  1  0  0  0
 14 20  1  0  0  0  0
 16 17  1  1  0  0  0
 16 21  1  0  0  0  0
 17 35  1  0  0  0  0
 18 19  1  6  0  0  0
 18 23  1  0  0  0  0
 20  2  1  6  0  0  0
 20 25  1  0  0  0  0
 21 22  1  6  0  0  0
 21 27  1  0  0  0  0
 23 24  1  0  0  0  0
 23 29  1  6  0  0  0
 25 26  1  6  0  0  0
 25 31  1  0  0  0  0
 27 28  1  0  0  0  0
 27 33  1  1  0  0  0
 29 30  1  0  0  0  0
 31 32  1  6  0  0  0
 33 34  1  0  0  0  0
M  END
>  <CHROM.1>
-84.94811624,96.77317044,-163.37867203,-138.74730804,-82.81856776,-56.52164736
-172.41534106,-172.63699248,-5.71410772,-3.44616619,17.68883735,-1.87634269
0.47901401,-0.17269068

>  <Name>
2o3v_lig

>  <RI>
0

>  <Rbt.Current_Directory>
/home/afrankz/demos/rdock_decoys_rna/rnas/2o3v

>  <Rbt.Executable>
rbdock ($Id: //depot/dev/client3/rdock/2013.1/src/exe/rbdock.cxx#4 $)

>  <Rbt.Library>
libRbt.so (2013.1, Build901 2013/11/27)

>  <Rbt.Parameter_File>
/export/apps/rDock/src/rDock_2013.1_src/data/scripts/dock_solv.prm

>  <Rbt.Receptor>
prm/blind_docking_80.prm

>  <SCORE>
-3.00976

>  <SCORE.INTER>
-9.53839

>  <SCORE.INTER.CONST>
1

>  <SCORE.INTER.POLAR>
-0.978859

>  <SCORE.INTER.ROT>
8

>  <SCORE.INTER.SOLV>
22.6822

>  <SCORE.INTER.VDW>
-19.5901

>  <SCORE.INTER.norm>
-0.272526

>  <SCORE.INTRA>
4.4431

>  <SCORE.INTRA.DIHEDRAL>
4.03706

>  <SCORE.INTRA.DIHEDRAL.0>
13.1227

>  <SCORE.INTRA.POLAR>
0

>  <SCORE.INTRA.POLAR.0>
0

>  <SCORE.INTRA.REPUL>
0

>  <SCORE.INTRA.REPUL.0>
0

>  <SCORE.INTRA.SOLV>
2.84553

>  <SCORE.INTRA.SOLV.lig_0>
-89.1587

>  <SCORE.INTRA.VDW>
1.0018

>  <SCORE.INTRA.VDW.0>
-0.838383

>  <SCORE.INTRA.norm>
0.126946

>  <SCORE.RESTR>
2.08554

>  <SCORE.RESTR.CAVITY>
2.08554

>  <SCORE.RESTR.norm>
0.0595868

>  <SCORE.SYSTEM>
0

>  <SCORE.SYSTEM.CONST>
0

>  <SCORE.SYSTEM.DIHEDRAL>
0

>  <SCORE.SYSTEM.SOLV>
0

>  <SCORE.SYSTEM.norm>
0

>  <SCORE.heavy>
35

>  <SCORE.norm>
-0.0859931

>  <RMSD>
30.141

$$$$
2o3v_lig
 OpenBabel02141814113D
libRbt.so/2013.1/901 2013/11/27
 35 37  0  0  0  0  0  0  0  0999 V2000
   -3.4753   -5.4191   17.9830 C   0  0  2  0  0  0  0  0  0  0  0  0
   -4.8611   -5.2199   18.3982 O   0  0  0  0  0  0  0  0  0  0  0  0
   -7.4748   -8.0196   20.4617 C   0  0  2  0  0  0  0  0  0  0  0  0
   -8.4795   -9.0991   20.7017 N   0  0  0  0  0  0  0  0  0  0  0  0
   -5.9332    3.2627   17.0994 C   0  0  2  0  0  0  0  0  0  0  0  0
   -6.5447    2.7588   18.3067 O   0  0  0  0  0  0  0  0  0  0  0  0
   -3.0070   -3.9774   17.6082 C   0  0  2  0  0  0  0  0  0  0  0  0
   -3.1356   -3.0555   18.7614 N   0  0  0  0  0  0  0  0  0  0  0  0
   -8.1432   -6.8186   19.6640 C   0  0  0  0  0  0  0  0  0  0  0  0
   -5.2966    2.0420   16.3491 C   0  0  2  0  0  0  0  0  0  0  0  0
   -6.3185    1.0054   16.0554 N   0  0  0  0  0  0  0  0  0  0  0  0
   -3.8209   -3.4028   16.3684 C   0  0  1  0  0  0  0  0  0  0  0  0
   -3.3914   -2.0149   16.0563 O   0  0  0  0  0  0  0  0  0  0  0  0
   -7.0515   -5.6903   19.4118 C   0  0  2  0  0  0  0  0  0  0  0  0
   -7.6507   -4.5669   18.6598 N   0  0  0  0  0  0  0  0  0  0  0  0
   -4.0903    1.4115   17.1750 C   0  0  1  0  0  0  0  0  0  0  0  0
   -3.4604    0.2998   16.4879 O   0  0  0  0  0  0  0  0  0  0  0  0
   -3.6404   -4.4278   15.1640 C   0  0  2  0  0  0  0  0  0  0  0  0
   -4.3554   -4.0091   14.0154 O   0  0  0  0  0  0  0  0  0  0  0  0
   -5.8302   -6.2921   18.6023 C   0  0  2  0  0  0  0  0  0  0  0  0
   -3.0373    2.5321   17.4473 C   0  0  2  0  0  0  0  0  0  0  0  0
   -1.9434    2.0306   18.1898 O   0  0  0  0  0  0  0  0  0  0  0  0
   -4.1101   -5.8706   15.5900 C   0  0  2  0  0  0  0  0  0  0  0  0
   -3.3659   -6.3045   16.7910 O   0  0  0  0  0  0  0  0  0  0  0  0
   -5.1865   -7.4697   19.3865 C   0  0  2  0  0  0  0  0  0  0  0  0
   -4.1027   -7.9961   18.5683 O   0  0  0  0  0  0  0  0  0  0  0  0
   -3.7204    3.7432   18.1995 C   0  0  2  0  0  0  0  0  0  0  0  0
   -4.8687    4.2530   17.4157 O   0  0  0  0  0  0  0  0  0  0  0  0
   -3.9123   -6.8827   14.4624 C   0  0  0  0  0  0  0  0  0  0  0  0
   -2.5704   -7.2970   14.3828 O   0  0  0  0  0  0  0  0  0  0  0  0
   -6.2460   -8.5683   19.6371 C   0  0  1  0  0  0  0  0  0  0  0  0
   -5.6381   -9.6218   20.3545 O   0  0  0  0  0  0  0  0  0  0  0  0
   -2.7412    4.8805   18.4482 C   0  0  0  0  0  0  0  0  0  0  0  0
   -1.7183    4.8679   17.4820 O   0  0  0  0  0  0  0  0  0  0  0  0
   -4.1285   -0.9491   16.8329 C   0  0  0  0  0  0  0  0  0  0  0  0
  1  2  1  6  0  0  0
  1  7  1  0  0  0  0
  1 24  1  0  0  0  0
  3  4  1  6  0  0  0
  3  9  1  0  0  0  0
  3 31  1  0  0  0  0
  5  6  1  1  0  0  0
  5 10  1  0  0  0  0
  5 28  1  0  0  0  0
  7  8  1  1  0  0  0
  7 12  1  0  0  0  0
  9 14  1  0  0  0  0
 10 11  1  1  0  0  0
 10 16  1  0  0  0  0
 12 13  1  6  0  0  0
 12 18  1  0  0  0  0
 13 35  1  0  0  0  0
 14 15  1  6  0  0  0
 14 20  1  0  0  0  0
 16 17  1  6  0  0  0
 16 21  1  0  0  0  0
 17 35  1  0  0  0  0
 18 19  1  6  0  0  0
 18 23  1  0  0  0  0
 20  2  1  1  0  0  0
 20 25  1  0  0  0  0
 21 22  1  1  0  0  0
 21 27  1  0  0  0  0
 23 24  1  0  0  0  0
 23 29  1  6  0  0  0
 25 26  1  6  0  0  0
 25 31  1  0  0  0  0
 27 28  1  0  0  0  0
 27 33  1  6  0  0  0
 29 30  1  0  0  0  0
 31 32  1  1  0  0  0
 33 34  1  0  0  0  0
M  END
>  <CHROM.1>
167.55423869,-87.24753426,173.97587506,-88.74785327,179.70328169,164.78650232
79.18524890,26.60175011,-4.62392133,-2.82327625,17.59060377,-1.81388657,0.82131283
0.07184427

>  <Name>
2o3v_lig

>  <RI>
0

>  <Rbt.Current_Directory>
/home/afrankz/demos/rdock_decoys_rna/rnas/2o3v

>  <Rbt.Executable>
rbdock ($Id: //depot/dev/client3/rdock/2013.1/src/exe/rbdock.cxx#4 $)

>  <Rbt.Library>
libRbt.so (2013.1, Build901 2013/11/27)

>  <Rbt.Parameter_File>
/export/apps/rDock/src/rDock_2013.1_src/data/scripts/dock_solv.prm

>  <Rbt.Receptor>
prm/blind_docking_80.prm

>  <SCORE>
-13.2967

>  <SCORE.INTER>
-15.7449

>  <SCORE.INTER.CONST>
1

>  <SCORE.INTER.POLAR>
-1.60425

>  <SCORE.INTER.ROT>
8

>  <SCORE.INTER.SOLV>
16.5025

>  <SCORE.INTER.VDW>
-19.5833

>  <SCORE.INTER.norm>
-0.449854

>  <SCORE.INTRA>
-0.446935

>  <SCORE.INTRA.DIHEDRAL>
-0.331681

>  <SCORE.INTRA.DIHEDRAL.0>
13.1227

>  <SCORE.INTRA.POLAR>
0

>  <SCORE.INTRA.POLAR.0>
0

>  <SCORE.INTRA.REPUL>
0

>  <SCORE.INTRA.REPUL.0>
0

>  <SCORE.INTRA.SOLV>
0.361953

>  <SCORE.INTRA.SOLV.lig_0>
-89.1587

>  <SCORE.INTRA.VDW>
-0.462071

>  <SCORE.INTRA.VDW.0>
-0.838383

>  <SCORE.INTRA.norm>
-0.0127696

>  <SCORE.RESTR>
2.8951

>  <SCORE.RESTR.CAVITY>
2.8951

>  <SCORE.RESTR.norm>
0.0827172

>  <SCORE.SYSTEM>
0

>  <SCORE.SYSTEM.CONST>
0

>  <SCORE.SYSTEM.DIHEDRAL>
0

>  <SCORE.SYSTEM.SOLV>
0

>  <SCORE.SYSTEM.norm>
0

>  <SCORE.heavy>
35

>  <SCORE.norm>
-0.379906

>  <RMSD>
30.144

$$$$
2o3v_lig
 OpenBabel02141814113D
libRbt.so/2013.1/901 2013/11/27
 35 37  0  0  0  0  0  0  0  0999 V2000
   -4.2374   -4.8577   18.1529 C   0  0  2  0  0  0  0  0  0  0  0  0
   -4.8977   -5.5952   17.0792 O   0  0  0  0  0  0  0  0  0  0  0  0
   -4.9942   -9.7101   18.4883 C   0  0  2  0  0  0  0  0  0  0  0  0
   -5.2483  -11.1818   18.5332 N   0  0  0  0  0  0  0  0  0  0  0  0
   -5.8743    3.9578   17.2971 C   0  0  2  0  0  0  0  0  0  0  0  0
   -6.4367    3.4057   18.5072 O   0  0  0  0  0  0  0  0  0  0  0  0
   -4.6508   -3.3782   17.8727 C   0  0  2  0  0  0  0  0  0  0  0  0
   -6.1244   -3.2214   17.8883 N   0  0  0  0  0  0  0  0  0  0  0  0
   -6.3697   -8.9211   18.3839 C   0  0  0  0  0  0  0  0  0  0  0  0
   -5.4732    2.7562   16.3732 C   0  0  2  0  0  0  0  0  0  0  0  0
   -6.6447    1.8894   16.0882 N   0  0  0  0  0  0  0  0  0  0  0  0
   -4.0708   -2.8628   16.4844 C   0  0  1  0  0  0  0  0  0  0  0  0
   -4.5120   -1.4693   16.2161 O   0  0  0  0  0  0  0  0  0  0  0  0
   -6.0709   -7.3604   18.3260 C   0  0  2  0  0  0  0  0  0  0  0  0
   -7.3387   -6.6071   18.2169 N   0  0  0  0  0  0  0  0  0  0  0  0
   -4.2916    1.8985   17.0080 C   0  0  1  0  0  0  0  0  0  0  0  0
   -3.8773    0.7984   16.1579 O   0  0  0  0  0  0  0  0  0  0  0  0
   -2.4907   -3.0493   16.5296 C   0  0  2  0  0  0  0  0  0  0  0  0
   -1.8850   -2.6369   15.3176 O   0  0  0  0  0  0  0  0  0  0  0  0
   -5.1403   -7.0344   17.0862 C   0  0  2  0  0  0  0  0  0  0  0  0
   -3.0803    2.8467   17.2767 C   0  0  2  0  0  0  0  0  0  0  0  0
   -2.0002    2.1389   17.8528 O   0  0  0  0  0  0  0  0  0  0  0  0
   -2.1190   -4.5512   16.8294 C   0  0  2  0  0  0  0  0  0  0  0  0
   -2.7549   -4.9812   18.0924 O   0  0  0  0  0  0  0  0  0  0  0  0
   -3.8003   -7.8149   17.1932 C   0  0  2  0  0  0  0  0  0  0  0  0
   -3.0173   -7.4990   16.0065 O   0  0  0  0  0  0  0  0  0  0  0  0
   -3.5283    4.0444   18.2063 C   0  0  2  0  0  0  0  0  0  0  0  0
   -4.6647    4.7714   17.5957 O   0  0  0  0  0  0  0  0  0  0  0  0
   -0.6065   -4.7504   16.9151 C   0  0  0  0  0  0  0  0  0  0  0  0
    0.0205   -3.6303   17.4904 O   0  0  0  0  0  0  0  0  0  0  0  0
   -4.0864   -9.3336   17.2534 C   0  0  1  0  0  0  0  0  0  0  0  0
   -2.8554  -10.0179   17.3557 O   0  0  0  0  0  0  0  0  0  0  0  0
   -2.3897    5.0206   18.4607 C   0  0  0  0  0  0  0  0  0  0  0  0
   -2.8276    6.0859   19.2691 O   0  0  0  0  0  0  0  0  0  0  0  0
   -3.7148   -0.4155   16.9485 C   0  0  0  0  0  0  0  0  0  0  0  0
  1  2  1  6  0  0  0
  1  7  1  0  0  0  0
  1 24  1  0  0  0  0
  3  4  1  6  0  0  0
  3  9  1  0  0  0  0
  3 31  1  0  0  0  0
  5  6  1  1  0  0  0
  5 10  1  0  0  0  0
  5 28  1  0  0  0  0
  7  8  1  6  0  0  0
  7 12  1  0  0  0  0
  9 14  1  0  0  0  0
 10 11  1  1  0  0  0
 10 16  1  0  0  0  0
 12 13  1  1  0  0  0
 12 18  1  0  0  0  0
 13 35  1  0  0  0  0
 14 15  1  6  0  0  0
 14 20  1  0  0  0  0
 16 17  1  6  0  0  0
 16 21  1  0  0  0  0
 17 35  1  0  0  0  0
 18 19  1  6  0  0  0
 18 23  1  0  0  0  0
 20  2  1  1  0  0  0
 20 25  1  0  0  0  0
 21 22  1  1  0  0  0
 21 27  1  0  0  0  0
 23 24  1  0  0  0  0
 23 29  1  1  0  0  0
 25 26  1  6  0  0  0
 25 31  1  0  0  0  0
 27 28  1  0  0  0  0
 27 33  1  6  0  0  0
 29 30  1  0  0  0  0
 31 32  1  1  0  0  0
 33 34  1  0  0  0  0
M  END
>  <CHROM.1>
-162.14273554,79.90751744,156.13384730,-135.18845298,129.19525354,61.03289727
35.19571141,178.88801582,-4.01665690,-2.54645195,17.38692903,1.59489794,-0.14792367
-3.13526176

>  <Name>
2o3v_lig

>  <RI>
0

>  <Rbt.Current_Directory>
/home/afrankz/demos/rdock_decoys_rna/rnas/2o3v

>  <Rbt.Executable>
rbdock ($Id: //depot/dev/client3/rdock/2013.1/src/exe/rbdock.cxx#4 $)

>  <Rbt.Library>
libRbt.so (2013.1, Build901 2013/11/27)

>  <Rbt.Parameter_File>
/export/apps/rDock/src/rDock_2013.1_src/data/scripts/dock_solv.prm

>  <Rbt.Receptor>
prm/blind_docking_60.prm

>  <SCORE>
-8.13504

>  <SCORE.INTER>
-14.0591

>  <SCORE.INTER.CONST>
1

>  <SCORE.INTER.POLAR>
-1.31742

>  <SCORE.INTER.ROT>
8

>  <SCORE.INTER.SOLV>
17.952

>  <SCORE.INTER.VDW>
-19.8987

>  <SCORE.INTER.norm>
-0.40169

>  <SCORE.INTRA>
2.93128

>  <SCORE.INTRA.DIHEDRAL>
7.45414

>  <SCORE.INTRA.DIHEDRAL.0>
13.1227

>  <SCORE.INTRA.POLAR>
0

>  <SCORE.INTRA.POLAR.0>
0

>  <SCORE.INTRA.REPUL>
0

>  <SCORE.INTRA.REPUL.0>
0

>  <SCORE.INTRA.SOLV>
1.32239

>  <SCORE.INTRA.SOLV.lig_0>
-89.1587

>  <SCORE.INTRA.VDW>
-1.45698

>  <SCORE.INTRA.VDW.0>
-0.838383

>  <SCORE.INTRA.norm>
0.0837509

>  <SCORE.RESTR>
2.99282

>  <SCORE.RESTR.CAVITY>
2.99282

>  <SCORE.RESTR.norm>
0.0855093

>  <SCORE.SYSTEM>
0

>  <SCORE.SYSTEM.CONST>
0

>  <SCORE.SYSTEM.DIHEDRAL>
0

>  <SCORE.SYSTEM.SOLV>
0

>  <SCORE.SYSTEM.norm>
0

>  <SCORE.heavy>
35

>  <SCORE.norm>
-0.23243

>  <RMSD>
30.145

$$$$
2o3v_lig
 OpenBabel02141814113D
libRbt.so/2013.1/901 2013/11/27
 35 37  0  0  0  0  0  0  0  0999 V2000
   -3.7392    2.5258   15.5407 C   0  0  2  0  0  0  0  0  0  0  0  0
   -3.2411    1.4088   16.3390 O   0  0  0  0  0  0  0  0  0  0  0  0
   -3.5768   -2.8649   17.0802 C   0  0  2  0  0  0  0  0  0  0  0  0
   -3.9956   -4.2928   16.9459 N   0  0  0  0  0  0  0  0  0  0  0  0
   -3.5843    8.0248   22.3927 C   0  0  2  0  0  0  0  0  0  0  0  0
   -4.3866    8.6254   21.3529 O   0  0  0  0  0  0  0  0  0  0  0  0
   -3.4989    3.7589   16.4680 C   0  0  2  0  0  0  0  0  0  0  0  0
   -2.0652    3.8953   16.8175 N   0  0  0  0  0  0  0  0  0  0  0  0
   -4.8414   -1.9504   17.3802 C   0  0  0  0  0  0  0  0  0  0  0  0
   -2.9156    6.7414   21.7896 C   0  0  2  0  0  0  0  0  0  0  0  0
   -2.1021    7.0766   20.5934 N   0  0  0  0  0  0  0  0  0  0  0  0
   -4.3689    3.6690   17.7963 C   0  0  1  0  0  0  0  0  0  0  0  0
   -4.0928    4.8281   18.6842 O   0  0  0  0  0  0  0  0  0  0  0  0
   -4.3705   -0.4369   17.5068 C   0  0  2  0  0  0  0  0  0  0  0  0
   -5.5353    0.4336   17.7749 N   0  0  0  0  0  0  0  0  0  0  0  0
   -3.9985    5.6314   21.4290 C   0  0  1  0  0  0  0  0  0  0  0  0
   -3.4040    4.4186   20.8993 O   0  0  0  0  0  0  0  0  0  0  0  0
   -5.8932    3.5312   17.3589 C   0  0  2  0  0  0  0  0  0  0  0  0
   -6.7472    3.4192   18.4832 O   0  0  0  0  0  0  0  0  0  0  0  0
   -3.6518    0.0184   16.1707 C   0  0  2  0  0  0  0  0  0  0  0  0
   -4.8179    5.3019   22.7169 C   0  0  2  0  0  0  0  0  0  0  0  0
   -5.8060    4.3253   22.4534 O   0  0  0  0  0  0  0  0  0  0  0  0
   -6.0873    2.2852   16.4136 C   0  0  2  0  0  0  0  0  0  0  0  0
   -5.1926    2.4016   15.2429 O   0  0  0  0  0  0  0  0  0  0  0  0
   -2.4202   -0.8849   15.8817 C   0  0  2  0  0  0  0  0  0  0  0  0
   -1.8368   -0.4356   14.6251 O   0  0  0  0  0  0  0  0  0  0  0  0
   -5.4701    6.6213   23.2939 C   0  0  2  0  0  0  0  0  0  0  0  0
   -4.4260    7.6378   23.5572 O   0  0  0  0  0  0  0  0  0  0  0  0
   -7.5367    2.1516   15.9487 C   0  0  0  0  0  0  0  0  0  0  0  0
   -7.6103    2.0205   14.5500 O   0  0  0  0  0  0  0  0  0  0  0  0
   -2.8732   -2.3588   15.7612 C   0  0  1  0  0  0  0  0  0  0  0  0
   -1.7372   -3.1573   15.5047 O   0  0  0  0  0  0  0  0  0  0  0  0
   -6.2441    6.3566   24.5764 C   0  0  0  0  0  0  0  0  0  0  0  0
   -7.3276    7.2473   24.6887 O   0  0  0  0  0  0  0  0  0  0  0  0
   -2.8751    4.6593   19.5624 C   0  0  0  0  0  0  0  0  0  0  0  0
  1  2  1  1  0  0  0
  1  7  1  0  0  0  0
  1 24  1  0  0  0  0
  3  4  1  6  0  0  0
  3  9  1  0  0  0  0
  3 31  1  0  0  0  0
  5  6  1  6  0  0  0
  5 10  1  0  0  0  0
  5 28  1  0  0  0  0
  7  8  1  1  0  0  0
  7 12  1  0  0  0  0
  9 14  1  0  0  0  0
 10 11  1  6  0  0  0
 10 16  1  0  0  0  0
 12 13  1  1  0  0  0
 12 18  1  0  0  0  0
 13 35  1  0  0  0  0
 14 15  1  6  0  0  0
 14 20  1  0  0  0  0
 16 17  1  1  0  0  0
 16 21  1  0  0  0  0
 17 35  1  0  0  0  0
 18 19  1  1  0  0  0
 18 23  1  0  0  0  0
 20  2  1  1  0  0  0
 20 25  1  0  0  0  0
 21 22  1  6  0  0  0
 21 27  1  0  0  0  0
 23 24  1  0  0  0  0
 23 29  1  6  0  0  0
 25 26  1  6  0  0  0
 25 31  1  0  0  0  0
 27 28  1  0  0  0  0
 27 33  1  1  0  0  0
 29 30  1  0  0  0  0
 31 32  1  1  0  0  0
 33 34  1  0  0  0  0
M  END
>  <CHROM.1>
156.63715070,-83.68202708,-106.18361729,-70.57614413,-70.60325272,-116.78723442
128.83262553,-148.95878074,-4.37300842,2.96729121,18.68794696,-1.09866125
1.34629287,0.24689502

>  <Name>
2o3v_lig

>  <RI>
0

>  <Rbt.Current_Directory>
/home/afrankz/demos/rdock_decoys_rna/rnas/2o3v

>  <Rbt.Executable>
rbdock ($Id: //depot/dev/client3/rdock/2013.1/src/exe/rbdock.cxx#4 $)

>  <Rbt.Library>
libRbt.so (2013.1, Build901 2013/11/27)

>  <Rbt.Parameter_File>
/export/apps/rDock/src/rDock_2013.1_src/data/scripts/dock_solv.prm

>  <Rbt.Receptor>
prm/blind_docking_80.prm

>  <SCORE>
11.7061

>  <SCORE.INTER>
-2.80428

>  <SCORE.INTER.CONST>
1

>  <SCORE.INTER.POLAR>
-2.29021

>  <SCORE.INTER.ROT>
8

>  <SCORE.INTER.SOLV>
27.8449

>  <SCORE.INTER.VDW>
-12.4504

>  <SCORE.INTER.norm>
-0.0801222

>  <SCORE.INTRA>
13.3822

>  <SCORE.INTRA.DIHEDRAL>
14.003

>  <SCORE.INTRA.DIHEDRAL.0>
13.1227

>  <SCORE.INTRA.POLAR>
0

>  <SCORE.INTRA.POLAR.0>
0

>  <SCORE.INTRA.REPUL>
0

>  <SCORE.INTRA.REPUL.0>
0

>  <SCORE.INTRA.SOLV>
5.63362

>  <SCORE.INTRA.SOLV.lig_0>
-89.1587

>  <SCORE.INTRA.VDW>
3.56389

>  <SCORE.INTRA.VDW.0>
-0.838383

>  <SCORE.INTRA.norm>
0.382348

>  <SCORE.RESTR>
1.1282

>  <SCORE.RESTR.CAVITY>
1.1282

>  <SCORE.RESTR.norm>
0.0322344

>  <SCORE.SYSTEM>
0

>  <SCORE.SYSTEM.CONST>
0

>  <SCORE.SYSTEM.DIHEDRAL>
0

>  <SCORE.SYSTEM.SOLV>
0

>  <SCORE.SYSTEM.norm>
0

>  <SCORE.heavy>
35

>  <SCORE.norm>
0.33446

>  <RMSD>
30.151

$$$$
2o3v_lig
 OpenBabel02141814113D
libRbt.so/2013.1/901 2013/11/27
 35 37  0  0  0  0  0  0  0  0999 V2000
   -3.5812    2.7926   15.6210 C   0  0  2  0  0  0  0  0  0  0  0  0
   -3.0438    1.8890   16.6347 O   0  0  0  0  0  0  0  0  0  0  0  0
   -3.1639   -2.3967   15.8963 C   0  0  2  0  0  0  0  0  0  0  0  0
   -2.7171   -3.7933   15.6096 N   0  0  0  0  0  0  0  0  0  0  0  0
   -4.1329    6.6639   23.5220 C   0  0  2  0  0  0  0  0  0  0  0  0
   -3.8501    8.0526   23.7996 O   0  0  0  0  0  0  0  0  0  0  0  0
   -3.5377    4.1843   16.3281 C   0  0  2  0  0  0  0  0  0  0  0  0
   -2.1571    4.5343   16.7376 N   0  0  0  0  0  0  0  0  0  0  0  0
   -2.7714   -1.4390   14.6905 C   0  0  0  0  0  0  0  0  0  0  0  0
   -4.0984    6.4783   21.9655 C   0  0  2  0  0  0  0  0  0  0  0  0
   -2.7859    6.8931   21.4085 N   0  0  0  0  0  0  0  0  0  0  0  0
   -4.4999    4.2265   17.5937 C   0  0  1  0  0  0  0  0  0  0  0  0
   -4.4104    5.5429   18.2774 O   0  0  0  0  0  0  0  0  0  0  0  0
   -3.2470    0.0409   15.0255 C   0  0  2  0  0  0  0  0  0  0  0  0
   -2.8808    0.9517   13.9197 N   0  0  0  0  0  0  0  0  0  0  0  0
   -5.2784    7.2763   21.2544 C   0  0  1  0  0  0  0  0  0  0  0  0
   -5.2907    7.0952   19.8151 O   0  0  0  0  0  0  0  0  0  0  0  0
   -5.9630    3.8503   17.0923 C   0  0  2  0  0  0  0  0  0  0  0  0
   -6.8907    3.8381   18.1625 O   0  0  0  0  0  0  0  0  0  0  0  0
   -2.5762    0.5312   16.3741 C   0  0  2  0  0  0  0  0  0  0  0  0
   -6.6357    6.7979   21.8608 C   0  0  2  0  0  0  0  0  0  0  0  0
   -7.7237    7.4830   21.2723 O   0  0  0  0  0  0  0  0  0  0  0  0
   -5.9581    2.4481   16.3728 C   0  0  2  0  0  0  0  0  0  0  0  0
   -4.9868    2.4612   15.2589 O   0  0  0  0  0  0  0  0  0  0  0  0
   -2.9601   -0.4143   17.5466 C   0  0  2  0  0  0  0  0  0  0  0  0
   -2.2791    0.0723   18.7385 O   0  0  0  0  0  0  0  0  0  0  0  0
   -6.6264    6.9979   23.4290 C   0  0  2  0  0  0  0  0  0  0  0  0
   -5.4781    6.2828   24.0314 O   0  0  0  0  0  0  0  0  0  0  0  0
   -7.3451    2.0795   15.8484 C   0  0  0  0  0  0  0  0  0  0  0  0
   -8.2678    1.9509   16.9025 O   0  0  0  0  0  0  0  0  0  0  0  0
   -2.5024   -1.8559   17.2233 C   0  0  1  0  0  0  0  0  0  0  0  0
   -2.8674   -2.6941   18.2996 O   0  0  0  0  0  0  0  0  0  0  0  0
   -7.9143    6.5042   24.0706 C   0  0  0  0  0  0  0  0  0  0  0  0
   -7.7446    6.3533   25.4593 O   0  0  0  0  0  0  0  0  0  0  0  0
   -5.3069    5.6751   19.4862 C   0  0  0  0  0  0  0  0  0  0  0  0
  1  2  1  1  0  0  0
  1  7  1  0  0  0  0
  1 24  1  0  0  0  0
  3  4  1  6  0  0  0
  3  9  1  0  0  0  0
  3 31  1  0  0  0  0
  5  6  1  6  0  0  0
  5 10  1  0  0  0  0
  5 28  1  0  0  0  0
  7  8  1  1  0  0  0
  7 12  1  0  0  0  0
  9 14  1  0  0  0  0
 10 11  1  6  0  0  0
 10 16  1  0  0  0  0
 12 13  1  6  0  0  0
 12 18  1  0  0  0  0
 13 35  1  0  0  0  0
 14 15  1  6  0  0  0
 14 20  1  0  0  0  0
 16 17  1  6  0  0  0
 16 21  1  0  0  0  0
 17 35  1  0  0  0  0
 18 19  1  1  0  0  0
 18 23  1  0  0  0  0
 20  2  1  1  0  0  0
 20 25  1  0  0  0  0
 21 22  1  6  0  0  0
 21 27  1  0  0  0  0
 23 24  1  0  0  0  0
 23 29  1  6  0  0  0
 25 26  1  1  0  0  0
 25 31  1  0  0  0  0
 27 28  1  0  0  0  0
 27 33  1  1  0  0  0
 29 30  1  0  0  0  0
 31 32  1  1  0  0  0
 33 34  1  0  0  0  0
M  END
>  <CHROM.1>
-164.59935090,179.36645425,-167.82959637,53.65160314,-141.59520802,-21.48403003
-62.86410488,164.02349988,-4.65231695,3.39053338,18.78441832,1.10743621,0.98585133
-2.00319748

>  <Name>
2o3v_lig

>  <RI>
0

>  <Rbt.Current_Directory>
/home/afrankz/demos/rdock_decoys_rna/rnas/2o3v

>  <Rbt.Executable>
rbdock ($Id: //depot/dev/client3/rdock/2013.1/src/exe/rbdock.cxx#4 $)

>  <Rbt.Library>
libRbt.so (2013.1, Build901 2013/11/27)

>  <Rbt.Parameter_File>
/export/apps/rDock/src/rDock_2013.1_src/data/scripts/dock_solv.prm

>  <Rbt.Receptor>
prm/blind_docking_40.prm

>  <SCORE>
-2.53675

>  <SCORE.INTER>
-9.33077

>  <SCORE.INTER.CONST>
1

>  <SCORE.INTER.POLAR>
-2.12453

>  <SCORE.INTER.ROT>
8

>  <SCORE.INTER.SOLV>
27.5088

>  <SCORE.INTER.VDW>
-17.2417

>  <SCORE.INTER.norm>
-0.266593

>  <SCORE.INTRA>
3.79807

>  <SCORE.INTRA.DIHEDRAL>
0.104367

>  <SCORE.INTRA.DIHEDRAL.0>
13.1227

>  <SCORE.INTRA.POLAR>
0

>  <SCORE.INTRA.POLAR.0>
0

>  <SCORE.INTRA.REPUL>
0

>  <SCORE.INTRA.REPUL.0>
0

>  <SCORE.INTRA.SOLV>
1.53315

>  <SCORE.INTRA.SOLV.lig_0>
-89.1587

>  <SCORE.INTRA.VDW>
2.97931

>  <SCORE.INTRA.VDW.0>
-0.838383

>  <SCORE.INTRA.norm>
0.108516

>  <SCORE.RESTR>
2.99596

>  <SCORE.RESTR.CAVITY>
2.99596

>  <SCORE.RESTR.norm>
0.0855987

>  <SCORE.SYSTEM>
0

>  <SCORE.SYSTEM.CONST>
0

>  <SCORE.SYSTEM.DIHEDRAL>
0

>  <SCORE.SYSTEM.SOLV>
0

>  <SCORE.SYSTEM.norm>
0

>  <SCORE.heavy>
35

>  <SCORE.norm>
-0.0724784

>  <RMSD>
30.172

$$$$
2o3v_lig
 OpenBabel02141814113D
libRbt.so/2013.1/901 2013/11/27
 35 37  0  0  0  0  0  0  0  0999 V2000
   -3.4034    2.7287   15.9222 C   0  0  2  0  0  0  0  0  0  0  0  0
   -2.9981    1.6661   16.8383 O   0  0  0  0  0  0  0  0  0  0  0  0
   -3.3242   -2.5078   15.6551 C   0  0  2  0  0  0  0  0  0  0  0  0
   -2.9456   -3.8848   15.2161 N   0  0  0  0  0  0  0  0  0  0  0  0
   -6.7986    6.1117   23.3978 C   0  0  2  0  0  0  0  0  0  0  0  0
   -6.0729    6.5301   24.5741 O   0  0  0  0  0  0  0  0  0  0  0  0
   -3.1269    4.0283   16.7426 C   0  0  2  0  0  0  0  0  0  0  0  0
   -1.7011    4.1204   17.1361 N   0  0  0  0  0  0  0  0  0  0  0  0
   -2.9010   -1.4464   14.5507 C   0  0  0  0  0  0  0  0  0  0  0  0
   -5.7426    5.6975   22.3154 C   0  0  2  0  0  0  0  0  0  0  0  0
   -4.8532    4.6222   22.8230 N   0  0  0  0  0  0  0  0  0  0  0  0
   -4.0473    4.1086   18.0371 C   0  0  1  0  0  0  0  0  0  0  0  0
   -3.7377    5.3290   18.8265 O   0  0  0  0  0  0  0  0  0  0  0  0
   -3.3040    0.0095   15.0470 C   0  0  2  0  0  0  0  0  0  0  0  0
   -2.9081    1.0149   14.0375 N   0  0  0  0  0  0  0  0  0  0  0  0
   -4.8809    6.9454   21.8305 C   0  0  1  0  0  0  0  0  0  0  0  0
   -3.9172    6.5969   20.8036 O   0  0  0  0  0  0  0  0  0  0  0  0
   -5.5604    4.0118   17.5525 C   0  0  2  0  0  0  0  0  0  0  0  0
   -6.4587    4.0503   18.6467 O   0  0  0  0  0  0  0  0  0  0  0  0
   -2.5966    0.3239   16.4290 C   0  0  2  0  0  0  0  0  0  0  0  0
   -5.8551    8.0415   21.2938 C   0  0  2  0  0  0  0  0  0  0  0  0
   -5.1435    9.1828   20.8571 O   0  0  0  0  0  0  0  0  0  0  0  0
   -5.7909    2.6953   16.7173 C   0  0  2  0  0  0  0  0  0  0  0  0
   -4.8501    2.6547   15.5781 O   0  0  0  0  0  0  0  0  0  0  0  0
   -3.0110   -0.7223   17.5014 C   0  0  2  0  0  0  0  0  0  0  0  0
   -2.2953   -0.3955   18.7270 O   0  0  0  0  0  0  0  0  0  0  0  0
   -6.9039    8.4260   22.4125 C   0  0  2  0  0  0  0  0  0  0  0  0
   -7.6357    7.2213   22.8665 O   0  0  0  0  0  0  0  0  0  0  0  0
   -7.2281    2.5962   16.2080 C   0  0  0  0  0  0  0  0  0  0  0  0
   -8.1277    2.3809   17.2678 O   0  0  0  0  0  0  0  0  0  0  0  0
   -2.6240   -2.1406   17.0211 C   0  0  1  0  0  0  0  0  0  0  0  0
   -3.0156   -3.0707   18.0088 O   0  0  0  0  0  0  0  0  0  0  0  0
   -7.9036    9.4615   21.9200 C   0  0  0  0  0  0  0  0  0  0  0  0
   -8.7613    9.8518   22.9649 O   0  0  0  0  0  0  0  0  0  0  0  0
   -4.2170    5.2786   20.2583 C   0  0  0  0  0  0  0  0  0  0  0  0
  1  2  1  1  0  0  0
  1  7  1  0  0  0  0
  1 24  1  0  0  0  0
  3  4  1  6  0  0  0
  3  9  1  0  0  0  0
  3 31  1  0  0  0  0
  5  6  1  1  0  0  0
  5 10  1  0  0  0  0
  5 28  1  0  0  0  0
  7  8  1  1  0  0  0
  7 12  1  0  0  0  0
  9 14  1  0  0  0  0
 10 11  1  1  0  0  0
 10 16  1  0  0  0  0
 12 13  1  6  0  0  0
 12 18  1  0  0  0  0
 13 35  1  0  0  0  0
 14 15  1  6  0  0  0
 14 20  1  0  0  0  0
 16 17  1  6  0  0  0
 16 21  1  0  0  0  0
 17 35  1  0  0  0  0
 18 19  1  1  0  0  0
 18 23  1  0  0  0  0
 20  2  1  1  0  0  0
 20 25  1  0  0  0  0
 21 22  1  1  0  0  0
 21 27  1  0  0  0  0
 23 24  1  0  0  0  0
 23 29  1  6  0  0  0
 25 26  1  1  0  0  0
 25 31  1  0  0  0  0
 27 28  1  0  0  0  0
 27 33  1  6  0  0  0
 29 30  1  0  0  0  0
 31 32  1  1  0  0  0
 33 34  1  0  0  0  0
M  END
>  <CHROM.1>
-156.61377943,-161.35935221,-175.28730910,13.97594233,149.88935694,-26.58298889
-69.01333973,-175.80589208,-4.73747153,3.52181959,18.79288833,0.61702218
1.19195381,-1.59073193

>  <Name>
2o3v_lig

>  <RI>
0

>  <Rbt.Current_Directory>
/home/afrankz/demos/rdock_decoys_rna/rnas/2o3v

>  <Rbt.Executable>
rbdock ($Id: //depot/dev/client3/rdock/2013.1/src/exe/rbdock.cxx#4 $)

>  <Rbt.Library>
libRbt.so (2013.1, Build901 2013/11/27)

>  <Rbt.Parameter_File>
/export/apps/rDock/src/rDock_2013.1_src/data/scripts/dock_solv.prm

>  <Rbt.Receptor>
prm/blind_docking_80.prm

>  <SCORE>
-5.28926

>  <SCORE.INTER>
-19.3935

>  <SCORE.INTER.CONST>
1

>  <SCORE.INTER.POLAR>
-3.37017

>  <SCORE.INTER.ROT>
8

>  <SCORE.INTER.SOLV>
29.9245

>  <SCORE.INTER.VDW>
-20.6033

>  <SCORE.INTER.norm>
-0.554101

>  <SCORE.INTRA>
9.87731

>  <SCORE.INTRA.DIHEDRAL>
5.46402

>  <SCORE.INTRA.DIHEDRAL.0>
13.1227

>  <SCORE.INTRA.POLAR>
0

>  <SCORE.INTRA.POLAR.0>
0

>  <SCORE.INTRA.REPUL>
0

>  <SCORE.INTRA.REPUL.0>
0

>  <SCORE.INTRA.SOLV>
1.56437

>  <SCORE.INTRA.SOLV.lig_0>
-89.1587

>  <SCORE.INTRA.VDW>
6.36311

>  <SCORE.INTRA.VDW.0>
-0.838383

>  <SCORE.INTRA.norm>
0.282209

>  <SCORE.RESTR>
4.22698

>  <SCORE.RESTR.CAVITY>
4.22698

>  <SCORE.RESTR.norm>
0.120771

>  <SCORE.SYSTEM>
0

>  <SCORE.SYSTEM.CONST>
0

>  <SCORE.SYSTEM.DIHEDRAL>
0

>  <SCORE.SYSTEM.SOLV>
0

>  <SCORE.SYSTEM.norm>
0

>  <SCORE.heavy>
35

>  <SCORE.norm>
-0.151122

>  <RMSD>
30.179

$$$$
2o3v_lig
 OpenBabel02141814113D
libRbt.so/2013.1/901 2013/11/27
 35 37  0  0  0  0  0  0  0  0999 V2000
   -4.0757    1.9142   15.4704 C   0  0  2  0  0  0  0  0  0  0  0  0
   -3.7070    0.8827   16.4362 O   0  0  0  0  0  0  0  0  0  0  0  0
   -3.2666   -3.3991   17.0688 C   0  0  2  0  0  0  0  0  0  0  0  0
   -3.3693   -4.8751   16.8613 N   0  0  0  0  0  0  0  0  0  0  0  0
   -3.1548    6.7678   22.1640 C   0  0  2  0  0  0  0  0  0  0  0  0
   -3.3960    8.0841   21.6211 O   0  0  0  0  0  0  0  0  0  0  0  0
   -3.8360    3.2402   16.2594 C   0  0  2  0  0  0  0  0  0  0  0  0
   -2.4280    3.3492   16.7089 N   0  0  0  0  0  0  0  0  0  0  0  0
   -4.7168   -2.7653   17.2127 C   0  0  0  0  0  0  0  0  0  0  0  0
   -3.7503    5.7259   21.1550 C   0  0  2  0  0  0  0  0  0  0  0  0
   -3.1456    5.8832   19.8080 N   0  0  0  0  0  0  0  0  0  0  0  0
   -4.8098    3.3590   17.5112 C   0  0  1  0  0  0  0  0  0  0  0  0
   -4.5357    4.6050   18.2731 O   0  0  0  0  0  0  0  0  0  0  0  0
   -4.5798   -1.1948   17.4206 C   0  0  2  0  0  0  0  0  0  0  0  0
   -5.9202   -0.5830   17.5453 N   0  0  0  0  0  0  0  0  0  0  0  0
   -5.3360    5.8372   21.0662 C   0  0  1  0  0  0  0  0  0  0  0  0
   -5.9173    4.8613   20.1637 O   0  0  0  0  0  0  0  0  0  0  0  0
   -6.3011    3.2420   16.9673 C   0  0  2  0  0  0  0  0  0  0  0  0
   -7.2445    3.3127   18.0212 O   0  0  0  0  0  0  0  0  0  0  0  0
   -3.8051   -0.5537   16.1966 C   0  0  2  0  0  0  0  0  0  0  0  0
   -5.9267    5.6519   22.4998 C   0  0  2  0  0  0  0  0  0  0  0  0
   -7.3371    5.7519   22.4841 O   0  0  0  0  0  0  0  0  0  0  0  0
   -6.4942    1.8988   16.1659 C   0  0  2  0  0  0  0  0  0  0  0  0
   -5.5065    1.8246   15.0688 O   0  0  0  0  0  0  0  0  0  0  0  0
   -2.3906   -1.1835   16.0594 C   0  0  2  0  0  0  0  0  0  0  0  0
   -1.7561   -0.5783   14.8966 O   0  0  0  0  0  0  0  0  0  0  0  0
   -5.2977    6.7169   23.4844 C   0  0  2  0  0  0  0  0  0  0  0  0
   -3.8209    6.6069   23.4848 O   0  0  0  0  0  0  0  0  0  0  0  0
   -7.9087    1.7789   15.6005 C   0  0  0  0  0  0  0  0  0  0  0  0
   -8.5311    3.0379   15.5209 O   0  0  0  0  0  0  0  0  0  0  0  0
   -2.5190   -2.7119   15.8606 C   0  0  1  0  0  0  0  0  0  0  0  0
   -1.2225   -3.2593   15.7445 O   0  0  0  0  0  0  0  0  0  0  0  0
   -5.8115    6.5469   24.9061 C   0  0  0  0  0  0  0  0  0  0  0  0
   -7.2049    6.7378   24.9507 O   0  0  0  0  0  0  0  0  0  0  0  0
   -5.7741    5.3046   18.7824 C   0  0  0  0  0  0  0  0  0  0  0  0
  1  2  1  1  0  0  0
  1  7  1  0  0  0  0
  1 24  1  0  0  0  0
  3  4  1  6  0  0  0
  3  9  1  0  0  0  0
  3 31  1  0  0  0  0
  5  6  1  6  0  0  0
  5 10  1  0  0  0  0
  5 28  1  0  0  0  0
  7  8  1  1  0  0  0
  7 12  1  0  0  0  0
  9 14  1  0  0  0  0
 10 11  1  6  0  0  0
 10 16  1  0  0  0  0
 12 13  1  6  0  0  0
 12 18  1  0  0  0  0
 13 35  1  0  0  0  0
 14 15  1  6  0  0  0
 14 20  1  0  0  0  0
 16 17  1  6  0  0  0
 16 21  1  0  0  0  0
 17 35  1  0  0  0  0
 18 19  1  1  0  0  0
 18 23  1  0  0  0  0
 20  2  1  1  0  0  0
 20 25  1  0  0  0  0
 21 22  1  6  0  0  0
 21 27  1  0  0  0  0
 23 24  1  0  0  0  0
 23 29  1  6  0  0  0
 25 26  1  6  0  0  0
 25 31  1  0  0  0  0
 27 28  1  0  0  0  0
 27 33  1  1  0  0  0
 29 30  1  0  0  0  0
 31 32  1  1  0  0  0
 33 34  1  0  0  0  0
M  END
>  <CHROM.1>
177.54257637,140.34814167,96.94304534,-79.52237108,96.53726628,-129.69434624
20.44629949,-61.66099560,-4.73343792,2.67281865,18.57739360,1.36322600,0.66394086
-2.33012162

>  <Name>
2o3v_lig

>  <RI>
0

>  <Rbt.Current_Directory>
/home/afrankz/demos/rdock_decoys_rna/rnas/2o3v

>  <Rbt.Executable>
rbdock ($Id: //depot/dev/client3/rdock/2013.1/src/exe/rbdock.cxx#4 $)

>  <Rbt.Library>
libRbt.so (2013.1, Build901 2013/11/27)

>  <Rbt.Parameter_File>
/export/apps/rDock/src/rDock_2013.1_src/data/scripts/dock_solv.prm

>  <Rbt.Receptor>
prm/blind_docking_80.prm

>  <SCORE>
6.69286

>  <SCORE.INTER>
-7.82053

>  <SCORE.INTER.CONST>
1

>  <SCORE.INTER.POLAR>
-1.90303

>  <SCORE.INTER.ROT>
8

>  <SCORE.INTER.SOLV>
26.7958

>  <SCORE.INTER.VDW>
-16.7355

>  <SCORE.INTER.norm>
-0.223444

>  <SCORE.INTRA>
12.7545

>  <SCORE.INTRA.DIHEDRAL>
14.3327

>  <SCORE.INTRA.DIHEDRAL.0>
13.1227

>  <SCORE.INTRA.POLAR>
0

>  <SCORE.INTRA.POLAR.0>
0

>  <SCORE.INTRA.REPUL>
0

>  <SCORE.INTRA.REPUL.0>
0

>  <SCORE.INTRA.SOLV>
5.06306

>  <SCORE.INTRA.SOLV.lig_0>
-89.1587

>  <SCORE.INTRA.VDW>
3.05663

>  <SCORE.INTRA.VDW.0>
-0.838383

>  <SCORE.INTRA.norm>
0.364414

>  <SCORE.RESTR>
1.75889

>  <SCORE.RESTR.CAVITY>
1.75889

>  <SCORE.RESTR.norm>
0.0502539

>  <SCORE.SYSTEM>
0

>  <SCORE.SYSTEM.CONST>
0

>  <SCORE.SYSTEM.DIHEDRAL>
0

>  <SCORE.SYSTEM.SOLV>
0

>  <SCORE.SYSTEM.norm>
0

>  <SCORE.heavy>
35

>  <SCORE.norm>
0.191225

>  <RMSD>
30.189

$$$$
2o3v_lig
 OpenBabel02141814113D
libRbt.so/2013.1/901 2013/11/27
 35 37  0  0  0  0  0  0  0  0999 V2000
   -3.0569   -5.4809   17.3207 C   0  0  2  0  0  0  0  0  0  0  0  0
   -4.1584   -5.5037   18.2793 O   0  0  0  0  0  0  0  0  0  0  0  0
   -7.0467   -8.6240   19.2005 C   0  0  2  0  0  0  0  0  0  0  0  0
   -7.6488   -9.8677   19.7687 N   0  0  0  0  0  0  0  0  0  0  0  0
   -4.3884    3.9423   17.7335 C   0  0  2  0  0  0  0  0  0  0  0  0
   -4.1370    4.7072   16.5346 O   0  0  0  0  0  0  0  0  0  0  0  0
   -2.4414   -4.0600   17.5220 C   0  0  2  0  0  0  0  0  0  0  0  0
   -1.9916   -3.8640   18.9205 N   0  0  0  0  0  0  0  0  0  0  0  0
   -5.8210   -8.9915   18.2581 C   0  0  0  0  0  0  0  0  0  0  0  0
   -3.6242    2.5806   17.5923 C   0  0  2  0  0  0  0  0  0  0  0  0
   -2.1719    2.8044   17.3786 N   0  0  0  0  0  0  0  0  0  0  0  0
   -3.4717   -2.9156   17.1242 C   0  0  1  0  0  0  0  0  0  0  0  0
   -2.8831   -1.5725   17.3648 O   0  0  0  0  0  0  0  0  0  0  0  0
   -5.1920   -7.6519   17.6766 C   0  0  2  0  0  0  0  0  0  0  0  0
   -4.0410   -7.9712   16.8049 N   0  0  0  0  0  0  0  0  0  0  0  0
   -4.2258    1.6908   16.4170 C   0  0  1  0  0  0  0  0  0  0  0  0
   -3.5584    0.4094   16.2854 O   0  0  0  0  0  0  0  0  0  0  0  0
   -3.9120   -3.1741   15.6166 C   0  0  2  0  0  0  0  0  0  0  0  0
   -4.8545   -2.2116   15.1794 O   0  0  0  0  0  0  0  0  0  0  0  0
   -4.7259   -6.7140   18.8651 C   0  0  2  0  0  0  0  0  0  0  0  0
   -5.7473    1.4707   16.6914 C   0  0  2  0  0  0  0  0  0  0  0  0
   -6.3394    0.6925   15.6700 O   0  0  0  0  0  0  0  0  0  0  0  0
   -4.5125   -4.6223   15.4559 C   0  0  2  0  0  0  0  0  0  0  0  0
   -3.5292   -5.6252   15.9162 O   0  0  0  0  0  0  0  0  0  0  0  0
   -5.9292   -6.3647   19.7850 C   0  0  2  0  0  0  0  0  0  0  0  0
   -5.4207   -5.5382   20.8710 O   0  0  0  0  0  0  0  0  0  0  0  0
   -6.4777    2.8658   16.8313 C   0  0  2  0  0  0  0  0  0  0  0  0
   -5.8427    3.6735   17.8977 O   0  0  0  0  0  0  0  0  0  0  0  0
   -4.9092   -4.9098   14.0086 C   0  0  0  0  0  0  0  0  0  0  0  0
   -3.8137   -4.7481   13.1410 O   0  0  0  0  0  0  0  0  0  0  0  0
   -6.5464   -7.6654   20.3502 C   0  0  1  0  0  0  0  0  0  0  0  0
   -7.6387   -7.3211   21.1763 O   0  0  0  0  0  0  0  0  0  0  0  0
   -7.9575    2.7017   17.1432 C   0  0  0  0  0  0  0  0  0  0  0  0
   -8.1355    1.8345   18.2370 O   0  0  0  0  0  0  0  0  0  0  0  0
   -3.8954   -0.4521   17.4121 C   0  0  0  0  0  0  0  0  0  0  0  0
  1  2  1  1  0  0  0
  1  7  1  0  0  0  0
  1 24  1  0  0  0  0
  3  4  1  1  0  0  0
  3  9  1  0  0  0  0
  3 31  1  0  0  0  0
  5  6  1  6  0  0  0
  5 10  1  0  0  0  0
  5 28  1  0  0  0  0
  7  8  1  1  0  0  0
  7 12  1  0  0  0  0
  9 14  1  0  0  0  0
 10 11  1  6  0  0  0
 10 16  1  0  0  0  0
 12 13  1  6  0  0  0
 12 18  1  0  0  0  0
 13 35  1  0  0  0  0
 14 15  1  6  0  0  0
 14 20  1  0  0  0  0
 16 17  1  1  0  0  0
 16 21  1  0  0  0  0
 17 35  1  0  0  0  0
 18 19  1  1  0  0  0
 18 23  1  0  0  0  0
 20  2  1  6  0  0  0
 20 25  1  0  0  0  0
 21 22  1  6  0  0  0
 21 27  1  0  0  0  0
 23 24  1  0  0  0  0
 23 29  1  6  0  0  0
 25 26  1  1  0  0  0
 25 31  1  0  0  0  0
 27 28  1  0  0  0  0
 27 33  1  1  0  0  0
 29 30  1  0  0  0  0
 31 32  1  1  0  0  0
 33 34  1  0  0  0  0
M  END
>  <CHROM.1>
-155.24421282,-162.78941620,-116.59144967,70.66520185,-165.27870945,-56.27826526
57.00702377,51.06735414,-4.86972720,-2.70243122,17.42473026,-1.64953184,0.83000415
-0.09955156

>  <Name>
2o3v_lig

>  <RI>
0

>  <Rbt.Current_Directory>
/home/afrankz/demos/rdock_decoys_rna/rnas/2o3v

>  <Rbt.Executable>
rbdock ($Id: //depot/dev/client3/rdock/2013.1/src/exe/rbdock.cxx#4 $)

>  <Rbt.Library>
libRbt.so (2013.1, Build901 2013/11/27)

>  <Rbt.Parameter_File>
/export/apps/rDock/src/rDock_2013.1_src/data/scripts/dock_solv.prm

>  <Rbt.Receptor>
prm/blind_docking_60.prm

>  <SCORE>
-3.66778

>  <SCORE.INTER>
-10.1692

>  <SCORE.INTER.CONST>
1

>  <SCORE.INTER.POLAR>
-1

>  <SCORE.INTER.ROT>
8

>  <SCORE.INTER.SOLV>
17.7759

>  <SCORE.INTER.VDW>
-18.3048

>  <SCORE.INTER.norm>
-0.290547

>  <SCORE.INTRA>
2.26768

>  <SCORE.INTRA.DIHEDRAL>
-0.0149554

>  <SCORE.INTRA.DIHEDRAL.0>
13.1227

>  <SCORE.INTRA.POLAR>
0

>  <SCORE.INTRA.POLAR.0>
0

>  <SCORE.INTRA.REPUL>
0

>  <SCORE.INTRA.REPUL.0>
0

>  <SCORE.INTRA.SOLV>
2.51147

>  <SCORE.INTRA.SOLV.lig_0>
-89.1587

>  <SCORE.INTRA.VDW>
1.01942

>  <SCORE.INTRA.VDW.0>
-0.838383

>  <SCORE.INTRA.norm>
0.0647908

>  <SCORE.RESTR>
4.2337

>  <SCORE.RESTR.CAVITY>
4.2337

>  <SCORE.RESTR.norm>
0.120963

>  <SCORE.SYSTEM>
0

>  <SCORE.SYSTEM.CONST>
0

>  <SCORE.SYSTEM.DIHEDRAL>
0

>  <SCORE.SYSTEM.SOLV>
0

>  <SCORE.SYSTEM.norm>
0

>  <SCORE.heavy>
35

>  <SCORE.norm>
-0.104794

>  <RMSD>
30.216

$$$$
2o3v_lig
 OpenBabel02141814113D
libRbt.so/2013.1/901 2013/11/27
 35 37  0  0  0  0  0  0  0  0999 V2000
   -4.0011   -4.8983   18.2668 C   0  0  2  0  0  0  0  0  0  0  0  0
   -4.6673   -5.6454   17.2034 O   0  0  0  0  0  0  0  0  0  0  0  0
   -5.7019   -9.4611   19.0192 C   0  0  2  0  0  0  0  0  0  0  0  0
   -6.3135  -10.8092   19.2211 N   0  0  0  0  0  0  0  0  0  0  0  0
   -6.3794    2.9892   16.8603 C   0  0  2  0  0  0  0  0  0  0  0  0
   -6.5181    3.5455   18.1857 O   0  0  0  0  0  0  0  0  0  0  0  0
   -4.5552   -3.4500   18.0830 C   0  0  2  0  0  0  0  0  0  0  0  0
   -6.0324   -3.4227   18.1987 N   0  0  0  0  0  0  0  0  0  0  0  0
   -6.8392   -8.3586   18.8920 C   0  0  0  0  0  0  0  0  0  0  0  0
   -5.7676    1.5537   17.0137 C   0  0  2  0  0  0  0  0  0  0  0  0
   -6.6202    0.7011   17.8803 N   0  0  0  0  0  0  0  0  0  0  0  0
   -4.1147   -2.8291   16.6866 C   0  0  1  0  0  0  0  0  0  0  0  0
   -4.6884   -1.4694   16.5123 O   0  0  0  0  0  0  0  0  0  0  0  0
   -6.1630   -6.9372   18.6665 C   0  0  2  0  0  0  0  0  0  0  0  0
   -7.2056   -5.8971   18.5339 N   0  0  0  0  0  0  0  0  0  0  0  0
   -4.2813    1.6084   17.5816 C   0  0  1  0  0  0  0  0  0  0  0  0
   -3.6780    0.2946   17.7024 O   0  0  0  0  0  0  0  0  0  0  0  0
   -2.5250   -2.8792   16.6233 C   0  0  2  0  0  0  0  0  0  0  0  0
   -2.0385   -2.3659   15.3962 O   0  0  0  0  0  0  0  0  0  0  0  0
   -5.2621   -6.9685   17.3639 C   0  0  2  0  0  0  0  0  0  0  0  0
   -3.4210    2.5020   16.6328 C   0  0  2  0  0  0  0  0  0  0  0  0
   -2.0880    2.5960   17.0952 O   0  0  0  0  0  0  0  0  0  0  0  0
   -2.0091   -4.3542   16.8282 C   0  0  2  0  0  0  0  0  0  0  0  0
   -2.5208   -4.8897   18.1072 O   0  0  0  0  0  0  0  0  0  0  0  0
   -4.1566   -8.0534   17.4942 C   0  0  2  0  0  0  0  0  0  0  0  0
   -3.3975   -8.0521   16.2513 O   0  0  0  0  0  0  0  0  0  0  0  0
   -4.0742    3.9357   16.5026 C   0  0  2  0  0  0  0  0  0  0  0  0
   -5.4716    3.8223   16.0260 O   0  0  0  0  0  0  0  0  0  0  0  0
   -0.4829   -4.4245   16.8091 C   0  0  0  0  0  0  0  0  0  0  0  0
   -0.0381   -5.7551   16.7060 O   0  0  0  0  0  0  0  0  0  0  0  0
   -4.8101   -9.4374   17.7173 C   0  0  1  0  0  0  0  0  0  0  0  0
   -3.7861  -10.4023   17.8378 O   0  0  0  0  0  0  0  0  0  0  0  0
   -3.2932    4.8298   15.5515 C   0  0  0  0  0  0  0  0  0  0  0  0
   -1.9729    4.9979   16.0082 O   0  0  0  0  0  0  0  0  0  0  0  0
   -3.6567   -0.3710   16.4056 C   0  0  0  0  0  0  0  0  0  0  0  0
  1  2  1  6  0  0  0
  1  7  1  0  0  0  0
  1 24  1  0  0  0  0
  3  4  1  6  0  0  0
  3  9  1  0  0  0  0
  3 31  1  0  0  0  0
  5  6  1  1  0  0  0
  5 10  1  0  0  0  0
  5 28  1  0  0  0  0
  7  8  1  6  0  0  0
  7 12  1  0  0  0  0
  9 14  1  0  0  0  0
 10 11  1  1  0  0  0
 10 16  1  0  0  0  0
 12 13  1  1  0  0  0
 12 18  1  0  0  0  0
 13 35  1  0  0  0  0
 14 15  1  6  0  0  0
 14 20  1  0  0  0  0
 16 17  1  6  0  0  0
 16 21  1  0  0  0  0
 17 35  1  0  0  0  0
 18 19  1  6  0  0  0
 18 23  1  0  0  0  0
 20  2  1  1  0  0  0
 20 25  1  0  0  0  0
 21 22  1  1  0  0  0
 21 27  1  0  0  0  0
 23 24  1  0  0  0  0
 23 29  1  1  0  0  0
 25 26  1  6  0  0  0
 25 31  1  0  0  0  0
 27 28  1  0  0  0  0
 27 33  1  6  0  0  0
 29 30  1  0  0  0  0
 31 32  1  1  0  0  0
 33 34  1  0  0  0  0
M  END
>  <CHROM.1>
-136.42019747,117.21149578,-103.98146735,58.43560957,-108.71617327,48.11073985
-167.44550912,-59.91319240,-4.19644952,-2.74274647,17.28827400,-1.61705860
0.31305797,-0.10045676

>  <Name>
2o3v_lig

>  <RI>
0

>  <Rbt.Current_Directory>
/home/afrankz/demos/rdock_decoys_rna/rnas/2o3v

>  <Rbt.Executable>
rbdock ($Id: //depot/dev/client3/rdock/2013.1/src/exe/rbdock.cxx#4 $)

>  <Rbt.Library>
libRbt.so (2013.1, Build901 2013/11/27)

>  <Rbt.Parameter_File>
/export/apps/rDock/src/rDock_2013.1_src/data/scripts/dock_solv.prm

>  <Rbt.Receptor>
prm/blind_docking_80.prm

>  <SCORE>
-4.08602

>  <SCORE.INTER>
-18.0675

>  <SCORE.INTER.CONST>
1

>  <SCORE.INTER.POLAR>
-2.39817

>  <SCORE.INTER.ROT>
8

>  <SCORE.INTER.SOLV>
19.6468

>  <SCORE.INTER.VDW>
-19.5334

>  <SCORE.INTER.norm>
-0.516214

>  <SCORE.INTRA>
11.4641

>  <SCORE.INTRA.DIHEDRAL>
13.8415

>  <SCORE.INTRA.DIHEDRAL.0>
13.1227

>  <SCORE.INTRA.POLAR>
0

>  <SCORE.INTRA.POLAR.0>
0

>  <SCORE.INTRA.REPUL>
0

>  <SCORE.INTRA.REPUL.0>
0

>  <SCORE.INTRA.SOLV>
3.98745

>  <SCORE.INTRA.SOLV.lig_0>
-89.1587

>  <SCORE.INTRA.VDW>
2.54964

>  <SCORE.INTRA.VDW.0>
-0.838383

>  <SCORE.INTRA.norm>
0.327546

>  <SCORE.RESTR>
2.51736

>  <SCORE.RESTR.CAVITY>
2.51736

>  <SCORE.RESTR.norm>
0.0719245

>  <SCORE.SYSTEM>
0

>  <SCORE.SYSTEM.CONST>
0

>  <SCORE.SYSTEM.DIHEDRAL>
0

>  <SCORE.SYSTEM.SOLV>
0

>  <SCORE.SYSTEM.norm>
0

>  <SCORE.heavy>
35

>  <SCORE.norm>
-0.116743

>  <RMSD>
30.219

$$$$
2o3v_lig
 OpenBabel02141814113D
libRbt.so/2013.1/901 2013/11/27
 35 37  0  0  0  0  0  0  0  0999 V2000
   -4.9741    5.5382   18.8512 C   0  0  2  0  0  0  0  0  0  0  0  0
   -4.7531    5.1627   20.2451 O   0  0  0  0  0  0  0  0  0  0  0  0
   -6.5818    7.0223   23.7272 C   0  0  2  0  0  0  0  0  0  0  0  0
   -7.5428    7.3054   24.8356 N   0  0  0  0  0  0  0  0  0  0  0  0
   -4.1497   -2.3866   14.8840 C   0  0  2  0  0  0  0  0  0  0  0  0
   -3.2459   -1.8060   13.9187 O   0  0  0  0  0  0  0  0  0  0  0  0
   -5.1179    4.1599   18.1315 C   0  0  2  0  0  0  0  0  0  0  0  0
   -6.2374    3.3726   18.7002 N   0  0  0  0  0  0  0  0  0  0  0  0
   -7.3040    7.1902   22.3216 C   0  0  0  0  0  0  0  0  0  0  0  0
   -4.3343   -1.3457   16.0419 C   0  0  2  0  0  0  0  0  0  0  0  0
   -4.8455   -0.0531   15.5196 N   0  0  0  0  0  0  0  0  0  0  0  0
   -3.7725    3.3156   18.2127 C   0  0  1  0  0  0  0  0  0  0  0  0
   -3.9438    1.9910   17.5614 O   0  0  0  0  0  0  0  0  0  0  0  0
   -6.2642    6.8726   21.1613 C   0  0  2  0  0  0  0  0  0  0  0  0
   -6.9199    7.0119   19.8434 N   0  0  0  0  0  0  0  0  0  0  0  0
   -2.9799   -1.1201   16.8478 C   0  0  1  0  0  0  0  0  0  0  0  0
   -3.1301   -0.1857   17.9473 O   0  0  0  0  0  0  0  0  0  0  0  0
   -2.6127    4.2063   17.5840 C   0  0  2  0  0  0  0  0  0  0  0  0
   -1.3630    3.5418   17.6353 O   0  0  0  0  0  0  0  0  0  0  0  0
   -5.6987    5.4026   21.3307 C   0  0  2  0  0  0  0  0  0  0  0  0
   -2.4893   -2.5007   17.3882 C   0  0  2  0  0  0  0  0  0  0  0  0
   -1.2790   -2.3632   18.1065 O   0  0  0  0  0  0  0  0  0  0  0  0
   -2.5129    5.5914   18.3290 C   0  0  2  0  0  0  0  0  0  0  0  0
   -3.8187    6.2819   18.2780 O   0  0  0  0  0  0  0  0  0  0  0  0
   -4.9997    5.2454   22.7102 C   0  0  2  0  0  0  0  0  0  0  0  0
   -4.5429    3.8662   22.8114 O   0  0  0  0  0  0  0  0  0  0  0  0
   -2.3209   -3.5198   16.1914 C   0  0  2  0  0  0  0  0  0  0  0  0
   -3.5923   -3.6479   15.4430 O   0  0  0  0  0  0  0  0  0  0  0  0
   -1.4304    6.4815   17.7200 C   0  0  0  0  0  0  0  0  0  0  0  0
   -0.9340    7.3958   18.6668 O   0  0  0  0  0  0  0  0  0  0  0  0
   -6.0067    5.5570   23.8419 C   0  0  1  0  0  0  0  0  0  0  0  0
   -5.3464    5.4126   25.0818 O   0  0  0  0  0  0  0  0  0  0  0  0
   -1.8854   -4.8947   16.6751 C   0  0  0  0  0  0  0  0  0  0  0  0
   -2.9133   -5.5014   17.4202 O   0  0  0  0  0  0  0  0  0  0  0  0
   -2.6928    1.1444   17.5412 C   0  0  0  0  0  0  0  0  0  0  0  0
  1  2  1  1  0  0  0
  1  7  1  0  0  0  0
  1 24  1  0  0  0  0
  3  4  1  1  0  0  0
  3  9  1  0  0  0  0
  3 31  1  0  0  0  0
  5  6  1  6  0  0  0
  5 10  1  0  0  0  0
  5 28  1  0  0  0  0
  7  8  1  1  0  0  0
  7 12  1  0  0  0  0
  9 14  1  0  0  0  0
 10 11  1  6  0  0  0
 10 16  1  0  0  0  0
 12 13  1  6  0  0  0
 12 18  1  0  0  0  0
 13 35  1  0  0  0  0
 14 15  1  6  0  0  0
 14 20  1  0  0  0  0
 16 17  1  1  0  0  0
 16 21  1  0  0  0  0
 17 35  1  0  0  0  0
 18 19  1  1  0  0  0
 18 23  1  0  0  0  0
 20  2  1  6  0  0  0
 20 25  1  0  0  0  0
 21 22  1  6  0  0  0
 21 27  1  0  0  0  0
 23 24  1  0  0  0  0
 23 29  1  6  0  0  0
 25 26  1  1  0  0  0
 25 31  1  0  0  0  0
 27 28  1  0  0  0  0
 27 33  1  1  0  0  0
 29 30  1  0  0  0  0
 31 32  1  1  0  0  0
 33 34  1  0  0  0  0
M  END
>  <CHROM.1>
-111.93420119,177.52808769,134.68892828,-97.28855442,113.91044294,-43.49091381
-153.93359158,67.65331674,-4.02502040,2.51464696,18.88195703,-2.05875803
-1.04046784,-3.00983397

>  <Name>
2o3v_lig

>  <RI>
0

>  <Rbt.Current_Directory>
/home/afrankz/demos/rdock_decoys_rna/rnas/2o3v

>  <Rbt.Executable>
rbdock ($Id: //depot/dev/client3/rdock/2013.1/src/exe/rbdock.cxx#4 $)

>  <Rbt.Library>
libRbt.so (2013.1, Build901 2013/11/27)

>  <Rbt.Parameter_File>
/export/apps/rDock/src/rDock_2013.1_src/data/scripts/dock_solv.prm

>  <Rbt.Receptor>
prm/blind_docking_40.prm

>  <SCORE>
27.7054

>  <SCORE.INTER>
12.9239

>  <SCORE.INTER.CONST>
1

>  <SCORE.INTER.POLAR>
-1.19085

>  <SCORE.INTER.ROT>
8

>  <SCORE.INTER.SOLV>
29.0786

>  <SCORE.INTER.VDW>
-6.04074

>  <SCORE.INTER.norm>
0.369255

>  <SCORE.INTRA>
9.18848

>  <SCORE.INTRA.DIHEDRAL>
15.534

>  <SCORE.INTRA.DIHEDRAL.0>
13.1227

>  <SCORE.INTRA.POLAR>
0

>  <SCORE.INTRA.POLAR.0>
0

>  <SCORE.INTRA.REPUL>
0

>  <SCORE.INTRA.REPUL.0>
0

>  <SCORE.INTRA.SOLV>
2.62752

>  <SCORE.INTRA.SOLV.lig_0>
-89.1587

>  <SCORE.INTRA.VDW>
0.10773

>  <SCORE.INTRA.VDW.0>
-0.838383

>  <SCORE.INTRA.norm>
0.262528

>  <SCORE.RESTR>
5.59302

>  <SCORE.RESTR.CAVITY>
5.59302

>  <SCORE.RESTR.norm>
0.159801

>  <SCORE.SYSTEM>
0

>  <SCORE.SYSTEM.CONST>
0

>  <SCORE.SYSTEM.DIHEDRAL>
0

>  <SCORE.SYSTEM.SOLV>
0

>  <SCORE.SYSTEM.norm>
0

>  <SCORE.heavy>
35

>  <SCORE.norm>
0.791584

>  <RMSD>
30.238

$$$$
2o3v_lig
 OpenBabel02141814113D
libRbt.so/2013.1/901 2013/11/27
 35 37  0  0  0  0  0  0  0  0999 V2000
   -3.8348   -5.8423   18.0988 C   0  0  2  0  0  0  0  0  0  0  0  0
   -5.1782   -5.8158   18.6709 O   0  0  0  0  0  0  0  0  0  0  0  0
   -7.5687   -9.0484   20.3331 C   0  0  2  0  0  0  0  0  0  0  0  0
   -8.5048  -10.2092   20.4253 N   0  0  0  0  0  0  0  0  0  0  0  0
   -3.7503    3.4098   15.2913 C   0  0  2  0  0  0  0  0  0  0  0  0
   -4.4805    2.9229   14.1444 O   0  0  0  0  0  0  0  0  0  0  0  0
   -3.3414   -4.3725   18.2849 C   0  0  2  0  0  0  0  0  0  0  0  0
   -3.3509   -3.9809   19.7142 N   0  0  0  0  0  0  0  0  0  0  0  0
   -8.3265   -7.7805   19.7472 C   0  0  0  0  0  0  0  0  0  0  0  0
   -3.3676    2.1675   16.1680 C   0  0  2  0  0  0  0  0  0  0  0  0
   -2.5714    1.1883   15.3857 N   0  0  0  0  0  0  0  0  0  0  0  0
   -4.2216   -3.3501   17.4425 C   0  0  1  0  0  0  0  0  0  0  0  0
   -3.7643   -1.9542   17.6678 O   0  0  0  0  0  0  0  0  0  0  0  0
   -7.3066   -6.5645   19.6486 C   0  0  2  0  0  0  0  0  0  0  0  0
   -7.9896   -5.3761   19.0941 N   0  0  0  0  0  0  0  0  0  0  0  0
   -4.6573    1.4659   16.7838 C   0  0  1  0  0  0  0  0  0  0  0  0
   -4.3303    0.3320   17.6277 O   0  0  0  0  0  0  0  0  0  0  0  0
   -4.1680   -3.8163   15.9215 C   0  0  2  0  0  0  0  0  0  0  0  0
   -4.9487   -2.9736   15.0931 O   0  0  0  0  0  0  0  0  0  0  0  0
   -6.0804   -6.9617   18.7278 C   0  0  2  0  0  0  0  0  0  0  0  0
   -5.4534    2.5277   17.6070 C   0  0  2  0  0  0  0  0  0  0  0  0
   -6.6199    1.9616   18.1712 O   0  0  0  0  0  0  0  0  0  0  0  0
   -4.6591   -5.3073   15.7820 C   0  0  2  0  0  0  0  0  0  0  0  0
   -3.8460   -6.1848   16.6500 O   0  0  0  0  0  0  0  0  0  0  0  0
   -5.3489   -8.2060   19.3047 C   0  0  2  0  0  0  0  0  0  0  0  0
   -4.2643   -8.5355   18.3902 O   0  0  0  0  0  0  0  0  0  0  0  0
   -5.8145    3.7627   16.6886 C   0  0  2  0  0  0  0  0  0  0  0  0
   -4.5856    4.3403   16.0978 O   0  0  0  0  0  0  0  0  0  0  0  0
   -4.5823   -5.7923   14.3350 C   0  0  0  0  0  0  0  0  0  0  0  0
   -3.2763   -5.6676   13.8273 O   0  0  0  0  0  0  0  0  0  0  0  0
   -6.3384   -9.3904   19.4056 C   0  0  1  0  0  0  0  0  0  0  0  0
   -5.6516  -10.5042   19.9365 O   0  0  0  0  0  0  0  0  0  0  0  0
   -6.5542    4.8452   17.4599 C   0  0  0  0  0  0  0  0  0  0  0  0
   -5.7336    5.3740   18.4733 O   0  0  0  0  0  0  0  0  0  0  0  0
   -4.5501   -0.9142   16.9040 C   0  0  0  0  0  0  0  0  0  0  0  0
  1  2  1  6  0  0  0
  1  7  1  0  0  0  0
  1 24  1  0  0  0  0
  3  4  1  6  0  0  0
  3  9  1  0  0  0  0
  3 31  1  0  0  0  0
  5  6  1  6  0  0  0
  5 10  1  0  0  0  0
  5 28  1  0  0  0  0
  7  8  1  1  0  0  0
  7 12  1  0  0  0  0
  9 14  1  0  0  0  0
 10 11  1  6  0  0  0
 10 16  1  0  0  0  0
 12 13  1  6  0  0  0
 12 18  1  0  0  0  0
 13 35  1  0  0  0  0
 14 15  1  6  0  0  0
 14 20  1  0  0  0  0
 16 17  1  1  0  0  0
 16 21  1  0  0  0  0
 17 35  1  0  0  0  0
 18 19  1  6  0  0  0
 18 23  1  0  0  0  0
 20  2  1  1  0  0  0
 20 25  1  0  0  0  0
 21 22  1  6  0  0  0
 21 27  1  0  0  0  0
 23 24  1  0  0  0  0
 23 29  1  6  0  0  0
 25 26  1  6  0  0  0
 25 31  1  0  0  0  0
 27 28  1  0  0  0  0
 27 33  1  1  0  0  0
 29 30  1  0  0  0  0
 31 32  1  1  0  0  0
 33 34  1  0  0  0  0
M  END
>  <CHROM.1>
179.33047602,-179.92895080,158.28775691,-101.54635146,161.55746268,169.99657837
56.87159318,63.50462975,-5.09785343,-2.93283107,17.49562437,-1.73138197,0.86853214
-0.08411954

>  <Name>
2o3v_lig

>  <RI>
0

>  <Rbt.Current_Directory>
/home/afrankz/demos/rdock_decoys_rna/rnas/2o3v

>  <Rbt.Executable>
rbdock ($Id: //depot/dev/client3/rdock/2013.1/src/exe/rbdock.cxx#4 $)

>  <Rbt.Library>
libRbt.so (2013.1, Build901 2013/11/27)

>  <Rbt.Parameter_File>
/export/apps/rDock/src/rDock_2013.1_src/data/scripts/dock_solv.prm

>  <Rbt.Receptor>
prm/blind_docking_40.prm

>  <SCORE>
-6.81445

>  <SCORE.INTER>
-7.14485

>  <SCORE.INTER.CONST>
1

>  <SCORE.INTER.POLAR>
-0.34098

>  <SCORE.INTER.ROT>
8

>  <SCORE.INTER.SOLV>
16.1623

>  <SCORE.INTER.VDW>
-17.9474

>  <SCORE.INTER.norm>
-0.204138

>  <SCORE.INTRA>
-2.73585

>  <SCORE.INTRA.DIHEDRAL>
-3.2286

>  <SCORE.INTRA.DIHEDRAL.0>
13.1227

>  <SCORE.INTRA.POLAR>
0

>  <SCORE.INTRA.POLAR.0>
0

>  <SCORE.INTRA.REPUL>
0

>  <SCORE.INTRA.REPUL.0>
0

>  <SCORE.INTRA.SOLV>
-0.70668

>  <SCORE.INTRA.SOLV.lig_0>
-89.1587

>  <SCORE.INTRA.VDW>
-0.768214

>  <SCORE.INTRA.VDW.0>
-0.838383

>  <SCORE.INTRA.norm>
-0.0781672

>  <SCORE.RESTR>
3.06625

>  <SCORE.RESTR.CAVITY>
3.06625

>  <SCORE.RESTR.norm>
0.0876071

>  <SCORE.SYSTEM>
0

>  <SCORE.SYSTEM.CONST>
0

>  <SCORE.SYSTEM.DIHEDRAL>
0

>  <SCORE.SYSTEM.SOLV>
0

>  <SCORE.SYSTEM.norm>
0

>  <SCORE.heavy>
35

>  <SCORE.norm>
-0.194699

>  <RMSD>
30.283

$$$$
2o3v_lig
 OpenBabel02141814113D
libRbt.so/2013.1/901 2013/11/27
 35 37  0  0  0  0  0  0  0  0999 V2000
   -4.5163    2.9252   16.1313 C   0  0  2  0  0  0  0  0  0  0  0  0
   -4.2411    2.0406   17.2603 O   0  0  0  0  0  0  0  0  0  0  0  0
   -3.5392   -1.8742   15.4971 C   0  0  2  0  0  0  0  0  0  0  0  0
   -3.1009   -3.2937   15.3392 N   0  0  0  0  0  0  0  0  0  0  0  0
   -3.9305    6.8068   23.6218 C   0  0  2  0  0  0  0  0  0  0  0  0
   -3.8550    8.2195   23.9119 O   0  0  0  0  0  0  0  0  0  0  0  0
   -4.7682    4.3058   16.8161 C   0  0  2  0  0  0  0  0  0  0  0  0
   -3.5914    4.7334   17.6089 N   0  0  0  0  0  0  0  0  0  0  0  0
   -2.2829   -0.9425   15.7783 C   0  0  0  0  0  0  0  0  0  0  0  0
   -4.1120    6.6534   22.0720 C   0  0  2  0  0  0  0  0  0  0  0  0
   -2.9981    7.3057   21.3381 N   0  0  0  0  0  0  0  0  0  0  0  0
   -6.0576    4.2695   17.7464 C   0  0  1  0  0  0  0  0  0  0  0  0
   -6.2541    5.5781   18.4225 O   0  0  0  0  0  0  0  0  0  0  0  0
   -2.7773    0.5586   15.9536 C   0  0  2  0  0  0  0  0  0  0  0  0
   -1.6235    1.4417   16.2280 N   0  0  0  0  0  0  0  0  0  0  0  0
   -5.5114    7.2366   21.5859 C   0  0  1  0  0  0  0  0  0  0  0  0
   -5.7205    7.0776   20.1591 O   0  0  0  0  0  0  0  0  0  0  0  0
   -7.2849    3.8120   16.8418 C   0  0  2  0  0  0  0  0  0  0  0  0
   -8.4810    3.7265   17.5954 O   0  0  0  0  0  0  0  0  0  0  0  0
   -3.8207    0.6480   17.1421 C   0  0  2  0  0  0  0  0  0  0  0  0
   -6.6498    6.5131   22.3728 C   0  0  2  0  0  0  0  0  0  0  0  0
   -7.9206    7.0000   21.9885 O   0  0  0  0  0  0  0  0  0  0  0  0
   -6.9823    2.4241   16.1593 C   0  0  2  0  0  0  0  0  0  0  0  0
   -5.7319    2.5138   15.3765 O   0  0  0  0  0  0  0  0  0  0  0  0
   -5.0429   -0.2707   16.8619 C   0  0  2  0  0  0  0  0  0  0  0  0
   -5.9355   -0.1686   18.0081 O   0  0  0  0  0  0  0  0  0  0  0  0
   -6.4265    6.6884   23.9280 C   0  0  2  0  0  0  0  0  0  0  0  0
   -5.0897    6.1827   24.3152 O   0  0  0  0  0  0  0  0  0  0  0  0
   -8.1308    1.9793   15.2548 C   0  0  0  0  0  0  0  0  0  0  0  0
   -9.2187    1.5079   16.0117 O   0  0  0  0  0  0  0  0  0  0  0  0
   -4.5660   -1.7316   16.6871 C   0  0  1  0  0  0  0  0  0  0  0  0
   -5.6925   -2.5429   16.4286 O   0  0  0  0  0  0  0  0  0  0  0  0
   -7.4893    5.9618   24.7383 C   0  0  0  0  0  0  0  0  0  0  0  0
   -8.7757    6.3277   24.3010 O   0  0  0  0  0  0  0  0  0  0  0  0
   -5.6155    5.6716   19.7884 C   0  0  0  0  0  0  0  0  0  0  0  0
  1  2  1  1  0  0  0
  1  7  1  0  0  0  0
  1 24  1  0  0  0  0
  3  4  1  1  0  0  0
  3  9  1  0  0  0  0
  3 31  1  0  0  0  0
  5  6  1  6  0  0  0
  5 10  1  0  0  0  0
  5 28  1  0  0  0  0
  7  8  1  1  0  0  0
  7 12  1  0  0  0  0
  9 14  1  0  0  0  0
 10 11  1  6  0  0  0
 10 16  1  0  0  0  0
 12 13  1  6  0  0  0
 12 18  1  0  0  0  0
 13 35  1  0  0  0  0
 14 15  1  1  0  0  0
 14 20  1  0  0  0  0
 16 17  1  6  0  0  0
 16 21  1  0  0  0  0
 17 35  1  0  0  0  0
 18 19  1  1  0  0  0
 18 23  1  0  0  0  0
 20  2  1  6  0  0  0
 20 25  1  0  0  0  0
 21 22  1  6  0  0  0
 21 27  1  0  0  0  0
 23 24  1  0  0  0  0
 23 29  1  6  0  0  0
 25 26  1  1  0  0  0
 25 31  1  0  0  0  0
 27 28  1  0  0  0  0
 27 33  1  1  0  0  0
 29 30  1  0  0  0  0
 31 32  1  6  0  0  0
 33 34  1  0  0  0  0
M  END
>  <CHROM.1>
-174.18924062,-92.68160784,170.28282521,56.90078387,163.12910583,40.53532450
-75.36668834,-51.95483370,-5.42284809,3.43857170,18.87337629,-1.44158829
-0.19720217,0.79213663

>  <Name>
2o3v_lig

>  <RI>
0

>  <Rbt.Current_Directory>
/home/afrankz/demos/rdock_decoys_rna/rnas/2o3v

>  <Rbt.Executable>
rbdock ($Id: //depot/dev/client3/rdock/2013.1/src/exe/rbdock.cxx#4 $)

>  <Rbt.Library>
libRbt.so (2013.1, Build901 2013/11/27)

>  <Rbt.Parameter_File>
/export/apps/rDock/src/rDock_2013.1_src/data/scripts/dock_solv.prm

>  <Rbt.Receptor>
prm/blind_docking_40.prm

>  <SCORE>
11.9943

>  <SCORE.INTER>
8.6716

>  <SCORE.INTER.CONST>
1

>  <SCORE.INTER.POLAR>
-0.642414

>  <SCORE.INTER.ROT>
8

>  <SCORE.INTER.SOLV>
29.8312

>  <SCORE.INTER.VDW>
-10.9546

>  <SCORE.INTER.norm>
0.24776

>  <SCORE.INTRA>
-1.50395

>  <SCORE.INTRA.DIHEDRAL>
-4.24533

>  <SCORE.INTRA.DIHEDRAL.0>
13.1227

>  <SCORE.INTRA.POLAR>
0

>  <SCORE.INTRA.POLAR.0>
0

>  <SCORE.INTRA.REPUL>
0

>  <SCORE.INTRA.REPUL.0>
0

>  <SCORE.INTRA.SOLV>
1.29545

>  <SCORE.INTRA.SOLV.lig_0>
-89.1587

>  <SCORE.INTRA.VDW>
-0.0290128

>  <SCORE.INTRA.VDW.0>
-0.838383

>  <SCORE.INTRA.norm>
-0.04297

>  <SCORE.RESTR>
4.82661

>  <SCORE.RESTR.CAVITY>
4.82661

>  <SCORE.RESTR.norm>
0.137903

>  <SCORE.SYSTEM>
0

>  <SCORE.SYSTEM.CONST>
0

>  <SCORE.SYSTEM.DIHEDRAL>
0

>  <SCORE.SYSTEM.SOLV>
0

>  <SCORE.SYSTEM.norm>
0

>  <SCORE.heavy>
35

>  <SCORE.norm>
0.342693

>  <RMSD>
30.285

$$$$
2o3v_lig
 OpenBabel02141814113D
libRbt.so/2013.1/901 2013/11/27
 35 37  0  0  0  0  0  0  0  0999 V2000
   -4.2757    0.6615   16.1683 C   0  0  2  0  0  0  0  0  0  0  0  0
   -4.1928   -0.1418   17.3851 O   0  0  0  0  0  0  0  0  0  0  0  0
   -2.3334   -3.9517   16.4083 C   0  0  2  0  0  0  0  0  0  0  0  0
   -1.9991   -5.4077   16.4342 N   0  0  0  0  0  0  0  0  0  0  0  0
   -4.7070    7.2950   22.8677 C   0  0  2  0  0  0  0  0  0  0  0  0
   -4.9742    6.0646   23.5751 O   0  0  0  0  0  0  0  0  0  0  0  0
   -3.9702    2.1063   16.6761 C   0  0  2  0  0  0  0  0  0  0  0  0
   -2.6386    2.1766   17.3228 N   0  0  0  0  0  0  0  0  0  0  0  0
   -1.9887   -3.2869   17.8099 C   0  0  0  0  0  0  0  0  0  0  0  0
   -5.4188    7.2009   21.4739 C   0  0  2  0  0  0  0  0  0  0  0  0
   -6.8761    6.9657   21.6348 N   0  0  0  0  0  0  0  0  0  0  0  0
   -5.0858    2.6177   17.6878 C   0  0  1  0  0  0  0  0  0  0  0  0
   -4.7537    3.9752   18.1929 O   0  0  0  0  0  0  0  0  0  0  0  0
   -2.3641   -1.7425   17.7594 C   0  0  2  0  0  0  0  0  0  0  0  0
   -2.0616   -1.1064   19.0595 N   0  0  0  0  0  0  0  0  0  0  0  0
   -4.7726    6.0672   20.5618 C   0  0  1  0  0  0  0  0  0  0  0  0
   -5.3907    5.9805   19.2522 O   0  0  0  0  0  0  0  0  0  0  0  0
   -6.4869    2.5256   16.9380 C   0  0  2  0  0  0  0  0  0  0  0  0
   -7.5512    2.9404   17.7753 O   0  0  0  0  0  0  0  0  0  0  0  0
   -3.9017   -1.5716   17.4191 C   0  0  2  0  0  0  0  0  0  0  0  0
   -3.2469    6.3636   20.4097 C   0  0  2  0  0  0  0  0  0  0  0  0
   -2.6158    5.3791   19.6147 O   0  0  0  0  0  0  0  0  0  0  0  0
   -6.7473    1.0566   16.4300 C   0  0  2  0  0  0  0  0  0  0  0  0
   -5.6339    0.6238   15.5596 O   0  0  0  0  0  0  0  0  0  0  0  0
   -4.2313   -2.2299   16.0500 C   0  0  2  0  0  0  0  0  0  0  0  0
   -5.6610   -2.0697   15.8235 O   0  0  0  0  0  0  0  0  0  0  0  0
   -2.5701    6.4546   21.8355 C   0  0  2  0  0  0  0  0  0  0  0  0
   -3.2456    7.4826   22.6601 O   0  0  0  0  0  0  0  0  0  0  0  0
   -8.0704    0.9489   15.6734 C   0  0  0  0  0  0  0  0  0  0  0  0
   -8.2495    2.0428   14.8072 O   0  0  0  0  0  0  0  0  0  0  0  0
   -3.8642   -3.7318   16.0935 C   0  0  1  0  0  0  0  0  0  0  0  0
   -4.1675   -4.3038   14.8386 O   0  0  0  0  0  0  0  0  0  0  0  0
   -1.0886    6.7860   21.7393 C   0  0  0  0  0  0  0  0  0  0  0  0
   -0.9062    8.0582   21.1665 O   0  0  0  0  0  0  0  0  0  0  0  0
   -5.8536    4.6208   19.0028 C   0  0  0  0  0  0  0  0  0  0  0  0
  1  2  1  1  0  0  0
  1  7  1  0  0  0  0
  1 24  1  0  0  0  0
  3  4  1  1  0  0  0
  3  9  1  0  0  0  0
  3 31  1  0  0  0  0
  5  6  1  1  0  0  0
  5 10  1  0  0  0  0
  5 28  1  0  0  0  0
  7  8  1  1  0  0  0
  7 12  1  0  0  0  0
  9 14  1  0  0  0  0
 10 11  1  1  0  0  0
 10 16  1  0  0  0  0
 12 13  1  6  0  0  0
 12 18  1  0  0  0  0
 13 35  1  0  0  0  0
 14 15  1  1  0  0  0
 14 20  1  0  0  0  0
 16 17  1  6  0  0  0
 16 21  1  0  0  0  0
 17 35  1  0  0  0  0
 18 19  1  1  0  0  0
 18 23  1  0  0  0  0
 20  2  1  6  0  0  0
 20 25  1  0  0  0  0
 21 22  1  6  0  0  0
 21 27  1  0  0  0  0
 23 24  1  0  0  0  0
 23 29  1  6  0  0  0
 25 26  1  1  0  0  0
 25 31  1  0  0  0  0
 27 28  1  0  0  0  0
 27 33  1  6  0  0  0
 29 30  1  0  0  0  0
 31 32  1  6  0  0  0
 33 34  1  0  0  0  0
M  END
>  <CHROM.1>
-155.86922195,171.63984301,-173.27961389,-125.26779142,-96.95487112,98.82835710
42.62949352,63.39725946,-4.36307149,2.24191747,18.40483418,1.58168876,0.49410318
-2.63158761

>  <Name>
2o3v_lig

>  <RI>
0

>  <Rbt.Current_Directory>
/home/afrankz/demos/rdock_decoys_rna/rnas/2o3v

>  <Rbt.Executable>
rbdock ($Id: //depot/dev/client3/rdock/2013.1/src/exe/rbdock.cxx#4 $)

>  <Rbt.Library>
libRbt.so (2013.1, Build901 2013/11/27)

>  <Rbt.Parameter_File>
/export/apps/rDock/src/rDock_2013.1_src/data/scripts/dock_solv.prm

>  <Rbt.Receptor>
prm/blind_docking_100.prm

>  <SCORE>
52.3709

>  <SCORE.INTER>
41.9635

>  <SCORE.INTER.CONST>
1

>  <SCORE.INTER.POLAR>
-1.56487

>  <SCORE.INTER.ROT>
8

>  <SCORE.INTER.SOLV>
29.4225

>  <SCORE.INTER.VDW>
14.4511

>  <SCORE.INTER.norm>
1.19896

>  <SCORE.INTRA>
4.31069

>  <SCORE.INTRA.DIHEDRAL>
8.1776

>  <SCORE.INTRA.DIHEDRAL.0>
13.1227

>  <SCORE.INTRA.POLAR>
0

>  <SCORE.INTRA.POLAR.0>
0

>  <SCORE.INTRA.REPUL>
0

>  <SCORE.INTRA.REPUL.0>
0

>  <SCORE.INTRA.SOLV>
1.39647

>  <SCORE.INTRA.SOLV.lig_0>
-89.1587

>  <SCORE.INTRA.VDW>
-0.476339

>  <SCORE.INTRA.VDW.0>
-0.838383

>  <SCORE.INTRA.norm>
0.123163

>  <SCORE.RESTR>
6.09672

>  <SCORE.RESTR.CAVITY>
6.09672

>  <SCORE.RESTR.norm>
0.174192

>  <SCORE.SYSTEM>
0

>  <SCORE.SYSTEM.CONST>
0

>  <SCORE.SYSTEM.DIHEDRAL>
0

>  <SCORE.SYSTEM.SOLV>
0

>  <SCORE.SYSTEM.norm>
0

>  <SCORE.heavy>
35

>  <SCORE.norm>
1.49631

>  <RMSD>
30.286

$$$$
2o3v_lig
 OpenBabel02141814113D
libRbt.so/2013.1/901 2013/11/27
 35 37  0  0  0  0  0  0  0  0999 V2000
   -4.6105    5.1723   18.3717 C   0  0  2  0  0  0  0  0  0  0  0  0
   -4.7533    4.7794   19.7710 O   0  0  0  0  0  0  0  0  0  0  0  0
   -6.5597    6.7712   23.1910 C   0  0  2  0  0  0  0  0  0  0  0  0
   -6.7487    7.6972   24.3482 N   0  0  0  0  0  0  0  0  0  0  0  0
   -4.7508   -2.9704   15.9773 C   0  0  2  0  0  0  0  0  0  0  0  0
   -4.4511   -2.4311   14.6716 O   0  0  0  0  0  0  0  0  0  0  0  0
   -4.2418    3.8307   17.6628 C   0  0  2  0  0  0  0  0  0  0  0  0
   -5.2949    2.8086   17.8692 N   0  0  0  0  0  0  0  0  0  0  0  0
   -5.3125    5.8210   23.4496 C   0  0  0  0  0  0  0  0  0  0  0  0
   -4.5760   -1.8102   17.0174 C   0  0  2  0  0  0  0  0  0  0  0  0
   -5.4534   -0.6595   16.6842 N   0  0  0  0  0  0  0  0  0  0  0  0
   -2.8423    3.2688   18.1678 C   0  0  1  0  0  0  0  0  0  0  0  0
   -2.5312    1.9708   17.5147 O   0  0  0  0  0  0  0  0  0  0  0  0
   -5.1265    4.8551   22.2002 C   0  0  2  0  0  0  0  0  0  0  0  0
   -3.9625    3.9690   22.4156 N   0  0  0  0  0  0  0  0  0  0  0  0
   -3.0588   -1.3382   17.1185 C   0  0  1  0  0  0  0  0  0  0  0  0
   -2.8623   -0.2871   18.0989 O   0  0  0  0  0  0  0  0  0  0  0  0
   -1.7545    4.4031   17.9152 C   0  0  2  0  0  0  0  0  0  0  0  0
   -0.4717    3.9996   18.3596 O   0  0  0  0  0  0  0  0  0  0  0  0
   -4.9184    5.7101   20.8831 C   0  0  2  0  0  0  0  0  0  0  0  0
   -2.1784   -2.5753   17.4834 C   0  0  2  0  0  0  0  0  0  0  0  0
   -0.8138   -2.2169   17.5767 O   0  0  0  0  0  0  0  0  0  0  0  0
   -2.1732    5.7415   18.6344 C   0  0  2  0  0  0  0  0  0  0  0  0
   -3.5136    6.1592   18.1726 O   0  0  0  0  0  0  0  0  0  0  0  0
   -6.1396    6.6408   20.6413 C   0  0  2  0  0  0  0  0  0  0  0  0
   -5.8615    7.4205   19.4430 O   0  0  0  0  0  0  0  0  0  0  0  0
   -2.3877   -3.7209   16.4142 C   0  0  2  0  0  0  0  0  0  0  0  0
   -3.8212   -4.0805   16.3205 O   0  0  0  0  0  0  0  0  0  0  0  0
   -1.1633    6.8588   18.3767 C   0  0  0  0  0  0  0  0  0  0  0  0
   -1.0021    7.0883   16.9982 O   0  0  0  0  0  0  0  0  0  0  0  0
   -6.3263    7.5798   21.8559 C   0  0  1  0  0  0  0  0  0  0  0  0
   -7.4432    8.4093   21.6137 O   0  0  0  0  0  0  0  0  0  0  0  0
   -1.5817   -4.9658   16.7525 C   0  0  0  0  0  0  0  0  0  0  0  0
   -0.2073   -4.7255   16.5701 O   0  0  0  0  0  0  0  0  0  0  0  0
   -3.5918    0.9119   17.7049 C   0  0  0  0  0  0  0  0  0  0  0  0
  1  2  1  1  0  0  0
  1  7  1  0  0  0  0
  1 24  1  0  0  0  0
  3  4  1  1  0  0  0
  3  9  1  0  0  0  0
  3 31  1  0  0  0  0
  5  6  1  6  0  0  0
  5 10  1  0  0  0  0
  5 28  1  0  0  0  0
  7  8  1  1  0  0  0
  7 12  1  0  0  0  0
  9 14  1  0  0  0  0
 10 11  1  6  0  0  0
 10 16  1  0  0  0  0
 12 13  1  6  0  0  0
 12 18  1  0  0  0  0
 13 35  1  0  0  0  0
 14 15  1  1  0  0  0
 14 20  1  0  0  0  0
 16 17  1  1  0  0  0
 16 21  1  0  0  0  0
 17 35  1  0  0  0  0
 18 19  1  1  0  0  0
 18 23  1  0  0  0  0
 20  2  1  6  0  0  0
 20 25  1  0  0  0  0
 21 22  1  6  0  0  0
 21 27  1  0  0  0  0
 23 24  1  0  0  0  0
 23 29  1  6  0  0  0
 25 26  1  6  0  0  0
 25 31  1  0  0  0  0
 27 28  1  0  0  0  0
 27 33  1  1  0  0  0
 29 30  1  0  0  0  0
 31 32  1  6  0  0  0
 33 34  1  0  0  0  0
M  END
>  <CHROM.1>
171.27696882,-56.17117947,-132.76589766,-63.66916268,-118.19958589,176.45670651
57.03507660,-70.14916207,-3.74484455,2.54881310,18.70594702,-1.86388479,-0.63702088
-2.88063817

>  <Name>
2o3v_lig

>  <RI>
0

>  <Rbt.Current_Directory>
/home/afrankz/demos/rdock_decoys_rna/rnas/2o3v

>  <Rbt.Executable>
rbdock ($Id: //depot/dev/client3/rdock/2013.1/src/exe/rbdock.cxx#4 $)

>  <Rbt.Library>
libRbt.so (2013.1, Build901 2013/11/27)

>  <Rbt.Parameter_File>
/export/apps/rDock/src/rDock_2013.1_src/data/scripts/dock_solv.prm

>  <Rbt.Receptor>
prm/blind_docking_40.prm

>  <SCORE>
20.5264

>  <SCORE.INTER>
10.5854

>  <SCORE.INTER.CONST>
1

>  <SCORE.INTER.POLAR>
-1.62647

>  <SCORE.INTER.ROT>
8

>  <SCORE.INTER.SOLV>
32.0141

>  <SCORE.INTER.VDW>
-7.12621

>  <SCORE.INTER.norm>
0.302439

>  <SCORE.INTRA>
5.49204

>  <SCORE.INTRA.DIHEDRAL>
1.48998

>  <SCORE.INTRA.DIHEDRAL.0>
13.1227

>  <SCORE.INTRA.POLAR>
0

>  <SCORE.INTRA.POLAR.0>
0

>  <SCORE.INTRA.REPUL>
0.0982587

>  <SCORE.INTRA.REPUL.0>
0

>  <SCORE.INTRA.SOLV>
1.86206

>  <SCORE.INTRA.SOLV.lig_0>
-89.1587

>  <SCORE.INTRA.VDW>
3.32473

>  <SCORE.INTRA.VDW.0>
-0.838383

>  <SCORE.INTRA.norm>
0.156915

>  <SCORE.RESTR>
4.44903

>  <SCORE.RESTR.CAVITY>
4.44903

>  <SCORE.RESTR.norm>
0.127115

>  <SCORE.SYSTEM>
0

>  <SCORE.SYSTEM.CONST>
0

>  <SCORE.SYSTEM.DIHEDRAL>
0

>  <SCORE.SYSTEM.SOLV>
0

>  <SCORE.SYSTEM.norm>
0

>  <SCORE.heavy>
35

>  <SCORE.norm>
0.58647

>  <RMSD>
30.315

$$$$
2o3v_lig
 OpenBabel02141814113D
libRbt.so/2013.1/901 2013/11/27
 35 37  0  0  0  0  0  0  0  0999 V2000
   -5.7105    4.5499   17.6060 C   0  0  2  0  0  0  0  0  0  0  0  0
   -5.3130    4.4423   19.0071 O   0  0  0  0  0  0  0  0  0  0  0  0
   -4.2243    6.8056   22.4938 C   0  0  2  0  0  0  0  0  0  0  0  0
   -3.6556    7.9011   23.3357 N   0  0  0  0  0  0  0  0  0  0  0  0
   -2.0183   -4.1745   16.1638 C   0  0  2  0  0  0  0  0  0  0  0  0
   -1.0738   -3.7631   17.1758 O   0  0  0  0  0  0  0  0  0  0  0  0
   -6.1111    3.0862   17.2380 C   0  0  2  0  0  0  0  0  0  0  0  0
   -7.2036    2.5942   18.1102 N   0  0  0  0  0  0  0  0  0  0  0  0
   -3.0636    6.0742   21.6918 C   0  0  0  0  0  0  0  0  0  0  0  0
   -3.0038   -2.9786   15.9253 C   0  0  2  0  0  0  0  0  0  0  0  0
   -2.2673   -1.7535   15.5231 N   0  0  0  0  0  0  0  0  0  0  0  0
   -4.8667    2.0999   17.3285 C   0  0  1  0  0  0  0  0  0  0  0  0
   -5.2779    0.7061   17.0181 O   0  0  0  0  0  0  0  0  0  0  0  0
   -3.6960    4.9223   20.7964 C   0  0  2  0  0  0  0  0  0  0  0  0
   -2.6328    4.2356   20.0320 N   0  0  0  0  0  0  0  0  0  0  0  0
   -3.8966   -2.6902   17.2116 C   0  0  1  0  0  0  0  0  0  0  0  0
   -4.8420   -1.6088   17.0076 O   0  0  0  0  0  0  0  0  0  0  0  0
   -3.7332    2.6742   16.3698 C   0  0  2  0  0  0  0  0  0  0  0  0
   -2.5684    1.8691   16.4038 O   0  0  0  0  0  0  0  0  0  0  0  0
   -4.7653    5.5368   19.8023 C   0  0  2  0  0  0  0  0  0  0  0  0
   -4.6609   -3.9991   17.5877 C   0  0  2  0  0  0  0  0  0  0  0  0
   -5.4654   -3.8050   18.7343 O   0  0  0  0  0  0  0  0  0  0  0  0
   -3.3710    4.1558   16.7665 C   0  0  2  0  0  0  0  0  0  0  0  0
   -4.5881    4.9938   16.7343 O   0  0  0  0  0  0  0  0  0  0  0  0
   -5.8932    6.2554   20.5946 C   0  0  2  0  0  0  0  0  0  0  0  0
   -6.8127    6.8268   19.6204 O   0  0  0  0  0  0  0  0  0  0  0  0
   -3.6326   -5.1782   17.8145 C   0  0  2  0  0  0  0  0  0  0  0  0
   -2.7913   -5.3650   16.6102 O   0  0  0  0  0  0  0  0  0  0  0  0
   -2.3104    4.7442   15.8371 C   0  0  0  0  0  0  0  0  0  0  0  0
   -2.0226    6.0785   16.1770 O   0  0  0  0  0  0  0  0  0  0  0  0
   -5.2820    7.3746   21.4698 C   0  0  1  0  0  0  0  0  0  0  0  0
   -6.3248    8.0067   22.1819 O   0  0  0  0  0  0  0  0  0  0  0  0
   -4.3349   -6.4874   18.1411 C   0  0  0  0  0  0  0  0  0  0  0  0
   -4.9713   -6.4043   19.3933 O   0  0  0  0  0  0  0  0  0  0  0  0
   -4.1956   -0.3236   17.2433 C   0  0  0  0  0  0  0  0  0  0  0  0
  1  2  1  1  0  0  0
  1  7  1  0  0  0  0
  1 24  1  0  0  0  0
  3  4  1  6  0  0  0
  3  9  1  0  0  0  0
  3 31  1  0  0  0  0
  5  6  1  1  0  0  0
  5 10  1  0  0  0  0
  5 28  1  0  0  0  0
  7  8  1  1  0  0  0
  7 12  1  0  0  0  0
  9 14  1  0  0  0  0
 10 11  1  1  0  0  0
 10 16  1  0  0  0  0
 12 13  1  6  0  0  0
 12 18  1  0  0  0  0
 13 35  1  0  0  0  0
 14 15  1  6  0  0  0
 14 20  1  0  0  0  0
 16 17  1  6  0  0  0
 16 21  1  0  0  0  0
 17 35  1  0  0  0  0
 18 19  1  1  0  0  0
 18 23  1  0  0  0  0
 20  2  1  1  0  0  0
 20 25  1  0  0  0  0
 21 22  1  1  0  0  0
 21 27  1  0  0  0  0
 23 24  1  0  0  0  0
 23 29  1  6  0  0  0
 25 26  1  6  0  0  0
 25 31  1  0  0  0  0
 27 28  1  0  0  0  0
 27 33  1  6  0  0  0
 29 30  1  0  0  0  0
 31 32  1  1  0  0  0
 33 34  1  0  0  0  0
M  END
>  <CHROM.1>
175.83248644,-172.95965679,174.69178231,-83.89880750,-179.30487807,-144.96686841
178.33701402,-66.94938469,-4.19101993,1.60161165,18.30269657,-1.79867276
-1.11320847,-3.07708006

>  <Name>
2o3v_lig

>  <RI>
0

>  <Rbt.Current_Directory>
/home/afrankz/demos/rdock_decoys_rna/rnas/2o3v

>  <Rbt.Executable>
rbdock ($Id: //depot/dev/client3/rdock/2013.1/src/exe/rbdock.cxx#4 $)

>  <Rbt.Library>
libRbt.so (2013.1, Build901 2013/11/27)

>  <Rbt.Parameter_File>
/export/apps/rDock/src/rDock_2013.1_src/data/scripts/dock_solv.prm

>  <Rbt.Receptor>
prm/blind_docking_80.prm

>  <SCORE>
-5.99759

>  <SCORE.INTER>
-3.48465

>  <SCORE.INTER.CONST>
1

>  <SCORE.INTER.POLAR>
-0.892542

>  <SCORE.INTER.ROT>
8

>  <SCORE.INTER.SOLV>
30.9641

>  <SCORE.INTER.VDW>
-18.6027

>  <SCORE.INTER.norm>
-0.0995615

>  <SCORE.INTRA>
-3.37282

>  <SCORE.INTRA.DIHEDRAL>
-5.42682

>  <SCORE.INTRA.DIHEDRAL.0>
13.1227

>  <SCORE.INTRA.POLAR>
0

>  <SCORE.INTRA.POLAR.0>
0

>  <SCORE.INTRA.REPUL>
0.100018

>  <SCORE.INTRA.REPUL.0>
0

>  <SCORE.INTRA.SOLV>
1.28844

>  <SCORE.INTRA.SOLV.lig_0>
-89.1587

>  <SCORE.INTRA.VDW>
-1.80372

>  <SCORE.INTRA.VDW.0>
-0.838383

>  <SCORE.INTRA.norm>
-0.0963663

>  <SCORE.RESTR>
0.859884

>  <SCORE.RESTR.CAVITY>
0.859884

>  <SCORE.RESTR.norm>
0.0245681

>  <SCORE.SYSTEM>
0

>  <SCORE.SYSTEM.CONST>
0

>  <SCORE.SYSTEM.DIHEDRAL>
0

>  <SCORE.SYSTEM.SOLV>
0

>  <SCORE.SYSTEM.norm>
0

>  <SCORE.heavy>
35

>  <SCORE.norm>
-0.17136

>  <RMSD>
30.335

$$$$
2o3v_lig
 OpenBabel02141814113D
libRbt.so/2013.1/901 2013/11/27
 35 37  0  0  0  0  0  0  0  0999 V2000
   -3.3381   -5.1948   17.9019 C   0  0  2  0  0  0  0  0  0  0  0  0
   -4.7505   -5.0395   18.2389 O   0  0  0  0  0  0  0  0  0  0  0  0
   -7.7394   -8.1041   19.0150 C   0  0  2  0  0  0  0  0  0  0  0  0
   -8.5550   -9.1326   19.7286 N   0  0  0  0  0  0  0  0  0  0  0  0
   -5.8901    3.4052   17.0893 C   0  0  2  0  0  0  0  0  0  0  0  0
   -6.4959    2.8857   18.2930 O   0  0  0  0  0  0  0  0  0  0  0  0
   -2.8929   -3.7374   17.5609 C   0  0  2  0  0  0  0  0  0  0  0  0
   -3.1140   -2.8270   18.7091 N   0  0  0  0  0  0  0  0  0  0  0  0
   -6.2102   -8.5361   18.9961 C   0  0  0  0  0  0  0  0  0  0  0  0
   -5.2082    2.2032   16.3487 C   0  0  2  0  0  0  0  0  0  0  0  0
   -6.1939    1.1336   16.0495 N   0  0  0  0  0  0  0  0  0  0  0  0
   -3.6524   -3.1796   16.2796 C   0  0  1  0  0  0  0  0  0  0  0  0
   -3.2479   -1.7776   15.9986 O   0  0  0  0  0  0  0  0  0  0  0  0
   -5.3639   -7.4208   18.2423 C   0  0  2  0  0  0  0  0  0  0  0  0
   -3.9343   -7.7981   18.2235 N   0  0  0  0  0  0  0  0  0  0  0  0
   -3.9898    1.6140   17.1872 C   0  0  1  0  0  0  0  0  0  0  0  0
   -3.3187    0.5209   16.5094 O   0  0  0  0  0  0  0  0  0  0  0  0
   -3.3735   -4.1912   15.0827 C   0  0  2  0  0  0  0  0  0  0  0  0
   -4.0347   -3.7867   13.8973 O   0  0  0  0  0  0  0  0  0  0  0  0
   -5.5445   -6.0240   18.9673 C   0  0  2  0  0  0  0  0  0  0  0  0
   -2.9755    2.7685   17.4650 C   0  0  2  0  0  0  0  0  0  0  0  0
   -1.8728    2.3044   18.2188 O   0  0  0  0  0  0  0  0  0  0  0  0
   -3.8229   -5.6499   15.4747 C   0  0  2  0  0  0  0  0  0  0  0  0
   -3.1350   -6.0690   16.7140 O   0  0  0  0  0  0  0  0  0  0  0  0
   -7.0433   -5.6122   18.9868 C   0  0  2  0  0  0  0  0  0  0  0  0
   -7.1370   -4.3458   19.7000 O   0  0  0  0  0  0  0  0  0  0  0  0
   -3.7035    3.9595   18.2072 C   0  0  2  0  0  0  0  0  0  0  0  0
   -4.8605    4.4300   17.4117 O   0  0  0  0  0  0  0  0  0  0  0  0
   -3.5315   -6.6487   14.3556 C   0  0  0  0  0  0  0  0  0  0  0  0
   -3.7573   -7.9695   14.7835 O   0  0  0  0  0  0  0  0  0  0  0  0
   -7.8709   -6.6963   19.7162 C   0  0  1  0  0  0  0  0  0  0  0  0
   -9.2267   -6.3014   19.7150 O   0  0  0  0  0  0  0  0  0  0  0  0
   -2.7633    5.1282   18.4607 C   0  0  0  0  0  0  0  0  0  0  0  0
   -1.7042    5.1161   17.5344 O   0  0  0  0  0  0  0  0  0  0  0  0
   -3.9505   -0.7475   16.8517 C   0  0  0  0  0  0  0  0  0  0  0  0
  1  2  1  6  0  0  0
  1  7  1  0  0  0  0
  1 24  1  0  0  0  0
  3  4  1  1  0  0  0
  3  9  1  0  0  0  0
  3 31  1  0  0  0  0
  5  6  1  1  0  0  0
  5 10  1  0  0  0  0
  5 28  1  0  0  0  0
  7  8  1  1  0  0  0
  7 12  1  0  0  0  0
  9 14  1  0  0  0  0
 10 11  1  1  0  0  0
 10 16  1  0  0  0  0
 12 13  1  6  0  0  0
 12 18  1  0  0  0  0
 13 35  1  0  0  0  0
 14 15  1  1  0  0  0
 14 20  1  0  0  0  0
 16 17  1  6  0  0  0
 16 21  1  0  0  0  0
 17 35  1  0  0  0  0
 18 19  1  6  0  0  0
 18 23  1  0  0  0  0
 20  2  1  6  0  0  0
 20 25  1  0  0  0  0
 21 22  1  1  0  0  0
 21 27  1  0  0  0  0
 23 24  1  0  0  0  0
 23 29  1  6  0  0  0
 25 26  1  1  0  0  0
 25 31  1  0  0  0  0
 27 28  1  0  0  0  0
 27 33  1  6  0  0  0
 29 30  1  0  0  0  0
 31 32  1  6  0  0  0
 33 34  1  0  0  0  0
M  END
>  <CHROM.1>
-162.72469678,-80.66363823,174.59737774,-88.69577174,175.16967997,-51.90642082
171.57775295,24.39456832,-4.67638184,-2.55879577,17.46958718,-1.83141851
0.68602743,0.11110055

>  <Name>
2o3v_lig

>  <RI>
0

>  <Rbt.Current_Directory>
/home/afrankz/demos/rdock_decoys_rna/rnas/2o3v

>  <Rbt.Executable>
rbdock ($Id: //depot/dev/client3/rdock/2013.1/src/exe/rbdock.cxx#4 $)

>  <Rbt.Library>
libRbt.so (2013.1, Build901 2013/11/27)

>  <Rbt.Parameter_File>
/export/apps/rDock/src/rDock_2013.1_src/data/scripts/dock_solv.prm

>  <Rbt.Receptor>
prm/blind_docking_80.prm

>  <SCORE>
-9.83975

>  <SCORE.INTER>
-13.2043

>  <SCORE.INTER.CONST>
1

>  <SCORE.INTER.POLAR>
-1.55311

>  <SCORE.INTER.ROT>
8

>  <SCORE.INTER.SOLV>
15.6081

>  <SCORE.INTER.VDW>
-17.7619

>  <SCORE.INTER.norm>
-0.377265

>  <SCORE.INTRA>
1.16369

>  <SCORE.INTRA.DIHEDRAL>
-2.25132

>  <SCORE.INTRA.DIHEDRAL.0>
13.1227

>  <SCORE.INTRA.POLAR>
0

>  <SCORE.INTRA.POLAR.0>
0

>  <SCORE.INTRA.REPUL>
0

>  <SCORE.INTRA.REPUL.0>
0

>  <SCORE.INTRA.SOLV>
3.82911

>  <SCORE.INTRA.SOLV.lig_0>
-89.1587

>  <SCORE.INTRA.VDW>
0.37479

>  <SCORE.INTRA.VDW.0>
-0.838383

>  <SCORE.INTRA.norm>
0.0332482

>  <SCORE.RESTR>
2.20084

>  <SCORE.RESTR.CAVITY>
2.20084

>  <SCORE.RESTR.norm>
0.0628811

>  <SCORE.SYSTEM>
0

>  <SCORE.SYSTEM.CONST>
0

>  <SCORE.SYSTEM.DIHEDRAL>
0

>  <SCORE.SYSTEM.SOLV>
0

>  <SCORE.SYSTEM.norm>
0

>  <SCORE.heavy>
35

>  <SCORE.norm>
-0.281136

>  <RMSD>
30.353

$$$$
2o3v_lig
 OpenBabel02141814113D
libRbt.so/2013.1/901 2013/11/27
 35 37  0  0  0  0  0  0  0  0999 V2000
   -3.7259   -6.6893   17.3236 C   0  0  2  0  0  0  0  0  0  0  0  0
   -4.9014   -6.5117   18.1718 O   0  0  0  0  0  0  0  0  0  0  0  0
   -7.4600   -9.3805   20.2091 C   0  0  2  0  0  0  0  0  0  0  0  0
   -8.5282  -10.3963   20.4526 N   0  0  0  0  0  0  0  0  0  0  0  0
   -6.1780    2.3158   16.7612 C   0  0  2  0  0  0  0  0  0  0  0  0
   -6.5501    2.1401   18.1455 O   0  0  0  0  0  0  0  0  0  0  0  0
   -3.0281   -5.2938   17.3884 C   0  0  2  0  0  0  0  0  0  0  0  0
   -2.6823   -4.9319   18.7833 N   0  0  0  0  0  0  0  0  0  0  0  0
   -8.1068   -8.0136   19.7208 C   0  0  0  0  0  0  0  0  0  0  0  0
   -5.5092    0.9817   16.2804 C   0  0  2  0  0  0  0  0  0  0  0  0
   -6.4292   -0.1701   16.4594 N   0  0  0  0  0  0  0  0  0  0  0  0
   -3.9370   -4.1563   16.7484 C   0  0  1  0  0  0  0  0  0  0  0  0
   -3.2748   -2.8306   16.8599 O   0  0  0  0  0  0  0  0  0  0  0  0
   -6.9497   -6.9551   19.4580 C   0  0  2  0  0  0  0  0  0  0  0  0
   -7.5300   -5.6778   18.9911 N   0  0  0  0  0  0  0  0  0  0  0  0
   -4.1324    0.7124   17.0332 C   0  0  1  0  0  0  0  0  0  0  0  0
   -3.4746   -0.4998   16.5833 O   0  0  0  0  0  0  0  0  0  0  0  0
   -4.2689   -4.5959   15.2550 C   0  0  2  0  0  0  0  0  0  0  0  0
   -5.1003   -3.6490   14.6085 O   0  0  0  0  0  0  0  0  0  0  0  0
   -5.9394   -7.5174   18.3752 C   0  0  2  0  0  0  0  0  0  0  0  0
   -3.1950    1.9404   16.8055 C   0  0  2  0  0  0  0  0  0  0  0  0
   -1.9559    1.7614   17.4629 O   0  0  0  0  0  0  0  0  0  0  0  0
   -4.9570   -6.0136   15.2353 C   0  0  2  0  0  0  0  0  0  0  0  0
   -4.0899   -6.9997   15.9137 O   0  0  0  0  0  0  0  0  0  0  0  0
   -5.3162   -8.8571   18.8580 C   0  0  2  0  0  0  0  0  0  0  0  0
   -4.4341   -9.3322   17.8010 O   0  0  0  0  0  0  0  0  0  0  0  0
   -3.9080    3.2625   17.2986 C   0  0  2  0  0  0  0  0  0  0  0  0
   -5.2073    3.4332   16.6091 O   0  0  0  0  0  0  0  0  0  0  0  0
   -5.2528   -6.4760   13.8093 C   0  0  0  0  0  0  0  0  0  0  0  0
   -6.2968   -5.7251   13.2393 O   0  0  0  0  0  0  0  0  0  0  0  0
   -6.4388   -9.8887   19.1183 C   0  0  1  0  0  0  0  0  0  0  0  0
   -5.8476  -11.0926   19.5602 O   0  0  0  0  0  0  0  0  0  0  0  0
   -3.0484    4.4939   17.0564 C   0  0  0  0  0  0  0  0  0  0  0  0
   -1.6847    4.1757   17.1944 O   0  0  0  0  0  0  0  0  0  0  0  0
   -4.2317   -1.6710   17.0081 C   0  0  0  0  0  0  0  0  0  0  0  0
  1  2  1  1  0  0  0
  1  7  1  0  0  0  0
  1 24  1  0  0  0  0
  3  4  1  6  0  0  0
  3  9  1  0  0  0  0
  3 31  1  0  0  0  0
  5  6  1  1  0  0  0
  5 10  1  0  0  0  0
  5 28  1  0  0  0  0
  7  8  1  1  0  0  0
  7 12  1  0  0  0  0
  9 14  1  0  0  0  0
 10 11  1  1  0  0  0
 10 16  1  0  0  0  0
 12 13  1  6  0  0  0
 12 18  1  0  0  0  0
 13 35  1  0  0  0  0
 14 15  1  6  0  0  0
 14 20  1  0  0  0  0
 16 17  1  6  0  0  0
 16 21  1  0  0  0  0
 17 35  1  0  0  0  0
 18 19  1  1  0  0  0
 18 23  1  0  0  0  0
 20  2  1  1  0  0  0
 20 25  1  0  0  0  0
 21 22  1  1  0  0  0
 21 27  1  0  0  0  0
 23 24  1  0  0  0  0
 23 29  1  6  0  0  0
 25 26  1  6  0  0  0
 25 31  1  0  0  0  0
 27 28  1  0  0  0  0
 27 33  1  6  0  0  0
 29 30  1  0  0  0  0
 31 32  1  1  0  0  0
 33 34  1  0  0  0  0
M  END
>  <CHROM.1>
176.00281164,-148.38361960,-158.55770491,-69.07179320,-163.59990549,175.20549682
-70.89726105,-33.46225928,-4.93137666,-3.61467476,17.30320960,-1.90718181
0.95802548,0.13763938

>  <Name>
2o3v_lig

>  <RI>
0

>  <Rbt.Current_Directory>
/home/afrankz/demos/rdock_decoys_rna/rnas/2o3v

>  <Rbt.Executable>
rbdock ($Id: //depot/dev/client3/rdock/2013.1/src/exe/rbdock.cxx#4 $)

>  <Rbt.Library>
libRbt.so (2013.1, Build901 2013/11/27)

>  <Rbt.Parameter_File>
/export/apps/rDock/src/rDock_2013.1_src/data/scripts/dock_solv.prm

>  <Rbt.Receptor>
prm/blind_docking_40.prm

>  <SCORE>
-17.5184

>  <SCORE.INTER>
-20.439

>  <SCORE.INTER.CONST>
1

>  <SCORE.INTER.POLAR>
-2.5596

>  <SCORE.INTER.ROT>
8

>  <SCORE.INTER.SOLV>
10.4298

>  <SCORE.INTER.VDW>
-17.5039

>  <SCORE.INTER.norm>
-0.583972

>  <SCORE.INTRA>
-0.501412

>  <SCORE.INTRA.DIHEDRAL>
-2.7189

>  <SCORE.INTRA.DIHEDRAL.0>
13.1227

>  <SCORE.INTRA.POLAR>
0

>  <SCORE.INTRA.POLAR.0>
0

>  <SCORE.INTRA.REPUL>
0

>  <SCORE.INTRA.REPUL.0>
0

>  <SCORE.INTRA.SOLV>
-0.0104491

>  <SCORE.INTRA.SOLV.lig_0>
-89.1587

>  <SCORE.INTRA.VDW>
0.863262

>  <SCORE.INTRA.VDW.0>
-0.838383

>  <SCORE.INTRA.norm>
-0.0143261

>  <SCORE.RESTR>
3.42208

>  <SCORE.RESTR.CAVITY>
3.42208

>  <SCORE.RESTR.norm>
0.0977738

>  <SCORE.SYSTEM>
0

>  <SCORE.SYSTEM.CONST>
0

>  <SCORE.SYSTEM.DIHEDRAL>
0

>  <SCORE.SYSTEM.SOLV>
0

>  <SCORE.SYSTEM.norm>
0

>  <SCORE.heavy>
35

>  <SCORE.norm>
-0.500525

>  <RMSD>
30.370

$$$$
2o3v_lig
 OpenBabel02141814113D
libRbt.so/2013.1/901 2013/11/27
 35 37  0  0  0  0  0  0  0  0999 V2000
   -3.0886   -4.8113   17.8485 C   0  0  2  0  0  0  0  0  0  0  0  0
   -4.4824   -4.6652   18.2595 O   0  0  0  0  0  0  0  0  0  0  0  0
   -7.4319   -7.7789   18.9894 C   0  0  2  0  0  0  0  0  0  0  0  0
   -8.2225   -8.8406   19.6822 N   0  0  0  0  0  0  0  0  0  0  0  0
   -5.7531    3.8951   17.1715 C   0  0  2  0  0  0  0  0  0  0  0  0
   -6.3996    3.3149   18.3252 O   0  0  0  0  0  0  0  0  0  0  0  0
   -2.6653   -3.3480   17.5050 C   0  0  2  0  0  0  0  0  0  0  0  0
   -2.8297   -2.4539   18.6753 N   0  0  0  0  0  0  0  0  0  0  0  0
   -5.9012   -8.1992   18.9135 C   0  0  0  0  0  0  0  0  0  0  0  0
   -5.1191    2.7217   16.3472 C   0  0  2  0  0  0  0  0  0  0  0  0
   -6.1504    1.7273   15.9563 N   0  0  0  0  0  0  0  0  0  0  0  0
   -3.4909   -2.7755   16.2720 C   0  0  1  0  0  0  0  0  0  0  0  0
   -3.1050   -1.3685   15.9898 O   0  0  0  0  0  0  0  0  0  0  0  0
   -5.0815   -7.0489   18.1833 C   0  0  2  0  0  0  0  0  0  0  0  0
   -3.6507   -7.4153   18.1122 N   0  0  0  0  0  0  0  0  0  0  0  0
   -3.9418    2.0115   17.1499 C   0  0  1  0  0  0  0  0  0  0  0  0
   -3.3143    0.9422   16.3966 O   0  0  0  0  0  0  0  0  0  0  0  0
   -3.2711   -3.7699   15.0487 C   0  0  2  0  0  0  0  0  0  0  0  0
   -3.9932   -3.3517   13.9043 O   0  0  0  0  0  0  0  0  0  0  0  0
   -5.2512   -5.6834   18.9682 C   0  0  2  0  0  0  0  0  0  0  0  0
   -2.8777    3.0907   17.5263 C   0  0  2  0  0  0  0  0  0  0  0  0
   -1.8089    2.5172   18.2531 O   0  0  0  0  0  0  0  0  0  0  0  0
   -3.6960   -5.2353   15.4433 C   0  0  2  0  0  0  0  0  0  0  0  0
   -2.9445   -5.6688   16.6399 O   0  0  0  0  0  0  0  0  0  0  0  0
   -6.7514   -5.2831   19.0431 C   0  0  2  0  0  0  0  0  0  0  0  0
   -6.8337   -4.0469   19.8087 O   0  0  0  0  0  0  0  0  0  0  0  0
   -3.5583    4.2552   18.3509 C   0  0  2  0  0  0  0  0  0  0  0  0
   -4.6804    4.8409   17.5824 O   0  0  0  0  0  0  0  0  0  0  0  0
   -3.4597   -6.2179   14.2972 C   0  0  0  0  0  0  0  0  0  0  0  0
   -3.7439   -7.5373   14.6940 O   0  0  0  0  0  0  0  0  0  0  0  0
   -7.5532   -6.4011   19.7497 C   0  0  1  0  0  0  0  0  0  0  0  0
   -8.9108   -6.0159   19.7996 O   0  0  0  0  0  0  0  0  0  0  0  0
   -2.5671    5.3540   18.7033 C   0  0  0  0  0  0  0  0  0  0  0  0
   -1.5149    5.3841   17.7696 O   0  0  0  0  0  0  0  0  0  0  0  0
   -3.9028   -0.3414   16.7585 C   0  0  0  0  0  0  0  0  0  0  0  0
  1  2  1  6  0  0  0
  1  7  1  0  0  0  0
  1 24  1  0  0  0  0
  3  4  1  1  0  0  0
  3  9  1  0  0  0  0
  3 31  1  0  0  0  0
  5  6  1  1  0  0  0
  5 10  1  0  0  0  0
  5 28  1  0  0  0  0
  7  8  1  1  0  0  0
  7 12  1  0  0  0  0
  9 14  1  0  0  0  0
 10 11  1  1  0  0  0
 10 16  1  0  0  0  0
 12 13  1  6  0  0  0
 12 18  1  0  0  0  0
 13 35  1  0  0  0  0
 14 15  1  1  0  0  0
 14 20  1  0  0  0  0
 16 17  1  6  0  0  0
 16 21  1  0  0  0  0
 17 35  1  0  0  0  0
 18 19  1  6  0  0  0
 18 23  1  0  0  0  0
 20  2  1  6  0  0  0
 20 25  1  0  0  0  0
 21 22  1  1  0  0  0
 21 27  1  0  0  0  0
 23 24  1  0  0  0  0
 23 29  1  6  0  0  0
 25 26  1  1  0  0  0
 25 31  1  0  0  0  0
 27 28  1  0  0  0  0
 27 33  1  6  0  0  0
 29 30  1  0  0  0  0
 31 32  1  6  0  0  0
 33 34  1  0  0  0  0
M  END
>  <CHROM.1>
-165.25797093,-88.63188489,176.70702414,-95.68870632,-176.05139983,-50.19216970
175.40890918,25.91905675,-4.49936978,-2.18464611,17.47678710,-1.81832682
0.71898677,0.11954199

>  <Name>
2o3v_lig

>  <RI>
0

>  <Rbt.Current_Directory>
/home/afrankz/demos/rdock_decoys_rna/rnas/2o3v

>  <Rbt.Executable>
rbdock ($Id: //depot/dev/client3/rdock/2013.1/src/exe/rbdock.cxx#4 $)

>  <Rbt.Library>
libRbt.so (2013.1, Build901 2013/11/27)

>  <Rbt.Parameter_File>
/export/apps/rDock/src/rDock_2013.1_src/data/scripts/dock_solv.prm

>  <Rbt.Receptor>
prm/blind_docking_60.prm

>  <SCORE>
-10.8864

>  <SCORE.INTER>
-14.5377

>  <SCORE.INTER.CONST>
1

>  <SCORE.INTER.POLAR>
-1.87428

>  <SCORE.INTER.ROT>
8

>  <SCORE.INTER.SOLV>
16.2393

>  <SCORE.INTER.VDW>
-17.7907

>  <SCORE.INTER.norm>
-0.415363

>  <SCORE.INTRA>
1.97544

>  <SCORE.INTRA.DIHEDRAL>
-0.231851

>  <SCORE.INTRA.DIHEDRAL.0>
13.1227

>  <SCORE.INTRA.POLAR>
0

>  <SCORE.INTRA.POLAR.0>
0

>  <SCORE.INTRA.REPUL>
0

>  <SCORE.INTRA.REPUL.0>
0

>  <SCORE.INTRA.SOLV>
3.58079

>  <SCORE.INTRA.SOLV.lig_0>
-89.1587

>  <SCORE.INTRA.VDW>
0.300971

>  <SCORE.INTRA.VDW.0>
-0.838383

>  <SCORE.INTRA.norm>
0.0564411

>  <SCORE.RESTR>
1.67589

>  <SCORE.RESTR.CAVITY>
1.67589

>  <SCORE.RESTR.norm>
0.0478825

>  <SCORE.SYSTEM>
0

>  <SCORE.SYSTEM.CONST>
0

>  <SCORE.SYSTEM.DIHEDRAL>
0

>  <SCORE.SYSTEM.SOLV>
0

>  <SCORE.SYSTEM.norm>
0

>  <SCORE.heavy>
35

>  <SCORE.norm>
-0.31104

>  <RMSD>
30.371

$$$$
2o3v_lig
 OpenBabel02141814113D
libRbt.so/2013.1/901 2013/11/27
 35 37  0  0  0  0  0  0  0  0999 V2000
   -3.1482   -5.3086   17.5956 C   0  0  2  0  0  0  0  0  0  0  0  0
   -4.4380   -5.4418   18.2675 O   0  0  0  0  0  0  0  0  0  0  0  0
   -6.9642   -8.8593   19.1984 C   0  0  2  0  0  0  0  0  0  0  0  0
   -7.4638  -10.1130   19.8393 N   0  0  0  0  0  0  0  0  0  0  0  0
   -3.5744    4.3478   15.9514 C   0  0  2  0  0  0  0  0  0  0  0  0
   -3.8263    3.8931   14.6040 O   0  0  0  0  0  0  0  0  0  0  0  0
   -2.7343   -3.8365   17.9119 C   0  0  2  0  0  0  0  0  0  0  0  0
   -2.6486   -3.6062   19.3734 N   0  0  0  0  0  0  0  0  0  0  0  0
   -5.5720   -9.1294   18.4814 C   0  0  0  0  0  0  0  0  0  0  0  0
   -3.1133    3.1054   16.7893 C   0  0  2  0  0  0  0  0  0  0  0  0
   -1.9105    2.4748   16.1889 N   0  0  0  0  0  0  0  0  0  0  0  0
   -3.7444   -2.7936   17.2625 C   0  0  1  0  0  0  0  0  0  0  0  0
   -3.3586   -1.4018   17.6120 O   0  0  0  0  0  0  0  0  0  0  0  0
   -5.0575   -7.7787   17.8185 C   0  0  2  0  0  0  0  0  0  0  0  0
   -3.7558   -8.0056   17.1549 N   0  0  0  0  0  0  0  0  0  0  0  0
   -4.2821    2.0349   16.9407 C   0  0  1  0  0  0  0  0  0  0  0  0
   -3.8931    0.8888   17.7406 O   0  0  0  0  0  0  0  0  0  0  0  0
   -3.7893   -3.0847   15.6983 C   0  0  2  0  0  0  0  0  0  0  0  0
   -4.6880   -2.2144   15.0345 O   0  0  0  0  0  0  0  0  0  0  0  0
   -4.9110   -6.6555   18.9258 C   0  0  2  0  0  0  0  0  0  0  0  0
   -5.5173    2.7383   17.5872 C   0  0  2  0  0  0  0  0  0  0  0  0
   -6.5946    1.8347   17.7371 O   0  0  0  0  0  0  0  0  0  0  0  0
   -4.1956   -4.5828   15.4255 C   0  0  2  0  0  0  0  0  0  0  0  0
   -3.2591   -5.4897   16.1220 O   0  0  0  0  0  0  0  0  0  0  0  0
   -6.2754   -6.4022   19.6261 C   0  0  2  0  0  0  0  0  0  0  0  0
   -6.0564   -5.3927   20.6528 O   0  0  0  0  0  0  0  0  0  0  0  0
   -5.9458    3.9855   16.7152 C   0  0  2  0  0  0  0  0  0  0  0  0
   -4.8068    4.9189   16.5591 O   0  0  0  0  0  0  0  0  0  0  0  0
   -4.2099   -4.8989   13.9306 C   0  0  0  0  0  0  0  0  0  0  0  0
   -4.7127   -6.1906   13.6905 O   0  0  0  0  0  0  0  0  0  0  0  0
   -6.7814   -7.7145   20.2694 C   0  0  1  0  0  0  0  0  0  0  0  0
   -8.0224   -7.4588   20.8927 O   0  0  0  0  0  0  0  0  0  0  0  0
   -7.1209    4.7301   17.3305 C   0  0  0  0  0  0  0  0  0  0  0  0
   -6.6808    5.5663   18.3731 O   0  0  0  0  0  0  0  0  0  0  0  0
   -4.3010   -0.3464   17.0825 C   0  0  0  0  0  0  0  0  0  0  0  0
  1  2  1  1  0  0  0
  1  7  1  0  0  0  0
  1 24  1  0  0  0  0
  3  4  1  1  0  0  0
  3  9  1  0  0  0  0
  3 31  1  0  0  0  0
  5  6  1  6  0  0  0
  5 10  1  0  0  0  0
  5 28  1  0  0  0  0
  7  8  1  1  0  0  0
  7 12  1  0  0  0  0
  9 14  1  0  0  0  0
 10 11  1  6  0  0  0
 10 16  1  0  0  0  0
 12 13  1  6  0  0  0
 12 18  1  0  0  0  0
 13 35  1  0  0  0  0
 14 15  1  1  0  0  0
 14 20  1  0  0  0  0
 16 17  1  1  0  0  0
 16 21  1  0  0  0  0
 17 35  1  0  0  0  0
 18 19  1  6  0  0  0
 18 23  1  0  0  0  0
 20  2  1  6  0  0  0
 20 25  1  0  0  0  0
 21 22  1  6  0  0  0
 21 27  1  0  0  0  0
 23 24  1  0  0  0  0
 23 29  1  6  0  0  0
 25 26  1  1  0  0  0
 25 31  1  0  0  0  0
 27 28  1  0  0  0  0
 27 33  1  1  0  0  0
 29 30  1  0  0  0  0
 31 32  1  6  0  0  0
 33 34  1  0  0  0  0
M  END
>  <CHROM.1>
-144.19815081,-177.55950578,169.49436925,-133.76103091,155.21116504,-63.56440259
-173.57133702,79.76274787,-4.79676349,-2.40270557,17.42726122,-1.68362362
0.89340172,-0.07006326

>  <Name>
2o3v_lig

>  <RI>
0

>  <Rbt.Current_Directory>
/home/afrankz/demos/rdock_decoys_rna/rnas/2o3v

>  <Rbt.Executable>
rbdock ($Id: //depot/dev/client3/rdock/2013.1/src/exe/rbdock.cxx#4 $)

>  <Rbt.Library>
libRbt.so (2013.1, Build901 2013/11/27)

>  <Rbt.Parameter_File>
/export/apps/rDock/src/rDock_2013.1_src/data/scripts/dock_solv.prm

>  <Rbt.Receptor>
prm/blind_docking_100.prm

>  <SCORE>
-11.0452

>  <SCORE.INTER>
-15.2024

>  <SCORE.INTER.CONST>
1

>  <SCORE.INTER.POLAR>
-1.4693

>  <SCORE.INTER.ROT>
8

>  <SCORE.INTER.SOLV>
20.6607

>  <SCORE.INTER.VDW>
-21.0575

>  <SCORE.INTER.norm>
-0.434355

>  <SCORE.INTRA>
0.747421

>  <SCORE.INTRA.DIHEDRAL>
2.58554

>  <SCORE.INTRA.DIHEDRAL.0>
13.1227

>  <SCORE.INTRA.POLAR>
0

>  <SCORE.INTRA.POLAR.0>
0

>  <SCORE.INTRA.REPUL>
0

>  <SCORE.INTRA.REPUL.0>
0

>  <SCORE.INTRA.SOLV>
1.19201

>  <SCORE.INTRA.SOLV.lig_0>
-89.1587

>  <SCORE.INTRA.VDW>
-1.14136

>  <SCORE.INTRA.VDW.0>
-0.838383

>  <SCORE.INTRA.norm>
0.0213549

>  <SCORE.RESTR>
3.40982

>  <SCORE.RESTR.CAVITY>
3.40982

>  <SCORE.RESTR.norm>
0.0974233

>  <SCORE.SYSTEM>
0

>  <SCORE.SYSTEM.CONST>
0

>  <SCORE.SYSTEM.DIHEDRAL>
0

>  <SCORE.SYSTEM.SOLV>
0

>  <SCORE.SYSTEM.norm>
0

>  <SCORE.heavy>
35

>  <SCORE.norm>
-0.315577

>  <RMSD>
30.372

$$$$
2o3v_lig
 OpenBabel02141814113D
libRbt.so/2013.1/901 2013/11/27
 35 37  0  0  0  0  0  0  0  0999 V2000
   -5.5773    5.0593   18.4771 C   0  0  2  0  0  0  0  0  0  0  0  0
   -5.4179    4.6417   19.8674 O   0  0  0  0  0  0  0  0  0  0  0  0
   -4.0070    8.1786   21.9716 C   0  0  2  0  0  0  0  0  0  0  0  0
   -3.6787    9.1252   23.0799 N   0  0  0  0  0  0  0  0  0  0  0  0
   -2.5577   -3.6894   17.8085 C   0  0  2  0  0  0  0  0  0  0  0  0
   -3.8084   -3.6966   18.5305 O   0  0  0  0  0  0  0  0  0  0  0  0
   -5.5643    3.7066   17.6971 C   0  0  2  0  0  0  0  0  0  0  0  0
   -6.6522    2.8119   18.1579 N   0  0  0  0  0  0  0  0  0  0  0  0
   -5.5716    7.9030   21.9338 C   0  0  0  0  0  0  0  0  0  0  0  0
   -2.1643   -2.1916   17.5629 C   0  0  2  0  0  0  0  0  0  0  0  0
   -2.0619   -1.4505   18.8456 N   0  0  0  0  0  0  0  0  0  0  0  0
   -4.1642    2.9652   17.8372 C   0  0  1  0  0  0  0  0  0  0  0  0
   -4.1873    1.6609   17.1256 O   0  0  0  0  0  0  0  0  0  0  0  0
   -5.8923    6.8853   20.7549 C   0  0  2  0  0  0  0  0  0  0  0  0
   -7.3436    6.6060   20.7095 N   0  0  0  0  0  0  0  0  0  0  0  0
   -3.1935   -1.4686   16.5867 C   0  0  1  0  0  0  0  0  0  0  0  0
   -2.8349   -0.0893   16.3152 O   0  0  0  0  0  0  0  0  0  0  0  0
   -3.0405    3.9686   17.3232 C   0  0  2  0  0  0  0  0  0  0  0  0
   -1.7479    3.4003   17.4339 O   0  0  0  0  0  0  0  0  0  0  0  0
   -5.0892    5.5373   20.9720 C   0  0  2  0  0  0  0  0  0  0  0  0
   -3.2571   -2.2732   15.2499 C   0  0  2  0  0  0  0  0  0  0  0  0
   -4.1674   -1.6810   14.3443 O   0  0  0  0  0  0  0  0  0  0  0  0
   -3.0994    5.3237   18.1257 C   0  0  2  0  0  0  0  0  0  0  0  0
   -4.4499    5.9136   18.0125 O   0  0  0  0  0  0  0  0  0  0  0  0
   -3.5606    5.8167   21.0139 C   0  0  2  0  0  0  0  0  0  0  0  0
   -2.8927    4.5451   21.2550 O   0  0  0  0  0  0  0  0  0  0  0  0
   -3.6516   -3.7758   15.5427 C   0  0  2  0  0  0  0  0  0  0  0  0
   -2.6958   -4.3810   16.4983 O   0  0  0  0  0  0  0  0  0  0  0  0
   -2.0539    6.3198   17.6261 C   0  0  0  0  0  0  0  0  0  0  0  0
   -1.0682    5.6763   16.8559 O   0  0  0  0  0  0  0  0  0  0  0  0
   -3.2446    6.8092   22.1572 C   0  0  1  0  0  0  0  0  0  0  0  0
   -1.8532    7.0499   22.1699 O   0  0  0  0  0  0  0  0  0  0  0  0
   -3.6835   -4.6111   14.2718 C   0  0  0  0  0  0  0  0  0  0  0  0
   -4.1338   -5.9145   14.5520 O   0  0  0  0  0  0  0  0  0  0  0  0
   -3.0567    0.7313   17.4995 C   0  0  0  0  0  0  0  0  0  0  0  0
  1  2  1  1  0  0  0
  1  7  1  0  0  0  0
  1 24  1  0  0  0  0
  3  4  1  1  0  0  0
  3  9  1  0  0  0  0
  3 31  1  0  0  0  0
  5  6  1  6  0  0  0
  5 10  1  0  0  0  0
  5 28  1  0  0  0  0
  7  8  1  1  0  0  0
  7 12  1  0  0  0  0
  9 14  1  0  0  0  0
 10 11  1  1  0  0  0
 10 16  1  0  0  0  0
 12 13  1  6  0  0  0
 12 18  1  0  0  0  0
 13 35  1  0  0  0  0
 14 15  1  1  0  0  0
 14 20  1  0  0  0  0
 16 17  1  6  0  0  0
 16 21  1  0  0  0  0
 17 35  1  0  0  0  0
 18 19  1  1  0  0  0
 18 23  1  0  0  0  0
 20  2  1  6  0  0  0
 20 25  1  0  0  0  0
 21 22  1  6  0  0  0
 21 27  1  0  0  0  0
 23 24  1  0  0  0  0
 23 29  1  6  0  0  0
 25 26  1  1  0  0  0
 25 31  1  0  0  0  0
 27 28  1  0  0  0  0
 27 33  1  6  0  0  0
 29 30  1  0  0  0  0
 31 32  1  6  0  0  0
 33 34  1  0  0  0  0
M  END
>  <CHROM.1>
166.53238385,-164.59545396,-151.54134040,-71.27715975,-113.18441918,39.68984103
-16.60801623,-175.60753032,-3.72832650,2.38346045,18.36716479,1.65667603
0.54757387,0.39771497

>  <Name>
2o3v_lig

>  <RI>
0

>  <Rbt.Current_Directory>
/home/afrankz/demos/rdock_decoys_rna/rnas/2o3v

>  <Rbt.Executable>
rbdock ($Id: //depot/dev/client3/rdock/2013.1/src/exe/rbdock.cxx#4 $)

>  <Rbt.Library>
libRbt.so (2013.1, Build901 2013/11/27)

>  <Rbt.Parameter_File>
/export/apps/rDock/src/rDock_2013.1_src/data/scripts/dock_solv.prm

>  <Rbt.Receptor>
prm/blind_docking_60.prm

>  <SCORE>
11.8858

>  <SCORE.INTER>
4.19012

>  <SCORE.INTER.CONST>
1

>  <SCORE.INTER.POLAR>
-3.46183

>  <SCORE.INTER.ROT>
8

>  <SCORE.INTER.SOLV>
34.2324

>  <SCORE.INTER.VDW>
-6.01128

>  <SCORE.INTER.norm>
0.119718

>  <SCORE.INTRA>
4.08866

>  <SCORE.INTRA.DIHEDRAL>
6.04133

>  <SCORE.INTRA.DIHEDRAL.0>
13.1227

>  <SCORE.INTRA.POLAR>
0

>  <SCORE.INTRA.POLAR.0>
0

>  <SCORE.INTRA.REPUL>
0

>  <SCORE.INTRA.REPUL.0>
0

>  <SCORE.INTRA.SOLV>
0.848873

>  <SCORE.INTRA.SOLV.lig_0>
-89.1587

>  <SCORE.INTRA.VDW>
0.643558

>  <SCORE.INTRA.VDW.0>
-0.838383

>  <SCORE.INTRA.norm>
0.116819

>  <SCORE.RESTR>
3.60706

>  <SCORE.RESTR.CAVITY>
3.60706

>  <SCORE.RESTR.norm>
0.103059

>  <SCORE.SYSTEM>
0

>  <SCORE.SYSTEM.CONST>
0

>  <SCORE.SYSTEM.DIHEDRAL>
0

>  <SCORE.SYSTEM.SOLV>
0

>  <SCORE.SYSTEM.norm>
0

>  <SCORE.heavy>
35

>  <SCORE.norm>
0.339596

>  <RMSD>
30.393

$$$$
2o3v_lig
 OpenBabel02141814113D
libRbt.so/2013.1/901 2013/11/27
 35 37  0  0  0  0  0  0  0  0999 V2000
   -5.5752    4.5213   17.7312 C   0  0  2  0  0  0  0  0  0  0  0  0
   -5.0955    4.4175   19.1067 O   0  0  0  0  0  0  0  0  0  0  0  0
   -4.8758    6.9606   22.6297 C   0  0  2  0  0  0  0  0  0  0  0  0
   -4.5227    8.1007   23.5285 N   0  0  0  0  0  0  0  0  0  0  0  0
   -2.0156   -4.2549   16.1164 C   0  0  2  0  0  0  0  0  0  0  0  0
   -1.0365   -3.8411   17.0940 O   0  0  0  0  0  0  0  0  0  0  0  0
   -6.0129    3.0600   17.3974 C   0  0  2  0  0  0  0  0  0  0  0  0
   -7.0563    2.5853   18.3367 N   0  0  0  0  0  0  0  0  0  0  0  0
   -3.5592    6.1965   22.1734 C   0  0  0  0  0  0  0  0  0  0  0  0
   -2.9926   -3.0498   15.8892 C   0  0  2  0  0  0  0  0  0  0  0  0
   -2.2529   -1.8404   15.4472 N   0  0  0  0  0  0  0  0  0  0  0  0
   -4.7759    2.0605   17.4196 C   0  0  1  0  0  0  0  0  0  0  0  0
   -5.2201    0.6695   17.1435 O   0  0  0  0  0  0  0  0  0  0  0  0
   -3.9613    4.9971   21.2100 C   0  0  2  0  0  0  0  0  0  0  0  0
   -2.7481    4.2790   20.7640 N   0  0  0  0  0  0  0  0  0  0  0  0
   -3.8432   -2.7311   17.1967 C   0  0  1  0  0  0  0  0  0  0  0  0
   -4.7805   -1.6406   17.0044 O   0  0  0  0  0  0  0  0  0  0  0  0
   -3.6959    2.6164   16.3910 C   0  0  2  0  0  0  0  0  0  0  0  0
   -2.5400    1.7986   16.3603 O   0  0  0  0  0  0  0  0  0  0  0  0
   -4.7515    5.5540   19.9552 C   0  0  2  0  0  0  0  0  0  0  0  0
   -4.6125   -4.0243   17.6146 C   0  0  2  0  0  0  0  0  0  0  0  0
   -5.3802   -3.8031   18.7813 O   0  0  0  0  0  0  0  0  0  0  0  0
   -3.2946    4.0962   16.7556 C   0  0  2  0  0  0  0  0  0  0  0  0
   -4.5024    4.9475   16.7910 O   0  0  0  0  0  0  0  0  0  0  0  0
   -6.0340    6.3050   20.4108 C   0  0  2  0  0  0  0  0  0  0  0  0
   -6.6841    6.8208   19.2139 O   0  0  0  0  0  0  0  0  0  0  0  0
   -3.5928   -5.2133   17.8286 C   0  0  2  0  0  0  0  0  0  0  0  0
   -2.7900   -5.4286   16.6031 O   0  0  0  0  0  0  0  0  0  0  0  0
   -2.2854    4.6673   15.7605 C   0  0  0  0  0  0  0  0  0  0  0  0
   -2.0239    6.0238   16.0260 O   0  0  0  0  0  0  0  0  0  0  0  0
   -5.6477    7.4706   21.3510 C   0  0  1  0  0  0  0  0  0  0  0  0
   -6.8287    8.1316   21.7541 O   0  0  0  0  0  0  0  0  0  0  0  0
   -4.3017   -6.5084   18.1952 C   0  0  0  0  0  0  0  0  0  0  0  0
   -5.2094   -6.8745   17.1842 O   0  0  0  0  0  0  0  0  0  0  0  0
   -4.1203   -0.3620   17.2381 C   0  0  0  0  0  0  0  0  0  0  0  0
  1  2  1  1  0  0  0
  1  7  1  0  0  0  0
  1 24  1  0  0  0  0
  3  4  1  1  0  0  0
  3  9  1  0  0  0  0
  3 31  1  0  0  0  0
  5  6  1  1  0  0  0
  5 10  1  0  0  0  0
  5 28  1  0  0  0  0
  7  8  1  1  0  0  0
  7 12  1  0  0  0  0
  9 14  1  0  0  0  0
 10 11  1  1  0  0  0
 10 16  1  0  0  0  0
 12 13  1  6  0  0  0
 12 18  1  0  0  0  0
 13 35  1  0  0  0  0
 14 15  1  6  0  0  0
 14 20  1  0  0  0  0
 16 17  1  6  0  0  0
 16 21  1  0  0  0  0
 17 35  1  0  0  0  0
 18 19  1  1  0  0  0
 18 23  1  0  0  0  0
 20  2  1  6  0  0  0
 20 25  1  0  0  0  0
 21 22  1  1  0  0  0
 21 27  1  0  0  0  0
 23 24  1  0  0  0  0
 23 29  1  6  0  0  0
 25 26  1  6  0  0  0
 25 31  1  0  0  0  0
 27 28  1  0  0  0  0
 27 33  1  6  0  0  0
 29 30  1  0  0  0  0
 31 32  1  1  0  0  0
 33 34  1  0  0  0  0
M  END
>  <CHROM.1>
-170.66360839,-176.05678819,177.12074903,-85.46699586,-174.56826542,-166.59352713
174.81271619,59.02444093,-4.24674896,1.57927417,18.26842951,-1.82017287,-1.06327917
-3.06275884

>  <Name>
2o3v_lig

>  <RI>
0

>  <Rbt.Current_Directory>
/home/afrankz/demos/rdock_decoys_rna/rnas/2o3v

>  <Rbt.Executable>
rbdock ($Id: //depot/dev/client3/rdock/2013.1/src/exe/rbdock.cxx#4 $)

>  <Rbt.Library>
libRbt.so (2013.1, Build901 2013/11/27)

>  <Rbt.Parameter_File>
/export/apps/rDock/src/rDock_2013.1_src/data/scripts/dock_solv.prm

>  <Rbt.Receptor>
prm/blind_docking_80.prm

>  <SCORE>
-5.66971

>  <SCORE.INTER>
-1.25638

>  <SCORE.INTER.CONST>
1

>  <SCORE.INTER.POLAR>
-0.829478

>  <SCORE.INTER.ROT>
8

>  <SCORE.INTER.SOLV>
31.7642

>  <SCORE.INTER.VDW>
-17.5941

>  <SCORE.INTER.norm>
-0.0358965

>  <SCORE.INTRA>
-5.20969

>  <SCORE.INTRA.DIHEDRAL>
-8.69281

>  <SCORE.INTRA.DIHEDRAL.0>
13.1227

>  <SCORE.INTRA.POLAR>
0

>  <SCORE.INTRA.POLAR.0>
0

>  <SCORE.INTRA.REPUL>
0.0993713

>  <SCORE.INTRA.REPUL.0>
0

>  <SCORE.INTRA.SOLV>
-0.139538

>  <SCORE.INTRA.SOLV.lig_0>
-89.1587

>  <SCORE.INTRA.VDW>
-1.29038

>  <SCORE.INTRA.VDW.0>
-0.838383

>  <SCORE.INTRA.norm>
-0.148848

>  <SCORE.RESTR>
0.796364

>  <SCORE.RESTR.CAVITY>
0.796364

>  <SCORE.RESTR.norm>
0.0227533

>  <SCORE.SYSTEM>
0

>  <SCORE.SYSTEM.CONST>
0

>  <SCORE.SYSTEM.DIHEDRAL>
0

>  <SCORE.SYSTEM.SOLV>
0

>  <SCORE.SYSTEM.norm>
0

>  <SCORE.heavy>
35

>  <SCORE.norm>
-0.161992

>  <RMSD>
30.396

$$$$
2o3v_lig
 OpenBabel02141814113D
libRbt.so/2013.1/901 2013/11/27
 35 37  0  0  0  0  0  0  0  0999 V2000
   -2.6304    2.5952   16.7118 C   0  0  2  0  0  0  0  0  0  0  0  0
   -3.5657    1.6218   17.2691 O   0  0  0  0  0  0  0  0  0  0  0  0
   -4.2373   -2.6539   16.8282 C   0  0  2  0  0  0  0  0  0  0  0  0
   -4.6008   -3.9713   16.2245 N   0  0  0  0  0  0  0  0  0  0  0  0
   -5.5520    7.5459   24.1938 C   0  0  2  0  0  0  0  0  0  0  0  0
   -5.1389    6.3597   24.9065 O   0  0  0  0  0  0  0  0  0  0  0  0
   -2.8049    3.8315   17.6497 C   0  0  2  0  0  0  0  0  0  0  0  0
   -2.5019    3.4828   19.0578 N   0  0  0  0  0  0  0  0  0  0  0  0
   -5.5039   -1.6943   16.8492 C   0  0  0  0  0  0  0  0  0  0  0  0
   -6.0869    7.0907   22.7920 C   0  0  2  0  0  0  0  0  0  0  0  0
   -7.2021    6.1210   22.9367 N   0  0  0  0  0  0  0  0  0  0  0  0
   -4.2722    4.4371   17.5505 C   0  0  1  0  0  0  0  0  0  0  0  0
   -4.4309    5.5837   18.4823 O   0  0  0  0  0  0  0  0  0  0  0  0
   -5.0877   -0.2974   17.4847 C   0  0  2  0  0  0  0  0  0  0  0  0
   -6.2506    0.6156   17.5032 N   0  0  0  0  0  0  0  0  0  0  0  0
   -4.9265    6.4698   21.8960 C   0  0  1  0  0  0  0  0  0  0  0  0
   -5.3869    6.0703   20.5796 O   0  0  0  0  0  0  0  0  0  0  0  0
   -4.5366    4.7970   16.0227 C   0  0  2  0  0  0  0  0  0  0  0  0
   -5.8373    5.3239   15.8317 O   0  0  0  0  0  0  0  0  0  0  0  0
   -3.9081    0.3470   16.6465 C   0  0  2  0  0  0  0  0  0  0  0  0
   -3.7856    7.5275   21.7606 C   0  0  2  0  0  0  0  0  0  0  0  0
   -2.7185    7.0253   20.9804 O   0  0  0  0  0  0  0  0  0  0  0  0
   -4.3351    3.5267   15.1119 C   0  0  2  0  0  0  0  0  0  0  0  0
   -2.9788    2.9757   15.3152 O   0  0  0  0  0  0  0  0  0  0  0  0
   -2.6760   -0.6005   16.6259 C   0  0  2  0  0  0  0  0  0  0  0  0
   -1.6519    0.0357   15.8088 O   0  0  0  0  0  0  0  0  0  0  0  0
   -3.2793    7.9617   23.1939 C   0  0  2  0  0  0  0  0  0  0  0  0
   -4.4074    8.4773   24.0028 O   0  0  0  0  0  0  0  0  0  0  0  0
   -4.5469    3.8539   13.6345 C   0  0  0  0  0  0  0  0  0  0  0  0
   -3.6958    4.8940   13.2187 O   0  0  0  0  0  0  0  0  0  0  0  0
   -3.0773   -1.9620   16.0116 C   0  0  1  0  0  0  0  0  0  0  0  0
   -1.9439   -2.8044   16.0097 O   0  0  0  0  0  0  0  0  0  0  0  0
   -2.1951    9.0257   23.1135 C   0  0  0  0  0  0  0  0  0  0  0  0
   -2.4379    9.8934   22.0326 O   0  0  0  0  0  0  0  0  0  0  0  0
   -4.4030    5.2024   19.9439 C   0  0  0  0  0  0  0  0  0  0  0  0
  1  2  1  1  0  0  0
  1  7  1  0  0  0  0
  1 24  1  0  0  0  0
  3  4  1  6  0  0  0
  3  9  1  0  0  0  0
  3 31  1  0  0  0  0
  5  6  1  1  0  0  0
  5 10  1  0  0  0  0
  5 28  1  0  0  0  0
  7  8  1  1  0  0  0
  7 12  1  0  0  0  0
  9 14  1  0  0  0  0
 10 11  1  1  0  0  0
 10 16  1  0  0  0  0
 12 13  1  1  0  0  0
 12 18  1  0  0  0  0
 13 35  1  0  0  0  0
 14 15  1  6  0  0  0
 14 20  1  0  0  0  0
 16 17  1  6  0  0  0
 16 21  1  0  0  0  0
 17 35  1  0  0  0  0
 18 19  1  1  0  0  0
 18 23  1  0  0  0  0
 20  2  1  1  0  0  0
 20 25  1  0  0  0  0
 21 22  1  6  0  0  0
 21 27  1  0  0  0  0
 23 24  1  0  0  0  0
 23 29  1  6  0  0  0
 25 26  1  6  0  0  0
 25 31  1  0  0  0  0
 27 28  1  0  0  0  0
 27 33  1  6  0  0  0
 29 30  1  0  0  0  0
 31 32  1  1  0  0  0
 33 34  1  0  0  0  0
M  END
>  <CHROM.1>
171.79964253,-68.10155304,-142.46956849,-164.97351224,-143.08711317,-172.72610317
56.35558141,35.02052895,-4.05521811,3.73165085,18.69118381,-1.22599865,1.39931992
0.35487969

>  <Name>
2o3v_lig

>  <RI>
0

>  <Rbt.Current_Directory>
/home/afrankz/demos/rdock_decoys_rna/rnas/2o3v

>  <Rbt.Executable>
rbdock ($Id: //depot/dev/client3/rdock/2013.1/src/exe/rbdock.cxx#4 $)

>  <Rbt.Library>
libRbt.so (2013.1, Build901 2013/11/27)

>  <Rbt.Parameter_File>
/export/apps/rDock/src/rDock_2013.1_src/data/scripts/dock_solv.prm

>  <Rbt.Receptor>
prm/blind_docking_40.prm

>  <SCORE>
4.35536

>  <SCORE.INTER>
0.19732

>  <SCORE.INTER.CONST>
1

>  <SCORE.INTER.POLAR>
-1.78404

>  <SCORE.INTER.ROT>
8

>  <SCORE.INTER.SOLV>
29.6377

>  <SCORE.INTER.VDW>
-12.7342

>  <SCORE.INTER.norm>
0.00563771

>  <SCORE.INTRA>
1.4979

>  <SCORE.INTRA.DIHEDRAL>
0.720057

>  <SCORE.INTRA.DIHEDRAL.0>
13.1227

>  <SCORE.INTRA.POLAR>
0

>  <SCORE.INTRA.POLAR.0>
0

>  <SCORE.INTRA.REPUL>
0

>  <SCORE.INTRA.REPUL.0>
0

>  <SCORE.INTRA.SOLV>
0.445346

>  <SCORE.INTRA.SOLV.lig_0>
-89.1587

>  <SCORE.INTRA.VDW>
0.915199

>  <SCORE.INTRA.VDW.0>
-0.838383

>  <SCORE.INTRA.norm>
0.0427972

>  <SCORE.RESTR>
2.66014

>  <SCORE.RESTR.CAVITY>
2.66014

>  <SCORE.RESTR.norm>
0.0760041

>  <SCORE.SYSTEM>
0

>  <SCORE.SYSTEM.CONST>
0

>  <SCORE.SYSTEM.DIHEDRAL>
0

>  <SCORE.SYSTEM.SOLV>
0

>  <SCORE.SYSTEM.norm>
0

>  <SCORE.heavy>
35

>  <SCORE.norm>
0.124439

>  <RMSD>
30.425

$$$$
2o3v_lig
 OpenBabel02141814113D
libRbt.so/2013.1/901 2013/11/27
 35 37  0  0  0  0  0  0  0  0999 V2000
   -3.7751   -5.5359   17.9693 C   0  0  2  0  0  0  0  0  0  0  0  0
   -4.9156   -5.2076   18.8204 O   0  0  0  0  0  0  0  0  0  0  0  0
   -8.7874   -6.9689   19.7334 C   0  0  2  0  0  0  0  0  0  0  0  0
  -10.1844   -7.4720   19.5673 N   0  0  0  0  0  0  0  0  0  0  0  0
   -6.1575    3.5053   17.2311 C   0  0  2  0  0  0  0  0  0  0  0  0
   -6.4742    3.1233   18.5873 O   0  0  0  0  0  0  0  0  0  0  0  0
   -3.2112   -4.1338   17.5762 C   0  0  2  0  0  0  0  0  0  0  0  0
   -2.8278   -3.3545   18.7770 N   0  0  0  0  0  0  0  0  0  0  0  0
   -8.7269   -5.4117   19.4224 C   0  0  0  0  0  0  0  0  0  0  0  0
   -5.7663    2.2012   16.4536 C   0  0  2  0  0  0  0  0  0  0  0  0
   -6.8650    1.2034   16.5004 N   0  0  0  0  0  0  0  0  0  0  0  0
   -4.2570   -3.3056   16.7102 C   0  0  1  0  0  0  0  0  0  0  0  0
   -3.7193   -1.9591   16.3845 O   0  0  0  0  0  0  0  0  0  0  0  0
   -7.2297   -4.9047   19.5948 C   0  0  2  0  0  0  0  0  0  0  0  0
   -7.1489   -3.4583   19.2984 N   0  0  0  0  0  0  0  0  0  0  0  0
   -4.4184    1.5668   17.0152 C   0  0  1  0  0  0  0  0  0  0  0  0
   -4.0145    0.3760   16.2915 O   0  0  0  0  0  0  0  0  0  0  0  0
   -4.6243   -4.1867   15.4365 C   0  0  2  0  0  0  0  0  0  0  0  0
   -5.5754   -3.5363   14.6129 O   0  0  0  0  0  0  0  0  0  0  0  0
   -6.2718   -5.7096   18.6233 C   0  0  2  0  0  0  0  0  0  0  0  0
   -3.2918    2.6450   16.9333 C   0  0  2  0  0  0  0  0  0  0  0  0
   -2.0685    2.1392   17.4307 O   0  0  0  0  0  0  0  0  0  0  0  0
   -5.1742   -5.5961   15.8782 C   0  0  2  0  0  0  0  0  0  0  0  0
   -4.1823   -6.2719   16.7408 O   0  0  0  0  0  0  0  0  0  0  0  0
   -6.3419   -7.2318   18.9302 C   0  0  2  0  0  0  0  0  0  0  0  0
   -5.4719   -7.9079   17.9778 O   0  0  0  0  0  0  0  0  0  0  0  0
   -3.7278    3.9423   17.7247 C   0  0  2  0  0  0  0  0  0  0  0  0
   -5.0135    4.4564   17.1998 O   0  0  0  0  0  0  0  0  0  0  0  0
   -5.4998   -6.4765   14.6726 C   0  0  0  0  0  0  0  0  0  0  0  0
   -4.3476   -6.7356   13.9083 O   0  0  0  0  0  0  0  0  0  0  0  0
   -7.7975   -7.7286   18.7671 C   0  0  1  0  0  0  0  0  0  0  0  0
   -7.8345   -9.1103   19.0564 O   0  0  0  0  0  0  0  0  0  0  0  0
   -2.6779    5.0395   17.6363 C   0  0  0  0  0  0  0  0  0  0  0  0
   -1.4096    4.4861   17.3806 O   0  0  0  0  0  0  0  0  0  0  0  0
   -4.5219   -0.8160   16.9600 C   0  0  0  0  0  0  0  0  0  0  0  0
  1  2  1  1  0  0  0
  1  7  1  0  0  0  0
  1 24  1  0  0  0  0
  3  4  1  6  0  0  0
  3  9  1  0  0  0  0
  3 31  1  0  0  0  0
  5  6  1  1  0  0  0
  5 10  1  0  0  0  0
  5 28  1  0  0  0  0
  7  8  1  1  0  0  0
  7 12  1  0  0  0  0
  9 14  1  0  0  0  0
 10 11  1  1  0  0  0
 10 16  1  0  0  0  0
 12 13  1  6  0  0  0
 12 18  1  0  0  0  0
 13 35  1  0  0  0  0
 14 15  1  6  0  0  0
 14 20  1  0  0  0  0
 16 17  1  6  0  0  0
 16 21  1  0  0  0  0
 17 35  1  0  0  0  0
 18 19  1  1  0  0  0
 18 23  1  0  0  0  0
 20  2  1  1  0  0  0
 20 25  1  0  0  0  0
 21 22  1  1  0  0  0
 21 27  1  0  0  0  0
 23 24  1  0  0  0  0
 23 29  1  6  0  0  0
 25 26  1  6  0  0  0
 25 31  1  0  0  0  0
 27 28  1  0  0  0  0
 27 33  1  6  0  0  0
 29 30  1  0  0  0  0
 31 32  1  1  0  0  0
 33 34  1  0  0  0  0
M  END
>  <CHROM.1>
126.95469518,-117.28172834,-167.81417586,-93.92830954,-163.60189466,-169.79165506
62.07711216,-24.37200230,-5.22981649,-2.50016335,17.45388534,-1.89708345
0.62205033,0.11344255

>  <Name>
2o3v_lig

>  <RI>
0

>  <Rbt.Current_Directory>
/home/afrankz/demos/rdock_decoys_rna/rnas/2o3v

>  <Rbt.Executable>
rbdock ($Id: //depot/dev/client3/rdock/2013.1/src/exe/rbdock.cxx#4 $)

>  <Rbt.Library>
libRbt.so (2013.1, Build901 2013/11/27)

>  <Rbt.Parameter_File>
/export/apps/rDock/src/rDock_2013.1_src/data/scripts/dock_solv.prm

>  <Rbt.Receptor>
prm/blind_docking_60.prm

>  <SCORE>
-10.7095

>  <SCORE.INTER>
-20.3578

>  <SCORE.INTER.CONST>
1

>  <SCORE.INTER.POLAR>
-3.67538

>  <SCORE.INTER.ROT>
8

>  <SCORE.INTER.SOLV>
15.8763

>  <SCORE.INTER.VDW>
-15.546

>  <SCORE.INTER.norm>
-0.581652

>  <SCORE.INTRA>
6.2734

>  <SCORE.INTRA.DIHEDRAL>
11.2223

>  <SCORE.INTRA.DIHEDRAL.0>
13.1227

>  <SCORE.INTRA.POLAR>
0

>  <SCORE.INTRA.POLAR.0>
0

>  <SCORE.INTRA.REPUL>
0

>  <SCORE.INTRA.REPUL.0>
0

>  <SCORE.INTRA.SOLV>
1.23934

>  <SCORE.INTRA.SOLV.lig_0>
-89.1587

>  <SCORE.INTRA.VDW>
0.0425634

>  <SCORE.INTRA.VDW.0>
-0.838383

>  <SCORE.INTRA.norm>
0.17924

>  <SCORE.RESTR>
3.37492

>  <SCORE.RESTR.CAVITY>
3.37492

>  <SCORE.RESTR.norm>
0.0964263

>  <SCORE.SYSTEM>
0

>  <SCORE.SYSTEM.CONST>
0

>  <SCORE.SYSTEM.DIHEDRAL>
0

>  <SCORE.SYSTEM.SOLV>
0

>  <SCORE.SYSTEM.norm>
0

>  <SCORE.heavy>
35

>  <SCORE.norm>
-0.305985

>  <RMSD>
30.440

$$$$
2o3v_lig
 OpenBabel02141814113D
libRbt.so/2013.1/901 2013/11/27
 35 37  0  0  0  0  0  0  0  0999 V2000
   -2.1883   -5.9895   16.3196 C   0  0  2  0  0  0  0  0  0  0  0  0
   -2.8658   -6.1285   17.6058 O   0  0  0  0  0  0  0  0  0  0  0  0
   -5.9153   -8.6230   19.4512 C   0  0  2  0  0  0  0  0  0  0  0  0
   -7.2162   -9.3170   19.6922 N   0  0  0  0  0  0  0  0  0  0  0  0
   -6.2482    2.2918   16.8554 C   0  0  2  0  0  0  0  0  0  0  0  0
   -6.5641    2.0559   18.2447 O   0  0  0  0  0  0  0  0  0  0  0  0
   -1.4834   -4.6012   16.4387 C   0  0  2  0  0  0  0  0  0  0  0  0
   -0.5483   -4.5718   17.5880 N   0  0  0  0  0  0  0  0  0  0  0  0
   -6.1254   -7.0478   19.4658 C   0  0  0  0  0  0  0  0  0  0  0  0
   -5.5868    0.9855   16.2945 C   0  0  2  0  0  0  0  0  0  0  0  0
   -6.4887   -0.1822   16.4617 N   0  0  0  0  0  0  0  0  0  0  0  0
   -2.5395   -3.4199   16.5758 C   0  0  1  0  0  0  0  0  0  0  0  0
   -1.8487   -2.1136   16.7323 O   0  0  0  0  0  0  0  0  0  0  0  0
   -4.7302   -6.3344   19.1957 C   0  0  2  0  0  0  0  0  0  0  0  0
   -4.9057   -4.8662   19.1937 N   0  0  0  0  0  0  0  0  0  0  0  0
   -4.1792    0.7004   16.9816 C   0  0  1  0  0  0  0  0  0  0  0  0
   -3.5288   -0.4856   16.4572 O   0  0  0  0  0  0  0  0  0  0  0  0
   -3.5082   -3.4984   15.3151 C   0  0  2  0  0  0  0  0  0  0  0  0
   -4.5045   -2.4929   15.3634 O   0  0  0  0  0  0  0  0  0  0  0  0
   -4.1410   -6.8101   17.8044 C   0  0  2  0  0  0  0  0  0  0  0  0
   -3.2625    1.9464   16.7684 C   0  0  2  0  0  0  0  0  0  0  0  0
   -1.9970    1.7538   17.3693 O   0  0  0  0  0  0  0  0  0  0  0  0
   -4.1854   -4.9186   15.2250 C   0  0  2  0  0  0  0  0  0  0  0  0
   -3.1445   -5.9669   15.1786 O   0  0  0  0  0  0  0  0  0  0  0  0
   -3.9445   -8.3521   17.7966 C   0  0  2  0  0  0  0  0  0  0  0  0
   -3.4411   -8.7196   16.4803 O   0  0  0  0  0  0  0  0  0  0  0  0
   -3.9674    3.2397   17.3428 C   0  0  2  0  0  0  0  0  0  0  0  0
   -5.2942    3.4247   16.7118 O   0  0  0  0  0  0  0  0  0  0  0  0
   -5.0928   -5.0329   14.0009 C   0  0  0  0  0  0  0  0  0  0  0  0
   -4.3767   -4.7900   12.8147 O   0  0  0  0  0  0  0  0  0  0  0  0
   -5.2988   -9.0501   18.0625 C   0  0  1  0  0  0  0  0  0  0  0  0
   -5.0920  -10.4470   18.0558 O   0  0  0  0  0  0  0  0  0  0  0  0
   -3.1290    4.4889   17.1181 C   0  0  0  0  0  0  0  0  0  0  0  0
   -2.9889    4.7453   15.7417 O   0  0  0  0  0  0  0  0  0  0  0  0
   -2.6562   -1.0702   17.4682 C   0  0  0  0  0  0  0  0  0  0  0  0
  1  2  1  1  0  0  0
  1  7  1  0  0  0  0
  1 24  1  0  0  0  0
  3  4  1  6  0  0  0
  3  9  1  0  0  0  0
  3 31  1  0  0  0  0
  5  6  1  1  0  0  0
  5 10  1  0  0  0  0
  5 28  1  0  0  0  0
  7  8  1  1  0  0  0
  7 12  1  0  0  0  0
  9 14  1  0  0  0  0
 10 11  1  1  0  0  0
 10 16  1  0  0  0  0
 12 13  1  6  0  0  0
 12 18  1  0  0  0  0
 13 35  1  0  0  0  0
 14 15  1  6  0  0  0
 14 20  1  0  0  0  0
 16 17  1  6  0  0  0
 16 21  1  0  0  0  0
 17 35  1  0  0  0  0
 18 19  1  1  0  0  0
 18 23  1  0  0  0  0
 20  2  1  1  0  0  0
 20 25  1  0  0  0  0
 21 22  1  1  0  0  0
 21 27  1  0  0  0  0
 23 24  1  0  0  0  0
 23 29  1  6  0  0  0
 25 26  1  6  0  0  0
 25 31  1  0  0  0  0
 27 28  1  0  0  0  0
 27 33  1  6  0  0  0
 29 30  1  0  0  0  0
 31 32  1  1  0  0  0
 33 34  1  0  0  0  0
M  END
>  <CHROM.1>
146.81911724,-153.71917810,-83.15436511,-152.36393579,-169.37593517,-161.90801444
58.05342116,64.04142446,-4.07209853,-3.07559773,16.94502155,-1.62617730,0.66535535
-0.05590269

>  <Name>
2o3v_lig

>  <RI>
0

>  <Rbt.Current_Directory>
/home/afrankz/demos/rdock_decoys_rna/rnas/2o3v

>  <Rbt.Executable>
rbdock ($Id: //depot/dev/client3/rdock/2013.1/src/exe/rbdock.cxx#4 $)

>  <Rbt.Library>
libRbt.so (2013.1, Build901 2013/11/27)

>  <Rbt.Parameter_File>
/export/apps/rDock/src/rDock_2013.1_src/data/scripts/dock_solv.prm

>  <Rbt.Receptor>
prm/blind_docking_60.prm

>  <SCORE>
-11.2304

>  <SCORE.INTER>
-14.5807

>  <SCORE.INTER.CONST>
1

>  <SCORE.INTER.POLAR>
-1.47234

>  <SCORE.INTER.ROT>
8

>  <SCORE.INTER.SOLV>
14.7184

>  <SCORE.INTER.VDW>
-18.6521

>  <SCORE.INTER.norm>
-0.416592

>  <SCORE.INTRA>
-0.597924

>  <SCORE.INTRA.DIHEDRAL>
1.6091

>  <SCORE.INTRA.DIHEDRAL.0>
13.1227

>  <SCORE.INTRA.POLAR>
0

>  <SCORE.INTRA.POLAR.0>
0

>  <SCORE.INTRA.REPUL>
0

>  <SCORE.INTRA.REPUL.0>
0

>  <SCORE.INTRA.SOLV>
1.52365

>  <SCORE.INTRA.SOLV.lig_0>
-89.1587

>  <SCORE.INTRA.VDW>
-2.1643

>  <SCORE.INTRA.VDW.0>
-0.838383

>  <SCORE.INTRA.norm>
-0.0170835

>  <SCORE.RESTR>
3.94824

>  <SCORE.RESTR.CAVITY>
3.94824

>  <SCORE.RESTR.norm>
0.112807

>  <SCORE.SYSTEM>
0

>  <SCORE.SYSTEM.CONST>
0

>  <SCORE.SYSTEM.DIHEDRAL>
0

>  <SCORE.SYSTEM.SOLV>
0

>  <SCORE.SYSTEM.norm>
0

>  <SCORE.heavy>
35

>  <SCORE.norm>
-0.320868

>  <RMSD>
30.442

$$$$
2o3v_lig
 OpenBabel02141814113D
libRbt.so/2013.1/901 2013/11/27
 35 37  0  0  0  0  0  0  0  0999 V2000
   -2.2082   -4.4812   17.0988 C   0  0  2  0  0  0  0  0  0  0  0  0
   -3.0223   -4.7368   18.2841 O   0  0  0  0  0  0  0  0  0  0  0  0
   -5.0866   -8.5002   17.5751 C   0  0  2  0  0  0  0  0  0  0  0  0
   -5.7834   -9.7977   17.8263 N   0  0  0  0  0  0  0  0  0  0  0  0
   -5.6882    2.9985   16.1732 C   0  0  2  0  0  0  0  0  0  0  0  0
   -6.3947    2.0112   16.9552 O   0  0  0  0  0  0  0  0  0  0  0  0
   -1.9779   -2.9377   17.1533 C   0  0  2  0  0  0  0  0  0  0  0  0
   -1.3032   -2.5407   18.4117 N   0  0  0  0  0  0  0  0  0  0  0  0
   -3.6068   -8.5539   18.1519 C   0  0  0  0  0  0  0  0  0  0  0  0
   -4.3982    2.3131   15.6035 C   0  0  2  0  0  0  0  0  0  0  0  0
   -4.7437    1.1168   14.7946 N   0  0  0  0  0  0  0  0  0  0  0  0
   -3.3441   -2.1377   17.0013 C   0  0  1  0  0  0  0  0  0  0  0  0
   -3.1090   -0.6737   17.1002 O   0  0  0  0  0  0  0  0  0  0  0  0
   -2.8924   -7.1592   17.8823 C   0  0  2  0  0  0  0  0  0  0  0  0
   -1.5161   -7.1839   18.4223 N   0  0  0  0  0  0  0  0  0  0  0  0
   -3.3820    1.9212   16.7648 C   0  0  1  0  0  0  0  0  0  0  0  0
   -2.1634    1.3147   16.2631 O   0  0  0  0  0  0  0  0  0  0  0  0
   -4.0167   -2.5993   15.6345 C   0  0  2  0  0  0  0  0  0  0  0  0
   -5.2595   -1.9533   15.4241 O   0  0  0  0  0  0  0  0  0  0  0  0
   -3.7180   -5.9897   18.5604 C   0  0  2  0  0  0  0  0  0  0  0  0
   -3.0378    3.2096   17.5774 C   0  0  2  0  0  0  0  0  0  0  0  0
   -2.1432    2.9193   18.6333 O   0  0  0  0  0  0  0  0  0  0  0  0
   -4.2165   -4.1625   15.6161 C   0  0  2  0  0  0  0  0  0  0  0  0
   -2.9195   -4.8350   15.8397 O   0  0  0  0  0  0  0  0  0  0  0  0
   -5.1654   -5.9483   17.9952 C   0  0  2  0  0  0  0  0  0  0  0  0
   -5.8729   -4.8812   18.6894 O   0  0  0  0  0  0  0  0  0  0  0  0
   -4.3639    3.8703   18.1287 C   0  0  2  0  0  0  0  0  0  0  0  0
   -5.2947    4.1612   17.0143 O   0  0  0  0  0  0  0  0  0  0  0  0
   -4.8272   -4.6365   14.2981 C   0  0  0  0  0  0  0  0  0  0  0  0
   -3.8330   -4.8460   13.3252 O   0  0  0  0  0  0  0  0  0  0  0  0
   -5.8630   -7.3045   18.2522 C   0  0  1  0  0  0  0  0  0  0  0  0
   -7.1716   -7.2424   17.7253 O   0  0  0  0  0  0  0  0  0  0  0  0
   -4.0816    5.1556   18.8919 C   0  0  0  0  0  0  0  0  0  0  0  0
   -3.2667    4.8944   20.0090 O   0  0  0  0  0  0  0  0  0  0  0  0
   -2.4045   -0.0775   15.9042 C   0  0  0  0  0  0  0  0  0  0  0  0
  1  2  1  1  0  0  0
  1  7  1  0  0  0  0
  1 24  1  0  0  0  0
  3  4  1  1  0  0  0
  3  9  1  0  0  0  0
  3 31  1  0  0  0  0
  5  6  1  1  0  0  0
  5 10  1  0  0  0  0
  5 28  1  0  0  0  0
  7  8  1  1  0  0  0
  7 12  1  0  0  0  0
  9 14  1  0  0  0  0
 10 11  1  1  0  0  0
 10 16  1  0  0  0  0
 12 13  1  6  0  0  0
 12 18  1  0  0  0  0
 13 35  1  0  0  0  0
 14 15  1  1  0  0  0
 14 20  1  0  0  0  0
 16 17  1  6  0  0  0
 16 21  1  0  0  0  0
 17 35  1  0  0  0  0
 18 19  1  1  0  0  0
 18 23  1  0  0  0  0
 20  2  1  6  0  0  0
 20 25  1  0  0  0  0
 21 22  1  1  0  0  0
 21 27  1  0  0  0  0
 23 24  1  0  0  0  0
 23 29  1  6  0  0  0
 25 26  1  1  0  0  0
 25 31  1  0  0  0  0
 27 28  1  0  0  0  0
 27 33  1  6  0  0  0
 29 30  1  0  0  0  0
 31 32  1  6  0  0  0
 33 34  1  0  0  0  0
M  END
>  <CHROM.1>
168.00319754,71.47242285,-174.67133540,-77.74219328,-49.38707507,29.40107441
85.59862646,-61.38992911,-3.95704286,-2.15044510,17.11266799,-1.63196168
-0.79071894,-0.04203808

>  <Name>
2o3v_lig

>  <RI>
0

>  <Rbt.Current_Directory>
/home/afrankz/demos/rdock_decoys_rna/rnas/2o3v

>  <Rbt.Executable>
rbdock ($Id: //depot/dev/client3/rdock/2013.1/src/exe/rbdock.cxx#4 $)

>  <Rbt.Library>
libRbt.so (2013.1, Build901 2013/11/27)

>  <Rbt.Parameter_File>
/export/apps/rDock/src/rDock_2013.1_src/data/scripts/dock_solv.prm

>  <Rbt.Receptor>
prm/blind_docking_100.prm

>  <SCORE>
0.483483

>  <SCORE.INTER>
-5.44935

>  <SCORE.INTER.CONST>
1

>  <SCORE.INTER.POLAR>
-0.503932

>  <SCORE.INTER.ROT>
8

>  <SCORE.INTER.SOLV>
17.3274

>  <SCORE.INTER.VDW>
-16.6623

>  <SCORE.INTER.norm>
-0.155696

>  <SCORE.INTRA>
-0.782791

>  <SCORE.INTRA.DIHEDRAL>
-3.87544

>  <SCORE.INTRA.DIHEDRAL.0>
13.1227

>  <SCORE.INTRA.POLAR>
0

>  <SCORE.INTRA.POLAR.0>
0

>  <SCORE.INTRA.REPUL>
0

>  <SCORE.INTRA.REPUL.0>
0

>  <SCORE.INTRA.SOLV>
3.27923

>  <SCORE.INTRA.SOLV.lig_0>
-89.1587

>  <SCORE.INTRA.VDW>
-0.48469

>  <SCORE.INTRA.VDW.0>
-0.838383

>  <SCORE.INTRA.norm>
-0.0223655

>  <SCORE.RESTR>
6.71563

>  <SCORE.RESTR.CAVITY>
6.71563

>  <SCORE.RESTR.norm>
0.191875

>  <SCORE.SYSTEM>
0

>  <SCORE.SYSTEM.CONST>
0

>  <SCORE.SYSTEM.DIHEDRAL>
0

>  <SCORE.SYSTEM.SOLV>
0

>  <SCORE.SYSTEM.norm>
0

>  <SCORE.heavy>
35

>  <SCORE.norm>
0.0138138

>  <RMSD>
30.444

$$$$
2o3v_lig
 OpenBabel02141814113D
libRbt.so/2013.1/901 2013/11/27
 35 37  0  0  0  0  0  0  0  0999 V2000
   -2.9876   -5.3649   17.8011 C   0  0  2  0  0  0  0  0  0  0  0  0
   -4.3495   -5.2275   18.3103 O   0  0  0  0  0  0  0  0  0  0  0  0
   -7.2997   -8.3695   18.9034 C   0  0  2  0  0  0  0  0  0  0  0  0
   -8.0759   -9.4756   19.5407 N   0  0  0  0  0  0  0  0  0  0  0  0
   -4.1205    4.5060   16.4697 C   0  0  2  0  0  0  0  0  0  0  0  0
   -4.1211    4.4502   15.0267 O   0  0  0  0  0  0  0  0  0  0  0  0
   -2.4216   -3.9134   17.9072 C   0  0  2  0  0  0  0  0  0  0  0  0
   -2.4669   -3.4214   19.3044 N   0  0  0  0  0  0  0  0  0  0  0  0
   -5.7760   -8.7921   18.7447 C   0  0  0  0  0  0  0  0  0  0  0  0
   -3.2392    3.3166   16.9866 C   0  0  2  0  0  0  0  0  0  0  0  0
   -1.8632    3.3937   16.4337 N   0  0  0  0  0  0  0  0  0  0  0  0
   -3.2092   -2.9088   16.9585 C   0  0  1  0  0  0  0  0  0  0  0  0
   -2.6849   -1.5263   17.1073 O   0  0  0  0  0  0  0  0  0  0  0  0
   -4.9711   -7.5950   18.0758 C   0  0  2  0  0  0  0  0  0  0  0  0
   -3.5466   -7.9637   17.9294 N   0  0  0  0  0  0  0  0  0  0  0  0
   -3.8961    1.9080   16.6413 C   0  0  1  0  0  0  0  0  0  0  0  0
   -3.1176    0.7890   17.1377 O   0  0  0  0  0  0  0  0  0  0  0  0
   -3.1204   -3.4841   15.4771 C   0  0  2  0  0  0  0  0  0  0  0  0
   -3.8193   -2.6626   14.5591 O   0  0  0  0  0  0  0  0  0  0  0  0
   -5.1031   -6.2915   18.9661 C   0  0  2  0  0  0  0  0  0  0  0  0
   -5.3323    1.8680   17.2532 C   0  0  2  0  0  0  0  0  0  0  0  0
   -5.9710    0.6390   16.9680 O   0  0  0  0  0  0  0  0  0  0  0  0
   -3.6871   -4.9535   15.4189 C   0  0  2  0  0  0  0  0  0  0  0  0
   -2.9594   -5.8085   16.3802 O   0  0  0  0  0  0  0  0  0  0  0  0
   -6.5965   -5.8890   19.1212 C   0  0  2  0  0  0  0  0  0  0  0  0
   -6.6430   -4.7134   19.9796 O   0  0  0  0  0  0  0  0  0  0  0  0
   -6.1841    3.0843   16.7106 C   0  0  2  0  0  0  0  0  0  0  0  0
   -5.5003    4.3636   17.0081 O   0  0  0  0  0  0  0  0  0  0  0  0
   -3.5790   -5.5434   14.0135 C   0  0  0  0  0  0  0  0  0  0  0  0
   -4.7893   -5.4029   13.3104 O   0  0  0  0  0  0  0  0  0  0  0  0
   -7.3841   -7.0521   19.7685 C   0  0  1  0  0  0  0  0  0  0  0  0
   -8.7360   -6.6636   19.8927 O   0  0  0  0  0  0  0  0  0  0  0  0
   -7.5802    3.1121   17.3141 C   0  0  0  0  0  0  0  0  0  0  0  0
   -8.2821    1.9385   16.9823 O   0  0  0  0  0  0  0  0  0  0  0  0
   -3.5922   -0.4563   16.5468 C   0  0  0  0  0  0  0  0  0  0  0  0
  1  2  1  6  0  0  0
  1  7  1  0  0  0  0
  1 24  1  0  0  0  0
  3  4  1  1  0  0  0
  3  9  1  0  0  0  0
  3 31  1  0  0  0  0
  5  6  1  6  0  0  0
  5 10  1  0  0  0  0
  5 28  1  0  0  0  0
  7  8  1  1  0  0  0
  7 12  1  0  0  0  0
  9 14  1  0  0  0  0
 10 11  1  6  0  0  0
 10 16  1  0  0  0  0
 12 13  1  6  0  0  0
 12 18  1  0  0  0  0
 13 35  1  0  0  0  0
 14 15  1  1  0  0  0
 14 20  1  0  0  0  0
 16 17  1  1  0  0  0
 16 21  1  0  0  0  0
 17 35  1  0  0  0  0
 18 19  1  6  0  0  0
 18 23  1  0  0  0  0
 20  2  1  6  0  0  0
 20 25  1  0  0  0  0
 21 22  1  6  0  0  0
 21 27  1  0  0  0  0
 23 24  1  0  0  0  0
 23 29  1  6  0  0  0
 25 26  1  1  0  0  0
 25 31  1  0  0  0  0
 27 28  1  0  0  0  0
 27 33  1  1  0  0  0
 29 30  1  0  0  0  0
 31 32  1  6  0  0  0
 33 34  1  0  0  0  0
M  END
>  <CHROM.1>
-151.73712675,-164.25187353,163.32584224,-167.34302680,178.42292074,-47.94334469
-96.75142631,-60.97856217,-4.79048828,-2.52546124,17.25888651,-1.68903428
0.56577400,-0.11041858

>  <Name>
2o3v_lig

>  <RI>
0

>  <Rbt.Current_Directory>
/home/afrankz/demos/rdock_decoys_rna/rnas/2o3v

>  <Rbt.Executable>
rbdock ($Id: //depot/dev/client3/rdock/2013.1/src/exe/rbdock.cxx#4 $)

>  <Rbt.Library>
libRbt.so (2013.1, Build901 2013/11/27)

>  <Rbt.Parameter_File>
/export/apps/rDock/src/rDock_2013.1_src/data/scripts/dock_solv.prm

>  <Rbt.Receptor>
prm/blind_docking_40.prm

>  <SCORE>
-15.2282

>  <SCORE.INTER>
-18.961

>  <SCORE.INTER.CONST>
1

>  <SCORE.INTER.POLAR>
-2.50295

>  <SCORE.INTER.ROT>
8

>  <SCORE.INTER.SOLV>
16.8703

>  <SCORE.INTER.VDW>
-18.8543

>  <SCORE.INTER.norm>
-0.541744

>  <SCORE.INTRA>
0.549012

>  <SCORE.INTRA.DIHEDRAL>
-2.37298

>  <SCORE.INTRA.DIHEDRAL.0>
13.1227

>  <SCORE.INTRA.POLAR>
0

>  <SCORE.INTRA.POLAR.0>
0

>  <SCORE.INTRA.REPUL>
0

>  <SCORE.INTRA.REPUL.0>
0

>  <SCORE.INTRA.SOLV>
1.01385

>  <SCORE.INTRA.SOLV.lig_0>
-89.1587

>  <SCORE.INTRA.VDW>
1.22857

>  <SCORE.INTRA.VDW.0>
-0.838383

>  <SCORE.INTRA.norm>
0.015686

>  <SCORE.RESTR>
3.18382

>  <SCORE.RESTR.CAVITY>
3.18382

>  <SCORE.RESTR.norm>
0.0909664

>  <SCORE.SYSTEM>
0

>  <SCORE.SYSTEM.CONST>
0

>  <SCORE.SYSTEM.DIHEDRAL>
0

>  <SCORE.SYSTEM.SOLV>
0

>  <SCORE.SYSTEM.norm>
0

>  <SCORE.heavy>
35

>  <SCORE.norm>
-0.435091

>  <RMSD>
30.450

$$$$
2o3v_lig
 OpenBabel02141814113D
libRbt.so/2013.1/901 2013/11/27
 35 37  0  0  0  0  0  0  0  0999 V2000
   -5.6697    3.8336   17.3626 C   0  0  2  0  0  0  0  0  0  0  0  0
   -5.2604    3.9877   18.7560 O   0  0  0  0  0  0  0  0  0  0  0  0
   -4.4541    6.9986   21.7910 C   0  0  2  0  0  0  0  0  0  0  0  0
   -3.9856    8.2611   22.4382 N   0  0  0  0  0  0  0  0  0  0  0  0
   -2.8175   -4.7850   15.6050 C   0  0  2  0  0  0  0  0  0  0  0  0
   -1.8512   -5.4002   16.4843 O   0  0  0  0  0  0  0  0  0  0  0  0
   -6.1147    2.3387   17.2873 C   0  0  2  0  0  0  0  0  0  0  0  0
   -7.2110    2.0571   18.2439 N   0  0  0  0  0  0  0  0  0  0  0  0
   -3.2209    6.2142   21.1670 C   0  0  0  0  0  0  0  0  0  0  0  0
   -2.9617   -3.2853   16.0392 C   0  0  2  0  0  0  0  0  0  0  0  0
   -1.6517   -2.5879   15.9888 N   0  0  0  0  0  0  0  0  0  0  0  0
   -4.8972    1.3526   17.5608 C   0  0  1  0  0  0  0  0  0  0  0  0
   -5.3503   -0.0623   17.5285 O   0  0  0  0  0  0  0  0  0  0  0  0
   -3.7475    4.8827   20.4755 C   0  0  2  0  0  0  0  0  0  0  0  0
   -2.6157    4.1425   19.8776 N   0  0  0  0  0  0  0  0  0  0  0  0
   -3.6025   -3.1551   17.4908 C   0  0  1  0  0  0  0  0  0  0  0  0
   -3.7784   -1.7759   17.9049 O   0  0  0  0  0  0  0  0  0  0  0  0
   -3.7586    1.6970   16.5032 C   0  0  2  0  0  0  0  0  0  0  0  0
   -2.6163    0.8799   16.6866 O   0  0  0  0  0  0  0  0  0  0  0  0
   -4.8109    5.2395   19.3569 C   0  0  2  0  0  0  0  0  0  0  0  0
   -4.9808   -3.8892   17.4915 C   0  0  2  0  0  0  0  0  0  0  0  0
   -5.5941   -3.8153   18.7635 O   0  0  0  0  0  0  0  0  0  0  0  0
   -3.3512    3.2161   16.6034 C   0  0  2  0  0  0  0  0  0  0  0  0
   -4.5448    4.0673   16.4157 O   0  0  0  0  0  0  0  0  0  0  0  0
   -6.0103    6.0117   19.9746 C   0  0  2  0  0  0  0  0  0  0  0  0
   -6.9225    6.3395   18.8876 O   0  0  0  0  0  0  0  0  0  0  0  0
   -4.7912   -5.3937   17.0444 C   0  0  2  0  0  0  0  0  0  0  0  0
   -4.1407   -5.4567   15.7156 O   0  0  0  0  0  0  0  0  0  0  0  0
   -2.2847    3.5821   15.5722 C   0  0  0  0  0  0  0  0  0  0  0  0
   -1.8738    4.9193   15.7208 O   0  0  0  0  0  0  0  0  0  0  0  0
   -5.5020    7.3061   20.6516 C   0  0  1  0  0  0  0  0  0  0  0  0
   -6.6082    7.9848   21.2084 O   0  0  0  0  0  0  0  0  0  0  0  0
   -6.1160   -6.1391   16.9877 C   0  0  0  0  0  0  0  0  0  0  0  0
   -6.6959   -6.2079   18.2679 O   0  0  0  0  0  0  0  0  0  0  0  0
   -4.3943   -1.0030   16.8332 C   0  0  0  0  0  0  0  0  0  0  0  0
  1  2  1  1  0  0  0
  1  7  1  0  0  0  0
  1 24  1  0  0  0  0
  3  4  1  6  0  0  0
  3  9  1  0  0  0  0
  3 31  1  0  0  0  0
  5  6  1  1  0  0  0
  5 10  1  0  0  0  0
  5 28  1  0  0  0  0
  7  8  1  1  0  0  0
  7 12  1  0  0  0  0
  9 14  1  0  0  0  0
 10 11  1  1  0  0  0
 10 16  1  0  0  0  0
 12 13  1  6  0  0  0
 12 18  1  0  0  0  0
 13 35  1  0  0  0  0
 14 15  1  6  0  0  0
 14 20  1  0  0  0  0
 16 17  1  6  0  0  0
 16 21  1  0  0  0  0
 17 35  1  0  0  0  0
 18 19  1  1  0  0  0
 18 23  1  0  0  0  0
 20  2  1  1  0  0  0
 20 25  1  0  0  0  0
 21 22  1  1  0  0  0
 21 27  1  0  0  0  0
 23 24  1  0  0  0  0
 23 29  1  6  0  0  0
 25 26  1  6  0  0  0
 25 31  1  0  0  0  0
 27 28  1  0  0  0  0
 27 33  1  6  0  0  0
 29 30  1  0  0  0  0
 31 32  1  1  0  0  0
 33 34  1  0  0  0  0
M  END
>  <CHROM.1>
-177.13515176,139.26086305,106.74515873,46.97090132,141.62405234,-148.11268686
-176.63131370,-63.34770462,-4.41198151,1.16556933,18.00213475,-1.64319468
-0.69622517,-2.91066017

>  <Name>
2o3v_lig

>  <RI>
0

>  <Rbt.Current_Directory>
/home/afrankz/demos/rdock_decoys_rna/rnas/2o3v

>  <Rbt.Executable>
rbdock ($Id: //depot/dev/client3/rdock/2013.1/src/exe/rbdock.cxx#4 $)

>  <Rbt.Library>
libRbt.so (2013.1, Build901 2013/11/27)

>  <Rbt.Parameter_File>
/export/apps/rDock/src/rDock_2013.1_src/data/scripts/dock_solv.prm

>  <Rbt.Receptor>
prm/blind_docking_60.prm

>  <SCORE>
10.4463

>  <SCORE.INTER>
1.56985

>  <SCORE.INTER.CONST>
1

>  <SCORE.INTER.POLAR>
-1.24074

>  <SCORE.INTER.ROT>
8

>  <SCORE.INTER.SOLV>
31.8286

>  <SCORE.INTER.VDW>
-14.3605

>  <SCORE.INTER.norm>
0.0448528

>  <SCORE.INTRA>
8.2946

>  <SCORE.INTRA.DIHEDRAL>
8.81376

>  <SCORE.INTRA.DIHEDRAL.0>
13.1227

>  <SCORE.INTRA.POLAR>
0

>  <SCORE.INTRA.POLAR.0>
0

>  <SCORE.INTRA.REPUL>
0

>  <SCORE.INTRA.REPUL.0>
0

>  <SCORE.INTRA.SOLV>
1.2548

>  <SCORE.INTRA.SOLV.lig_0>
-89.1587

>  <SCORE.INTRA.VDW>
3.26032

>  <SCORE.INTRA.VDW.0>
-0.838383

>  <SCORE.INTRA.norm>
0.236989

>  <SCORE.RESTR>
0.581869

>  <SCORE.RESTR.CAVITY>
0.581869

>  <SCORE.RESTR.norm>
0.0166248

>  <SCORE.SYSTEM>
0

>  <SCORE.SYSTEM.CONST>
0

>  <SCORE.SYSTEM.DIHEDRAL>
0

>  <SCORE.SYSTEM.SOLV>
0

>  <SCORE.SYSTEM.norm>
0

>  <SCORE.heavy>
35

>  <SCORE.norm>
0.298466

>  <RMSD>
30.450

$$$$
2o3v_lig
 OpenBabel02141814113D
libRbt.so/2013.1/901 2013/11/27
 35 37  0  0  0  0  0  0  0  0999 V2000
   -5.5845    4.4796   17.7255 C   0  0  2  0  0  0  0  0  0  0  0  0
   -5.0954    4.3799   19.0979 O   0  0  0  0  0  0  0  0  0  0  0  0
   -4.8627    6.9326   22.6131 C   0  0  2  0  0  0  0  0  0  0  0  0
   -4.5069    8.0755   23.5073 N   0  0  0  0  0  0  0  0  0  0  0  0
   -1.7717   -4.0352   15.9722 C   0  0  2  0  0  0  0  0  0  0  0  0
   -0.8769   -3.7260   17.0628 O   0  0  0  0  0  0  0  0  0  0  0  0
   -5.9998    3.0122   17.3898 C   0  0  2  0  0  0  0  0  0  0  0  0
   -7.0299    2.5177   18.3336 N   0  0  0  0  0  0  0  0  0  0  0  0
   -3.5473    6.1688   22.1529 C   0  0  0  0  0  0  0  0  0  0  0  0
   -2.7856   -2.8462   15.8433 C   0  0  2  0  0  0  0  0  0  0  0  0
   -2.0745   -1.5615   15.6224 N   0  0  0  0  0  0  0  0  0  0  0  0
   -4.7464    2.0333   17.4021 C   0  0  1  0  0  0  0  0  0  0  0  0
   -5.1689    0.6359   17.1244 O   0  0  0  0  0  0  0  0  0  0  0  0
   -3.9524    4.9664   21.1946 C   0  0  2  0  0  0  0  0  0  0  0  0
   -2.7404    4.2485   20.7450 N   0  0  0  0  0  0  0  0  0  0  0  0
   -3.7318   -2.7427   17.1195 C   0  0  1  0  0  0  0  0  0  0  0  0
   -4.7032   -1.6704   17.0123 O   0  0  0  0  0  0  0  0  0  0  0  0
   -3.6815    2.6101   16.3691 C   0  0  2  0  0  0  0  0  0  0  0  0
   -2.5124    1.8116   16.3295 O   0  0  0  0  0  0  0  0  0  0  0  0
   -4.7488    5.5191   19.9418 C   0  0  2  0  0  0  0  0  0  0  0  0
   -4.4670   -4.1081   17.3031 C   0  0  2  0  0  0  0  0  0  0  0  0
   -5.3171   -4.0785   18.4327 O   0  0  0  0  0  0  0  0  0  0  0  0
   -3.3028    4.0953   16.7358 C   0  0  2  0  0  0  0  0  0  0  0  0
   -4.5242    4.9263   16.7805 O   0  0  0  0  0  0  0  0  0  0  0  0
   -6.0301    6.2698   20.4012 C   0  0  2  0  0  0  0  0  0  0  0  0
   -6.6861    6.7817   19.2059 O   0  0  0  0  0  0  0  0  0  0  0  0
   -3.4105   -5.2779   17.4242 C   0  0  2  0  0  0  0  0  0  0  0  0
   -2.5218   -5.2922   16.2397 O   0  0  0  0  0  0  0  0  0  0  0  0
   -2.3088    4.6858   15.7367 C   0  0  0  0  0  0  0  0  0  0  0  0
   -1.9196    5.9834   16.1159 O   0  0  0  0  0  0  0  0  0  0  0  0
   -5.6409    7.4384   21.3366 C   0  0  1  0  0  0  0  0  0  0  0  0
   -6.8209    8.0991   21.7432 O   0  0  0  0  0  0  0  0  0  0  0  0
   -4.0821   -6.6359   17.5611 C   0  0  0  0  0  0  0  0  0  0  0  0
   -3.1163   -7.6575   17.6213 O   0  0  0  0  0  0  0  0  0  0  0  0
   -4.0649   -0.3851   17.2687 C   0  0  0  0  0  0  0  0  0  0  0  0
  1  2  1  1  0  0  0
  1  7  1  0  0  0  0
  1 24  1  0  0  0  0
  3  4  1  1  0  0  0
  3  9  1  0  0  0  0
  3 31  1  0  0  0  0
  5  6  1  1  0  0  0
  5 10  1  0  0  0  0
  5 28  1  0  0  0  0
  7  8  1  1  0  0  0
  7 12  1  0  0  0  0
  9 14  1  0  0  0  0
 10 11  1  1  0  0  0
 10 16  1  0  0  0  0
 12 13  1  6  0  0  0
 12 18  1  0  0  0  0
 13 35  1  0  0  0  0
 14 15  1  6  0  0  0
 14 20  1  0  0  0  0
 16 17  1  6  0  0  0
 16 21  1  0  0  0  0
 17 35  1  0  0  0  0
 18 19  1  1  0  0  0
 18 23  1  0  0  0  0
 20  2  1  6  0  0  0
 20 25  1  0  0  0  0
 21 22  1  1  0  0  0
 21 27  1  0  0  0  0
 23 24  1  0  0  0  0
 23 29  1  6  0  0  0
 25 26  1  6  0  0  0
 25 31  1  0  0  0  0
 27 28  1  0  0  0  0
 27 33  1  6  0  0  0
 29 30  1  0  0  0  0
 31 32  1  1  0  0  0
 33 34  1  0  0  0  0
M  END
>  <CHROM.1>
-171.50640159,-173.52948546,177.63091223,-76.93899460,179.84868733,-166.75363109
-176.62563058,178.02964572,-4.11718410,1.54565268,18.21512204,-1.91176650
-1.09528145,3.13998732

>  <Name>
2o3v_lig

>  <RI>
0

>  <Rbt.Current_Directory>
/home/afrankz/demos/rdock_decoys_rna/rnas/2o3v

>  <Rbt.Executable>
rbdock ($Id: //depot/dev/client3/rdock/2013.1/src/exe/rbdock.cxx#4 $)

>  <Rbt.Library>
libRbt.so (2013.1, Build901 2013/11/27)

>  <Rbt.Parameter_File>
/export/apps/rDock/src/rDock_2013.1_src/data/scripts/dock_solv.prm

>  <Rbt.Receptor>
prm/blind_docking_40.prm

>  <SCORE>
-3.98391

>  <SCORE.INTER>
0.261295

>  <SCORE.INTER.CONST>
1

>  <SCORE.INTER.POLAR>
-0.441032

>  <SCORE.INTER.ROT>
8

>  <SCORE.INTER.SOLV>
32.3909

>  <SCORE.INTER.VDW>
-18.086

>  <SCORE.INTER.norm>
0.00746558

>  <SCORE.INTRA>
-5.11233

>  <SCORE.INTRA.DIHEDRAL>
-10.2794

>  <SCORE.INTRA.DIHEDRAL.0>
13.1227

>  <SCORE.INTRA.POLAR>
0

>  <SCORE.INTRA.POLAR.0>
0

>  <SCORE.INTRA.REPUL>
0.228176

>  <SCORE.INTRA.REPUL.0>
0

>  <SCORE.INTRA.SOLV>
-0.0801332

>  <SCORE.INTRA.SOLV.lig_0>
-89.1587

>  <SCORE.INTRA.VDW>
-1.07342

>  <SCORE.INTRA.VDW.0>
-0.838383

>  <SCORE.INTRA.norm>
-0.146067

>  <SCORE.RESTR>
0.867124

>  <SCORE.RESTR.CAVITY>
0.867124

>  <SCORE.RESTR.norm>
0.024775

>  <SCORE.SYSTEM>
0

>  <SCORE.SYSTEM.CONST>
0

>  <SCORE.SYSTEM.DIHEDRAL>
0

>  <SCORE.SYSTEM.SOLV>
0

>  <SCORE.SYSTEM.norm>
0

>  <SCORE.heavy>
35

>  <SCORE.norm>
-0.113826

>  <RMSD>
30.457

$$$$
2o3v_lig
 OpenBabel02141814113D
libRbt.so/2013.1/901 2013/11/27
 35 37  0  0  0  0  0  0  0  0999 V2000
   -2.5328    4.1562   16.2043 C   0  0  2  0  0  0  0  0  0  0  0  0
   -3.8776    4.6724   15.9638 O   0  0  0  0  0  0  0  0  0  0  0  0
   -6.9424    2.0821   17.6445 C   0  0  2  0  0  0  0  0  0  0  0  0
   -8.1964    1.2811   17.7784 N   0  0  0  0  0  0  0  0  0  0  0  0
   -5.3639    8.6493   23.4796 C   0  0  2  0  0  0  0  0  0  0  0  0
   -6.1278    9.0379   22.3172 O   0  0  0  0  0  0  0  0  0  0  0  0
   -2.3984    4.2280   17.7583 C   0  0  2  0  0  0  0  0  0  0  0  0
   -3.4509    3.4254   18.4249 N   0  0  0  0  0  0  0  0  0  0  0  0
   -7.2946    3.6163   17.4263 C   0  0  0  0  0  0  0  0  0  0  0  0
   -4.1245    7.8313   22.9766 C   0  0  2  0  0  0  0  0  0  0  0  0
   -3.3096    8.6295   22.0260 N   0  0  0  0  0  0  0  0  0  0  0  0
   -2.4565    5.7291   18.2807 C   0  0  1  0  0  0  0  0  0  0  0  0
   -2.3716    5.7725   19.7637 O   0  0  0  0  0  0  0  0  0  0  0  0
   -5.9450    4.4434   17.2753 C   0  0  2  0  0  0  0  0  0  0  0  0
   -6.2508    5.8739   17.0595 N   0  0  0  0  0  0  0  0  0  0  0  0
   -4.5637    6.4545   22.3083 C   0  0  1  0  0  0  0  0  0  0  0  0
   -3.4336    5.6611   21.8634 O   0  0  0  0  0  0  0  0  0  0  0  0
   -1.3038    6.5370   17.5376 C   0  0  2  0  0  0  0  0  0  0  0  0
   -1.2939    7.8996   17.9237 O   0  0  0  0  0  0  0  0  0  0  0  0
   -5.1008    3.8818   16.0582 C   0  0  2  0  0  0  0  0  0  0  0  0
   -5.4037    5.6456   23.3468 C   0  0  2  0  0  0  0  0  0  0  0  0
   -5.8320    4.4127   22.8027 O   0  0  0  0  0  0  0  0  0  0  0  0
   -1.4690    6.4252   15.9743 C   0  0  2  0  0  0  0  0  0  0  0  0
   -1.4831    5.0027   15.5733 O   0  0  0  0  0  0  0  0  0  0  0  0
   -4.7661    2.3797   16.2769 C   0  0  2  0  0  0  0  0  0  0  0  0
   -4.0281    1.9239   15.1070 O   0  0  0  0  0  0  0  0  0  0  0  0
   -6.6383    6.5066   23.8304 C   0  0  2  0  0  0  0  0  0  0  0  0
   -6.1766    7.7977   24.3898 O   0  0  0  0  0  0  0  0  0  0  0  0
   -0.3523    7.1620   15.2361 C   0  0  0  0  0  0  0  0  0  0  0  0
    0.9057    6.6106   15.5397 O   0  0  0  0  0  0  0  0  0  0  0  0
   -6.0763    1.5717   16.4278 C   0  0  1  0  0  0  0  0  0  0  0  0
   -5.7448    0.2141   16.6305 O   0  0  0  0  0  0  0  0  0  0  0  0
   -7.4636    5.7750   24.8780 C   0  0  0  0  0  0  0  0  0  0  0  0
   -8.0038    4.5925   24.3397 O   0  0  0  0  0  0  0  0  0  0  0  0
   -3.6095    5.2711   20.4698 C   0  0  0  0  0  0  0  0  0  0  0  0
  1  2  1  1  0  0  0
  1  7  1  0  0  0  0
  1 24  1  0  0  0  0
  3  4  1  6  0  0  0
  3  9  1  0  0  0  0
  3 31  1  0  0  0  0
  5  6  1  6  0  0  0
  5 10  1  0  0  0  0
  5 28  1  0  0  0  0
  7  8  1  1  0  0  0
  7 12  1  0  0  0  0
  9 14  1  0  0  0  0
 10 11  1  6  0  0  0
 10 16  1  0  0  0  0
 12 13  1  1  0  0  0
 12 18  1  0  0  0  0
 13 35  1  0  0  0  0
 14 15  1  6  0  0  0
 14 20  1  0  0  0  0
 16 17  1  1  0  0  0
 16 21  1  0  0  0  0
 17 35  1  0  0  0  0
 18 19  1  1  0  0  0
 18 23  1  0  0  0  0
 20  2  1  1  0  0  0
 20 25  1  0  0  0  0
 21 22  1  6  0  0  0
 21 27  1  0  0  0  0
 23 24  1  0  0  0  0
 23 29  1  6  0  0  0
 25 26  1  6  0  0  0
 25 31  1  0  0  0  0
 27 28  1  0  0  0  0
 27 33  1  1  0  0  0
 29 30  1  0  0  0  0
 31 32  1  1  0  0  0
 33 34  1  0  0  0  0
M  END
>  <CHROM.1>
-83.07259800,-71.23324940,-168.24329207,-127.95338834,124.28929166,113.82281631
61.57766083,-62.25174662,-4.33794982,5.18399809,19.18143153,-1.13491394,0.65427396
0.95672081

>  <Name>
2o3v_lig

>  <RI>
0

>  <Rbt.Current_Directory>
/home/afrankz/demos/rdock_decoys_rna/rnas/2o3v

>  <Rbt.Executable>
rbdock ($Id: //depot/dev/client3/rdock/2013.1/src/exe/rbdock.cxx#4 $)

>  <Rbt.Library>
libRbt.so (2013.1, Build901 2013/11/27)

>  <Rbt.Parameter_File>
/export/apps/rDock/src/rDock_2013.1_src/data/scripts/dock_solv.prm

>  <Rbt.Receptor>
prm/blind_docking_80.prm

>  <SCORE>
-1.33532

>  <SCORE.INTER>
-10.1217

>  <SCORE.INTER.CONST>
1

>  <SCORE.INTER.POLAR>
-1.36664

>  <SCORE.INTER.ROT>
8

>  <SCORE.INTER.SOLV>
30.6568

>  <SCORE.INTER.VDW>
-21.3446

>  <SCORE.INTER.norm>
-0.28919

>  <SCORE.INTRA>
8.15807

>  <SCORE.INTRA.DIHEDRAL>
11.5359

>  <SCORE.INTRA.DIHEDRAL.0>
13.1227

>  <SCORE.INTRA.POLAR>
0

>  <SCORE.INTRA.POLAR.0>
0

>  <SCORE.INTRA.REPUL>
0

>  <SCORE.INTRA.REPUL.0>
0

>  <SCORE.INTRA.SOLV>
5.4213

>  <SCORE.INTRA.SOLV.lig_0>
-89.1587

>  <SCORE.INTRA.VDW>
-0.320524

>  <SCORE.INTRA.VDW.0>
-0.838383

>  <SCORE.INTRA.norm>
0.233088

>  <SCORE.RESTR>
0.628264

>  <SCORE.RESTR.CAVITY>
0.628264

>  <SCORE.RESTR.norm>
0.0179504

>  <SCORE.SYSTEM>
0

>  <SCORE.SYSTEM.CONST>
0

>  <SCORE.SYSTEM.DIHEDRAL>
0

>  <SCORE.SYSTEM.SOLV>
0

>  <SCORE.SYSTEM.norm>
0

>  <SCORE.heavy>
35

>  <SCORE.norm>
-0.0381521

>  <RMSD>
30.479

$$$$
2o3v_lig
 OpenBabel02141814113D
libRbt.so/2013.1/901 2013/11/27
 35 37  0  0  0  0  0  0  0  0999 V2000
   -4.2960   -5.8453   18.1210 C   0  0  2  0  0  0  0  0  0  0  0  0
   -5.6853   -5.4362   18.3087 O   0  0  0  0  0  0  0  0  0  0  0  0
   -9.3885   -7.7025   18.5869 C   0  0  2  0  0  0  0  0  0  0  0  0
  -10.4677   -8.5836   19.1267 N   0  0  0  0  0  0  0  0  0  0  0  0
   -4.3628    3.8984   16.7258 C   0  0  2  0  0  0  0  0  0  0  0  0
   -4.1357    3.9440   15.3004 O   0  0  0  0  0  0  0  0  0  0  0  0
   -3.5101   -4.5026   18.2550 C   0  0  2  0  0  0  0  0  0  0  0  0
   -3.7509   -3.8701   19.5734 N   0  0  0  0  0  0  0  0  0  0  0  0
   -8.0220   -8.5080   18.4914 C   0  0  0  0  0  0  0  0  0  0  0  0
   -3.5660    2.6719   17.2906 C   0  0  2  0  0  0  0  0  0  0  0  0
   -2.1206    2.7816   16.9684 N   0  0  0  0  0  0  0  0  0  0  0  0
   -3.8909   -3.4848   17.0937 C   0  0  1  0  0  0  0  0  0  0  0  0
   -3.1663   -2.1986   17.2645 O   0  0  0  0  0  0  0  0  0  0  0  0
   -6.8894   -7.5458   17.9261 C   0  0  2  0  0  0  0  0  0  0  0  0
   -5.6050   -8.2735   17.8400 N   0  0  0  0  0  0  0  0  0  0  0  0
   -4.1508    1.2939   16.7485 C   0  0  1  0  0  0  0  0  0  0  0  0
   -3.4527    0.1394   17.2820 O   0  0  0  0  0  0  0  0  0  0  0  0
   -3.6060   -4.2147   15.7082 C   0  0  2  0  0  0  0  0  0  0  0  0
   -3.9410   -3.3880   14.6081 O   0  0  0  0  0  0  0  0  0  0  0  0
   -6.7329   -6.2833   18.8700 C   0  0  2  0  0  0  0  0  0  0  0  0
   -5.6651    1.2174   17.1220 C   0  0  2  0  0  0  0  0  0  0  0  0
   -6.2427    0.0143   16.6546 O   0  0  0  0  0  0  0  0  0  0  0  0
   -4.4057   -5.5700   15.6219 C   0  0  2  0  0  0  0  0  0  0  0  0
   -4.0580   -6.4299   16.7726 O   0  0  0  0  0  0  0  0  0  0  0  0
   -8.0752   -5.5050   18.9628 C   0  0  2  0  0  0  0  0  0  0  0  0
   -7.8678   -4.3874   19.8733 O   0  0  0  0  0  0  0  0  0  0  0  0
   -6.4290    2.4724   16.5384 C   0  0  2  0  0  0  0  0  0  0  0  0
   -5.8092    3.7248   17.0287 O   0  0  0  0  0  0  0  0  0  0  0  0
   -4.1207   -6.3096   14.3156 C   0  0  0  0  0  0  0  0  0  0  0  0
   -2.8295   -6.8679   14.3206 O   0  0  0  0  0  0  0  0  0  0  0  0
   -9.1808   -6.4384   19.5089 C   0  0  1  0  0  0  0  0  0  0  0  0
  -10.3887   -5.7101   19.5780 O   0  0  0  0  0  0  0  0  0  0  0  0
   -7.9029    2.4640   16.9148 C   0  0  0  0  0  0  0  0  0  0  0  0
   -8.0710    1.9940   18.2304 O   0  0  0  0  0  0  0  0  0  0  0  0
   -3.7608   -1.0454   16.4906 C   0  0  0  0  0  0  0  0  0  0  0  0
  1  2  1  6  0  0  0
  1  7  1  0  0  0  0
  1 24  1  0  0  0  0
  3  4  1  1  0  0  0
  3  9  1  0  0  0  0
  3 31  1  0  0  0  0
  5  6  1  6  0  0  0
  5 10  1  0  0  0  0
  5 28  1  0  0  0  0
  7  8  1  1  0  0  0
  7 12  1  0  0  0  0
  9 14  1  0  0  0  0
 10 11  1  6  0  0  0
 10 16  1  0  0  0  0
 12 13  1  1  0  0  0
 12 18  1  0  0  0  0
 13 35  1  0  0  0  0
 14 15  1  1  0  0  0
 14 20  1  0  0  0  0
 16 17  1  1  0  0  0
 16 21  1  0  0  0  0
 17 35  1  0  0  0  0
 18 19  1  6  0  0  0
 18 23  1  0  0  0  0
 20  2  1  6  0  0  0
 20 25  1  0  0  0  0
 21 22  1  6  0  0  0
 21 27  1  0  0  0  0
 23 24  1  0  0  0  0
 23 29  1  6  0  0  0
 25 26  1  1  0  0  0
 25 31  1  0  0  0  0
 27 28  1  0  0  0  0
 27 33  1  1  0  0  0
 29 30  1  0  0  0  0
 31 32  1  6  0  0  0
 33 34  1  0  0  0  0
M  END
>  <CHROM.1>
-150.70146829,-162.09847257,149.96570643,-164.11439569,-171.17487988,-61.03096313
72.73289676,38.29712833,-5.58088045,-2.85491405,17.35405516,-1.84029453,0.47817823
-0.01980378

>  <Name>
2o3v_lig

>  <RI>
0

>  <Rbt.Current_Directory>
/home/afrankz/demos/rdock_decoys_rna/rnas/2o3v

>  <Rbt.Executable>
rbdock ($Id: //depot/dev/client3/rdock/2013.1/src/exe/rbdock.cxx#4 $)

>  <Rbt.Library>
libRbt.so (2013.1, Build901 2013/11/27)

>  <Rbt.Parameter_File>
/export/apps/rDock/src/rDock_2013.1_src/data/scripts/dock_solv.prm

>  <Rbt.Receptor>
prm/blind_docking_60.prm

>  <SCORE>
-8.34869

>  <SCORE.INTER>
-11.214

>  <SCORE.INTER.CONST>
1

>  <SCORE.INTER.POLAR>
-1.24263

>  <SCORE.INTER.ROT>
8

>  <SCORE.INTER.SOLV>
18.411

>  <SCORE.INTER.VDW>
-18.4042

>  <SCORE.INTER.norm>
-0.3204

>  <SCORE.INTRA>
0.515429

>  <SCORE.INTRA.DIHEDRAL>
-0.91014

>  <SCORE.INTRA.DIHEDRAL.0>
13.1227

>  <SCORE.INTRA.POLAR>
0

>  <SCORE.INTRA.POLAR.0>
0

>  <SCORE.INTRA.REPUL>
0

>  <SCORE.INTRA.REPUL.0>
0

>  <SCORE.INTRA.SOLV>
1.61882

>  <SCORE.INTRA.SOLV.lig_0>
-89.1587

>  <SCORE.INTRA.VDW>
0.161091

>  <SCORE.INTRA.VDW.0>
-0.838383

>  <SCORE.INTRA.norm>
0.0147265

>  <SCORE.RESTR>
2.34988

>  <SCORE.RESTR.CAVITY>
2.34988

>  <SCORE.RESTR.norm>
0.0671393

>  <SCORE.SYSTEM>
0

>  <SCORE.SYSTEM.CONST>
0

>  <SCORE.SYSTEM.DIHEDRAL>
0

>  <SCORE.SYSTEM.SOLV>
0

>  <SCORE.SYSTEM.norm>
0

>  <SCORE.heavy>
35

>  <SCORE.norm>
-0.238534

>  <RMSD>
30.517

$$$$
2o3v_lig
 OpenBabel02141814113D
libRbt.so/2013.1/901 2013/11/27
 35 37  0  0  0  0  0  0  0  0999 V2000
   -3.4834   -4.8328   17.5673 C   0  0  2  0  0  0  0  0  0  0  0  0
   -4.7771   -4.3265   18.0177 O   0  0  0  0  0  0  0  0  0  0  0  0
   -6.7941   -7.7165   19.8526 C   0  0  2  0  0  0  0  0  0  0  0  0
   -7.8742   -8.5794   20.4192 N   0  0  0  0  0  0  0  0  0  0  0  0
   -4.4436    4.5606   16.9085 C   0  0  2  0  0  0  0  0  0  0  0  0
   -4.2674    4.8236   15.4995 O   0  0  0  0  0  0  0  0  0  0  0  0
   -2.5768   -3.5616   17.5938 C   0  0  2  0  0  0  0  0  0  0  0  0
   -2.5226   -2.9703   18.9516 N   0  0  0  0  0  0  0  0  0  0  0  0
   -6.6709   -6.3732   20.6926 C   0  0  0  0  0  0  0  0  0  0  0  0
   -3.4222    3.4407   17.3098 C   0  0  2  0  0  0  0  0  0  0  0  0
   -2.0301    3.8530   16.9982 N   0  0  0  0  0  0  0  0  0  0  0  0
   -3.0741   -2.4680   16.5516 C   0  0  1  0  0  0  0  0  0  0  0  0
   -2.2258   -1.2500   16.6238 O   0  0  0  0  0  0  0  0  0  0  0  0
   -5.5242   -5.4692   20.0628 C   0  0  2  0  0  0  0  0  0  0  0  0
   -5.4007   -4.2073   20.8236 N   0  0  0  0  0  0  0  0  0  0  0  0
   -3.7616    2.0569   16.5994 C   0  0  1  0  0  0  0  0  0  0  0  0
   -2.8512    0.9931   16.9791 O   0  0  0  0  0  0  0  0  0  0  0  0
   -3.1054   -3.1567   15.1169 C   0  0  2  0  0  0  0  0  0  0  0  0
   -3.5627   -2.2597   14.1209 O   0  0  0  0  0  0  0  0  0  0  0  0
   -5.8560   -5.1554   18.5460 C   0  0  2  0  0  0  0  0  0  0  0  0
   -5.2262    1.6579   16.9662 C   0  0  2  0  0  0  0  0  0  0  0  0
   -5.5881    0.4367   16.3521 O   0  0  0  0  0  0  0  0  0  0  0  0
   -4.0179   -4.4415   15.1394 C   0  0  2  0  0  0  0  0  0  0  0  0
   -3.5418   -5.3748   16.1819 O   0  0  0  0  0  0  0  0  0  0  0  0
   -5.9809   -6.4746   17.7334 C   0  0  2  0  0  0  0  0  0  0  0  0
   -6.3244   -6.1117   16.3654 O   0  0  0  0  0  0  0  0  0  0  0  0
   -6.2209    2.8140   16.5498 C   0  0  2  0  0  0  0  0  0  0  0  0
   -5.8257    4.0881   17.1927 O   0  0  0  0  0  0  0  0  0  0  0  0
   -4.0355   -5.1434   13.7823 C   0  0  0  0  0  0  0  0  0  0  0  0
   -4.9317   -6.2276   13.7840 O   0  0  0  0  0  0  0  0  0  0  0  0
   -7.0930   -7.3587   18.3448 C   0  0  1  0  0  0  0  0  0  0  0  0
   -7.1819   -8.5508   17.5931 O   0  0  0  0  0  0  0  0  0  0  0  0
   -7.6579    2.4885   16.9279 C   0  0  0  0  0  0  0  0  0  0  0  0
   -7.7335    2.0942   18.2766 O   0  0  0  0  0  0  0  0  0  0  0  0
   -2.8238   -0.0379   15.9488 C   0  0  0  0  0  0  0  0  0  0  0  0
  1  2  1  6  0  0  0
  1  7  1  0  0  0  0
  1 24  1  0  0  0  0
  3  4  1  1  0  0  0
  3  9  1  0  0  0  0
  3 31  1  0  0  0  0
  5  6  1  6  0  0  0
  5 10  1  0  0  0  0
  5 28  1  0  0  0  0
  7  8  1  1  0  0  0
  7 12  1  0  0  0  0
  9 14  1  0  0  0  0
 10 11  1  6  0  0  0
 10 16  1  0  0  0  0
 12 13  1  6  0  0  0
 12 18  1  0  0  0  0
 13 35  1  0  0  0  0
 14 15  1  1  0  0  0
 14 20  1  0  0  0  0
 16 17  1  1  0  0  0
 16 21  1  0  0  0  0
 17 35  1  0  0  0  0
 18 19  1  6  0  0  0
 18 23  1  0  0  0  0
 20  2  1  6  0  0  0
 20 25  1  0  0  0  0
 21 22  1  6  0  0  0
 21 27  1  0  0  0  0
 23 24  1  0  0  0  0
 23 29  1  6  0  0  0
 25 26  1  6  0  0  0
 25 31  1  0  0  0  0
 27 28  1  0  0  0  0
 27 33  1  1  0  0  0
 29 30  1  0  0  0  0
 31 32  1  6  0  0  0
 33 34  1  0  0  0  0
M  END
>  <CHROM.1>
-160.83112963,-164.79123893,124.34635173,-156.29903309,-162.43587423,80.27749012
-175.45914191,50.47029351,-4.81915012,-2.22378360,17.16721449,-1.78575362
0.83832112,0.01445368

>  <Name>
2o3v_lig

>  <RI>
0

>  <Rbt.Current_Directory>
/home/afrankz/demos/rdock_decoys_rna/rnas/2o3v

>  <Rbt.Executable>
rbdock ($Id: //depot/dev/client3/rdock/2013.1/src/exe/rbdock.cxx#4 $)

>  <Rbt.Library>
libRbt.so (2013.1, Build901 2013/11/27)

>  <Rbt.Parameter_File>
/export/apps/rDock/src/rDock_2013.1_src/data/scripts/dock_solv.prm

>  <Rbt.Receptor>
prm/blind_docking_60.prm

>  <SCORE>
-17.3821

>  <SCORE.INTER>
-20.017

>  <SCORE.INTER.CONST>
1

>  <SCORE.INTER.POLAR>
-2.95994

>  <SCORE.INTER.ROT>
8

>  <SCORE.INTER.SOLV>
20.0119

>  <SCORE.INTER.VDW>
-19.0821

>  <SCORE.INTER.norm>
-0.571913

>  <SCORE.INTRA>
0.215662

>  <SCORE.INTRA.DIHEDRAL>
2.85943

>  <SCORE.INTRA.DIHEDRAL.0>
13.1227

>  <SCORE.INTRA.POLAR>
0

>  <SCORE.INTRA.POLAR.0>
0

>  <SCORE.INTRA.REPUL>
0

>  <SCORE.INTRA.REPUL.0>
0

>  <SCORE.INTRA.SOLV>
1.10149

>  <SCORE.INTRA.SOLV.lig_0>
-89.1587

>  <SCORE.INTRA.VDW>
-1.7648

>  <SCORE.INTRA.VDW.0>
-0.838383

>  <SCORE.INTRA.norm>
0.00616177

>  <SCORE.RESTR>
2.41924

>  <SCORE.RESTR.CAVITY>
2.41924

>  <SCORE.RESTR.norm>
0.0691211

>  <SCORE.SYSTEM>
0

>  <SCORE.SYSTEM.CONST>
0

>  <SCORE.SYSTEM.DIHEDRAL>
0

>  <SCORE.SYSTEM.SOLV>
0

>  <SCORE.SYSTEM.norm>
0

>  <SCORE.heavy>
35

>  <SCORE.norm>
-0.49663

>  <RMSD>
30.519

$$$$
2o3v_lig
 OpenBabel02141814113D
libRbt.so/2013.1/901 2013/11/27
 35 37  0  0  0  0  0  0  0  0999 V2000
   -5.0981   -6.2500   18.3568 C   0  0  2  0  0  0  0  0  0  0  0  0
   -6.4061   -5.9702   17.7704 O   0  0  0  0  0  0  0  0  0  0  0  0
  -10.5419   -7.1999   18.3271 C   0  0  2  0  0  0  0  0  0  0  0  0
  -11.7568   -8.0636   18.4290 N   0  0  0  0  0  0  0  0  0  0  0  0
   -4.1468    3.4855   16.4359 C   0  0  2  0  0  0  0  0  0  0  0  0
   -4.1573    3.2550   15.0103 O   0  0  0  0  0  0  0  0  0  0  0  0
   -4.5937   -4.8367   18.7885 C   0  0  2  0  0  0  0  0  0  0  0  0
   -5.5304   -4.2029   19.7462 N   0  0  0  0  0  0  0  0  0  0  0  0
   -9.9191   -7.3028   16.8687 C   0  0  0  0  0  0  0  0  0  0  0  0
   -3.4417    2.2561   17.1066 C   0  0  2  0  0  0  0  0  0  0  0  0
   -2.0694    2.0714   16.5704 N   0  0  0  0  0  0  0  0  0  0  0  0
   -4.3832   -3.8832   17.5330 C   0  0  1  0  0  0  0  0  0  0  0  0
   -3.9462   -2.5312   17.9682 O   0  0  0  0  0  0  0  0  0  0  0  0
   -8.6230   -6.3849   16.7907 C   0  0  2  0  0  0  0  0  0  0  0  0
   -8.0205   -6.4752   15.4434 N   0  0  0  0  0  0  0  0  0  0  0  0
   -4.2915    0.9223   16.9236 C   0  0  1  0  0  0  0  0  0  0  0  0
   -3.6782   -0.2261   17.5639 O   0  0  0  0  0  0  0  0  0  0  0  0
   -3.3672   -4.6111   16.5473 C   0  0  2  0  0  0  0  0  0  0  0  0
   -3.1362   -3.8423   15.3805 O   0  0  0  0  0  0  0  0  0  0  0  0
   -7.5717   -6.8411   17.8844 C   0  0  2  0  0  0  0  0  0  0  0  0
   -5.7181    1.1591   17.5129 C   0  0  2  0  0  0  0  0  0  0  0  0
   -6.5244    0.0064   17.3682 O   0  0  0  0  0  0  0  0  0  0  0  0
   -3.9073   -6.0373   16.1500 C   0  0  2  0  0  0  0  0  0  0  0  0
   -4.1515   -6.8369   17.3688 O   0  0  0  0  0  0  0  0  0  0  0  0
   -8.1910   -6.7433   19.3068 C   0  0  2  0  0  0  0  0  0  0  0  0
   -7.1871   -7.2137   20.2512 O   0  0  0  0  0  0  0  0  0  0  0  0
   -6.3903    2.4076   16.8140 C   0  0  2  0  0  0  0  0  0  0  0  0
   -5.5323    3.6049   16.9656 O   0  0  0  0  0  0  0  0  0  0  0  0
   -2.9318   -6.7732   15.2326 C   0  0  0  0  0  0  0  0  0  0  0  0
   -3.5466   -7.8828   14.6246 O   0  0  0  0  0  0  0  0  0  0  0  0
   -9.4543   -7.6320   19.3861 C   0  0  1  0  0  0  0  0  0  0  0  0
   -9.9996   -7.5211   20.6840 O   0  0  0  0  0  0  0  0  0  0  0  0
   -7.7676    2.7044   17.3875 C   0  0  0  0  0  0  0  0  0  0  0  0
   -8.5574    1.5399   17.3960 O   0  0  0  0  0  0  0  0  0  0  0  0
   -4.1197   -1.4572   16.9200 C   0  0  0  0  0  0  0  0  0  0  0  0
  1  2  1  6  0  0  0
  1  7  1  0  0  0  0
  1 24  1  0  0  0  0
  3  4  1  6  0  0  0
  3  9  1  0  0  0  0
  3 31  1  0  0  0  0
  5  6  1  6  0  0  0
  5 10  1  0  0  0  0
  5 28  1  0  0  0  0
  7  8  1  1  0  0  0
  7 12  1  0  0  0  0
  9 14  1  0  0  0  0
 10 11  1  6  0  0  0
 10 16  1  0  0  0  0
 12 13  1  1  0  0  0
 12 18  1  0  0  0  0
 13 35  1  0  0  0  0
 14 15  1  6  0  0  0
 14 20  1  0  0  0  0
 16 17  1  1  0  0  0
 16 21  1  0  0  0  0
 17 35  1  0  0  0  0
 18 19  1  6  0  0  0
 18 23  1  0  0  0  0
 20  2  1  1  0  0  0
 20 25  1  0  0  0  0
 21 22  1  6  0  0  0
 21 27  1  0  0  0  0
 23 24  1  0  0  0  0
 23 29  1  6  0  0  0
 25 26  1  1  0  0  0
 25 31  1  0  0  0  0
 27 28  1  0  0  0  0
 27 33  1  1  0  0  0
 29 30  1  0  0  0  0
 31 32  1  1  0  0  0
 33 34  1  0  0  0  0
M  END
>  <CHROM.1>
-143.95155427,-162.50989051,178.16917374,-155.31475636,-155.98726756,-164.21160661
-165.56487875,-50.97431697,-5.94228956,-3.21322358,17.38717544,-1.91579302
0.34724652,-0.02226444

>  <Name>
2o3v_lig

>  <RI>
0

>  <Rbt.Current_Directory>
/home/afrankz/demos/rdock_decoys_rna/rnas/2o3v

>  <Rbt.Executable>
rbdock ($Id: //depot/dev/client3/rdock/2013.1/src/exe/rbdock.cxx#4 $)

>  <Rbt.Library>
libRbt.so (2013.1, Build901 2013/11/27)

>  <Rbt.Parameter_File>
/export/apps/rDock/src/rDock_2013.1_src/data/scripts/dock_solv.prm

>  <Rbt.Receptor>
prm/blind_docking_100.prm

>  <SCORE>
-12.8182

>  <SCORE.INTER>
-13.4435

>  <SCORE.INTER.CONST>
1

>  <SCORE.INTER.POLAR>
-1.44752

>  <SCORE.INTER.ROT>
8

>  <SCORE.INTER.SOLV>
19.6247

>  <SCORE.INTER.VDW>
-19.6122

>  <SCORE.INTER.norm>
-0.3841

>  <SCORE.INTRA>
-0.817781

>  <SCORE.INTRA.DIHEDRAL>
0.329055

>  <SCORE.INTRA.DIHEDRAL.0>
13.1227

>  <SCORE.INTRA.POLAR>
0

>  <SCORE.INTRA.POLAR.0>
0

>  <SCORE.INTRA.REPUL>
0

>  <SCORE.INTRA.REPUL.0>
0

>  <SCORE.INTRA.SOLV>
-0.0854449

>  <SCORE.INTRA.SOLV.lig_0>
-89.1587

>  <SCORE.INTRA.VDW>
-0.939586

>  <SCORE.INTRA.VDW.0>
-0.838383

>  <SCORE.INTRA.norm>
-0.0233652

>  <SCORE.RESTR>
1.44313

>  <SCORE.RESTR.CAVITY>
1.44313

>  <SCORE.RESTR.norm>
0.0412322

>  <SCORE.SYSTEM>
0

>  <SCORE.SYSTEM.CONST>
0

>  <SCORE.SYSTEM.DIHEDRAL>
0

>  <SCORE.SYSTEM.SOLV>
0

>  <SCORE.SYSTEM.norm>
0

>  <SCORE.heavy>
35

>  <SCORE.norm>
-0.366233

>  <RMSD>
30.542

$$$$
2o3v_lig
 OpenBabel02141814113D
libRbt.so/2013.1/901 2013/11/27
 35 37  0  0  0  0  0  0  0  0999 V2000
   -2.6967    2.1595   16.3497 C   0  0  2  0  0  0  0  0  0  0  0  0
   -3.7281    1.2517   16.8447 O   0  0  0  0  0  0  0  0  0  0  0  0
   -3.7763   -3.0985   16.8741 C   0  0  2  0  0  0  0  0  0  0  0  0
   -3.9834   -4.5114   16.4346 N   0  0  0  0  0  0  0  0  0  0  0  0
   -3.2535    6.6360   22.4488 C   0  0  2  0  0  0  0  0  0  0  0  0
   -2.7247    7.7376   21.6791 O   0  0  0  0  0  0  0  0  0  0  0  0
   -2.7636    3.3532   17.3542 C   0  0  2  0  0  0  0  0  0  0  0  0
   -2.5133    2.8997   18.7427 N   0  0  0  0  0  0  0  0  0  0  0  0
   -5.1680   -2.3330   16.9263 C   0  0  0  0  0  0  0  0  0  0  0  0
   -3.9616    5.6590   21.4477 C   0  0  2  0  0  0  0  0  0  0  0  0
   -3.0177    5.1934   20.4002 N   0  0  0  0  0  0  0  0  0  0  0  0
   -4.1646    4.1022   17.2785 C   0  0  1  0  0  0  0  0  0  0  0  0
   -4.2242    5.2056   18.2721 O   0  0  0  0  0  0  0  0  0  0  0  0
   -4.9186   -0.8310   17.3848 C   0  0  2  0  0  0  0  0  0  0  0  0
   -6.2013   -0.0967   17.4289 N   0  0  0  0  0  0  0  0  0  0  0  0
   -5.2415    6.3309   20.7804 C   0  0  1  0  0  0  0  0  0  0  0  0
   -5.9362    5.4365   19.8736 O   0  0  0  0  0  0  0  0  0  0  0  0
   -4.3739    4.5697   15.7714 C   0  0  2  0  0  0  0  0  0  0  0  0
   -5.6155    5.2294   15.6009 O   0  0  0  0  0  0  0  0  0  0  0  0
   -3.9223   -0.1183   16.3804 C   0  0  2  0  0  0  0  0  0  0  0  0
   -6.2088    6.7906   21.9168 C   0  0  2  0  0  0  0  0  0  0  0  0
   -7.3635    7.4069   21.3815 O   0  0  0  0  0  0  0  0  0  0  0  0
   -4.2838    3.3380   14.7923 C   0  0  2  0  0  0  0  0  0  0  0  0
   -2.9893    2.6483   14.9742 O   0  0  0  0  0  0  0  0  0  0  0  0
   -2.5664   -0.8768   16.3308 C   0  0  2  0  0  0  0  0  0  0  0  0
   -1.7204   -0.1922   15.3630 O   0  0  0  0  0  0  0  0  0  0  0  0
   -5.4552    7.7686   22.9042 C   0  0  2  0  0  0  0  0  0  0  0  0
   -4.2444    7.1143   23.4506 O   0  0  0  0  0  0  0  0  0  0  0  0
   -4.4444    3.7652   13.3340 C   0  0  0  0  0  0  0  0  0  0  0  0
   -4.1575    2.7013   12.4596 O   0  0  0  0  0  0  0  0  0  0  0  0
   -2.8048   -2.3396   15.8886 C   0  0  1  0  0  0  0  0  0  0  0  0
   -1.5606   -3.0068   15.8572 O   0  0  0  0  0  0  0  0  0  0  0  0
   -6.3470    8.2096   24.0550 C   0  0  0  0  0  0  0  0  0  0  0  0
   -5.6524    9.0899   24.9050 O   0  0  0  0  0  0  0  0  0  0  0  0
   -5.6095    5.7669   18.4918 C   0  0  0  0  0  0  0  0  0  0  0  0
  1  2  1  1  0  0  0
  1  7  1  0  0  0  0
  1 24  1  0  0  0  0
  3  4  1  6  0  0  0
  3  9  1  0  0  0  0
  3 31  1  0  0  0  0
  5  6  1  6  0  0  0
  5 10  1  0  0  0  0
  5 28  1  0  0  0  0
  7  8  1  1  0  0  0
  7 12  1  0  0  0  0
  9 14  1  0  0  0  0
 10 11  1  6  0  0  0
 10 16  1  0  0  0  0
 12 13  1  1  0  0  0
 12 18  1  0  0  0  0
 13 35  1  0  0  0  0
 14 15  1  6  0  0  0
 14 20  1  0  0  0  0
 16 17  1  6  0  0  0
 16 21  1  0  0  0  0
 17 35  1  0  0  0  0
 18 19  1  1  0  0  0
 18 23  1  0  0  0  0
 20  2  1  1  0  0  0
 20 25  1  0  0  0  0
 21 22  1  6  0  0  0
 21 27  1  0  0  0  0
 23 24  1  0  0  0  0
 23 29  1  6  0  0  0
 25 26  1  6  0  0  0
 25 31  1  0  0  0  0
 27 28  1  0  0  0  0
 27 33  1  1  0  0  0
 29 30  1  0  0  0  0
 31 32  1  1  0  0  0
 33 34  1  0  0  0  0
M  END
>  <CHROM.1>
-169.57096357,-166.85956032,114.70884137,-101.95055022,76.68782296,167.84950592
170.84423520,-179.30542506,-4.22005426,3.28481292,18.30195549,0.35067776
1.40135938,-1.25138368

>  <Name>
2o3v_lig

>  <RI>
0

>  <Rbt.Current_Directory>
/home/afrankz/demos/rdock_decoys_rna/rnas/2o3v

>  <Rbt.Executable>
rbdock ($Id: //depot/dev/client3/rdock/2013.1/src/exe/rbdock.cxx#4 $)

>  <Rbt.Library>
libRbt.so (2013.1, Build901 2013/11/27)

>  <Rbt.Parameter_File>
/export/apps/rDock/src/rDock_2013.1_src/data/scripts/dock_solv.prm

>  <Rbt.Receptor>
prm/blind_docking_80.prm

>  <SCORE>
-0.229547

>  <SCORE.INTER>
-4.03211

>  <SCORE.INTER.CONST>
1

>  <SCORE.INTER.POLAR>
-1.35131

>  <SCORE.INTER.ROT>
8

>  <SCORE.INTER.SOLV>
29.3929

>  <SCORE.INTER.VDW>
-16.9147

>  <SCORE.INTER.norm>
-0.115203

>  <SCORE.INTRA>
2.20165

>  <SCORE.INTRA.DIHEDRAL>
3.3181

>  <SCORE.INTRA.DIHEDRAL.0>
13.1227

>  <SCORE.INTRA.POLAR>
0

>  <SCORE.INTRA.POLAR.0>
0

>  <SCORE.INTRA.REPUL>
0

>  <SCORE.INTRA.REPUL.0>
0

>  <SCORE.INTRA.SOLV>
2.99342

>  <SCORE.INTRA.SOLV.lig_0>
-89.1587

>  <SCORE.INTRA.VDW>
-0.954115

>  <SCORE.INTRA.VDW.0>
-0.838383

>  <SCORE.INTRA.norm>
0.0629043

>  <SCORE.RESTR>
1.60091

>  <SCORE.RESTR.CAVITY>
1.60091

>  <SCORE.RESTR.norm>
0.0457404

>  <SCORE.SYSTEM>
0

>  <SCORE.SYSTEM.CONST>
0

>  <SCORE.SYSTEM.DIHEDRAL>
0

>  <SCORE.SYSTEM.SOLV>
0

>  <SCORE.SYSTEM.norm>
0

>  <SCORE.heavy>
35

>  <SCORE.norm>
-0.00655849

>  <RMSD>
30.564

$$$$
2o3v_lig
 OpenBabel02141814113D
libRbt.so/2013.1/901 2013/11/27
 35 37  0  0  0  0  0  0  0  0999 V2000
   -3.5291    2.8038   15.8675 C   0  0  2  0  0  0  0  0  0  0  0  0
   -3.4947    1.6870   16.8079 O   0  0  0  0  0  0  0  0  0  0  0  0
   -4.0818   -2.5995   17.2649 C   0  0  2  0  0  0  0  0  0  0  0  0
   -4.4709   -4.0111   16.9677 N   0  0  0  0  0  0  0  0  0  0  0  0
   -3.3994    6.1238   22.4856 C   0  0  2  0  0  0  0  0  0  0  0  0
   -2.9174    7.4839   22.4294 O   0  0  0  0  0  0  0  0  0  0  0  0
   -4.2464    3.9285   16.6792 C   0  0  2  0  0  0  0  0  0  0  0  0
   -3.5067    4.2462   17.9235 N   0  0  0  0  0  0  0  0  0  0  0  0
   -5.3665   -1.6641   17.2510 C   0  0  0  0  0  0  0  0  0  0  0  0
   -3.9305    5.7530   21.0577 C   0  0  2  0  0  0  0  0  0  0  0  0
   -2.8667    5.9164   20.0347 N   0  0  0  0  0  0  0  0  0  0  0  0
   -5.7446    3.5285   17.0327 C   0  0  1  0  0  0  0  0  0  0  0  0
   -6.3946    4.5917   17.8423 O   0  0  0  0  0  0  0  0  0  0  0  0
   -4.9239   -0.1680   17.5580 C   0  0  2  0  0  0  0  0  0  0  0  0
   -6.1045    0.7220   17.5384 N   0  0  0  0  0  0  0  0  0  0  0  0
   -5.2108    6.6149   20.6672 C   0  0  1  0  0  0  0  0  0  0  0  0
   -5.7439    6.2688   19.3630 O   0  0  0  0  0  0  0  0  0  0  0  0
   -6.4875    3.2063   15.6624 C   0  0  2  0  0  0  0  0  0  0  0  0
   -7.8307    2.8139   15.8806 O   0  0  0  0  0  0  0  0  0  0  0  0
   -3.8662    0.3138   16.4818 C   0  0  2  0  0  0  0  0  0  0  0  0
   -6.3045    6.4009   21.7611 C   0  0  2  0  0  0  0  0  0  0  0  0
   -7.4659    7.1537   21.4713 O   0  0  0  0  0  0  0  0  0  0  0  0
   -5.7229    2.0788   14.8700 C   0  0  2  0  0  0  0  0  0  0  0  0
   -4.3203    2.4881   14.6465 O   0  0  0  0  0  0  0  0  0  0  0  0
   -2.6161   -0.6100   16.4978 C   0  0  2  0  0  0  0  0  0  0  0  0
   -1.7101   -0.1336   15.4617 O   0  0  0  0  0  0  0  0  0  0  0  0
   -5.7274    6.7813   23.1829 C   0  0  2  0  0  0  0  0  0  0  0  0
   -4.5075    5.9924   23.4700 O   0  0  0  0  0  0  0  0  0  0  0  0
   -6.3954    1.7763   13.5317 C   0  0  0  0  0  0  0  0  0  0  0  0
   -5.8459    2.5589   12.5000 O   0  0  0  0  0  0  0  0  0  0  0  0
   -3.0425   -2.0672   16.2031 C   0  0  1  0  0  0  0  0  0  0  0  0
   -1.8915   -2.8849   16.2289 O   0  0  0  0  0  0  0  0  0  0  0  0
   -6.7453    6.5469   24.2887 C   0  0  0  0  0  0  0  0  0  0  0  0
   -7.9239    7.2718   24.0329 O   0  0  0  0  0  0  0  0  0  0  0  0
   -5.7547    4.8212   19.1914 C   0  0  0  0  0  0  0  0  0  0  0  0
  1  2  1  1  0  0  0
  1  7  1  0  0  0  0
  1 24  1  0  0  0  0
  3  4  1  6  0  0  0
  3  9  1  0  0  0  0
  3 31  1  0  0  0  0
  5  6  1  6  0  0  0
  5 10  1  0  0  0  0
  5 28  1  0  0  0  0
  7  8  1  1  0  0  0
  7 12  1  0  0  0  0
  9 14  1  0  0  0  0
 10 11  1  6  0  0  0
 10 16  1  0  0  0  0
 12 13  1  6  0  0  0
 12 18  1  0  0  0  0
 13 35  1  0  0  0  0
 14 15  1  6  0  0  0
 14 20  1  0  0  0  0
 16 17  1  6  0  0  0
 16 21  1  0  0  0  0
 17 35  1  0  0  0  0
 18 19  1  1  0  0  0
 18 23  1  0  0  0  0
 20  2  1  1  0  0  0
 20 25  1  0  0  0  0
 21 22  1  6  0  0  0
 21 27  1  0  0  0  0
 23 24  1  0  0  0  0
 23 29  1  6  0  0  0
 25 26  1  6  0  0  0
 25 31  1  0  0  0  0
 27 28  1  0  0  0  0
 27 33  1  1  0  0  0
 29 30  1  0  0  0  0
 31 32  1  1  0  0  0
 33 34  1  0  0  0  0
M  END
>  <CHROM.1>
133.17144335,-63.29042193,139.02178025,42.66093504,176.99182099,-127.90565648
91.81820272,-56.87269593,-4.87486261,3.06342158,18.29433499,1.29579285,1.00005056
-2.16764731

>  <Name>
2o3v_lig

>  <RI>
0

>  <Rbt.Current_Directory>
/home/afrankz/demos/rdock_decoys_rna/rnas/2o3v

>  <Rbt.Executable>
rbdock ($Id: //depot/dev/client3/rdock/2013.1/src/exe/rbdock.cxx#4 $)

>  <Rbt.Library>
libRbt.so (2013.1, Build901 2013/11/27)

>  <Rbt.Parameter_File>
/export/apps/rDock/src/rDock_2013.1_src/data/scripts/dock_solv.prm

>  <Rbt.Receptor>
prm/blind_docking_40.prm

>  <SCORE>
39.3538

>  <SCORE.INTER>
23.1274

>  <SCORE.INTER.CONST>
1

>  <SCORE.INTER.POLAR>
-1.23308

>  <SCORE.INTER.ROT>
8

>  <SCORE.INTER.SOLV>
23.7844

>  <SCORE.INTER.VDW>
2.66706

>  <SCORE.INTER.norm>
0.660782

>  <SCORE.INTRA>
11.1867

>  <SCORE.INTRA.DIHEDRAL>
10.1386

>  <SCORE.INTRA.DIHEDRAL.0>
13.1227

>  <SCORE.INTRA.POLAR>
0

>  <SCORE.INTRA.POLAR.0>
0

>  <SCORE.INTRA.REPUL>
0

>  <SCORE.INTRA.REPUL.0>
0

>  <SCORE.INTRA.SOLV>
8.76603

>  <SCORE.INTRA.SOLV.lig_0>
-89.1587

>  <SCORE.INTRA.VDW>
1.73439

>  <SCORE.INTRA.VDW.0>
-0.838383

>  <SCORE.INTRA.norm>
0.319621

>  <SCORE.RESTR>
5.03971

>  <SCORE.RESTR.CAVITY>
5.03971

>  <SCORE.RESTR.norm>
0.143992

>  <SCORE.SYSTEM>
0

>  <SCORE.SYSTEM.CONST>
0

>  <SCORE.SYSTEM.DIHEDRAL>
0

>  <SCORE.SYSTEM.SOLV>
0

>  <SCORE.SYSTEM.norm>
0

>  <SCORE.heavy>
35

>  <SCORE.norm>
1.12439

>  <RMSD>
30.568

$$$$
2o3v_lig
 OpenBabel02141814113D
libRbt.so/2013.1/901 2013/11/27
 35 37  0  0  0  0  0  0  0  0999 V2000
   -5.7218    2.8575   17.2400 C   0  0  2  0  0  0  0  0  0  0  0  0
   -5.4813    3.1942   15.8395 O   0  0  0  0  0  0  0  0  0  0  0  0
   -3.2426    1.2337   12.6658 C   0  0  2  0  0  0  0  0  0  0  0  0
   -2.0984    0.7573   11.8315 N   0  0  0  0  0  0  0  0  0  0  0  0
   -5.4065    8.7775   23.9242 C   0  0  2  0  0  0  0  0  0  0  0  0
   -6.7728    9.2158   23.7613 O   0  0  0  0  0  0  0  0  0  0  0  0
   -6.2263    4.2049   17.8468 C   0  0  2  0  0  0  0  0  0  0  0  0
   -7.4451    4.6824   17.1520 N   0  0  0  0  0  0  0  0  0  0  0  0
   -3.2802    2.8223   12.6857 C   0  0  0  0  0  0  0  0  0  0  0  0
   -4.8690    8.3748   22.5074 C   0  0  2  0  0  0  0  0  0  0  0  0
   -4.9714    9.5105   21.5563 N   0  0  0  0  0  0  0  0  0  0  0  0
   -5.1016    5.3281   17.7905 C   0  0  1  0  0  0  0  0  0  0  0  0
   -5.6155    6.6132   18.3314 O   0  0  0  0  0  0  0  0  0  0  0  0
   -4.4979    3.3026   13.5884 C   0  0  2  0  0  0  0  0  0  0  0  0
   -4.5441    4.7800   13.6297 N   0  0  0  0  0  0  0  0  0  0  0  0
   -5.6315    7.1009   21.9323 C   0  0  1  0  0  0  0  0  0  0  0  0
   -5.1311    6.6856   20.6355 O   0  0  0  0  0  0  0  0  0  0  0  0
   -3.8252    4.7626   18.5552 C   0  0  2  0  0  0  0  0  0  0  0  0
   -2.7557    5.6909   18.5357 O   0  0  0  0  0  0  0  0  0  0  0  0
   -4.3429    2.7256   15.0554 C   0  0  2  0  0  0  0  0  0  0  0  0
   -5.4849    5.9316   22.9569 C   0  0  2  0  0  0  0  0  0  0  0  0
   -6.1542    4.7719   22.5022 O   0  0  0  0  0  0  0  0  0  0  0  0
   -3.3599    3.3970   17.9210 C   0  0  2  0  0  0  0  0  0  0  0  0
   -4.4781    2.4307   17.9386 O   0  0  0  0  0  0  0  0  0  0  0  0
   -4.3008    1.1720   15.0262 C   0  0  2  0  0  0  0  0  0  0  0  0
   -4.1176    0.7162   16.3972 O   0  0  0  0  0  0  0  0  0  0  0  0
   -6.0332    6.3803   24.3701 C   0  0  2  0  0  0  0  0  0  0  0  0
   -5.3302    7.5997   24.8304 O   0  0  0  0  0  0  0  0  0  0  0  0
   -2.1572    2.8134   18.6611 C   0  0  0  0  0  0  0  0  0  0  0  0
   -1.9901    1.4494   18.3603 O   0  0  0  0  0  0  0  0  0  0  0  0
   -3.1196    0.7004   14.1462 C   0  0  1  0  0  0  0  0  0  0  0  0
   -3.1072   -0.7116   14.1319 O   0  0  0  0  0  0  0  0  0  0  0  0
   -5.8708    5.2861   25.4143 C   0  0  0  0  0  0  0  0  0  0  0  0
   -6.8231    5.4397   26.4387 O   0  0  0  0  0  0  0  0  0  0  0  0
   -6.2374    6.5030   19.7038 C   0  0  0  0  0  0  0  0  0  0  0  0
  1  2  1  6  0  0  0
  1  7  1  0  0  0  0
  1 24  1  0  0  0  0
  3  4  1  6  0  0  0
  3  9  1  0  0  0  0
  3 31  1  0  0  0  0
  5  6  1  6  0  0  0
  5 10  1  0  0  0  0
  5 28  1  0  0  0  0
  7  8  1  6  0  0  0
  7 12  1  0  0  0  0
  9 14  1  0  0  0  0
 10 11  1  6  0  0  0
 10 16  1  0  0  0  0
 12 13  1  1  0  0  0
 12 18  1  0  0  0  0
 13 35  1  0  0  0  0
 14 15  1  1  0  0  0
 14 20  1  0  0  0  0
 16 17  1  6  0  0  0
 16 21  1  0  0  0  0
 17 35  1  0  0  0  0
 18 19  1  6  0  0  0
 18 23  1  0  0  0  0
 20  2  1  1  0  0  0
 20 25  1  0  0  0  0
 21 22  1  6  0  0  0
 21 27  1  0  0  0  0
 23 24  1  0  0  0  0
 23 29  1  1  0  0  0
 25 26  1  1  0  0  0
 25 31  1  0  0  0  0
 27 28  1  0  0  0  0
 27 33  1  1  0  0  0
 29 30  1  0  0  0  0
 31 32  1  6  0  0  0
 33 34  1  0  0  0  0
M  END
>  <CHROM.1>
139.48370814,52.49359713,88.19613876,-130.39887039,158.55373430,178.71660989
162.83398021,-154.73935135,-4.73280251,4.47079917,18.74514131,-0.80821903
-1.27420844,1.78199834

>  <Name>
2o3v_lig

>  <RI>
0

>  <Rbt.Current_Directory>
/home/afrankz/demos/rdock_decoys_rna/rnas/2o3v

>  <Rbt.Executable>
rbdock ($Id: //depot/dev/client3/rdock/2013.1/src/exe/rbdock.cxx#4 $)

>  <Rbt.Library>
libRbt.so (2013.1, Build901 2013/11/27)

>  <Rbt.Parameter_File>
/export/apps/rDock/src/rDock_2013.1_src/data/scripts/dock_solv.prm

>  <Rbt.Receptor>
prm/blind_docking_80.prm

>  <SCORE>
10.012

>  <SCORE.INTER>
2.93638

>  <SCORE.INTER.CONST>
1

>  <SCORE.INTER.POLAR>
-1.45901

>  <SCORE.INTER.ROT>
8

>  <SCORE.INTER.SOLV>
35.6329

>  <SCORE.INTER.VDW>
-13.99

>  <SCORE.INTER.norm>
0.0838965

>  <SCORE.INTRA>
3.70539

>  <SCORE.INTRA.DIHEDRAL>
7.62233

>  <SCORE.INTRA.DIHEDRAL.0>
13.1227

>  <SCORE.INTRA.POLAR>
0

>  <SCORE.INTRA.POLAR.0>
0

>  <SCORE.INTRA.REPUL>
0

>  <SCORE.INTRA.REPUL.0>
0

>  <SCORE.INTRA.SOLV>
0.245329

>  <SCORE.INTRA.SOLV.lig_0>
-89.1587

>  <SCORE.INTRA.VDW>
-0.228438

>  <SCORE.INTRA.VDW.0>
-0.838383

>  <SCORE.INTRA.norm>
0.105868

>  <SCORE.RESTR>
3.37023

>  <SCORE.RESTR.CAVITY>
3.37023

>  <SCORE.RESTR.norm>
0.0962923

>  <SCORE.SYSTEM>
0

>  <SCORE.SYSTEM.CONST>
0

>  <SCORE.SYSTEM.DIHEDRAL>
0

>  <SCORE.SYSTEM.SOLV>
0

>  <SCORE.SYSTEM.norm>
0

>  <SCORE.heavy>
35

>  <SCORE.norm>
0.286057

>  <RMSD>
30.574

$$$$
2o3v_lig
 OpenBabel02141814113D
libRbt.so/2013.1/901 2013/11/27
 35 37  0  0  0  0  0  0  0  0999 V2000
   -2.3804   -2.6210   16.6974 C   0  0  2  0  0  0  0  0  0  0  0  0
   -3.7451   -3.0605   16.9752 O   0  0  0  0  0  0  0  0  0  0  0  0
   -5.5915   -6.9924   17.2159 C   0  0  2  0  0  0  0  0  0  0  0  0
   -5.9617   -8.3503   17.7173 N   0  0  0  0  0  0  0  0  0  0  0  0
   -6.4117    5.1495   17.2836 C   0  0  2  0  0  0  0  0  0  0  0  0
   -7.2948    4.0755   17.6738 O   0  0  0  0  0  0  0  0  0  0  0  0
   -2.2500   -1.3143   17.5423 C   0  0  2  0  0  0  0  0  0  0  0  0
   -2.4875   -1.5804   18.9808 N   0  0  0  0  0  0  0  0  0  0  0  0
   -4.0257   -6.9141   16.9557 C   0  0  0  0  0  0  0  0  0  0  0  0
   -5.0024    4.5221   17.0031 C   0  0  2  0  0  0  0  0  0  0  0  0
   -5.0856    3.4722   15.9564 N   0  0  0  0  0  0  0  0  0  0  0  0
   -3.2498   -0.1873   17.0328 C   0  0  1  0  0  0  0  0  0  0  0  0
   -3.1417    1.0310   17.8769 O   0  0  0  0  0  0  0  0  0  0  0  0
   -3.6572   -5.4577   16.4348 C   0  0  2  0  0  0  0  0  0  0  0  0
   -2.2010   -5.3598   16.1972 N   0  0  0  0  0  0  0  0  0  0  0  0
   -4.3504    3.9306   18.3297 C   0  0  1  0  0  0  0  0  0  0  0  0
   -3.0300    3.3728   18.1055 O   0  0  0  0  0  0  0  0  0  0  0  0
   -2.9438    0.0589   15.4902 C   0  0  2  0  0  0  0  0  0  0  0  0
   -3.8083    1.0364   14.9397 O   0  0  0  0  0  0  0  0  0  0  0  0
   -4.1049   -4.3740   17.4999 C   0  0  2  0  0  0  0  0  0  0  0  0
   -4.2709    5.0709   19.3936 C   0  0  2  0  0  0  0  0  0  0  0  0
   -3.7073    4.5991   20.6016 O   0  0  0  0  0  0  0  0  0  0  0  0
   -3.0718   -1.2862   14.6790 C   0  0  2  0  0  0  0  0  0  0  0  0
   -2.1719   -2.3063   15.2572 O   0  0  0  0  0  0  0  0  0  0  0  0
   -5.6361   -4.4617   17.7530 C   0  0  2  0  0  0  0  0  0  0  0  0
   -5.9668   -3.4693   18.7663 O   0  0  0  0  0  0  0  0  0  0  0  0
   -5.7093    5.6778   19.6427 C   0  0  2  0  0  0  0  0  0  0  0  0
   -6.2911    6.1600   18.3692 O   0  0  0  0  0  0  0  0  0  0  0  0
   -2.7462   -1.0847   13.1998 C   0  0  0  0  0  0  0  0  0  0  0  0
   -2.9979    0.2408   12.8014 O   0  0  0  0  0  0  0  0  0  0  0  0
   -5.9996   -5.8781   18.2565 C   0  0  1  0  0  0  0  0  0  0  0  0
   -7.3940   -5.9327   18.4730 O   0  0  0  0  0  0  0  0  0  0  0  0
   -5.6752    6.8243   20.6419 C   0  0  0  0  0  0  0  0  0  0  0  0
   -5.3532    6.3471   21.9259 O   0  0  0  0  0  0  0  0  0  0  0  0
   -3.0915    2.3231   17.0957 C   0  0  0  0  0  0  0  0  0  0  0  0
  1  2  1  6  0  0  0
  1  7  1  0  0  0  0
  1 24  1  0  0  0  0
  3  4  1  1  0  0  0
  3  9  1  0  0  0  0
  3 31  1  0  0  0  0
  5  6  1  1  0  0  0
  5 10  1  0  0  0  0
  5 28  1  0  0  0  0
  7  8  1  1  0  0  0
  7 12  1  0  0  0  0
  9 14  1  0  0  0  0
 10 11  1  6  0  0  0
 10 16  1  0  0  0  0
 12 13  1  1  0  0  0
 12 18  1  0  0  0  0
 13 35  1  0  0  0  0
 14 15  1  1  0  0  0
 14 20  1  0  0  0  0
 16 17  1  6  0  0  0
 16 21  1  0  0  0  0
 17 35  1  0  0  0  0
 18 19  1  6  0  0  0
 18 23  1  0  0  0  0
 20  2  1  6  0  0  0
 20 25  1  0  0  0  0
 21 22  1  1  0  0  0
 21 27  1  0  0  0  0
 23 24  1  0  0  0  0
 23 29  1  6  0  0  0
 25 26  1  1  0  0  0
 25 31  1  0  0  0  0
 27 28  1  0  0  0  0
 27 33  1  1  0  0  0
 29 30  1  0  0  0  0
 31 32  1  6  0  0  0
 33 34  1  0  0  0  0
M  END
>  <CHROM.1>
-124.19929042,135.25642442,178.27546258,-57.85099271,-98.19306720,-62.66507244
-26.41547283,-68.09397128,-4.32143620,-0.12453848,17.40665670,-1.46680749
0.98196149,0.09372727

>  <Name>
2o3v_lig

>  <RI>
0

>  <Rbt.Current_Directory>
/home/afrankz/demos/rdock_decoys_rna/rnas/2o3v

>  <Rbt.Executable>
rbdock ($Id: //depot/dev/client3/rdock/2013.1/src/exe/rbdock.cxx#4 $)

>  <Rbt.Library>
libRbt.so (2013.1, Build901 2013/11/27)

>  <Rbt.Parameter_File>
/export/apps/rDock/src/rDock_2013.1_src/data/scripts/dock_solv.prm

>  <Rbt.Receptor>
prm/blind_docking_80.prm

>  <SCORE>
8.77197

>  <SCORE.INTER>
-10.423

>  <SCORE.INTER.CONST>
1

>  <SCORE.INTER.POLAR>
-1.67697

>  <SCORE.INTER.ROT>
8

>  <SCORE.INTER.SOLV>
23.7954

>  <SCORE.INTER.VDW>
-18.2239

>  <SCORE.INTER.norm>
-0.297801

>  <SCORE.INTRA>
14.853

>  <SCORE.INTRA.DIHEDRAL>
8.64183

>  <SCORE.INTRA.DIHEDRAL.0>
13.1227

>  <SCORE.INTRA.POLAR>
0

>  <SCORE.INTRA.POLAR.0>
0

>  <SCORE.INTRA.REPUL>
0.391552

>  <SCORE.INTRA.REPUL.0>
0

>  <SCORE.INTRA.SOLV>
3.8597

>  <SCORE.INTRA.SOLV.lig_0>
-89.1587

>  <SCORE.INTRA.VDW>
6.64443

>  <SCORE.INTRA.VDW.0>
-0.838383

>  <SCORE.INTRA.norm>
0.42437

>  <SCORE.RESTR>
4.34205

>  <SCORE.RESTR.CAVITY>
4.34205

>  <SCORE.RESTR.norm>
0.124058

>  <SCORE.SYSTEM>
0

>  <SCORE.SYSTEM.CONST>
0

>  <SCORE.SYSTEM.DIHEDRAL>
0

>  <SCORE.SYSTEM.SOLV>
0

>  <SCORE.SYSTEM.norm>
0

>  <SCORE.heavy>
35

>  <SCORE.norm>
0.250628

>  <RMSD>
30.589

$$$$
2o3v_lig
 OpenBabel02141814113D
libRbt.so/2013.1/901 2013/11/27
 35 37  0  0  0  0  0  0  0  0999 V2000
   -4.8465   -6.3147   18.3299 C   0  0  2  0  0  0  0  0  0  0  0  0
   -6.2202   -6.1283   17.8704 O   0  0  0  0  0  0  0  0  0  0  0  0
  -10.1880   -7.6247   18.8420 C   0  0  2  0  0  0  0  0  0  0  0  0
  -11.3272   -8.5657   19.0636 N   0  0  0  0  0  0  0  0  0  0  0  0
   -3.5040    2.8143   15.6220 C   0  0  2  0  0  0  0  0  0  0  0  0
   -4.0699    2.4201   14.3532 O   0  0  0  0  0  0  0  0  0  0  0  0
   -4.4049   -4.8692   18.7223 C   0  0  2  0  0  0  0  0  0  0  0  0
   -5.2900   -4.3037   19.7678 N   0  0  0  0  0  0  0  0  0  0  0  0
   -9.7128   -7.6892   17.3270 C   0  0  0  0  0  0  0  0  0  0  0  0
   -3.3626    1.5208   16.4968 C   0  0  2  0  0  0  0  0  0  0  0  0
   -2.5228    0.5047   15.8133 N   0  0  0  0  0  0  0  0  0  0  0  0
   -4.3810   -3.9029   17.4592 C   0  0  1  0  0  0  0  0  0  0  0  0
   -4.0017   -2.5234   17.8609 O   0  0  0  0  0  0  0  0  0  0  0  0
   -8.4941   -6.6887   17.1211 C   0  0  2  0  0  0  0  0  0  0  0  0
   -8.0285   -6.7418   15.7187 N   0  0  0  0  0  0  0  0  0  0  0  0
   -4.7838    0.9060   16.8668 C   0  0  1  0  0  0  0  0  0  0  0  0
   -4.6838   -0.2741   17.7047 O   0  0  0  0  0  0  0  0  0  0  0  0
   -3.4131   -4.5566   16.3778 C   0  0  2  0  0  0  0  0  0  0  0  0
   -3.3475   -3.7731   15.1998 O   0  0  0  0  0  0  0  0  0  0  0  0
   -7.3087   -7.0732   18.0989 C   0  0  2  0  0  0  0  0  0  0  0  0
   -5.6240    2.0033   17.5941 C   0  0  2  0  0  0  0  0  0  0  0  0
   -6.9056    1.5153   17.9387 O   0  0  0  0  0  0  0  0  0  0  0  0
   -3.8860   -6.0175   16.0229 C   0  0  2  0  0  0  0  0  0  0  0  0
   -3.9577   -6.8327   17.2536 O   0  0  0  0  0  0  0  0  0  0  0  0
   -7.7838   -7.0136   19.5778 C   0  0  2  0  0  0  0  0  0  0  0  0
   -6.6599   -7.4158   20.4121 O   0  0  0  0  0  0  0  0  0  0  0  0
   -5.7379    3.2891   16.6814 C   0  0  2  0  0  0  0  0  0  0  0  0
   -4.3897    3.7844   16.3211 O   0  0  0  0  0  0  0  0  0  0  0  0
   -2.9513   -6.6821   15.0132 C   0  0  0  0  0  0  0  0  0  0  0  0
   -3.4395   -7.9427   14.6240 O   0  0  0  0  0  0  0  0  0  0  0  0
   -8.9717   -7.9829   19.7818 C   0  0  1  0  0  0  0  0  0  0  0  0
   -9.3870   -7.9056   21.1293 O   0  0  0  0  0  0  0  0  0  0  0  0
   -6.5126    4.4040   17.3675 C   0  0  0  0  0  0  0  0  0  0  0  0
   -6.6016    5.5292   16.5273 O   0  0  0  0  0  0  0  0  0  0  0  0
   -4.4334   -1.4536   16.8854 C   0  0  0  0  0  0  0  0  0  0  0  0
  1  2  1  6  0  0  0
  1  7  1  0  0  0  0
  1 24  1  0  0  0  0
  3  4  1  6  0  0  0
  3  9  1  0  0  0  0
  3 31  1  0  0  0  0
  5  6  1  6  0  0  0
  5 10  1  0  0  0  0
  5 28  1  0  0  0  0
  7  8  1  1  0  0  0
  7 12  1  0  0  0  0
  9 14  1  0  0  0  0
 10 11  1  6  0  0  0
 10 16  1  0  0  0  0
 12 13  1  1  0  0  0
 12 18  1  0  0  0  0
 13 35  1  0  0  0  0
 14 15  1  6  0  0  0
 14 20  1  0  0  0  0
 16 17  1  1  0  0  0
 16 21  1  0  0  0  0
 17 35  1  0  0  0  0
 18 19  1  6  0  0  0
 18 23  1  0  0  0  0
 20  2  1  1  0  0  0
 20 25  1  0  0  0  0
 21 22  1  6  0  0  0
 21 27  1  0  0  0  0
 23 24  1  0  0  0  0
 23 29  1  6  0  0  0
 25 26  1  1  0  0  0
 25 31  1  0  0  0  0
 27 28  1  0  0  0  0
 27 33  1  1  0  0  0
 29 30  1  0  0  0  0
 31 32  1  1  0  0  0
 33 34  1  0  0  0  0
M  END
>  <CHROM.1>
-143.28386517,-158.48698375,148.72818805,-83.02439386,165.90750140,-164.85829863
-175.34330993,-179.69585409,-5.72456819,-3.14602083,17.35317442,-1.86887052
0.51044637,-0.03586803

>  <Name>
2o3v_lig

>  <RI>
0

>  <Rbt.Current_Directory>
/home/afrankz/demos/rdock_decoys_rna/rnas/2o3v

>  <Rbt.Executable>
rbdock ($Id: //depot/dev/client3/rdock/2013.1/src/exe/rbdock.cxx#4 $)

>  <Rbt.Library>
libRbt.so (2013.1, Build901 2013/11/27)

>  <Rbt.Parameter_File>
/export/apps/rDock/src/rDock_2013.1_src/data/scripts/dock_solv.prm

>  <Rbt.Receptor>
prm/blind_docking_60.prm

>  <SCORE>
-8.53658

>  <SCORE.INTER>
-8.92361

>  <SCORE.INTER.CONST>
1

>  <SCORE.INTER.POLAR>
-0.336586

>  <SCORE.INTER.ROT>
8

>  <SCORE.INTER.SOLV>
18.6659

>  <SCORE.INTER.VDW>
-19.9824

>  <SCORE.INTER.norm>
-0.25496

>  <SCORE.INTRA>
-0.614125

>  <SCORE.INTRA.DIHEDRAL>
2.03861

>  <SCORE.INTRA.DIHEDRAL.0>
13.1227

>  <SCORE.INTRA.POLAR>
0

>  <SCORE.INTRA.POLAR.0>
0

>  <SCORE.INTRA.REPUL>
0

>  <SCORE.INTRA.REPUL.0>
0

>  <SCORE.INTRA.SOLV>
0.318697

>  <SCORE.INTRA.SOLV.lig_0>
-89.1587

>  <SCORE.INTRA.VDW>
-1.79278

>  <SCORE.INTRA.VDW.0>
-0.838383

>  <SCORE.INTRA.norm>
-0.0175464

>  <SCORE.RESTR>
1.00116

>  <SCORE.RESTR.CAVITY>
1.00116

>  <SCORE.RESTR.norm>
0.0286044

>  <SCORE.SYSTEM>
0

>  <SCORE.SYSTEM.CONST>
0

>  <SCORE.SYSTEM.DIHEDRAL>
0

>  <SCORE.SYSTEM.SOLV>
0

>  <SCORE.SYSTEM.norm>
0

>  <SCORE.heavy>
35

>  <SCORE.norm>
-0.243902

>  <RMSD>
30.596

$$$$
2o3v_lig
 OpenBabel02141814113D
libRbt.so/2013.1/901 2013/11/27
 35 37  0  0  0  0  0  0  0  0999 V2000
   -4.0303   -5.3959   17.7766 C   0  0  2  0  0  0  0  0  0  0  0  0
   -5.3838   -4.9607   18.1105 O   0  0  0  0  0  0  0  0  0  0  0  0
   -7.4149   -8.5770   19.4237 C   0  0  2  0  0  0  0  0  0  0  0  0
   -8.4957   -9.5056   19.8730 N   0  0  0  0  0  0  0  0  0  0  0  0
   -3.9963    4.3641   16.5297 C   0  0  2  0  0  0  0  0  0  0  0  0
   -4.0457    4.3751   15.0865 O   0  0  0  0  0  0  0  0  0  0  0  0
   -3.1928   -4.0851   17.9134 C   0  0  2  0  0  0  0  0  0  0  0  0
   -3.2960   -3.5236   19.2810 N   0  0  0  0  0  0  0  0  0  0  0  0
   -7.2433   -7.3920   20.4686 C   0  0  0  0  0  0  0  0  0  0  0  0
   -3.1082    3.1461   16.9612 C   0  0  2  0  0  0  0  0  0  0  0  0
   -1.7509    3.2393   16.3662 N   0  0  0  0  0  0  0  0  0  0  0  0
   -3.6414   -2.9917   16.8491 C   0  0  1  0  0  0  0  0  0  0  0  0
   -2.8636   -1.7378   17.0249 O   0  0  0  0  0  0  0  0  0  0  0  0
   -6.0970   -6.4135   19.9618 C   0  0  2  0  0  0  0  0  0  0  0  0
   -5.9288   -5.2959   20.9153 N   0  0  0  0  0  0  0  0  0  0  0  0
   -3.7881    1.7595   16.5740 C   0  0  1  0  0  0  0  0  0  0  0  0
   -3.0028    0.6135   16.9918 O   0  0  0  0  0  0  0  0  0  0  0  0
   -3.5033   -3.6477   15.4054 C   0  0  2  0  0  0  0  0  0  0  0  0
   -3.9071   -2.7499   14.3871 O   0  0  0  0  0  0  0  0  0  0  0  0
   -6.4636   -5.8496   18.5276 C   0  0  2  0  0  0  0  0  0  0  0  0
   -5.2033    1.7011   17.2316 C   0  0  2  0  0  0  0  0  0  0  0  0
   -5.8615    0.4910   16.9121 O   0  0  0  0  0  0  0  0  0  0  0  0
   -4.3507   -4.9735   15.3165 C   0  0  2  0  0  0  0  0  0  0  0  0
   -3.9309   -5.9077   16.3820 O   0  0  0  0  0  0  0  0  0  0  0  0
   -6.6357   -7.0151   17.5136 C   0  0  2  0  0  0  0  0  0  0  0  0
   -7.0092   -6.4271   16.2346 O   0  0  0  0  0  0  0  0  0  0  0  0
   -6.0626    2.9469   16.7747 C   0  0  2  0  0  0  0  0  0  0  0  0
   -5.3585    4.2065   17.1074 O   0  0  0  0  0  0  0  0  0  0  0  0
   -4.2057   -5.6438   13.9510 C   0  0  0  0  0  0  0  0  0  0  0  0
   -5.0497   -6.7641   13.8442 O   0  0  0  0  0  0  0  0  0  0  0  0
   -7.7476   -7.9715   18.0046 C   0  0  1  0  0  0  0  0  0  0  0  0
   -7.8797   -9.0223   17.0705 O   0  0  0  0  0  0  0  0  0  0  0  0
   -7.4374    2.9564   17.4258 C   0  0  0  0  0  0  0  0  0  0  0  0
   -7.9489    4.2664   17.4740 O   0  0  0  0  0  0  0  0  0  0  0  0
   -3.3882   -0.5667   16.2277 C   0  0  0  0  0  0  0  0  0  0  0  0
  1  2  1  6  0  0  0
  1  7  1  0  0  0  0
  1 24  1  0  0  0  0
  3  4  1  1  0  0  0
  3  9  1  0  0  0  0
  3 31  1  0  0  0  0
  5  6  1  6  0  0  0
  5 10  1  0  0  0  0
  5 28  1  0  0  0  0
  7  8  1  1  0  0  0
  7 12  1  0  0  0  0
  9 14  1  0  0  0  0
 10 11  1  6  0  0  0
 10 16  1  0  0  0  0
 12 13  1  6  0  0  0
 12 18  1  0  0  0  0
 13 35  1  0  0  0  0
 14 15  1  1  0  0  0
 14 20  1  0  0  0  0
 16 17  1  1  0  0  0
 16 21  1  0  0  0  0
 17 35  1  0  0  0  0
 18 19  1  6  0  0  0
 18 23  1  0  0  0  0
 20  2  1  6  0  0  0
 20 25  1  0  0  0  0
 21 22  1  6  0  0  0
 21 27  1  0  0  0  0
 23 24  1  0  0  0  0
 23 29  1  6  0  0  0
 25 26  1  6  0  0  0
 25 31  1  0  0  0  0
 27 28  1  0  0  0  0
 27 33  1  1  0  0  0
 29 30  1  0  0  0  0
 31 32  1  6  0  0  0
 33 34  1  0  0  0  0
M  END
>  <CHROM.1>
-160.32783077,-169.56791479,151.92017137,-159.72473679,-162.16237814,68.50400750
-175.15659985,155.49333420,-5.12702117,-2.59975047,17.15263482,-1.81860406
0.76640309,0.04236064

>  <Name>
2o3v_lig

>  <RI>
0

>  <Rbt.Current_Directory>
/home/afrankz/demos/rdock_decoys_rna/rnas/2o3v

>  <Rbt.Executable>
rbdock ($Id: //depot/dev/client3/rdock/2013.1/src/exe/rbdock.cxx#4 $)

>  <Rbt.Library>
libRbt.so (2013.1, Build901 2013/11/27)

>  <Rbt.Parameter_File>
/export/apps/rDock/src/rDock_2013.1_src/data/scripts/dock_solv.prm

>  <Rbt.Receptor>
prm/blind_docking_80.prm

>  <SCORE>
-14.23

>  <SCORE.INTER>
-14.697

>  <SCORE.INTER.CONST>
1

>  <SCORE.INTER.POLAR>
-2.14136

>  <SCORE.INTER.ROT>
8

>  <SCORE.INTER.SOLV>
19.6115

>  <SCORE.INTER.VDW>
-18.1306

>  <SCORE.INTER.norm>
-0.419913

>  <SCORE.INTRA>
-1.74655

>  <SCORE.INTRA.DIHEDRAL>
-1.96274

>  <SCORE.INTRA.DIHEDRAL.0>
13.1227

>  <SCORE.INTRA.POLAR>
0

>  <SCORE.INTRA.POLAR.0>
0

>  <SCORE.INTRA.REPUL>
0

>  <SCORE.INTRA.REPUL.0>
0

>  <SCORE.INTRA.SOLV>
0.845467

>  <SCORE.INTRA.SOLV.lig_0>
-89.1587

>  <SCORE.INTRA.VDW>
-1.18791

>  <SCORE.INTRA.VDW.0>
-0.838383

>  <SCORE.INTRA.norm>
-0.0499013

>  <SCORE.RESTR>
2.21345

>  <SCORE.RESTR.CAVITY>
2.21345

>  <SCORE.RESTR.norm>
0.0632415

>  <SCORE.SYSTEM>
0

>  <SCORE.SYSTEM.CONST>
0

>  <SCORE.SYSTEM.DIHEDRAL>
0

>  <SCORE.SYSTEM.SOLV>
0

>  <SCORE.SYSTEM.norm>
0

>  <SCORE.heavy>
35

>  <SCORE.norm>
-0.406573

>  <RMSD>
30.608

$$$$
2o3v_lig
 OpenBabel02141814113D
libRbt.so/2013.1/901 2013/11/27
 35 37  0  0  0  0  0  0  0  0999 V2000
   -5.5818    4.3317   17.2535 C   0  0  2  0  0  0  0  0  0  0  0  0
   -5.1102    4.2365   18.6323 O   0  0  0  0  0  0  0  0  0  0  0  0
   -4.5130    6.7069   22.1633 C   0  0  2  0  0  0  0  0  0  0  0  0
   -4.0997    7.8476   23.0351 N   0  0  0  0  0  0  0  0  0  0  0  0
   -2.2630   -4.1692   15.9731 C   0  0  2  0  0  0  0  0  0  0  0  0
   -1.2252   -4.0451   16.9696 O   0  0  0  0  0  0  0  0  0  0  0  0
   -5.6680    2.8386   16.8045 C   0  0  2  0  0  0  0  0  0  0  0  0
   -6.5876    2.0693   17.6757 N   0  0  0  0  0  0  0  0  0  0  0  0
   -3.2362    6.0465   21.4857 C   0  0  0  0  0  0  0  0  0  0  0  0
   -3.0808   -2.8315   15.9756 C   0  0  2  0  0  0  0  0  0  0  0  0
   -2.1988   -1.6675   15.7074 N   0  0  0  0  0  0  0  0  0  0  0  0
   -4.2352    2.1483   16.7944 C   0  0  1  0  0  0  0  0  0  0  0  0
   -4.3445    0.7176   16.4077 O   0  0  0  0  0  0  0  0  0  0  0  0
   -3.7039    4.8446   20.5556 C   0  0  2  0  0  0  0  0  0  0  0  0
   -2.5304    4.2227   19.9056 N   0  0  0  0  0  0  0  0  0  0  0  0
   -3.8651   -2.6274   17.3460 C   0  0  1  0  0  0  0  0  0  0  0  0
   -4.6578   -1.4125   17.3634 O   0  0  0  0  0  0  0  0  0  0  0  0
   -3.2974    3.0116   15.8410 C   0  0  2  0  0  0  0  0  0  0  0  0
   -1.9844    2.4833   15.7885 O   0  0  0  0  0  0  0  0  0  0  0  0
   -4.7134    5.3743   19.4558 C   0  0  2  0  0  0  0  0  0  0  0  0
   -4.7875   -3.8660   17.5781 C   0  0  2  0  0  0  0  0  0  0  0  0
   -5.5040   -3.7446   18.7911 O   0  0  0  0  0  0  0  0  0  0  0  0
   -3.2514    4.5121   16.3209 C   0  0  2  0  0  0  0  0  0  0  0  0
   -4.6225    5.0608   16.3789 O   0  0  0  0  0  0  0  0  0  0  0  0
   -5.9558    6.0239   20.1270 C   0  0  2  0  0  0  0  0  0  0  0  0
   -6.8155    6.5209   19.0615 O   0  0  0  0  0  0  0  0  0  0  0  0
   -3.9254   -5.1911   17.5636 C   0  0  2  0  0  0  0  0  0  0  0  0
   -3.1742   -5.3015   16.2923 O   0  0  0  0  0  0  0  0  0  0  0  0
   -2.3864    5.3714   15.3999 C   0  0  0  0  0  0  0  0  0  0  0  0
   -1.9431    6.5325   16.0587 O   0  0  0  0  0  0  0  0  0  0  0  0
   -5.5050    7.1916   21.0355 C   0  0  1  0  0  0  0  0  0  0  0  0
   -6.6497    7.7597   21.6363 O   0  0  0  0  0  0  0  0  0  0  0  0
   -4.7889   -6.4306   17.7427 C   0  0  0  0  0  0  0  0  0  0  0  0
   -5.7405   -6.5195   16.7100 O   0  0  0  0  0  0  0  0  0  0  0  0
   -3.7879   -0.2446   17.4307 C   0  0  0  0  0  0  0  0  0  0  0  0
  1  2  1  1  0  0  0
  1  7  1  0  0  0  0
  1 24  1  0  0  0  0
  3  4  1  6  0  0  0
  3  9  1  0  0  0  0
  3 31  1  0  0  0  0
  5  6  1  1  0  0  0
  5 10  1  0  0  0  0
  5 28  1  0  0  0  0
  7  8  1  1  0  0  0
  7 12  1  0  0  0  0
  9 14  1  0  0  0  0
 10 11  1  1  0  0  0
 10 16  1  0  0  0  0
 12 13  1  6  0  0  0
 12 18  1  0  0  0  0
 13 35  1  0  0  0  0
 14 15  1  6  0  0  0
 14 20  1  0  0  0  0
 16 17  1  6  0  0  0
 16 21  1  0  0  0  0
 17 35  1  0  0  0  0
 18 19  1  1  0  0  0
 18 23  1  0  0  0  0
 20  2  1  6  0  0  0
 20 25  1  0  0  0  0
 21 22  1  1  0  0  0
 21 27  1  0  0  0  0
 23 24  1  0  0  0  0
 23 29  1  6  0  0  0
 25 26  1  6  0  0  0
 25 31  1  0  0  0  0
 27 28  1  0  0  0  0
 27 33  1  6  0  0  0
 29 30  1  0  0  0  0
 31 32  1  1  0  0  0
 33 34  1  0  0  0  0
M  END
>  <CHROM.1>
172.38633733,-122.56020923,144.92822493,-70.76712486,134.66107788,-155.04891125
-158.14873231,59.67793863,-4.16720972,1.61437401,17.95413327,-1.71695683
-1.02097656,-3.00163941

>  <Name>
2o3v_lig

>  <RI>
0

>  <Rbt.Current_Directory>
/home/afrankz/demos/rdock_decoys_rna/rnas/2o3v

>  <Rbt.Executable>
rbdock ($Id: //depot/dev/client3/rdock/2013.1/src/exe/rbdock.cxx#4 $)

>  <Rbt.Library>
libRbt.so (2013.1, Build901 2013/11/27)

>  <Rbt.Parameter_File>
/export/apps/rDock/src/rDock_2013.1_src/data/scripts/dock_solv.prm

>  <Rbt.Receptor>
prm/blind_docking_40.prm

>  <SCORE>
0.866663

>  <SCORE.INTER>
-3.25909

>  <SCORE.INTER.CONST>
1

>  <SCORE.INTER.POLAR>
-1.07877

>  <SCORE.INTER.ROT>
8

>  <SCORE.INTER.SOLV>
28.7244

>  <SCORE.INTER.VDW>
-17.085

>  <SCORE.INTER.norm>
-0.0931167

>  <SCORE.INTRA>
4.03795

>  <SCORE.INTRA.DIHEDRAL>
9.86863

>  <SCORE.INTRA.DIHEDRAL.0>
13.1227

>  <SCORE.INTRA.POLAR>
0

>  <SCORE.INTRA.POLAR.0>
0

>  <SCORE.INTRA.REPUL>
0

>  <SCORE.INTRA.REPUL.0>
0

>  <SCORE.INTRA.SOLV>
1.61727

>  <SCORE.INTRA.SOLV.lig_0>
-89.1587

>  <SCORE.INTRA.VDW>
-1.705

>  <SCORE.INTRA.VDW.0>
-0.838383

>  <SCORE.INTRA.norm>
0.11537

>  <SCORE.RESTR>
0.0877978

>  <SCORE.RESTR.CAVITY>
0.0877978

>  <SCORE.RESTR.norm>
0.00250851

>  <SCORE.SYSTEM>
0

>  <SCORE.SYSTEM.CONST>
0

>  <SCORE.SYSTEM.DIHEDRAL>
0

>  <SCORE.SYSTEM.SOLV>
0

>  <SCORE.SYSTEM.norm>
0

>  <SCORE.heavy>
35

>  <SCORE.norm>
0.0247618

>  <RMSD>
30.624

$$$$
2o3v_lig
 OpenBabel02141814113D
libRbt.so/2013.1/901 2013/11/27
 35 37  0  0  0  0  0  0  0  0999 V2000
   -2.7205    4.2845   15.9727 C   0  0  2  0  0  0  0  0  0  0  0  0
   -4.0434    4.8963   15.8819 O   0  0  0  0  0  0  0  0  0  0  0  0
   -7.0877    2.1547   17.3458 C   0  0  2  0  0  0  0  0  0  0  0  0
   -8.3757    1.4066   17.4629 N   0  0  0  0  0  0  0  0  0  0  0  0
   -3.6566    8.0758   23.8335 C   0  0  2  0  0  0  0  0  0  0  0  0
   -4.3511    9.3176   23.5861 O   0  0  0  0  0  0  0  0  0  0  0  0
   -2.5717    3.9868   17.4984 C   0  0  2  0  0  0  0  0  0  0  0  0
   -3.6530    3.0941   17.9782 N   0  0  0  0  0  0  0  0  0  0  0  0
   -7.3457    3.7148   17.5034 C   0  0  0  0  0  0  0  0  0  0  0  0
   -3.2879    7.4569   22.4408 C   0  0  2  0  0  0  0  0  0  0  0  0
   -2.4627    8.3976   21.6415 N   0  0  0  0  0  0  0  0  0  0  0  0
   -2.5611    5.3261   18.3562 C   0  0  1  0  0  0  0  0  0  0  0  0
   -2.4636    5.0194   19.8070 O   0  0  0  0  0  0  0  0  0  0  0  0
   -5.9630    4.4874   17.3633 C   0  0  2  0  0  0  0  0  0  0  0  0
   -6.1825    5.9437   17.4955 N   0  0  0  0  0  0  0  0  0  0  0  0
   -4.5883    7.0321   21.6263 C   0  0  1  0  0  0  0  0  0  0  0  0
   -4.2752    6.4251   20.3463 O   0  0  0  0  0  0  0  0  0  0  0  0
   -1.3800    6.2376   17.8016 C   0  0  2  0  0  0  0  0  0  0  0  0
   -1.3084    7.4713   18.4936 O   0  0  0  0  0  0  0  0  0  0  0  0
   -5.3044    4.1655   15.9591 C   0  0  2  0  0  0  0  0  0  0  0  0
   -5.4151    6.0348   22.4983 C   0  0  2  0  0  0  0  0  0  0  0  0
   -6.5920    5.6296   21.8272 O   0  0  0  0  0  0  0  0  0  0  0  0
   -1.5613    6.4999   16.2582 C   0  0  2  0  0  0  0  0  0  0  0  0
   -1.6398    5.2116   15.5379 O   0  0  0  0  0  0  0  0  0  0  0  0
   -5.0614    2.6373   15.8109 C   0  0  2  0  0  0  0  0  0  0  0  0
   -4.4948    2.4135   14.4880 O   0  0  0  0  0  0  0  0  0  0  0  0
   -5.7610    6.6953   23.8923 C   0  0  2  0  0  0  0  0  0  0  0  0
   -4.5211    7.1224   24.5802 O   0  0  0  0  0  0  0  0  0  0  0  0
   -0.4192    7.3427   15.6924 C   0  0  0  0  0  0  0  0  0  0  0  0
    0.7436    6.5700   15.5197 O   0  0  0  0  0  0  0  0  0  0  0  0
   -6.4036    1.8815   15.9500 C   0  0  1  0  0  0  0  0  0  0  0  0
   -6.1546    0.4978   15.8173 O   0  0  0  0  0  0  0  0  0  0  0  0
   -6.5303    5.7430   24.7952 C   0  0  0  0  0  0  0  0  0  0  0  0
   -7.7880    5.4466   24.2381 O   0  0  0  0  0  0  0  0  0  0  0  0
   -3.7838    5.0664   20.5400 C   0  0  0  0  0  0  0  0  0  0  0  0
  1  2  1  1  0  0  0
  1  7  1  0  0  0  0
  1 24  1  0  0  0  0
  3  4  1  6  0  0  0
  3  9  1  0  0  0  0
  3 31  1  0  0  0  0
  5  6  1  6  0  0  0
  5 10  1  0  0  0  0
  5 28  1  0  0  0  0
  7  8  1  1  0  0  0
  7 12  1  0  0  0  0
  9 14  1  0  0  0  0
 10 11  1  6  0  0  0
 10 16  1  0  0  0  0
 12 13  1  1  0  0  0
 12 18  1  0  0  0  0
 13 35  1  0  0  0  0
 14 15  1  6  0  0  0
 14 20  1  0  0  0  0
 16 17  1  6  0  0  0
 16 21  1  0  0  0  0
 17 35  1  0  0  0  0
 18 19  1  1  0  0  0
 18 23  1  0  0  0  0
 20  2  1  1  0  0  0
 20 25  1  0  0  0  0
 21 22  1  6  0  0  0
 21 27  1  0  0  0  0
 23 24  1  0  0  0  0
 23 29  1  6  0  0  0
 25 26  1  6  0  0  0
 25 31  1  0  0  0  0
 27 28  1  0  0  0  0
 27 33  1  1  0  0  0
 29 30  1  0  0  0  0
 31 32  1  1  0  0  0
 33 34  1  0  0  0  0
M  END
>  <CHROM.1>
-75.97469200,-99.25879600,-59.25433061,74.71017473,-126.57737381,107.33638379
76.73376127,-64.71423856,-4.24051081,5.26385022,19.03686674,-1.43932087,0.57987099
1.06878639

>  <Name>
2o3v_lig

>  <RI>
0

>  <Rbt.Current_Directory>
/home/afrankz/demos/rdock_decoys_rna/rnas/2o3v

>  <Rbt.Executable>
rbdock ($Id: //depot/dev/client3/rdock/2013.1/src/exe/rbdock.cxx#4 $)

>  <Rbt.Library>
libRbt.so (2013.1, Build901 2013/11/27)

>  <Rbt.Parameter_File>
/export/apps/rDock/src/rDock_2013.1_src/data/scripts/dock_solv.prm

>  <Rbt.Receptor>
prm/blind_docking_40.prm

>  <SCORE>
-1.60916

>  <SCORE.INTER>
-14.276

>  <SCORE.INTER.CONST>
1

>  <SCORE.INTER.POLAR>
-1.93938

>  <SCORE.INTER.ROT>
8

>  <SCORE.INTER.SOLV>
29.7585

>  <SCORE.INTER.VDW>
-21.9056

>  <SCORE.INTER.norm>
-0.407884

>  <SCORE.INTRA>
10.317

>  <SCORE.INTRA.DIHEDRAL>
8.85243

>  <SCORE.INTRA.DIHEDRAL.0>
13.1227

>  <SCORE.INTRA.POLAR>
0

>  <SCORE.INTRA.POLAR.0>
0

>  <SCORE.INTRA.REPUL>
0.00234649

>  <SCORE.INTRA.REPUL.0>
0

>  <SCORE.INTRA.SOLV>
7.84148

>  <SCORE.INTRA.SOLV.lig_0>
-89.1587

>  <SCORE.INTRA.VDW>
1.95833

>  <SCORE.INTRA.VDW.0>
-0.838383

>  <SCORE.INTRA.norm>
0.294772

>  <SCORE.RESTR>
2.34978

>  <SCORE.RESTR.CAVITY>
2.34978

>  <SCORE.RESTR.norm>
0.0671367

>  <SCORE.SYSTEM>
0

>  <SCORE.SYSTEM.CONST>
0

>  <SCORE.SYSTEM.DIHEDRAL>
0

>  <SCORE.SYSTEM.SOLV>
0

>  <SCORE.SYSTEM.norm>
0

>  <SCORE.heavy>
35

>  <SCORE.norm>
-0.0459759

>  <RMSD>
30.644

$$$$
2o3v_lig
 OpenBabel02141814113D
libRbt.so/2013.1/901 2013/11/27
 35 37  0  0  0  0  0  0  0  0999 V2000
   -2.6187    1.6943   16.1473 C   0  0  2  0  0  0  0  0  0  0  0  0
   -3.8106    0.9897   16.6119 O   0  0  0  0  0  0  0  0  0  0  0  0
   -4.2488   -3.2418   17.5227 C   0  0  2  0  0  0  0  0  0  0  0  0
   -4.5226   -4.7011   17.3561 N   0  0  0  0  0  0  0  0  0  0  0  0
   -6.8045    7.5708   21.6239 C   0  0  2  0  0  0  0  0  0  0  0  0
   -7.3888    6.3535   22.1361 O   0  0  0  0  0  0  0  0  0  0  0  0
   -2.6231    3.0004   17.0031 C   0  0  2  0  0  0  0  0  0  0  0  0
   -2.5813    2.6918   18.4520 N   0  0  0  0  0  0  0  0  0  0  0  0
   -5.5621   -2.4010   17.2163 C   0  0  0  0  0  0  0  0  0  0  0  0
   -5.9042    7.1825   20.4004 C   0  0  2  0  0  0  0  0  0  0  0  0
   -6.6937    6.4733   19.3618 N   0  0  0  0  0  0  0  0  0  0  0  0
   -3.8922    3.9039   16.6832 C   0  0  1  0  0  0  0  0  0  0  0  0
   -3.9008    5.1189   17.5387 O   0  0  0  0  0  0  0  0  0  0  0  0
   -5.2409   -0.8532   17.3891 C   0  0  2  0  0  0  0  0  0  0  0  0
   -6.4483   -0.0512   17.0970 N   0  0  0  0  0  0  0  0  0  0  0  0
   -4.6579    6.2984   20.8478 C   0  0  1  0  0  0  0  0  0  0  0  0
   -3.7886    5.9523   19.7391 O   0  0  0  0  0  0  0  0  0  0  0  0
   -3.8796    4.2067   15.1206 C   0  0  2  0  0  0  0  0  0  0  0  0
   -4.9943    4.9909   14.7353 O   0  0  0  0  0  0  0  0  0  0  0  0
   -4.0648   -0.4338   16.4144 C   0  0  2  0  0  0  0  0  0  0  0  0
   -3.8521    7.0886   21.9271 C   0  0  2  0  0  0  0  0  0  0  0  0
   -2.7347    6.3446   22.3714 O   0  0  0  0  0  0  0  0  0  0  0  0
   -3.8601    2.8634   14.2966 C   0  0  2  0  0  0  0  0  0  0  0  0
   -2.6985    2.0446   14.7025 O   0  0  0  0  0  0  0  0  0  0  0  0
   -2.7865   -1.2651   16.7167 C   0  0  2  0  0  0  0  0  0  0  0  0
   -1.7660   -0.8562   15.7616 O   0  0  0  0  0  0  0  0  0  0  0  0
   -4.7964    7.4635   23.1384 C   0  0  2  0  0  0  0  0  0  0  0  0
   -5.9660    8.2346   22.6584 O   0  0  0  0  0  0  0  0  0  0  0  0
   -3.8100    3.1265   12.7922 C   0  0  0  0  0  0  0  0  0  0  0  0
   -5.0538    3.5782   12.3150 O   0  0  0  0  0  0  0  0  0  0  0  0
   -3.0954   -2.7718   16.5533 C   0  0  1  0  0  0  0  0  0  0  0  0
   -1.9218   -3.5034   16.8384 O   0  0  0  0  0  0  0  0  0  0  0  0
   -4.0645    8.2739   24.1975 C   0  0  0  0  0  0  0  0  0  0  0  0
   -4.9267    8.5755   25.2678 O   0  0  0  0  0  0  0  0  0  0  0  0
   -4.3810    4.8786   18.9508 C   0  0  0  0  0  0  0  0  0  0  0  0
  1  2  1  1  0  0  0
  1  7  1  0  0  0  0
  1 24  1  0  0  0  0
  3  4  1  6  0  0  0
  3  9  1  0  0  0  0
  3 31  1  0  0  0  0
  5  6  1  1  0  0  0
  5 10  1  0  0  0  0
  5 28  1  0  0  0  0
  7  8  1  1  0  0  0
  7 12  1  0  0  0  0
  9 14  1  0  0  0  0
 10 11  1  6  0  0  0
 10 16  1  0  0  0  0
 12 13  1  1  0  0  0
 12 18  1  0  0  0  0
 13 35  1  0  0  0  0
 14 15  1  6  0  0  0
 14 20  1  0  0  0  0
 16 17  1  6  0  0  0
 16 21  1  0  0  0  0
 17 35  1  0  0  0  0
 18 19  1  6  0  0  0
 18 23  1  0  0  0  0
 20  2  1  1  0  0  0
 20 25  1  0  0  0  0
 21 22  1  1  0  0  0
 21 27  1  0  0  0  0
 23 24  1  0  0  0  0
 23 29  1  6  0  0  0
 25 26  1  6  0  0  0
 25 31  1  0  0  0  0
 27 28  1  0  0  0  0
 27 33  1  1  0  0  0
 29 30  1  0  0  0  0
 31 32  1  1  0  0  0
 33 34  1  0  0  0  0
M  END
>  <CHROM.1>
-161.76528496,-78.54054959,156.02629883,-76.99870298,149.04737849,164.95912678
-73.93323389,-179.22423516,-4.26120339,3.15895323,18.23631338,0.05886529
1.43285105,-0.98280080

>  <Name>
2o3v_lig

>  <RI>
0

>  <Rbt.Current_Directory>
/home/afrankz/demos/rdock_decoys_rna/rnas/2o3v

>  <Rbt.Executable>
rbdock ($Id: //depot/dev/client3/rdock/2013.1/src/exe/rbdock.cxx#4 $)

>  <Rbt.Library>
libRbt.so (2013.1, Build901 2013/11/27)

>  <Rbt.Parameter_File>
/export/apps/rDock/src/rDock_2013.1_src/data/scripts/dock_solv.prm

>  <Rbt.Receptor>
prm/blind_docking_80.prm

>  <SCORE>
7.05713

>  <SCORE.INTER>
5.44561

>  <SCORE.INTER.CONST>
1

>  <SCORE.INTER.POLAR>
-0.88311

>  <SCORE.INTER.ROT>
8

>  <SCORE.INTER.SOLV>
29.6983

>  <SCORE.INTER.VDW>
-12.2587

>  <SCORE.INTER.norm>
0.155589

>  <SCORE.INTRA>
-0.350507

>  <SCORE.INTRA.DIHEDRAL>
-0.675063

>  <SCORE.INTRA.DIHEDRAL.0>
13.1227

>  <SCORE.INTRA.POLAR>
0

>  <SCORE.INTRA.POLAR.0>
0

>  <SCORE.INTRA.REPUL>
0

>  <SCORE.INTRA.REPUL.0>
0

>  <SCORE.INTRA.SOLV>
0.757522

>  <SCORE.INTRA.SOLV.lig_0>
-89.1587

>  <SCORE.INTRA.VDW>
-0.391736

>  <SCORE.INTRA.VDW.0>
-0.838383

>  <SCORE.INTRA.norm>
-0.0100145

>  <SCORE.RESTR>
1.96202

>  <SCORE.RESTR.CAVITY>
1.96202

>  <SCORE.RESTR.norm>
0.0560577

>  <SCORE.SYSTEM>
0

>  <SCORE.SYSTEM.CONST>
0

>  <SCORE.SYSTEM.DIHEDRAL>
0

>  <SCORE.SYSTEM.SOLV>
0

>  <SCORE.SYSTEM.norm>
0

>  <SCORE.heavy>
35

>  <SCORE.norm>
0.201632

>  <RMSD>
30.659

$$$$
2o3v_lig
 OpenBabel02141814113D
libRbt.so/2013.1/901 2013/11/27
 35 37  0  0  0  0  0  0  0  0999 V2000
   -2.3120   -6.2744   16.2282 C   0  0  2  0  0  0  0  0  0  0  0  0
   -2.9411   -6.2604   17.5461 O   0  0  0  0  0  0  0  0  0  0  0  0
   -5.8306   -8.5991   19.8063 C   0  0  2  0  0  0  0  0  0  0  0  0
   -7.0981   -9.2931   20.1858 N   0  0  0  0  0  0  0  0  0  0  0  0
   -4.6188    3.0638   15.2780 C   0  0  2  0  0  0  0  0  0  0  0  0
   -5.8853    2.5742   15.7698 O   0  0  0  0  0  0  0  0  0  0  0  0
   -1.6956   -4.8442   16.1146 C   0  0  2  0  0  0  0  0  0  0  0  0
   -0.7311   -4.5878   17.2102 N   0  0  0  0  0  0  0  0  0  0  0  0
   -6.0880   -7.0388   19.6486 C   0  0  0  0  0  0  0  0  0  0  0  0
   -3.6883    1.8218   15.0548 C   0  0  2  0  0  0  0  0  0  0  0  0
   -4.3067    0.8555   14.1120 N   0  0  0  0  0  0  0  0  0  0  0  0
   -2.8217   -3.7211   16.1172 C   0  0  1  0  0  0  0  0  0  0  0  0
   -2.2128   -2.3670   16.0532 O   0  0  0  0  0  0  0  0  0  0  0  0
   -4.7282   -6.3266   19.2337 C   0  0  2  0  0  0  0  0  0  0  0  0
   -4.9485   -4.8736   19.0703 N   0  0  0  0  0  0  0  0  0  0  0  0
   -3.3320    1.1025   16.4298 C   0  0  1  0  0  0  0  0  0  0  0  0
   -2.4442   -0.0316   16.2562 O   0  0  0  0  0  0  0  0  0  0  0  0
   -3.8197   -4.0445   14.9201 C   0  0  2  0  0  0  0  0  0  0  0  0
   -4.8773   -3.1046   14.8584 O   0  0  0  0  0  0  0  0  0  0  0  0
   -4.1851   -6.9463   17.8809 C   0  0  2  0  0  0  0  0  0  0  0  0
   -2.6733    2.1511   17.3812 C   0  0  2  0  0  0  0  0  0  0  0  0
   -2.3438    1.5691   18.6271 O   0  0  0  0  0  0  0  0  0  0  0  0
   -4.4056   -5.5003   15.0659 C   0  0  2  0  0  0  0  0  0  0  0  0
   -3.3007   -6.4795   15.1341 O   0  0  0  0  0  0  0  0  0  0  0  0
   -3.9421   -8.4731   18.0420 C   0  0  2  0  0  0  0  0  0  0  0  0
   -3.4848   -8.9788   16.7551 O   0  0  0  0  0  0  0  0  0  0  0  0
   -3.6407    3.3864   17.5752 C   0  0  2  0  0  0  0  0  0  0  0  0
   -3.9843    3.9809   16.2632 O   0  0  0  0  0  0  0  0  0  0  0  0
   -5.3391   -5.8500   13.9079 C   0  0  0  0  0  0  0  0  0  0  0  0
   -4.8447   -5.3499   12.6895 O   0  0  0  0  0  0  0  0  0  0  0  0
   -5.2617   -9.1695   18.4491 C   0  0  1  0  0  0  0  0  0  0  0  0
   -5.0127  -10.5519   18.5942 O   0  0  0  0  0  0  0  0  0  0  0  0
   -3.0220    4.4567   18.4617 C   0  0  0  0  0  0  0  0  0  0  0  0
   -3.9060    5.5411   18.6120 O   0  0  0  0  0  0  0  0  0  0  0  0
   -3.2160   -1.2393   15.9897 C   0  0  0  0  0  0  0  0  0  0  0  0
  1  2  1  1  0  0  0
  1  7  1  0  0  0  0
  1 24  1  0  0  0  0
  3  4  1  6  0  0  0
  3  9  1  0  0  0  0
  3 31  1  0  0  0  0
  5  6  1  1  0  0  0
  5 10  1  0  0  0  0
  5 28  1  0  0  0  0
  7  8  1  1  0  0  0
  7 12  1  0  0  0  0
  9 14  1  0  0  0  0
 10 11  1  6  0  0  0
 10 16  1  0  0  0  0
 12 13  1  6  0  0  0
 12 18  1  0  0  0  0
 13 35  1  0  0  0  0
 14 15  1  6  0  0  0
 14 20  1  0  0  0  0
 16 17  1  6  0  0  0
 16 21  1  0  0  0  0
 17 35  1  0  0  0  0
 18 19  1  1  0  0  0
 18 23  1  0  0  0  0
 20  2  1  1  0  0  0
 20 25  1  0  0  0  0
 21 22  1  1  0  0  0
 21 27  1  0  0  0  0
 23 24  1  0  0  0  0
 23 29  1  6  0  0  0
 25 26  1  6  0  0  0
 25 31  1  0  0  0  0
 27 28  1  0  0  0  0
 27 33  1  1  0  0  0
 29 30  1  0  0  0  0
 31 32  1  1  0  0  0
 33 34  1  0  0  0  0
M  END
>  <CHROM.1>
144.83135621,177.43448227,166.79693358,-87.63212418,-171.08741062,-163.02790192
39.21201245,179.89844996,-3.90932378,-3.08269179,16.81627983,-2.03130381
1.37464431,0.36107331

>  <Name>
2o3v_lig

>  <RI>
0

>  <Rbt.Current_Directory>
/home/afrankz/demos/rdock_decoys_rna/rnas/2o3v

>  <Rbt.Executable>
rbdock ($Id: //depot/dev/client3/rdock/2013.1/src/exe/rbdock.cxx#4 $)

>  <Rbt.Library>
libRbt.so (2013.1, Build901 2013/11/27)

>  <Rbt.Parameter_File>
/export/apps/rDock/src/rDock_2013.1_src/data/scripts/dock_solv.prm

>  <Rbt.Receptor>
prm/blind_docking_40.prm

>  <SCORE>
-7.82198

>  <SCORE.INTER>
-9.7462

>  <SCORE.INTER.CONST>
1

>  <SCORE.INTER.POLAR>
-1.55699

>  <SCORE.INTER.ROT>
8

>  <SCORE.INTER.SOLV>
16.2403

>  <SCORE.INTER.VDW>
-15.6543

>  <SCORE.INTER.norm>
-0.278463

>  <SCORE.INTRA>
-1.43248

>  <SCORE.INTRA.DIHEDRAL>
-1.40511

>  <SCORE.INTRA.DIHEDRAL.0>
13.1227

>  <SCORE.INTRA.POLAR>
0

>  <SCORE.INTRA.POLAR.0>
0

>  <SCORE.INTRA.REPUL>
0.00836681

>  <SCORE.INTRA.REPUL.0>
0

>  <SCORE.INTRA.SOLV>
0.427595

>  <SCORE.INTRA.SOLV.lig_0>
-89.1587

>  <SCORE.INTRA.VDW>
-0.985559

>  <SCORE.INTRA.VDW.0>
-0.838383

>  <SCORE.INTRA.norm>
-0.040928

>  <SCORE.RESTR>
3.3567

>  <SCORE.RESTR.CAVITY>
3.3567

>  <SCORE.RESTR.norm>
0.0959058

>  <SCORE.SYSTEM>
0

>  <SCORE.SYSTEM.CONST>
0

>  <SCORE.SYSTEM.DIHEDRAL>
0

>  <SCORE.SYSTEM.SOLV>
0

>  <SCORE.SYSTEM.norm>
0

>  <SCORE.heavy>
35

>  <SCORE.norm>
-0.223485

>  <RMSD>
30.660

$$$$
2o3v_lig
 OpenBabel02141814113D
libRbt.so/2013.1/901 2013/11/27
 35 37  0  0  0  0  0  0  0  0999 V2000
   -2.2425    3.7929   16.1259 C   0  0  2  0  0  0  0  0  0  0  0  0
   -3.6329    4.1532   15.8620 O   0  0  0  0  0  0  0  0  0  0  0  0
   -7.6987    2.6183   16.0630 C   0  0  2  0  0  0  0  0  0  0  0  0
   -8.8962    1.8469   16.5139 N   0  0  0  0  0  0  0  0  0  0  0  0
   -5.2380    8.7048   23.6178 C   0  0  2  0  0  0  0  0  0  0  0  0
   -6.0766    9.1248   22.5196 O   0  0  0  0  0  0  0  0  0  0  0  0
   -2.1738    3.7644   17.6857 C   0  0  2  0  0  0  0  0  0  0  0  0
   -3.1379    2.7887   18.2467 N   0  0  0  0  0  0  0  0  0  0  0  0
   -6.5426    1.6225   15.6190 C   0  0  0  0  0  0  0  0  0  0  0  0
   -4.0504    7.8781   23.0141 C   0  0  2  0  0  0  0  0  0  0  0  0
   -3.2929    8.6812   22.0211 N   0  0  0  0  0  0  0  0  0  0  0  0
   -2.4425    5.2030   18.3084 C   0  0  1  0  0  0  0  0  0  0  0  0
   -2.4168    5.1455   19.7931 O   0  0  0  0  0  0  0  0  0  0  0  0
   -5.2778    2.4675   15.1556 C   0  0  2  0  0  0  0  0  0  0  0  0
   -4.1847    1.5586   14.7486 N   0  0  0  0  0  0  0  0  0  0  0  0
   -4.5574    6.5198   22.3562 C   0  0  1  0  0  0  0  0  0  0  0  0
   -3.4743    5.7182   21.8186 O   0  0  0  0  0  0  0  0  0  0  0  0
   -1.3771    6.2023   17.6759 C   0  0  2  0  0  0  0  0  0  0  0  0
   -1.5557    7.5226   18.1563 O   0  0  0  0  0  0  0  0  0  0  0  0
   -4.7908    3.4029   16.3376 C   0  0  2  0  0  0  0  0  0  0  0  0
   -5.3339    5.7048   23.4385 C   0  0  2  0  0  0  0  0  0  0  0  0
   -5.8189    4.4879   22.9061 O   0  0  0  0  0  0  0  0  0  0  0  0
   -1.4707    6.1882   16.1028 C   0  0  2  0  0  0  0  0  0  0  0  0
   -1.2881    4.8092   15.6034 O   0  0  0  0  0  0  0  0  0  0  0  0
   -5.9293    4.3690   16.7697 C   0  0  2  0  0  0  0  0  0  0  0  0
   -5.4256    5.1655   17.8800 O   0  0  0  0  0  0  0  0  0  0  0  0
   -6.5174    6.5748   24.0232 C   0  0  2  0  0  0  0  0  0  0  0  0
   -5.9971    7.8490   24.5695 O   0  0  0  0  0  0  0  0  0  0  0  0
   -0.4321    7.1122   15.4687 C   0  0  0  0  0  0  0  0  0  0  0  0
   -0.9513    7.7513   14.3282 O   0  0  0  0  0  0  0  0  0  0  0  0
   -7.1631    3.5512   17.2180 C   0  0  1  0  0  0  0  0  0  0  0  0
   -8.1827    4.4507   17.5993 O   0  0  0  0  0  0  0  0  0  0  0  0
   -7.2774    5.8367   25.1149 C   0  0  0  0  0  0  0  0  0  0  0  0
   -8.2203    6.6889   25.7188 O   0  0  0  0  0  0  0  0  0  0  0  0
   -3.7674    5.3329   20.4435 C   0  0  0  0  0  0  0  0  0  0  0  0
  1  2  1  1  0  0  0
  1  7  1  0  0  0  0
  1 24  1  0  0  0  0
  3  4  1  1  0  0  0
  3  9  1  0  0  0  0
  3 31  1  0  0  0  0
  5  6  1  6  0  0  0
  5 10  1  0  0  0  0
  5 28  1  0  0  0  0
  7  8  1  1  0  0  0
  7 12  1  0  0  0  0
  9 14  1  0  0  0  0
 10 11  1  6  0  0  0
 10 16  1  0  0  0  0
 12 13  1  1  0  0  0
 12 18  1  0  0  0  0
 13 35  1  0  0  0  0
 14 15  1  1  0  0  0
 14 20  1  0  0  0  0
 16 17  1  1  0  0  0
 16 21  1  0  0  0  0
 17 35  1  0  0  0  0
 18 19  1  1  0  0  0
 18 23  1  0  0  0  0
 20  2  1  6  0  0  0
 20 25  1  0  0  0  0
 21 22  1  6  0  0  0
 21 27  1  0  0  0  0
 23 24  1  0  0  0  0
 23 29  1  6  0  0  0
 25 26  1  1  0  0  0
 25 31  1  0  0  0  0
 27 28  1  0  0  0  0
 27 33  1  1  0  0  0
 29 30  1  0  0  0  0
 31 32  1  6  0  0  0
 33 34  1  0  0  0  0
M  END
>  <CHROM.1>
-57.56761306,-109.65132103,-160.30422336,-129.08939131,152.77841959,-97.96842117
-143.20348788,173.23713801,-4.47996196,5.31642310,19.14439568,-1.26997645
0.53096382,1.05858062

>  <Name>
2o3v_lig

>  <RI>
0

>  <Rbt.Current_Directory>
/home/afrankz/demos/rdock_decoys_rna/rnas/2o3v

>  <Rbt.Executable>
rbdock ($Id: //depot/dev/client3/rdock/2013.1/src/exe/rbdock.cxx#4 $)

>  <Rbt.Library>
libRbt.so (2013.1, Build901 2013/11/27)

>  <Rbt.Parameter_File>
/export/apps/rDock/src/rDock_2013.1_src/data/scripts/dock_solv.prm

>  <Rbt.Receptor>
prm/blind_docking_80.prm

>  <SCORE>
18.542

>  <SCORE.INTER>
9.82058

>  <SCORE.INTER.CONST>
1

>  <SCORE.INTER.POLAR>
-1.01633

>  <SCORE.INTER.ROT>
8

>  <SCORE.INTER.SOLV>
27.2603

>  <SCORE.INTER.VDW>
-8.08527

>  <SCORE.INTER.norm>
0.280588

>  <SCORE.INTRA>
7.04947

>  <SCORE.INTRA.DIHEDRAL>
14.0236

>  <SCORE.INTRA.DIHEDRAL.0>
13.1227

>  <SCORE.INTRA.POLAR>
0

>  <SCORE.INTRA.POLAR.0>
0

>  <SCORE.INTRA.REPUL>
0.00498582

>  <SCORE.INTRA.REPUL.0>
0

>  <SCORE.INTRA.SOLV>
3.2873

>  <SCORE.INTRA.SOLV.lig_0>
-89.1587

>  <SCORE.INTRA.VDW>
-1.63092

>  <SCORE.INTRA.VDW.0>
-0.838383

>  <SCORE.INTRA.norm>
0.201413

>  <SCORE.RESTR>
1.67192

>  <SCORE.RESTR.CAVITY>
1.67192

>  <SCORE.RESTR.norm>
0.0477691

>  <SCORE.SYSTEM>
0

>  <SCORE.SYSTEM.CONST>
0

>  <SCORE.SYSTEM.DIHEDRAL>
0

>  <SCORE.SYSTEM.SOLV>
0

>  <SCORE.SYSTEM.norm>
0

>  <SCORE.heavy>
35

>  <SCORE.norm>
0.529771

>  <RMSD>
30.661

$$$$
2o3v_lig
 OpenBabel02141814113D
libRbt.so/2013.1/901 2013/11/27
 35 37  0  0  0  0  0  0  0  0999 V2000
   -3.0130   -4.4950   17.8438 C   0  0  2  0  0  0  0  0  0  0  0  0
   -4.3670   -4.2125   18.3124 O   0  0  0  0  0  0  0  0  0  0  0  0
   -7.5508   -7.1260   18.8623 C   0  0  2  0  0  0  0  0  0  0  0  0
   -8.4450   -8.1363   19.5041 N   0  0  0  0  0  0  0  0  0  0  0  0
   -3.2389    4.1183   15.4703 C   0  0  2  0  0  0  0  0  0  0  0  0
   -4.2608    4.5022   14.5248 O   0  0  0  0  0  0  0  0  0  0  0  0
   -2.4494   -3.0767   17.5133 C   0  0  2  0  0  0  0  0  0  0  0  0
   -2.4740   -2.1988   18.7070 N   0  0  0  0  0  0  0  0  0  0  0  0
   -6.0495   -7.6472   18.8615 C   0  0  0  0  0  0  0  0  0  0  0  0
   -3.1993    2.5515   15.5107 C   0  0  2  0  0  0  0  0  0  0  0  0
   -2.9371    1.9903   14.1612 N   0  0  0  0  0  0  0  0  0  0  0  0
   -3.2546   -2.3905   16.3257 C   0  0  1  0  0  0  0  0  0  0  0  0
   -2.7318   -1.0257   16.0568 O   0  0  0  0  0  0  0  0  0  0  0  0
   -5.1184   -6.5503   18.1846 C   0  0  2  0  0  0  0  0  0  0  0  0
   -3.7134   -7.0111   18.1840 N   0  0  0  0  0  0  0  0  0  0  0  0
   -4.5451    1.9470   16.1094 C   0  0  1  0  0  0  0  0  0  0  0  0
   -4.5228    0.4986   16.1895 O   0  0  0  0  0  0  0  0  0  0  0  0
   -3.1875   -3.3727   15.0749 C   0  0  2  0  0  0  0  0  0  0  0  0
   -3.9031   -2.8530   13.9687 O   0  0  0  0  0  0  0  0  0  0  0  0
   -5.2376   -5.1808   18.9717 C   0  0  2  0  0  0  0  0  0  0  0  0
   -4.7713    2.5535   17.5305 C   0  0  2  0  0  0  0  0  0  0  0  0
   -5.9628    2.0587   18.1093 O   0  0  0  0  0  0  0  0  0  0  0  0
   -3.7511   -4.7941   15.4565 C   0  0  2  0  0  0  0  0  0  0  0  0
   -3.0060   -5.3334   16.6135 O   0  0  0  0  0  0  0  0  0  0  0  0
   -6.7097   -4.6816   18.9729 C   0  0  2  0  0  0  0  0  0  0  0  0
   -6.7494   -3.4467   19.7440 O   0  0  0  0  0  0  0  0  0  0  0  0
   -4.8000    4.1318   17.4454 C   0  0  2  0  0  0  0  0  0  0  0  0
   -3.5509    4.6359   16.8301 O   0  0  0  0  0  0  0  0  0  0  0  0
   -3.6636   -5.7682   14.2825 C   0  0  0  0  0  0  0  0  0  0  0  0
   -4.2555   -7.0033   14.6034 O   0  0  0  0  0  0  0  0  0  0  0  0
   -7.6196   -5.7473   19.6274 C   0  0  1  0  0  0  0  0  0  0  0  0
   -8.9494   -5.2725   19.6108 O   0  0  0  0  0  0  0  0  0  0  0  0
   -4.9748    4.7699   18.8152 C   0  0  0  0  0  0  0  0  0  0  0  0
   -4.6844    6.1455   18.7567 O   0  0  0  0  0  0  0  0  0  0  0  0
   -3.3429    0.0528   16.9204 C   0  0  0  0  0  0  0  0  0  0  0  0
  1  2  1  6  0  0  0
  1  7  1  0  0  0  0
  1 24  1  0  0  0  0
  3  4  1  1  0  0  0
  3  9  1  0  0  0  0
  3 31  1  0  0  0  0
  5  6  1  6  0  0  0
  5 10  1  0  0  0  0
  5 28  1  0  0  0  0
  7  8  1  1  0  0  0
  7 12  1  0  0  0  0
  9 14  1  0  0  0  0
 10 11  1  6  0  0  0
 10 16  1  0  0  0  0
 12 13  1  6  0  0  0
 12 18  1  0  0  0  0
 13 35  1  0  0  0  0
 14 15  1  1  0  0  0
 14 20  1  0  0  0  0
 16 17  1  1  0  0  0
 16 21  1  0  0  0  0
 17 35  1  0  0  0  0
 18 19  1  6  0  0  0
 18 23  1  0  0  0  0
 20  2  1  6  0  0  0
 20 25  1  0  0  0  0
 21 22  1  6  0  0  0
 21 27  1  0  0  0  0
 23 24  1  0  0  0  0
 23 29  1  6  0  0  0
 25 26  1  1  0  0  0
 25 31  1  0  0  0  0
 27 28  1  0  0  0  0
 27 33  1  1  0  0  0
 29 30  1  0  0  0  0
 31 32  1  6  0  0  0
 33 34  1  0  0  0  0
M  END
>  <CHROM.1>
-168.44797569,-86.04674223,-88.74211610,53.63588227,-131.27082263,-43.30294362
-175.78772812,166.18062929,-4.60776765,-1.87136844,17.17625414,-1.80850857
0.84327947,0.04251190

>  <Name>
2o3v_lig

>  <RI>
0

>  <Rbt.Current_Directory>
/home/afrankz/demos/rdock_decoys_rna/rnas/2o3v

>  <Rbt.Executable>
rbdock ($Id: //depot/dev/client3/rdock/2013.1/src/exe/rbdock.cxx#4 $)

>  <Rbt.Library>
libRbt.so (2013.1, Build901 2013/11/27)

>  <Rbt.Parameter_File>
/export/apps/rDock/src/rDock_2013.1_src/data/scripts/dock_solv.prm

>  <Rbt.Receptor>
prm/blind_docking_100.prm

>  <SCORE>
-9.57209

>  <SCORE.INTER>
-16.6957

>  <SCORE.INTER.CONST>
1

>  <SCORE.INTER.POLAR>
-2.26078

>  <SCORE.INTER.ROT>
8

>  <SCORE.INTER.SOLV>
17.6065

>  <SCORE.INTER.VDW>
-18.3967

>  <SCORE.INTER.norm>
-0.477019

>  <SCORE.INTRA>
5.03765

>  <SCORE.INTRA.DIHEDRAL>
2.57672

>  <SCORE.INTRA.DIHEDRAL.0>
13.1227

>  <SCORE.INTRA.POLAR>
0

>  <SCORE.INTRA.POLAR.0>
0

>  <SCORE.INTRA.REPUL>
0

>  <SCORE.INTRA.REPUL.0>
0

>  <SCORE.INTRA.SOLV>
3.61019

>  <SCORE.INTRA.SOLV.lig_0>
-89.1587

>  <SCORE.INTRA.VDW>
1.94419

>  <SCORE.INTRA.VDW.0>
-0.838383

>  <SCORE.INTRA.norm>
0.143933

>  <SCORE.RESTR>
2.08592

>  <SCORE.RESTR.CAVITY>
2.08592

>  <SCORE.RESTR.norm>
0.0595977

>  <SCORE.SYSTEM>
0

>  <SCORE.SYSTEM.CONST>
0

>  <SCORE.SYSTEM.DIHEDRAL>
0

>  <SCORE.SYSTEM.SOLV>
0

>  <SCORE.SYSTEM.norm>
0

>  <SCORE.heavy>
35

>  <SCORE.norm>
-0.273488

>  <RMSD>
30.674

$$$$
2o3v_lig
 OpenBabel02141814113D
libRbt.so/2013.1/901 2013/11/27
 35 37  0  0  0  0  0  0  0  0999 V2000
   -5.9169    4.2754   17.5254 C   0  0  2  0  0  0  0  0  0  0  0  0
   -5.2165    4.2524   18.8067 O   0  0  0  0  0  0  0  0  0  0  0  0
   -4.4173    6.9534   22.1224 C   0  0  2  0  0  0  0  0  0  0  0  0
   -3.9462    8.1447   22.8912 N   0  0  0  0  0  0  0  0  0  0  0  0
   -1.6124   -4.0701   16.0172 C   0  0  2  0  0  0  0  0  0  0  0  0
   -0.6691   -3.5982   17.0036 O   0  0  0  0  0  0  0  0  0  0  0  0
   -6.2331    2.7681   17.2674 C   0  0  2  0  0  0  0  0  0  0  0  0
   -7.0536    2.1977   18.3618 N   0  0  0  0  0  0  0  0  0  0  0  0
   -3.1839    6.2230   21.4363 C   0  0  0  0  0  0  0  0  0  0  0  0
   -2.7112   -2.9643   15.8495 C   0  0  2  0  0  0  0  0  0  0  0  0
   -2.1057   -1.6675   15.4535 N   0  0  0  0  0  0  0  0  0  0  0  0
   -4.9028    1.9141   17.0928 C   0  0  1  0  0  0  0  0  0  0  0  0
   -5.2241    0.4770   16.8927 O   0  0  0  0  0  0  0  0  0  0  0  0
   -3.7131    4.9677   20.6163 C   0  0  2  0  0  0  0  0  0  0  0  0
   -2.5809    4.2796   19.9596 N   0  0  0  0  0  0  0  0  0  0  0  0
   -3.5739   -2.7900   17.1762 C   0  0  1  0  0  0  0  0  0  0  0  0
   -4.6209   -1.7954   17.0381 O   0  0  0  0  0  0  0  0  0  0  0  0
   -4.0698    2.5676   15.9042 C   0  0  2  0  0  0  0  0  0  0  0  0
   -2.8480    1.8840   15.6902 O   0  0  0  0  0  0  0  0  0  0  0  0
   -4.7641    5.4376   19.5283 C   0  0  2  0  0  0  0  0  0  0  0  0
   -4.2004   -4.1722   17.5447 C   0  0  2  0  0  0  0  0  0  0  0  0
   -4.9723   -4.0803   18.7260 O   0  0  0  0  0  0  0  0  0  0  0  0
   -3.7866    4.0898   16.1985 C   0  0  2  0  0  0  0  0  0  0  0  0
   -5.0622    4.8010   16.4255 O   0  0  0  0  0  0  0  0  0  0  0  0
   -5.9638    6.1562   20.2072 C   0  0  2  0  0  0  0  0  0  0  0  0
   -6.8641    6.5932   19.1491 O   0  0  0  0  0  0  0  0  0  0  0  0
   -3.0610   -5.2571   17.6997 C   0  0  2  0  0  0  0  0  0  0  0  0
   -2.2556   -5.3369   16.4596 O   0  0  0  0  0  0  0  0  0  0  0  0
   -3.0195    4.7511   15.0544 C   0  0  0  0  0  0  0  0  0  0  0  0
   -3.7899    4.7803   13.8778 O   0  0  0  0  0  0  0  0  0  0  0  0
   -5.4530    7.3761   21.0090 C   0  0  1  0  0  0  0  0  0  0  0  0
   -6.5596    8.0066   21.6191 O   0  0  0  0  0  0  0  0  0  0  0  0
   -3.6279   -6.6327   18.0164 C   0  0  0  0  0  0  0  0  0  0  0  0
   -4.4223   -7.0937   16.9504 O   0  0  0  0  0  0  0  0  0  0  0  0
   -4.0529   -0.4542   17.1009 C   0  0  0  0  0  0  0  0  0  0  0  0
  1  2  1  1  0  0  0
  1  7  1  0  0  0  0
  1 24  1  0  0  0  0
  3  4  1  6  0  0  0
  3  9  1  0  0  0  0
  3 31  1  0  0  0  0
  5  6  1  1  0  0  0
  5 10  1  0  0  0  0
  5 28  1  0  0  0  0
  7  8  1  1  0  0  0
  7 12  1  0  0  0  0
  9 14  1  0  0  0  0
 10 11  1  1  0  0  0
 10 16  1  0  0  0  0
 12 13  1  6  0  0  0
 12 18  1  0  0  0  0
 13 35  1  0  0  0  0
 14 15  1  6  0  0  0
 14 20  1  0  0  0  0
 16 17  1  6  0  0  0
 16 21  1  0  0  0  0
 17 35  1  0  0  0  0
 18 19  1  1  0  0  0
 18 23  1  0  0  0  0
 20  2  1  1  0  0  0
 20 25  1  0  0  0  0
 21 22  1  1  0  0  0
 21 27  1  0  0  0  0
 23 24  1  0  0  0  0
 23 29  1  6  0  0  0
 25 26  1  6  0  0  0
 25 31  1  0  0  0  0
 27 28  1  0  0  0  0
 27 33  1  6  0  0  0
 29 30  1  0  0  0  0
 31 32  1  1  0  0  0
 33 34  1  0  0  0  0
M  END
>  <CHROM.1>
-176.62890697,-163.81840707,172.50680088,-76.08013408,177.85735894,-163.87544073
64.94364175,63.63158323,-4.19025802,1.46774037,17.92988436,-2.38176690,-1.34835980
2.61417538

>  <Name>
2o3v_lig

>  <RI>
0

>  <Rbt.Current_Directory>
/home/afrankz/demos/rdock_decoys_rna/rnas/2o3v

>  <Rbt.Executable>
rbdock ($Id: //depot/dev/client3/rdock/2013.1/src/exe/rbdock.cxx#4 $)

>  <Rbt.Library>
libRbt.so (2013.1, Build901 2013/11/27)

>  <Rbt.Parameter_File>
/export/apps/rDock/src/rDock_2013.1_src/data/scripts/dock_solv.prm

>  <Rbt.Receptor>
prm/blind_docking_40.prm

>  <SCORE>
-4.41909

>  <SCORE.INTER>
-0.711582

>  <SCORE.INTER.CONST>
1

>  <SCORE.INTER.POLAR>
-0.285778

>  <SCORE.INTER.ROT>
8

>  <SCORE.INTER.SOLV>
31.3297

>  <SCORE.INTER.VDW>
-18.8984

>  <SCORE.INTER.norm>
-0.0203309

>  <SCORE.INTRA>
-4.62101

>  <SCORE.INTRA.DIHEDRAL>
-8.95458

>  <SCORE.INTRA.DIHEDRAL.0>
13.1227

>  <SCORE.INTRA.POLAR>
0

>  <SCORE.INTRA.POLAR.0>
0

>  <SCORE.INTRA.REPUL>
0.222128

>  <SCORE.INTRA.REPUL.0>
0

>  <SCORE.INTRA.SOLV>
0.528626

>  <SCORE.INTRA.SOLV.lig_0>
-89.1587

>  <SCORE.INTRA.VDW>
-1.51867

>  <SCORE.INTRA.VDW.0>
-0.838383

>  <SCORE.INTRA.norm>
-0.132029

>  <SCORE.RESTR>
0.913502

>  <SCORE.RESTR.CAVITY>
0.913502

>  <SCORE.RESTR.norm>
0.0261001

>  <SCORE.SYSTEM>
0

>  <SCORE.SYSTEM.CONST>
0

>  <SCORE.SYSTEM.DIHEDRAL>
0

>  <SCORE.SYSTEM.SOLV>
0

>  <SCORE.SYSTEM.norm>
0

>  <SCORE.heavy>
35

>  <SCORE.norm>
-0.12626

>  <RMSD>
30.684

$$$$
2o3v_lig
 OpenBabel02141814113D
libRbt.so/2013.1/901 2013/11/27
 35 37  0  0  0  0  0  0  0  0999 V2000
   -5.5643    4.0915   17.1645 C   0  0  2  0  0  0  0  0  0  0  0  0
   -5.0910    4.0890   18.5461 O   0  0  0  0  0  0  0  0  0  0  0  0
   -4.7229    6.7732   21.9501 C   0  0  2  0  0  0  0  0  0  0  0  0
   -4.3875    7.9765   22.7697 N   0  0  0  0  0  0  0  0  0  0  0  0
   -2.2127   -4.2331   15.9766 C   0  0  2  0  0  0  0  0  0  0  0  0
   -1.2003   -4.1040   16.9983 O   0  0  0  0  0  0  0  0  0  0  0  0
   -5.4241    2.5955   16.7393 C   0  0  2  0  0  0  0  0  0  0  0  0
   -6.2230    1.7110   17.6200 N   0  0  0  0  0  0  0  0  0  0  0  0
   -3.3969    6.1298   21.3559 C   0  0  0  0  0  0  0  0  0  0  0  0
   -2.9946   -2.8755   15.9142 C   0  0  2  0  0  0  0  0  0  0  0  0
   -2.0749   -1.7435   15.6356 N   0  0  0  0  0  0  0  0  0  0  0  0
   -3.9043    2.1270   16.7444 C   0  0  1  0  0  0  0  0  0  0  0  0
   -3.7966    0.6902   16.3805 O   0  0  0  0  0  0  0  0  0  0  0  0
   -3.7821    4.8601   20.4797 C   0  0  2  0  0  0  0  0  0  0  0  0
   -2.5618    4.2523   19.9072 N   0  0  0  0  0  0  0  0  0  0  0  0
   -3.8112   -2.6081   17.2545 C   0  0  1  0  0  0  0  0  0  0  0  0
   -4.5716   -1.3733   17.2113 O   0  0  0  0  0  0  0  0  0  0  0  0
   -3.1009    3.1059   15.7800 C   0  0  2  0  0  0  0  0  0  0  0  0
   -1.7235    2.7790   15.7398 O   0  0  0  0  0  0  0  0  0  0  0  0
   -4.7701    5.2860   19.3170 C   0  0  2  0  0  0  0  0  0  0  0  0
   -4.7722   -3.8146   17.4981 C   0  0  2  0  0  0  0  0  0  0  0  0
   -5.5189   -3.6365   18.6856 O   0  0  0  0  0  0  0  0  0  0  0  0
   -3.2821    4.6036   16.2359 C   0  0  2  0  0  0  0  0  0  0  0  0
   -4.7201    4.9421   16.2811 O   0  0  0  0  0  0  0  0  0  0  0  0
   -6.0612    5.9198   19.9066 C   0  0  2  0  0  0  0  0  0  0  0  0
   -6.8996    6.3213   18.7854 O   0  0  0  0  0  0  0  0  0  0  0  0
   -3.9455   -5.1612   17.5495 C   0  0  2  0  0  0  0  0  0  0  0  0
   -3.1622   -5.3309   16.3043 O   0  0  0  0  0  0  0  0  0  0  0  0
   -2.5503    5.5682   15.3037 C   0  0  0  0  0  0  0  0  0  0  0  0
   -1.1965    5.6930   15.6647 O   0  0  0  0  0  0  0  0  0  0  0  0
   -5.6907    7.1534   20.7627 C   0  0  1  0  0  0  0  0  0  0  0  0
   -6.8784    7.7061   21.2901 O   0  0  0  0  0  0  0  0  0  0  0  0
   -4.8462   -6.3718   17.7419 C   0  0  0  0  0  0  0  0  0  0  0  0
   -5.6838   -6.5433   16.6242 O   0  0  0  0  0  0  0  0  0  0  0  0
   -3.7195   -0.2445   17.5648 C   0  0  0  0  0  0  0  0  0  0  0  0
  1  2  1  1  0  0  0
  1  7  1  0  0  0  0
  1 24  1  0  0  0  0
  3  4  1  6  0  0  0
  3  9  1  0  0  0  0
  3 31  1  0  0  0  0
  5  6  1  1  0  0  0
  5 10  1  0  0  0  0
  5 28  1  0  0  0  0
  7  8  1  1  0  0  0
  7 12  1  0  0  0  0
  9 14  1  0  0  0  0
 10 11  1  1  0  0  0
 10 16  1  0  0  0  0
 12 13  1  6  0  0  0
 12 18  1  0  0  0  0
 13 35  1  0  0  0  0
 14 15  1  6  0  0  0
 14 20  1  0  0  0  0
 16 17  1  6  0  0  0
 16 21  1  0  0  0  0
 17 35  1  0  0  0  0
 18 19  1  1  0  0  0
 18 23  1  0  0  0  0
 20  2  1  1  0  0  0
 20 25  1  0  0  0  0
 21 22  1  1  0  0  0
 21 27  1  0  0  0  0
 23 24  1  0  0  0  0
 23 29  1  6  0  0  0
 25 26  1  6  0  0  0
 25 31  1  0  0  0  0
 27 28  1  0  0  0  0
 27 33  1  6  0  0  0
 29 30  1  0  0  0  0
 31 32  1  1  0  0  0
 33 34  1  0  0  0  0
M  END
>  <CHROM.1>
167.19273897,-95.97172929,138.46532293,-83.41428773,122.51272772,-157.55161927
-84.38692702,65.31303506,-4.12065767,1.56995947,17.85048660,-1.71838313,-0.93104345
-3.00449172

>  <Name>
2o3v_lig

>  <RI>
0

>  <Rbt.Current_Directory>
/home/afrankz/demos/rdock_decoys_rna/rnas/2o3v

>  <Rbt.Executable>
rbdock ($Id: //depot/dev/client3/rdock/2013.1/src/exe/rbdock.cxx#4 $)

>  <Rbt.Library>
libRbt.so (2013.1, Build901 2013/11/27)

>  <Rbt.Parameter_File>
/export/apps/rDock/src/rDock_2013.1_src/data/scripts/dock_solv.prm

>  <Rbt.Receptor>
prm/blind_docking_80.prm

>  <SCORE>
-2.83097

>  <SCORE.INTER>
-7.66624

>  <SCORE.INTER.CONST>
1

>  <SCORE.INTER.POLAR>
-2.03563

>  <SCORE.INTER.ROT>
8

>  <SCORE.INTER.SOLV>
28.7391

>  <SCORE.INTER.VDW>
-16.8384

>  <SCORE.INTER.norm>
-0.219035

>  <SCORE.INTRA>
4.39275

>  <SCORE.INTRA.DIHEDRAL>
11.7714

>  <SCORE.INTRA.DIHEDRAL.0>
13.1227

>  <SCORE.INTRA.POLAR>
0

>  <SCORE.INTRA.POLAR.0>
0

>  <SCORE.INTRA.REPUL>
0

>  <SCORE.INTRA.REPUL.0>
0

>  <SCORE.INTRA.SOLV>
2.27808

>  <SCORE.INTRA.SOLV.lig_0>
-89.1587

>  <SCORE.INTRA.VDW>
-2.632

>  <SCORE.INTRA.VDW.0>
-0.838383

>  <SCORE.INTRA.norm>
0.125507

>  <SCORE.RESTR>
0.442516

>  <SCORE.RESTR.CAVITY>
0.442516

>  <SCORE.RESTR.norm>
0.0126433

>  <SCORE.SYSTEM>
0

>  <SCORE.SYSTEM.CONST>
0

>  <SCORE.SYSTEM.DIHEDRAL>
0

>  <SCORE.SYSTEM.SOLV>
0

>  <SCORE.SYSTEM.norm>
0

>  <SCORE.heavy>
35

>  <SCORE.norm>
-0.0808849

>  <RMSD>
30.696

$$$$
2o3v_lig
 OpenBabel02141814113D
libRbt.so/2013.1/901 2013/11/27
 35 37  0  0  0  0  0  0  0  0999 V2000
   -2.1536   -2.6419   16.4363 C   0  0  2  0  0  0  0  0  0  0  0  0
   -3.4753   -3.2629   16.4553 O   0  0  0  0  0  0  0  0  0  0  0  0
   -5.2283   -7.1405   17.3601 C   0  0  2  0  0  0  0  0  0  0  0  0
   -5.5771   -8.3969   18.0894 N   0  0  0  0  0  0  0  0  0  0  0  0
   -2.4006    5.0354   18.5505 C   0  0  2  0  0  0  0  0  0  0  0  0
   -2.3688    6.0676   17.5410 O   0  0  0  0  0  0  0  0  0  0  0  0
   -2.3230   -1.4189   17.3923 C   0  0  2  0  0  0  0  0  0  0  0  0
   -2.7362   -1.8518   18.7481 N   0  0  0  0  0  0  0  0  0  0  0  0
   -3.6589   -7.0644   17.1225 C   0  0  0  0  0  0  0  0  0  0  0  0
   -2.7897    3.6932   17.8396 C   0  0  2  0  0  0  0  0  0  0  0  0
   -1.8313    3.3687   16.7528 N   0  0  0  0  0  0  0  0  0  0  0  0
   -3.3739   -0.3714   16.8198 C   0  0  1  0  0  0  0  0  0  0  0  0
   -3.5535    0.7617   17.7643 O   0  0  0  0  0  0  0  0  0  0  0  0
   -3.3137   -5.7145   16.3562 C   0  0  2  0  0  0  0  0  0  0  0  0
   -1.8548   -5.6183   16.1349 N   0  0  0  0  0  0  0  0  0  0  0  0
   -4.2759    3.7415   17.2706 C   0  0  1  0  0  0  0  0  0  0  0  0
   -4.6746    2.4993   16.6362 O   0  0  0  0  0  0  0  0  0  0  0  0
   -2.8754    0.0601   15.3710 C   0  0  2  0  0  0  0  0  0  0  0  0
   -3.7681    0.9796   14.7681 O   0  0  0  0  0  0  0  0  0  0  0  0
   -3.8154   -4.4713   17.1999 C   0  0  2  0  0  0  0  0  0  0  0  0
   -5.2468    4.0711   18.4486 C   0  0  2  0  0  0  0  0  0  0  0  0
   -6.5857    4.1377   17.9987 O   0  0  0  0  0  0  0  0  0  0  0  0
   -2.7037   -1.2039   14.4455 C   0  0  2  0  0  0  0  0  0  0  0  0
   -1.7750   -2.1642   15.0779 O   0  0  0  0  0  0  0  0  0  0  0  0
   -5.3499   -4.5569   17.4329 C   0  0  2  0  0  0  0  0  0  0  0  0
   -5.7310   -3.4093   18.2445 O   0  0  0  0  0  0  0  0  0  0  0  0
   -4.8168    5.4266   19.1392 C   0  0  2  0  0  0  0  0  0  0  0  0
   -3.4110    5.3463   19.5976 O   0  0  0  0  0  0  0  0  0  0  0  0
   -2.1897   -0.8205   13.0586 C   0  0  0  0  0  0  0  0  0  0  0  0
   -2.8673    0.3073   12.5608 O   0  0  0  0  0  0  0  0  0  0  0  0
   -5.6906   -5.8704   18.1751 C   0  0  1  0  0  0  0  0  0  0  0  0
   -7.0882   -5.9260   18.3690 O   0  0  0  0  0  0  0  0  0  0  0  0
   -5.7094    5.7673   20.3229 C   0  0  0  0  0  0  0  0  0  0  0  0
   -6.4609    6.9261   20.0537 O   0  0  0  0  0  0  0  0  0  0  0  0
   -4.8849    1.4650   17.6418 C   0  0  0  0  0  0  0  0  0  0  0  0
  1  2  1  6  0  0  0
  1  7  1  0  0  0  0
  1 24  1  0  0  0  0
  3  4  1  1  0  0  0
  3  9  1  0  0  0  0
  3 31  1  0  0  0  0
  5  6  1  6  0  0  0
  5 10  1  0  0  0  0
  5 28  1  0  0  0  0
  7  8  1  1  0  0  0
  7 12  1  0  0  0  0
  9 14  1  0  0  0  0
 10 11  1  6  0  0  0
 10 16  1  0  0  0  0
 12 13  1  1  0  0  0
 12 18  1  0  0  0  0
 13 35  1  0  0  0  0
 14 15  1  1  0  0  0
 14 20  1  0  0  0  0
 16 17  1  1  0  0  0
 16 21  1  0  0  0  0
 17 35  1  0  0  0  0
 18 19  1  6  0  0  0
 18 23  1  0  0  0  0
 20  2  1  6  0  0  0
 20 25  1  0  0  0  0
 21 22  1  6  0  0  0
 21 27  1  0  0  0  0
 23 24  1  0  0  0  0
 23 29  1  6  0  0  0
 25 26  1  1  0  0  0
 25 31  1  0  0  0  0
 27 28  1  0  0  0  0
 27 33  1  1  0  0  0
 29 30  1  0  0  0  0
 31 32  1  6  0  0  0
 33 34  1  0  0  0  0
M  END
>  <CHROM.1>
-103.11242540,-155.00093421,-88.62430738,72.02670616,-91.99031354,-80.20699016
-44.31834859,-113.53762007,-3.92572121,-0.27217575,17.17106650,-1.57037166
0.86636557,0.12919301

>  <Name>
2o3v_lig

>  <RI>
0

>  <Rbt.Current_Directory>
/home/afrankz/demos/rdock_decoys_rna/rnas/2o3v

>  <Rbt.Executable>
rbdock ($Id: //depot/dev/client3/rdock/2013.1/src/exe/rbdock.cxx#4 $)

>  <Rbt.Library>
libRbt.so (2013.1, Build901 2013/11/27)

>  <Rbt.Parameter_File>
/export/apps/rDock/src/rDock_2013.1_src/data/scripts/dock_solv.prm

>  <Rbt.Receptor>
prm/blind_docking_100.prm

>  <SCORE>
-0.885003

>  <SCORE.INTER>
-13.6094

>  <SCORE.INTER.CONST>
1

>  <SCORE.INTER.POLAR>
-2.92673

>  <SCORE.INTER.ROT>
8

>  <SCORE.INTER.SOLV>
26.7859

>  <SCORE.INTER.VDW>
-17.1791

>  <SCORE.INTER.norm>
-0.388839

>  <SCORE.INTRA>
8.50291

>  <SCORE.INTRA.DIHEDRAL>
11.2331

>  <SCORE.INTRA.DIHEDRAL.0>
13.1227

>  <SCORE.INTRA.POLAR>
0

>  <SCORE.INTRA.POLAR.0>
0

>  <SCORE.INTRA.REPUL>
0

>  <SCORE.INTRA.REPUL.0>
0

>  <SCORE.INTRA.SOLV>
4.14083

>  <SCORE.INTRA.SOLV.lig_0>
-89.1587

>  <SCORE.INTRA.VDW>
0.815969

>  <SCORE.INTRA.VDW.0>
-0.838383

>  <SCORE.INTRA.norm>
0.24294

>  <SCORE.RESTR>
4.22144

>  <SCORE.RESTR.CAVITY>
4.22144

>  <SCORE.RESTR.norm>
0.120613

>  <SCORE.SYSTEM>
0

>  <SCORE.SYSTEM.CONST>
0

>  <SCORE.SYSTEM.DIHEDRAL>
0

>  <SCORE.SYSTEM.SOLV>
0

>  <SCORE.SYSTEM.norm>
0

>  <SCORE.heavy>
35

>  <SCORE.norm>
-0.0252858

>  <RMSD>
30.706

$$$$
2o3v_lig
 OpenBabel02141814113D
libRbt.so/2013.1/901 2013/11/27
 35 37  0  0  0  0  0  0  0  0999 V2000
   -5.4284    4.2839   17.6926 C   0  0  2  0  0  0  0  0  0  0  0  0
   -4.8917    4.2677   19.0507 O   0  0  0  0  0  0  0  0  0  0  0  0
   -5.1312    6.9934   22.4330 C   0  0  2  0  0  0  0  0  0  0  0  0
   -4.9059    8.1863   23.3040 N   0  0  0  0  0  0  0  0  0  0  0  0
   -4.0860   -4.4645   16.3010 C   0  0  2  0  0  0  0  0  0  0  0  0
   -4.0451   -4.1541   14.8913 O   0  0  0  0  0  0  0  0  0  0  0  0
   -5.4633    2.7710   17.3073 C   0  0  2  0  0  0  0  0  0  0  0  0
   -6.3055    1.9973   18.2500 N   0  0  0  0  0  0  0  0  0  0  0  0
   -3.7572    6.2379   22.1749 C   0  0  0  0  0  0  0  0  0  0  0  0
   -4.0831   -3.1054   17.0828 C   0  0  2  0  0  0  0  0  0  0  0  0
   -5.2292   -2.2539   16.6749 N   0  0  0  0  0  0  0  0  0  0  0  0
   -4.0012    2.1472   17.2578 C   0  0  1  0  0  0  0  0  0  0  0  0
   -4.0594    0.6982   16.9334 O   0  0  0  0  0  0  0  0  0  0  0  0
   -4.0226    4.9813   21.2374 C   0  0  2  0  0  0  0  0  0  0  0  0
   -2.7532    4.2698   20.9749 N   0  0  0  0  0  0  0  0  0  0  0  0
   -2.7124   -2.3198   16.8862 C   0  0  1  0  0  0  0  0  0  0  0  0
   -2.6692   -1.0727   17.6263 O   0  0  0  0  0  0  0  0  0  0  0  0
   -3.1490    3.0122   16.2286 C   0  0  2  0  0  0  0  0  0  0  0  0
   -1.8160    2.5428   16.1359 O   0  0  0  0  0  0  0  0  0  0  0  0
   -4.6694    5.4543   19.8709 C   0  0  2  0  0  0  0  0  0  0  0  0
   -1.5406   -3.2469   17.3401 C   0  0  2  0  0  0  0  0  0  0  0  0
   -0.2922   -2.6030   17.1773 O   0  0  0  0  0  0  0  0  0  0  0  0
   -3.1532    4.5318   16.6462 C   0  0  2  0  0  0  0  0  0  0  0  0
   -4.5449    5.0191   16.7462 O   0  0  0  0  0  0  0  0  0  0  0  0
   -6.0093    6.1974   20.1330 C   0  0  2  0  0  0  0  0  0  0  0  0
   -6.5231    6.6355   18.8426 O   0  0  0  0  0  0  0  0  0  0  0  0
   -1.5830   -4.6051   16.5321 C   0  0  2  0  0  0  0  0  0  0  0  0
   -2.8978   -5.2644   16.7042 O   0  0  0  0  0  0  0  0  0  0  0  0
   -2.3721    5.3908   15.6528 C   0  0  0  0  0  0  0  0  0  0  0  0
   -3.0645    5.5130   14.4344 O   0  0  0  0  0  0  0  0  0  0  0  0
   -5.7563    7.4187   21.0476 C   0  0  1  0  0  0  0  0  0  0  0  0
   -6.9877    8.0717   21.2742 O   0  0  0  0  0  0  0  0  0  0  0  0
   -0.4840   -5.5604   16.9719 C   0  0  0  0  0  0  0  0  0  0  0  0
    0.7765   -5.0720   16.5811 O   0  0  0  0  0  0  0  0  0  0  0  0
   -2.7090    0.0592   16.7085 C   0  0  0  0  0  0  0  0  0  0  0  0
  1  2  1  1  0  0  0
  1  7  1  0  0  0  0
  1 24  1  0  0  0  0
  3  4  1  1  0  0  0
  3  9  1  0  0  0  0
  3 31  1  0  0  0  0
  5  6  1  6  0  0  0
  5 10  1  0  0  0  0
  5 28  1  0  0  0  0
  7  8  1  1  0  0  0
  7 12  1  0  0  0  0
  9 14  1  0  0  0  0
 10 11  1  6  0  0  0
 10 16  1  0  0  0  0
 12 13  1  6  0  0  0
 12 18  1  0  0  0  0
 13 35  1  0  0  0  0
 14 15  1  6  0  0  0
 14 20  1  0  0  0  0
 16 17  1  1  0  0  0
 16 21  1  0  0  0  0
 17 35  1  0  0  0  0
 18 19  1  1  0  0  0
 18 23  1  0  0  0  0
 20  2  1  6  0  0  0
 20 25  1  0  0  0  0
 21 22  1  6  0  0  0
 21 27  1  0  0  0  0
 23 24  1  0  0  0  0
 23 29  1  6  0  0  0
 25 26  1  6  0  0  0
 25 31  1  0  0  0  0
 27 28  1  0  0  0  0
 27 33  1  1  0  0  0
 29 30  1  0  0  0  0
 31 32  1  1  0  0  0
 33 34  1  0  0  0  0
M  END
>  <CHROM.1>
-179.58684071,173.29159283,125.56690782,-110.55034167,110.90217791,-177.60579164
71.35820369,-69.09846198,-3.69881775,1.76476168,17.98477794,-2.95946994,-1.29997693
2.10256867

>  <Name>
2o3v_lig

>  <RI>
0

>  <Rbt.Current_Directory>
/home/afrankz/demos/rdock_decoys_rna/rnas/2o3v

>  <Rbt.Executable>
rbdock ($Id: //depot/dev/client3/rdock/2013.1/src/exe/rbdock.cxx#4 $)

>  <Rbt.Library>
libRbt.so (2013.1, Build901 2013/11/27)

>  <Rbt.Parameter_File>
/export/apps/rDock/src/rDock_2013.1_src/data/scripts/dock_solv.prm

>  <Rbt.Receptor>
prm/blind_docking_40.prm

>  <SCORE>
-1.14919

>  <SCORE.INTER>
-6.28835

>  <SCORE.INTER.CONST>
1

>  <SCORE.INTER.POLAR>
-0.682

>  <SCORE.INTER.ROT>
8

>  <SCORE.INTER.SOLV>
31.3013

>  <SCORE.INTER.VDW>
-21.286

>  <SCORE.INTER.norm>
-0.179667

>  <SCORE.INTRA>
3.49237

>  <SCORE.INTRA.DIHEDRAL>
8.52934

>  <SCORE.INTRA.DIHEDRAL.0>
13.1227

>  <SCORE.INTRA.POLAR>
0

>  <SCORE.INTRA.POLAR.0>
0

>  <SCORE.INTRA.REPUL>
0

>  <SCORE.INTRA.REPUL.0>
0

>  <SCORE.INTRA.SOLV>
-0.060794

>  <SCORE.INTRA.SOLV.lig_0>
-89.1587

>  <SCORE.INTRA.VDW>
-0.741903

>  <SCORE.INTRA.VDW.0>
-0.838383

>  <SCORE.INTRA.norm>
0.099782

>  <SCORE.RESTR>
1.64679

>  <SCORE.RESTR.CAVITY>
1.64679

>  <SCORE.RESTR.norm>
0.0470511

>  <SCORE.SYSTEM>
0

>  <SCORE.SYSTEM.CONST>
0

>  <SCORE.SYSTEM.DIHEDRAL>
0

>  <SCORE.SYSTEM.SOLV>
0

>  <SCORE.SYSTEM.norm>
0

>  <SCORE.heavy>
35

>  <SCORE.norm>
-0.032834

>  <RMSD>
30.726

$$$$
2o3v_lig
 OpenBabel02141814113D
libRbt.so/2013.1/901 2013/11/27
 35 37  0  0  0  0  0  0  0  0999 V2000
   -5.6152    4.1674   17.5656 C   0  0  2  0  0  0  0  0  0  0  0  0
   -5.1099    4.2099   18.9352 O   0  0  0  0  0  0  0  0  0  0  0  0
   -4.9263    7.0724   22.2062 C   0  0  2  0  0  0  0  0  0  0  0  0
   -4.6036    8.3034   22.9889 N   0  0  0  0  0  0  0  0  0  0  0  0
   -5.0643   -3.9283   16.6477 C   0  0  2  0  0  0  0  0  0  0  0  0
   -5.3108   -3.5566   15.2741 O   0  0  0  0  0  0  0  0  0  0  0  0
   -5.5504    2.6480   17.2111 C   0  0  2  0  0  0  0  0  0  0  0  0
   -6.3662    1.8432   18.1509 N   0  0  0  0  0  0  0  0  0  0  0  0
   -3.5881    6.3233   21.7895 C   0  0  0  0  0  0  0  0  0  0  0  0
   -4.5148   -2.6598   17.3874 C   0  0  2  0  0  0  0  0  0  0  0  0
   -5.4720   -1.5289   17.2882 N   0  0  0  0  0  0  0  0  0  0  0  0
   -4.0528    2.1128   17.2064 C   0  0  1  0  0  0  0  0  0  0  0  0
   -4.0165    0.6569   16.9108 O   0  0  0  0  0  0  0  0  0  0  0  0
   -3.9586    5.0253   20.9492 C   0  0  2  0  0  0  0  0  0  0  0  0
   -2.7255    4.3188   20.5411 N   0  0  0  0  0  0  0  0  0  0  0  0
   -3.0881   -2.2279   16.8280 C   0  0  1  0  0  0  0  0  0  0  0  0
   -2.5402   -1.0754   17.5181 O   0  0  0  0  0  0  0  0  0  0  0  0
   -3.2305    3.0076   16.1784 C   0  0  2  0  0  0  0  0  0  0  0  0
   -1.8699    2.6178   16.1246 O   0  0  0  0  0  0  0  0  0  0  0  0
   -4.7971    5.4325   19.6684 C   0  0  2  0  0  0  0  0  0  0  0  0
   -2.1143   -3.4409   16.9655 C   0  0  2  0  0  0  0  0  0  0  0  0
   -0.8289   -3.1178   16.4726 O   0  0  0  0  0  0  0  0  0  0  0  0
   -3.3353    4.5320   16.5643 C   0  0  2  0  0  0  0  0  0  0  0  0
   -4.7557    4.9362   16.6238 O   0  0  0  0  0  0  0  0  0  0  0  0
   -6.1007    6.1698   20.0846 C   0  0  2  0  0  0  0  0  0  0  0  0
   -6.7962    6.5470   18.8619 O   0  0  0  0  0  0  0  0  0  0  0  0
   -2.7072   -4.6972   16.2110 C   0  0  2  0  0  0  0  0  0  0  0  0
   -4.0559   -5.0193   16.7307 O   0  0  0  0  0  0  0  0  0  0  0  0
   -2.5844    5.4172   15.5707 C   0  0  0  0  0  0  0  0  0  0  0  0
   -1.2000    5.3972   15.8196 O   0  0  0  0  0  0  0  0  0  0  0  0
   -5.7450    7.4314   20.9055 C   0  0  1  0  0  0  0  0  0  0  0  0
   -6.9445    8.0785   21.2752 O   0  0  0  0  0  0  0  0  0  0  0  0
   -1.8119   -5.9187   16.3543 C   0  0  0  0  0  0  0  0  0  0  0  0
   -2.2862   -6.9721   15.5509 O   0  0  0  0  0  0  0  0  0  0  0  0
   -2.6296    0.1080   16.6713 C   0  0  0  0  0  0  0  0  0  0  0  0
  1  2  1  1  0  0  0
  1  7  1  0  0  0  0
  1 24  1  0  0  0  0
  3  4  1  6  0  0  0
  3  9  1  0  0  0  0
  3 31  1  0  0  0  0
  5  6  1  6  0  0  0
  5 10  1  0  0  0  0
  5 28  1  0  0  0  0
  7  8  1  1  0  0  0
  7 12  1  0  0  0  0
  9 14  1  0  0  0  0
 10 11  1  6  0  0  0
 10 16  1  0  0  0  0
 12 13  1  6  0  0  0
 12 18  1  0  0  0  0
 13 35  1  0  0  0  0
 14 15  1  6  0  0  0
 14 20  1  0  0  0  0
 16 17  1  1  0  0  0
 16 21  1  0  0  0  0
 17 35  1  0  0  0  0
 18 19  1  1  0  0  0
 18 23  1  0  0  0  0
 20  2  1  1  0  0  0
 20 25  1  0  0  0  0
 21 22  1  6  0  0  0
 21 27  1  0  0  0  0
 23 24  1  0  0  0  0
 23 29  1  6  0  0  0
 25 26  1  6  0  0  0
 25 31  1  0  0  0  0
 27 28  1  0  0  0  0
 27 33  1  1  0  0  0
 29 30  1  0  0  0  0
 31 32  1  1  0  0  0
 33 34  1  0  0  0  0
M  END
>  <CHROM.1>
171.17451668,170.84820096,130.74438477,-105.80529081,85.43394968,-166.27307841
-78.78898288,-173.34875526,-3.98949232,1.73517678,17.90011330,-1.81748807
-0.82586797,-2.98158858

>  <Name>
2o3v_lig

>  <RI>
0

>  <Rbt.Current_Directory>
/home/afrankz/demos/rdock_decoys_rna/rnas/2o3v

>  <Rbt.Executable>
rbdock ($Id: //depot/dev/client3/rdock/2013.1/src/exe/rbdock.cxx#4 $)

>  <Rbt.Library>
libRbt.so (2013.1, Build901 2013/11/27)

>  <Rbt.Parameter_File>
/export/apps/rDock/src/rDock_2013.1_src/data/scripts/dock_solv.prm

>  <Rbt.Receptor>
prm/blind_docking_80.prm

>  <SCORE>
-5.15698

>  <SCORE.INTER>
-10.3515

>  <SCORE.INTER.CONST>
1

>  <SCORE.INTER.POLAR>
-2.59426

>  <SCORE.INTER.ROT>
8

>  <SCORE.INTER.SOLV>
31.3743

>  <SCORE.INTER.VDW>
-17.6449

>  <SCORE.INTER.norm>
-0.295757

>  <SCORE.INTRA>
2.8548

>  <SCORE.INTRA.DIHEDRAL>
5.56099

>  <SCORE.INTRA.DIHEDRAL.0>
13.1227

>  <SCORE.INTRA.POLAR>
0

>  <SCORE.INTRA.POLAR.0>
0

>  <SCORE.INTRA.REPUL>
0

>  <SCORE.INTRA.REPUL.0>
0

>  <SCORE.INTRA.SOLV>
1.92304

>  <SCORE.INTRA.SOLV.lig_0>
-89.1587

>  <SCORE.INTRA.VDW>
-0.887214

>  <SCORE.INTRA.VDW.0>
-0.838383

>  <SCORE.INTRA.norm>
0.0815658

>  <SCORE.RESTR>
2.33973

>  <SCORE.RESTR.CAVITY>
2.33973

>  <SCORE.RESTR.norm>
0.0668493

>  <SCORE.SYSTEM>
0

>  <SCORE.SYSTEM.CONST>
0

>  <SCORE.SYSTEM.DIHEDRAL>
0

>  <SCORE.SYSTEM.SOLV>
0

>  <SCORE.SYSTEM.norm>
0

>  <SCORE.heavy>
35

>  <SCORE.norm>
-0.147342

>  <RMSD>
30.742

$$$$
2o3v_lig
 OpenBabel02141814113D
libRbt.so/2013.1/901 2013/11/27
 35 37  0  0  0  0  0  0  0  0999 V2000
   -5.8259   -6.0907   18.6487 C   0  0  2  0  0  0  0  0  0  0  0  0
   -7.1144   -5.5194   18.2665 O   0  0  0  0  0  0  0  0  0  0  0  0
  -10.3141   -8.2815   19.2962 C   0  0  2  0  0  0  0  0  0  0  0  0
  -11.5917   -9.0527   19.2238 N   0  0  0  0  0  0  0  0  0  0  0  0
   -6.4554    1.9177   16.2349 C   0  0  2  0  0  0  0  0  0  0  0  0
   -6.5242    2.8974   17.2937 O   0  0  0  0  0  0  0  0  0  0  0  0
   -4.9615   -4.8308   18.9713 C   0  0  2  0  0  0  0  0  0  0  0  0
   -5.5754   -4.0217   20.0505 N   0  0  0  0  0  0  0  0  0  0  0  0
  -10.6192   -6.7233   19.3606 C   0  0  0  0  0  0  0  0  0  0  0  0
   -5.8390    0.6103   16.8424 C   0  0  2  0  0  0  0  0  0  0  0  0
   -6.6471    0.1233   17.9890 N   0  0  0  0  0  0  0  0  0  0  0  0
   -4.7426   -3.9270   17.6811 C   0  0  1  0  0  0  0  0  0  0  0  0
   -3.9561   -2.7121   18.0185 O   0  0  0  0  0  0  0  0  0  0  0  0
   -9.2448   -5.9263   19.4251 C   0  0  2  0  0  0  0  0  0  0  0  0
   -9.5062   -4.4717   19.4740 N   0  0  0  0  0  0  0  0  0  0  0  0
   -4.3252    0.8274   17.2849 C   0  0  1  0  0  0  0  0  0  0  0  0
   -3.7188   -0.3769   17.8204 O   0  0  0  0  0  0  0  0  0  0  0  0
   -4.0774   -4.8449   16.5637 C   0  0  2  0  0  0  0  0  0  0  0  0
   -3.8659   -4.1271   15.3612 O   0  0  0  0  0  0  0  0  0  0  0  0
   -8.3592   -6.2738   18.1586 C   0  0  2  0  0  0  0  0  0  0  0  0
   -3.5136    1.3245   16.0467 C   0  0  2  0  0  0  0  0  0  0  0  0
   -2.1583    1.5454   16.3841 O   0  0  0  0  0  0  0  0  0  0  0  0
   -4.9738   -6.1100   16.2809 C   0  0  2  0  0  0  0  0  0  0  0  0
   -5.1968   -6.8558   17.5373 O   0  0  0  0  0  0  0  0  0  0  0  0
   -8.0708   -7.8001   18.1000 C   0  0  2  0  0  0  0  0  0  0  0  0
   -7.2908   -8.0493   16.8956 O   0  0  0  0  0  0  0  0  0  0  0  0
   -4.1701    2.6392   15.4636 C   0  0  2  0  0  0  0  0  0  0  0  0
   -5.5906    2.3964   15.1227 O   0  0  0  0  0  0  0  0  0  0  0  0
   -4.3387   -7.0280   15.2375 C   0  0  0  0  0  0  0  0  0  0  0  0
   -4.3249   -6.4202   13.9689 O   0  0  0  0  0  0  0  0  0  0  0  0
   -9.4053   -8.5796   18.0407 C   0  0  1  0  0  0  0  0  0  0  0  0
   -9.1159   -9.9609   17.9939 O   0  0  0  0  0  0  0  0  0  0  0  0
   -3.4378    3.1375   14.2269 C   0  0  0  0  0  0  0  0  0  0  0  0
   -3.9928    4.3523   13.7838 O   0  0  0  0  0  0  0  0  0  0  0  0
   -4.1875   -1.5460   17.0863 C   0  0  0  0  0  0  0  0  0  0  0  0
  1  2  1  6  0  0  0
  1  7  1  0  0  0  0
  1 24  1  0  0  0  0
  3  4  1  6  0  0  0
  3  9  1  0  0  0  0
  3 31  1  0  0  0  0
  5  6  1  1  0  0  0
  5 10  1  0  0  0  0
  5 28  1  0  0  0  0
  7  8  1  1  0  0  0
  7 12  1  0  0  0  0
  9 14  1  0  0  0  0
 10 11  1  1  0  0  0
 10 16  1  0  0  0  0
 12 13  1  1  0  0  0
 12 18  1  0  0  0  0
 13 35  1  0  0  0  0
 14 15  1  6  0  0  0
 14 20  1  0  0  0  0
 16 17  1  6  0  0  0
 16 21  1  0  0  0  0
 17 35  1  0  0  0  0
 18 19  1  6  0  0  0
 18 23  1  0  0  0  0
 20  2  1  1  0  0  0
 20 25  1  0  0  0  0
 21 22  1  1  0  0  0
 21 27  1  0  0  0  0
 23 24  1  0  0  0  0
 23 29  1  6  0  0  0
 25 26  1  6  0  0  0
 25 31  1  0  0  0  0
 27 28  1  0  0  0  0
 27 33  1  6  0  0  0
 29 30  1  0  0  0  0
 31 32  1  1  0  0  0
 33 34  1  0  0  0  0
M  END
>  <CHROM.1>
-165.55671577,-154.99662424,161.17827277,37.27372473,-158.44729310,104.53596369
-68.10845109,-176.25550724,-6.03999447,-3.32472062,17.21802317,-2.02749321
0.51375746,-0.00674757

>  <Name>
2o3v_lig

>  <RI>
0

>  <Rbt.Current_Directory>
/home/afrankz/demos/rdock_decoys_rna/rnas/2o3v

>  <Rbt.Executable>
rbdock ($Id: //depot/dev/client3/rdock/2013.1/src/exe/rbdock.cxx#4 $)

>  <Rbt.Library>
libRbt.so (2013.1, Build901 2013/11/27)

>  <Rbt.Parameter_File>
/export/apps/rDock/src/rDock_2013.1_src/data/scripts/dock_solv.prm

>  <Rbt.Receptor>
prm/blind_docking_100.prm

>  <SCORE>
2.23388

>  <SCORE.INTER>
-2.72764

>  <SCORE.INTER.CONST>
1

>  <SCORE.INTER.POLAR>
-1.20329

>  <SCORE.INTER.ROT>
8

>  <SCORE.INTER.SOLV>
19.392

>  <SCORE.INTER.VDW>
-13.2048

>  <SCORE.INTER.norm>
-0.0779327

>  <SCORE.INTRA>
3.60876

>  <SCORE.INTRA.DIHEDRAL>
2.86096

>  <SCORE.INTRA.DIHEDRAL.0>
13.1227

>  <SCORE.INTRA.POLAR>
0

>  <SCORE.INTRA.POLAR.0>
0

>  <SCORE.INTRA.REPUL>
0

>  <SCORE.INTRA.REPUL.0>
0

>  <SCORE.INTRA.SOLV>
0.659449

>  <SCORE.INTRA.SOLV.lig_0>
-89.1587

>  <SCORE.INTRA.VDW>
1.84856

>  <SCORE.INTRA.VDW.0>
-0.838383

>  <SCORE.INTRA.norm>
0.103107

>  <SCORE.RESTR>
1.35277

>  <SCORE.RESTR.CAVITY>
1.35277

>  <SCORE.RESTR.norm>
0.0386505

>  <SCORE.SYSTEM>
0

>  <SCORE.SYSTEM.CONST>
0

>  <SCORE.SYSTEM.DIHEDRAL>
0

>  <SCORE.SYSTEM.SOLV>
0

>  <SCORE.SYSTEM.norm>
0

>  <SCORE.heavy>
35

>  <SCORE.norm>
0.0638253

>  <RMSD>
30.765

$$$$
2o3v_lig
 OpenBabel02141814113D
libRbt.so/2013.1/901 2013/11/27
 35 37  0  0  0  0  0  0  0  0999 V2000
   -3.6869   -5.2476   17.6600 C   0  0  2  0  0  0  0  0  0  0  0  0
   -4.9919   -4.7560   18.0939 O   0  0  0  0  0  0  0  0  0  0  0  0
   -8.7744   -6.8745   18.4570 C   0  0  2  0  0  0  0  0  0  0  0  0
   -9.8620   -7.7380   19.0081 N   0  0  0  0  0  0  0  0  0  0  0  0
   -3.6346    4.0307   16.3149 C   0  0  2  0  0  0  0  0  0  0  0  0
   -3.7483    3.9623   14.8769 O   0  0  0  0  0  0  0  0  0  0  0  0
   -2.7857   -3.9747   17.7357 C   0  0  2  0  0  0  0  0  0  0  0  0
   -2.7629   -3.4151   19.1078 N   0  0  0  0  0  0  0  0  0  0  0  0
   -7.4532   -7.7309   18.2413 C   0  0  0  0  0  0  0  0  0  0  0  0
   -3.1651    2.6217   16.8176 C   0  0  2  0  0  0  0  0  0  0  0  0
   -1.8806    2.2307   16.1835 N   0  0  0  0  0  0  0  0  0  0  0  0
   -3.2642   -2.8585   16.7087 C   0  0  1  0  0  0  0  0  0  0  0  0
   -2.4220   -1.6400   16.8278 O   0  0  0  0  0  0  0  0  0  0  0  0
   -6.3098   -6.7874   17.6661 C   0  0  2  0  0  0  0  0  0  0  0  0
   -5.0665   -7.5631   17.4688 N   0  0  0  0  0  0  0  0  0  0  0  0
   -4.2726    1.5080   16.5568 C   0  0  1  0  0  0  0  0  0  0  0  0
   -3.8778    0.1994   17.0429 O   0  0  0  0  0  0  0  0  0  0  0  0
   -3.2620   -3.5136   15.2581 C   0  0  2  0  0  0  0  0  0  0  0  0
   -3.7009   -2.5949   14.2736 O   0  0  0  0  0  0  0  0  0  0  0  0
   -6.0453   -5.5881   18.6666 C   0  0  2  0  0  0  0  0  0  0  0  0
   -5.5976    1.9547   17.2522 C   0  0  2  0  0  0  0  0  0  0  0  0
   -6.6244    1.0050   17.0445 O   0  0  0  0  0  0  0  0  0  0  0  0
   -4.1703   -4.8013   15.2309 C   0  0  2  0  0  0  0  0  0  0  0  0
   -3.7134   -5.7573   16.2613 O   0  0  0  0  0  0  0  0  0  0  0  0
   -7.3438   -4.7598   18.8766 C   0  0  2  0  0  0  0  0  0  0  0  0
   -7.0369   -3.7053   19.8332 O   0  0  0  0  0  0  0  0  0  0  0  0
   -6.0321    3.3790   16.7212 C   0  0  2  0  0  0  0  0  0  0  0  0
   -4.9453    4.3613   16.9370 O   0  0  0  0  0  0  0  0  0  0  0  0
   -4.1560   -5.4714   13.8577 C   0  0  0  0  0  0  0  0  0  0  0  0
   -5.0460   -6.5600   13.8157 O   0  0  0  0  0  0  0  0  0  0  0  0
   -8.4599   -5.6746   19.4328 C   0  0  1  0  0  0  0  0  0  0  0  0
   -9.6277   -4.9005   19.6089 O   0  0  0  0  0  0  0  0  0  0  0  0
   -7.2974    3.8761   17.4038 C   0  0  0  0  0  0  0  0  0  0  0  0
   -7.4090    5.2728   17.2740 O   0  0  0  0  0  0  0  0  0  0  0  0
   -2.9683   -0.4358   16.0971 C   0  0  0  0  0  0  0  0  0  0  0  0
  1  2  1  6  0  0  0
  1  7  1  0  0  0  0
  1 24  1  0  0  0  0
  3  4  1  1  0  0  0
  3  9  1  0  0  0  0
  3 31  1  0  0  0  0
  5  6  1  6  0  0  0
  5 10  1  0  0  0  0
  5 28  1  0  0  0  0
  7  8  1  1  0  0  0
  7 12  1  0  0  0  0
  9 14  1  0  0  0  0
 10 11  1  6  0  0  0
 10 16  1  0  0  0  0
 12 13  1  6  0  0  0
 12 18  1  0  0  0  0
 13 35  1  0  0  0  0
 14 15  1  1  0  0  0
 14 20  1  0  0  0  0
 16 17  1  1  0  0  0
 16 21  1  0  0  0  0
 17 35  1  0  0  0  0
 18 19  1  6  0  0  0
 18 23  1  0  0  0  0
 20  2  1  6  0  0  0
 20 25  1  0  0  0  0
 21 22  1  6  0  0  0
 21 27  1  0  0  0  0
 23 24  1  0  0  0  0
 23 29  1  6  0  0  0
 25 26  1  1  0  0  0
 25 31  1  0  0  0  0
 27 28  1  0  0  0  0
 27 33  1  1  0  0  0
 29 30  1  0  0  0  0
 31 32  1  6  0  0  0
 33 34  1  0  0  0  0
M  END
>  <CHROM.1>
-156.31742556,-168.33280410,86.71020472,-79.57978477,169.06551067,-53.41427555
-175.59486862,159.95186036,-5.18840337,-2.17445797,17.08419579,-1.78965921
0.53902828,-0.01326844

>  <Name>
2o3v_lig

>  <RI>
0

>  <Rbt.Current_Directory>
/home/afrankz/demos/rdock_decoys_rna/rnas/2o3v

>  <Rbt.Executable>
rbdock ($Id: //depot/dev/client3/rdock/2013.1/src/exe/rbdock.cxx#4 $)

>  <Rbt.Library>
libRbt.so (2013.1, Build901 2013/11/27)

>  <Rbt.Parameter_File>
/export/apps/rDock/src/rDock_2013.1_src/data/scripts/dock_solv.prm

>  <Rbt.Receptor>
prm/blind_docking_80.prm

>  <SCORE>
-13.0532

>  <SCORE.INTER>
-15.0538

>  <SCORE.INTER.CONST>
1

>  <SCORE.INTER.POLAR>
-2.02866

>  <SCORE.INTER.ROT>
8

>  <SCORE.INTER.SOLV>
18.8202

>  <SCORE.INTER.VDW>
-18.4804

>  <SCORE.INTER.norm>
-0.43011

>  <SCORE.INTRA>
-0.742536

>  <SCORE.INTRA.DIHEDRAL>
-3.12345

>  <SCORE.INTRA.DIHEDRAL.0>
13.1227

>  <SCORE.INTRA.POLAR>
0

>  <SCORE.INTRA.POLAR.0>
0

>  <SCORE.INTRA.REPUL>
0

>  <SCORE.INTRA.REPUL.0>
0

>  <SCORE.INTRA.SOLV>
2.37068

>  <SCORE.INTRA.SOLV.lig_0>
-89.1587

>  <SCORE.INTRA.VDW>
-0.366149

>  <SCORE.INTRA.VDW.0>
-0.838383

>  <SCORE.INTRA.norm>
-0.0212153

>  <SCORE.RESTR>
2.74321

>  <SCORE.RESTR.CAVITY>
2.74321

>  <SCORE.RESTR.norm>
0.0783774

>  <SCORE.SYSTEM>
0

>  <SCORE.SYSTEM.CONST>
0

>  <SCORE.SYSTEM.DIHEDRAL>
0

>  <SCORE.SYSTEM.SOLV>
0

>  <SCORE.SYSTEM.norm>
0

>  <SCORE.heavy>
35

>  <SCORE.norm>
-0.372947

>  <RMSD>
30.783

$$$$
2o3v_lig
 OpenBabel02141814113D
libRbt.so/2013.1/901 2013/11/27
 35 37  0  0  0  0  0  0  0  0999 V2000
   -6.0040    4.2074   17.4570 C   0  0  2  0  0  0  0  0  0  0  0  0
   -5.2117    4.1974   18.6838 O   0  0  0  0  0  0  0  0  0  0  0  0
   -4.4465    6.9244   21.9860 C   0  0  2  0  0  0  0  0  0  0  0  0
   -3.9890    8.1246   22.7492 N   0  0  0  0  0  0  0  0  0  0  0  0
   -1.6202   -4.0730   16.0214 C   0  0  2  0  0  0  0  0  0  0  0  0
   -0.7711   -3.6418   17.1070 O   0  0  0  0  0  0  0  0  0  0  0  0
   -6.3328    2.6970   17.2353 C   0  0  2  0  0  0  0  0  0  0  0  0
   -7.0690    2.1336   18.3915 N   0  0  0  0  0  0  0  0  0  0  0  0
   -3.2043    6.2030   21.3063 C   0  0  0  0  0  0  0  0  0  0  0  0
   -2.7113   -2.9672   15.8092 C   0  0  2  0  0  0  0  0  0  0  0  0
   -2.0868   -1.6499   15.5274 N   0  0  0  0  0  0  0  0  0  0  0  0
   -5.0159    1.8454   16.9710 C   0  0  1  0  0  0  0  0  0  0  0  0
   -5.3458    0.4058   16.8069 O   0  0  0  0  0  0  0  0  0  0  0  0
   -3.7191    4.9378   20.4922 C   0  0  2  0  0  0  0  0  0  0  0  0
   -2.5788    4.2577   19.8414 N   0  0  0  0  0  0  0  0  0  0  0  0
   -3.6878   -2.8601   17.0621 C   0  0  1  0  0  0  0  0  0  0  0  0
   -4.7288   -1.8665   16.8788 O   0  0  0  0  0  0  0  0  0  0  0  0
   -4.2743    2.4912   15.7193 C   0  0  2  0  0  0  0  0  0  0  0  0
   -3.0690    1.8094   15.4222 O   0  0  0  0  0  0  0  0  0  0  0  0
   -4.7728    5.3911   19.3997 C   0  0  2  0  0  0  0  0  0  0  0  0
   -4.3301   -4.2616   17.3108 C   0  0  2  0  0  0  0  0  0  0  0  0
   -5.2026   -4.2295   18.4231 O   0  0  0  0  0  0  0  0  0  0  0  0
   -3.9758    4.0167   15.9794 C   0  0  2  0  0  0  0  0  0  0  0  0
   -5.2339    4.7260   16.2931 O   0  0  0  0  0  0  0  0  0  0  0  0
   -5.9810    6.1011   20.0723 C   0  0  2  0  0  0  0  0  0  0  0  0
   -6.8837    6.5231   19.0102 O   0  0  0  0  0  0  0  0  0  0  0  0
   -3.1976   -5.3457   17.5148 C   0  0  2  0  0  0  0  0  0  0  0  0
   -2.2866   -5.3629   16.3475 O   0  0  0  0  0  0  0  0  0  0  0  0
   -3.2967    4.6704   14.7768 C   0  0  0  0  0  0  0  0  0  0  0  0
   -4.1167    4.6075   13.6355 O   0  0  0  0  0  0  0  0  0  0  0  0
   -5.4843    7.3306   20.8685 C   0  0  1  0  0  0  0  0  0  0  0  0
   -6.5984    7.9531   21.4730 O   0  0  0  0  0  0  0  0  0  0  0  0
   -3.7760   -6.7379   17.7175 C   0  0  0  0  0  0  0  0  0  0  0  0
   -4.3520   -7.2090   16.5232 O   0  0  0  0  0  0  0  0  0  0  0  0
   -4.1724   -0.5249   17.0046 C   0  0  0  0  0  0  0  0  0  0  0  0
  1  2  1  1  0  0  0
  1  7  1  0  0  0  0
  1 24  1  0  0  0  0
  3  4  1  6  0  0  0
  3  9  1  0  0  0  0
  3 31  1  0  0  0  0
  5  6  1  1  0  0  0
  5 10  1  0  0  0  0
  5 28  1  0  0  0  0
  7  8  1  1  0  0  0
  7 12  1  0  0  0  0
  9 14  1  0  0  0  0
 10 11  1  1  0  0  0
 10 16  1  0  0  0  0
 12 13  1  6  0  0  0
 12 18  1  0  0  0  0
 13 35  1  0  0  0  0
 14 15  1  6  0  0  0
 14 20  1  0  0  0  0
 16 17  1  6  0  0  0
 16 21  1  0  0  0  0
 17 35  1  0  0  0  0
 18 19  1  1  0  0  0
 18 23  1  0  0  0  0
 20  2  1  1  0  0  0
 20 25  1  0  0  0  0
 21 22  1  1  0  0  0
 21 27  1  0  0  0  0
 23 24  1  0  0  0  0
 23 29  1  6  0  0  0
 25 26  1  6  0  0  0
 25 31  1  0  0  0  0
 27 28  1  0  0  0  0
 27 33  1  6  0  0  0
 29 30  1  0  0  0  0
 31 32  1  1  0  0  0
 33 34  1  0  0  0  0
M  END
>  <CHROM.1>
-173.17165495,-160.93128010,176.76040701,-74.04452377,-179.55165749,-169.10604937
61.00656763,69.59900841,-4.27929241,1.40486693,17.78926588,-2.67255687,-1.39465150
2.31937201

>  <Name>
2o3v_lig

>  <RI>
0

>  <Rbt.Current_Directory>
/home/afrankz/demos/rdock_decoys_rna/rnas/2o3v

>  <Rbt.Executable>
rbdock ($Id: //depot/dev/client3/rdock/2013.1/src/exe/rbdock.cxx#4 $)

>  <Rbt.Library>
libRbt.so (2013.1, Build901 2013/11/27)

>  <Rbt.Parameter_File>
/export/apps/rDock/src/rDock_2013.1_src/data/scripts/dock_solv.prm

>  <Rbt.Receptor>
prm/blind_docking_40.prm

>  <SCORE>
-4.44944

>  <SCORE.INTER>
-1.10593

>  <SCORE.INTER.CONST>
1

>  <SCORE.INTER.POLAR>
-0.285381

>  <SCORE.INTER.ROT>
8

>  <SCORE.INTER.SOLV>
31.1233

>  <SCORE.INTER.VDW>
-19.0938

>  <SCORE.INTER.norm>
-0.0315981

>  <SCORE.INTRA>
-4.36551

>  <SCORE.INTRA.DIHEDRAL>
-9.30917

>  <SCORE.INTRA.DIHEDRAL.0>
13.1227

>  <SCORE.INTRA.POLAR>
0

>  <SCORE.INTRA.POLAR.0>
0

>  <SCORE.INTRA.REPUL>
0.272086

>  <SCORE.INTRA.REPUL.0>
0

>  <SCORE.INTRA.SOLV>
0.448372

>  <SCORE.INTRA.SOLV.lig_0>
-89.1587

>  <SCORE.INTRA.VDW>
-1.29554

>  <SCORE.INTRA.VDW.0>
-0.838383

>  <SCORE.INTRA.norm>
-0.124729

>  <SCORE.RESTR>
1.022

>  <SCORE.RESTR.CAVITY>
1.022

>  <SCORE.RESTR.norm>
0.0292

>  <SCORE.SYSTEM>
0

>  <SCORE.SYSTEM.CONST>
0

>  <SCORE.SYSTEM.DIHEDRAL>
0

>  <SCORE.SYSTEM.SOLV>
0

>  <SCORE.SYSTEM.norm>
0

>  <SCORE.heavy>
35

>  <SCORE.norm>
-0.127127

>  <RMSD>
30.805

$$$$
2o3v_lig
 OpenBabel02141814113D
libRbt.so/2013.1/901 2013/11/27
 35 37  0  0  0  0  0  0  0  0999 V2000
   -6.0407    4.2835   17.4078 C   0  0  2  0  0  0  0  0  0  0  0  0
   -5.2287    4.2279   18.6204 O   0  0  0  0  0  0  0  0  0  0  0  0
   -4.2835    6.8410   21.9678 C   0  0  2  0  0  0  0  0  0  0  0  0
   -3.7804    8.0128   22.7463 N   0  0  0  0  0  0  0  0  0  0  0  0
   -1.8567   -4.1468   15.9962 C   0  0  2  0  0  0  0  0  0  0  0  0
   -0.9541   -3.6622   17.0140 O   0  0  0  0  0  0  0  0  0  0  0  0
   -6.3855    2.7837   17.1432 C   0  0  2  0  0  0  0  0  0  0  0  0
   -7.1075    2.1890   18.2927 N   0  0  0  0  0  0  0  0  0  0  0  0
   -3.0813    6.1345   21.2056 C   0  0  0  0  0  0  0  0  0  0  0  0
   -2.9220   -3.0255   15.7388 C   0  0  2  0  0  0  0  0  0  0  0  0
   -2.2700   -1.7542   15.3341 N   0  0  0  0  0  0  0  0  0  0  0  0
   -5.0801    1.9309   16.8299 C   0  0  1  0  0  0  0  0  0  0  0  0
   -5.4245    0.4999   16.6251 O   0  0  0  0  0  0  0  0  0  0  0  0
   -3.6446    4.8998   20.3770 C   0  0  2  0  0  0  0  0  0  0  0  0
   -2.5424    4.2343   19.6499 N   0  0  0  0  0  0  0  0  0  0  0  0
   -3.8460   -2.7919   17.0142 C   0  0  1  0  0  0  0  0  0  0  0  0
   -4.8634   -1.7818   16.7925 O   0  0  0  0  0  0  0  0  0  0  0  0
   -4.3537    2.6110   15.5875 C   0  0  2  0  0  0  0  0  0  0  0  0
   -3.1591    1.9298   15.2488 O   0  0  0  0  0  0  0  0  0  0  0  0
   -4.7465    5.3949   19.3523 C   0  0  2  0  0  0  0  0  0  0  0  0
   -4.5194   -4.1489   17.3932 C   0  0  2  0  0  0  0  0  0  0  0  0
   -5.3472   -4.0041   18.5304 O   0  0  0  0  0  0  0  0  0  0  0  0
   -4.0384    4.1249   15.8915 C   0  0  2  0  0  0  0  0  0  0  0  0
   -5.2854    4.8335   16.2486 O   0  0  0  0  0  0  0  0  0  0  0  0
   -5.9152    6.0899   20.1055 C   0  0  2  0  0  0  0  0  0  0  0  0
   -6.8650    6.5519   19.1027 O   0  0  0  0  0  0  0  0  0  0  0  0
   -3.4125   -5.2505   17.6392 C   0  0  2  0  0  0  0  0  0  0  0  0
   -2.5480   -5.3859   16.4446 O   0  0  0  0  0  0  0  0  0  0  0  0
   -3.3737    4.8119   14.6995 C   0  0  0  0  0  0  0  0  0  0  0  0
   -4.1892    4.7432   13.5554 O   0  0  0  0  0  0  0  0  0  0  0  0
   -5.3710    7.2897   20.9158 C   0  0  1  0  0  0  0  0  0  0  0  0
   -6.4497    7.8989   21.5936 O   0  0  0  0  0  0  0  0  0  0  0  0
   -4.0236   -6.6039   17.9693 C   0  0  0  0  0  0  0  0  0  0  0  0
   -3.0275   -7.5971   18.0046 O   0  0  0  0  0  0  0  0  0  0  0  0
   -4.2694   -0.4511   16.8339 C   0  0  0  0  0  0  0  0  0  0  0  0
  1  2  1  1  0  0  0
  1  7  1  0  0  0  0
  1 24  1  0  0  0  0
  3  4  1  6  0  0  0
  3  9  1  0  0  0  0
  3 31  1  0  0  0  0
  5  6  1  1  0  0  0
  5 10  1  0  0  0  0
  5 28  1  0  0  0  0
  7  8  1  1  0  0  0
  7 12  1  0  0  0  0
  9 14  1  0  0  0  0
 10 11  1  1  0  0  0
 10 16  1  0  0  0  0
 12 13  1  6  0  0  0
 12 18  1  0  0  0  0
 13 35  1  0  0  0  0
 14 15  1  6  0  0  0
 14 20  1  0  0  0  0
 16 17  1  6  0  0  0
 16 21  1  0  0  0  0
 17 35  1  0  0  0  0
 18 19  1  1  0  0  0
 18 23  1  0  0  0  0
 20  2  1  1  0  0  0
 20 25  1  0  0  0  0
 21 22  1  1  0  0  0
 21 27  1  0  0  0  0
 23 24  1  0  0  0  0
 23 29  1  6  0  0  0
 25 26  1  6  0  0  0
 25 31  1  0  0  0  0
 27 28  1  0  0  0  0
 27 33  1  6  0  0  0
 29 30  1  0  0  0  0
 31 32  1  1  0  0  0
 33 34  1  0  0  0  0
M  END
>  <CHROM.1>
-174.43043254,-158.34321391,171.42003697,-75.72360677,-178.69095335,-166.86339024
58.54552790,172.08937683,-4.29480783,1.43026847,17.79654058,-2.94371689,-1.41365761
2.01646880

>  <Name>
2o3v_lig

>  <RI>
0

>  <Rbt.Current_Directory>
/home/afrankz/demos/rdock_decoys_rna/rnas/2o3v

>  <Rbt.Executable>
rbdock ($Id: //depot/dev/client3/rdock/2013.1/src/exe/rbdock.cxx#4 $)

>  <Rbt.Library>
libRbt.so (2013.1, Build901 2013/11/27)

>  <Rbt.Parameter_File>
/export/apps/rDock/src/rDock_2013.1_src/data/scripts/dock_solv.prm

>  <Rbt.Receptor>
prm/blind_docking_60.prm

>  <SCORE>
-4.45718

>  <SCORE.INTER>
-1.99372

>  <SCORE.INTER.CONST>
1

>  <SCORE.INTER.POLAR>
-0.362081

>  <SCORE.INTER.ROT>
8

>  <SCORE.INTER.SOLV>
30.5786

>  <SCORE.INTER.VDW>
-19.2484

>  <SCORE.INTER.norm>
-0.0569633

>  <SCORE.INTRA>
-4.67419

>  <SCORE.INTRA.DIHEDRAL>
-8.28835

>  <SCORE.INTRA.DIHEDRAL.0>
13.1227

>  <SCORE.INTRA.POLAR>
0

>  <SCORE.INTRA.POLAR.0>
0

>  <SCORE.INTRA.REPUL>
0.168496

>  <SCORE.INTRA.REPUL.0>
0

>  <SCORE.INTRA.SOLV>
0.0768803

>  <SCORE.INTRA.SOLV.lig_0>
-89.1587

>  <SCORE.INTRA.VDW>
-1.41093

>  <SCORE.INTRA.VDW.0>
-0.838383

>  <SCORE.INTRA.norm>
-0.133548

>  <SCORE.RESTR>
2.21073

>  <SCORE.RESTR.CAVITY>
2.21073

>  <SCORE.RESTR.norm>
0.0631637

>  <SCORE.SYSTEM>
0

>  <SCORE.SYSTEM.CONST>
0

>  <SCORE.SYSTEM.DIHEDRAL>
0

>  <SCORE.SYSTEM.SOLV>
0

>  <SCORE.SYSTEM.norm>
0

>  <SCORE.heavy>
35

>  <SCORE.norm>
-0.127348

>  <RMSD>
30.806

$$$$
2o3v_lig
 OpenBabel02141814113D
libRbt.so/2013.1/901 2013/11/27
 35 37  0  0  0  0  0  0  0  0999 V2000
   -5.6042    4.2203   17.5749 C   0  0  2  0  0  0  0  0  0  0  0  0
   -5.0726    4.2328   18.9350 O   0  0  0  0  0  0  0  0  0  0  0  0
   -4.9048    7.0519   22.2444 C   0  0  2  0  0  0  0  0  0  0  0  0
   -4.5735    8.2659   23.0498 N   0  0  0  0  0  0  0  0  0  0  0  0
   -3.3356   -4.4285   17.8318 C   0  0  2  0  0  0  0  0  0  0  0  0
   -4.6772   -4.1318   18.2765 O   0  0  0  0  0  0  0  0  0  0  0  0
   -5.5756    2.7054   17.1972 C   0  0  2  0  0  0  0  0  0  0  0  0
   -6.3890    1.9025   18.1406 N   0  0  0  0  0  0  0  0  0  0  0  0
   -3.5742    6.2769   21.8516 C   0  0  0  0  0  0  0  0  0  0  0  0
   -2.5972   -3.0619   17.6185 C   0  0  2  0  0  0  0  0  0  0  0  0
   -2.5963   -2.2566   18.8661 N   0  0  0  0  0  0  0  0  0  0  0  0
   -4.0889    2.1418   17.1562 C   0  0  1  0  0  0  0  0  0  0  0  0
   -4.0865    0.6901   16.8389 O   0  0  0  0  0  0  0  0  0  0  0  0
   -3.9533    4.9977   20.9865 C   0  0  2  0  0  0  0  0  0  0  0  0
   -2.7269    4.2676   20.6002 N   0  0  0  0  0  0  0  0  0  0  0  0
   -3.2397   -2.2295   16.4230 C   0  0  1  0  0  0  0  0  0  0  0  0
   -2.5542   -0.9739   16.1816 O   0  0  0  0  0  0  0  0  0  0  0  0
   -3.2689    3.0359   16.1257 C   0  0  2  0  0  0  0  0  0  0  0  0
   -1.9175    2.6211   16.0403 O   0  0  0  0  0  0  0  0  0  0  0  0
   -4.7502    5.4392   19.6906 C   0  0  2  0  0  0  0  0  0  0  0  0
   -3.2060   -3.1089   15.1330 C   0  0  2  0  0  0  0  0  0  0  0  0
   -3.7759   -2.4222   14.0361 O   0  0  0  0  0  0  0  0  0  0  0  0
   -3.3370    4.5562   16.5357 C   0  0  2  0  0  0  0  0  0  0  0  0
   -4.7479    4.9865   16.6281 O   0  0  0  0  0  0  0  0  0  0  0  0
   -6.0465    6.2016   20.0838 C   0  0  2  0  0  0  0  0  0  0  0  0
   -6.7027    6.6090   18.8491 O   0  0  0  0  0  0  0  0  0  0  0  0
   -3.9559   -4.4763   15.3923 C   0  0  2  0  0  0  0  0  0  0  0  0
   -3.3550   -5.1806   16.5480 O   0  0  0  0  0  0  0  0  0  0  0  0
   -2.5879    5.4416   15.5408 C   0  0  0  0  0  0  0  0  0  0  0  0
   -1.2001    5.3949   15.7658 O   0  0  0  0  0  0  0  0  0  0  0  0
   -5.6825    7.4449   20.9285 C   0  0  1  0  0  0  0  0  0  0  0  0
   -6.8757    8.1153   21.2766 O   0  0  0  0  0  0  0  0  0  0  0  0
   -3.9113   -5.3867   14.1744 C   0  0  0  0  0  0  0  0  0  0  0  0
   -4.5951   -6.5886   14.4345 O   0  0  0  0  0  0  0  0  0  0  0  0
   -2.8297   -0.0340   17.2613 C   0  0  0  0  0  0  0  0  0  0  0  0
  1  2  1  1  0  0  0
  1  7  1  0  0  0  0
  1 24  1  0  0  0  0
  3  4  1  6  0  0  0
  3  9  1  0  0  0  0
  3 31  1  0  0  0  0
  5  6  1  6  0  0  0
  5 10  1  0  0  0  0
  5 28  1  0  0  0  0
  7  8  1  1  0  0  0
  7 12  1  0  0  0  0
  9 14  1  0  0  0  0
 10 11  1  1  0  0  0
 10 16  1  0  0  0  0
 12 13  1  6  0  0  0
 12 18  1  0  0  0  0
 13 35  1  0  0  0  0
 14 15  1  6  0  0  0
 14 20  1  0  0  0  0
 16 17  1  6  0  0  0
 16 21  1  0  0  0  0
 17 35  1  0  0  0  0
 18 19  1  1  0  0  0
 18 23  1  0  0  0  0
 20  2  1  1  0  0  0
 20 25  1  0  0  0  0
 21 22  1  6  0  0  0
 21 27  1  0  0  0  0
 23 24  1  0  0  0  0
 23 29  1  6  0  0  0
 25 26  1  6  0  0  0
 25 31  1  0  0  0  0
 27 28  1  0  0  0  0
 27 33  1  6  0  0  0
 29 30  1  0  0  0  0
 31 32  1  1  0  0  0
 33 34  1  0  0  0  0
M  END
>  <CHROM.1>
172.59986739,-158.78166905,-140.74102888,-71.37091482,-88.65670410,-169.31049933
-78.98442398,-179.55468985,-4.06346523,1.74106348,17.78722856,-1.90470211
-1.21350180,-3.06992785

>  <Name>
2o3v_lig

>  <RI>
0

>  <Rbt.Current_Directory>
/home/afrankz/demos/rdock_decoys_rna/rnas/2o3v

>  <Rbt.Executable>
rbdock ($Id: //depot/dev/client3/rdock/2013.1/src/exe/rbdock.cxx#4 $)

>  <Rbt.Library>
libRbt.so (2013.1, Build901 2013/11/27)

>  <Rbt.Parameter_File>
/export/apps/rDock/src/rDock_2013.1_src/data/scripts/dock_solv.prm

>  <Rbt.Receptor>
prm/blind_docking_80.prm

>  <SCORE>
-8.03732

>  <SCORE.INTER>
-9.38328

>  <SCORE.INTER.CONST>
1

>  <SCORE.INTER.POLAR>
-2.20017

>  <SCORE.INTER.ROT>
8

>  <SCORE.INTER.SOLV>
32.1132

>  <SCORE.INTER.VDW>
-18.5594

>  <SCORE.INTER.norm>
-0.268094

>  <SCORE.INTRA>
-1.01275

>  <SCORE.INTRA.DIHEDRAL>
0.172424

>  <SCORE.INTRA.DIHEDRAL.0>
13.1227

>  <SCORE.INTRA.POLAR>
0

>  <SCORE.INTRA.POLAR.0>
0

>  <SCORE.INTRA.REPUL>
0

>  <SCORE.INTRA.REPUL.0>
0

>  <SCORE.INTRA.SOLV>
0.0426859

>  <SCORE.INTRA.SOLV.lig_0>
-89.1587

>  <SCORE.INTRA.VDW>
-1.12031

>  <SCORE.INTRA.VDW.0>
-0.838383

>  <SCORE.INTRA.norm>
-0.0289358

>  <SCORE.RESTR>
2.35871

>  <SCORE.RESTR.CAVITY>
2.35871

>  <SCORE.RESTR.norm>
0.0673917

>  <SCORE.SYSTEM>
0

>  <SCORE.SYSTEM.CONST>
0

>  <SCORE.SYSTEM.DIHEDRAL>
0

>  <SCORE.SYSTEM.SOLV>
0

>  <SCORE.SYSTEM.norm>
0

>  <SCORE.heavy>
35

>  <SCORE.norm>
-0.229638

>  <RMSD>
30.807

$$$$
2o3v_lig
 OpenBabel02141814113D
libRbt.so/2013.1/901 2013/11/27
 35 37  0  0  0  0  0  0  0  0999 V2000
   -2.5711   -4.6786   17.0887 C   0  0  2  0  0  0  0  0  0  0  0  0
   -3.7397   -4.4274   17.9277 O   0  0  0  0  0  0  0  0  0  0  0  0
   -6.9624   -7.3395   18.1759 C   0  0  2  0  0  0  0  0  0  0  0  0
   -7.8561   -8.4152   18.7015 N   0  0  0  0  0  0  0  0  0  0  0  0
   -3.6067    4.7078   16.4444 C   0  0  2  0  0  0  0  0  0  0  0  0
   -3.6960    4.7637   15.0041 O   0  0  0  0  0  0  0  0  0  0  0  0
   -1.8382   -3.2998   17.0799 C   0  0  2  0  0  0  0  0  0  0  0  0
   -1.4799   -2.8747   18.4537 N   0  0  0  0  0  0  0  0  0  0  0  0
   -5.4726   -7.8787   18.0521 C   0  0  0  0  0  0  0  0  0  0  0  0
   -3.0593    3.2894   16.8276 C   0  0  2  0  0  0  0  0  0  0  0  0
   -1.7446    3.0347   16.1859 N   0  0  0  0  0  0  0  0  0  0  0  0
   -2.7195   -2.1745   16.3825 C   0  0  1  0  0  0  0  0  0  0  0  0
   -2.0237   -0.8620   16.4240 O   0  0  0  0  0  0  0  0  0  0  0  0
   -4.5414   -6.7128   17.5026 C   0  0  2  0  0  0  0  0  0  0  0  0
   -3.1466   -7.1907   17.3906 N   0  0  0  0  0  0  0  0  0  0  0  0
   -4.0931    2.1402   16.4463 C   0  0  1  0  0  0  0  0  0  0  0  0
   -3.6261    0.8185   16.8204 O   0  0  0  0  0  0  0  0  0  0  0  0
   -3.0660   -2.6827   14.9144 C   0  0  2  0  0  0  0  0  0  0  0  0
   -3.8748   -1.7499   14.2203 O   0  0  0  0  0  0  0  0  0  0  0  0
   -4.6084   -5.4644   18.4755 C   0  0  2  0  0  0  0  0  0  0  0  0
   -5.4524    2.4423   17.1531 C   0  0  2  0  0  0  0  0  0  0  0  0
   -6.4165    1.4560   16.8409 O   0  0  0  0  0  0  0  0  0  0  0  0
   -3.7898   -4.0815   14.9693 C   0  0  2  0  0  0  0  0  0  0  0  0
   -2.9463   -5.0527   15.6973 O   0  0  0  0  0  0  0  0  0  0  0  0
   -6.0694   -4.9475   18.5957 C   0  0  2  0  0  0  0  0  0  0  0  0
   -6.0601   -3.8315   19.5314 O   0  0  0  0  0  0  0  0  0  0  0  0
   -5.9655    3.8805   16.7438 C   0  0  2  0  0  0  0  0  0  0  0  0
   -4.9437    4.9020   17.0681 O   0  0  0  0  0  0  0  0  0  0  0  0
   -4.1006   -4.6099   13.5697 C   0  0  0  0  0  0  0  0  0  0  0  0
   -4.8079   -5.8243   13.6319 O   0  0  0  0  0  0  0  0  0  0  0  0
   -6.9795   -6.0797   19.1266 C   0  0  1  0  0  0  0  0  0  0  0  0
   -8.2994   -5.5867   19.2210 O   0  0  0  0  0  0  0  0  0  0  0  0
   -7.2682    4.2375   17.4436 C   0  0  0  0  0  0  0  0  0  0  0  0
   -7.5267    5.6157   17.3265 O   0  0  0  0  0  0  0  0  0  0  0  0
   -2.7860    0.2640   15.7658 C   0  0  0  0  0  0  0  0  0  0  0  0
  1  2  1  1  0  0  0
  1  7  1  0  0  0  0
  1 24  1  0  0  0  0
  3  4  1  1  0  0  0
  3  9  1  0  0  0  0
  3 31  1  0  0  0  0
  5  6  1  6  0  0  0
  5 10  1  0  0  0  0
  5 28  1  0  0  0  0
  7  8  1  1  0  0  0
  7 12  1  0  0  0  0
  9 14  1  0  0  0  0
 10 11  1  6  0  0  0
 10 16  1  0  0  0  0
 12 13  1  6  0  0  0
 12 18  1  0  0  0  0
 13 35  1  0  0  0  0
 14 15  1  1  0  0  0
 14 20  1  0  0  0  0
 16 17  1  1  0  0  0
 16 21  1  0  0  0  0
 17 35  1  0  0  0  0
 18 19  1  1  0  0  0
 18 23  1  0  0  0  0
 20  2  1  6  0  0  0
 20 25  1  0  0  0  0
 21 22  1  6  0  0  0
 21 27  1  0  0  0  0
 23 24  1  0  0  0  0
 23 29  1  6  0  0  0
 25 26  1  1  0  0  0
 25 31  1  0  0  0  0
 27 28  1  0  0  0  0
 27 33  1  1  0  0  0
 29 30  1  0  0  0  0
 31 32  1  6  0  0  0
 33 34  1  0  0  0  0
M  END
>  <CHROM.1>
-166.89890633,179.28369081,88.71083441,-86.02517391,162.46734605,-27.32141961
-176.92209363,165.56595646,-4.51002815,-1.77894915,16.87443174,-1.62958410
0.54318586,-0.06693240

>  <Name>
2o3v_lig

>  <RI>
0

>  <Rbt.Current_Directory>
/home/afrankz/demos/rdock_decoys_rna/rnas/2o3v

>  <Rbt.Executable>
rbdock ($Id: //depot/dev/client3/rdock/2013.1/src/exe/rbdock.cxx#4 $)

>  <Rbt.Library>
libRbt.so (2013.1, Build901 2013/11/27)

>  <Rbt.Parameter_File>
/export/apps/rDock/src/rDock_2013.1_src/data/scripts/dock_solv.prm

>  <Rbt.Receptor>
prm/blind_docking_40.prm

>  <SCORE>
-9.15996

>  <SCORE.INTER>
-13.449

>  <SCORE.INTER.CONST>
1

>  <SCORE.INTER.POLAR>
-1.8973

>  <SCORE.INTER.ROT>
8

>  <SCORE.INTER.SOLV>
19.0214

>  <SCORE.INTER.VDW>
-17.9154

>  <SCORE.INTER.norm>
-0.384256

>  <SCORE.INTRA>
1.85189

>  <SCORE.INTRA.DIHEDRAL>
0.207485

>  <SCORE.INTRA.DIHEDRAL.0>
13.1227

>  <SCORE.INTRA.POLAR>
0

>  <SCORE.INTRA.POLAR.0>
0

>  <SCORE.INTRA.REPUL>
0

>  <SCORE.INTRA.REPUL.0>
0

>  <SCORE.INTRA.SOLV>
1.64493

>  <SCORE.INTRA.SOLV.lig_0>
-89.1587

>  <SCORE.INTRA.VDW>
0.92568

>  <SCORE.INTRA.VDW.0>
-0.838383

>  <SCORE.INTRA.norm>
0.0529111

>  <SCORE.RESTR>
2.4371

>  <SCORE.RESTR.CAVITY>
2.4371

>  <SCORE.RESTR.norm>
0.0696314

>  <SCORE.SYSTEM>
0

>  <SCORE.SYSTEM.CONST>
0

>  <SCORE.SYSTEM.DIHEDRAL>
0

>  <SCORE.SYSTEM.SOLV>
0

>  <SCORE.SYSTEM.norm>
0

>  <SCORE.heavy>
35

>  <SCORE.norm>
-0.261713

>  <RMSD>
30.855

$$$$
2o3v_lig
 OpenBabel02141814113D
libRbt.so/2013.1/901 2013/11/27
 35 37  0  0  0  0  0  0  0  0999 V2000
   -2.3589    3.7383   16.1462 C   0  0  2  0  0  0  0  0  0  0  0  0
   -3.7590    4.0997   15.9417 O   0  0  0  0  0  0  0  0  0  0  0  0
   -7.7558    2.3891   15.7766 C   0  0  2  0  0  0  0  0  0  0  0  0
   -8.9292    1.5114   16.0678 N   0  0  0  0  0  0  0  0  0  0  0  0
   -7.0659    8.2597   22.3664 C   0  0  2  0  0  0  0  0  0  0  0  0
   -7.9829    7.8909   21.3135 O   0  0  0  0  0  0  0  0  0  0  0  0
   -2.2339    3.6704   17.7012 C   0  0  2  0  0  0  0  0  0  0  0  0
   -3.1741    2.6769   18.2715 N   0  0  0  0  0  0  0  0  0  0  0  0
   -6.5444    1.5182   15.2293 C   0  0  0  0  0  0  0  0  0  0  0  0
   -5.6117    8.0892   21.8055 C   0  0  2  0  0  0  0  0  0  0  0  0
   -5.4102    8.9150   20.5879 N   0  0  0  0  0  0  0  0  0  0  0  0
   -2.4843    5.0916   18.3697 C   0  0  1  0  0  0  0  0  0  0  0  0
   -2.4048    4.9965   19.8506 O   0  0  0  0  0  0  0  0  0  0  0  0
   -5.3066    2.4732   14.9388 C   0  0  2  0  0  0  0  0  0  0  0  0
   -4.1632    1.6801   14.4389 N   0  0  0  0  0  0  0  0  0  0  0  0
   -5.2770    6.5629   21.5006 C   0  0  1  0  0  0  0  0  0  0  0  0
   -3.9247    6.3719   21.0113 O   0  0  0  0  0  0  0  0  0  0  0  0
   -1.4454    6.1108   17.7250 C   0  0  2  0  0  0  0  0  0  0  0  0
   -1.6105    7.4178   18.2451 O   0  0  0  0  0  0  0  0  0  0  0  0
   -4.8946    3.2406   16.2619 C   0  0  2  0  0  0  0  0  0  0  0  0
   -5.4890    5.7382   22.8096 C   0  0  2  0  0  0  0  0  0  0  0  0
   -5.2155    4.3675   22.5955 O   0  0  0  0  0  0  0  0  0  0  0  0
   -1.5957    6.1364   16.1564 C   0  0  2  0  0  0  0  0  0  0  0  0
   -1.4271    4.7712   15.6157 O   0  0  0  0  0  0  0  0  0  0  0  0
   -6.0867    4.0847   16.7936 C   0  0  2  0  0  0  0  0  0  0  0  0
   -5.6497    4.7263   18.0259 O   0  0  0  0  0  0  0  0  0  0  0  0
   -6.9633    5.9415   23.3428 C   0  0  2  0  0  0  0  0  0  0  0  0
   -7.2391    7.3810   23.5546 O   0  0  0  0  0  0  0  0  0  0  0  0
   -0.5834    7.0803   15.5092 C   0  0  0  0  0  0  0  0  0  0  0  0
   -1.0974    7.6401   14.3254 O   0  0  0  0  0  0  0  0  0  0  0  0
   -7.2943    3.1600   17.0742 C   0  0  1  0  0  0  0  0  0  0  0  0
   -8.3633    3.9507   17.5498 O   0  0  0  0  0  0  0  0  0  0  0  0
   -7.2040    5.1903   24.6434 C   0  0  0  0  0  0  0  0  0  0  0  0
   -6.2848    5.6022   25.6258 O   0  0  0  0  0  0  0  0  0  0  0  0
   -3.7468    5.0024   20.5444 C   0  0  0  0  0  0  0  0  0  0  0  0
  1  2  1  1  0  0  0
  1  7  1  0  0  0  0
  1 24  1  0  0  0  0
  3  4  1  1  0  0  0
  3  9  1  0  0  0  0
  3 31  1  0  0  0  0
  5  6  1  6  0  0  0
  5 10  1  0  0  0  0
  5 28  1  0  0  0  0
  7  8  1  1  0  0  0
  7 12  1  0  0  0  0
  9 14  1  0  0  0  0
 10 11  1  6  0  0  0
 10 16  1  0  0  0  0
 12 13  1  1  0  0  0
 12 18  1  0  0  0  0
 13 35  1  0  0  0  0
 14 15  1  1  0  0  0
 14 20  1  0  0  0  0
 16 17  1  1  0  0  0
 16 21  1  0  0  0  0
 17 35  1  0  0  0  0
 18 19  1  1  0  0  0
 18 23  1  0  0  0  0
 20  2  1  6  0  0  0
 20 25  1  0  0  0  0
 21 22  1  6  0  0  0
 21 27  1  0  0  0  0
 23 24  1  0  0  0  0
 23 29  1  6  0  0  0
 25 26  1  1  0  0  0
 25 31  1  0  0  0  0
 27 28  1  0  0  0  0
 27 33  1  1  0  0  0
 29 30  1  0  0  0  0
 31 32  1  6  0  0  0
 33 34  1  0  0  0  0
M  END
>  <CHROM.1>
-67.13711575,-102.97164264,-99.55939685,-170.69750254,170.48613783,-95.35553733
-149.35776324,57.59107544,-4.74977490,5.10681619,18.83058818,-1.17121492
0.50690124,1.03726780

>  <Name>
2o3v_lig

>  <RI>
0

>  <Rbt.Current_Directory>
/home/afrankz/demos/rdock_decoys_rna/rnas/2o3v

>  <Rbt.Executable>
rbdock ($Id: //depot/dev/client3/rdock/2013.1/src/exe/rbdock.cxx#4 $)

>  <Rbt.Library>
libRbt.so (2013.1, Build901 2013/11/27)

>  <Rbt.Parameter_File>
/export/apps/rDock/src/rDock_2013.1_src/data/scripts/dock_solv.prm

>  <Rbt.Receptor>
prm/blind_docking_40.prm

>  <SCORE>
17.3252

>  <SCORE.INTER>
9.30326

>  <SCORE.INTER.CONST>
1

>  <SCORE.INTER.POLAR>
-1.37549

>  <SCORE.INTER.ROT>
8

>  <SCORE.INTER.SOLV>
32.4248

>  <SCORE.INTER.VDW>
-8.95447

>  <SCORE.INTER.norm>
0.265807

>  <SCORE.INTRA>
4.93383

>  <SCORE.INTRA.DIHEDRAL>
6.5551

>  <SCORE.INTRA.DIHEDRAL.0>
13.1227

>  <SCORE.INTRA.POLAR>
0

>  <SCORE.INTRA.POLAR.0>
0

>  <SCORE.INTRA.REPUL>
0

>  <SCORE.INTRA.REPUL.0>
0

>  <SCORE.INTRA.SOLV>
3.07696

>  <SCORE.INTRA.SOLV.lig_0>
-89.1587

>  <SCORE.INTRA.VDW>
0.117798

>  <SCORE.INTRA.VDW.0>
-0.838383

>  <SCORE.INTRA.norm>
0.140967

>  <SCORE.RESTR>
3.08814

>  <SCORE.RESTR.CAVITY>
3.08814

>  <SCORE.RESTR.norm>
0.0882325

>  <SCORE.SYSTEM>
0

>  <SCORE.SYSTEM.CONST>
0

>  <SCORE.SYSTEM.DIHEDRAL>
0

>  <SCORE.SYSTEM.SOLV>
0

>  <SCORE.SYSTEM.norm>
0

>  <SCORE.heavy>
35

>  <SCORE.norm>
0.495007

>  <RMSD>
30.858

$$$$
2o3v_lig
 OpenBabel02141814113D
libRbt.so/2013.1/901 2013/11/27
 35 37  0  0  0  0  0  0  0  0999 V2000
   -3.4585   -5.9307   17.5122 C   0  0  2  0  0  0  0  0  0  0  0  0
   -4.1486   -5.9473   16.2252 O   0  0  0  0  0  0  0  0  0  0  0  0
   -8.3745   -6.8557   15.7317 C   0  0  2  0  0  0  0  0  0  0  0  0
   -9.6322   -7.6032   15.4287 N   0  0  0  0  0  0  0  0  0  0  0  0
   -3.3851    3.5372   15.9026 C   0  0  2  0  0  0  0  0  0  0  0  0
   -3.7388    3.1003   14.5724 O   0  0  0  0  0  0  0  0  0  0  0  0
   -3.9368   -4.5896   18.1534 C   0  0  2  0  0  0  0  0  0  0  0  0
   -5.4121   -4.5575   18.2907 N   0  0  0  0  0  0  0  0  0  0  0  0
   -7.4727   -6.7521   14.4273 C   0  0  0  0  0  0  0  0  0  0  0  0
   -3.1543    2.2543   16.7739 C   0  0  2  0  0  0  0  0  0  0  0  0
   -2.1016    1.3905   16.1818 N   0  0  0  0  0  0  0  0  0  0  0  0
   -3.4488   -3.3325   17.3101 C   0  0  1  0  0  0  0  0  0  0  0  0
   -3.9512   -2.0699   17.9116 O   0  0  0  0  0  0  0  0  0  0  0  0
   -6.1375   -5.9637   14.7794 C   0  0  2  0  0  0  0  0  0  0  0  0
   -5.2776   -5.8659   13.5804 N   0  0  0  0  0  0  0  0  0  0  0  0
   -4.5019    1.4291   16.9694 C   0  0  1  0  0  0  0  0  0  0  0  0
   -4.3243    0.2533   17.8003 O   0  0  0  0  0  0  0  0  0  0  0  0
   -1.8630   -3.4177   17.2025 C   0  0  2  0  0  0  0  0  0  0  0  0
   -1.3365   -2.3450   16.4422 O   0  0  0  0  0  0  0  0  0  0  0  0
   -5.3611   -6.7087   15.9419 C   0  0  2  0  0  0  0  0  0  0  0  0
   -5.5720    2.3718   17.6056 C   0  0  2  0  0  0  0  0  0  0  0  0
   -6.7982    1.6931   17.7935 O   0  0  0  0  0  0  0  0  0  0  0  0
   -1.4245   -4.7908   16.5652 C   0  0  2  0  0  0  0  0  0  0  0  0
   -1.9779   -5.9092   17.3574 O   0  0  0  0  0  0  0  0  0  0  0  0
   -6.2523   -6.8112   17.2113 C   0  0  2  0  0  0  0  0  0  0  0  0
   -5.4924   -7.5387   18.2185 O   0  0  0  0  0  0  0  0  0  0  0  0
   -5.7703    3.6522   16.6998 C   0  0  2  0  0  0  0  0  0  0  0  0
   -4.4780    4.3483   16.5043 O   0  0  0  0  0  0  0  0  0  0  0  0
    0.0964   -4.9139   16.4847 C   0  0  0  0  0  0  0  0  0  0  0  0
    0.4854   -6.2445   16.2457 O   0  0  0  0  0  0  0  0  0  0  0  0
   -7.5541   -7.5745   16.8725 C   0  0  1  0  0  0  0  0  0  0  0  0
   -8.3467   -7.6486   18.0388 O   0  0  0  0  0  0  0  0  0  0  0  0
   -6.7741    4.6230   17.3031 C   0  0  0  0  0  0  0  0  0  0  0  0
   -6.7741    5.8358   16.5896 O   0  0  0  0  0  0  0  0  0  0  0  0
   -3.8865   -0.8756   16.9886 C   0  0  0  0  0  0  0  0  0  0  0  0
  1  2  1  6  0  0  0
  1  7  1  0  0  0  0
  1 24  1  0  0  0  0
  3  4  1  6  0  0  0
  3  9  1  0  0  0  0
  3 31  1  0  0  0  0
  5  6  1  6  0  0  0
  5 10  1  0  0  0  0
  5 28  1  0  0  0  0
  7  8  1  6  0  0  0
  7 12  1  0  0  0  0
  9 14  1  0  0  0  0
 10 11  1  6  0  0  0
 10 16  1  0  0  0  0
 12 13  1  1  0  0  0
 12 18  1  0  0  0  0
 13 35  1  0  0  0  0
 14 15  1  6  0  0  0
 14 20  1  0  0  0  0
 16 17  1  1  0  0  0
 16 21  1  0  0  0  0
 17 35  1  0  0  0  0
 18 19  1  6  0  0  0
 18 23  1  0  0  0  0
 20  2  1  1  0  0  0
 20 25  1  0  0  0  0
 21 22  1  6  0  0  0
 21 27  1  0  0  0  0
 23 24  1  0  0  0  0
 23 29  1  1  0  0  0
 25 26  1  1  0  0  0
 25 31  1  0  0  0  0
 27 28  1  0  0  0  0
 27 33  1  1  0  0  0
 29 30  1  0  0  0  0
 31 32  1  1  0  0  0
 33 34  1  0  0  0  0
M  END
>  <CHROM.1>
-100.36820056,-163.24491438,-175.85889022,-86.36707073,-171.28216423,153.32671713
164.82608384,170.84848688,-4.59542560,-2.52285158,16.68687019,-1.62953747
-0.02970471,0.01386326

>  <Name>
2o3v_lig

>  <RI>
0

>  <Rbt.Current_Directory>
/home/afrankz/demos/rdock_decoys_rna/rnas/2o3v

>  <Rbt.Executable>
rbdock ($Id: //depot/dev/client3/rdock/2013.1/src/exe/rbdock.cxx#4 $)

>  <Rbt.Library>
libRbt.so (2013.1, Build901 2013/11/27)

>  <Rbt.Parameter_File>
/export/apps/rDock/src/rDock_2013.1_src/data/scripts/dock_solv.prm

>  <Rbt.Receptor>
prm/blind_docking_40.prm

>  <SCORE>
-7.34323

>  <SCORE.INTER>
-11.2587

>  <SCORE.INTER.CONST>
1

>  <SCORE.INTER.POLAR>
-1.20863

>  <SCORE.INTER.ROT>
8

>  <SCORE.INTER.SOLV>
26.2412

>  <SCORE.INTER.VDW>
-21.1574

>  <SCORE.INTER.norm>
-0.321677

>  <SCORE.INTRA>
2.63677

>  <SCORE.INTRA.DIHEDRAL>
1.07209

>  <SCORE.INTRA.DIHEDRAL.0>
13.1227

>  <SCORE.INTRA.POLAR>
0

>  <SCORE.INTRA.POLAR.0>
0

>  <SCORE.INTRA.REPUL>
0.157255

>  <SCORE.INTRA.REPUL.0>
0

>  <SCORE.INTRA.SOLV>
2.35126

>  <SCORE.INTRA.SOLV.lig_0>
-89.1587

>  <SCORE.INTRA.VDW>
0.138819

>  <SCORE.INTRA.VDW.0>
-0.838383

>  <SCORE.INTRA.norm>
0.0753363

>  <SCORE.RESTR>
1.2787

>  <SCORE.RESTR.CAVITY>
1.2787

>  <SCORE.RESTR.norm>
0.0365342

>  <SCORE.SYSTEM>
0

>  <SCORE.SYSTEM.CONST>
0

>  <SCORE.SYSTEM.DIHEDRAL>
0

>  <SCORE.SYSTEM.SOLV>
0

>  <SCORE.SYSTEM.norm>
0

>  <SCORE.heavy>
35

>  <SCORE.norm>
-0.209807

>  <RMSD>
30.894

$$$$
2o3v_lig
 OpenBabel02141814113D
libRbt.so/2013.1/901 2013/11/27
 35 37  0  0  0  0  0  0  0  0999 V2000
   -5.7446    4.0686   17.3240 C   0  0  2  0  0  0  0  0  0  0  0  0
   -5.1894    4.1057   18.6742 O   0  0  0  0  0  0  0  0  0  0  0  0
   -4.5276    6.9200   21.9252 C   0  0  2  0  0  0  0  0  0  0  0  0
   -4.0986    8.1425   22.6692 N   0  0  0  0  0  0  0  0  0  0  0  0
   -2.8940   -4.4115   18.1121 C   0  0  2  0  0  0  0  0  0  0  0  0
   -4.2176   -4.2182   18.6563 O   0  0  0  0  0  0  0  0  0  0  0  0
   -5.7095    2.5485   16.9681 C   0  0  2  0  0  0  0  0  0  0  0  0
   -6.4993    1.7529   17.9374 N   0  0  0  0  0  0  0  0  0  0  0  0
   -3.2635    6.1922   21.2947 C   0  0  0  0  0  0  0  0  0  0  0  0
   -2.3724   -3.0122   17.6342 C   0  0  2  0  0  0  0  0  0  0  0  0
   -2.3690   -2.0348   18.7521 N   0  0  0  0  0  0  0  0  0  0  0  0
   -4.2190    1.9969   16.9093 C   0  0  1  0  0  0  0  0  0  0  0  0
   -4.2095    0.5406   16.6134 O   0  0  0  0  0  0  0  0  0  0  0  0
   -3.7481    4.9031   20.4999 C   0  0  2  0  0  0  0  0  0  0  0  0
   -2.5867    4.2165   19.8948 N   0  0  0  0  0  0  0  0  0  0  0  0
   -3.2287   -2.4539   16.4136 C   0  0  1  0  0  0  0  0  0  0  0  0
   -2.7468   -1.1743   15.9289 O   0  0  0  0  0  0  0  0  0  0  0  0
   -3.4248    2.8824   15.8516 C   0  0  2  0  0  0  0  0  0  0  0  0
   -2.0714    2.4777   15.7486 O   0  0  0  0  0  0  0  0  0  0  0  0
   -4.7777    5.3204   19.3707 C   0  0  2  0  0  0  0  0  0  0  0  0
   -3.1918   -3.5061   15.2603 C   0  0  2  0  0  0  0  0  0  0  0  0
   -3.9476   -3.0670   14.1488 O   0  0  0  0  0  0  0  0  0  0  0  0
   -3.4987    4.4079   16.2403 C   0  0  2  0  0  0  0  0  0  0  0  0
   -4.9115    4.8277   16.3512 O   0  0  0  0  0  0  0  0  0  0  0  0
   -6.0077    6.0368   19.9953 C   0  0  2  0  0  0  0  0  0  0  0  0
   -6.8868    6.4248   18.9010 O   0  0  0  0  0  0  0  0  0  0  0  0
   -3.7203   -4.9006   15.7849 C   0  0  2  0  0  0  0  0  0  0  0  0
   -2.9262   -5.3444   16.9534 O   0  0  0  0  0  0  0  0  0  0  0  0
   -2.7748    5.2847   15.2195 C   0  0  0  0  0  0  0  0  0  0  0  0
   -3.4266    5.2554   13.9733 O   0  0  0  0  0  0  0  0  0  0  0  0
   -5.5404    7.2897   20.7725 C   0  0  1  0  0  0  0  0  0  0  0  0
   -6.6739    7.9178   21.3335 O   0  0  0  0  0  0  0  0  0  0  0  0
   -3.6618   -5.9710   14.7057 C   0  0  0  0  0  0  0  0  0  0  0  0
   -3.9196   -7.2395   15.2576 O   0  0  0  0  0  0  0  0  0  0  0  0
   -2.9114   -0.1524   16.9555 C   0  0  0  0  0  0  0  0  0  0  0  0
  1  2  1  1  0  0  0
  1  7  1  0  0  0  0
  1 24  1  0  0  0  0
  3  4  1  6  0  0  0
  3  9  1  0  0  0  0
  3 31  1  0  0  0  0
  5  6  1  6  0  0  0
  5 10  1  0  0  0  0
  5 28  1  0  0  0  0
  7  8  1  1  0  0  0
  7 12  1  0  0  0  0
  9 14  1  0  0  0  0
 10 11  1  1  0  0  0
 10 16  1  0  0  0  0
 12 13  1  6  0  0  0
 12 18  1  0  0  0  0
 13 35  1  0  0  0  0
 14 15  1  6  0  0  0
 14 20  1  0  0  0  0
 16 17  1  6  0  0  0
 16 21  1  0  0  0  0
 17 35  1  0  0  0  0
 18 19  1  1  0  0  0
 18 23  1  0  0  0  0
 20  2  1  1  0  0  0
 20 25  1  0  0  0  0
 21 22  1  6  0  0  0
 21 27  1  0  0  0  0
 23 24  1  0  0  0  0
 23 29  1  6  0  0  0
 25 26  1  6  0  0  0
 25 31  1  0  0  0  0
 27 28  1  0  0  0  0
 27 33  1  6  0  0  0
 29 30  1  0  0  0  0
 31 32  1  1  0  0  0
 33 34  1  0  0  0  0
M  END
>  <CHROM.1>
168.11949277,-161.92533847,-144.99727644,-64.91063719,-96.67221043,-158.03938912
66.22234311,170.03785934,-4.06040519,1.55792753,17.64034826,-2.61380029,-1.41365509
2.43145357

>  <Name>
2o3v_lig

>  <RI>
0

>  <Rbt.Current_Directory>
/home/afrankz/demos/rdock_decoys_rna/rnas/2o3v

>  <Rbt.Executable>
rbdock ($Id: //depot/dev/client3/rdock/2013.1/src/exe/rbdock.cxx#4 $)

>  <Rbt.Library>
libRbt.so (2013.1, Build901 2013/11/27)

>  <Rbt.Parameter_File>
/export/apps/rDock/src/rDock_2013.1_src/data/scripts/dock_solv.prm

>  <Rbt.Receptor>
prm/blind_docking_40.prm

>  <SCORE>
-5.07923

>  <SCORE.INTER>
-7.3283

>  <SCORE.INTER.CONST>
1

>  <SCORE.INTER.POLAR>
-1.14567

>  <SCORE.INTER.ROT>
8

>  <SCORE.INTER.SOLV>
30.9348

>  <SCORE.INTER.VDW>
-20.3116

>  <SCORE.INTER.norm>
-0.20938

>  <SCORE.INTRA>
0.478632

>  <SCORE.INTRA.DIHEDRAL>
1.18812

>  <SCORE.INTRA.DIHEDRAL.0>
13.1227

>  <SCORE.INTRA.POLAR>
0

>  <SCORE.INTRA.POLAR.0>
0

>  <SCORE.INTRA.REPUL>
0

>  <SCORE.INTRA.REPUL.0>
0

>  <SCORE.INTRA.SOLV>
0.737782

>  <SCORE.INTRA.SOLV.lig_0>
-89.1587

>  <SCORE.INTRA.VDW>
-0.484321

>  <SCORE.INTRA.VDW.0>
-0.838383

>  <SCORE.INTRA.norm>
0.0136752

>  <SCORE.RESTR>
1.77043

>  <SCORE.RESTR.CAVITY>
1.77043

>  <SCORE.RESTR.norm>
0.0505838

>  <SCORE.SYSTEM>
0

>  <SCORE.SYSTEM.CONST>
0

>  <SCORE.SYSTEM.DIHEDRAL>
0

>  <SCORE.SYSTEM.SOLV>
0

>  <SCORE.SYSTEM.norm>
0

>  <SCORE.heavy>
35

>  <SCORE.norm>
-0.145121

>  <RMSD>
30.900

$$$$
2o3v_lig
 OpenBabel02141814113D
libRbt.so/2013.1/901 2013/11/27
 35 37  0  0  0  0  0  0  0  0999 V2000
   -3.7702   -5.5275   17.3283 C   0  0  2  0  0  0  0  0  0  0  0  0
   -5.0773   -5.3893   17.9648 O   0  0  0  0  0  0  0  0  0  0  0  0
   -8.1849   -7.4473   20.2085 C   0  0  2  0  0  0  0  0  0  0  0  0
   -8.9439   -8.5330   20.8996 N   0  0  0  0  0  0  0  0  0  0  0  0
   -4.0442    3.1325   14.1623 C   0  0  2  0  0  0  0  0  0  0  0  0
   -5.1758    2.4629   13.5651 O   0  0  0  0  0  0  0  0  0  0  0  0
   -3.2329   -4.0616   17.3004 C   0  0  2  0  0  0  0  0  0  0  0  0
   -3.1506   -3.4950   18.6674 N   0  0  0  0  0  0  0  0  0  0  0  0
   -8.0213   -7.7917   18.6658 C   0  0  0  0  0  0  0  0  0  0  0  0
   -2.8986    2.0733   14.3180 C   0  0  2  0  0  0  0  0  0  0  0  0
   -2.5499    1.4693   13.0070 N   0  0  0  0  0  0  0  0  0  0  0  0
   -4.1362   -3.1259   16.3851 C   0  0  1  0  0  0  0  0  0  0  0  0
   -3.6344   -1.7273   16.4074 O   0  0  0  0  0  0  0  0  0  0  0  0
   -7.2014   -6.6280   17.9572 C   0  0  2  0  0  0  0  0  0  0  0  0
   -7.0276   -6.9348   16.5211 N   0  0  0  0  0  0  0  0  0  0  0  0
   -3.2890    0.9381   15.3639 C   0  0  1  0  0  0  0  0  0  0  0  0
   -2.2326   -0.0382   15.5527 O   0  0  0  0  0  0  0  0  0  0  0  0
   -4.1815   -3.7793   14.9343 C   0  0  2  0  0  0  0  0  0  0  0  0
   -4.9890   -3.0231   14.0500 O   0  0  0  0  0  0  0  0  0  0  0  0
   -5.7863   -6.4653   18.6501 C   0  0  2  0  0  0  0  0  0  0  0  0
   -3.6330    1.6178   16.7271 C   0  0  2  0  0  0  0  0  0  0  0  0
   -3.9990    0.6549   17.6958 O   0  0  0  0  0  0  0  0  0  0  0  0
   -4.7143   -5.2605   15.0108 C   0  0  2  0  0  0  0  0  0  0  0  0
   -3.8731   -6.0474   15.9370 O   0  0  0  0  0  0  0  0  0  0  0  0
   -5.9556   -6.1348   20.1595 C   0  0  2  0  0  0  0  0  0  0  0  0
   -4.6216   -6.0398   20.7361 O   0  0  0  0  0  0  0  0  0  0  0  0
   -4.7868    2.6794   16.5248 C   0  0  2  0  0  0  0  0  0  0  0  0
   -4.3943    3.6762   15.5024 O   0  0  0  0  0  0  0  0  0  0  0  0
   -4.7326   -5.9240   13.6345 C   0  0  0  0  0  0  0  0  0  0  0  0
   -5.1482   -7.2650   13.7238 O   0  0  0  0  0  0  0  0  0  0  0  0
   -6.7557   -7.2627   20.8521 C   0  0  1  0  0  0  0  0  0  0  0  0
   -6.9000   -6.9360   22.2184 O   0  0  0  0  0  0  0  0  0  0  0  0
   -5.1269    3.4003   17.8204 C   0  0  0  0  0  0  0  0  0  0  0  0
   -6.1562    4.3356   17.6064 O   0  0  0  0  0  0  0  0  0  0  0  0
   -2.7250   -1.3772   15.2530 C   0  0  0  0  0  0  0  0  0  0  0  0
  1  2  1  6  0  0  0
  1  7  1  0  0  0  0
  1 24  1  0  0  0  0
  3  4  1  1  0  0  0
  3  9  1  0  0  0  0
  3 31  1  0  0  0  0
  5  6  1  1  0  0  0
  5 10  1  0  0  0  0
  5 28  1  0  0  0  0
  7  8  1  1  0  0  0
  7 12  1  0  0  0  0
  9 14  1  0  0  0  0
 10 11  1  6  0  0  0
 10 16  1  0  0  0  0
 12 13  1  6  0  0  0
 12 18  1  0  0  0  0
 13 35  1  0  0  0  0
 14 15  1  6  0  0  0
 14 20  1  0  0  0  0
 16 17  1  1  0  0  0
 16 21  1  0  0  0  0
 17 35  1  0  0  0  0
 18 19  1  6  0  0  0
 18 23  1  0  0  0  0
 20  2  1  6  0  0  0
 20 25  1  0  0  0  0
 21 22  1  1  0  0  0
 21 27  1  0  0  0  0
 23 24  1  0  0  0  0
 23 29  1  6  0  0  0
 25 26  1  1  0  0  0
 25 31  1  0  0  0  0
 27 28  1  0  0  0  0
 27 33  1  1  0  0  0
 29 30  1  0  0  0  0
 31 32  1  1  0  0  0
 33 34  1  0  0  0  0
M  END
>  <CHROM.1>
-157.28794773,96.01602554,-173.54202086,-122.81861700,-72.50784093,-122.95672835
177.15374664,-179.94744151,-4.87888668,-2.81037820,16.88256253,-2.23710900
1.16817338,0.25538413

>  <Name>
2o3v_lig

>  <RI>
0

>  <Rbt.Current_Directory>
/home/afrankz/demos/rdock_decoys_rna/rnas/2o3v

>  <Rbt.Executable>
rbdock ($Id: //depot/dev/client3/rdock/2013.1/src/exe/rbdock.cxx#4 $)

>  <Rbt.Library>
libRbt.so (2013.1, Build901 2013/11/27)

>  <Rbt.Parameter_File>
/export/apps/rDock/src/rDock_2013.1_src/data/scripts/dock_solv.prm

>  <Rbt.Receptor>
prm/blind_docking_40.prm

>  <SCORE>
5.23324

>  <SCORE.INTER>
-3.98443

>  <SCORE.INTER.CONST>
1

>  <SCORE.INTER.POLAR>
-0.496597

>  <SCORE.INTER.ROT>
8

>  <SCORE.INTER.SOLV>
18.5018

>  <SCORE.INTER.VDW>
-16.1016

>  <SCORE.INTER.norm>
-0.113841

>  <SCORE.INTRA>
4.51078

>  <SCORE.INTRA.DIHEDRAL>
9.16728

>  <SCORE.INTRA.DIHEDRAL.0>
13.1227

>  <SCORE.INTRA.POLAR>
0

>  <SCORE.INTRA.POLAR.0>
0

>  <SCORE.INTRA.REPUL>
0

>  <SCORE.INTRA.REPUL.0>
0

>  <SCORE.INTRA.SOLV>
2.53975

>  <SCORE.INTRA.SOLV.lig_0>
-89.1587

>  <SCORE.INTRA.VDW>
-1.34273

>  <SCORE.INTRA.VDW.0>
-0.838383

>  <SCORE.INTRA.norm>
0.12888

>  <SCORE.RESTR>
4.70689

>  <SCORE.RESTR.CAVITY>
4.70689

>  <SCORE.RESTR.norm>
0.134483

>  <SCORE.SYSTEM>
0

>  <SCORE.SYSTEM.CONST>
0

>  <SCORE.SYSTEM.DIHEDRAL>
0

>  <SCORE.SYSTEM.SOLV>
0

>  <SCORE.SYSTEM.norm>
0

>  <SCORE.heavy>
35

>  <SCORE.norm>
0.149521

>  <RMSD>
30.908

$$$$
2o3v_lig
 OpenBabel02141814113D
libRbt.so/2013.1/901 2013/11/27
 35 37  0  0  0  0  0  0  0  0999 V2000
   -2.4358   -2.2742   16.0267 C   0  0  2  0  0  0  0  0  0  0  0  0
   -3.8280   -2.7092   15.9545 O   0  0  0  0  0  0  0  0  0  0  0  0
   -3.6789   -6.9892   16.7201 C   0  0  2  0  0  0  0  0  0  0  0  0
   -4.1108   -8.4096   16.8878 N   0  0  0  0  0  0  0  0  0  0  0  0
   -1.4656    5.1625   18.4231 C   0  0  2  0  0  0  0  0  0  0  0  0
   -1.8487    6.1881   17.4814 O   0  0  0  0  0  0  0  0  0  0  0  0
   -2.4922   -1.0684   17.0173 C   0  0  2  0  0  0  0  0  0  0  0  0
   -3.0355   -1.4808   18.3330 N   0  0  0  0  0  0  0  0  0  0  0  0
   -4.4212   -6.0639   17.7776 C   0  0  0  0  0  0  0  0  0  0  0  0
   -2.3570    3.9045   18.1379 C   0  0  2  0  0  0  0  0  0  0  0  0
   -2.1993    3.4472   16.7340 N   0  0  0  0  0  0  0  0  0  0  0  0
   -3.3585    0.1293   16.4305 C   0  0  1  0  0  0  0  0  0  0  0  0
   -3.4365    1.2478   17.4058 O   0  0  0  0  0  0  0  0  0  0  0  0
   -3.9533   -4.5584   17.5704 C   0  0  2  0  0  0  0  0  0  0  0  0
   -4.6419   -3.6777   18.5383 N   0  0  0  0  0  0  0  0  0  0  0  0
   -3.8904    4.1887   18.4584 C   0  0  1  0  0  0  0  0  0  0  0  0
   -4.7344    3.0301   18.2349 O   0  0  0  0  0  0  0  0  0  0  0  0
   -2.7258    0.5314   15.0263 C   0  0  2  0  0  0  0  0  0  0  0  0
   -3.4510    1.5817   14.4125 O   0  0  0  0  0  0  0  0  0  0  0  0
   -4.2753   -4.0917   16.0913 C   0  0  2  0  0  0  0  0  0  0  0  0
   -4.0081    4.6520   19.9451 C   0  0  2  0  0  0  0  0  0  0  0  0
   -5.3522    4.9301   20.2847 O   0  0  0  0  0  0  0  0  0  0  0  0
   -2.6743   -0.7162   14.0648 C   0  0  2  0  0  0  0  0  0  0  0  0
   -1.9205   -1.8127   14.7083 O   0  0  0  0  0  0  0  0  0  0  0  0
   -3.5505   -5.0056   15.0637 C   0  0  2  0  0  0  0  0  0  0  0  0
   -3.9229   -4.5445   13.7334 O   0  0  0  0  0  0  0  0  0  0  0  0
   -3.0922    5.9170   20.1903 C   0  0  2  0  0  0  0  0  0  0  0  0
   -1.6898    5.6149   19.8228 O   0  0  0  0  0  0  0  0  0  0  0  0
   -2.0362   -0.3656   12.7214 C   0  0  0  0  0  0  0  0  0  0  0  0
   -2.2964   -1.3607   11.7617 O   0  0  0  0  0  0  0  0  0  0  0  0
   -4.0001   -6.4718   15.2641 C   0  0  1  0  0  0  0  0  0  0  0  0
   -3.3243   -7.2803   14.3240 O   0  0  0  0  0  0  0  0  0  0  0  0
   -3.1404    6.3792   21.6387 C   0  0  0  0  0  0  0  0  0  0  0  0
   -2.7458    7.7262   21.7378 O   0  0  0  0  0  0  0  0  0  0  0  0
   -4.3616    2.3678   16.9910 C   0  0  0  0  0  0  0  0  0  0  0  0
  1  2  1  6  0  0  0
  1  7  1  0  0  0  0
  1 24  1  0  0  0  0
  3  4  1  6  0  0  0
  3  9  1  0  0  0  0
  3 31  1  0  0  0  0
  5  6  1  6  0  0  0
  5 10  1  0  0  0  0
  5 28  1  0  0  0  0
  7  8  1  1  0  0  0
  7 12  1  0  0  0  0
  9 14  1  0  0  0  0
 10 11  1  6  0  0  0
 10 16  1  0  0  0  0
 12 13  1  1  0  0  0
 12 18  1  0  0  0  0
 13 35  1  0  0  0  0
 14 15  1  1  0  0  0
 14 20  1  0  0  0  0
 16 17  1  1  0  0  0
 16 21  1  0  0  0  0
 17 35  1  0  0  0  0
 18 19  1  6  0  0  0
 18 23  1  0  0  0  0
 20  2  1  1  0  0  0
 20 25  1  0  0  0  0
 21 22  1  6  0  0  0
 21 27  1  0  0  0  0
 23 24  1  0  0  0  0
 23 29  1  6  0  0  0
 25 26  1  6  0  0  0
 25 31  1  0  0  0  0
 27 28  1  0  0  0  0
 27 33  1  1  0  0  0
 29 30  1  0  0  0  0
 31 32  1  6  0  0  0
 33 34  1  0  0  0  0
M  END
>  <CHROM.1>
-131.62412217,-173.83712493,156.71270716,-43.00611195,96.58711144,65.43382249
-164.93631951,-158.54345753,-3.26959126,0.01087516,16.95419812,-1.74108290
1.25967537,0.51819239

>  <Name>
2o3v_lig

>  <RI>
0

>  <Rbt.Current_Directory>
/home/afrankz/demos/rdock_decoys_rna/rnas/2o3v

>  <Rbt.Executable>
rbdock ($Id: //depot/dev/client3/rdock/2013.1/src/exe/rbdock.cxx#4 $)

>  <Rbt.Library>
libRbt.so (2013.1, Build901 2013/11/27)

>  <Rbt.Parameter_File>
/export/apps/rDock/src/rDock_2013.1_src/data/scripts/dock_solv.prm

>  <Rbt.Receptor>
prm/blind_docking_60.prm

>  <SCORE>
41.1425

>  <SCORE.INTER>
27.2869

>  <SCORE.INTER.CONST>
1

>  <SCORE.INTER.POLAR>
-1.20735

>  <SCORE.INTER.ROT>
8

>  <SCORE.INTER.SOLV>
30.8769

>  <SCORE.INTER.VDW>
2.99015

>  <SCORE.INTER.norm>
0.779626

>  <SCORE.INTRA>
10.5901

>  <SCORE.INTRA.DIHEDRAL>
4.58314

>  <SCORE.INTRA.DIHEDRAL.0>
13.1227

>  <SCORE.INTRA.POLAR>
0

>  <SCORE.INTRA.POLAR.0>
0

>  <SCORE.INTRA.REPUL>
0

>  <SCORE.INTRA.REPUL.0>
0

>  <SCORE.INTRA.SOLV>
5.97726

>  <SCORE.INTRA.SOLV.lig_0>
-89.1587

>  <SCORE.INTRA.VDW>
5.30987

>  <SCORE.INTRA.VDW.0>
-0.838383

>  <SCORE.INTRA.norm>
0.302574

>  <SCORE.RESTR>
3.26546

>  <SCORE.RESTR.CAVITY>
3.26546

>  <SCORE.RESTR.norm>
0.0932989

>  <SCORE.SYSTEM>
0

>  <SCORE.SYSTEM.CONST>
0

>  <SCORE.SYSTEM.DIHEDRAL>
0

>  <SCORE.SYSTEM.SOLV>
0

>  <SCORE.SYSTEM.norm>
0

>  <SCORE.heavy>
35

>  <SCORE.norm>
1.1755

>  <RMSD>
30.925

$$$$
2o3v_lig
 OpenBabel02141814113D
libRbt.so/2013.1/901 2013/11/27
 35 37  0  0  0  0  0  0  0  0999 V2000
   -4.9754    2.5585   15.9887 C   0  0  2  0  0  0  0  0  0  0  0  0
   -3.8835    3.0175   16.8431 O   0  0  0  0  0  0  0  0  0  0  0  0
   -3.7636    5.5442   20.3826 C   0  0  2  0  0  0  0  0  0  0  0  0
   -3.7789    6.7600   21.2509 N   0  0  0  0  0  0  0  0  0  0  0  0
   -6.0343   -6.0039   17.7823 C   0  0  2  0  0  0  0  0  0  0  0  0
   -7.1143   -5.2664   17.1696 O   0  0  0  0  0  0  0  0  0  0  0  0
   -5.2647    1.1208   16.5253 C   0  0  2  0  0  0  0  0  0  0  0  0
   -5.6298    1.1481   17.9613 N   0  0  0  0  0  0  0  0  0  0  0  0
   -2.5376    5.6088   19.3736 C   0  0  0  0  0  0  0  0  0  0  0  0
   -5.0858   -4.9636   18.4725 C   0  0  2  0  0  0  0  0  0  0  0  0
   -5.8256   -4.1461   19.4671 N   0  0  0  0  0  0  0  0  0  0  0  0
   -4.0206    0.1545   16.3061 C   0  0  1  0  0  0  0  0  0  0  0  0
   -4.2995   -1.1948   16.8628 O   0  0  0  0  0  0  0  0  0  0  0  0
   -2.5511    4.3111   18.4548 C   0  0  2  0  0  0  0  0  0  0  0  0
   -1.4235    4.3568   17.4994 N   0  0  0  0  0  0  0  0  0  0  0  0
   -4.3720   -4.0233   17.4043 C   0  0  1  0  0  0  0  0  0  0  0  0
   -3.4620   -3.0718   18.0136 O   0  0  0  0  0  0  0  0  0  0  0  0
   -3.6807    0.1609   14.7511 C   0  0  2  0  0  0  0  0  0  0  0  0
   -2.5625   -0.6586   14.4614 O   0  0  0  0  0  0  0  0  0  0  0  0
   -3.9229    4.2210   17.6678 C   0  0  2  0  0  0  0  0  0  0  0  0
   -3.5975   -4.9239   16.3906 C   0  0  2  0  0  0  0  0  0  0  0  0
   -2.9496   -4.1402   15.4080 O   0  0  0  0  0  0  0  0  0  0  0  0
   -3.4111    1.6304   14.2495 C   0  0  2  0  0  0  0  0  0  0  0  0
   -4.5772    2.4852   14.5560 O   0  0  0  0  0  0  0  0  0  0  0  0
   -5.1165    4.1645   18.6619 C   0  0  2  0  0  0  0  0  0  0  0  0
   -6.3391    4.1238   17.8715 O   0  0  0  0  0  0  0  0  0  0  0  0
   -4.5879   -5.9591   15.7222 C   0  0  2  0  0  0  0  0  0  0  0  0
   -5.2654   -6.7669   16.7621 O   0  0  0  0  0  0  0  0  0  0  0  0
   -3.1186    1.6687   12.7502 C   0  0  0  0  0  0  0  0  0  0  0  0
   -1.9681    0.9214   12.4390 O   0  0  0  0  0  0  0  0  0  0  0  0
   -5.1052    5.4236   19.5601 C   0  0  1  0  0  0  0  0  0  0  0  0
   -6.1940    5.3450   20.4559 O   0  0  0  0  0  0  0  0  0  0  0  0
   -3.8686   -6.8893   14.7572 C   0  0  0  0  0  0  0  0  0  0  0  0
   -3.1313   -7.8565   15.4649 O   0  0  0  0  0  0  0  0  0  0  0  0
   -3.0715   -2.0561   17.0435 C   0  0  0  0  0  0  0  0  0  0  0  0
  1  2  1  1  0  0  0
  1  7  1  0  0  0  0
  1 24  1  0  0  0  0
  3  4  1  6  0  0  0
  3  9  1  0  0  0  0
  3 31  1  0  0  0  0
  5  6  1  6  0  0  0
  5 10  1  0  0  0  0
  5 28  1  0  0  0  0
  7  8  1  1  0  0  0
  7 12  1  0  0  0  0
  9 14  1  0  0  0  0
 10 11  1  1  0  0  0
 10 16  1  0  0  0  0
 12 13  1  6  0  0  0
 12 18  1  0  0  0  0
 13 35  1  0  0  0  0
 14 15  1  6  0  0  0
 14 20  1  0  0  0  0
 16 17  1  1  0  0  0
 16 21  1  0  0  0  0
 17 35  1  0  0  0  0
 18 19  1  1  0  0  0
 18 23  1  0  0  0  0
 20  2  1  1  0  0  0
 20 25  1  0  0  0  0
 21 22  1  6  0  0  0
 21 27  1  0  0  0  0
 23 24  1  0  0  0  0
 23 29  1  6  0  0  0
 25 26  1  6  0  0  0
 25 31  1  0  0  0  0
 27 28  1  0  0  0  0
 27 33  1  6  0  0  0
 29 30  1  0  0  0  0
 31 32  1  1  0  0  0
 33 34  1  0  0  0  0
M  END
>  <CHROM.1>
-122.56040083,-164.15555936,159.64519300,-167.36968606,72.28790961,178.41268106
-61.19856671,75.29530791,-4.18596982,-0.14858784,16.95501885,-1.49712940
-1.12646331,-2.87300813

>  <Name>
2o3v_lig

>  <RI>
0

>  <Rbt.Current_Directory>
/home/afrankz/demos/rdock_decoys_rna/rnas/2o3v

>  <Rbt.Executable>
rbdock ($Id: //depot/dev/client3/rdock/2013.1/src/exe/rbdock.cxx#4 $)

>  <Rbt.Library>
libRbt.so (2013.1, Build901 2013/11/27)

>  <Rbt.Parameter_File>
/export/apps/rDock/src/rDock_2013.1_src/data/scripts/dock_solv.prm

>  <Rbt.Receptor>
prm/blind_docking_100.prm

>  <SCORE>
-2.31044

>  <SCORE.INTER>
-5.91714

>  <SCORE.INTER.CONST>
1

>  <SCORE.INTER.POLAR>
-2.10191

>  <SCORE.INTER.ROT>
8

>  <SCORE.INTER.SOLV>
28.6297

>  <SCORE.INTER.VDW>
-15.415

>  <SCORE.INTER.norm>
-0.169061

>  <SCORE.INTRA>
0.570864

>  <SCORE.INTRA.DIHEDRAL>
-0.605185

>  <SCORE.INTRA.DIHEDRAL.0>
13.1227

>  <SCORE.INTRA.POLAR>
0

>  <SCORE.INTRA.POLAR.0>
0

>  <SCORE.INTRA.REPUL>
0

>  <SCORE.INTRA.REPUL.0>
0

>  <SCORE.INTRA.SOLV>
1.08154

>  <SCORE.INTRA.SOLV.lig_0>
-89.1587

>  <SCORE.INTRA.VDW>
0.332686

>  <SCORE.INTRA.VDW.0>
-0.838383

>  <SCORE.INTRA.norm>
0.0163104

>  <SCORE.RESTR>
3.03583

>  <SCORE.RESTR.CAVITY>
3.03583

>  <SCORE.RESTR.norm>
0.086738

>  <SCORE.SYSTEM>
0

>  <SCORE.SYSTEM.CONST>
0

>  <SCORE.SYSTEM.DIHEDRAL>
0

>  <SCORE.SYSTEM.SOLV>
0

>  <SCORE.SYSTEM.norm>
0

>  <SCORE.heavy>
35

>  <SCORE.norm>
-0.0660126

>  <RMSD>
30.926

$$$$
2o3v_lig
 OpenBabel02141814113D
libRbt.so/2013.1/901 2013/11/27
 35 37  0  0  0  0  0  0  0  0999 V2000
   -4.4351    0.5039   16.2850 C   0  0  2  0  0  0  0  0  0  0  0  0
   -3.4771    1.3414   17.0017 O   0  0  0  0  0  0  0  0  0  0  0  0
   -5.0359    5.2986   17.9169 C   0  0  2  0  0  0  0  0  0  0  0  0
   -5.4235    6.5211   18.6834 N   0  0  0  0  0  0  0  0  0  0  0  0
   -4.7997   -7.4668   16.4885 C   0  0  2  0  0  0  0  0  0  0  0  0
   -4.0912   -8.3243   17.4095 O   0  0  0  0  0  0  0  0  0  0  0  0
   -3.8056   -0.9215   16.3872 C   0  0  2  0  0  0  0  0  0  0  0  0
   -3.6292   -1.3293   17.8010 N   0  0  0  0  0  0  0  0  0  0  0  0
   -5.8285    4.0354   18.4657 C   0  0  0  0  0  0  0  0  0  0  0  0
   -3.7410   -6.5360   15.8023 C   0  0  2  0  0  0  0  0  0  0  0  0
   -2.6954   -7.3352   15.1145 N   0  0  0  0  0  0  0  0  0  0  0  0
   -2.4102   -0.9993   15.6280 C   0  0  1  0  0  0  0  0  0  0  0  0
   -1.8074   -2.3496   15.7747 O   0  0  0  0  0  0  0  0  0  0  0  0
   -5.3897    2.7479   17.6422 C   0  0  2  0  0  0  0  0  0  0  0  0
   -6.1081    1.5574   18.1453 N   0  0  0  0  0  0  0  0  0  0  0  0
   -3.0752   -5.5364   16.8475 C   0  0  1  0  0  0  0  0  0  0  0  0
   -2.1146   -4.6397   16.2328 O   0  0  0  0  0  0  0  0  0  0  0  0
   -2.6634   -0.5584   14.1197 C   0  0  2  0  0  0  0  0  0  0  0  0
   -1.4639   -0.5732   13.3668 O   0  0  0  0  0  0  0  0  0  0  0  0
   -3.8261    2.5306   17.7726 C   0  0  2  0  0  0  0  0  0  0  0  0
   -4.2088   -4.7101   17.5336 C   0  0  2  0  0  0  0  0  0  0  0  0
   -3.6753   -3.8089   18.4839 O   0  0  0  0  0  0  0  0  0  0  0  0
   -3.3122    0.8767   14.0639 C   0  0  2  0  0  0  0  0  0  0  0  0
   -4.5618    0.8916   14.8531 O   0  0  0  0  0  0  0  0  0  0  0  0
   -3.0590    3.7730   17.2394 C   0  0  2  0  0  0  0  0  0  0  0  0
   -1.6371    3.5196   17.4271 O   0  0  0  0  0  0  0  0  0  0  0  0
   -5.2549   -5.6850   18.2078 C   0  0  2  0  0  0  0  0  0  0  0  0
   -5.7990   -6.6281   17.2041 O   0  0  0  0  0  0  0  0  0  0  0  0
   -3.6002    1.3089   12.6269 C   0  0  0  0  0  0  0  0  0  0  0  0
   -2.8645    0.5379   11.7086 O   0  0  0  0  0  0  0  0  0  0  0  0
   -3.4854    5.0285   18.0356 C   0  0  1  0  0  0  0  0  0  0  0  0
   -2.7797    6.1417   17.5288 O   0  0  0  0  0  0  0  0  0  0  0  0
   -6.4037   -4.9247   18.8530 C   0  0  0  0  0  0  0  0  0  0  0  0
   -5.9110   -3.8842   19.6619 O   0  0  0  0  0  0  0  0  0  0  0  0
   -2.7973   -3.4852   15.6615 C   0  0  0  0  0  0  0  0  0  0  0  0
  1  2  1  1  0  0  0
  1  7  1  0  0  0  0
  1 24  1  0  0  0  0
  3  4  1  1  0  0  0
  3  9  1  0  0  0  0
  3 31  1  0  0  0  0
  5  6  1  1  0  0  0
  5 10  1  0  0  0  0
  5 28  1  0  0  0  0
  7  8  1  1  0  0  0
  7 12  1  0  0  0  0
  9 14  1  0  0  0  0
 10 11  1  1  0  0  0
 10 16  1  0  0  0  0
 12 13  1  6  0  0  0
 12 18  1  0  0  0  0
 13 35  1  0  0  0  0
 14 15  1  1  0  0  0
 14 20  1  0  0  0  0
 16 17  1  6  0  0  0
 16 21  1  0  0  0  0
 17 35  1  0  0  0  0
 18 19  1  6  0  0  0
 18 23  1  0  0  0  0
 20  2  1  6  0  0  0
 20 25  1  0  0  0  0
 21 22  1  1  0  0  0
 21 27  1  0  0  0  0
 23 24  1  0  0  0  0
 23 29  1  6  0  0  0
 25 26  1  1  0  0  0
 25 31  1  0  0  0  0
 27 28  1  0  0  0  0
 27 33  1  6  0  0  0
 29 30  1  0  0  0  0
 31 32  1  6  0  0  0
 33 34  1  0  0  0  0
M  END
>  <CHROM.1>
-147.66450262,40.67733782,-162.89725239,84.06525652,149.03959584,-1.69413427
-18.15172159,-48.82741618,-3.83643246,-0.97583601,16.61522207,1.54237276
1.03831611,0.04481219

>  <Name>
2o3v_lig

>  <RI>
0

>  <Rbt.Current_Directory>
/home/afrankz/demos/rdock_decoys_rna/rnas/2o3v

>  <Rbt.Executable>
rbdock ($Id: //depot/dev/client3/rdock/2013.1/src/exe/rbdock.cxx#4 $)

>  <Rbt.Library>
libRbt.so (2013.1, Build901 2013/11/27)

>  <Rbt.Parameter_File>
/export/apps/rDock/src/rDock_2013.1_src/data/scripts/dock_solv.prm

>  <Rbt.Receptor>
prm/blind_docking_60.prm

>  <SCORE>
7.16018

>  <SCORE.INTER>
-12.8174

>  <SCORE.INTER.CONST>
1

>  <SCORE.INTER.POLAR>
-3.65526

>  <SCORE.INTER.ROT>
8

>  <SCORE.INTER.SOLV>
33.5735

>  <SCORE.INTER.VDW>
-16.4852

>  <SCORE.INTER.norm>
-0.36621

>  <SCORE.INTRA>
15.8791

>  <SCORE.INTRA.DIHEDRAL>
12.0609

>  <SCORE.INTRA.DIHEDRAL.0>
13.1227

>  <SCORE.INTRA.POLAR>
0

>  <SCORE.INTRA.POLAR.0>
0

>  <SCORE.INTRA.REPUL>
0

>  <SCORE.INTRA.REPUL.0>
0

>  <SCORE.INTRA.SOLV>
4.77946

>  <SCORE.INTRA.SOLV.lig_0>
-89.1587

>  <SCORE.INTRA.VDW>
7.45894

>  <SCORE.INTRA.VDW.0>
-0.838383

>  <SCORE.INTRA.norm>
0.453689

>  <SCORE.RESTR>
4.0984

>  <SCORE.RESTR.CAVITY>
4.0984

>  <SCORE.RESTR.norm>
0.117097

>  <SCORE.SYSTEM>
0

>  <SCORE.SYSTEM.CONST>
0

>  <SCORE.SYSTEM.DIHEDRAL>
0

>  <SCORE.SYSTEM.SOLV>
0

>  <SCORE.SYSTEM.norm>
0

>  <SCORE.heavy>
35

>  <SCORE.norm>
0.204576

>  <RMSD>
30.935

$$$$
2o3v_lig
 OpenBabel02141814113D
libRbt.so/2013.1/901 2013/11/27
 35 37  0  0  0  0  0  0  0  0999 V2000
   -4.8071    2.1198   16.0252 C   0  0  2  0  0  0  0  0  0  0  0  0
   -3.7667    2.6430   16.9065 O   0  0  0  0  0  0  0  0  0  0  0  0
   -3.7673    5.4863   20.1994 C   0  0  2  0  0  0  0  0  0  0  0  0
   -3.8184    6.7765   20.9509 N   0  0  0  0  0  0  0  0  0  0  0  0
   -5.1416   -6.4511   15.9721 C   0  0  2  0  0  0  0  0  0  0  0  0
   -4.2610   -7.5080   16.4117 O   0  0  0  0  0  0  0  0  0  0  0  0
   -4.8561    0.6037   16.3960 C   0  0  2  0  0  0  0  0  0  0  0  0
   -5.1686    0.4131   17.8321 N   0  0  0  0  0  0  0  0  0  0  0  0
   -2.5156    5.4734   19.2203 C   0  0  0  0  0  0  0  0  0  0  0  0
   -4.2508   -5.3335   15.3274 C   0  0  2  0  0  0  0  0  0  0  0  0
   -3.4431   -5.8769   14.2061 N   0  0  0  0  0  0  0  0  0  0  0  0
   -3.4892   -0.1284   16.0424 C   0  0  1  0  0  0  0  0  0  0  0  0
   -3.5407   -1.5584   16.4433 O   0  0  0  0  0  0  0  0  0  0  0  0
   -2.4912    4.0965   18.4254 C   0  0  2  0  0  0  0  0  0  0  0  0
   -1.3391    4.0685   17.4989 N   0  0  0  0  0  0  0  0  0  0  0  0
   -3.3055   -4.6431   16.4065 C   0  0  1  0  0  0  0  0  0  0  0  0
   -2.4931   -3.5812   15.8434 O   0  0  0  0  0  0  0  0  0  0  0  0
   -3.2111    0.1048   14.4926 C   0  0  2  0  0  0  0  0  0  0  0  0
   -1.9933   -0.4947   14.0884 O   0  0  0  0  0  0  0  0  0  0  0  0
   -3.8405    3.9167   17.6152 C   0  0  2  0  0  0  0  0  0  0  0  0
   -4.1976   -4.0759   17.5559 C   0  0  2  0  0  0  0  0  0  0  0  0
   -3.4079   -3.4578   18.5529 O   0  0  0  0  0  0  0  0  0  0  0  0
   -3.1850    1.6452   14.1606 C   0  0  2  0  0  0  0  0  0  0  0  0
   -4.4549    2.2701   14.5865 O   0  0  0  0  0  0  0  0  0  0  0  0
   -5.0595    3.9367   18.5796 C   0  0  2  0  0  0  0  0  0  0  0  0
   -6.2601    3.8076   17.7653 O   0  0  0  0  0  0  0  0  0  0  0  0
   -5.0810   -5.2321   18.1740 C   0  0  2  0  0  0  0  0  0  0  0  0
   -5.8960   -5.8761   17.1186 O   0  0  0  0  0  0  0  0  0  0  0  0
   -2.9565    1.8962   12.6708 C   0  0  0  0  0  0  0  0  0  0  0  0
   -3.2477    3.2298   12.3309 O   0  0  0  0  0  0  0  0  0  0  0  0
   -5.0852    5.2731   19.3576 C   0  0  1  0  0  0  0  0  0  0  0  0
   -6.1965    5.2634   20.2287 O   0  0  0  0  0  0  0  0  0  0  0  0
   -6.0007   -4.7175   19.2709 C   0  0  0  0  0  0  0  0  0  0  0  0
   -6.7552   -5.7735   19.8147 O   0  0  0  0  0  0  0  0  0  0  0  0
   -3.3445   -2.5288   15.3022 C   0  0  0  0  0  0  0  0  0  0  0  0
  1  2  1  1  0  0  0
  1  7  1  0  0  0  0
  1 24  1  0  0  0  0
  3  4  1  6  0  0  0
  3  9  1  0  0  0  0
  3 31  1  0  0  0  0
  5  6  1  1  0  0  0
  5 10  1  0  0  0  0
  5 28  1  0  0  0  0
  7  8  1  1  0  0  0
  7 12  1  0  0  0  0
  9 14  1  0  0  0  0
 10 11  1  6  0  0  0
 10 16  1  0  0  0  0
 12 13  1  6  0  0  0
 12 18  1  0  0  0  0
 13 35  1  0  0  0  0
 14 15  1  6  0  0  0
 14 20  1  0  0  0  0
 16 17  1  6  0  0  0
 16 21  1  0  0  0  0
 17 35  1  0  0  0  0
 18 19  1  1  0  0  0
 18 23  1  0  0  0  0
 20  2  1  1  0  0  0
 20 25  1  0  0  0  0
 21 22  1  1  0  0  0
 21 27  1  0  0  0  0
 23 24  1  0  0  0  0
 23 29  1  6  0  0  0
 25 26  1  6  0  0  0
 25 31  1  0  0  0  0
 27 28  1  0  0  0  0
 27 33  1  1  0  0  0
 29 30  1  0  0  0  0
 31 32  1  1  0  0  0
 33 34  1  0  0  0  0
M  END
>  <CHROM.1>
-138.68109394,120.29061924,139.34683164,61.04336472,90.93535316,-178.83471522
165.97254351,-178.99368346,-4.08722218,-0.16479323,16.89436937,-1.43764494
-1.17987816,-2.87517253

>  <Name>
2o3v_lig

>  <RI>
0

>  <Rbt.Current_Directory>
/home/afrankz/demos/rdock_decoys_rna/rnas/2o3v

>  <Rbt.Executable>
rbdock ($Id: //depot/dev/client3/rdock/2013.1/src/exe/rbdock.cxx#4 $)

>  <Rbt.Library>
libRbt.so (2013.1, Build901 2013/11/27)

>  <Rbt.Parameter_File>
/export/apps/rDock/src/rDock_2013.1_src/data/scripts/dock_solv.prm

>  <Rbt.Receptor>
prm/blind_docking_100.prm

>  <SCORE>
9.88038

>  <SCORE.INTER>
-0.793991

>  <SCORE.INTER.CONST>
1

>  <SCORE.INTER.POLAR>
-1.89474

>  <SCORE.INTER.ROT>
8

>  <SCORE.INTER.SOLV>
30.1984

>  <SCORE.INTER.VDW>
-13.213

>  <SCORE.INTER.norm>
-0.0226855

>  <SCORE.INTRA>
8.2505

>  <SCORE.INTRA.DIHEDRAL>
9.67112

>  <SCORE.INTRA.DIHEDRAL.0>
13.1227

>  <SCORE.INTRA.POLAR>
0

>  <SCORE.INTRA.POLAR.0>
0

>  <SCORE.INTRA.REPUL>
0

>  <SCORE.INTRA.REPUL.0>
0

>  <SCORE.INTRA.SOLV>
0.378331

>  <SCORE.INTRA.SOLV.lig_0>
-89.1587

>  <SCORE.INTRA.VDW>
3.22577

>  <SCORE.INTRA.VDW.0>
-0.838383

>  <SCORE.INTRA.norm>
0.235728

>  <SCORE.RESTR>
2.42387

>  <SCORE.RESTR.CAVITY>
2.42387

>  <SCORE.RESTR.norm>
0.0692535

>  <SCORE.SYSTEM>
0

>  <SCORE.SYSTEM.CONST>
0

>  <SCORE.SYSTEM.DIHEDRAL>
0

>  <SCORE.SYSTEM.SOLV>
0

>  <SCORE.SYSTEM.norm>
0

>  <SCORE.heavy>
35

>  <SCORE.norm>
0.282296

>  <RMSD>
30.936

$$$$
2o3v_lig
 OpenBabel02141814113D
libRbt.so/2013.1/901 2013/11/27
 35 37  0  0  0  0  0  0  0  0999 V2000
   -5.5213    3.6410   16.2965 C   0  0  2  0  0  0  0  0  0  0  0  0
   -4.5919    4.3279   17.1894 O   0  0  0  0  0  0  0  0  0  0  0  0
   -4.8362    6.6332   20.8708 C   0  0  2  0  0  0  0  0  0  0  0  0
   -5.1247    7.0016   22.2897 N   0  0  0  0  0  0  0  0  0  0  0  0
   -3.8095   -6.0325   16.8588 C   0  0  2  0  0  0  0  0  0  0  0  0
   -4.3031   -6.0073   15.5019 O   0  0  0  0  0  0  0  0  0  0  0  0
   -5.6714    2.2336   16.9560 C   0  0  2  0  0  0  0  0  0  0  0  0
   -6.1808    2.3434   18.3433 N   0  0  0  0  0  0  0  0  0  0  0  0
   -6.1884    6.2915   20.1091 C   0  0  0  0  0  0  0  0  0  0  0  0
   -4.3571   -4.7542   17.5830 C   0  0  2  0  0  0  0  0  0  0  0  0
   -5.8408   -4.7118   17.5394 N   0  0  0  0  0  0  0  0  0  0  0  0
   -4.2950    1.4367   16.9511 C   0  0  1  0  0  0  0  0  0  0  0  0
   -4.4486    0.1196   17.6220 O   0  0  0  0  0  0  0  0  0  0  0  0
   -5.8527    5.8921   18.6071 C   0  0  2  0  0  0  0  0  0  0  0  0
   -7.0980    5.5587   17.8827 N   0  0  0  0  0  0  0  0  0  0  0  0
   -3.7468   -3.4220   16.9605 C   0  0  1  0  0  0  0  0  0  0  0  0
   -4.2112   -2.2239   17.6340 O   0  0  0  0  0  0  0  0  0  0  0  0
   -3.8029    1.3454   15.4401 C   0  0  2  0  0  0  0  0  0  0  0  0
   -2.5629    0.6687   15.3386 O   0  0  0  0  0  0  0  0  0  0  0  0
   -4.8667    4.6525   18.5855 C   0  0  2  0  0  0  0  0  0  0  0  0
   -2.1896   -3.5059   17.0407 C   0  0  2  0  0  0  0  0  0  0  0  0
   -1.5903   -2.3494   16.4903 O   0  0  0  0  0  0  0  0  0  0  0  0
   -3.6800    2.7847   14.8101 C   0  0  2  0  0  0  0  0  0  0  0  0
   -4.9737    3.4910   14.9202 O   0  0  0  0  0  0  0  0  0  0  0  0
   -3.5498    4.9932   19.3377 C   0  0  2  0  0  0  0  0  0  0  0  0
   -2.7135    3.8011   19.3119 O   0  0  0  0  0  0  0  0  0  0  0  0
   -1.6806   -4.8087   16.3039 C   0  0  2  0  0  0  0  0  0  0  0  0
   -2.3219   -6.0108   16.8841 O   0  0  0  0  0  0  0  0  0  0  0  0
   -3.2445    2.7234   13.3467 C   0  0  0  0  0  0  0  0  0  0  0  0
   -3.4476    3.9588   12.7053 O   0  0  0  0  0  0  0  0  0  0  0  0
   -3.8720    5.3858   20.7986 C   0  0  1  0  0  0  0  0  0  0  0  0
   -2.6617    5.6952   21.4569 O   0  0  0  0  0  0  0  0  0  0  0  0
   -0.1693   -4.9565   16.3937 C   0  0  0  0  0  0  0  0  0  0  0  0
    0.2052   -5.4033   17.6743 O   0  0  0  0  0  0  0  0  0  0  0  0
   -4.0102   -1.0576   16.7828 C   0  0  0  0  0  0  0  0  0  0  0  0
  1  2  1  1  0  0  0
  1  7  1  0  0  0  0
  1 24  1  0  0  0  0
  3  4  1  1  0  0  0
  3  9  1  0  0  0  0
  3 31  1  0  0  0  0
  5  6  1  6  0  0  0
  5 10  1  0  0  0  0
  5 28  1  0  0  0  0
  7  8  1  1  0  0  0
  7 12  1  0  0  0  0
  9 14  1  0  0  0  0
 10 11  1  6  0  0  0
 10 16  1  0  0  0  0
 12 13  1  6  0  0  0
 12 18  1  0  0  0  0
 13 35  1  0  0  0  0
 14 15  1  6  0  0  0
 14 20  1  0  0  0  0
 16 17  1  1  0  0  0
 16 21  1  0  0  0  0
 17 35  1  0  0  0  0
 18 19  1  1  0  0  0
 18 23  1  0  0  0  0
 20  2  1  6  0  0  0
 20 25  1  0  0  0  0
 21 22  1  6  0  0  0
 21 27  1  0  0  0  0
 23 24  1  0  0  0  0
 23 29  1  6  0  0  0
 25 26  1  1  0  0  0
 25 31  1  0  0  0  0
 27 28  1  0  0  0  0
 27 33  1  1  0  0  0
 29 30  1  0  0  0  0
 31 32  1  1  0  0  0
 33 34  1  0  0  0  0
M  END
>  <CHROM.1>
-64.00536389,125.74525782,178.57490818,-160.74751429,-176.61301370,-75.72131483
165.69303882,76.24761894,-3.87679803,0.80176660,17.36576333,2.80400550,-1.35374052
1.45100070

>  <Name>
2o3v_lig

>  <RI>
0

>  <Rbt.Current_Directory>
/home/afrankz/demos/rdock_decoys_rna/rnas/2o3v

>  <Rbt.Executable>
rbdock ($Id: //depot/dev/client3/rdock/2013.1/src/exe/rbdock.cxx#4 $)

>  <Rbt.Library>
libRbt.so (2013.1, Build901 2013/11/27)

>  <Rbt.Parameter_File>
/export/apps/rDock/src/rDock_2013.1_src/data/scripts/dock_solv.prm

>  <Rbt.Receptor>
prm/blind_docking_80.prm

>  <SCORE>
6.96256

>  <SCORE.INTER>
0.438298

>  <SCORE.INTER.CONST>
1

>  <SCORE.INTER.POLAR>
-0.794573

>  <SCORE.INTER.ROT>
8

>  <SCORE.INTER.SOLV>
25.3168

>  <SCORE.INTER.VDW>
-14.4315

>  <SCORE.INTER.norm>
0.0125228

>  <SCORE.INTRA>
5.10557

>  <SCORE.INTRA.DIHEDRAL>
-1.46925

>  <SCORE.INTRA.DIHEDRAL.0>
13.1227

>  <SCORE.INTRA.POLAR>
0

>  <SCORE.INTRA.POLAR.0>
0

>  <SCORE.INTRA.REPUL>
0.218163

>  <SCORE.INTRA.REPUL.0>
0

>  <SCORE.INTRA.SOLV>
3.4032

>  <SCORE.INTRA.SOLV.lig_0>
-89.1587

>  <SCORE.INTRA.VDW>
3.04777

>  <SCORE.INTRA.VDW.0>
-0.838383

>  <SCORE.INTRA.norm>
0.145873

>  <SCORE.RESTR>
1.4187

>  <SCORE.RESTR.CAVITY>
1.4187

>  <SCORE.RESTR.norm>
0.0405342

>  <SCORE.SYSTEM>
0

>  <SCORE.SYSTEM.CONST>
0

>  <SCORE.SYSTEM.DIHEDRAL>
0

>  <SCORE.SYSTEM.SOLV>
0

>  <SCORE.SYSTEM.norm>
0

>  <SCORE.heavy>
35

>  <SCORE.norm>
0.19893

>  <RMSD>
30.939

$$$$
2o3v_lig
 OpenBabel02141814113D
libRbt.so/2013.1/901 2013/11/27
 35 37  0  0  0  0  0  0  0  0999 V2000
   -2.4729   -2.7359   16.3446 C   0  0  2  0  0  0  0  0  0  0  0  0
   -3.8830   -3.0631   16.5376 O   0  0  0  0  0  0  0  0  0  0  0  0
   -4.1240   -7.3680   17.1187 C   0  0  2  0  0  0  0  0  0  0  0  0
   -4.6637   -8.7609   17.1481 N   0  0  0  0  0  0  0  0  0  0  0  0
   -6.7804    5.2478   17.4937 C   0  0  2  0  0  0  0  0  0  0  0  0
   -6.3849    5.6890   16.1767 O   0  0  0  0  0  0  0  0  0  0  0  0
   -2.2402   -1.5642   17.3504 C   0  0  2  0  0  0  0  0  0  0  0  0
   -2.5500   -1.9802   18.7386 N   0  0  0  0  0  0  0  0  0  0  0  0
   -4.9729   -6.4326   18.0831 C   0  0  0  0  0  0  0  0  0  0  0  0
   -5.4849    4.7783   18.2418 C   0  0  2  0  0  0  0  0  0  0  0  0
   -4.4820    5.8714   18.3074 N   0  0  0  0  0  0  0  0  0  0  0  0
   -3.1053   -0.2857   16.9675 C   0  0  1  0  0  0  0  0  0  0  0  0
   -2.9036    0.8011   17.9608 O   0  0  0  0  0  0  0  0  0  0  0  0
   -4.3862   -4.9559   18.0244 C   0  0  2  0  0  0  0  0  0  0  0  0
   -5.1701   -4.0655   18.9072 N   0  0  0  0  0  0  0  0  0  0  0  0
   -4.8514    3.4861   17.5609 C   0  0  1  0  0  0  0  0  0  0  0  0
   -3.6689    3.0096   18.2534 O   0  0  0  0  0  0  0  0  0  0  0  0
   -2.7260    0.1164   15.4749 C   0  0  2  0  0  0  0  0  0  0  0  0
   -3.4700    1.2385   15.0352 O   0  0  0  0  0  0  0  0  0  0  0  0
   -4.4303   -4.4162   16.5358 C   0  0  2  0  0  0  0  0  0  0  0  0
   -5.9352    2.3623   17.5270 C   0  0  2  0  0  0  0  0  0  0  0  0
   -5.4302    1.1889   16.9207 O   0  0  0  0  0  0  0  0  0  0  0  0
   -2.9611   -1.0976   14.4978 C   0  0  2  0  0  0  0  0  0  0  0  0
   -2.1871   -2.2687   14.9602 O   0  0  0  0  0  0  0  0  0  0  0  0
   -3.6029   -5.3400   15.5986 C   0  0  2  0  0  0  0  0  0  0  0  0
   -3.7215   -4.8077   14.2481 O   0  0  0  0  0  0  0  0  0  0  0  0
   -7.2234    2.8777   16.7693 C   0  0  2  0  0  0  0  0  0  0  0  0
   -7.7366    4.1108   17.4089 O   0  0  0  0  0  0  0  0  0  0  0  0
   -2.5690   -0.7493   13.0626 C   0  0  0  0  0  0  0  0  0  0  0  0
   -1.1852   -0.5195   12.9569 O   0  0  0  0  0  0  0  0  0  0  0  0
   -4.1681   -6.7785   15.6553 C   0  0  1  0  0  0  0  0  0  0  0  0
   -3.3970   -7.5970   14.8012 O   0  0  0  0  0  0  0  0  0  0  0  0
   -8.3259    1.8298   16.7490 C   0  0  0  0  0  0  0  0  0  0  0  0
   -8.5949    1.3746   18.0530 O   0  0  0  0  0  0  0  0  0  0  0  0
   -2.8602    2.1873   17.3617 C   0  0  0  0  0  0  0  0  0  0  0  0
  1  2  1  6  0  0  0
  1  7  1  0  0  0  0
  1 24  1  0  0  0  0
  3  4  1  6  0  0  0
  3  9  1  0  0  0  0
  3 31  1  0  0  0  0
  5  6  1  6  0  0  0
  5 10  1  0  0  0  0
  5 28  1  0  0  0  0
  7  8  1  1  0  0  0
  7 12  1  0  0  0  0
  9 14  1  0  0  0  0
 10 11  1  6  0  0  0
 10 16  1  0  0  0  0
 12 13  1  1  0  0  0
 12 18  1  0  0  0  0
 13 35  1  0  0  0  0
 14 15  1  1  0  0  0
 14 20  1  0  0  0  0
 16 17  1  1  0  0  0
 16 21  1  0  0  0  0
 17 35  1  0  0  0  0
 18 19  1  6  0  0  0
 18 23  1  0  0  0  0
 20  2  1  1  0  0  0
 20 25  1  0  0  0  0
 21 22  1  6  0  0  0
 21 27  1  0  0  0  0
 23 24  1  0  0  0  0
 23 29  1  6  0  0  0
 25 26  1  6  0  0  0
 25 31  1  0  0  0  0
 27 28  1  0  0  0  0
 27 33  1  1  0  0  0
 29 30  1  0  0  0  0
 31 32  1  6  0  0  0
 33 34  1  0  0  0  0
M  END
>  <CHROM.1>
-141.10226288,142.02607262,136.57740097,-158.74593980,-114.62751920,90.02193159
65.56260370,52.97188590,-4.36418506,-0.77509103,16.62353382,-1.31628401,0.62859076
-0.03892460

>  <Name>
2o3v_lig

>  <RI>
0

>  <Rbt.Current_Directory>
/home/afrankz/demos/rdock_decoys_rna/rnas/2o3v

>  <Rbt.Executable>
rbdock ($Id: //depot/dev/client3/rdock/2013.1/src/exe/rbdock.cxx#4 $)

>  <Rbt.Library>
libRbt.so (2013.1, Build901 2013/11/27)

>  <Rbt.Parameter_File>
/export/apps/rDock/src/rDock_2013.1_src/data/scripts/dock_solv.prm

>  <Rbt.Receptor>
prm/blind_docking_20.prm

>  <SCORE>
3.69723

>  <SCORE.INTER>
-14.231

>  <SCORE.INTER.CONST>
1

>  <SCORE.INTER.POLAR>
-2.48435

>  <SCORE.INTER.ROT>
8

>  <SCORE.INTER.SOLV>
31.5524

>  <SCORE.INTER.VDW>
-20.657

>  <SCORE.INTER.norm>
-0.4066

>  <SCORE.INTRA>
11.5744

>  <SCORE.INTRA.DIHEDRAL>
16.0535

>  <SCORE.INTRA.DIHEDRAL.0>
13.1227

>  <SCORE.INTRA.POLAR>
0

>  <SCORE.INTRA.POLAR.0>
0

>  <SCORE.INTRA.REPUL>
0

>  <SCORE.INTRA.REPUL.0>
0

>  <SCORE.INTRA.SOLV>
2.77588

>  <SCORE.INTRA.SOLV.lig_0>
-89.1587

>  <SCORE.INTRA.VDW>
2.15975

>  <SCORE.INTRA.VDW.0>
-0.838383

>  <SCORE.INTRA.norm>
0.330698

>  <SCORE.RESTR>
6.35382

>  <SCORE.RESTR.CAVITY>
6.35382

>  <SCORE.RESTR.norm>
0.181538

>  <SCORE.SYSTEM>
0

>  <SCORE.SYSTEM.CONST>
0

>  <SCORE.SYSTEM.DIHEDRAL>
0

>  <SCORE.SYSTEM.SOLV>
0

>  <SCORE.SYSTEM.norm>
0

>  <SCORE.heavy>
35

>  <SCORE.norm>
0.105635

>  <RMSD>
30.940

$$$$
2o3v_lig
 OpenBabel02141814113D
libRbt.so/2013.1/901 2013/11/27
 35 37  0  0  0  0  0  0  0  0999 V2000
   -6.0066    4.2401   17.3580 C   0  0  2  0  0  0  0  0  0  0  0  0
   -5.1641    4.2093   18.5504 O   0  0  0  0  0  0  0  0  0  0  0  0
   -4.4123    6.8364   21.9358 C   0  0  2  0  0  0  0  0  0  0  0  0
   -3.9724    8.0201   22.7342 N   0  0  0  0  0  0  0  0  0  0  0  0
   -1.3632   -3.5848   17.2084 C   0  0  2  0  0  0  0  0  0  0  0  0
   -1.5377   -4.4678   18.3377 O   0  0  0  0  0  0  0  0  0  0  0  0
   -6.3812    2.7384   17.1500 C   0  0  2  0  0  0  0  0  0  0  0  0
   -7.0817    2.1917   18.3360 N   0  0  0  0  0  0  0  0  0  0  0  0
   -3.1640    6.1714   21.2112 C   0  0  0  0  0  0  0  0  0  0  0  0
   -2.3093   -2.3530   17.4231 C   0  0  2  0  0  0  0  0  0  0  0  0
   -2.0097   -1.6686   18.7064 N   0  0  0  0  0  0  0  0  0  0  0  0
   -5.0976    1.8554   16.8304 C   0  0  1  0  0  0  0  0  0  0  0  0
   -5.4691    0.4244   16.6801 O   0  0  0  0  0  0  0  0  0  0  0  0
   -3.6606    4.9232   20.3605 C   0  0  2  0  0  0  0  0  0  0  0  0
   -2.5146    4.2959   19.6679 N   0  0  0  0  0  0  0  0  0  0  0  0
   -3.8431   -2.7760   17.3665 C   0  0  1  0  0  0  0  0  0  0  0  0
   -4.7423   -1.6492   17.5291 O   0  0  0  0  0  0  0  0  0  0  0  0
   -4.3937    2.4845   15.5489 C   0  0  2  0  0  0  0  0  0  0  0  0
   -3.2189    1.7739   15.2013 O   0  0  0  0  0  0  0  0  0  0  0  0
   -4.7433    5.3878   19.3016 C   0  0  2  0  0  0  0  0  0  0  0  0
   -4.1134   -3.4771   15.9975 C   0  0  2  0  0  0  0  0  0  0  0  0
   -5.4631   -3.8859   15.8948 O   0  0  0  0  0  0  0  0  0  0  0  0
   -4.0475    4.0019   15.7965 C   0  0  2  0  0  0  0  0  0  0  0  0
   -5.2737    4.7413   16.1629 O   0  0  0  0  0  0  0  0  0  0  0  0
   -5.9575    6.0424   20.0182 C   0  0  2  0  0  0  0  0  0  0  0  0
   -6.8880    6.4785   18.9862 O   0  0  0  0  0  0  0  0  0  0  0  0
   -3.1374   -4.7080   15.8196 C   0  0  2  0  0  0  0  0  0  0  0  0
   -1.7284   -4.2677   15.9378 O   0  0  0  0  0  0  0  0  0  0  0  0
   -3.4038    4.6404   14.5666 C   0  0  0  0  0  0  0  0  0  0  0  0
   -4.3087    4.6935   13.4908 O   0  0  0  0  0  0  0  0  0  0  0  0
   -5.4784    7.2552   20.8499 C   0  0  1  0  0  0  0  0  0  0  0  0
   -6.5975    7.8273   21.4938 O   0  0  0  0  0  0  0  0  0  0  0  0
   -3.3341   -5.3978   14.4782 C   0  0  0  0  0  0  0  0  0  0  0  0
   -4.6398   -5.9127   14.3776 O   0  0  0  0  0  0  0  0  0  0  0  0
   -4.2959   -0.5268   16.7130 C   0  0  0  0  0  0  0  0  0  0  0  0
  1  2  1  1  0  0  0
  1  7  1  0  0  0  0
  1 24  1  0  0  0  0
  3  4  1  6  0  0  0
  3  9  1  0  0  0  0
  3 31  1  0  0  0  0
  5  6  1  1  0  0  0
  5 10  1  0  0  0  0
  5 28  1  0  0  0  0
  7  8  1  1  0  0  0
  7 12  1  0  0  0  0
  9 14  1  0  0  0  0
 10 11  1  1  0  0  0
 10 16  1  0  0  0  0
 12 13  1  6  0  0  0
 12 18  1  0  0  0  0
 13 35  1  0  0  0  0
 14 15  1  6  0  0  0
 14 20  1  0  0  0  0
 16 17  1  6  0  0  0
 16 21  1  0  0  0  0
 17 35  1  0  0  0  0
 18 19  1  1  0  0  0
 18 23  1  0  0  0  0
 20  2  1  1  0  0  0
 20 25  1  0  0  0  0
 21 22  1  1  0  0  0
 21 27  1  0  0  0  0
 23 24  1  0  0  0  0
 23 29  1  6  0  0  0
 25 26  1  6  0  0  0
 25 31  1  0  0  0  0
 27 28  1  0  0  0  0
 27 33  1  6  0  0  0
 29 30  1  0  0  0  0
 31 32  1  1  0  0  0
 33 34  1  0  0  0  0
M  END
>  <CHROM.1>
-168.68420484,-165.77852207,138.04097219,44.87113550,165.72780859,-170.84697043
65.62638729,-61.88313750,-4.29172322,1.56909710,17.61256772,2.01295741,-1.18717252
0.76598485

>  <Name>
2o3v_lig

>  <RI>
0

>  <Rbt.Current_Directory>
/home/afrankz/demos/rdock_decoys_rna/rnas/2o3v

>  <Rbt.Executable>
rbdock ($Id: //depot/dev/client3/rdock/2013.1/src/exe/rbdock.cxx#4 $)

>  <Rbt.Library>
libRbt.so (2013.1, Build901 2013/11/27)

>  <Rbt.Parameter_File>
/export/apps/rDock/src/rDock_2013.1_src/data/scripts/dock_solv.prm

>  <Rbt.Receptor>
prm/blind_docking_40.prm

>  <SCORE>
-0.897636

>  <SCORE.INTER>
-2.3464

>  <SCORE.INTER.CONST>
1

>  <SCORE.INTER.POLAR>
-0.384414

>  <SCORE.INTER.ROT>
8

>  <SCORE.INTER.SOLV>
31.5412

>  <SCORE.INTER.VDW>
-19.73

>  <SCORE.INTER.norm>
-0.06704

>  <SCORE.INTRA>
-1.18627

>  <SCORE.INTRA.DIHEDRAL>
-3.23575

>  <SCORE.INTRA.DIHEDRAL.0>
13.1227

>  <SCORE.INTRA.POLAR>
0

>  <SCORE.INTRA.POLAR.0>
0

>  <SCORE.INTRA.REPUL>
0

>  <SCORE.INTRA.REPUL.0>
0

>  <SCORE.INTRA.SOLV>
-0.382273

>  <SCORE.INTRA.SOLV.lig_0>
-89.1587

>  <SCORE.INTRA.VDW>
0.622739

>  <SCORE.INTRA.VDW.0>
-0.838383

>  <SCORE.INTRA.norm>
-0.0338935

>  <SCORE.RESTR>
2.63504

>  <SCORE.RESTR.CAVITY>
2.63504

>  <SCORE.RESTR.norm>
0.0752867

>  <SCORE.SYSTEM>
0

>  <SCORE.SYSTEM.CONST>
0

>  <SCORE.SYSTEM.DIHEDRAL>
0

>  <SCORE.SYSTEM.SOLV>
0

>  <SCORE.SYSTEM.norm>
0

>  <SCORE.heavy>
35

>  <SCORE.norm>
-0.0256467

>  <RMSD>
30.976

$$$$
2o3v_lig
 OpenBabel02141814113D
libRbt.so/2013.1/901 2013/11/27
 35 37  0  0  0  0  0  0  0  0999 V2000
   -5.5951    4.1961   16.6917 C   0  0  2  0  0  0  0  0  0  0  0  0
   -4.5672    4.5868   17.6526 O   0  0  0  0  0  0  0  0  0  0  0  0
   -4.7222    6.8537   21.3627 C   0  0  2  0  0  0  0  0  0  0  0  0
   -4.9847    7.2105   22.7895 N   0  0  0  0  0  0  0  0  0  0  0  0
   -4.6127   -5.0909   16.9082 C   0  0  2  0  0  0  0  0  0  0  0  0
   -4.9942   -4.8935   15.5294 O   0  0  0  0  0  0  0  0  0  0  0  0
   -5.7555    2.6640   16.9477 C   0  0  2  0  0  0  0  0  0  0  0  0
   -6.1468    2.3934   18.3512 N   0  0  0  0  0  0  0  0  0  0  0  0
   -6.0903    6.5426   20.6165 C   0  0  0  0  0  0  0  0  0  0  0  0
   -4.5867   -3.6821   17.5959 C   0  0  2  0  0  0  0  0  0  0  0  0
   -5.9056   -3.0094   17.4823 N   0  0  0  0  0  0  0  0  0  0  0  0
   -4.4213    1.8712   16.6000 C   0  0  1  0  0  0  0  0  0  0  0  0
   -4.5802    0.4228   16.8923 O   0  0  0  0  0  0  0  0  0  0  0  0
   -5.7823    6.1549   19.1055 C   0  0  2  0  0  0  0  0  0  0  0  0
   -7.0429    5.8500   18.3952 N   0  0  0  0  0  0  0  0  0  0  0  0
   -3.4399   -2.7572   16.9925 C   0  0  1  0  0  0  0  0  0  0  0  0
   -3.3712   -1.4578   17.6342 O   0  0  0  0  0  0  0  0  0  0  0  0
   -4.0563    2.1945   15.0848 C   0  0  2  0  0  0  0  0  0  0  0  0
   -2.8602    1.5469   14.6901 O   0  0  0  0  0  0  0  0  0  0  0  0
   -4.8171    4.8999   19.0561 C   0  0  2  0  0  0  0  0  0  0  0  0
   -2.0738   -3.4978   17.1465 C   0  0  2  0  0  0  0  0  0  0  0  0
   -1.0152   -2.7249   16.6159 O   0  0  0  0  0  0  0  0  0  0  0  0
   -3.9192    3.7495   14.8682 C   0  0  2  0  0  0  0  0  0  0  0  0
   -5.1667    4.4242   15.2842 O   0  0  0  0  0  0  0  0  0  0  0  0
   -3.4843    5.2107   19.7933 C   0  0  2  0  0  0  0  0  0  0  0  0
   -2.6680    4.0056   19.7423 O   0  0  0  0  0  0  0  0  0  0  0  0
   -2.1447   -4.9125   16.4446 C   0  0  2  0  0  0  0  0  0  0  0  0
   -3.2620   -5.7078   17.0032 O   0  0  0  0  0  0  0  0  0  0  0  0
   -3.6053    4.0895   13.4120 C   0  0  0  0  0  0  0  0  0  0  0  0
   -3.6136    5.4806   13.2032 O   0  0  0  0  0  0  0  0  0  0  0  0
   -3.7796    5.5918   21.2628 C   0  0  1  0  0  0  0  0  0  0  0  0
   -2.5552    5.8741   21.9073 O   0  0  0  0  0  0  0  0  0  0  0  0
   -0.8478   -5.6909   16.6064 C   0  0  0  0  0  0  0  0  0  0  0  0
    0.2572   -4.8702   16.3145 O   0  0  0  0  0  0  0  0  0  0  0  0
   -3.3414   -0.4013   16.6302 C   0  0  0  0  0  0  0  0  0  0  0  0
  1  2  1  1  0  0  0
  1  7  1  0  0  0  0
  1 24  1  0  0  0  0
  3  4  1  1  0  0  0
  3  9  1  0  0  0  0
  3 31  1  0  0  0  0
  5  6  1  6  0  0  0
  5 10  1  0  0  0  0
  5 28  1  0  0  0  0
  7  8  1  1  0  0  0
  7 12  1  0  0  0  0
  9 14  1  0  0  0  0
 10 11  1  6  0  0  0
 10 16  1  0  0  0  0
 12 13  1  6  0  0  0
 12 18  1  0  0  0  0
 13 35  1  0  0  0  0
 14 15  1  6  0  0  0
 14 20  1  0  0  0  0
 16 17  1  1  0  0  0
 16 21  1  0  0  0  0
 17 35  1  0  0  0  0
 18 19  1  1  0  0  0
 18 23  1  0  0  0  0
 20  2  1  6  0  0  0
 20 25  1  0  0  0  0
 21 22  1  6  0  0  0
 21 27  1  0  0  0  0
 23 24  1  0  0  0  0
 23 29  1  6  0  0  0
 25 26  1  1  0  0  0
 25 31  1  0  0  0  0
 27 28  1  0  0  0  0
 27 33  1  1  0  0  0
 29 30  1  0  0  0  0
 31 32  1  1  0  0  0
 33 34  1  0  0  0  0
M  END
>  <CHROM.1>
-83.25626392,-178.20146520,146.87362394,-130.60246495,118.82005180,-61.81893435
174.26954248,-46.82663520,-3.94271774,1.30194423,17.46635836,2.69607830,-1.36077429
1.37820831

>  <Name>
2o3v_lig

>  <RI>
0

>  <Rbt.Current_Directory>
/home/afrankz/demos/rdock_decoys_rna/rnas/2o3v

>  <Rbt.Executable>
rbdock ($Id: //depot/dev/client3/rdock/2013.1/src/exe/rbdock.cxx#4 $)

>  <Rbt.Library>
libRbt.so (2013.1, Build901 2013/11/27)

>  <Rbt.Parameter_File>
/export/apps/rDock/src/rDock_2013.1_src/data/scripts/dock_solv.prm

>  <Rbt.Receptor>
prm/blind_docking_40.prm

>  <SCORE>
0.988909

>  <SCORE.INTER>
-5.38788

>  <SCORE.INTER.CONST>
1

>  <SCORE.INTER.POLAR>
-0.97223

>  <SCORE.INTER.ROT>
8

>  <SCORE.INTER.SOLV>
29.805

>  <SCORE.INTER.VDW>
-19.2195

>  <SCORE.INTER.norm>
-0.15394

>  <SCORE.INTRA>
5.3663

>  <SCORE.INTRA.DIHEDRAL>
8.06087

>  <SCORE.INTRA.DIHEDRAL.0>
13.1227

>  <SCORE.INTRA.POLAR>
0

>  <SCORE.INTRA.POLAR.0>
0

>  <SCORE.INTRA.REPUL>
0

>  <SCORE.INTRA.REPUL.0>
0

>  <SCORE.INTRA.SOLV>
2.91915

>  <SCORE.INTRA.SOLV.lig_0>
-89.1587

>  <SCORE.INTRA.VDW>
-0.123713

>  <SCORE.INTRA.VDW.0>
-0.838383

>  <SCORE.INTRA.norm>
0.153323

>  <SCORE.RESTR>
1.0105

>  <SCORE.RESTR.CAVITY>
1.0105

>  <SCORE.RESTR.norm>
0.0288713

>  <SCORE.SYSTEM>
0

>  <SCORE.SYSTEM.CONST>
0

>  <SCORE.SYSTEM.DIHEDRAL>
0

>  <SCORE.SYSTEM.SOLV>
0

>  <SCORE.SYSTEM.norm>
0

>  <SCORE.heavy>
35

>  <SCORE.norm>
0.0282546

>  <RMSD>
30.991

$$$$
2o3v_lig
 OpenBabel02141814113D
libRbt.so/2013.1/901 2013/11/27
 35 37  0  0  0  0  0  0  0  0999 V2000
   -5.6817    3.9738   16.9386 C   0  0  2  0  0  0  0  0  0  0  0  0
   -4.6689    4.0800   17.9854 O   0  0  0  0  0  0  0  0  0  0  0  0
   -4.5447    6.4582   21.6262 C   0  0  2  0  0  0  0  0  0  0  0  0
   -4.3560    7.6171   22.5501 N   0  0  0  0  0  0  0  0  0  0  0  0
   -2.2381   -4.3154   15.9311 C   0  0  2  0  0  0  0  0  0  0  0  0
   -1.2488   -4.0929   16.9595 O   0  0  0  0  0  0  0  0  0  0  0  0
   -5.7827    2.4342   16.6981 C   0  0  2  0  0  0  0  0  0  0  0  0
   -6.1623    1.7215   17.9409 N   0  0  0  0  0  0  0  0  0  0  0  0
   -3.1674    6.0885   20.9249 C   0  0  0  0  0  0  0  0  0  0  0  0
   -3.1304   -3.0287   15.8499 C   0  0  2  0  0  0  0  0  0  0  0  0
   -2.3065   -1.8260   15.5679 N   0  0  0  0  0  0  0  0  0  0  0  0
   -4.4192    1.8406   16.1342 C   0  0  1  0  0  0  0  0  0  0  0  0
   -4.5218    0.3691   15.9545 O   0  0  0  0  0  0  0  0  0  0  0  0
   -3.3981    4.8618   19.9399 C   0  0  2  0  0  0  0  0  0  0  0  0
   -2.1295    4.5086   19.2674 N   0  0  0  0  0  0  0  0  0  0  0  0
   -3.9781   -2.8191   17.1812 C   0  0  1  0  0  0  0  0  0  0  0  0
   -4.8389   -1.6529   17.1206 O   0  0  0  0  0  0  0  0  0  0  0  0
   -4.0679    2.6374   14.8017 C   0  0  2  0  0  0  0  0  0  0  0  0
   -2.8480    2.1914   14.2372 O   0  0  0  0  0  0  0  0  0  0  0  0
   -4.4960    5.2350   18.8607 C   0  0  2  0  0  0  0  0  0  0  0  0
   -4.8366   -4.0999   17.4286 C   0  0  2  0  0  0  0  0  0  0  0  0
   -5.6057   -3.9748   18.6086 O   0  0  0  0  0  0  0  0  0  0  0  0
   -3.9911    4.1855   15.0865 C   0  0  2  0  0  0  0  0  0  0  0  0
   -5.2634    4.6487   15.6792 O   0  0  0  0  0  0  0  0  0  0  0  0
   -5.8376    5.6011   19.5553 C   0  0  2  0  0  0  0  0  0  0  0  0
   -6.7821    5.9697   18.5097 O   0  0  0  0  0  0  0  0  0  0  0  0
   -3.9004   -5.3718   17.4991 C   0  0  2  0  0  0  0  0  0  0  0  0
   -3.0950   -5.4861   16.2617 O   0  0  0  0  0  0  0  0  0  0  0  0
   -3.6915    4.9777   13.8147 C   0  0  0  0  0  0  0  0  0  0  0  0
   -2.9041    6.1090   14.0958 O   0  0  0  0  0  0  0  0  0  0  0  0
   -5.6170    6.7919   20.5173 C   0  0  1  0  0  0  0  0  0  0  0  0
   -6.8473    7.1002   21.1382 O   0  0  0  0  0  0  0  0  0  0  0  0
   -4.6980   -6.6521   17.6958 C   0  0  0  0  0  0  0  0  0  0  0  0
   -3.8339   -7.7575   17.8023 O   0  0  0  0  0  0  0  0  0  0  0  0
   -4.0384   -0.4346   17.1388 C   0  0  0  0  0  0  0  0  0  0  0  0
  1  2  1  1  0  0  0
  1  7  1  0  0  0  0
  1 24  1  0  0  0  0
  3  4  1  1  0  0  0
  3  9  1  0  0  0  0
  3 31  1  0  0  0  0
  5  6  1  1  0  0  0
  5 10  1  0  0  0  0
  5 28  1  0  0  0  0
  7  8  1  1  0  0  0
  7 12  1  0  0  0  0
  9 14  1  0  0  0  0
 10 11  1  1  0  0  0
 10 16  1  0  0  0  0
 12 13  1  6  0  0  0
 12 18  1  0  0  0  0
 13 35  1  0  0  0  0
 14 15  1  6  0  0  0
 14 20  1  0  0  0  0
 16 17  1  6  0  0  0
 16 21  1  0  0  0  0
 17 35  1  0  0  0  0
 18 19  1  1  0  0  0
 18 23  1  0  0  0  0
 20  2  1  6  0  0  0
 20 25  1  0  0  0  0
 21 22  1  1  0  0  0
 21 27  1  0  0  0  0
 23 24  1  0  0  0  0
 23 29  1  6  0  0  0
 25 26  1  6  0  0  0
 25 31  1  0  0  0  0
 27 28  1  0  0  0  0
 27 33  1  6  0  0  0
 29 30  1  0  0  0  0
 31 32  1  1  0  0  0
 33 34  1  0  0  0  0
M  END
>  <CHROM.1>
-159.75085346,-93.36476445,149.71613618,-69.32813670,128.21931051,173.91046025
-146.20077871,-177.89043680,-4.25643831,1.32499421,17.49687325,-2.00775159
-1.31341267,2.90937176

>  <Name>
2o3v_lig

>  <RI>
0

>  <Rbt.Current_Directory>
/home/afrankz/demos/rdock_decoys_rna/rnas/2o3v

>  <Rbt.Executable>
rbdock ($Id: //depot/dev/client3/rdock/2013.1/src/exe/rbdock.cxx#4 $)

>  <Rbt.Library>
libRbt.so (2013.1, Build901 2013/11/27)

>  <Rbt.Parameter_File>
/export/apps/rDock/src/rDock_2013.1_src/data/scripts/dock_solv.prm

>  <Rbt.Receptor>
prm/blind_docking_40.prm

>  <SCORE>
1.08263

>  <SCORE.INTER>
-3.32651

>  <SCORE.INTER.CONST>
1

>  <SCORE.INTER.POLAR>
-0.613365

>  <SCORE.INTER.ROT>
8

>  <SCORE.INTER.SOLV>
28.9219

>  <SCORE.INTER.VDW>
-18.7471

>  <SCORE.INTER.norm>
-0.0950431

>  <SCORE.INTRA>
3.57519

>  <SCORE.INTRA.DIHEDRAL>
7.29258

>  <SCORE.INTRA.DIHEDRAL.0>
13.1227

>  <SCORE.INTRA.POLAR>
0

>  <SCORE.INTRA.POLAR.0>
0

>  <SCORE.INTRA.REPUL>
0

>  <SCORE.INTRA.REPUL.0>
0

>  <SCORE.INTRA.SOLV>
0.934465

>  <SCORE.INTRA.SOLV.lig_0>
-89.1587

>  <SCORE.INTRA.VDW>
-0.538329

>  <SCORE.INTRA.VDW.0>
-0.838383

>  <SCORE.INTRA.norm>
0.102148

>  <SCORE.RESTR>
0.833942

>  <SCORE.RESTR.CAVITY>
0.833942

>  <SCORE.RESTR.norm>
0.0238269

>  <SCORE.SYSTEM>
0

>  <SCORE.SYSTEM.CONST>
0

>  <SCORE.SYSTEM.DIHEDRAL>
0

>  <SCORE.SYSTEM.SOLV>
0

>  <SCORE.SYSTEM.norm>
0

>  <SCORE.heavy>
35

>  <SCORE.norm>
0.0309322

>  <RMSD>
30.992

$$$$
2o3v_lig
 OpenBabel02141814113D
libRbt.so/2013.1/901 2013/11/27
 35 37  0  0  0  0  0  0  0  0999 V2000
   -2.1834   -2.7755   16.0989 C   0  0  2  0  0  0  0  0  0  0  0  0
   -3.2827   -3.6788   15.7698 O   0  0  0  0  0  0  0  0  0  0  0  0
   -4.6792   -7.6490   16.8721 C   0  0  2  0  0  0  0  0  0  0  0  0
   -5.1130   -8.8135   17.7015 N   0  0  0  0  0  0  0  0  0  0  0  0
   -2.5382    5.3099   17.8812 C   0  0  2  0  0  0  0  0  0  0  0  0
   -2.5892    6.0879   16.6656 O   0  0  0  0  0  0  0  0  0  0  0  0
   -2.8335   -1.7807   17.1119 C   0  0  2  0  0  0  0  0  0  0  0  0
   -3.3666   -2.4941   18.2964 N   0  0  0  0  0  0  0  0  0  0  0  0
   -3.1788   -7.2585   17.2206 C   0  0  0  0  0  0  0  0  0  0  0  0
   -2.7580    3.8079   17.4886 C   0  0  2  0  0  0  0  0  0  0  0  0
   -1.7385    3.3593   16.5067 N   0  0  0  0  0  0  0  0  0  0  0  0
   -3.9918   -0.9288   16.4320 C   0  0  1  0  0  0  0  0  0  0  0  0
   -4.6264   -0.0211   17.4228 O   0  0  0  0  0  0  0  0  0  0  0  0
   -2.7464   -6.0113   16.3341 C   0  0  2  0  0  0  0  0  0  0  0  0
   -1.3552   -5.6239   16.6516 N   0  0  0  0  0  0  0  0  0  0  0  0
   -4.2233    3.5606   16.9170 C   0  0  1  0  0  0  0  0  0  0  0  0
   -4.4657    2.1714   16.5765 O   0  0  0  0  0  0  0  0  0  0  0  0
   -3.3600   -0.1833   15.1756 C   0  0  2  0  0  0  0  0  0  0  0  0
   -4.3298    0.5863   14.4877 O   0  0  0  0  0  0  0  0  0  0  0  0
   -3.7217   -4.7927   16.6045 C   0  0  2  0  0  0  0  0  0  0  0  0
   -5.2585    4.0331   17.9865 C   0  0  2  0  0  0  0  0  0  0  0  0
   -6.5829    3.8466   17.5275 O   0  0  0  0  0  0  0  0  0  0  0  0
   -2.7030   -1.2216   14.1887 C   0  0  2  0  0  0  0  0  0  0  0  0
   -1.6940   -2.0266   14.9088 O   0  0  0  0  0  0  0  0  0  0  0  0
   -5.1875   -5.1851   16.2670 C   0  0  2  0  0  0  0  0  0  0  0  0
   -6.0274   -4.0362   16.5763 O   0  0  0  0  0  0  0  0  0  0  0  0
   -4.9990    5.5480   18.3564 C   0  0  2  0  0  0  0  0  0  0  0  0
   -3.6069    5.7307   18.8272 O   0  0  0  0  0  0  0  0  0  0  0  0
   -2.0557   -0.5280   12.9909 C   0  0  0  0  0  0  0  0  0  0  0  0
   -2.9606    0.3459   12.3614 O   0  0  0  0  0  0  0  0  0  0  0  0
   -5.6110   -6.4004   17.1248 C   0  0  1  0  0  0  0  0  0  0  0  0
   -6.9417   -6.7394   16.7955 O   0  0  0  0  0  0  0  0  0  0  0  0
   -5.9578    6.0414   19.4294 C   0  0  0  0  0  0  0  0  0  0  0  0
   -5.6718    5.4282   20.6631 O   0  0  0  0  0  0  0  0  0  0  0  0
   -3.9105    1.2971   17.6025 C   0  0  0  0  0  0  0  0  0  0  0  0
  1  2  1  6  0  0  0
  1  7  1  0  0  0  0
  1 24  1  0  0  0  0
  3  4  1  1  0  0  0
  3  9  1  0  0  0  0
  3 31  1  0  0  0  0
  5  6  1  6  0  0  0
  5 10  1  0  0  0  0
  5 28  1  0  0  0  0
  7  8  1  1  0  0  0
  7 12  1  0  0  0  0
  9 14  1  0  0  0  0
 10 11  1  6  0  0  0
 10 16  1  0  0  0  0
 12 13  1  1  0  0  0
 12 18  1  0  0  0  0
 13 35  1  0  0  0  0
 14 15  1  1  0  0  0
 14 20  1  0  0  0  0
 16 17  1  1  0  0  0
 16 21  1  0  0  0  0
 17 35  1  0  0  0  0
 18 19  1  6  0  0  0
 18 23  1  0  0  0  0
 20  2  1  6  0  0  0
 20 25  1  0  0  0  0
 21 22  1  6  0  0  0
 21 27  1  0  0  0  0
 23 24  1  0  0  0  0
 23 29  1  6  0  0  0
 25 26  1  1  0  0  0
 25 31  1  0  0  0  0
 27 28  1  0  0  0  0
 27 33  1  1  0  0  0
 29 30  1  0  0  0  0
 31 32  1  6  0  0  0
 33 34  1  0  0  0  0
M  END
>  <CHROM.1>
-79.98331893,85.06471362,86.97722711,41.95164033,160.25766959,-80.99985106
-52.32424396,69.18661522,-3.92019391,-0.52909657,16.72913749,-1.56396835
0.86092426,0.11757568

>  <Name>
2o3v_lig

>  <RI>
0

>  <Rbt.Current_Directory>
/home/afrankz/demos/rdock_decoys_rna/rnas/2o3v

>  <Rbt.Executable>
rbdock ($Id: //depot/dev/client3/rdock/2013.1/src/exe/rbdock.cxx#4 $)

>  <Rbt.Library>
libRbt.so (2013.1, Build901 2013/11/27)

>  <Rbt.Parameter_File>
/export/apps/rDock/src/rDock_2013.1_src/data/scripts/dock_solv.prm

>  <Rbt.Receptor>
prm/blind_docking_60.prm

>  <SCORE>
-3.73181

>  <SCORE.INTER>
-12.3467

>  <SCORE.INTER.CONST>
1

>  <SCORE.INTER.POLAR>
-3.08813

>  <SCORE.INTER.ROT>
8

>  <SCORE.INTER.SOLV>
25.2644

>  <SCORE.INTER.VDW>
-15.2922

>  <SCORE.INTER.norm>
-0.352762

>  <SCORE.INTRA>
3.79234

>  <SCORE.INTRA.DIHEDRAL>
0.15826

>  <SCORE.INTRA.DIHEDRAL.0>
13.1227

>  <SCORE.INTRA.POLAR>
0

>  <SCORE.INTRA.POLAR.0>
0

>  <SCORE.INTRA.REPUL>
0

>  <SCORE.INTRA.REPUL.0>
0

>  <SCORE.INTRA.SOLV>
3.81461

>  <SCORE.INTRA.SOLV.lig_0>
-89.1587

>  <SCORE.INTRA.VDW>
1.8059

>  <SCORE.INTRA.VDW.0>
-0.838383

>  <SCORE.INTRA.norm>
0.108353

>  <SCORE.RESTR>
4.82253

>  <SCORE.RESTR.CAVITY>
4.82253

>  <SCORE.RESTR.norm>
0.137786

>  <SCORE.SYSTEM>
0

>  <SCORE.SYSTEM.CONST>
0

>  <SCORE.SYSTEM.DIHEDRAL>
0

>  <SCORE.SYSTEM.SOLV>
0

>  <SCORE.SYSTEM.norm>
0

>  <SCORE.heavy>
35

>  <SCORE.norm>
-0.106623

>  <RMSD>
31.049

$$$$
2o3v_lig
 OpenBabel02141814113D
libRbt.so/2013.1/901 2013/11/27
 35 37  0  0  0  0  0  0  0  0999 V2000
   -2.9488   -5.6071   16.6424 C   0  0  2  0  0  0  0  0  0  0  0  0
   -3.9224   -5.0804   17.5950 O   0  0  0  0  0  0  0  0  0  0  0  0
   -6.9103   -6.7226   20.2973 C   0  0  2  0  0  0  0  0  0  0  0  0
   -7.5317   -7.5052   21.4081 N   0  0  0  0  0  0  0  0  0  0  0  0
   -3.7014    3.5717   13.9183 C   0  0  2  0  0  0  0  0  0  0  0  0
   -4.9313    3.1436   13.2942 O   0  0  0  0  0  0  0  0  0  0  0  0
   -2.1258   -4.3422   16.2410 C   0  0  2  0  0  0  0  0  0  0  0  0
   -1.4919   -3.7172   17.4258 N   0  0  0  0  0  0  0  0  0  0  0  0
   -6.2207   -7.7051   19.2559 C   0  0  0  0  0  0  0  0  0  0  0  0
   -2.8541    2.2872   14.2193 C   0  0  2  0  0  0  0  0  0  0  0  0
   -2.5991    1.5142   12.9773 N   0  0  0  0  0  0  0  0  0  0  0  0
   -3.0300   -3.2717   15.4887 C   0  0  1  0  0  0  0  0  0  0  0  0
   -2.2394   -2.0584   15.1552 O   0  0  0  0  0  0  0  0  0  0  0  0
   -5.5581   -6.8478   18.0921 C   0  0  2  0  0  0  0  0  0  0  0  0
   -4.9001   -7.7434   17.1168 N   0  0  0  0  0  0  0  0  0  0  0  0
   -3.5563    1.3650   15.3108 C   0  0  1  0  0  0  0  0  0  0  0  0
   -2.7770    0.1846   15.6333 O   0  0  0  0  0  0  0  0  0  0  0  0
   -3.6760   -3.9963   14.2272 C   0  0  2  0  0  0  0  0  0  0  0  0
   -4.5233   -3.1214   13.5044 O   0  0  0  0  0  0  0  0  0  0  0  0
   -4.4985   -5.8396   18.7004 C   0  0  2  0  0  0  0  0  0  0  0  0
   -3.7909    2.2144   16.6000 C   0  0  2  0  0  0  0  0  0  0  0  0
   -4.4242    1.4470   17.6047 O   0  0  0  0  0  0  0  0  0  0  0  0
   -4.4831   -5.2734   14.6757 C   0  0  2  0  0  0  0  0  0  0  0  0
   -3.5986   -6.1835   15.4332 O   0  0  0  0  0  0  0  0  0  0  0  0
   -5.1800   -4.8868   19.7222 C   0  0  2  0  0  0  0  0  0  0  0  0
   -4.1438   -4.0204   20.2668 O   0  0  0  0  0  0  0  0  0  0  0  0
   -4.6434    3.4995   16.2519 C   0  0  2  0  0  0  0  0  0  0  0  0
   -3.9736    4.2891   15.1932 O   0  0  0  0  0  0  0  0  0  0  0  0
   -5.0832   -6.0093   13.4785 C   0  0  0  0  0  0  0  0  0  0  0  0
   -6.0870   -6.9065   13.8862 O   0  0  0  0  0  0  0  0  0  0  0  0
   -5.8290   -5.7169   20.8544 C   0  0  1  0  0  0  0  0  0  0  0  0
   -6.4446   -4.8297   21.7643 O   0  0  0  0  0  0  0  0  0  0  0  0
   -4.8610    4.3824   17.4713 C   0  0  0  0  0  0  0  0  0  0  0  0
   -5.7518    3.7674   18.3703 O   0  0  0  0  0  0  0  0  0  0  0  0
   -3.0708   -0.8864   14.6890 C   0  0  0  0  0  0  0  0  0  0  0  0
  1  2  1  1  0  0  0
  1  7  1  0  0  0  0
  1 24  1  0  0  0  0
  3  4  1  1  0  0  0
  3  9  1  0  0  0  0
  3 31  1  0  0  0  0
  5  6  1  1  0  0  0
  5 10  1  0  0  0  0
  5 28  1  0  0  0  0
  7  8  1  1  0  0  0
  7 12  1  0  0  0  0
  9 14  1  0  0  0  0
 10 11  1  6  0  0  0
 10 16  1  0  0  0  0
 12 13  1  6  0  0  0
 12 18  1  0  0  0  0
 13 35  1  0  0  0  0
 14 15  1  6  0  0  0
 14 20  1  0  0  0  0
 16 17  1  1  0  0  0
 16 21  1  0  0  0  0
 17 35  1  0  0  0  0
 18 19  1  1  0  0  0
 18 23  1  0  0  0  0
 20  2  1  6  0  0  0
 20 25  1  0  0  0  0
 21 22  1  1  0  0  0
 21 27  1  0  0  0  0
 23 24  1  0  0  0  0
 23 29  1  6  0  0  0
 25 26  1  1  0  0  0
 25 31  1  0  0  0  0
 27 28  1  0  0  0  0
 27 33  1  1  0  0  0
 29 30  1  0  0  0  0
 31 32  1  1  0  0  0
 33 34  1  0  0  0  0
M  END
>  <CHROM.1>
-150.22913673,-168.52015096,121.13161044,-85.80670089,-178.25330301,-74.63676712
-163.62995355,-70.90394341,-4.33247566,-2.42839900,16.63902880,-2.00958224
1.22707082,0.08583776

>  <Name>
2o3v_lig

>  <RI>
0

>  <Rbt.Current_Directory>
/home/afrankz/demos/rdock_decoys_rna/rnas/2o3v

>  <Rbt.Executable>
rbdock ($Id: //depot/dev/client3/rdock/2013.1/src/exe/rbdock.cxx#4 $)

>  <Rbt.Library>
libRbt.so (2013.1, Build901 2013/11/27)

>  <Rbt.Parameter_File>
/export/apps/rDock/src/rDock_2013.1_src/data/scripts/dock_solv.prm

>  <Rbt.Receptor>
prm/blind_docking_40.prm

>  <SCORE>
0.267703

>  <SCORE.INTER>
-5.32505

>  <SCORE.INTER.CONST>
1

>  <SCORE.INTER.POLAR>
-0.536765

>  <SCORE.INTER.ROT>
8

>  <SCORE.INTER.SOLV>
21.1588

>  <SCORE.INTER.VDW>
-17.7471

>  <SCORE.INTER.norm>
-0.152144

>  <SCORE.INTRA>
1.34948

>  <SCORE.INTRA.DIHEDRAL>
3.45405

>  <SCORE.INTRA.DIHEDRAL.0>
13.1227

>  <SCORE.INTRA.POLAR>
0

>  <SCORE.INTRA.POLAR.0>
0

>  <SCORE.INTRA.REPUL>
0

>  <SCORE.INTRA.REPUL.0>
0

>  <SCORE.INTRA.SOLV>
2.65123

>  <SCORE.INTRA.SOLV.lig_0>
-89.1587

>  <SCORE.INTRA.VDW>
-1.70317

>  <SCORE.INTRA.VDW.0>
-0.838383

>  <SCORE.INTRA.norm>
0.0385565

>  <SCORE.RESTR>
4.24327

>  <SCORE.RESTR.CAVITY>
4.24327

>  <SCORE.RESTR.norm>
0.121236

>  <SCORE.SYSTEM>
0

>  <SCORE.SYSTEM.CONST>
0

>  <SCORE.SYSTEM.DIHEDRAL>
0

>  <SCORE.SYSTEM.SOLV>
0

>  <SCORE.SYSTEM.norm>
0

>  <SCORE.heavy>
35

>  <SCORE.norm>
0.00764866

>  <RMSD>
31.051

$$$$
2o3v_lig
 OpenBabel02141814113D
libRbt.so/2013.1/901 2013/11/27
 35 37  0  0  0  0  0  0  0  0999 V2000
   -4.5114    6.2148   19.3175 C   0  0  2  0  0  0  0  0  0  0  0  0
   -4.2117    5.7500   20.6691 O   0  0  0  0  0  0  0  0  0  0  0  0
   -4.5446    6.8295   24.8704 C   0  0  2  0  0  0  0  0  0  0  0  0
   -5.0486    7.4473   26.1340 N   0  0  0  0  0  0  0  0  0  0  0  0
   -2.7022   -1.1133   14.0191 C   0  0  2  0  0  0  0  0  0  0  0  0
   -4.0962   -1.4210   14.2371 O   0  0  0  0  0  0  0  0  0  0  0  0
   -4.9596    4.9104   18.5854 C   0  0  2  0  0  0  0  0  0  0  0  0
   -6.1296    4.2950   19.2552 N   0  0  0  0  0  0  0  0  0  0  0  0
   -4.1297    7.9623   23.8359 C   0  0  0  0  0  0  0  0  0  0  0  0
   -2.2045   -0.2838   15.2530 C   0  0  2  0  0  0  0  0  0  0  0  0
   -2.4096   -1.0348   16.5174 N   0  0  0  0  0  0  0  0  0  0  0  0
   -3.7743    3.8536   18.4974 C   0  0  1  0  0  0  0  0  0  0  0  0
   -4.2334    2.6037   17.8376 O   0  0  0  0  0  0  0  0  0  0  0  0
   -3.6088    7.2792   22.4978 C   0  0  2  0  0  0  0  0  0  0  0  0
   -3.2278    8.3172   21.5161 N   0  0  0  0  0  0  0  0  0  0  0  0
   -2.9198    1.1365   15.3306 C   0  0  1  0  0  0  0  0  0  0  0  0
   -2.4533    1.9395   16.4451 O   0  0  0  0  0  0  0  0  0  0  0  0
   -2.5537    4.5667   17.7659 C   0  0  2  0  0  0  0  0  0  0  0  0
   -1.4352    3.7041   17.6630 O   0  0  0  0  0  0  0  0  0  0  0  0
   -4.7389    6.3500   21.8906 C   0  0  2  0  0  0  0  0  0  0  0  0
   -2.6656    1.8931   13.9885 C   0  0  2  0  0  0  0  0  0  0  0  0
   -3.2891    3.1623   13.9958 O   0  0  0  0  0  0  0  0  0  0  0  0
   -2.1448    5.8841   18.5281 C   0  0  2  0  0  0  0  0  0  0  0  0
   -3.3140    6.7816   18.6381 O   0  0  0  0  0  0  0  0  0  0  0  0
   -5.1430    5.2492   22.9110 C   0  0  2  0  0  0  0  0  0  0  0  0
   -6.2077    4.4629   22.3033 O   0  0  0  0  0  0  0  0  0  0  0  0
   -3.1768    1.0218   12.7725 C   0  0  2  0  0  0  0  0  0  0  0  0
   -2.5227   -0.3067   12.7816 O   0  0  0  0  0  0  0  0  0  0  0  0
   -0.9981    6.6087   17.8247 C   0  0  0  0  0  0  0  0  0  0  0  0
   -0.7471    7.8583   18.4199 O   0  0  0  0  0  0  0  0  0  0  0  0
   -5.6471    5.9093   24.2157 C   0  0  1  0  0  0  0  0  0  0  0  0
   -6.0018    4.8896   25.1259 O   0  0  0  0  0  0  0  0  0  0  0  0
   -2.9101    1.7005   11.4375 C   0  0  0  0  0  0  0  0  0  0  0  0
   -1.5273    1.8720   11.2413 O   0  0  0  0  0  0  0  0  0  0  0  0
   -3.1535    1.5611   17.6665 C   0  0  0  0  0  0  0  0  0  0  0  0
  1  2  1  1  0  0  0
  1  7  1  0  0  0  0
  1 24  1  0  0  0  0
  3  4  1  1  0  0  0
  3  9  1  0  0  0  0
  3 31  1  0  0  0  0
  5  6  1  1  0  0  0
  5 10  1  0  0  0  0
  5 28  1  0  0  0  0
  7  8  1  1  0  0  0
  7 12  1  0  0  0  0
  9 14  1  0  0  0  0
 10 11  1  1  0  0  0
 10 16  1  0  0  0  0
 12 13  1  6  0  0  0
 12 18  1  0  0  0  0
 13 35  1  0  0  0  0
 14 15  1  6  0  0  0
 14 20  1  0  0  0  0
 16 17  1  1  0  0  0
 16 21  1  0  0  0  0
 17 35  1  0  0  0  0
 18 19  1  1  0  0  0
 18 23  1  0  0  0  0
 20  2  1  6  0  0  0
 20 25  1  0  0  0  0
 21 22  1  1  0  0  0
 21 27  1  0  0  0  0
 23 24  1  0  0  0  0
 23 29  1  6  0  0  0
 25 26  1  6  0  0  0
 25 31  1  0  0  0  0
 27 28  1  0  0  0  0
 27 33  1  6  0  0  0
 29 30  1  0  0  0  0
 31 32  1  1  0  0  0
 33 34  1  0  0  0  0
M  END
>  <CHROM.1>
-128.92339519,177.87033926,-83.42069133,-82.79856444,-99.50229620,-100.38407798
173.00635241,62.04489376,-3.51014695,3.91374197,18.34510726,-1.90514325,-1.01269410
-2.41319407

>  <Name>
2o3v_lig

>  <RI>
0

>  <Rbt.Current_Directory>
/home/afrankz/demos/rdock_decoys_rna/rnas/2o3v

>  <Rbt.Executable>
rbdock ($Id: //depot/dev/client3/rdock/2013.1/src/exe/rbdock.cxx#4 $)

>  <Rbt.Library>
libRbt.so (2013.1, Build901 2013/11/27)

>  <Rbt.Parameter_File>
/export/apps/rDock/src/rDock_2013.1_src/data/scripts/dock_solv.prm

>  <Rbt.Receptor>
prm/blind_docking_40.prm

>  <SCORE>
57.0728

>  <SCORE.INTER>
45.4728

>  <SCORE.INTER.CONST>
1

>  <SCORE.INTER.POLAR>
-2.39831

>  <SCORE.INTER.ROT>
8

>  <SCORE.INTER.SOLV>
35.412

>  <SCORE.INTER.VDW>
17.5722

>  <SCORE.INTER.norm>
1.29922

>  <SCORE.INTRA>
5.94553

>  <SCORE.INTRA.DIHEDRAL>
9.35579

>  <SCORE.INTRA.DIHEDRAL.0>
13.1227

>  <SCORE.INTRA.POLAR>
0

>  <SCORE.INTRA.POLAR.0>
0

>  <SCORE.INTRA.REPUL>
0

>  <SCORE.INTRA.REPUL.0>
0

>  <SCORE.INTRA.SOLV>
3.017

>  <SCORE.INTRA.SOLV.lig_0>
-89.1587

>  <SCORE.INTRA.VDW>
-0.240873

>  <SCORE.INTRA.VDW.0>
-0.838383

>  <SCORE.INTRA.norm>
0.169872

>  <SCORE.RESTR>
5.65448

>  <SCORE.RESTR.CAVITY>
5.65448

>  <SCORE.RESTR.norm>
0.161557

>  <SCORE.SYSTEM>
0

>  <SCORE.SYSTEM.CONST>
0

>  <SCORE.SYSTEM.DIHEDRAL>
0

>  <SCORE.SYSTEM.SOLV>
0

>  <SCORE.SYSTEM.norm>
0

>  <SCORE.heavy>
35

>  <SCORE.norm>
1.63065

>  <RMSD>
31.055

$$$$
2o3v_lig
 OpenBabel02141814113D
libRbt.so/2013.1/901 2013/11/27
 35 37  0  0  0  0  0  0  0  0999 V2000
   -5.2167    2.3882   15.9877 C   0  0  2  0  0  0  0  0  0  0  0  0
   -4.1188    2.7667   16.8732 O   0  0  0  0  0  0  0  0  0  0  0  0
   -3.6812    5.4761   20.2489 C   0  0  2  0  0  0  0  0  0  0  0  0
   -3.5868    6.7373   21.0443 N   0  0  0  0  0  0  0  0  0  0  0  0
   -3.4249   -6.1820   16.2097 C   0  0  2  0  0  0  0  0  0  0  0  0
   -2.2124   -6.1805   16.9941 O   0  0  0  0  0  0  0  0  0  0  0  0
   -5.1296    0.8293   15.9619 C   0  0  2  0  0  0  0  0  0  0  0  0
   -5.2671    0.2623   17.3243 N   0  0  0  0  0  0  0  0  0  0  0  0
   -2.5075    5.4155   19.1792 C   0  0  0  0  0  0  0  0  0  0  0  0
   -3.8016   -4.6874   15.9223 C   0  0  2  0  0  0  0  0  0  0  0  0
   -2.6963   -3.9844   15.2230 N   0  0  0  0  0  0  0  0  0  0  0  0
   -3.7680    0.3313   15.3082 C   0  0  1  0  0  0  0  0  0  0  0  0
   -3.6853   -1.1523   15.3335 O   0  0  0  0  0  0  0  0  0  0  0  0
   -2.6377    4.0714   18.3397 C   0  0  2  0  0  0  0  0  0  0  0  0
   -1.5603    4.0005   17.3295 N   0  0  0  0  0  0  0  0  0  0  0  0
   -4.1912   -3.9145   17.2586 C   0  0  1  0  0  0  0  0  0  0  0  0
   -4.5768   -2.5368   17.0179 O   0  0  0  0  0  0  0  0  0  0  0  0
   -3.6800    0.9644   13.8504 C   0  0  2  0  0  0  0  0  0  0  0  0
   -2.4802    0.5937   13.1956 O   0  0  0  0  0  0  0  0  0  0  0  0
   -4.0512    4.0147   17.6271 C   0  0  2  0  0  0  0  0  0  0  0  0
   -5.3632   -4.6804   17.9501 C   0  0  2  0  0  0  0  0  0  0  0  0
   -5.7460   -4.0428   19.1529 O   0  0  0  0  0  0  0  0  0  0  0  0
   -3.7871    2.5352   13.9219 C   0  0  2  0  0  0  0  0  0  0  0  0
   -5.0377    2.9204   14.6089 O   0  0  0  0  0  0  0  0  0  0  0  0
   -5.1931    4.0807   18.6798 C   0  0  2  0  0  0  0  0  0  0  0  0
   -6.4554    4.0645   17.9536 O   0  0  0  0  0  0  0  0  0  0  0  0
   -4.9440   -6.1811   18.2172 C   0  0  2  0  0  0  0  0  0  0  0  0
   -4.5377   -6.8340   16.9517 O   0  0  0  0  0  0  0  0  0  0  0  0
   -3.7427    3.1663   12.5310 C   0  0  0  0  0  0  0  0  0  0  0  0
   -4.9701    3.0066   11.8625 O   0  0  0  0  0  0  0  0  0  0  0  0
   -5.0682    5.3852   19.5012 C   0  0  1  0  0  0  0  0  0  0  0  0
   -6.1117    5.4178   20.4520 O   0  0  0  0  0  0  0  0  0  0  0  0
   -6.0723   -6.9802   18.8516 C   0  0  0  0  0  0  0  0  0  0  0  0
   -7.1528   -7.0985   17.9581 O   0  0  0  0  0  0  0  0  0  0  0  0
   -3.4029   -1.7335   16.6991 C   0  0  0  0  0  0  0  0  0  0  0  0
  1  2  1  1  0  0  0
  1  7  1  0  0  0  0
  1 24  1  0  0  0  0
  3  4  1  6  0  0  0
  3  9  1  0  0  0  0
  3 31  1  0  0  0  0
  5  6  1  1  0  0  0
  5 10  1  0  0  0  0
  5 28  1  0  0  0  0
  7  8  1  1  0  0  0
  7 12  1  0  0  0  0
  9 14  1  0  0  0  0
 10 11  1  1  0  0  0
 10 16  1  0  0  0  0
 12 13  1  6  0  0  0
 12 18  1  0  0  0  0
 13 35  1  0  0  0  0
 14 15  1  6  0  0  0
 14 20  1  0  0  0  0
 16 17  1  6  0  0  0
 16 21  1  0  0  0  0
 17 35  1  0  0  0  0
 18 19  1  1  0  0  0
 18 23  1  0  0  0  0
 20  2  1  1  0  0  0
 20 25  1  0  0  0  0
 21 22  1  1  0  0  0
 21 27  1  0  0  0  0
 23 24  1  0  0  0  0
 23 29  1  6  0  0  0
 25 26  1  6  0  0  0
 25 31  1  0  0  0  0
 27 28  1  0  0  0  0
 27 33  1  6  0  0  0
 29 30  1  0  0  0  0
 31 32  1  1  0  0  0
 33 34  1  0  0  0  0
M  END
>  <CHROM.1>
-155.82743673,-73.95650328,117.20727187,-73.43697025,121.64299686,-174.70773152
76.11109036,65.47227925,-4.30494750,0.01782714,16.87988851,-1.38300049,-1.34413044
-2.90213638

>  <Name>
2o3v_lig

>  <RI>
0

>  <Rbt.Current_Directory>
/home/afrankz/demos/rdock_decoys_rna/rnas/2o3v

>  <Rbt.Executable>
rbdock ($Id: //depot/dev/client3/rdock/2013.1/src/exe/rbdock.cxx#4 $)

>  <Rbt.Library>
libRbt.so (2013.1, Build901 2013/11/27)

>  <Rbt.Parameter_File>
/export/apps/rDock/src/rDock_2013.1_src/data/scripts/dock_solv.prm

>  <Rbt.Receptor>
prm/blind_docking_40.prm

>  <SCORE>
0.537587

>  <SCORE.INTER>
-7.38348

>  <SCORE.INTER.CONST>
1

>  <SCORE.INTER.POLAR>
-2.07967

>  <SCORE.INTER.ROT>
8

>  <SCORE.INTER.SOLV>
25.509

>  <SCORE.INTER.VDW>
-15.4265

>  <SCORE.INTER.norm>
-0.210957

>  <SCORE.INTRA>
4.01678

>  <SCORE.INTRA.DIHEDRAL>
6.69595

>  <SCORE.INTRA.DIHEDRAL.0>
13.1227

>  <SCORE.INTRA.POLAR>
0

>  <SCORE.INTRA.POLAR.0>
0

>  <SCORE.INTRA.REPUL>
0

>  <SCORE.INTRA.REPUL.0>
0

>  <SCORE.INTRA.SOLV>
2.78798

>  <SCORE.INTRA.SOLV.lig_0>
-89.1587

>  <SCORE.INTRA.VDW>
-0.725187

>  <SCORE.INTRA.VDW.0>
-0.838383

>  <SCORE.INTRA.norm>
0.114765

>  <SCORE.RESTR>
3.90429

>  <SCORE.RESTR.CAVITY>
3.90429

>  <SCORE.RESTR.norm>
0.111551

>  <SCORE.SYSTEM>
0

>  <SCORE.SYSTEM.CONST>
0

>  <SCORE.SYSTEM.DIHEDRAL>
0

>  <SCORE.SYSTEM.SOLV>
0

>  <SCORE.SYSTEM.norm>
0

>  <SCORE.heavy>
35

>  <SCORE.norm>
0.0153596

>  <RMSD>
31.057

$$$$
2o3v_lig
 OpenBabel02141814113D
libRbt.so/2013.1/901 2013/11/27
 35 37  0  0  0  0  0  0  0  0999 V2000
   -2.8092   -6.8239   16.5463 C   0  0  2  0  0  0  0  0  0  0  0  0
   -3.6553   -6.4185   17.6655 O   0  0  0  0  0  0  0  0  0  0  0  0
   -6.6961   -8.0487   20.3157 C   0  0  2  0  0  0  0  0  0  0  0  0
   -7.9273   -8.7497   20.7898 N   0  0  0  0  0  0  0  0  0  0  0  0
   -3.4867    2.4732   16.5841 C   0  0  2  0  0  0  0  0  0  0  0  0
   -2.0980    2.7134   16.8992 O   0  0  0  0  0  0  0  0  0  0  0  0
   -1.8912   -5.5798   16.3274 C   0  0  2  0  0  0  0  0  0  0  0  0
   -1.1159   -5.2641   17.5504 N   0  0  0  0  0  0  0  0  0  0  0  0
   -7.0899   -6.8186   19.3898 C   0  0  0  0  0  0  0  0  0  0  0  0
   -3.6983    0.9202   16.5425 C   0  0  2  0  0  0  0  0  0  0  0  0
   -3.3123    0.2952   17.8329 N   0  0  0  0  0  0  0  0  0  0  0  0
   -2.7314   -4.3055   15.8808 C   0  0  1  0  0  0  0  0  0  0  0  0
   -1.8462   -3.1226   15.7210 O   0  0  0  0  0  0  0  0  0  0  0  0
   -5.7634   -6.0981   18.8900 C   0  0  2  0  0  0  0  0  0  0  0  0
   -6.1076   -4.9559   18.0163 N   0  0  0  0  0  0  0  0  0  0  0  0
   -2.8946    0.2518   15.3416 C   0  0  1  0  0  0  0  0  0  0  0  0
   -3.0991   -1.1821   15.2589 O   0  0  0  0  0  0  0  0  0  0  0  0
   -3.5342   -4.7017   14.5646 C   0  0  2  0  0  0  0  0  0  0  0  0
   -4.3360   -3.6290   14.1036 O   0  0  0  0  0  0  0  0  0  0  0  0
   -4.8545   -7.1276   18.1006 C   0  0  2  0  0  0  0  0  0  0  0  0
   -3.3427    0.9293   14.0079 C   0  0  2  0  0  0  0  0  0  0  0  0
   -2.6513    0.3808   12.9031 O   0  0  0  0  0  0  0  0  0  0  0  0
   -4.4344   -5.9686   14.8257 C   0  0  2  0  0  0  0  0  0  0  0  0
   -3.5969   -7.0859   15.3104 O   0  0  0  0  0  0  0  0  0  0  0  0
   -4.4793   -8.3301   19.0113 C   0  0  2  0  0  0  0  0  0  0  0  0
   -3.6817   -9.2492   18.2111 O   0  0  0  0  0  0  0  0  0  0  0  0
   -3.1172    2.4917   14.0939 C   0  0  2  0  0  0  0  0  0  0  0  0
   -3.8393    3.0516   15.2592 O   0  0  0  0  0  0  0  0  0  0  0  0
   -5.1883   -6.3928   13.5662 C   0  0  0  0  0  0  0  0  0  0  0  0
   -6.1425   -5.4273   13.1972 O   0  0  0  0  0  0  0  0  0  0  0  0
   -5.7669   -9.0319   19.5027 C   0  0  1  0  0  0  0  0  0  0  0  0
   -5.3990  -10.1150   20.3308 O   0  0  0  0  0  0  0  0  0  0  0  0
   -3.5810    3.2014   12.8309 C   0  0  0  0  0  0  0  0  0  0  0  0
   -4.9813    3.3394   12.8313 O   0  0  0  0  0  0  0  0  0  0  0  0
   -2.3884   -1.8553   16.3392 C   0  0  0  0  0  0  0  0  0  0  0  0
  1  2  1  1  0  0  0
  1  7  1  0  0  0  0
  1 24  1  0  0  0  0
  3  4  1  6  0  0  0
  3  9  1  0  0  0  0
  3 31  1  0  0  0  0
  5  6  1  6  0  0  0
  5 10  1  0  0  0  0
  5 28  1  0  0  0  0
  7  8  1  1  0  0  0
  7 12  1  0  0  0  0
  9 14  1  0  0  0  0
 10 11  1  1  0  0  0
 10 16  1  0  0  0  0
 12 13  1  6  0  0  0
 12 18  1  0  0  0  0
 13 35  1  0  0  0  0
 14 15  1  6  0  0  0
 14 20  1  0  0  0  0
 16 17  1  6  0  0  0
 16 21  1  0  0  0  0
 17 35  1  0  0  0  0
 18 19  1  1  0  0  0
 18 23  1  0  0  0  0
 20  2  1  1  0  0  0
 20 25  1  0  0  0  0
 21 22  1  6  0  0  0
 21 27  1  0  0  0  0
 23 24  1  0  0  0  0
 23 29  1  6  0  0  0
 25 26  1  6  0  0  0
 25 31  1  0  0  0  0
 27 28  1  0  0  0  0
 27 33  1  6  0  0  0
 29 30  1  0  0  0  0
 31 32  1  1  0  0  0
 33 34  1  0  0  0  0
M  END
>  <CHROM.1>
167.88462466,-134.87477527,-93.29201257,-73.02919707,-141.80610876,-157.13747424
-66.87983157,78.39334856,-4.03352980,-3.57091139,16.36973666,-2.25119812
1.28563957,0.27953865

>  <Name>
2o3v_lig

>  <RI>
0

>  <Rbt.Current_Directory>
/home/afrankz/demos/rdock_decoys_rna/rnas/2o3v

>  <Rbt.Executable>
rbdock ($Id: //depot/dev/client3/rdock/2013.1/src/exe/rbdock.cxx#4 $)

>  <Rbt.Library>
libRbt.so (2013.1, Build901 2013/11/27)

>  <Rbt.Parameter_File>
/export/apps/rDock/src/rDock_2013.1_src/data/scripts/dock_solv.prm

>  <Rbt.Receptor>
prm/blind_docking_60.prm

>  <SCORE>
-8.79475

>  <SCORE.INTER>
-14.9036

>  <SCORE.INTER.CONST>
1

>  <SCORE.INTER.POLAR>
-1.9798

>  <SCORE.INTER.ROT>
8

>  <SCORE.INTER.SOLV>
17.3728

>  <SCORE.INTER.VDW>
-18.0607

>  <SCORE.INTER.norm>
-0.425817

>  <SCORE.INTRA>
2.41688

>  <SCORE.INTRA.DIHEDRAL>
7.48577

>  <SCORE.INTRA.DIHEDRAL.0>
13.1227

>  <SCORE.INTRA.POLAR>
0

>  <SCORE.INTRA.POLAR.0>
0

>  <SCORE.INTRA.REPUL>
0

>  <SCORE.INTRA.REPUL.0>
0

>  <SCORE.INTRA.SOLV>
0.983007

>  <SCORE.INTRA.SOLV.lig_0>
-89.1587

>  <SCORE.INTRA.VDW>
-1.81751

>  <SCORE.INTRA.VDW.0>
-0.838383

>  <SCORE.INTRA.norm>
0.0690538

>  <SCORE.RESTR>
3.69195

>  <SCORE.RESTR.CAVITY>
3.69195

>  <SCORE.RESTR.norm>
0.105484

>  <SCORE.SYSTEM>
0

>  <SCORE.SYSTEM.CONST>
0

>  <SCORE.SYSTEM.DIHEDRAL>
0

>  <SCORE.SYSTEM.SOLV>
0

>  <SCORE.SYSTEM.norm>
0

>  <SCORE.heavy>
35

>  <SCORE.norm>
-0.251279

>  <RMSD>
31.072

$$$$
2o3v_lig
 OpenBabel02141814113D
libRbt.so/2013.1/901 2013/11/27
 35 37  0  0  0  0  0  0  0  0999 V2000
   -3.9611    3.7782   18.0138 C   0  0  2  0  0  0  0  0  0  0  0  0
   -3.3955    4.3637   16.8013 O   0  0  0  0  0  0  0  0  0  0  0  0
   -0.1287    7.1884   16.2751 C   0  0  2  0  0  0  0  0  0  0  0  0
    0.6257    8.4753   16.1924 N   0  0  0  0  0  0  0  0  0  0  0  0
   -2.2566   -5.0340   16.3692 C   0  0  2  0  0  0  0  0  0  0  0  0
   -1.3799   -4.7169   17.4721 O   0  0  0  0  0  0  0  0  0  0  0  0
   -3.2161    2.4106   18.1276 C   0  0  2  0  0  0  0  0  0  0  0  0
   -1.7494    2.6047   18.2123 N   0  0  0  0  0  0  0  0  0  0  0  0
   -1.2762    7.1561   15.1761 C   0  0  0  0  0  0  0  0  0  0  0  0
   -2.7240   -3.6786   15.7345 C   0  0  2  0  0  0  0  0  0  0  0  0
   -1.5607   -2.8671   15.2951 N   0  0  0  0  0  0  0  0  0  0  0  0
   -3.5612    1.4541   16.9047 C   0  0  1  0  0  0  0  0  0  0  0  0
   -2.8088    0.1768   17.0087 O   0  0  0  0  0  0  0  0  0  0  0  0
   -2.0700    5.7833   15.2932 C   0  0  2  0  0  0  0  0  0  0  0  0
   -3.1512    5.7375   14.2856 N   0  0  0  0  0  0  0  0  0  0  0  0
   -3.6329   -2.8437   16.7403 C   0  0  1  0  0  0  0  0  0  0  0  0
   -4.1075   -1.5988   16.1662 O   0  0  0  0  0  0  0  0  0  0  0  0
   -5.1428    1.2783   16.8691 C   0  0  2  0  0  0  0  0  0  0  0  0
   -5.5489    0.4559   15.7899 O   0  0  0  0  0  0  0  0  0  0  0  0
   -2.6802    5.6348   16.7475 C   0  0  2  0  0  0  0  0  0  0  0  0
   -4.8472   -3.7301   17.1627 C   0  0  2  0  0  0  0  0  0  0  0  0
   -5.6872   -3.0413   18.0680 O   0  0  0  0  0  0  0  0  0  0  0  0
   -5.8536    2.6813   16.7694 C   0  0  2  0  0  0  0  0  0  0  0  0
   -5.4258    3.5397   17.8940 O   0  0  0  0  0  0  0  0  0  0  0  0
   -1.5520    5.6737   17.8162 C   0  0  2  0  0  0  0  0  0  0  0  0
   -2.1873    5.5729   19.1228 O   0  0  0  0  0  0  0  0  0  0  0  0
   -4.3327   -5.0858   17.7923 C   0  0  2  0  0  0  0  0  0  0  0  0
   -3.4480   -5.7924   16.8378 O   0  0  0  0  0  0  0  0  0  0  0  0
   -7.3753    2.5429   16.7711 C   0  0  0  0  0  0  0  0  0  0  0  0
   -7.8319    1.9524   15.5787 O   0  0  0  0  0  0  0  0  0  0  0  0
   -0.7748    7.0061   17.7035 C   0  0  1  0  0  0  0  0  0  0  0  0
    0.2457    7.0136   18.6795 O   0  0  0  0  0  0  0  0  0  0  0  0
   -5.4828   -6.0029   18.1799 C   0  0  0  0  0  0  0  0  0  0  0  0
   -6.0771   -6.5575   17.0314 O   0  0  0  0  0  0  0  0  0  0  0  0
   -2.9802   -0.7413   15.8212 C   0  0  0  0  0  0  0  0  0  0  0  0
  1  2  1  6  0  0  0
  1  7  1  0  0  0  0
  1 24  1  0  0  0  0
  3  4  1  1  0  0  0
  3  9  1  0  0  0  0
  3 31  1  0  0  0  0
  5  6  1  1  0  0  0
  5 10  1  0  0  0  0
  5 28  1  0  0  0  0
  7  8  1  6  0  0  0
  7 12  1  0  0  0  0
  9 14  1  0  0  0  0
 10 11  1  1  0  0  0
 10 16  1  0  0  0  0
 12 13  1  1  0  0  0
 12 18  1  0  0  0  0
 13 35  1  0  0  0  0
 14 15  1  6  0  0  0
 14 20  1  0  0  0  0
 16 17  1  6  0  0  0
 16 21  1  0  0  0  0
 17 35  1  0  0  0  0
 18 19  1  6  0  0  0
 18 23  1  0  0  0  0
 20  2  1  6  0  0  0
 20 25  1  0  0  0  0
 21 22  1  1  0  0  0
 21 27  1  0  0  0  0
 23 24  1  0  0  0  0
 23 29  1  1  0  0  0
 25 26  1  1  0  0  0
 25 31  1  0  0  0  0
 27 28  1  0  0  0  0
 27 33  1  6  0  0  0
 29 30  1  0  0  0  0
 31 32  1  1  0  0  0
 33 34  1  0  0  0  0
M  END
>  <CHROM.1>
-120.17824178,-174.69972551,-91.58898324,-61.25723121,-95.30907768,172.16843519
-69.30862923,72.98558330,-3.38926100,1.10504261,16.89053472,1.34275739,-0.04853800
-0.01823698

>  <Name>
2o3v_lig

>  <RI>
0

>  <Rbt.Current_Directory>
/home/afrankz/demos/rdock_decoys_rna/rnas/2o3v

>  <Rbt.Executable>
rbdock ($Id: //depot/dev/client3/rdock/2013.1/src/exe/rbdock.cxx#4 $)

>  <Rbt.Library>
libRbt.so (2013.1, Build901 2013/11/27)

>  <Rbt.Parameter_File>
/export/apps/rDock/src/rDock_2013.1_src/data/scripts/dock_solv.prm

>  <Rbt.Receptor>
prm/blind_docking_20.prm

>  <SCORE>
5.79697

>  <SCORE.INTER>
-2.909

>  <SCORE.INTER.CONST>
1

>  <SCORE.INTER.POLAR>
-1.71984

>  <SCORE.INTER.ROT>
8

>  <SCORE.INTER.SOLV>
29.6462

>  <SCORE.INTER.VDW>
-15.0219

>  <SCORE.INTER.norm>
-0.0831143

>  <SCORE.INTRA>
4.75943

>  <SCORE.INTRA.DIHEDRAL>
3.922

>  <SCORE.INTRA.DIHEDRAL.0>
13.1227

>  <SCORE.INTRA.POLAR>
0

>  <SCORE.INTRA.POLAR.0>
0

>  <SCORE.INTRA.REPUL>
0

>  <SCORE.INTRA.REPUL.0>
0

>  <SCORE.INTRA.SOLV>
2.55333

>  <SCORE.INTRA.SOLV.lig_0>
-89.1587

>  <SCORE.INTRA.VDW>
1.52176

>  <SCORE.INTRA.VDW.0>
-0.838383

>  <SCORE.INTRA.norm>
0.135984

>  <SCORE.RESTR>
3.94654

>  <SCORE.RESTR.CAVITY>
3.94654

>  <SCORE.RESTR.norm>
0.112758

>  <SCORE.SYSTEM>
0

>  <SCORE.SYSTEM.CONST>
0

>  <SCORE.SYSTEM.DIHEDRAL>
0

>  <SCORE.SYSTEM.SOLV>
0

>  <SCORE.SYSTEM.norm>
0

>  <SCORE.heavy>
35

>  <SCORE.norm>
0.165628

>  <RMSD>
31.077

$$$$
2o3v_lig
 OpenBabel02141814113D
libRbt.so/2013.1/901 2013/11/27
 35 37  0  0  0  0  0  0  0  0999 V2000
   -5.4799    2.9589   16.1984 C   0  0  2  0  0  0  0  0  0  0  0  0
   -4.4173    3.1699   17.1777 O   0  0  0  0  0  0  0  0  0  0  0  0
   -3.8484    5.7146   20.6603 C   0  0  2  0  0  0  0  0  0  0  0  0
   -3.6559    6.9339   21.5019 N   0  0  0  0  0  0  0  0  0  0  0  0
   -1.1185   -5.2807   16.3776 C   0  0  2  0  0  0  0  0  0  0  0  0
   -0.5235   -4.8283   17.6132 O   0  0  0  0  0  0  0  0  0  0  0  0
   -5.8688    1.4621   16.4146 C   0  0  2  0  0  0  0  0  0  0  0  0
   -6.3132    1.2197   17.8075 N   0  0  0  0  0  0  0  0  0  0  0  0
   -2.6395    5.5579   19.6408 C   0  0  0  0  0  0  0  0  0  0  0  0
   -2.1791   -4.2096   15.9458 C   0  0  2  0  0  0  0  0  0  0  0  0
   -1.5538   -2.8711   15.7960 N   0  0  0  0  0  0  0  0  0  0  0  0
   -4.6628    0.4882   16.0588 C   0  0  1  0  0  0  0  0  0  0  0  0
   -5.0383   -0.9270   16.3133 O   0  0  0  0  0  0  0  0  0  0  0  0
   -2.8743    4.2613   18.7508 C   0  0  2  0  0  0  0  0  0  0  0  0
   -1.7649    4.1032   17.7860 N   0  0  0  0  0  0  0  0  0  0  0  0
   -3.3938   -4.1413   16.9727 C   0  0  1  0  0  0  0  0  0  0  0  0
   -4.4075   -3.1809   16.5796 O   0  0  0  0  0  0  0  0  0  0  0  0
   -4.2353    0.7891   14.5554 C   0  0  2  0  0  0  0  0  0  0  0  0
   -3.1437   -0.0196   14.1550 O   0  0  0  0  0  0  0  0  0  0  0  0
   -4.2510    4.3802   17.9763 C   0  0  2  0  0  0  0  0  0  0  0  0
   -4.0268   -5.5643   17.0866 C   0  0  2  0  0  0  0  0  0  0  0  0
   -5.1086   -5.5667   17.9972 O   0  0  0  0  0  0  0  0  0  0  0  0
   -3.8664    2.3111   14.3790 C   0  0  2  0  0  0  0  0  0  0  0  0
   -5.0050    3.1538   14.8009 O   0  0  0  0  0  0  0  0  0  0  0  0
   -5.4268    4.5393   18.9804 C   0  0  2  0  0  0  0  0  0  0  0  0
   -6.6484    4.6824   18.2003 O   0  0  0  0  0  0  0  0  0  0  0  0
   -2.9248   -6.6122   17.5188 C   0  0  2  0  0  0  0  0  0  0  0  0
   -1.7947   -6.5933   16.5621 O   0  0  0  0  0  0  0  0  0  0  0  0
   -3.4876    2.6348   12.9345 C   0  0  0  0  0  0  0  0  0  0  0  0
   -3.5830    4.0155   12.6827 O   0  0  0  0  0  0  0  0  0  0  0  0
   -5.2007    5.7976   19.8508 C   0  0  1  0  0  0  0  0  0  0  0  0
   -6.2778    5.9157   20.7563 O   0  0  0  0  0  0  0  0  0  0  0  0
   -3.4863   -8.0236   17.6006 C   0  0  0  0  0  0  0  0  0  0  0  0
   -3.9434   -8.4441   16.3380 O   0  0  0  0  0  0  0  0  0  0  0  0
   -3.8716   -1.8268   16.6469 C   0  0  0  0  0  0  0  0  0  0  0  0
  1  2  1  1  0  0  0
  1  7  1  0  0  0  0
  1 24  1  0  0  0  0
  3  4  1  6  0  0  0
  3  9  1  0  0  0  0
  3 31  1  0  0  0  0
  5  6  1  1  0  0  0
  5 10  1  0  0  0  0
  5 28  1  0  0  0  0
  7  8  1  1  0  0  0
  7 12  1  0  0  0  0
  9 14  1  0  0  0  0
 10 11  1  1  0  0  0
 10 16  1  0  0  0  0
 12 13  1  6  0  0  0
 12 18  1  0  0  0  0
 13 35  1  0  0  0  0
 14 15  1  6  0  0  0
 14 20  1  0  0  0  0
 16 17  1  6  0  0  0
 16 21  1  0  0  0  0
 17 35  1  0  0  0  0
 18 19  1  1  0  0  0
 18 23  1  0  0  0  0
 20  2  1  1  0  0  0
 20 25  1  0  0  0  0
 21 22  1  1  0  0  0
 21 27  1  0  0  0  0
 23 24  1  0  0  0  0
 23 29  1  6  0  0  0
 25 26  1  6  0  0  0
 25 31  1  0  0  0  0
 27 28  1  0  0  0  0
 27 33  1  6  0  0  0
 29 30  1  0  0  0  0
 31 32  1  1  0  0  0
 33 34  1  0  0  0  0
M  END
>  <CHROM.1>
-140.56665988,-152.39250358,-168.49224139,-66.54374819,-176.13948973,-172.40454127
160.86800789,62.35359491,-3.89712916,0.12016240,17.02066312,-2.80178787,-1.41956360
2.06347428

>  <Name>
2o3v_lig

>  <RI>
0

>  <Rbt.Current_Directory>
/home/afrankz/demos/rdock_decoys_rna/rnas/2o3v

>  <Rbt.Executable>
rbdock ($Id: //depot/dev/client3/rdock/2013.1/src/exe/rbdock.cxx#4 $)

>  <Rbt.Library>
libRbt.so (2013.1, Build901 2013/11/27)

>  <Rbt.Parameter_File>
/export/apps/rDock/src/rDock_2013.1_src/data/scripts/dock_solv.prm

>  <Rbt.Receptor>
prm/blind_docking_40.prm

>  <SCORE>
-1.05108

>  <SCORE.INTER>
-4.68467

>  <SCORE.INTER.CONST>
1

>  <SCORE.INTER.POLAR>
-2.43074

>  <SCORE.INTER.ROT>
8

>  <SCORE.INTER.SOLV>
29.7901

>  <SCORE.INTER.VDW>
-13.884

>  <SCORE.INTER.norm>
-0.133848

>  <SCORE.INTRA>
-0.590345

>  <SCORE.INTRA.DIHEDRAL>
-2.22125

>  <SCORE.INTRA.DIHEDRAL.0>
13.1227

>  <SCORE.INTRA.POLAR>
0

>  <SCORE.INTRA.POLAR.0>
0

>  <SCORE.INTRA.REPUL>
0.0500837

>  <SCORE.INTRA.REPUL.0>
0

>  <SCORE.INTRA.SOLV>
1.23652

>  <SCORE.INTRA.SOLV.lig_0>
-89.1587

>  <SCORE.INTRA.VDW>
-0.348395

>  <SCORE.INTRA.VDW.0>
-0.838383

>  <SCORE.INTRA.norm>
-0.016867

>  <SCORE.RESTR>
4.22394

>  <SCORE.RESTR.CAVITY>
4.22394

>  <SCORE.RESTR.norm>
0.120684

>  <SCORE.SYSTEM>
0

>  <SCORE.SYSTEM.CONST>
0

>  <SCORE.SYSTEM.DIHEDRAL>
0

>  <SCORE.SYSTEM.SOLV>
0

>  <SCORE.SYSTEM.norm>
0

>  <SCORE.heavy>
35

>  <SCORE.norm>
-0.0300309

>  <RMSD>
31.077

$$$$
2o3v_lig
 OpenBabel02141814113D
libRbt.so/2013.1/901 2013/11/27
 35 37  0  0  0  0  0  0  0  0999 V2000
   -5.2093    3.9040   17.1389 C   0  0  2  0  0  0  0  0  0  0  0  0
   -4.0190    3.9570   17.9834 O   0  0  0  0  0  0  0  0  0  0  0  0
   -1.4278    6.5441   20.3329 C   0  0  2  0  0  0  0  0  0  0  0  0
   -0.8484    7.7718   20.9568 N   0  0  0  0  0  0  0  0  0  0  0  0
   -1.3831   -4.5132   16.6127 C   0  0  2  0  0  0  0  0  0  0  0  0
   -1.5954   -5.2692   17.8247 O   0  0  0  0  0  0  0  0  0  0  0  0
   -5.4474    2.3713   16.9581 C   0  0  2  0  0  0  0  0  0  0  0  0
   -5.6391    1.7010   18.2659 N   0  0  0  0  0  0  0  0  0  0  0  0
   -1.3563    6.6503   18.7489 C   0  0  0  0  0  0  0  0  0  0  0  0
   -1.7484   -3.0196   16.9191 C   0  0  2  0  0  0  0  0  0  0  0  0
   -0.9354   -2.4925   18.0443 N   0  0  0  0  0  0  0  0  0  0  0  0
   -4.2481    1.6827   16.1726 C   0  0  1  0  0  0  0  0  0  0  0  0
   -4.4728    0.2188   16.0502 O   0  0  0  0  0  0  0  0  0  0  0  0
   -1.9888    5.3385   18.1105 C   0  0  2  0  0  0  0  0  0  0  0  0
   -1.9426    5.4222   16.6349 N   0  0  0  0  0  0  0  0  0  0  0  0
   -3.3005   -2.8485   17.2301 C   0  0  1  0  0  0  0  0  0  0  0  0
   -3.6731   -1.4698   17.4848 O   0  0  0  0  0  0  0  0  0  0  0  0
   -4.0953    2.4377   14.7797 C   0  0  2  0  0  0  0  0  0  0  0  0
   -3.0279    1.9056   14.0159 O   0  0  0  0  0  0  0  0  0  0  0  0
   -3.4874    5.1706   18.5955 C   0  0  2  0  0  0  0  0  0  0  0  0
   -4.1128   -3.4021   16.0167 C   0  0  2  0  0  0  0  0  0  0  0  0
   -5.5039   -3.2855   16.2420 O   0  0  0  0  0  0  0  0  0  0  0  0
   -3.8722    3.9810   15.0082 C   0  0  2  0  0  0  0  0  0  0  0  0
   -4.9849    4.5340   15.8087 O   0  0  0  0  0  0  0  0  0  0  0  0
   -3.5487    5.0738   20.1458 C   0  0  2  0  0  0  0  0  0  0  0  0
   -4.9519    4.9621   20.5192 O   0  0  0  0  0  0  0  0  0  0  0  0
   -3.7114   -4.9059   15.7395 C   0  0  2  0  0  0  0  0  0  0  0  0
   -2.2520   -5.0149   15.5138 O   0  0  0  0  0  0  0  0  0  0  0  0
   -3.7595    4.7356   13.6843 C   0  0  0  0  0  0  0  0  0  0  0  0
   -3.1201    5.9761   13.8608 O   0  0  0  0  0  0  0  0  0  0  0  0
   -2.9311    6.3465   20.7710 C   0  0  1  0  0  0  0  0  0  0  0  0
   -2.9940    6.2309   22.1770 O   0  0  0  0  0  0  0  0  0  0  0  0
   -4.4468   -5.4759   14.5361 C   0  0  0  0  0  0  0  0  0  0  0  0
   -4.1260   -6.8350   14.3631 O   0  0  0  0  0  0  0  0  0  0  0  0
   -3.2603   -0.6228   16.3725 C   0  0  0  0  0  0  0  0  0  0  0  0
  1  2  1  1  0  0  0
  1  7  1  0  0  0  0
  1 24  1  0  0  0  0
  3  4  1  1  0  0  0
  3  9  1  0  0  0  0
  3 31  1  0  0  0  0
  5  6  1  1  0  0  0
  5 10  1  0  0  0  0
  5 28  1  0  0  0  0
  7  8  1  1  0  0  0
  7 12  1  0  0  0  0
  9 14  1  0  0  0  0
 10 11  1  1  0  0  0
 10 16  1  0  0  0  0
 12 13  1  6  0  0  0
 12 18  1  0  0  0  0
 13 35  1  0  0  0  0
 14 15  1  6  0  0  0
 14 20  1  0  0  0  0
 16 17  1  6  0  0  0
 16 21  1  0  0  0  0
 17 35  1  0  0  0  0
 18 19  1  1  0  0  0
 18 23  1  0  0  0  0
 20  2  1  6  0  0  0
 20 25  1  0  0  0  0
 21 22  1  1  0  0  0
 21 27  1  0  0  0  0
 23 24  1  0  0  0  0
 23 29  1  6  0  0  0
 25 26  1  6  0  0  0
 25 31  1  0  0  0  0
 27 28  1  0  0  0  0
 27 33  1  6  0  0  0
 29 30  1  0  0  0  0
 31 32  1  1  0  0  0
 33 34  1  0  0  0  0
M  END
>  <CHROM.1>
-171.16878290,-134.32970521,120.41994830,55.00581576,132.18130993,-122.83167907
-159.69617080,-176.63707792,-3.37231438,1.31552399,17.10980091,1.48511723
-1.23865699,0.18825659

>  <Name>
2o3v_lig

>  <RI>
0

>  <Rbt.Current_Directory>
/home/afrankz/demos/rdock_decoys_rna/rnas/2o3v

>  <Rbt.Executable>
rbdock ($Id: //depot/dev/client3/rdock/2013.1/src/exe/rbdock.cxx#4 $)

>  <Rbt.Library>
libRbt.so (2013.1, Build901 2013/11/27)

>  <Rbt.Parameter_File>
/export/apps/rDock/src/rDock_2013.1_src/data/scripts/dock_solv.prm

>  <Rbt.Receptor>
prm/blind_docking_40.prm

>  <SCORE>
37.7881

>  <SCORE.INTER>
26.9973

>  <SCORE.INTER.CONST>
1

>  <SCORE.INTER.POLAR>
-0.294162

>  <SCORE.INTER.ROT>
8

>  <SCORE.INTER.SOLV>
32.6503

>  <SCORE.INTER.VDW>
-0.838069

>  <SCORE.INTER.norm>
0.77135

>  <SCORE.INTRA>
8.45918

>  <SCORE.INTRA.DIHEDRAL>
15.9041

>  <SCORE.INTRA.DIHEDRAL.0>
13.1227

>  <SCORE.INTRA.POLAR>
0

>  <SCORE.INTRA.POLAR.0>
0

>  <SCORE.INTRA.REPUL>
0

>  <SCORE.INTRA.REPUL.0>
0

>  <SCORE.INTRA.SOLV>
3.14677

>  <SCORE.INTRA.SOLV.lig_0>
-89.1587

>  <SCORE.INTRA.VDW>
-1.06628

>  <SCORE.INTRA.VDW.0>
-0.838383

>  <SCORE.INTRA.norm>
0.241691

>  <SCORE.RESTR>
2.33162

>  <SCORE.RESTR.CAVITY>
2.33162

>  <SCORE.RESTR.norm>
0.0666176

>  <SCORE.SYSTEM>
0

>  <SCORE.SYSTEM.CONST>
0

>  <SCORE.SYSTEM.DIHEDRAL>
0

>  <SCORE.SYSTEM.SOLV>
0

>  <SCORE.SYSTEM.norm>
0

>  <SCORE.heavy>
35

>  <SCORE.norm>
1.07966

>  <RMSD>
31.095

$$$$
2o3v_lig
 OpenBabel02141814113D
libRbt.so/2013.1/901 2013/11/27
 35 37  0  0  0  0  0  0  0  0999 V2000
   -3.3370   -5.2179   17.6947 C   0  0  2  0  0  0  0  0  0  0  0  0
   -4.6767   -4.8158   18.1146 O   0  0  0  0  0  0  0  0  0  0  0  0
   -8.0421   -7.4093   19.0497 C   0  0  2  0  0  0  0  0  0  0  0  0
   -8.9816   -8.2828   19.8156 N   0  0  0  0  0  0  0  0  0  0  0  0
   -3.3043    3.3711   16.9839 C   0  0  2  0  0  0  0  0  0  0  0  0
   -2.0464    4.0734   16.8847 O   0  0  0  0  0  0  0  0  0  0  0  0
   -2.7427   -3.9025   17.0988 C   0  0  2  0  0  0  0  0  0  0  0  0
   -2.7283   -2.8162   18.1068 N   0  0  0  0  0  0  0  0  0  0  0  0
   -6.5849   -8.0433   19.0481 C   0  0  0  0  0  0  0  0  0  0  0  0
   -2.9802    1.8552   17.2185 C   0  0  2  0  0  0  0  0  0  0  0  0
   -2.1507    1.6700   18.4362 N   0  0  0  0  0  0  0  0  0  0  0  0
   -3.5473   -3.4292   15.8111 C   0  0  1  0  0  0  0  0  0  0  0  0
   -2.9944   -2.1536   15.2861 O   0  0  0  0  0  0  0  0  0  0  0  0
   -5.6037   -7.0899   18.2377 C   0  0  2  0  0  0  0  0  0  0  0  0
   -4.2379   -7.6564   18.2338 N   0  0  0  0  0  0  0  0  0  0  0  0
   -2.2599    1.2081   15.9547 C   0  0  1  0  0  0  0  0  0  0  0  0
   -1.9779   -0.2040   16.1315 O   0  0  0  0  0  0  0  0  0  0  0  0
   -3.5227   -4.6296   14.7662 C   0  0  2  0  0  0  0  0  0  0  0  0
   -4.2407   -4.3070   13.5888 O   0  0  0  0  0  0  0  0  0  0  0  0
   -5.5887   -5.6479   18.8930 C   0  0  2  0  0  0  0  0  0  0  0  0
   -3.1730    1.4143   14.7047 C   0  0  2  0  0  0  0  0  0  0  0  0
   -2.5769    0.8666   13.5453 O   0  0  0  0  0  0  0  0  0  0  0  0
   -4.1162   -5.9386   15.4129 C   0  0  2  0  0  0  0  0  0  0  0  0
   -3.3685   -6.2717   16.6435 O   0  0  0  0  0  0  0  0  0  0  0  0
   -7.0185   -5.0379   18.8961 C   0  0  2  0  0  0  0  0  0  0  0  0
   -6.9348   -3.7372   19.5458 O   0  0  0  0  0  0  0  0  0  0  0  0
   -3.4785    2.9528   14.5075 C   0  0  2  0  0  0  0  0  0  0  0  0
   -4.0943    3.5153   15.7312 O   0  0  0  0  0  0  0  0  0  0  0  0
   -4.0699   -7.1173   14.4416 C   0  0  0  0  0  0  0  0  0  0  0  0
   -5.0796   -7.0116   13.4678 O   0  0  0  0  0  0  0  0  0  0  0  0
   -7.9771   -5.9641   19.6805 C   0  0  1  0  0  0  0  0  0  0  0  0
   -9.2677   -5.3911   19.6634 O   0  0  0  0  0  0  0  0  0  0  0  0
   -4.4026    3.1998   13.3247 C   0  0  0  0  0  0  0  0  0  0  0  0
   -4.3916    4.5612   12.9689 O   0  0  0  0  0  0  0  0  0  0  0  0
   -3.2215   -0.9627   16.1875 C   0  0  0  0  0  0  0  0  0  0  0  0
  1  2  1  6  0  0  0
  1  7  1  0  0  0  0
  1 24  1  0  0  0  0
  3  4  1  1  0  0  0
  3  9  1  0  0  0  0
  3 31  1  0  0  0  0
  5  6  1  6  0  0  0
  5 10  1  0  0  0  0
  5 28  1  0  0  0  0
  7  8  1  1  0  0  0
  7 12  1  0  0  0  0
  9 14  1  0  0  0  0
 10 11  1  1  0  0  0
 10 16  1  0  0  0  0
 12 13  1  6  0  0  0
 12 18  1  0  0  0  0
 13 35  1  0  0  0  0
 14 15  1  1  0  0  0
 14 20  1  0  0  0  0
 16 17  1  1  0  0  0
 16 21  1  0  0  0  0
 17 35  1  0  0  0  0
 18 19  1  6  0  0  0
 18 23  1  0  0  0  0
 20  2  1  6  0  0  0
 20 25  1  0  0  0  0
 21 22  1  6  0  0  0
 21 27  1  0  0  0  0
 23 24  1  0  0  0  0
 23 29  1  6  0  0  0
 25 26  1  1  0  0  0
 25 31  1  0  0  0  0
 27 28  1  0  0  0  0
 27 33  1  6  0  0  0
 29 30  1  0  0  0  0
 31 32  1  6  0  0  0
 33 34  1  0  0  0  0
M  END
>  <CHROM.1>
-171.82434041,-68.17990764,139.65978296,66.97415876,134.41104794,-46.97362242
-76.06531239,-165.39296216,-4.41422067,-2.64401436,16.64399489,-2.15447570
0.97113749,0.20020997

>  <Name>
2o3v_lig

>  <RI>
0

>  <Rbt.Current_Directory>
/home/afrankz/demos/rdock_decoys_rna/rnas/2o3v

>  <Rbt.Executable>
rbdock ($Id: //depot/dev/client3/rdock/2013.1/src/exe/rbdock.cxx#4 $)

>  <Rbt.Library>
libRbt.so (2013.1, Build901 2013/11/27)

>  <Rbt.Parameter_File>
/export/apps/rDock/src/rDock_2013.1_src/data/scripts/dock_solv.prm

>  <Rbt.Receptor>
prm/blind_docking_100.prm

>  <SCORE>
-1.77666

>  <SCORE.INTER>
-11.2329

>  <SCORE.INTER.CONST>
1

>  <SCORE.INTER.POLAR>
-2.17444

>  <SCORE.INTER.ROT>
8

>  <SCORE.INTER.SOLV>
22.5225

>  <SCORE.INTER.VDW>
-16.6813

>  <SCORE.INTER.norm>
-0.32094

>  <SCORE.INTRA>
7.40617

>  <SCORE.INTRA.DIHEDRAL>
1.90627

>  <SCORE.INTRA.DIHEDRAL.0>
13.1227

>  <SCORE.INTRA.POLAR>
0

>  <SCORE.INTRA.POLAR.0>
0

>  <SCORE.INTRA.REPUL>
0

>  <SCORE.INTRA.REPUL.0>
0

>  <SCORE.INTRA.SOLV>
3.74406

>  <SCORE.INTRA.SOLV.lig_0>
-89.1587

>  <SCORE.INTRA.VDW>
4.58101

>  <SCORE.INTRA.VDW.0>
-0.838383

>  <SCORE.INTRA.norm>
0.211605

>  <SCORE.RESTR>
2.05007

>  <SCORE.RESTR.CAVITY>
2.05007

>  <SCORE.RESTR.norm>
0.0585733

>  <SCORE.SYSTEM>
0

>  <SCORE.SYSTEM.CONST>
0

>  <SCORE.SYSTEM.DIHEDRAL>
0

>  <SCORE.SYSTEM.SOLV>
0

>  <SCORE.SYSTEM.norm>
0

>  <SCORE.heavy>
35

>  <SCORE.norm>
-0.0507617

>  <RMSD>
31.102

$$$$
2o3v_lig
 OpenBabel02141814113D
libRbt.so/2013.1/901 2013/11/27
 35 37  0  0  0  0  0  0  0  0999 V2000
   -5.6985    4.8369   16.5559 C   0  0  2  0  0  0  0  0  0  0  0  0
   -4.6601    4.7896   17.5817 O   0  0  0  0  0  0  0  0  0  0  0  0
   -4.7525    6.7302   21.4743 C   0  0  2  0  0  0  0  0  0  0  0  0
   -4.9968    6.9656   22.9293 N   0  0  0  0  0  0  0  0  0  0  0  0
   -1.6155   -2.6185   17.8937 C   0  0  2  0  0  0  0  0  0  0  0  0
   -2.1876   -2.9535   19.1767 O   0  0  0  0  0  0  0  0  0  0  0  0
   -6.4204    3.4619   16.7189 C   0  0  2  0  0  0  0  0  0  0  0  0
   -6.9689    3.3034   18.0865 N   0  0  0  0  0  0  0  0  0  0  0  0
   -6.1314    6.4988   20.7191 C   0  0  0  0  0  0  0  0  0  0  0  0
   -2.4920   -1.4774   17.2708 C   0  0  2  0  0  0  0  0  0  0  0  0
   -2.5491   -0.2979   18.1711 N   0  0  0  0  0  0  0  0  0  0  0  0
   -5.4472    2.2485   16.3870 C   0  0  1  0  0  0  0  0  0  0  0  0
   -6.1395    0.9494   16.5909 O   0  0  0  0  0  0  0  0  0  0  0  0
   -5.8429    6.2394   19.1771 C   0  0  2  0  0  0  0  0  0  0  0  0
   -7.1138    6.0099   18.4570 N   0  0  0  0  0  0  0  0  0  0  0  0
   -3.9619   -1.9868   16.9322 C   0  0  1  0  0  0  0  0  0  0  0  0
   -4.7854   -0.9594   16.3231 O   0  0  0  0  0  0  0  0  0  0  0  0
   -4.8971    2.4695   14.9098 C   0  0  2  0  0  0  0  0  0  0  0  0
   -3.9965    1.4434   14.5330 O   0  0  0  0  0  0  0  0  0  0  0  0
   -4.8924    4.9833   19.0095 C   0  0  2  0  0  0  0  0  0  0  0  0
   -3.8520   -3.2155   15.9746 C   0  0  2  0  0  0  0  0  0  0  0  0
   -5.1321   -3.7190   15.6468 O   0  0  0  0  0  0  0  0  0  0  0  0
   -4.1909    3.8730   14.7864 C   0  0  2  0  0  0  0  0  0  0  0  0
   -5.1307    4.9423   15.1837 O   0  0  0  0  0  0  0  0  0  0  0  0
   -3.5489    5.2156   19.7561 C   0  0  2  0  0  0  0  0  0  0  0  0
   -2.7469    4.0110   19.5928 O   0  0  0  0  0  0  0  0  0  0  0  0
   -2.9583   -4.3383   16.6378 C   0  0  2  0  0  0  0  0  0  0  0  0
   -1.6245   -3.7957   16.9836 O   0  0  0  0  0  0  0  0  0  0  0  0
   -3.6859    4.1262   13.3666 C   0  0  0  0  0  0  0  0  0  0  0  0
   -3.3209    5.4733   13.1912 O   0  0  0  0  0  0  0  0  0  0  0  0
   -3.8253    5.4718   21.2561 C   0  0  1  0  0  0  0  0  0  0  0  0
   -2.5915    5.6849   21.9091 O   0  0  0  0  0  0  0  0  0  0  0  0
   -2.7862   -5.5402   15.7214 C   0  0  0  0  0  0  0  0  0  0  0  0
   -4.0064   -6.2257   15.5762 O   0  0  0  0  0  0  0  0  0  0  0  0
   -5.3256   -0.0740   17.3475 C   0  0  0  0  0  0  0  0  0  0  0  0
  1  2  1  1  0  0  0
  1  7  1  0  0  0  0
  1 24  1  0  0  0  0
  3  4  1  1  0  0  0
  3  9  1  0  0  0  0
  3 31  1  0  0  0  0
  5  6  1  1  0  0  0
  5 10  1  0  0  0  0
  5 28  1  0  0  0  0
  7  8  1  1  0  0  0
  7 12  1  0  0  0  0
  9 14  1  0  0  0  0
 10 11  1  1  0  0  0
 10 16  1  0  0  0  0
 12 13  1  6  0  0  0
 12 18  1  0  0  0  0
 13 35  1  0  0  0  0
 14 15  1  6  0  0  0
 14 20  1  0  0  0  0
 16 17  1  6  0  0  0
 16 21  1  0  0  0  0
 17 35  1  0  0  0  0
 18 19  1  1  0  0  0
 18 23  1  0  0  0  0
 20  2  1  6  0  0  0
 20 25  1  0  0  0  0
 21 22  1  1  0  0  0
 21 27  1  0  0  0  0
 23 24  1  0  0  0  0
 23 29  1  6  0  0  0
 25 26  1  1  0  0  0
 25 31  1  0  0  0  0
 27 28  1  0  0  0  0
 27 33  1  6  0  0  0
 29 30  1  0  0  0  0
 31 32  1  1  0  0  0
 33 34  1  0  0  0  0
M  END
>  <CHROM.1>
-76.41073406,-134.41135864,-100.18212578,-81.00380211,179.28055662,-45.23429983
167.34331643,-68.58787385,-4.27288033,1.72921442,17.44582378,2.14238135,-1.26984482
0.84883605

>  <Name>
2o3v_lig

>  <RI>
0

>  <Rbt.Current_Directory>
/home/afrankz/demos/rdock_decoys_rna/rnas/2o3v

>  <Rbt.Executable>
rbdock ($Id: //depot/dev/client3/rdock/2013.1/src/exe/rbdock.cxx#4 $)

>  <Rbt.Library>
libRbt.so (2013.1, Build901 2013/11/27)

>  <Rbt.Parameter_File>
/export/apps/rDock/src/rDock_2013.1_src/data/scripts/dock_solv.prm

>  <Rbt.Receptor>
prm/blind_docking_40.prm

>  <SCORE>
5.05916

>  <SCORE.INTER>
-2.04234

>  <SCORE.INTER.CONST>
1

>  <SCORE.INTER.POLAR>
-0.681114

>  <SCORE.INTER.ROT>
8

>  <SCORE.INTER.SOLV>
31.3608

>  <SCORE.INTER.VDW>
-18.4781

>  <SCORE.INTER.norm>
-0.0583527

>  <SCORE.INTRA>
3.89264

>  <SCORE.INTRA.DIHEDRAL>
3.60781

>  <SCORE.INTRA.DIHEDRAL.0>
13.1227

>  <SCORE.INTRA.POLAR>
0

>  <SCORE.INTRA.POLAR.0>
0

>  <SCORE.INTRA.REPUL>
0

>  <SCORE.INTRA.REPUL.0>
0

>  <SCORE.INTRA.SOLV>
5.36052

>  <SCORE.INTRA.SOLV.lig_0>
-89.1587

>  <SCORE.INTRA.VDW>
-0.591528

>  <SCORE.INTRA.VDW.0>
-0.838383

>  <SCORE.INTRA.norm>
0.111218

>  <SCORE.RESTR>
3.20887

>  <SCORE.RESTR.CAVITY>
3.20887

>  <SCORE.RESTR.norm>
0.091682

>  <SCORE.SYSTEM>
0

>  <SCORE.SYSTEM.CONST>
0

>  <SCORE.SYSTEM.DIHEDRAL>
0

>  <SCORE.SYSTEM.SOLV>
0

>  <SCORE.SYSTEM.norm>
0

>  <SCORE.heavy>
35

>  <SCORE.norm>
0.144548

>  <RMSD>
31.116

$$$$
2o3v_lig
 OpenBabel02141814113D
libRbt.so/2013.1/901 2013/11/27
 35 37  0  0  0  0  0  0  0  0999 V2000
   -4.5388    2.7101   15.4286 C   0  0  2  0  0  0  0  0  0  0  0  0
   -3.4795    3.5210   16.0228 O   0  0  0  0  0  0  0  0  0  0  0  0
   -4.6501    5.2591   19.8354 C   0  0  2  0  0  0  0  0  0  0  0  0
   -4.8539    6.2554   20.9299 N   0  0  0  0  0  0  0  0  0  0  0  0
   -5.7709   -6.1806   18.3331 C   0  0  2  0  0  0  0  0  0  0  0  0
   -7.0874   -5.8042   17.8740 O   0  0  0  0  0  0  0  0  0  0  0  0
   -4.6652    1.5104   16.4202 C   0  0  2  0  0  0  0  0  0  0  0  0
   -4.9959    1.9776   17.7871 N   0  0  0  0  0  0  0  0  0  0  0  0
   -3.0992    5.0876   19.5343 C   0  0  0  0  0  0  0  0  0  0  0  0
   -5.0376   -4.8707   18.7856 C   0  0  2  0  0  0  0  0  0  0  0  0
   -5.8073   -4.1674   19.8429 N   0  0  0  0  0  0  0  0  0  0  0  0
   -3.3339    0.6411   16.4575 C   0  0  1  0  0  0  0  0  0  0  0  0
   -3.4586   -0.4680   17.4387 O   0  0  0  0  0  0  0  0  0  0  0  0
   -2.9109    4.0325   18.3598 C   0  0  2  0  0  0  0  0  0  0  0  0
   -1.4734    3.8665   18.0556 N   0  0  0  0  0  0  0  0  0  0  0  0
   -4.7685   -3.8958   17.5559 C   0  0  1  0  0  0  0  0  0  0  0  0
   -4.0606   -2.6893   17.9408 O   0  0  0  0  0  0  0  0  0  0  0  0
   -3.0346    0.1641   14.9687 C   0  0  2  0  0  0  0  0  0  0  0  0
   -1.8454   -0.6019   14.8988 O   0  0  0  0  0  0  0  0  0  0  0  0
   -3.6840    4.5207   17.0663 C   0  0  2  0  0  0  0  0  0  0  0  0
   -3.9466   -4.6723   16.4788 C   0  0  2  0  0  0  0  0  0  0  0  0
   -3.6859   -3.8561   15.3540 O   0  0  0  0  0  0  0  0  0  0  0  0
   -2.9303    1.4034   14.0008 C   0  0  2  0  0  0  0  0  0  0  0  0
   -4.1705    2.2038   14.0778 O   0  0  0  0  0  0  0  0  0  0  0  0
   -5.1986    4.6918   17.3712 C   0  0  2  0  0  0  0  0  0  0  0  0
   -5.8347    5.1783   16.1547 O   0  0  0  0  0  0  0  0  0  0  0  0
   -4.7178   -5.9856   16.0547 C   0  0  2  0  0  0  0  0  0  0  0  0
   -4.9918   -6.8266   17.2424 O   0  0  0  0  0  0  0  0  0  0  0  0
   -2.6801    0.9706   12.5569 C   0  0  0  0  0  0  0  0  0  0  0  0
   -3.7804    0.2609   12.0426 O   0  0  0  0  0  0  0  0  0  0  0  0
   -5.3863    5.7149   18.5158 C   0  0  1  0  0  0  0  0  0  0  0  0
   -6.7678    5.8474   18.7764 O   0  0  0  0  0  0  0  0  0  0  0  0
   -3.9334   -6.7994   15.0367 C   0  0  0  0  0  0  0  0  0  0  0  0
   -3.7542   -6.0621   13.8517 O   0  0  0  0  0  0  0  0  0  0  0  0
   -4.2625   -1.6467   16.9421 C   0  0  0  0  0  0  0  0  0  0  0  0
  1  2  1  1  0  0  0
  1  7  1  0  0  0  0
  1 24  1  0  0  0  0
  3  4  1  1  0  0  0
  3  9  1  0  0  0  0
  3 31  1  0  0  0  0
  5  6  1  6  0  0  0
  5 10  1  0  0  0  0
  5 28  1  0  0  0  0
  7  8  1  1  0  0  0
  7 12  1  0  0  0  0
  9 14  1  0  0  0  0
 10 11  1  1  0  0  0
 10 16  1  0  0  0  0
 12 13  1  1  0  0  0
 12 18  1  0  0  0  0
 13 35  1  0  0  0  0
 14 15  1  6  0  0  0
 14 20  1  0  0  0  0
 16 17  1  1  0  0  0
 16 21  1  0  0  0  0
 17 35  1  0  0  0  0
 18 19  1  1  0  0  0
 18 23  1  0  0  0  0
 20  2  1  6  0  0  0
 20 25  1  0  0  0  0
 21 22  1  6  0  0  0
 21 27  1  0  0  0  0
 23 24  1  0  0  0  0
 23 29  1  6  0  0  0
 25 26  1  6  0  0  0
 25 31  1  0  0  0  0
 27 28  1  0  0  0  0
 27 33  1  6  0  0  0
 29 30  1  0  0  0  0
 31 32  1  1  0  0  0
 33 34  1  0  0  0  0
M  END
>  <CHROM.1>
-85.10469077,78.40514415,170.25384071,-159.38501659,-178.77031085,115.88375905
65.71131940,-62.50834499,-4.25159003,-0.01098035,16.75287133,-1.49027141
-1.19877690,-2.94374276

>  <Name>
2o3v_lig

>  <RI>
0

>  <Rbt.Current_Directory>
/home/afrankz/demos/rdock_decoys_rna/rnas/2o3v

>  <Rbt.Executable>
rbdock ($Id: //depot/dev/client3/rdock/2013.1/src/exe/rbdock.cxx#4 $)

>  <Rbt.Library>
libRbt.so (2013.1, Build901 2013/11/27)

>  <Rbt.Parameter_File>
/export/apps/rDock/src/rDock_2013.1_src/data/scripts/dock_solv.prm

>  <Rbt.Receptor>
prm/blind_docking_100.prm

>  <SCORE>
-5.10496

>  <SCORE.INTER>
-11.1167

>  <SCORE.INTER.CONST>
1

>  <SCORE.INTER.POLAR>
-1.77331

>  <SCORE.INTER.ROT>
8

>  <SCORE.INTER.SOLV>
26.3097

>  <SCORE.INTER.VDW>
-19.2033

>  <SCORE.INTER.norm>
-0.317619

>  <SCORE.INTRA>
3.09171

>  <SCORE.INTRA.DIHEDRAL>
0.767315

>  <SCORE.INTRA.DIHEDRAL.0>
13.1227

>  <SCORE.INTRA.POLAR>
0

>  <SCORE.INTRA.POLAR.0>
0

>  <SCORE.INTRA.REPUL>
0

>  <SCORE.INTRA.REPUL.0>
0

>  <SCORE.INTRA.SOLV>
4.12225

>  <SCORE.INTRA.SOLV.lig_0>
-89.1587

>  <SCORE.INTRA.VDW>
0.646934

>  <SCORE.INTRA.VDW.0>
-0.838383

>  <SCORE.INTRA.norm>
0.0883347

>  <SCORE.RESTR>
2.91999

>  <SCORE.RESTR.CAVITY>
2.91999

>  <SCORE.RESTR.norm>
0.0834284

>  <SCORE.SYSTEM>
0

>  <SCORE.SYSTEM.CONST>
0

>  <SCORE.SYSTEM.DIHEDRAL>
0

>  <SCORE.SYSTEM.SOLV>
0

>  <SCORE.SYSTEM.norm>
0

>  <SCORE.heavy>
35

>  <SCORE.norm>
-0.145856

>  <RMSD>
31.126

$$$$
2o3v_lig
 OpenBabel02141814113D
libRbt.so/2013.1/901 2013/11/27
 35 37  0  0  0  0  0  0  0  0999 V2000
   -4.5968    2.7053   15.3753 C   0  0  2  0  0  0  0  0  0  0  0  0
   -3.5385    3.5519   15.9192 O   0  0  0  0  0  0  0  0  0  0  0  0
   -4.6876    5.2531   19.7549 C   0  0  2  0  0  0  0  0  0  0  0  0
   -4.8737    6.2356   20.8650 N   0  0  0  0  0  0  0  0  0  0  0  0
   -5.3322   -6.2664   18.1911 C   0  0  2  0  0  0  0  0  0  0  0  0
   -6.5792   -6.0460   17.4968 O   0  0  0  0  0  0  0  0  0  0  0  0
   -4.6418    1.5074   16.3760 C   0  0  2  0  0  0  0  0  0  0  0  0
   -4.9268    1.9711   17.7544 N   0  0  0  0  0  0  0  0  0  0  0  0
   -3.1395    5.0508   19.4582 C   0  0  0  0  0  0  0  0  0  0  0  0
   -4.8257   -4.8736   18.7030 C   0  0  2  0  0  0  0  0  0  0  0  0
   -5.8357   -4.2290   19.5800 N   0  0  0  0  0  0  0  0  0  0  0  0
   -3.2835    0.6802   16.3581 C   0  0  1  0  0  0  0  0  0  0  0  0
   -3.3302   -0.4271   17.3480 O   0  0  0  0  0  0  0  0  0  0  0  0
   -2.9698    4.0112   18.2670 C   0  0  2  0  0  0  0  0  0  0  0  0
   -1.5350    3.8170   17.9667 N   0  0  0  0  0  0  0  0  0  0  0  0
   -4.4454   -3.9089   17.4949 C   0  0  1  0  0  0  0  0  0  0  0  0
   -3.9415   -2.6235   17.9406 O   0  0  0  0  0  0  0  0  0  0  0  0
   -3.0350    0.2051   14.8594 C   0  0  2  0  0  0  0  0  0  0  0  0
   -1.8264   -0.5237   14.7402 O   0  0  0  0  0  0  0  0  0  0  0  0
   -3.7250    4.5386   16.9783 C   0  0  2  0  0  0  0  0  0  0  0  0
   -3.3734   -4.6213   16.6106 C   0  0  2  0  0  0  0  0  0  0  0  0
   -3.0036   -3.8122   15.5115 O   0  0  0  0  0  0  0  0  0  0  0  0
   -3.0121    1.4421   13.8832 C   0  0  2  0  0  0  0  0  0  0  0  0
   -4.2723    2.2037   14.0115 O   0  0  0  0  0  0  0  0  0  0  0  0
   -5.2367    4.7396   17.2791 C   0  0  2  0  0  0  0  0  0  0  0  0
   -5.8555    5.2608   16.0681 O   0  0  0  0  0  0  0  0  0  0  0  0
   -3.9217   -6.0207   16.1204 C   0  0  2  0  0  0  0  0  0  0  0  0
   -4.3129   -6.8541   17.2802 O   0  0  0  0  0  0  0  0  0  0  0  0
   -2.8120    1.0098   12.4313 C   0  0  0  0  0  0  0  0  0  0  0  0
   -1.5529    0.4090   12.2503 O   0  0  0  0  0  0  0  0  0  0  0  0
   -5.4064    5.7477   18.4398 C   0  0  1  0  0  0  0  0  0  0  0  0
   -6.7858    5.9078   18.6963 O   0  0  0  0  0  0  0  0  0  0  0  0
   -2.8930   -6.7726   15.2895 C   0  0  0  0  0  0  0  0  0  0  0  0
   -3.4900   -7.8729   14.6470 O   0  0  0  0  0  0  0  0  0  0  0  0
   -4.1567   -1.6138   16.9112 C   0  0  0  0  0  0  0  0  0  0  0  0
  1  2  1  1  0  0  0
  1  7  1  0  0  0  0
  1 24  1  0  0  0  0
  3  4  1  1  0  0  0
  3  9  1  0  0  0  0
  3 31  1  0  0  0  0
  5  6  1  6  0  0  0
  5 10  1  0  0  0  0
  5 28  1  0  0  0  0
  7  8  1  1  0  0  0
  7 12  1  0  0  0  0
  9 14  1  0  0  0  0
 10 11  1  6  0  0  0
 10 16  1  0  0  0  0
 12 13  1  1  0  0  0
 12 18  1  0  0  0  0
 13 35  1  0  0  0  0
 14 15  1  6  0  0  0
 14 20  1  0  0  0  0
 16 17  1  1  0  0  0
 16 21  1  0  0  0  0
 17 35  1  0  0  0  0
 18 19  1  1  0  0  0
 18 23  1  0  0  0  0
 20  2  1  6  0  0  0
 20 25  1  0  0  0  0
 21 22  1  6  0  0  0
 21 27  1  0  0  0  0
 23 24  1  0  0  0  0
 23 29  1  6  0  0  0
 25 26  1  6  0  0  0
 25 31  1  0  0  0  0
 27 28  1  0  0  0  0
 27 33  1  1  0  0  0
 29 30  1  0  0  0  0
 31 32  1  1  0  0  0
 33 34  1  0  0  0  0
M  END
>  <CHROM.1>
-84.31265079,76.42783149,173.65769114,-155.35253420,-167.62432958,111.12464174
-64.35652405,-168.08188550,-4.02926670,-0.05957150,16.72383385,-1.63217965
-1.12242087,-3.09162820

>  <Name>
2o3v_lig

>  <RI>
0

>  <Rbt.Current_Directory>
/home/afrankz/demos/rdock_decoys_rna/rnas/2o3v

>  <Rbt.Executable>
rbdock ($Id: //depot/dev/client3/rdock/2013.1/src/exe/rbdock.cxx#4 $)

>  <Rbt.Library>
libRbt.so (2013.1, Build901 2013/11/27)

>  <Rbt.Parameter_File>
/export/apps/rDock/src/rDock_2013.1_src/data/scripts/dock_solv.prm

>  <Rbt.Receptor>
prm/blind_docking_40.prm

>  <SCORE>
-7.29466

>  <SCORE.INTER>
-12.4295

>  <SCORE.INTER.CONST>
1

>  <SCORE.INTER.POLAR>
-1.95668

>  <SCORE.INTER.ROT>
8

>  <SCORE.INTER.SOLV>
28.3398

>  <SCORE.INTER.VDW>
-20.144

>  <SCORE.INTER.norm>
-0.355127

>  <SCORE.INTRA>
2.94196

>  <SCORE.INTRA.DIHEDRAL>
1.62203

>  <SCORE.INTRA.DIHEDRAL.0>
13.1227

>  <SCORE.INTRA.POLAR>
0

>  <SCORE.INTRA.POLAR.0>
0

>  <SCORE.INTRA.REPUL>
0

>  <SCORE.INTRA.REPUL.0>
0

>  <SCORE.INTRA.SOLV>
4.17748

>  <SCORE.INTRA.SOLV.lig_0>
-89.1587

>  <SCORE.INTRA.VDW>
0.0421988

>  <SCORE.INTRA.VDW.0>
-0.838383

>  <SCORE.INTRA.norm>
0.0840559

>  <SCORE.RESTR>
2.19283

>  <SCORE.RESTR.CAVITY>
2.19283

>  <SCORE.RESTR.norm>
0.0626523

>  <SCORE.SYSTEM>
0

>  <SCORE.SYSTEM.CONST>
0

>  <SCORE.SYSTEM.DIHEDRAL>
0

>  <SCORE.SYSTEM.SOLV>
0

>  <SCORE.SYSTEM.norm>
0

>  <SCORE.heavy>
35

>  <SCORE.norm>
-0.208419

>  <RMSD>
31.156

$$$$
2o3v_lig
 OpenBabel02141814113D
libRbt.so/2013.1/901 2013/11/27
 35 37  0  0  0  0  0  0  0  0999 V2000
   -2.8094    2.6871   16.3436 C   0  0  2  0  0  0  0  0  0  0  0  0
   -3.7245    2.8998   15.2255 O   0  0  0  0  0  0  0  0  0  0  0  0
   -2.2595    0.8851   11.6586 C   0  0  2  0  0  0  0  0  0  0  0  0
   -2.2340    0.0655   10.4098 N   0  0  0  0  0  0  0  0  0  0  0  0
   -5.7706    8.6305   22.2745 C   0  0  2  0  0  0  0  0  0  0  0  0
   -7.2036    8.6857   22.1048 O   0  0  0  0  0  0  0  0  0  0  0  0
   -3.7712    2.5343   17.5643 C   0  0  2  0  0  0  0  0  0  0  0  0
   -4.7117    1.4060   17.3675 N   0  0  0  0  0  0  0  0  0  0  0  0
   -2.7178   -0.0090   12.8898 C   0  0  0  0  0  0  0  0  0  0  0  0
   -5.2253    7.5166   21.3152 C   0  0  2  0  0  0  0  0  0  0  0  0
   -5.6007    7.7967   19.9061 N   0  0  0  0  0  0  0  0  0  0  0  0
   -4.5872    3.8721   17.8359 C   0  0  1  0  0  0  0  0  0  0  0  0
   -5.5277    3.6919   18.9722 O   0  0  0  0  0  0  0  0  0  0  0  0
   -2.7477    0.8886   14.2020 C   0  0  2  0  0  0  0  0  0  0  0  0
   -3.1833    0.0774   15.3590 N   0  0  0  0  0  0  0  0  0  0  0  0
   -5.7348    6.0713   21.7468 C   0  0  1  0  0  0  0  0  0  0  0  0
   -5.2179    5.0166   20.8953 O   0  0  0  0  0  0  0  0  0  0  0  0
   -3.5281    5.0418   18.0452 C   0  0  2  0  0  0  0  0  0  0  0  0
   -4.1669    6.2856   18.2705 O   0  0  0  0  0  0  0  0  0  0  0  0
   -3.7339    2.1112   13.9974 C   0  0  2  0  0  0  0  0  0  0  0  0
   -5.3060    5.8164   23.2266 C   0  0  2  0  0  0  0  0  0  0  0  0
   -5.7426    4.5465   23.6696 O   0  0  0  0  0  0  0  0  0  0  0  0
   -2.5700    5.1506   16.7986 C   0  0  2  0  0  0  0  0  0  0  0  0
   -1.9071    3.8509   16.5625 O   0  0  0  0  0  0  0  0  0  0  0  0
   -3.2820    2.9767   12.7878 C   0  0  2  0  0  0  0  0  0  0  0  0
   -4.2522    4.0523   12.6362 O   0  0  0  0  0  0  0  0  0  0  0  0
   -5.8715    6.9623   24.1574 C   0  0  2  0  0  0  0  0  0  0  0  0
   -5.4140    8.2865   23.6776 O   0  0  0  0  0  0  0  0  0  0  0  0
   -1.5187    6.2428   16.9902 C   0  0  0  0  0  0  0  0  0  0  0  0
   -1.5802    7.1928   15.9545 O   0  0  0  0  0  0  0  0  0  0  0  0
   -3.2480    2.1065   11.5096 C   0  0  1  0  0  0  0  0  0  0  0  0
   -2.8300    2.9135   10.4289 O   0  0  0  0  0  0  0  0  0  0  0  0
   -5.4418    6.7800   25.6052 C   0  0  0  0  0  0  0  0  0  0  0  0
   -5.9659    5.5824   26.1258 O   0  0  0  0  0  0  0  0  0  0  0  0
   -5.9514    4.9812   19.6359 C   0  0  0  0  0  0  0  0  0  0  0  0
  1  2  1  6  0  0  0
  1  7  1  0  0  0  0
  1 24  1  0  0  0  0
  3  4  1  6  0  0  0
  3  9  1  0  0  0  0
  3 31  1  0  0  0  0
  5  6  1  1  0  0  0
  5 10  1  0  0  0  0
  5 28  1  0  0  0  0
  7  8  1  6  0  0  0
  7 12  1  0  0  0  0
  9 14  1  0  0  0  0
 10 11  1  6  0  0  0
 10 16  1  0  0  0  0
 12 13  1  1  0  0  0
 12 18  1  0  0  0  0
 13 35  1  0  0  0  0
 14 15  1  1  0  0  0
 14 20  1  0  0  0  0
 16 17  1  6  0  0  0
 16 21  1  0  0  0  0
 17 35  1  0  0  0  0
 18 19  1  6  0  0  0
 18 23  1  0  0  0  0
 20  2  1  1  0  0  0
 20 25  1  0  0  0  0
 21 22  1  1  0  0  0
 21 27  1  0  0  0  0
 23 24  1  0  0  0  0
 23 29  1  1  0  0  0
 25 26  1  6  0  0  0
 25 31  1  0  0  0  0
 27 28  1  0  0  0  0
 27 33  1  1  0  0  0
 29 30  1  0  0  0  0
 31 32  1  6  0  0  0
 33 34  1  0  0  0  0
M  END
>  <CHROM.1>
-126.10688756,158.14896502,-105.33548020,-77.67375537,-168.66735723,8.31215506
-122.79320649,-62.92724307,-4.17087191,4.43484543,17.93910647,0.63930684
-1.26688785,-2.92137287

>  <Name>
2o3v_lig

>  <RI>
0

>  <Rbt.Current_Directory>
/home/afrankz/demos/rdock_decoys_rna/rnas/2o3v

>  <Rbt.Executable>
rbdock ($Id: //depot/dev/client3/rdock/2013.1/src/exe/rbdock.cxx#4 $)

>  <Rbt.Library>
libRbt.so (2013.1, Build901 2013/11/27)

>  <Rbt.Parameter_File>
/export/apps/rDock/src/rDock_2013.1_src/data/scripts/dock_solv.prm

>  <Rbt.Receptor>
prm/blind_docking_40.prm

>  <SCORE>
20.782

>  <SCORE.INTER>
2.22751

>  <SCORE.INTER.CONST>
1

>  <SCORE.INTER.POLAR>
-2.74868

>  <SCORE.INTER.ROT>
8

>  <SCORE.INTER.SOLV>
30.1801

>  <SCORE.INTER.VDW>
-8.34608

>  <SCORE.INTER.norm>
0.0636432

>  <SCORE.INTRA>
13.282

>  <SCORE.INTRA.DIHEDRAL>
16.3835

>  <SCORE.INTRA.DIHEDRAL.0>
13.1227

>  <SCORE.INTRA.POLAR>
0

>  <SCORE.INTRA.POLAR.0>
0

>  <SCORE.INTRA.REPUL>
0

>  <SCORE.INTRA.REPUL.0>
0

>  <SCORE.INTRA.SOLV>
5.17217

>  <SCORE.INTRA.SOLV.lig_0>
-89.1587

>  <SCORE.INTRA.VDW>
2.50415

>  <SCORE.INTRA.VDW.0>
-0.838383

>  <SCORE.INTRA.norm>
0.379486

>  <SCORE.RESTR>
5.27247

>  <SCORE.RESTR.CAVITY>
5.27247

>  <SCORE.RESTR.norm>
0.150642

>  <SCORE.SYSTEM>
0

>  <SCORE.SYSTEM.CONST>
0

>  <SCORE.SYSTEM.DIHEDRAL>
0

>  <SCORE.SYSTEM.SOLV>
0

>  <SCORE.SYSTEM.norm>
0

>  <SCORE.heavy>
35

>  <SCORE.norm>
0.593771

>  <RMSD>
31.165

$$$$
2o3v_lig
 OpenBabel02141814113D
libRbt.so/2013.1/901 2013/11/27
 35 37  0  0  0  0  0  0  0  0999 V2000
   -4.5713   -4.3734   17.5226 C   0  0  2  0  0  0  0  0  0  0  0  0
   -5.2613   -4.6659   16.2692 O   0  0  0  0  0  0  0  0  0  0  0  0
   -8.6013   -7.3399   15.4807 C   0  0  2  0  0  0  0  0  0  0  0  0
   -9.3749   -8.5811   15.1754 N   0  0  0  0  0  0  0  0  0  0  0  0
   -5.6113    4.0671   16.5372 C   0  0  2  0  0  0  0  0  0  0  0  0
   -6.5650    3.2570   17.2581 O   0  0  0  0  0  0  0  0  0  0  0  0
   -4.7158   -2.8240   17.6532 C   0  0  2  0  0  0  0  0  0  0  0  0
   -6.1410   -2.4184   17.6723 N   0  0  0  0  0  0  0  0  0  0  0  0
   -7.6100   -7.0057   14.2845 C   0  0  0  0  0  0  0  0  0  0  0  0
   -4.6878    3.0955   15.7239 C   0  0  2  0  0  0  0  0  0  0  0  0
   -5.4871    2.2430   14.8078 N   0  0  0  0  0  0  0  0  0  0  0  0
   -3.9577   -2.0658   16.4785 C   0  0  1  0  0  0  0  0  0  0  0  0
   -4.1443   -0.5962   16.5959 O   0  0  0  0  0  0  0  0  0  0  0  0
   -6.7919   -5.6892   14.6392 C   0  0  2  0  0  0  0  0  0  0  0  0
   -5.8539   -5.3665   13.5426 N   0  0  0  0  0  0  0  0  0  0  0  0
   -3.7978    2.1914   16.6858 C   0  0  1  0  0  0  0  0  0  0  0  0
   -2.9084    1.3053   15.9588 O   0  0  0  0  0  0  0  0  0  0  0  0
   -2.4370   -2.5348   16.5124 C   0  0  2  0  0  0  0  0  0  0  0  0
   -1.6835   -1.9261   15.4791 O   0  0  0  0  0  0  0  0  0  0  0  0
   -5.9920   -5.8982   15.9904 C   0  0  2  0  0  0  0  0  0  0  0  0
   -2.9669    3.1289   17.6181 C   0  0  2  0  0  0  0  0  0  0  0  0
   -2.1619    2.3778   18.5054 O   0  0  0  0  0  0  0  0  0  0  0  0
   -2.3386   -4.1032   16.3933 C   0  0  2  0  0  0  0  0  0  0  0  0
   -3.1285   -4.7369   17.4699 O   0  0  0  0  0  0  0  0  0  0  0  0
   -6.9683   -6.2307   17.1534 C   0  0  2  0  0  0  0  0  0  0  0  0
   -6.1637   -6.4481   18.3477 O   0  0  0  0  0  0  0  0  0  0  0  0
   -3.9341    4.0930   18.4146 C   0  0  2  0  0  0  0  0  0  0  0  0
   -4.7767    4.8668   17.4743 O   0  0  0  0  0  0  0  0  0  0  0  0
   -0.8895   -4.5831   16.4607 C   0  0  0  0  0  0  0  0  0  0  0  0
   -0.8226   -5.9873   16.5120 O   0  0  0  0  0  0  0  0  0  0  0  0
   -7.7689   -7.5089   16.8109 C   0  0  1  0  0  0  0  0  0  0  0  0
   -8.6505   -7.7852   17.8789 O   0  0  0  0  0  0  0  0  0  0  0  0
   -3.1655    5.0570   19.3056 C   0  0  0  0  0  0  0  0  0  0  0  0
   -2.3601    5.9089   18.5275 O   0  0  0  0  0  0  0  0  0  0  0  0
   -3.6582    0.1873   15.3992 C   0  0  0  0  0  0  0  0  0  0  0  0
  1  2  1  6  0  0  0
  1  7  1  0  0  0  0
  1 24  1  0  0  0  0
  3  4  1  6  0  0  0
  3  9  1  0  0  0  0
  3 31  1  0  0  0  0
  5  6  1  1  0  0  0
  5 10  1  0  0  0  0
  5 28  1  0  0  0  0
  7  8  1  6  0  0  0
  7 12  1  0  0  0  0
  9 14  1  0  0  0  0
 10 11  1  1  0  0  0
 10 16  1  0  0  0  0
 12 13  1  1  0  0  0
 12 18  1  0  0  0  0
 13 35  1  0  0  0  0
 14 15  1  6  0  0  0
 14 20  1  0  0  0  0
 16 17  1  6  0  0  0
 16 21  1  0  0  0  0
 17 35  1  0  0  0  0
 18 19  1  6  0  0  0
 18 23  1  0  0  0  0
 20  2  1  1  0  0  0
 20 25  1  0  0  0  0
 21 22  1  1  0  0  0
 21 27  1  0  0  0  0
 23 24  1  0  0  0  0
 23 29  1  1  0  0  0
 25 26  1  1  0  0  0
 25 31  1  0  0  0  0
 27 28  1  0  0  0  0
 27 33  1  6  0  0  0
 29 30  1  0  0  0  0
 31 32  1  1  0  0  0
 33 34  1  0  0  0  0
M  END
>  <CHROM.1>
-147.90764244,-170.20756677,-134.53793845,-75.44035271,-66.11902084,169.94331384
173.06026947,63.39258472,-4.70024912,-1.87056790,16.67016150,-1.83841239
-0.07902090,0.09964021

>  <Name>
2o3v_lig

>  <RI>
0

>  <Rbt.Current_Directory>
/home/afrankz/demos/rdock_decoys_rna/rnas/2o3v

>  <Rbt.Executable>
rbdock ($Id: //depot/dev/client3/rdock/2013.1/src/exe/rbdock.cxx#4 $)

>  <Rbt.Library>
libRbt.so (2013.1, Build901 2013/11/27)

>  <Rbt.Parameter_File>
/export/apps/rDock/src/rDock_2013.1_src/data/scripts/dock_solv.prm

>  <Rbt.Receptor>
prm/blind_docking_20.prm

>  <SCORE>
5.79906

>  <SCORE.INTER>
-1.2521

>  <SCORE.INTER.CONST>
1

>  <SCORE.INTER.POLAR>
-0.485684

>  <SCORE.INTER.ROT>
8

>  <SCORE.INTER.SOLV>
24.1252

>  <SCORE.INTER.VDW>
-16.1909

>  <SCORE.INTER.norm>
-0.0357743

>  <SCORE.INTRA>
-0.267668

>  <SCORE.INTRA.DIHEDRAL>
-0.431884

>  <SCORE.INTRA.DIHEDRAL.0>
13.1227

>  <SCORE.INTRA.POLAR>
0

>  <SCORE.INTRA.POLAR.0>
0

>  <SCORE.INTRA.REPUL>
0

>  <SCORE.INTRA.REPUL.0>
0

>  <SCORE.INTRA.SOLV>
0.552472

>  <SCORE.INTRA.SOLV.lig_0>
-89.1587

>  <SCORE.INTRA.VDW>
-0.327962

>  <SCORE.INTRA.VDW.0>
-0.838383

>  <SCORE.INTRA.norm>
-0.00764764

>  <SCORE.RESTR>
7.31883

>  <SCORE.RESTR.CAVITY>
7.31883

>  <SCORE.RESTR.norm>
0.209109

>  <SCORE.SYSTEM>
0

>  <SCORE.SYSTEM.CONST>
0

>  <SCORE.SYSTEM.DIHEDRAL>
0

>  <SCORE.SYSTEM.SOLV>
0

>  <SCORE.SYSTEM.norm>
0

>  <SCORE.heavy>
35

>  <SCORE.norm>
0.165687

>  <RMSD>
31.166

$$$$
2o3v_lig
 OpenBabel02141814113D
libRbt.so/2013.1/901 2013/11/27
 35 37  0  0  0  0  0  0  0  0999 V2000
   -5.4871    4.0450   16.7793 C   0  0  2  0  0  0  0  0  0  0  0  0
   -4.4791    4.4718   17.7460 O   0  0  0  0  0  0  0  0  0  0  0  0
   -4.7189    6.9653   21.3030 C   0  0  2  0  0  0  0  0  0  0  0  0
   -5.0153    7.4105   22.6980 N   0  0  0  0  0  0  0  0  0  0  0  0
   -3.4951   -4.1424   18.0856 C   0  0  2  0  0  0  0  0  0  0  0  0
   -4.7844   -3.5854   18.4221 O   0  0  0  0  0  0  0  0  0  0  0  0
   -5.3506    2.4895   16.7885 C   0  0  2  0  0  0  0  0  0  0  0  0
   -5.5840    1.9390   18.1445 N   0  0  0  0  0  0  0  0  0  0  0  0
   -6.0692    6.6097   20.5443 C   0  0  0  0  0  0  0  0  0  0  0  0
   -2.5219   -2.9443   17.8101 C   0  0  2  0  0  0  0  0  0  0  0  0
   -2.4401   -2.0430   18.9873 N   0  0  0  0  0  0  0  0  0  0  0  0
   -3.9246    2.0253   16.2589 C   0  0  1  0  0  0  0  0  0  0  0  0
   -3.7990    0.5457   16.3174 O   0  0  0  0  0  0  0  0  0  0  0  0
   -5.7254    6.1285   19.0683 C   0  0  2  0  0  0  0  0  0  0  0  0
   -6.9690    5.7812   18.3477 N   0  0  0  0  0  0  0  0  0  0  0  0
   -2.9537   -2.1252   16.5149 C   0  0  1  0  0  0  0  0  0  0  0  0
   -2.0506   -1.0296   16.2169 O   0  0  0  0  0  0  0  0  0  0  0  0
   -3.7345    2.6389   14.8025 C   0  0  2  0  0  0  0  0  0  0  0  0
   -2.4734    2.2967   14.2563 O   0  0  0  0  0  0  0  0  0  0  0  0
   -4.7624    4.8718   19.1207 C   0  0  2  0  0  0  0  0  0  0  0  0
   -3.0125   -3.1088   15.3035 C   0  0  2  0  0  0  0  0  0  0  0  0
   -3.4027   -2.4362   14.1225 O   0  0  0  0  0  0  0  0  0  0  0  0
   -3.8950    4.2063   14.8370 C   0  0  2  0  0  0  0  0  0  0  0  0
   -5.2099    4.5618   15.4108 O   0  0  0  0  0  0  0  0  0  0  0  0
   -3.4472    5.2265   19.8696 C   0  0  2  0  0  0  0  0  0  0  0  0
   -2.6330    4.0198   19.9137 O   0  0  0  0  0  0  0  0  0  0  0  0
   -3.9992   -4.3016   15.6242 C   0  0  2  0  0  0  0  0  0  0  0  0
   -3.5843   -4.9916   16.8670 O   0  0  0  0  0  0  0  0  0  0  0  0
   -3.7539    4.8174   13.4436 C   0  0  0  0  0  0  0  0  0  0  0  0
   -3.1670    6.0942   13.5073 O   0  0  0  0  0  0  0  0  0  0  0  0
   -3.7773    5.6986   21.3050 C   0  0  1  0  0  0  0  0  0  0  0  0
   -2.5683    6.0193   21.9605 O   0  0  0  0  0  0  0  0  0  0  0  0
   -4.0559   -5.3111   14.4876 C   0  0  0  0  0  0  0  0  0  0  0  0
   -2.9394   -6.1663   14.5343 O   0  0  0  0  0  0  0  0  0  0  0  0
   -2.7301   -0.0213   15.4128 C   0  0  0  0  0  0  0  0  0  0  0  0
  1  2  1  1  0  0  0
  1  7  1  0  0  0  0
  1 24  1  0  0  0  0
  3  4  1  1  0  0  0
  3  9  1  0  0  0  0
  3 31  1  0  0  0  0
  5  6  1  6  0  0  0
  5 10  1  0  0  0  0
  5 28  1  0  0  0  0
  7  8  1  1  0  0  0
  7 12  1  0  0  0  0
  9 14  1  0  0  0  0
 10 11  1  1  0  0  0
 10 16  1  0  0  0  0
 12 13  1  6  0  0  0
 12 18  1  0  0  0  0
 13 35  1  0  0  0  0
 14 15  1  1  0  0  0
 14 20  1  0  0  0  0
 16 17  1  6  0  0  0
 16 21  1  0  0  0  0
 17 35  1  0  0  0  0
 18 19  1  1  0  0  0
 18 23  1  0  0  0  0
 20  2  1  6  0  0  0
 20 25  1  0  0  0  0
 21 22  1  6  0  0  0
 21 27  1  0  0  0  0
 23 24  1  0  0  0  0
 23 29  1  6  0  0  0
 25 26  1  1  0  0  0
 25 31  1  0  0  0  0
 27 28  1  0  0  0  0
 27 33  1  6  0  0  0
 29 30  1  0  0  0  0
 31 32  1  6  0  0  0
 33 34  1  0  0  0  0
M  END
>  <CHROM.1>
-101.18515809,159.35194955,136.92891610,-157.13477167,65.93577199,-60.70921458
-147.14467446,79.40346997,-3.92918195,1.57361128,17.23939582,-3.08976183
-1.44791125,1.96769489

>  <Name>
2o3v_lig

>  <RI>
0

>  <Rbt.Current_Directory>
/home/afrankz/demos/rdock_decoys_rna/rnas/2o3v

>  <Rbt.Executable>
rbdock ($Id: //depot/dev/client3/rdock/2013.1/src/exe/rbdock.cxx#4 $)

>  <Rbt.Library>
libRbt.so (2013.1, Build901 2013/11/27)

>  <Rbt.Parameter_File>
/export/apps/rDock/src/rDock_2013.1_src/data/scripts/dock_solv.prm

>  <Rbt.Receptor>
prm/blind_docking_100.prm

>  <SCORE>
6.13594

>  <SCORE.INTER>
-2.20193

>  <SCORE.INTER.CONST>
1

>  <SCORE.INTER.POLAR>
-0.761987

>  <SCORE.INTER.ROT>
8

>  <SCORE.INTER.SOLV>
33.2834

>  <SCORE.INTER.VDW>
-18.9558

>  <SCORE.INTER.norm>
-0.0629124

>  <SCORE.INTRA>
6.38199

>  <SCORE.INTRA.DIHEDRAL>
7.02224

>  <SCORE.INTRA.DIHEDRAL.0>
13.1227

>  <SCORE.INTRA.POLAR>
0

>  <SCORE.INTRA.POLAR.0>
0

>  <SCORE.INTRA.REPUL>
0

>  <SCORE.INTRA.REPUL.0>
0

>  <SCORE.INTRA.SOLV>
1.66124

>  <SCORE.INTRA.SOLV.lig_0>
-89.1587

>  <SCORE.INTRA.VDW>
2.04025

>  <SCORE.INTRA.VDW.0>
-0.838383

>  <SCORE.INTRA.norm>
0.182342

>  <SCORE.RESTR>
1.95589

>  <SCORE.RESTR.CAVITY>
1.95589

>  <SCORE.RESTR.norm>
0.0558825

>  <SCORE.SYSTEM>
0

>  <SCORE.SYSTEM.CONST>
0

>  <SCORE.SYSTEM.DIHEDRAL>
0

>  <SCORE.SYSTEM.SOLV>
0

>  <SCORE.SYSTEM.norm>
0

>  <SCORE.heavy>
35

>  <SCORE.norm>
0.175313

>  <RMSD>
31.193

$$$$
2o3v_lig
 OpenBabel02141814113D
libRbt.so/2013.1/901 2013/11/27
 35 37  0  0  0  0  0  0  0  0999 V2000
   -4.5077    2.8140   15.3973 C   0  0  2  0  0  0  0  0  0  0  0  0
   -3.4573    3.6106   16.0257 O   0  0  0  0  0  0  0  0  0  0  0  0
   -4.6677    5.2528   19.8683 C   0  0  2  0  0  0  0  0  0  0  0  0
   -4.8870    6.2225   20.9835 N   0  0  0  0  0  0  0  0  0  0  0  0
   -4.1455   -6.4376   17.2616 C   0  0  2  0  0  0  0  0  0  0  0  0
   -4.7095   -6.4399   15.9321 O   0  0  0  0  0  0  0  0  0  0  0  0
   -4.6465    1.5903   16.3574 C   0  0  2  0  0  0  0  0  0  0  0  0
   -4.9964    2.0237   17.7308 N   0  0  0  0  0  0  0  0  0  0  0  0
   -3.1134    5.1007   19.5741 C   0  0  0  0  0  0  0  0  0  0  0  0
   -4.5577   -5.0884   17.9457 C   0  0  2  0  0  0  0  0  0  0  0  0
   -6.0344   -4.9358   17.9757 N   0  0  0  0  0  0  0  0  0  0  0  0
   -3.3151    0.7210   16.3917 C   0  0  1  0  0  0  0  0  0  0  0  0
   -3.4523   -0.4118   17.3437 O   0  0  0  0  0  0  0  0  0  0  0  0
   -2.9085    4.0739   18.3774 C   0  0  2  0  0  0  0  0  0  0  0  0
   -1.4677    3.9264   18.0795 N   0  0  0  0  0  0  0  0  0  0  0  0
   -3.8866   -3.8375   17.2247 C   0  0  1  0  0  0  0  0  0  0  0  0
   -4.2246   -2.5769   17.8582 O   0  0  0  0  0  0  0  0  0  0  0  0
   -2.9951    0.2808   14.8959 C   0  0  2  0  0  0  0  0  0  0  0  0
   -1.8043   -0.4826   14.8236 O   0  0  0  0  0  0  0  0  0  0  0  0
   -3.6770    4.5849   17.0899 C   0  0  2  0  0  0  0  0  0  0  0  0
   -2.3376   -4.0352   17.2297 C   0  0  2  0  0  0  0  0  0  0  0  0
   -1.6864   -2.9551   16.5903 O   0  0  0  0  0  0  0  0  0  0  0  0
   -2.8786    1.5435   13.9602 C   0  0  2  0  0  0  0  0  0  0  0  0
   -4.1204    2.3411   14.0397 O   0  0  0  0  0  0  0  0  0  0  0  0
   -5.1950    4.7367   17.3882 C   0  0  2  0  0  0  0  0  0  0  0  0
   -5.8269    5.2454   16.1787 O   0  0  0  0  0  0  0  0  0  0  0  0
   -1.9664   -5.4065   16.5363 C   0  0  2  0  0  0  0  0  0  0  0  0
   -2.6611   -6.5275   17.2098 O   0  0  0  0  0  0  0  0  0  0  0  0
   -2.6082    1.1463   12.5097 C   0  0  0  0  0  0  0  0  0  0  0  0
   -3.6127    0.2901   12.0230 O   0  0  0  0  0  0  0  0  0  0  0  0
   -5.3987    5.7322   18.5542 C   0  0  1  0  0  0  0  0  0  0  0  0
   -6.7830    5.8476   18.8083 O   0  0  0  0  0  0  0  0  0  0  0  0
   -0.4672   -5.6639   16.5563 C   0  0  0  0  0  0  0  0  0  0  0  0
    0.2250   -4.5786   15.9881 O   0  0  0  0  0  0  0  0  0  0  0  0
   -4.3477   -1.5262   16.8552 C   0  0  0  0  0  0  0  0  0  0  0  0
  1  2  1  1  0  0  0
  1  7  1  0  0  0  0
  1 24  1  0  0  0  0
  3  4  1  1  0  0  0
  3  9  1  0  0  0  0
  3 31  1  0  0  0  0
  5  6  1  6  0  0  0
  5 10  1  0  0  0  0
  5 28  1  0  0  0  0
  7  8  1  1  0  0  0
  7 12  1  0  0  0  0
  9 14  1  0  0  0  0
 10 11  1  6  0  0  0
 10 16  1  0  0  0  0
 12 13  1  1  0  0  0
 12 18  1  0  0  0  0
 13 35  1  0  0  0  0
 14 15  1  6  0  0  0
 14 20  1  0  0  0  0
 16 17  1  1  0  0  0
 16 21  1  0  0  0  0
 17 35  1  0  0  0  0
 18 19  1  1  0  0  0
 18 23  1  0  0  0  0
 20  2  1  6  0  0  0
 20 25  1  0  0  0  0
 21 22  1  6  0  0  0
 21 27  1  0  0  0  0
 23 24  1  0  0  0  0
 23 29  1  6  0  0  0
 25 26  1  6  0  0  0
 25 31  1  0  0  0  0
 27 28  1  0  0  0  0
 27 33  1  1  0  0  0
 29 30  1  0  0  0  0
 31 32  1  1  0  0  0
 33 34  1  0  0  0  0
M  END
>  <CHROM.1>
-85.13710366,73.33111808,174.01896521,-144.96896630,-127.72264682,116.49670747
57.35295804,-54.39479578,-3.62080616,0.13391493,16.74778477,-2.03324328,-1.19212852
2.82720664

>  <Name>
2o3v_lig

>  <RI>
0

>  <Rbt.Current_Directory>
/home/afrankz/demos/rdock_decoys_rna/rnas/2o3v

>  <Rbt.Executable>
rbdock ($Id: //depot/dev/client3/rdock/2013.1/src/exe/rbdock.cxx#4 $)

>  <Rbt.Library>
libRbt.so (2013.1, Build901 2013/11/27)

>  <Rbt.Parameter_File>
/export/apps/rDock/src/rDock_2013.1_src/data/scripts/dock_solv.prm

>  <Rbt.Receptor>
prm/blind_docking_100.prm

>  <SCORE>
-2.26299

>  <SCORE.INTER>
-11.3577

>  <SCORE.INTER.CONST>
1

>  <SCORE.INTER.POLAR>
-2.12156

>  <SCORE.INTER.ROT>
8

>  <SCORE.INTER.SOLV>
24.8012

>  <SCORE.INTER.VDW>
-17.7003

>  <SCORE.INTER.norm>
-0.324506

>  <SCORE.INTRA>
6.73546

>  <SCORE.INTRA.DIHEDRAL>
9.34347

>  <SCORE.INTRA.DIHEDRAL.0>
13.1227

>  <SCORE.INTRA.POLAR>
0

>  <SCORE.INTRA.POLAR.0>
0

>  <SCORE.INTRA.REPUL>
0

>  <SCORE.INTRA.REPUL.0>
0

>  <SCORE.INTRA.SOLV>
4.72267

>  <SCORE.INTRA.SOLV.lig_0>
-89.1587

>  <SCORE.INTRA.VDW>
-0.297604

>  <SCORE.INTRA.VDW.0>
-0.838383

>  <SCORE.INTRA.norm>
0.192442

>  <SCORE.RESTR>
2.35927

>  <SCORE.RESTR.CAVITY>
2.35927

>  <SCORE.RESTR.norm>
0.0674077

>  <SCORE.SYSTEM>
0

>  <SCORE.SYSTEM.CONST>
0

>  <SCORE.SYSTEM.DIHEDRAL>
0

>  <SCORE.SYSTEM.SOLV>
0

>  <SCORE.SYSTEM.norm>
0

>  <SCORE.heavy>
35

>  <SCORE.norm>
-0.0646568

>  <RMSD>
31.217

$$$$
2o3v_lig
 OpenBabel02141814113D
libRbt.so/2013.1/901 2013/11/27
 35 37  0  0  0  0  0  0  0  0999 V2000
   -5.1956    3.1278   15.8689 C   0  0  2  0  0  0  0  0  0  0  0  0
   -3.9847    3.6865   16.4642 O   0  0  0  0  0  0  0  0  0  0  0  0
   -3.5825    5.4003   20.4427 C   0  0  2  0  0  0  0  0  0  0  0  0
   -3.5362    6.4012   21.5510 N   0  0  0  0  0  0  0  0  0  0  0  0
   -5.1951   -5.2888   17.2051 C   0  0  2  0  0  0  0  0  0  0  0  0
   -5.8389   -4.7776   16.0178 O   0  0  0  0  0  0  0  0  0  0  0  0
   -5.2508    1.6858   16.4655 C   0  0  2  0  0  0  0  0  0  0  0  0
   -5.3003    1.7200   17.9462 N   0  0  0  0  0  0  0  0  0  0  0  0
   -2.4523    5.7182   19.3717 C   0  0  0  0  0  0  0  0  0  0  0  0
   -4.7168   -4.0570   18.0489 C   0  0  2  0  0  0  0  0  0  0  0  0
   -5.8563   -3.1655   18.3831 N   0  0  0  0  0  0  0  0  0  0  0  0
   -4.0118    0.8093   15.9900 C   0  0  1  0  0  0  0  0  0  0  0  0
   -4.0596   -0.5434   16.6034 O   0  0  0  0  0  0  0  0  0  0  0  0
   -2.5308    4.6472   18.1991 C   0  0  2  0  0  0  0  0  0  0  0  0
   -1.4935    4.9321   17.1845 N   0  0  0  0  0  0  0  0  0  0  0  0
   -3.5765   -3.2392   17.2966 C   0  0  1  0  0  0  0  0  0  0  0  0
   -3.0912   -2.1118   18.0701 O   0  0  0  0  0  0  0  0  0  0  0  0
   -4.0151    0.8040   14.3983 C   0  0  2  0  0  0  0  0  0  0  0  0
   -2.9251    0.0628   13.8800 O   0  0  0  0  0  0  0  0  0  0  0  0
   -3.9659    4.6839   17.5295 C   0  0  2  0  0  0  0  0  0  0  0  0
   -2.3968   -4.2119   16.9792 C   0  0  2  0  0  0  0  0  0  0  0  0
   -1.3549   -3.5403   16.2987 O   0  0  0  0  0  0  0  0  0  0  0  0
   -3.9739    2.2771   13.8398 C   0  0  2  0  0  0  0  0  0  0  0  0
   -5.1097    3.0503   14.3845 O   0  0  0  0  0  0  0  0  0  0  0  0
   -5.0654    4.3782   18.5850 C   0  0  2  0  0  0  0  0  0  0  0  0
   -6.3529    4.4685   17.9102 O   0  0  0  0  0  0  0  0  0  0  0  0
   -2.9223   -5.4394   16.1328 C   0  0  2  0  0  0  0  0  0  0  0  0
   -4.0180   -6.1281   16.8525 O   0  0  0  0  0  0  0  0  0  0  0  0
   -4.0138    2.3015   12.3125 C   0  0  0  0  0  0  0  0  0  0  0  0
   -4.7073    3.4312   11.8415 O   0  0  0  0  0  0  0  0  0  0  0  0
   -4.9904    5.4157   19.7295 C   0  0  1  0  0  0  0  0  0  0  0  0
   -5.9939    5.1127   20.6756 O   0  0  0  0  0  0  0  0  0  0  0  0
   -1.8144   -6.4386   15.8359 C   0  0  0  0  0  0  0  0  0  0  0  0
   -2.2613   -7.4101   14.9214 O   0  0  0  0  0  0  0  0  0  0  0  0
   -2.7445   -1.0061   17.1856 C   0  0  0  0  0  0  0  0  0  0  0  0
  1  2  1  1  0  0  0
  1  7  1  0  0  0  0
  1 24  1  0  0  0  0
  3  4  1  1  0  0  0
  3  9  1  0  0  0  0
  3 31  1  0  0  0  0
  5  6  1  6  0  0  0
  5 10  1  0  0  0  0
  5 28  1  0  0  0  0
  7  8  1  1  0  0  0
  7 12  1  0  0  0  0
  9 14  1  0  0  0  0
 10 11  1  6  0  0  0
 10 16  1  0  0  0  0
 12 13  1  1  0  0  0
 12 18  1  0  0  0  0
 13 35  1  0  0  0  0
 14 15  1  6  0  0  0
 14 20  1  0  0  0  0
 16 17  1  1  0  0  0
 16 21  1  0  0  0  0
 17 35  1  0  0  0  0
 18 19  1  6  0  0  0
 18 23  1  0  0  0  0
 20  2  1  6  0  0  0
 20 25  1  0  0  0  0
 21 22  1  6  0  0  0
 21 27  1  0  0  0  0
 23 24  1  0  0  0  0
 23 29  1  6  0  0  0
 25 26  1  6  0  0  0
 25 31  1  0  0  0  0
 27 28  1  0  0  0  0
 27 33  1  1  0  0  0
 29 30  1  0  0  0  0
 31 32  1  1  0  0  0
 33 34  1  0  0  0  0
M  END
>  <CHROM.1>
-106.20814174,-133.45440255,162.95894360,-145.47336929,67.41222444,161.22928882
146.56134018,-171.27666410,-3.95610288,0.42948470,16.82727946,-2.89244063
-1.48628862,2.00766226

>  <Name>
2o3v_lig

>  <RI>
0

>  <Rbt.Current_Directory>
/home/afrankz/demos/rdock_decoys_rna/rnas/2o3v

>  <Rbt.Executable>
rbdock ($Id: //depot/dev/client3/rdock/2013.1/src/exe/rbdock.cxx#4 $)

>  <Rbt.Library>
libRbt.so (2013.1, Build901 2013/11/27)

>  <Rbt.Parameter_File>
/export/apps/rDock/src/rDock_2013.1_src/data/scripts/dock_solv.prm

>  <Rbt.Receptor>
prm/blind_docking_60.prm

>  <SCORE>
8.85451

>  <SCORE.INTER>
-0.738954

>  <SCORE.INTER.CONST>
1

>  <SCORE.INTER.POLAR>
-2.52353

>  <SCORE.INTER.ROT>
8

>  <SCORE.INTER.SOLV>
29.4387

>  <SCORE.INTER.VDW>
-10.8271

>  <SCORE.INTER.norm>
-0.021113

>  <SCORE.INTRA>
5.40416

>  <SCORE.INTRA.DIHEDRAL>
10.5503

>  <SCORE.INTRA.DIHEDRAL.0>
13.1227

>  <SCORE.INTRA.POLAR>
0

>  <SCORE.INTRA.POLAR.0>
0

>  <SCORE.INTRA.REPUL>
0

>  <SCORE.INTRA.REPUL.0>
0

>  <SCORE.INTRA.SOLV>
1.86624

>  <SCORE.INTRA.SOLV.lig_0>
-89.1587

>  <SCORE.INTRA.VDW>
-0.80412

>  <SCORE.INTRA.VDW.0>
-0.838383

>  <SCORE.INTRA.norm>
0.154405

>  <SCORE.RESTR>
4.18931

>  <SCORE.RESTR.CAVITY>
4.18931

>  <SCORE.RESTR.norm>
0.119695

>  <SCORE.SYSTEM>
0

>  <SCORE.SYSTEM.CONST>
0

>  <SCORE.SYSTEM.DIHEDRAL>
0

>  <SCORE.SYSTEM.SOLV>
0

>  <SCORE.SYSTEM.norm>
0

>  <SCORE.heavy>
35

>  <SCORE.norm>
0.252986

>  <RMSD>
31.231

$$$$
2o3v_lig
 OpenBabel02141814113D
libRbt.so/2013.1/901 2013/11/27
 35 37  0  0  0  0  0  0  0  0999 V2000
   -2.5011   -6.5650   16.4198 C   0  0  2  0  0  0  0  0  0  0  0  0
   -3.2994   -6.3103   17.6159 O   0  0  0  0  0  0  0  0  0  0  0  0
   -6.0186   -9.6930   17.9155 C   0  0  2  0  0  0  0  0  0  0  0  0
   -6.9885  -10.6795   18.4799 N   0  0  0  0  0  0  0  0  0  0  0  0
   -3.7520    2.9523   14.1553 C   0  0  2  0  0  0  0  0  0  0  0  0
   -5.1411    2.5601   14.2013 O   0  0  0  0  0  0  0  0  0  0  0  0
   -1.7891   -5.1976   16.1712 C   0  0  2  0  0  0  0  0  0  0  0  0
   -0.9667   -4.8016   17.3387 N   0  0  0  0  0  0  0  0  0  0  0  0
   -4.6430   -9.7645   18.7079 C   0  0  0  0  0  0  0  0  0  0  0  0
   -2.8938    1.6411   14.1061 C   0  0  2  0  0  0  0  0  0  0  0  0
   -3.2667    0.8039   12.9377 N   0  0  0  0  0  0  0  0  0  0  0  0
   -2.8350   -4.0471   15.8365 C   0  0  1  0  0  0  0  0  0  0  0  0
   -2.1418   -2.7463   15.6473 O   0  0  0  0  0  0  0  0  0  0  0  0
   -3.6342   -8.6985   18.0961 C   0  0  2  0  0  0  0  0  0  0  0  0
   -2.3499   -8.7406   18.8276 N   0  0  0  0  0  0  0  0  0  0  0  0
   -3.0279    0.8027   15.4529 C   0  0  1  0  0  0  0  0  0  0  0  0
   -2.2171   -0.4004   15.4480 O   0  0  0  0  0  0  0  0  0  0  0  0
   -3.6810   -4.5246   14.5756 C   0  0  2  0  0  0  0  0  0  0  0  0
   -4.6616   -3.5678   14.2166 O   0  0  0  0  0  0  0  0  0  0  0  0
   -4.2613   -7.2468   18.1883 C   0  0  2  0  0  0  0  0  0  0  0  0
   -2.6131    1.7171   16.6489 C   0  0  2  0  0  0  0  0  0  0  0  0
   -2.7230    1.0259   17.8776 O   0  0  0  0  0  0  0  0  0  0  0  0
   -4.3686   -5.9130   14.8640 C   0  0  2  0  0  0  0  0  0  0  0  0
   -3.3445   -6.9093   15.2422 O   0  0  0  0  0  0  0  0  0  0  0  0
   -5.6091   -7.1875   17.4161 C   0  0  2  0  0  0  0  0  0  0  0  0
   -6.1438   -5.8425   17.5776 O   0  0  0  0  0  0  0  0  0  0  0  0
   -3.4979    3.0272   16.6588 C   0  0  2  0  0  0  0  0  0  0  0  0
   -3.3804    3.7363   15.3642 O   0  0  0  0  0  0  0  0  0  0  0  0
   -5.1577   -6.4125   13.6546 C   0  0  0  0  0  0  0  0  0  0  0  0
   -4.9667   -7.7924   13.4595 O   0  0  0  0  0  0  0  0  0  0  0  0
   -6.5924   -8.2255   18.0059 C   0  0  1  0  0  0  0  0  0  0  0  0
   -7.8043   -8.1551   17.2845 O   0  0  0  0  0  0  0  0  0  0  0  0
   -3.0998    3.9712   17.7832 C   0  0  0  0  0  0  0  0  0  0  0  0
   -1.7076    4.1753   17.7832 O   0  0  0  0  0  0  0  0  0  0  0  0
   -3.0694   -1.5817   15.3912 C   0  0  0  0  0  0  0  0  0  0  0  0
  1  2  1  1  0  0  0
  1  7  1  0  0  0  0
  1 24  1  0  0  0  0
  3  4  1  1  0  0  0
  3  9  1  0  0  0  0
  3 31  1  0  0  0  0
  5  6  1  1  0  0  0
  5 10  1  0  0  0  0
  5 28  1  0  0  0  0
  7  8  1  1  0  0  0
  7 12  1  0  0  0  0
  9 14  1  0  0  0  0
 10 11  1  6  0  0  0
 10 16  1  0  0  0  0
 12 13  1  6  0  0  0
 12 18  1  0  0  0  0
 13 35  1  0  0  0  0
 14 15  1  1  0  0  0
 14 20  1  0  0  0  0
 16 17  1  6  0  0  0
 16 21  1  0  0  0  0
 17 35  1  0  0  0  0
 18 19  1  1  0  0  0
 18 23  1  0  0  0  0
 20  2  1  6  0  0  0
 20 25  1  0  0  0  0
 21 22  1  1  0  0  0
 21 27  1  0  0  0  0
 23 24  1  0  0  0  0
 23 29  1  6  0  0  0
 25 26  1  1  0  0  0
 25 31  1  0  0  0  0
 27 28  1  0  0  0  0
 27 33  1  1  0  0  0
 29 30  1  0  0  0  0
 31 32  1  6  0  0  0
 33 34  1  0  0  0  0
M  END
>  <CHROM.1>
173.66857998,-177.17866373,171.31590226,-110.94666291,-169.89206382,40.28295538
138.23257469,49.61370482,-3.83978491,-3.50240946,16.25224235,-2.01051816
-1.14247333,-0.54422534

>  <Name>
2o3v_lig

>  <RI>
0

>  <Rbt.Current_Directory>
/home/afrankz/demos/rdock_decoys_rna/rnas/2o3v

>  <Rbt.Executable>
rbdock ($Id: //depot/dev/client3/rdock/2013.1/src/exe/rbdock.cxx#4 $)

>  <Rbt.Library>
libRbt.so (2013.1, Build901 2013/11/27)

>  <Rbt.Parameter_File>
/export/apps/rDock/src/rDock_2013.1_src/data/scripts/dock_solv.prm

>  <Rbt.Receptor>
prm/blind_docking_40.prm

>  <SCORE>
-13.2831

>  <SCORE.INTER>
-16.0749

>  <SCORE.INTER.CONST>
1

>  <SCORE.INTER.POLAR>
-2.00538

>  <SCORE.INTER.ROT>
8

>  <SCORE.INTER.SOLV>
17.545

>  <SCORE.INTER.VDW>
-18.8137

>  <SCORE.INTER.norm>
-0.459284

>  <SCORE.INTRA>
-0.99121

>  <SCORE.INTRA.DIHEDRAL>
1.08012

>  <SCORE.INTRA.DIHEDRAL.0>
13.1227

>  <SCORE.INTRA.POLAR>
0

>  <SCORE.INTRA.POLAR.0>
0

>  <SCORE.INTRA.REPUL>
0

>  <SCORE.INTRA.REPUL.0>
0

>  <SCORE.INTRA.SOLV>
0.068768

>  <SCORE.INTRA.SOLV.lig_0>
-89.1587

>  <SCORE.INTRA.VDW>
-1.56566

>  <SCORE.INTRA.VDW.0>
-0.838383

>  <SCORE.INTRA.norm>
-0.0283203

>  <SCORE.RESTR>
3.78303

>  <SCORE.RESTR.CAVITY>
3.78303

>  <SCORE.RESTR.norm>
0.108087

>  <SCORE.SYSTEM>
0

>  <SCORE.SYSTEM.CONST>
0

>  <SCORE.SYSTEM.DIHEDRAL>
0

>  <SCORE.SYSTEM.SOLV>
0

>  <SCORE.SYSTEM.norm>
0

>  <SCORE.heavy>
35

>  <SCORE.norm>
-0.379518

>  <RMSD>
31.236

$$$$
2o3v_lig
 OpenBabel02141814113D
libRbt.so/2013.1/901 2013/11/27
 35 37  0  0  0  0  0  0  0  0999 V2000
   -4.3334   -5.2745   17.9536 C   0  0  2  0  0  0  0  0  0  0  0  0
   -5.1741   -5.5156   16.7841 O   0  0  0  0  0  0  0  0  0  0  0  0
   -9.1525   -7.2688   16.6255 C   0  0  2  0  0  0  0  0  0  0  0  0
  -10.2464   -8.2819   16.5283 N   0  0  0  0  0  0  0  0  0  0  0  0
   -3.1143    3.4544   17.0905 C   0  0  2  0  0  0  0  0  0  0  0  0
   -1.7048    3.7676   17.0630 O   0  0  0  0  0  0  0  0  0  0  0  0
   -4.5247   -3.7476   18.2188 C   0  0  2  0  0  0  0  0  0  0  0  0
   -5.9502   -3.4195   18.4569 N   0  0  0  0  0  0  0  0  0  0  0  0
   -8.2724   -7.2863   15.3025 C   0  0  0  0  0  0  0  0  0  0  0  0
   -3.2492    1.8925   17.1184 C   0  0  2  0  0  0  0  0  0  0  0  0
   -2.5362    1.3171   18.2869 N   0  0  0  0  0  0  0  0  0  0  0  0
   -3.9663   -2.8713   17.0147 C   0  0  1  0  0  0  0  0  0  0  0  0
   -4.1978   -1.4252   17.2664 O   0  0  0  0  0  0  0  0  0  0  0  0
   -7.1104   -6.2091   15.4365 C   0  0  2  0  0  0  0  0  0  0  0  0
   -6.2714   -6.2171   14.2189 N   0  0  0  0  0  0  0  0  0  0  0  0
   -2.7199    1.2350   15.7684 C   0  0  1  0  0  0  0  0  0  0  0  0
   -2.8638   -0.2085   15.7534 O   0  0  0  0  0  0  0  0  0  0  0  0
   -2.4364   -3.2612   16.8115 C   0  0  2  0  0  0  0  0  0  0  0  0
   -1.8570   -2.5439   15.7365 O   0  0  0  0  0  0  0  0  0  0  0  0
   -6.2211   -6.5295   16.7076 C   0  0  2  0  0  0  0  0  0  0  0  0
   -3.5061    1.8590   14.5721 C   0  0  2  0  0  0  0  0  0  0  0  0
   -3.0692    1.3181   13.3408 O   0  0  0  0  0  0  0  0  0  0  0  0
   -2.2883   -4.8103   16.5624 C   0  0  2  0  0  0  0  0  0  0  0  0
   -2.8969   -5.5574   17.6831 O   0  0  0  0  0  0  0  0  0  0  0  0
   -7.0908   -6.5165   17.9959 C   0  0  2  0  0  0  0  0  0  0  0  0
   -6.2193   -6.8567   19.1121 O   0  0  0  0  0  0  0  0  0  0  0  0
   -3.3477    3.4319   14.5839 C   0  0  2  0  0  0  0  0  0  0  0  0
   -3.8006    3.9841   15.8812 O   0  0  0  0  0  0  0  0  0  0  0  0
   -0.8244   -5.2171   16.4010 C   0  0  0  0  0  0  0  0  0  0  0  0
   -0.0579   -4.8005   17.5046 O   0  0  0  0  0  0  0  0  0  0  0  0
   -8.2246   -7.5606   17.8684 C   0  0  1  0  0  0  0  0  0  0  0  0
   -9.0016   -7.5247   19.0470 O   0  0  0  0  0  0  0  0  0  0  0  0
   -4.1340    4.0889   13.4596 C   0  0  0  0  0  0  0  0  0  0  0  0
   -3.7811    5.4459   13.3415 O   0  0  0  0  0  0  0  0  0  0  0  0
   -4.2490   -0.5794   16.0156 C   0  0  0  0  0  0  0  0  0  0  0  0
  1  2  1  6  0  0  0
  1  7  1  0  0  0  0
  1 24  1  0  0  0  0
  3  4  1  6  0  0  0
  3  9  1  0  0  0  0
  3 31  1  0  0  0  0
  5  6  1  6  0  0  0
  5 10  1  0  0  0  0
  5 28  1  0  0  0  0
  7  8  1  6  0  0  0
  7 12  1  0  0  0  0
  9 14  1  0  0  0  0
 10 11  1  1  0  0  0
 10 16  1  0  0  0  0
 12 13  1  1  0  0  0
 12 18  1  0  0  0  0
 13 35  1  0  0  0  0
 14 15  1  6  0  0  0
 14 20  1  0  0  0  0
 16 17  1  1  0  0  0
 16 21  1  0  0  0  0
 17 35  1  0  0  0  0
 18 19  1  6  0  0  0
 18 23  1  0  0  0  0
 20  2  1  1  0  0  0
 20 25  1  0  0  0  0
 21 22  1  6  0  0  0
 21 27  1  0  0  0  0
 23 24  1  0  0  0  0
 23 29  1  1  0  0  0
 25 26  1  1  0  0  0
 25 31  1  0  0  0  0
 27 28  1  0  0  0  0
 27 33  1  6  0  0  0
 29 30  1  0  0  0  0
 31 32  1  1  0  0  0
 33 34  1  0  0  0  0
M  END
>  <CHROM.1>
-126.04742700,-155.83147397,-87.58305293,54.95353087,-120.17461237,165.82311616
55.06112269,-169.11096655,-4.48013856,-2.45576124,16.49659649,-1.96348986
-0.22592783,-0.27870724

>  <Name>
2o3v_lig

>  <RI>
0

>  <Rbt.Current_Directory>
/home/afrankz/demos/rdock_decoys_rna/rnas/2o3v

>  <Rbt.Executable>
rbdock ($Id: //depot/dev/client3/rdock/2013.1/src/exe/rbdock.cxx#4 $)

>  <Rbt.Library>
libRbt.so (2013.1, Build901 2013/11/27)

>  <Rbt.Parameter_File>
/export/apps/rDock/src/rDock_2013.1_src/data/scripts/dock_solv.prm

>  <Rbt.Receptor>
prm/blind_docking_80.prm

>  <SCORE>
-8.61432

>  <SCORE.INTER>
-16.6676

>  <SCORE.INTER.CONST>
1

>  <SCORE.INTER.POLAR>
-2.94368

>  <SCORE.INTER.ROT>
8

>  <SCORE.INTER.SOLV>
23.3753

>  <SCORE.INTER.VDW>
-18.0246

>  <SCORE.INTER.norm>
-0.476218

>  <SCORE.INTRA>
5.33612

>  <SCORE.INTRA.DIHEDRAL>
8.35777

>  <SCORE.INTRA.DIHEDRAL.0>
13.1227

>  <SCORE.INTRA.POLAR>
0

>  <SCORE.INTRA.POLAR.0>
0

>  <SCORE.INTRA.REPUL>
0

>  <SCORE.INTRA.REPUL.0>
0

>  <SCORE.INTRA.SOLV>
1.72832

>  <SCORE.INTRA.SOLV.lig_0>
-89.1587

>  <SCORE.INTRA.VDW>
0.293079

>  <SCORE.INTRA.VDW.0>
-0.838383

>  <SCORE.INTRA.norm>
0.152461

>  <SCORE.RESTR>
2.71718

>  <SCORE.RESTR.CAVITY>
2.71718

>  <SCORE.RESTR.norm>
0.0776338

>  <SCORE.SYSTEM>
0

>  <SCORE.SYSTEM.CONST>
0

>  <SCORE.SYSTEM.DIHEDRAL>
0

>  <SCORE.SYSTEM.SOLV>
0

>  <SCORE.SYSTEM.norm>
0

>  <SCORE.heavy>
35

>  <SCORE.norm>
-0.246123

>  <RMSD>
31.256

$$$$
2o3v_lig
 OpenBabel02141814113D
libRbt.so/2013.1/901 2013/11/27
 35 37  0  0  0  0  0  0  0  0999 V2000
   -4.0614    3.5076   16.6494 C   0  0  2  0  0  0  0  0  0  0  0  0
   -2.8433    4.2511   16.9597 O   0  0  0  0  0  0  0  0  0  0  0  0
   -1.5003    6.5204   20.4199 C   0  0  2  0  0  0  0  0  0  0  0  0
   -1.3719    7.6175   21.4260 N   0  0  0  0  0  0  0  0  0  0  0  0
   -3.8431   -4.7406   18.0807 C   0  0  2  0  0  0  0  0  0  0  0  0
   -5.1630   -4.1963   18.2980 O   0  0  0  0  0  0  0  0  0  0  0  0
   -3.5866    2.0204   16.6812 C   0  0  2  0  0  0  0  0  0  0  0  0
   -3.0178    1.6676   18.0034 N   0  0  0  0  0  0  0  0  0  0  0  0
   -1.1104    7.0554   18.9752 C   0  0  0  0  0  0  0  0  0  0  0  0
   -2.9289   -3.5714   17.5753 C   0  0  2  0  0  0  0  0  0  0  0  0
   -2.9072   -2.4523   18.5511 N   0  0  0  0  0  0  0  0  0  0  0  0
   -2.5181    1.7241   15.5410 C   0  0  1  0  0  0  0  0  0  0  0  0
   -2.0465    0.3169   15.6163 O   0  0  0  0  0  0  0  0  0  0  0  0
   -1.2666    5.8734   17.9232 C   0  0  2  0  0  0  0  0  0  0  0  0
   -0.9192    6.3537   16.5685 N   0  0  0  0  0  0  0  0  0  0  0  0
   -3.3861   -3.0479   16.1430 C   0  0  1  0  0  0  0  0  0  0  0  0
   -2.5363   -1.9871   15.6357 O   0  0  0  0  0  0  0  0  0  0  0  0
   -3.1856    2.1146   14.1497 C   0  0  2  0  0  0  0  0  0  0  0  0
   -2.2932    1.9062   13.0699 O   0  0  0  0  0  0  0  0  0  0  0  0
   -2.7544    5.3298   17.9387 C   0  0  2  0  0  0  0  0  0  0  0  0
   -3.3801   -4.2531   15.1499 C   0  0  2  0  0  0  0  0  0  0  0  0
   -3.7897   -3.8482   13.8585 O   0  0  0  0  0  0  0  0  0  0  0  0
   -3.6630    3.6164   14.1670 C   0  0  2  0  0  0  0  0  0  0  0  0
   -4.5911    3.8331   15.2966 O   0  0  0  0  0  0  0  0  0  0  0  0
   -3.1293    4.8145   19.3565 C   0  0  2  0  0  0  0  0  0  0  0  0
   -4.5153    4.3702   19.3052 O   0  0  0  0  0  0  0  0  0  0  0  0
   -4.3087   -5.4089   15.6985 C   0  0  2  0  0  0  0  0  0  0  0  0
   -3.8742   -5.8173   17.0540 O   0  0  0  0  0  0  0  0  0  0  0  0
   -4.3418    4.0064   12.8547 C   0  0  0  0  0  0  0  0  0  0  0  0
   -5.2357    3.0069   12.4298 O   0  0  0  0  0  0  0  0  0  0  0  0
   -2.9754    5.9603   20.3838 C   0  0  1  0  0  0  0  0  0  0  0  0
   -3.3160    5.4654   21.6618 O   0  0  0  0  0  0  0  0  0  0  0  0
   -4.3002   -6.6245   14.7841 C   0  0  0  0  0  0  0  0  0  0  0  0
   -3.0324   -7.2348   14.7902 O   0  0  0  0  0  0  0  0  0  0  0  0
   -3.1372   -0.6870   15.9074 C   0  0  0  0  0  0  0  0  0  0  0  0
  1  2  1  6  0  0  0
  1  7  1  0  0  0  0
  1 24  1  0  0  0  0
  3  4  1  1  0  0  0
  3  9  1  0  0  0  0
  3 31  1  0  0  0  0
  5  6  1  6  0  0  0
  5 10  1  0  0  0  0
  5 28  1  0  0  0  0
  7  8  1  1  0  0  0
  7 12  1  0  0  0  0
  9 14  1  0  0  0  0
 10 11  1  1  0  0  0
 10 16  1  0  0  0  0
 12 13  1  6  0  0  0
 12 18  1  0  0  0  0
 13 35  1  0  0  0  0
 14 15  1  6  0  0  0
 14 20  1  0  0  0  0
 16 17  1  6  0  0  0
 16 21  1  0  0  0  0
 17 35  1  0  0  0  0
 18 19  1  6  0  0  0
 18 23  1  0  0  0  0
 20  2  1  6  0  0  0
 20 25  1  0  0  0  0
 21 22  1  6  0  0  0
 21 27  1  0  0  0  0
 23 24  1  0  0  0  0
 23 29  1  6  0  0  0
 25 26  1  6  0  0  0
 25 31  1  0  0  0  0
 27 28  1  0  0  0  0
 27 33  1  6  0  0  0
 29 30  1  0  0  0  0
 31 32  1  1  0  0  0
 33 34  1  0  0  0  0
M  END
>  <CHROM.1>
-132.66681412,40.98392250,167.37305029,-97.32750284,168.02391244,-178.53427415
44.29622126,66.94552372,-3.18947342,1.01062766,16.73101451,0.67367660,-1.43074294
-0.63859911

>  <Name>
2o3v_lig

>  <RI>
0

>  <Rbt.Current_Directory>
/home/afrankz/demos/rdock_decoys_rna/rnas/2o3v

>  <Rbt.Executable>
rbdock ($Id: //depot/dev/client3/rdock/2013.1/src/exe/rbdock.cxx#4 $)

>  <Rbt.Library>
libRbt.so (2013.1, Build901 2013/11/27)

>  <Rbt.Parameter_File>
/export/apps/rDock/src/rDock_2013.1_src/data/scripts/dock_solv.prm

>  <Rbt.Receptor>
prm/blind_docking_60.prm

>  <SCORE>
31.1231

>  <SCORE.INTER>
28.4512

>  <SCORE.INTER.CONST>
1

>  <SCORE.INTER.POLAR>
-0.68922

>  <SCORE.INTER.ROT>
8

>  <SCORE.INTER.SOLV>
34.0915

>  <SCORE.INTER.VDW>
0.967663

>  <SCORE.INTER.norm>
0.81289

>  <SCORE.INTRA>
1.52961

>  <SCORE.INTRA.DIHEDRAL>
2.38059

>  <SCORE.INTRA.DIHEDRAL.0>
13.1227

>  <SCORE.INTRA.POLAR>
0

>  <SCORE.INTRA.POLAR.0>
0

>  <SCORE.INTRA.REPUL>
0

>  <SCORE.INTRA.REPUL.0>
0

>  <SCORE.INTRA.SOLV>
1.65228

>  <SCORE.INTRA.SOLV.lig_0>
-89.1587

>  <SCORE.INTRA.VDW>
-0.486831

>  <SCORE.INTRA.VDW.0>
-0.838383

>  <SCORE.INTRA.norm>
0.043703

>  <SCORE.RESTR>
1.14239

>  <SCORE.RESTR.CAVITY>
1.14239

>  <SCORE.RESTR.norm>
0.0326397

>  <SCORE.SYSTEM>
0

>  <SCORE.SYSTEM.CONST>
0

>  <SCORE.SYSTEM.DIHEDRAL>
0

>  <SCORE.SYSTEM.SOLV>
0

>  <SCORE.SYSTEM.norm>
0

>  <SCORE.heavy>
35

>  <SCORE.norm>
0.889233

>  <RMSD>
31.293

$$$$
2o3v_lig
 OpenBabel02141814113D
libRbt.so/2013.1/901 2013/11/27
 35 37  0  0  0  0  0  0  0  0999 V2000
   -2.4816   -1.5285   16.0216 C   0  0  2  0  0  0  0  0  0  0  0  0
   -3.8271   -2.0573   16.2291 O   0  0  0  0  0  0  0  0  0  0  0  0
   -3.3169   -6.3775   16.1773 C   0  0  2  0  0  0  0  0  0  0  0  0
   -3.6208   -7.8366   16.2815 N   0  0  0  0  0  0  0  0  0  0  0  0
   -5.9655    5.1802   18.7191 C   0  0  2  0  0  0  0  0  0  0  0  0
   -6.2471    3.8172   19.1047 O   0  0  0  0  0  0  0  0  0  0  0  0
   -2.5839   -0.0722   16.5758 C   0  0  2  0  0  0  0  0  0  0  0  0
   -2.9905   -0.0686   18.0009 N   0  0  0  0  0  0  0  0  0  0  0  0
   -3.5573   -5.6678   17.5787 C   0  0  0  0  0  0  0  0  0  0  0  0
   -5.2105    5.1346   17.3457 C   0  0  2  0  0  0  0  0  0  0  0  0
   -6.0168    4.4289   16.3177 N   0  0  0  0  0  0  0  0  0  0  0  0
   -3.6011    0.8061   15.7252 C   0  0  1  0  0  0  0  0  0  0  0  0
   -3.7174    2.1737   16.2950 O   0  0  0  0  0  0  0  0  0  0  0  0
   -3.2386   -4.1164   17.4375 C   0  0  2  0  0  0  0  0  0  0  0  0
   -3.4673   -3.4341   18.7293 N   0  0  0  0  0  0  0  0  0  0  0  0
   -3.7776    4.4552   17.4875 C   0  0  1  0  0  0  0  0  0  0  0  0
   -3.0424    4.4297   16.2371 O   0  0  0  0  0  0  0  0  0  0  0  0
   -3.1109    0.7700   14.2113 C   0  0  2  0  0  0  0  0  0  0  0  0
   -3.9757    1.5102   13.3685 O   0  0  0  0  0  0  0  0  0  0  0  0
   -4.1582   -3.4759   16.3179 C   0  0  2  0  0  0  0  0  0  0  0  0
   -2.9631    5.2375   18.5660 C   0  0  2  0  0  0  0  0  0  0  0  0
   -1.6801    4.6700   18.7430 O   0  0  0  0  0  0  0  0  0  0  0  0
   -3.0074   -0.7166   13.6983 C   0  0  2  0  0  0  0  0  0  0  0  0
   -2.1078   -1.4886   14.5810 O   0  0  0  0  0  0  0  0  0  0  0  0
   -3.9213   -4.1799   14.9524 C   0  0  2  0  0  0  0  0  0  0  0  0
   -4.8240   -3.5695   13.9862 O   0  0  0  0  0  0  0  0  0  0  0  0
   -3.7604    5.2633   19.9309 C   0  0  2  0  0  0  0  0  0  0  0  0
   -5.1043    5.8517   19.7298 O   0  0  0  0  0  0  0  0  0  0  0  0
   -2.5027   -0.7811   12.2575 C   0  0  0  0  0  0  0  0  0  0  0  0
   -1.5735    0.2431   11.9996 O   0  0  0  0  0  0  0  0  0  0  0  0
   -4.2268   -5.6902   15.0861 C   0  0  1  0  0  0  0  0  0  0  0  0
   -3.9989   -6.3059   13.8359 O   0  0  0  0  0  0  0  0  0  0  0  0
   -3.0244    6.0538   21.0021 C   0  0  0  0  0  0  0  0  0  0  0  0
   -3.7041    5.9661   22.2311 O   0  0  0  0  0  0  0  0  0  0  0  0
   -2.5562    3.0824   15.9662 C   0  0  0  0  0  0  0  0  0  0  0  0
  1  2  1  6  0  0  0
  1  7  1  0  0  0  0
  1 24  1  0  0  0  0
  3  4  1  1  0  0  0
  3  9  1  0  0  0  0
  3 31  1  0  0  0  0
  5  6  1  1  0  0  0
  5 10  1  0  0  0  0
  5 28  1  0  0  0  0
  7  8  1  1  0  0  0
  7 12  1  0  0  0  0
  9 14  1  0  0  0  0
 10 11  1  6  0  0  0
 10 16  1  0  0  0  0
 12 13  1  1  0  0  0
 12 18  1  0  0  0  0
 13 35  1  0  0  0  0
 14 15  1  1  0  0  0
 14 20  1  0  0  0  0
 16 17  1  6  0  0  0
 16 21  1  0  0  0  0
 17 35  1  0  0  0  0
 18 19  1  6  0  0  0
 18 23  1  0  0  0  0
 20  2  1  6  0  0  0
 20 25  1  0  0  0  0
 21 22  1  1  0  0  0
 21 27  1  0  0  0  0
 23 24  1  0  0  0  0
 23 29  1  6  0  0  0
 25 26  1  6  0  0  0
 25 31  1  0  0  0  0
 27 28  1  0  0  0  0
 27 33  1  1  0  0  0
 29 30  1  0  0  0  0
 31 32  1  6  0  0  0
 33 34  1  0  0  0  0
M  END
>  <CHROM.1>
-157.73239224,77.29088518,162.82645535,-128.97930346,43.62408270,53.89272820
34.29431061,-175.20097952,-3.62386596,0.38790376,16.58244923,-1.25768652
1.40973612,0.05096882

>  <Name>
2o3v_lig

>  <RI>
0

>  <Rbt.Current_Directory>
/home/afrankz/demos/rdock_decoys_rna/rnas/2o3v

>  <Rbt.Executable>
rbdock ($Id: //depot/dev/client3/rdock/2013.1/src/exe/rbdock.cxx#4 $)

>  <Rbt.Library>
libRbt.so (2013.1, Build901 2013/11/27)

>  <Rbt.Parameter_File>
/export/apps/rDock/src/rDock_2013.1_src/data/scripts/dock_solv.prm

>  <Rbt.Receptor>
prm/blind_docking_40.prm

>  <SCORE>
9.38029

>  <SCORE.INTER>
1.03693

>  <SCORE.INTER.CONST>
1

>  <SCORE.INTER.POLAR>
-0.80831

>  <SCORE.INTER.ROT>
8

>  <SCORE.INTER.SOLV>
28.8369

>  <SCORE.INTER.VDW>
-15.16

>  <SCORE.INTER.norm>
0.0296266

>  <SCORE.INTRA>
1.79021

>  <SCORE.INTRA.DIHEDRAL>
2.18177

>  <SCORE.INTRA.DIHEDRAL.0>
13.1227

>  <SCORE.INTRA.POLAR>
0

>  <SCORE.INTRA.POLAR.0>
0

>  <SCORE.INTRA.REPUL>
0

>  <SCORE.INTRA.REPUL.0>
0

>  <SCORE.INTRA.SOLV>
2.4702

>  <SCORE.INTRA.SOLV.lig_0>
-89.1587

>  <SCORE.INTRA.VDW>
-0.535778

>  <SCORE.INTRA.VDW.0>
-0.838383

>  <SCORE.INTRA.norm>
0.0511488

>  <SCORE.RESTR>
6.55315

>  <SCORE.RESTR.CAVITY>
6.55315

>  <SCORE.RESTR.norm>
0.187233

>  <SCORE.SYSTEM>
0

>  <SCORE.SYSTEM.CONST>
0

>  <SCORE.SYSTEM.DIHEDRAL>
0

>  <SCORE.SYSTEM.SOLV>
0

>  <SCORE.SYSTEM.norm>
0

>  <SCORE.heavy>
35

>  <SCORE.norm>
0.268008

>  <RMSD>
31.297

$$$$
2o3v_lig
 OpenBabel02141814113D
libRbt.so/2013.1/901 2013/11/27
 35 37  0  0  0  0  0  0  0  0999 V2000
   -3.1558    5.3835   18.1670 C   0  0  2  0  0  0  0  0  0  0  0  0
   -2.6012    5.7824   16.8762 O   0  0  0  0  0  0  0  0  0  0  0  0
    1.1683    7.7168   15.8881 C   0  0  2  0  0  0  0  0  0  0  0  0
    2.1940    8.7800   15.6653 N   0  0  0  0  0  0  0  0  0  0  0  0
   -4.6240   -3.8270   16.3024 C   0  0  2  0  0  0  0  0  0  0  0  0
   -4.6543   -3.4658   14.9045 O   0  0  0  0  0  0  0  0  0  0  0  0
   -2.5257    3.9743   18.4030 C   0  0  2  0  0  0  0  0  0  0  0  0
   -1.0453    4.0434   18.4090 N   0  0  0  0  0  0  0  0  0  0  0  0
   -0.0646    7.9332   14.9091 C   0  0  0  0  0  0  0  0  0  0  0  0
   -4.3566   -2.5172   17.1217 C   0  0  2  0  0  0  0  0  0  0  0  0
   -5.3945   -1.4928   16.8419 N   0  0  0  0  0  0  0  0  0  0  0  0
   -3.0097    2.9274   17.3079 C   0  0  1  0  0  0  0  0  0  0  0  0
   -2.3650    1.6060   17.5238 O   0  0  0  0  0  0  0  0  0  0  0  0
   -1.1451    6.7971   15.1743 C   0  0  2  0  0  0  0  0  0  0  0  0
   -2.3075    6.9870   14.2803 N   0  0  0  0  0  0  0  0  0  0  0  0
   -2.9061   -1.9296   16.8293 C   0  0  1  0  0  0  0  0  0  0  0  0
   -2.6189   -0.7346   17.6001 O   0  0  0  0  0  0  0  0  0  0  0  0
   -4.6004    2.8921   17.3531 C   0  0  2  0  0  0  0  0  0  0  0  0
   -5.1268    1.9989   16.3882 O   0  0  0  0  0  0  0  0  0  0  0  0
   -1.6140    6.8405   16.6868 C   0  0  2  0  0  0  0  0  0  0  0  0
   -1.8502   -3.0344   17.1502 C   0  0  2  0  0  0  0  0  0  0  0  0
   -0.5383   -2.5708   16.8980 O   0  0  0  0  0  0  0  0  0  0  0  0
   -5.1928    4.3348   17.1258 C   0  0  2  0  0  0  0  0  0  0  0  0
   -4.6396    5.2665   18.1310 O   0  0  0  0  0  0  0  0  0  0  0  0
   -0.4014    6.6344   17.6372 C   0  0  2  0  0  0  0  0  0  0  0  0
   -0.8990    6.7261   19.0029 O   0  0  0  0  0  0  0  0  0  0  0  0
   -2.1586   -4.3365   16.3084 C   0  0  2  0  0  0  0  0  0  0  0  0
   -3.5373   -4.8063   16.5753 O   0  0  0  0  0  0  0  0  0  0  0  0
   -6.7189    4.3351   17.2015 C   0  0  0  0  0  0  0  0  0  0  0  0
   -7.2335    5.6357   17.0515 O   0  0  0  0  0  0  0  0  0  0  0  0
    0.6539    7.7354   17.3801 C   0  0  1  0  0  0  0  0  0  0  0  0
    1.7452    7.5223   18.2506 O   0  0  0  0  0  0  0  0  0  0  0  0
   -1.1796   -5.4582   16.6208 C   0  0  0  0  0  0  0  0  0  0  0  0
   -1.4443   -6.0011   17.8917 O   0  0  0  0  0  0  0  0  0  0  0  0
   -3.1037    0.4468   16.8970 C   0  0  0  0  0  0  0  0  0  0  0  0
  1  2  1  6  0  0  0
  1  7  1  0  0  0  0
  1 24  1  0  0  0  0
  3  4  1  1  0  0  0
  3  9  1  0  0  0  0
  3 31  1  0  0  0  0
  5  6  1  6  0  0  0
  5 10  1  0  0  0  0
  5 28  1  0  0  0  0
  7  8  1  6  0  0  0
  7 12  1  0  0  0  0
  9 14  1  0  0  0  0
 10 11  1  6  0  0  0
 10 16  1  0  0  0  0
 12 13  1  1  0  0  0
 12 18  1  0  0  0  0
 13 35  1  0  0  0  0
 14 15  1  6  0  0  0
 14 20  1  0  0  0  0
 16 17  1  1  0  0  0
 16 21  1  0  0  0  0
 17 35  1  0  0  0  0
 18 19  1  6  0  0  0
 18 23  1  0  0  0  0
 20  2  1  6  0  0  0
 20 25  1  0  0  0  0
 21 22  1  6  0  0  0
 21 27  1  0  0  0  0
 23 24  1  0  0  0  0
 23 29  1  1  0  0  0
 25 26  1  1  0  0  0
 25 31  1  0  0  0  0
 27 28  1  0  0  0  0
 27 33  1  1  0  0  0
 29 30  1  0  0  0  0
 31 32  1  1  0  0  0
 33 34  1  0  0  0  0
M  END
>  <CHROM.1>
-109.84244833,158.65062771,-160.17673999,-86.75808544,-161.54698331,172.08811134
177.60245015,72.85357846,-2.51221379,2.29297742,16.94958652,1.38361024,0.01029939
0.00907523

>  <Name>
2o3v_lig

>  <RI>
0

>  <Rbt.Current_Directory>
/home/afrankz/demos/rdock_decoys_rna/rnas/2o3v

>  <Rbt.Executable>
rbdock ($Id: //depot/dev/client3/rdock/2013.1/src/exe/rbdock.cxx#4 $)

>  <Rbt.Library>
libRbt.so (2013.1, Build901 2013/11/27)

>  <Rbt.Parameter_File>
/export/apps/rDock/src/rDock_2013.1_src/data/scripts/dock_solv.prm

>  <Rbt.Receptor>
prm/blind_docking_20.prm

>  <SCORE>
-4.49424

>  <SCORE.INTER>
-13.737

>  <SCORE.INTER.CONST>
1

>  <SCORE.INTER.POLAR>
-1.49468

>  <SCORE.INTER.ROT>
8

>  <SCORE.INTER.SOLV>
30.8768

>  <SCORE.INTER.VDW>
-23.4013

>  <SCORE.INTER.norm>
-0.392484

>  <SCORE.INTRA>
4.59209

>  <SCORE.INTRA.DIHEDRAL>
2.84247

>  <SCORE.INTRA.DIHEDRAL.0>
13.1227

>  <SCORE.INTRA.POLAR>
0

>  <SCORE.INTRA.POLAR.0>
0

>  <SCORE.INTRA.REPUL>
0.0522061

>  <SCORE.INTRA.REPUL.0>
0

>  <SCORE.INTRA.SOLV>
2.41337

>  <SCORE.INTRA.SOLV.lig_0>
-89.1587

>  <SCORE.INTRA.VDW>
1.70314

>  <SCORE.INTRA.VDW.0>
-0.838383

>  <SCORE.INTRA.norm>
0.131203

>  <SCORE.RESTR>
4.65063

>  <SCORE.RESTR.CAVITY>
4.65063

>  <SCORE.RESTR.norm>
0.132875

>  <SCORE.SYSTEM>
0

>  <SCORE.SYSTEM.CONST>
0

>  <SCORE.SYSTEM.DIHEDRAL>
0

>  <SCORE.SYSTEM.SOLV>
0

>  <SCORE.SYSTEM.norm>
0

>  <SCORE.heavy>
35

>  <SCORE.norm>
-0.128407

>  <RMSD>
31.317

$$$$
2o3v_lig
 OpenBabel02141814113D
libRbt.so/2013.1/901 2013/11/27
 35 37  0  0  0  0  0  0  0  0999 V2000
   -4.7511    2.2040   16.3548 C   0  0  2  0  0  0  0  0  0  0  0  0
   -3.6395    2.9082   16.9881 O   0  0  0  0  0  0  0  0  0  0  0  0
   -3.7726    5.6056   20.3990 C   0  0  2  0  0  0  0  0  0  0  0  0
   -3.8772    6.8597   21.2042 N   0  0  0  0  0  0  0  0  0  0  0  0
   -3.9913   -5.2545   18.2747 C   0  0  2  0  0  0  0  0  0  0  0  0
   -5.3960   -4.9485   18.1384 O   0  0  0  0  0  0  0  0  0  0  0  0
   -4.2015    0.7520   16.1875 C   0  0  2  0  0  0  0  0  0  0  0  0
   -3.8213    0.1689   17.4959 N   0  0  0  0  0  0  0  0  0  0  0  0
   -2.5127    5.6798   19.4332 C   0  0  0  0  0  0  0  0  0  0  0  0
   -3.1878   -4.0908   17.5976 C   0  0  2  0  0  0  0  0  0  0  0  0
   -3.5265   -2.7820   18.2118 N   0  0  0  0  0  0  0  0  0  0  0  0
   -2.9565    0.7092   15.1988 C   0  0  1  0  0  0  0  0  0  0  0  0
   -2.4213   -0.6727   15.0881 O   0  0  0  0  0  0  0  0  0  0  0  0
   -2.4312    4.3401   18.5806 C   0  0  2  0  0  0  0  0  0  0  0  0
   -1.2707    4.3934   17.6658 N   0  0  0  0  0  0  0  0  0  0  0  0
   -3.4362   -4.0452   16.0256 C   0  0  1  0  0  0  0  0  0  0  0  0
   -2.6781   -2.9975   15.3680 O   0  0  0  0  0  0  0  0  0  0  0  0
   -3.4257    1.3396   13.8146 C   0  0  2  0  0  0  0  0  0  0  0  0
   -2.3687    1.3666   12.8723 O   0  0  0  0  0  0  0  0  0  0  0  0
   -3.7659    4.1468   17.7497 C   0  0  2  0  0  0  0  0  0  0  0  0
   -3.0541   -5.4344   15.4233 C   0  0  2  0  0  0  0  0  0  0  0  0
   -3.2651   -5.4564   14.0253 O   0  0  0  0  0  0  0  0  0  0  0  0
   -3.9862    2.7965   14.0316 C   0  0  2  0  0  0  0  0  0  0  0  0
   -5.0865    2.7672   15.0180 O   0  0  0  0  0  0  0  0  0  0  0  0
   -4.9932    4.0815   18.7013 C   0  0  2  0  0  0  0  0  0  0  0  0
   -6.1811    3.9443   17.8699 O   0  0  0  0  0  0  0  0  0  0  0  0
   -3.8818   -6.5775   16.1356 C   0  0  2  0  0  0  0  0  0  0  0  0
   -3.6585   -6.5378   17.5990 O   0  0  0  0  0  0  0  0  0  0  0  0
   -4.4785    3.4111   12.7221 C   0  0  0  0  0  0  0  0  0  0  0  0
   -4.3018    4.8067   12.7193 O   0  0  0  0  0  0  0  0  0  0  0  0
   -5.0744    5.3815   19.5352 C   0  0  1  0  0  0  0  0  0  0  0  0
   -6.1923    5.2943   20.3936 O   0  0  0  0  0  0  0  0  0  0  0  0
   -3.5109   -7.9564   15.6111 C   0  0  0  0  0  0  0  0  0  0  0  0
   -3.5179   -7.9647   14.2040 O   0  0  0  0  0  0  0  0  0  0  0  0
   -3.4404   -1.7549   15.3580 C   0  0  0  0  0  0  0  0  0  0  0  0
  1  2  1  6  0  0  0
  1  7  1  0  0  0  0
  1 24  1  0  0  0  0
  3  4  1  6  0  0  0
  3  9  1  0  0  0  0
  3 31  1  0  0  0  0
  5  6  1  6  0  0  0
  5 10  1  0  0  0  0
  5 28  1  0  0  0  0
  7  8  1  1  0  0  0
  7 12  1  0  0  0  0
  9 14  1  0  0  0  0
 10 11  1  1  0  0  0
 10 16  1  0  0  0  0
 12 13  1  6  0  0  0
 12 18  1  0  0  0  0
 13 35  1  0  0  0  0
 14 15  1  6  0  0  0
 14 20  1  0  0  0  0
 16 17  1  6  0  0  0
 16 21  1  0  0  0  0
 17 35  1  0  0  0  0
 18 19  1  6  0  0  0
 18 23  1  0  0  0  0
 20  2  1  1  0  0  0
 20 25  1  0  0  0  0
 21 22  1  6  0  0  0
 21 27  1  0  0  0  0
 23 24  1  0  0  0  0
 23 29  1  6  0  0  0
 25 26  1  6  0  0  0
 25 31  1  0  0  0  0
 27 28  1  0  0  0  0
 27 33  1  6  0  0  0
 29 30  1  0  0  0  0
 31 32  1  1  0  0  0
 33 34  1  0  0  0  0
M  END
>  <CHROM.1>
-158.79159495,26.36107748,-172.90477300,-88.61703034,161.82947116,164.47320465
-148.49862497,-48.73397134,-3.78599951,0.14014901,16.58231314,-1.98923988
-1.44231126,2.92410293

>  <Name>
2o3v_lig

>  <RI>
0

>  <Rbt.Current_Directory>
/home/afrankz/demos/rdock_decoys_rna/rnas/2o3v

>  <Rbt.Executable>
rbdock ($Id: //depot/dev/client3/rdock/2013.1/src/exe/rbdock.cxx#4 $)

>  <Rbt.Library>
libRbt.so (2013.1, Build901 2013/11/27)

>  <Rbt.Parameter_File>
/export/apps/rDock/src/rDock_2013.1_src/data/scripts/dock_solv.prm

>  <Rbt.Receptor>
prm/blind_docking_40.prm

>  <SCORE>
10.1786

>  <SCORE.INTER>
2.47871

>  <SCORE.INTER.CONST>
1

>  <SCORE.INTER.POLAR>
-1.4635

>  <SCORE.INTER.ROT>
8

>  <SCORE.INTER.SOLV>
32.0895

>  <SCORE.INTER.VDW>
-13.099

>  <SCORE.INTER.norm>
0.0708204

>  <SCORE.INTRA>
5.31445

>  <SCORE.INTRA.DIHEDRAL>
2.7131

>  <SCORE.INTRA.DIHEDRAL.0>
13.1227

>  <SCORE.INTRA.POLAR>
0

>  <SCORE.INTRA.POLAR.0>
0

>  <SCORE.INTRA.REPUL>
0.181604

>  <SCORE.INTRA.REPUL.0>
0

>  <SCORE.INTRA.SOLV>
2.3954

>  <SCORE.INTRA.SOLV.lig_0>
-89.1587

>  <SCORE.INTRA.VDW>
1.85219

>  <SCORE.INTRA.VDW.0>
-0.838383

>  <SCORE.INTRA.norm>
0.151841

>  <SCORE.RESTR>
2.38548

>  <SCORE.RESTR.CAVITY>
2.38548

>  <SCORE.RESTR.norm>
0.0681564

>  <SCORE.SYSTEM>
0

>  <SCORE.SYSTEM.CONST>
0

>  <SCORE.SYSTEM.DIHEDRAL>
0

>  <SCORE.SYSTEM.SOLV>
0

>  <SCORE.SYSTEM.norm>
0

>  <SCORE.heavy>
35

>  <SCORE.norm>
0.290818

>  <RMSD>
31.361

$$$$
2o3v_lig
 OpenBabel02141814113D
libRbt.so/2013.1/901 2013/11/27
 35 37  0  0  0  0  0  0  0  0999 V2000
   -4.6332    3.5112   16.0373 C   0  0  2  0  0  0  0  0  0  0  0  0
   -3.4905    3.9252   16.8471 O   0  0  0  0  0  0  0  0  0  0  0  0
   -0.5138    7.0827   16.5369 C   0  0  2  0  0  0  0  0  0  0  0  0
    0.1046    8.4425   16.5076 N   0  0  0  0  0  0  0  0  0  0  0  0
   -1.6425   -5.2061   16.1058 C   0  0  2  0  0  0  0  0  0  0  0  0
   -0.6907   -5.0121   17.1745 O   0  0  0  0  0  0  0  0  0  0  0  0
   -5.0939    2.1873   16.7253 C   0  0  2  0  0  0  0  0  0  0  0  0
   -5.4480    2.4167   18.1459 N   0  0  0  0  0  0  0  0  0  0  0  0
   -1.5833    6.9434   15.3698 C   0  0  0  0  0  0  0  0  0  0  0  0
   -2.5140   -3.9062   16.0097 C   0  0  2  0  0  0  0  0  0  0  0  0
   -1.6640   -2.7110   15.7773 N   0  0  0  0  0  0  0  0  0  0  0  0
   -3.9779    1.0586   16.6259 C   0  0  1  0  0  0  0  0  0  0  0  0
   -4.4175   -0.1773   17.3243 O   0  0  0  0  0  0  0  0  0  0  0  0
   -2.2337    5.4937   15.4306 C   0  0  2  0  0  0  0  0  0  0  0  0
   -3.2416    5.3470   14.3586 N   0  0  0  0  0  0  0  0  0  0  0  0
   -3.4093   -3.7040   17.3105 C   0  0  1  0  0  0  0  0  0  0  0  0
   -4.2517   -2.5253   17.2343 O   0  0  0  0  0  0  0  0  0  0  0  0
   -3.6451    0.8524   15.0830 C   0  0  2  0  0  0  0  0  0  0  0  0
   -2.6363   -0.1240   14.8962 O   0  0  0  0  0  0  0  0  0  0  0  0
   -2.9111    5.2647   16.8441 C   0  0  2  0  0  0  0  0  0  0  0  0
   -4.2936   -4.9763   17.5058 C   0  0  2  0  0  0  0  0  0  0  0  0
   -5.1058   -4.8575   18.6572 O   0  0  0  0  0  0  0  0  0  0  0  0
   -3.1999    2.2140   14.4261 C   0  0  2  0  0  0  0  0  0  0  0  0
   -4.2519    3.2329   14.6253 O   0  0  0  0  0  0  0  0  0  0  0  0
   -1.8596    5.4089   17.9798 C   0  0  2  0  0  0  0  0  0  0  0  0
   -2.5581    5.2265   19.2447 O   0  0  0  0  0  0  0  0  0  0  0  0
   -3.3777   -6.2619   17.5931 C   0  0  2  0  0  0  0  0  0  0  0  0
   -2.5269   -6.3695   16.3859 O   0  0  0  0  0  0  0  0  0  0  0  0
   -2.9100    2.0512   12.9347 C   0  0  0  0  0  0  0  0  0  0  0  0
   -3.9501    2.5883   12.1546 O   0  0  0  0  0  0  0  0  0  0  0  0
   -1.2217    6.8167   17.9222 C   0  0  1  0  0  0  0  0  0  0  0  0
   -0.2682    6.9194   18.9587 O   0  0  0  0  0  0  0  0  0  0  0  0
   -4.1992   -7.5337   17.7401 C   0  0  0  0  0  0  0  0  0  0  0  0
   -3.3557   -8.6438   17.9304 O   0  0  0  0  0  0  0  0  0  0  0  0
   -3.4323   -1.3196   17.2408 C   0  0  0  0  0  0  0  0  0  0  0  0
  1  2  1  1  0  0  0
  1  7  1  0  0  0  0
  1 24  1  0  0  0  0
  3  4  1  1  0  0  0
  3  9  1  0  0  0  0
  3 31  1  0  0  0  0
  5  6  1  1  0  0  0
  5 10  1  0  0  0  0
  5 28  1  0  0  0  0
  7  8  1  1  0  0  0
  7 12  1  0  0  0  0
  9 14  1  0  0  0  0
 10 11  1  1  0  0  0
 10 16  1  0  0  0  0
 12 13  1  6  0  0  0
 12 18  1  0  0  0  0
 13 35  1  0  0  0  0
 14 15  1  6  0  0  0
 14 20  1  0  0  0  0
 16 17  1  6  0  0  0
 16 21  1  0  0  0  0
 17 35  1  0  0  0  0
 18 19  1  1  0  0  0
 18 23  1  0  0  0  0
 20  2  1  6  0  0  0
 20 25  1  0  0  0  0
 21 22  1  1  0  0  0
 21 27  1  0  0  0  0
 23 24  1  0  0  0  0
 23 29  1  6  0  0  0
 25 26  1  1  0  0  0
 25 31  1  0  0  0  0
 27 28  1  0  0  0  0
 27 33  1  6  0  0  0
 29 30  1  0  0  0  0
 31 32  1  1  0  0  0
 33 34  1  0  0  0  0
M  END
>  <CHROM.1>
-163.36603445,178.12877827,-147.84365246,-66.78769913,-173.48553732,-68.05874571
104.65435262,-174.94530984,-2.99022763,0.60890608,16.51637845,1.21557931
-1.27457188,-0.40478399

>  <Name>
2o3v_lig

>  <RI>
0

>  <Rbt.Current_Directory>
/home/afrankz/demos/rdock_decoys_rna/rnas/2o3v

>  <Rbt.Executable>
rbdock ($Id: //depot/dev/client3/rdock/2013.1/src/exe/rbdock.cxx#4 $)

>  <Rbt.Library>
libRbt.so (2013.1, Build901 2013/11/27)

>  <Rbt.Parameter_File>
/export/apps/rDock/src/rDock_2013.1_src/data/scripts/dock_solv.prm

>  <Rbt.Receptor>
prm/blind_docking_100.prm

>  <SCORE>
-6.35274

>  <SCORE.INTER>
-10.9581

>  <SCORE.INTER.CONST>
1

>  <SCORE.INTER.POLAR>
-0.979796

>  <SCORE.INTER.ROT>
8

>  <SCORE.INTER.SOLV>
26.0621

>  <SCORE.INTER.VDW>
-21.6601

>  <SCORE.INTER.norm>
-0.313089

>  <SCORE.INTRA>
3.65122

>  <SCORE.INTRA.DIHEDRAL>
-2.46474

>  <SCORE.INTRA.DIHEDRAL.0>
13.1227

>  <SCORE.INTRA.POLAR>
0

>  <SCORE.INTRA.POLAR.0>
0

>  <SCORE.INTRA.REPUL>
0.135605

>  <SCORE.INTRA.REPUL.0>
0

>  <SCORE.INTRA.SOLV>
4.58333

>  <SCORE.INTRA.SOLV.lig_0>
-89.1587

>  <SCORE.INTRA.VDW>
1.91389

>  <SCORE.INTRA.VDW.0>
-0.838383

>  <SCORE.INTRA.norm>
0.10432

>  <SCORE.RESTR>
0.954146

>  <SCORE.RESTR.CAVITY>
0.954146

>  <SCORE.RESTR.norm>
0.0272613

>  <SCORE.SYSTEM>
0

>  <SCORE.SYSTEM.CONST>
0

>  <SCORE.SYSTEM.DIHEDRAL>
0

>  <SCORE.SYSTEM.SOLV>
0

>  <SCORE.SYSTEM.norm>
0

>  <SCORE.heavy>
35

>  <SCORE.norm>
-0.181507

>  <RMSD>
31.372

$$$$
2o3v_lig
 OpenBabel02141814113D
libRbt.so/2013.1/901 2013/11/27
 35 37  0  0  0  0  0  0  0  0999 V2000
   -5.9778    1.2742   16.1876 C   0  0  2  0  0  0  0  0  0  0  0  0
   -5.5903    1.4795   17.5806 O   0  0  0  0  0  0  0  0  0  0  0  0
   -3.3104    5.1848   17.5594 C   0  0  2  0  0  0  0  0  0  0  0  0
   -2.5871    6.4005   18.0402 N   0  0  0  0  0  0  0  0  0  0  0  0
   -4.4167   -5.5970   17.7840 C   0  0  2  0  0  0  0  0  0  0  0  0
   -5.7172   -4.9790   17.8954 O   0  0  0  0  0  0  0  0  0  0  0  0
   -4.9992    0.1555   15.7088 C   0  0  2  0  0  0  0  0  0  0  0  0
   -5.1405   -1.0686   16.5322 N   0  0  0  0  0  0  0  0  0  0  0  0
   -4.8354    5.2455   18.0021 C   0  0  0  0  0  0  0  0  0  0  0  0
   -3.3779   -4.4590   17.4939 C   0  0  2  0  0  0  0  0  0  0  0  0
   -3.4058   -3.4274   18.5616 N   0  0  0  0  0  0  0  0  0  0  0  0
   -3.4879    0.6502   15.7377 C   0  0  1  0  0  0  0  0  0  0  0  0
   -2.5700   -0.4418   15.3215 O   0  0  0  0  0  0  0  0  0  0  0  0
   -5.5786    3.9368   17.4889 C   0  0  2  0  0  0  0  0  0  0  0  0
   -6.9984    3.9677   17.9008 N   0  0  0  0  0  0  0  0  0  0  0  0
   -3.6254   -3.7892   16.0709 C   0  0  1  0  0  0  0  0  0  0  0  0
   -2.6568   -2.7543   15.7617 O   0  0  0  0  0  0  0  0  0  0  0  0
   -3.3974    1.9578   14.8346 C   0  0  2  0  0  0  0  0  0  0  0  0
   -2.0842    2.4879   14.8198 O   0  0  0  0  0  0  0  0  0  0  0  0
   -4.8724    2.6479   18.0802 C   0  0  2  0  0  0  0  0  0  0  0  0
   -3.5733   -4.9070   14.9816 C   0  0  2  0  0  0  0  0  0  0  0  0
   -3.7980   -4.3701   13.6928 O   0  0  0  0  0  0  0  0  0  0  0  0
   -4.4105    3.0528   15.3429 C   0  0  2  0  0  0  0  0  0  0  0  0
   -5.7799    2.4969   15.3615 O   0  0  0  0  0  0  0  0  0  0  0  0
   -3.3802    2.5998   17.6476 C   0  0  2  0  0  0  0  0  0  0  0  0
   -2.7887    1.4168   18.2574 O   0  0  0  0  0  0  0  0  0  0  0  0
   -4.6308   -6.0342   15.3140 C   0  0  2  0  0  0  0  0  0  0  0  0
   -4.3895   -6.5815   16.6687 O   0  0  0  0  0  0  0  0  0  0  0  0
   -4.3703    4.3058   14.4694 C   0  0  0  0  0  0  0  0  0  0  0  0
   -3.1776    5.0246   14.6688 O   0  0  0  0  0  0  0  0  0  0  0  0
   -2.6542    3.8728   18.1418 C   0  0  1  0  0  0  0  0  0  0  0  0
   -1.3045    3.8069   17.7318 O   0  0  0  0  0  0  0  0  0  0  0  0
   -4.5864   -7.1688   14.3018 C   0  0  0  0  0  0  0  0  0  0  0  0
   -5.2866   -6.8130   13.1343 O   0  0  0  0  0  0  0  0  0  0  0  0
   -3.2688   -1.7234   14.9322 C   0  0  0  0  0  0  0  0  0  0  0  0
  1  2  1  1  0  0  0
  1  7  1  0  0  0  0
  1 24  1  0  0  0  0
  3  4  1  1  0  0  0
  3  9  1  0  0  0  0
  3 31  1  0  0  0  0
  5  6  1  6  0  0  0
  5 10  1  0  0  0  0
  5 28  1  0  0  0  0
  7  8  1  1  0  0  0
  7 12  1  0  0  0  0
  9 14  1  0  0  0  0
 10 11  1  1  0  0  0
 10 16  1  0  0  0  0
 12 13  1  6  0  0  0
 12 18  1  0  0  0  0
 13 35  1  0  0  0  0
 14 15  1  1  0  0  0
 14 20  1  0  0  0  0
 16 17  1  6  0  0  0
 16 21  1  0  0  0  0
 17 35  1  0  0  0  0
 18 19  1  1  0  0  0
 18 23  1  0  0  0  0
 20  2  1  6  0  0  0
 20 25  1  0  0  0  0
 21 22  1  6  0  0  0
 21 27  1  0  0  0  0
 23 24  1  0  0  0  0
 23 29  1  6  0  0  0
 25 26  1  1  0  0  0
 25 31  1  0  0  0  0
 27 28  1  0  0  0  0
 27 33  1  6  0  0  0
 29 30  1  0  0  0  0
 31 32  1  6  0  0  0
 33 34  1  0  0  0  0
M  END
>  <CHROM.1>
107.51718384,1.89704147,-125.64201350,-148.47233436,148.10538144,47.07161148
-71.36550724,-79.94091122,-4.04219018,-0.09816822,16.31572091,1.37486532
1.33334284,0.32204898

>  <Name>
2o3v_lig

>  <RI>
0

>  <Rbt.Current_Directory>
/home/afrankz/demos/rdock_decoys_rna/rnas/2o3v

>  <Rbt.Executable>
rbdock ($Id: //depot/dev/client3/rdock/2013.1/src/exe/rbdock.cxx#4 $)

>  <Rbt.Library>
libRbt.so (2013.1, Build901 2013/11/27)

>  <Rbt.Parameter_File>
/export/apps/rDock/src/rDock_2013.1_src/data/scripts/dock_solv.prm

>  <Rbt.Receptor>
prm/blind_docking_40.prm

>  <SCORE>
32.1569

>  <SCORE.INTER>
0.324893

>  <SCORE.INTER.CONST>
1

>  <SCORE.INTER.POLAR>
-1.43139

>  <SCORE.INTER.ROT>
8

>  <SCORE.INTER.SOLV>
27.2003

>  <SCORE.INTER.VDW>
-13.0122

>  <SCORE.INTER.norm>
0.00928265

>  <SCORE.INTRA>
28.6935

>  <SCORE.INTRA.DIHEDRAL>
17.9448

>  <SCORE.INTRA.DIHEDRAL.0>
13.1227

>  <SCORE.INTRA.POLAR>
0

>  <SCORE.INTRA.POLAR.0>
0

>  <SCORE.INTRA.REPUL>
0

>  <SCORE.INTRA.REPUL.0>
0

>  <SCORE.INTRA.SOLV>
8.74033

>  <SCORE.INTRA.SOLV.lig_0>
-89.1587

>  <SCORE.INTRA.VDW>
15.3509

>  <SCORE.INTRA.VDW.0>
-0.838383

>  <SCORE.INTRA.norm>
0.819813

>  <SCORE.RESTR>
3.13857

>  <SCORE.RESTR.CAVITY>
3.13857

>  <SCORE.RESTR.norm>
0.0896734

>  <SCORE.SYSTEM>
0

>  <SCORE.SYSTEM.CONST>
0

>  <SCORE.SYSTEM.DIHEDRAL>
0

>  <SCORE.SYSTEM.SOLV>
0

>  <SCORE.SYSTEM.norm>
0

>  <SCORE.heavy>
35

>  <SCORE.norm>
0.918769

>  <RMSD>
31.384

$$$$
2o3v_lig
 OpenBabel02141814113D
libRbt.so/2013.1/901 2013/11/27
 35 37  0  0  0  0  0  0  0  0999 V2000
   -4.4935    2.7858   15.4597 C   0  0  2  0  0  0  0  0  0  0  0  0
   -3.4378    3.5661   16.0996 O   0  0  0  0  0  0  0  0  0  0  0  0
   -4.6450    5.2943   19.9052 C   0  0  2  0  0  0  0  0  0  0  0  0
   -4.8639    6.2890   20.9984 N   0  0  0  0  0  0  0  0  0  0  0  0
   -3.1589   -6.0358   15.9131 C   0  0  2  0  0  0  0  0  0  0  0  0
   -3.2253   -5.5699   14.5478 O   0  0  0  0  0  0  0  0  0  0  0  0
   -4.6212    1.5355   16.3864 C   0  0  2  0  0  0  0  0  0  0  0  0
   -4.9578    1.9297   17.7748 N   0  0  0  0  0  0  0  0  0  0  0  0
   -3.0910    5.1369   19.6127 C   0  0  0  0  0  0  0  0  0  0  0  0
   -4.0308   -5.0668   16.7843 C   0  0  2  0  0  0  0  0  0  0  0  0
   -5.4297   -5.0178   16.2886 N   0  0  0  0  0  0  0  0  0  0  0  0
   -3.2885    0.6676   16.3831 C   0  0  1  0  0  0  0  0  0  0  0  0
   -3.4147   -0.4917   17.3042 O   0  0  0  0  0  0  0  0  0  0  0  0
   -2.8866    4.0833   18.4395 C   0  0  2  0  0  0  0  0  0  0  0  0
   -1.4460    3.9303   18.1433 N   0  0  0  0  0  0  0  0  0  0  0  0
   -3.4088   -3.6019   16.8312 C   0  0  1  0  0  0  0  0  0  0  0  0
   -4.1781   -2.6918   17.6586 O   0  0  0  0  0  0  0  0  0  0  0  0
   -2.9829    0.2699   14.8724 C   0  0  2  0  0  0  0  0  0  0  0  0
   -1.7920   -0.4894   14.7668 O   0  0  0  0  0  0  0  0  0  0  0  0
   -3.6571    4.5641   17.1417 C   0  0  2  0  0  0  0  0  0  0  0  0
   -1.9466   -3.7017   17.3704 C   0  0  2  0  0  0  0  0  0  0  0  0
   -1.3377   -2.4266   17.4241 O   0  0  0  0  0  0  0  0  0  0  0  0
   -2.8774    1.5585   13.9713 C   0  0  2  0  0  0  0  0  0  0  0  0
   -4.1192    2.3517   14.0856 O   0  0  0  0  0  0  0  0  0  0  0  0
   -5.1748    4.7214   17.4383 C   0  0  2  0  0  0  0  0  0  0  0  0
   -5.8087    5.2018   16.2182 O   0  0  0  0  0  0  0  0  0  0  0  0
   -1.1049   -4.6899   16.4681 C   0  0  2  0  0  0  0  0  0  0  0  0
   -1.7577   -6.0180   16.4136 O   0  0  0  0  0  0  0  0  0  0  0  0
   -2.6211    1.2025   12.5076 C   0  0  0  0  0  0  0  0  0  0  0  0
   -3.7919    0.7276   11.8890 O   0  0  0  0  0  0  0  0  0  0  0  0
   -5.3781    5.7431   18.5815 C   0  0  1  0  0  0  0  0  0  0  0  0
   -6.7621    5.8631   18.8346 O   0  0  0  0  0  0  0  0  0  0  0  0
    0.3176   -4.8533   16.9815 C   0  0  0  0  0  0  0  0  0  0  0  0
    1.0376   -5.7398   16.1593 O   0  0  0  0  0  0  0  0  0  0  0  0
   -4.4911   -1.4776   16.9149 C   0  0  0  0  0  0  0  0  0  0  0  0
  1  2  1  1  0  0  0
  1  7  1  0  0  0  0
  1 24  1  0  0  0  0
  3  4  1  1  0  0  0
  3  9  1  0  0  0  0
  3 31  1  0  0  0  0
  5  6  1  6  0  0  0
  5 10  1  0  0  0  0
  5 28  1  0  0  0  0
  7  8  1  1  0  0  0
  7 12  1  0  0  0  0
  9 14  1  0  0  0  0
 10 11  1  6  0  0  0
 10 16  1  0  0  0  0
 12 13  1  1  0  0  0
 12 18  1  0  0  0  0
 13 35  1  0  0  0  0
 14 15  1  6  0  0  0
 14 20  1  0  0  0  0
 16 17  1  1  0  0  0
 16 21  1  0  0  0  0
 17 35  1  0  0  0  0
 18 19  1  1  0  0  0
 18 23  1  0  0  0  0
 20  2  1  6  0  0  0
 20 25  1  0  0  0  0
 21 22  1  6  0  0  0
 21 27  1  0  0  0  0
 23 24  1  0  0  0  0
 23 29  1  6  0  0  0
 25 26  1  6  0  0  0
 25 31  1  0  0  0  0
 27 28  1  0  0  0  0
 27 33  1  1  0  0  0
 29 30  1  0  0  0  0
 31 32  1  1  0  0  0
 33 34  1  0  0  0  0
M  END
>  <CHROM.1>
-88.73204465,63.16551031,162.77822379,-128.08338226,-95.63161152,118.62223002
75.77221186,179.86820347,-3.38088634,0.22895100,16.60705438,2.90661732,-1.31501688
1.51562120

>  <Name>
2o3v_lig

>  <RI>
0

>  <Rbt.Current_Directory>
/home/afrankz/demos/rdock_decoys_rna/rnas/2o3v

>  <Rbt.Executable>
rbdock ($Id: //depot/dev/client3/rdock/2013.1/src/exe/rbdock.cxx#4 $)

>  <Rbt.Library>
libRbt.so (2013.1, Build901 2013/11/27)

>  <Rbt.Parameter_File>
/export/apps/rDock/src/rDock_2013.1_src/data/scripts/dock_solv.prm

>  <Rbt.Receptor>
prm/blind_docking_80.prm

>  <SCORE>
-2.06604

>  <SCORE.INTER>
-11.3477

>  <SCORE.INTER.CONST>
1

>  <SCORE.INTER.POLAR>
-1.17958

>  <SCORE.INTER.ROT>
8

>  <SCORE.INTER.SOLV>
25.906

>  <SCORE.INTER.VDW>
-21.2019

>  <SCORE.INTER.norm>
-0.32422

>  <SCORE.INTRA>
6.36051

>  <SCORE.INTRA.DIHEDRAL>
11.2551

>  <SCORE.INTRA.DIHEDRAL.0>
13.1227

>  <SCORE.INTRA.POLAR>
0

>  <SCORE.INTRA.POLAR.0>
0

>  <SCORE.INTRA.REPUL>
0

>  <SCORE.INTRA.REPUL.0>
0

>  <SCORE.INTRA.SOLV>
4.28918

>  <SCORE.INTRA.SOLV.lig_0>
-89.1587

>  <SCORE.INTRA.VDW>
-1.41162

>  <SCORE.INTRA.VDW.0>
-0.838383

>  <SCORE.INTRA.norm>
0.181729

>  <SCORE.RESTR>
2.92115

>  <SCORE.RESTR.CAVITY>
2.92115

>  <SCORE.RESTR.norm>
0.0834613

>  <SCORE.SYSTEM>
0

>  <SCORE.SYSTEM.CONST>
0

>  <SCORE.SYSTEM.DIHEDRAL>
0

>  <SCORE.SYSTEM.SOLV>
0

>  <SCORE.SYSTEM.norm>
0

>  <SCORE.heavy>
35

>  <SCORE.norm>
-0.0590298

>  <RMSD>
31.401

$$$$
2o3v_lig
 OpenBabel02141814113D
libRbt.so/2013.1/901 2013/11/27
 35 37  0  0  0  0  0  0  0  0999 V2000
   -5.2585    2.3104   15.4795 C   0  0  2  0  0  0  0  0  0  0  0  0
   -4.5425    3.3235   16.2499 O   0  0  0  0  0  0  0  0  0  0  0  0
   -5.4789    6.2449   19.3347 C   0  0  2  0  0  0  0  0  0  0  0  0
   -5.9521    6.8361   20.6226 N   0  0  0  0  0  0  0  0  0  0  0  0
   -4.1330   -6.1296   18.1949 C   0  0  2  0  0  0  0  0  0  0  0  0
   -5.5429   -5.8253   18.2649 O   0  0  0  0  0  0  0  0  0  0  0  0
   -4.8788    0.9803   16.2041 C   0  0  2  0  0  0  0  0  0  0  0  0
   -5.2833    1.0122   17.6294 N   0  0  0  0  0  0  0  0  0  0  0  0
   -6.6859    5.5351   18.5832 C   0  0  0  0  0  0  0  0  0  0  0  0
   -3.3682   -4.7753   17.9968 C   0  0  2  0  0  0  0  0  0  0  0  0
   -3.6709   -3.8265   19.0982 N   0  0  0  0  0  0  0  0  0  0  0  0
   -3.3207    0.6802   16.0950 C   0  0  1  0  0  0  0  0  0  0  0  0
   -2.9734   -0.5651   16.8279 O   0  0  0  0  0  0  0  0  0  0  0  0
   -6.1539    4.9052   17.2236 C   0  0  2  0  0  0  0  0  0  0  0  0
   -7.2604    4.2288   16.5133 N   0  0  0  0  0  0  0  0  0  0  0  0
   -3.7046   -4.1136   16.5883 C   0  0  1  0  0  0  0  0  0  0  0  0
   -2.9842   -2.8745   16.3640 O   0  0  0  0  0  0  0  0  0  0  0  0
   -2.9484    0.6516   14.5477 C   0  0  2  0  0  0  0  0  0  0  0  0
   -1.5661    0.4135   14.3513 O   0  0  0  0  0  0  0  0  0  0  0  0
   -4.9933    3.8703   17.5258 C   0  0  2  0  0  0  0  0  0  0  0  0
   -3.3579   -5.1399   15.4635 C   0  0  2  0  0  0  0  0  0  0  0  0
   -3.6474   -4.6086   14.1854 O   0  0  0  0  0  0  0  0  0  0  0  0
   -3.3619    2.0048   13.8538 C   0  0  2  0  0  0  0  0  0  0  0  0
   -4.8037    2.2538   14.0629 O   0  0  0  0  0  0  0  0  0  0  0  0
   -3.8200    4.5713   18.2661 C   0  0  2  0  0  0  0  0  0  0  0  0
   -2.8135    3.5562   18.5450 O   0  0  0  0  0  0  0  0  0  0  0  0
   -4.1449   -6.4898   15.7034 C   0  0  2  0  0  0  0  0  0  0  0  0
   -3.8395   -7.0306   17.0477 O   0  0  0  0  0  0  0  0  0  0  0  0
   -3.0489    1.9892   12.3583 C   0  0  0  0  0  0  0  0  0  0  0  0
   -1.6971    1.6766   12.1266 O   0  0  0  0  0  0  0  0  0  0  0  0
   -4.3339    5.1886   19.5878 C   0  0  1  0  0  0  0  0  0  0  0  0
   -3.2518    5.8227   20.2368 O   0  0  0  0  0  0  0  0  0  0  0  0
   -3.8050   -7.5378   14.6545 C   0  0  0  0  0  0  0  0  0  0  0  0
   -4.7418   -7.5042   13.6051 O   0  0  0  0  0  0  0  0  0  0  0  0
   -3.8795   -1.7353   16.5246 C   0  0  0  0  0  0  0  0  0  0  0  0
  1  2  1  1  0  0  0
  1  7  1  0  0  0  0
  1 24  1  0  0  0  0
  3  4  1  1  0  0  0
  3  9  1  0  0  0  0
  3 31  1  0  0  0  0
  5  6  1  6  0  0  0
  5 10  1  0  0  0  0
  5 28  1  0  0  0  0
  7  8  1  1  0  0  0
  7 12  1  0  0  0  0
  9 14  1  0  0  0  0
 10 11  1  1  0  0  0
 10 16  1  0  0  0  0
 12 13  1  6  0  0  0
 12 18  1  0  0  0  0
 13 35  1  0  0  0  0
 14 15  1  1  0  0  0
 14 20  1  0  0  0  0
 16 17  1  6  0  0  0
 16 21  1  0  0  0  0
 17 35  1  0  0  0  0
 18 19  1  1  0  0  0
 18 23  1  0  0  0  0
 20  2  1  6  0  0  0
 20 25  1  0  0  0  0
 21 22  1  6  0  0  0
 21 27  1  0  0  0  0
 23 24  1  0  0  0  0
 23 29  1  6  0  0  0
 25 26  1  1  0  0  0
 25 31  1  0  0  0  0
 27 28  1  0  0  0  0
 27 33  1  6  0  0  0
 29 30  1  0  0  0  0
 31 32  1  6  0  0  0
 33 34  1  0  0  0  0
M  END
>  <CHROM.1>
-79.87567003,47.87237599,136.38607958,-104.96481677,157.74464368,-76.71233721
-54.53031656,-94.47772830,-4.11844601,-0.05766054,16.53411470,-1.88804147
-1.28460043,3.02405261

>  <Name>
2o3v_lig

>  <RI>
0

>  <Rbt.Current_Directory>
/home/afrankz/demos/rdock_decoys_rna/rnas/2o3v

>  <Rbt.Executable>
rbdock ($Id: //depot/dev/client3/rdock/2013.1/src/exe/rbdock.cxx#4 $)

>  <Rbt.Library>
libRbt.so (2013.1, Build901 2013/11/27)

>  <Rbt.Parameter_File>
/export/apps/rDock/src/rDock_2013.1_src/data/scripts/dock_solv.prm

>  <Rbt.Receptor>
prm/blind_docking_100.prm

>  <SCORE>
25.6411

>  <SCORE.INTER>
17.6446

>  <SCORE.INTER.CONST>
1

>  <SCORE.INTER.POLAR>
-1.08801

>  <SCORE.INTER.ROT>
8

>  <SCORE.INTER.SOLV>
28.8318

>  <SCORE.INTER.VDW>
-3.15414

>  <SCORE.INTER.norm>
0.504132

>  <SCORE.INTRA>
4.96181

>  <SCORE.INTRA.DIHEDRAL>
8.29391

>  <SCORE.INTRA.DIHEDRAL.0>
13.1227

>  <SCORE.INTRA.POLAR>
0

>  <SCORE.INTRA.POLAR.0>
0

>  <SCORE.INTRA.REPUL>
0

>  <SCORE.INTRA.REPUL.0>
0

>  <SCORE.INTRA.SOLV>
3.26693

>  <SCORE.INTRA.SOLV.lig_0>
-89.1587

>  <SCORE.INTRA.VDW>
-0.818611

>  <SCORE.INTRA.VDW.0>
-0.838383

>  <SCORE.INTRA.norm>
0.141766

>  <SCORE.RESTR>
3.03469

>  <SCORE.RESTR.CAVITY>
3.03469

>  <SCORE.RESTR.norm>
0.0867055

>  <SCORE.SYSTEM>
0

>  <SCORE.SYSTEM.CONST>
0

>  <SCORE.SYSTEM.DIHEDRAL>
0

>  <SCORE.SYSTEM.SOLV>
0

>  <SCORE.SYSTEM.norm>
0

>  <SCORE.heavy>
35

>  <SCORE.norm>
0.732604

>  <RMSD>
31.413

$$$$
2o3v_lig
 OpenBabel02141814113D
libRbt.so/2013.1/901 2013/11/27
 35 37  0  0  0  0  0  0  0  0999 V2000
   -4.9144    3.6073   16.0542 C   0  0  2  0  0  0  0  0  0  0  0  0
   -3.7327    3.9483   16.8417 O   0  0  0  0  0  0  0  0  0  0  0  0
   -0.6000    6.9644   16.7155 C   0  0  2  0  0  0  0  0  0  0  0  0
    0.0799    8.2948   16.7083 N   0  0  0  0  0  0  0  0  0  0  0  0
   -1.4246   -4.8860   16.2158 C   0  0  2  0  0  0  0  0  0  0  0  0
   -0.5402   -4.6035   17.3219 O   0  0  0  0  0  0  0  0  0  0  0  0
   -5.3720    2.2482   16.6722 C   0  0  2  0  0  0  0  0  0  0  0  0
   -5.6646    2.3885   18.1182 N   0  0  0  0  0  0  0  0  0  0  0  0
   -1.5726    6.8410   15.4649 C   0  0  0  0  0  0  0  0  0  0  0  0
   -2.4154   -3.6779   16.0846 C   0  0  2  0  0  0  0  0  0  0  0  0
   -1.6788   -2.4039   15.8868 N   0  0  0  0  0  0  0  0  0  0  0  0
   -4.2821    1.1108   16.4531 C   0  0  1  0  0  0  0  0  0  0  0  0
   -4.7165   -0.1614   17.0864 O   0  0  0  0  0  0  0  0  0  0  0  0
   -2.2911    5.4230   15.5026 C   0  0  2  0  0  0  0  0  0  0  0  0
   -3.2107    5.2920   14.3521 N   0  0  0  0  0  0  0  0  0  0  0  0
   -3.3779   -3.5702   17.3483 C   0  0  1  0  0  0  0  0  0  0  0  0
   -4.3286   -2.4799   17.2382 O   0  0  0  0  0  0  0  0  0  0  0  0
   -4.0152    1.0021   14.8877 C   0  0  2  0  0  0  0  0  0  0  0  0
   -3.0331    0.0243   14.5958 O   0  0  0  0  0  0  0  0  0  0  0  0
   -3.0948    5.2609   16.8579 C   0  0  2  0  0  0  0  0  0  0  0  0
   -4.1395   -4.9241   17.5076 C   0  0  2  0  0  0  0  0  0  0  0  0
   -5.0051   -4.8906   18.6253 O   0  0  0  0  0  0  0  0  0  0  0  0
   -3.5712    2.3970   14.3037 C   0  0  2  0  0  0  0  0  0  0  0  0
   -4.5952    3.4172   14.6125 O   0  0  0  0  0  0  0  0  0  0  0  0
   -2.1373    5.3891   18.0757 C   0  0  2  0  0  0  0  0  0  0  0  0
   -2.9474    5.2705   19.2802 O   0  0  0  0  0  0  0  0  0  0  0  0
   -3.1056   -6.1136   17.6318 C   0  0  2  0  0  0  0  0  0  0  0  0
   -2.2005   -6.1320   16.4599 O   0  0  0  0  0  0  0  0  0  0  0  0
   -3.3443    2.3289   12.7942 C   0  0  0  0  0  0  0  0  0  0  0  0
   -2.3347    1.4029   12.4747 O   0  0  0  0  0  0  0  0  0  0  0  0
   -1.4334    6.7659   18.0410 C   0  0  1  0  0  0  0  0  0  0  0  0
   -0.5669    6.8544   19.1525 O   0  0  0  0  0  0  0  0  0  0  0  0
   -3.8029   -7.4608   17.7454 C   0  0  0  0  0  0  0  0  0  0  0  0
   -4.3210   -7.8523   16.4971 O   0  0  0  0  0  0  0  0  0  0  0  0
   -3.6272   -1.2026   17.1949 C   0  0  0  0  0  0  0  0  0  0  0  0
  1  2  1  1  0  0  0
  1  7  1  0  0  0  0
  1 24  1  0  0  0  0
  3  4  1  1  0  0  0
  3  9  1  0  0  0  0
  3 31  1  0  0  0  0
  5  6  1  1  0  0  0
  5 10  1  0  0  0  0
  5 28  1  0  0  0  0
  7  8  1  1  0  0  0
  7 12  1  0  0  0  0
  9 14  1  0  0  0  0
 10 11  1  1  0  0  0
 10 16  1  0  0  0  0
 12 13  1  6  0  0  0
 12 18  1  0  0  0  0
 13 35  1  0  0  0  0
 14 15  1  6  0  0  0
 14 20  1  0  0  0  0
 16 17  1  6  0  0  0
 16 21  1  0  0  0  0
 17 35  1  0  0  0  0
 18 19  1  1  0  0  0
 18 23  1  0  0  0  0
 20  2  1  6  0  0  0
 20 25  1  0  0  0  0
 21 22  1  1  0  0  0
 21 27  1  0  0  0  0
 23 24  1  0  0  0  0
 23 29  1  6  0  0  0
 25 26  1  1  0  0  0
 25 31  1  0  0  0  0
 27 28  1  0  0  0  0
 27 33  1  6  0  0  0
 29 30  1  0  0  0  0
 31 32  1  1  0  0  0
 33 34  1  0  0  0  0
M  END
>  <CHROM.1>
-166.14853985,-167.24383445,-154.80737958,-63.30599867,-179.80101561,-75.17946355
-60.35085710,74.58970871,-3.07195247,0.67127329,16.48737015,1.10075723,-1.36291525
-0.49772196

>  <Name>
2o3v_lig

>  <RI>
0

>  <Rbt.Current_Directory>
/home/afrankz/demos/rdock_decoys_rna/rnas/2o3v

>  <Rbt.Executable>
rbdock ($Id: //depot/dev/client3/rdock/2013.1/src/exe/rbdock.cxx#4 $)

>  <Rbt.Library>
libRbt.so (2013.1, Build901 2013/11/27)

>  <Rbt.Parameter_File>
/export/apps/rDock/src/rDock_2013.1_src/data/scripts/dock_solv.prm

>  <Rbt.Receptor>
prm/blind_docking_40.prm

>  <SCORE>
-5.34524

>  <SCORE.INTER>
-9.44931

>  <SCORE.INTER.CONST>
1

>  <SCORE.INTER.POLAR>
-0.975913

>  <SCORE.INTER.ROT>
8

>  <SCORE.INTER.SOLV>
26.6658

>  <SCORE.INTER.VDW>
-20.8684

>  <SCORE.INTER.norm>
-0.26998

>  <SCORE.INTRA>
0.923856

>  <SCORE.INTRA.DIHEDRAL>
-6.82125

>  <SCORE.INTRA.DIHEDRAL.0>
13.1227

>  <SCORE.INTRA.POLAR>
0

>  <SCORE.INTRA.POLAR.0>
0

>  <SCORE.INTRA.REPUL>
0.0244902

>  <SCORE.INTRA.REPUL.0>
0

>  <SCORE.INTRA.SOLV>
4.86876

>  <SCORE.INTRA.SOLV.lig_0>
-89.1587

>  <SCORE.INTRA.VDW>
1.77765

>  <SCORE.INTRA.VDW.0>
-0.838383

>  <SCORE.INTRA.norm>
0.0263959

>  <SCORE.RESTR>
3.18021

>  <SCORE.RESTR.CAVITY>
3.18021

>  <SCORE.RESTR.norm>
0.0908632

>  <SCORE.SYSTEM>
0

>  <SCORE.SYSTEM.CONST>
0

>  <SCORE.SYSTEM.DIHEDRAL>
0

>  <SCORE.SYSTEM.SOLV>
0

>  <SCORE.SYSTEM.norm>
0

>  <SCORE.heavy>
35

>  <SCORE.norm>
-0.152721

>  <RMSD>
31.418

$$$$
2o3v_lig
 OpenBabel02141814113D
libRbt.so/2013.1/901 2013/11/27
 35 37  0  0  0  0  0  0  0  0999 V2000
   -2.7417    1.9454   14.4979 C   0  0  2  0  0  0  0  0  0  0  0  0
   -4.1140    2.4192   14.3396 O   0  0  0  0  0  0  0  0  0  0  0  0
   -5.3228    3.9737   18.2189 C   0  0  2  0  0  0  0  0  0  0  0  0
   -6.0401    4.7699   19.2600 N   0  0  0  0  0  0  0  0  0  0  0  0
   -5.3392   -6.2927   14.9964 C   0  0  2  0  0  0  0  0  0  0  0  0
   -4.5720   -6.5669   13.8040 O   0  0  0  0  0  0  0  0  0  0  0  0
   -2.8591    0.4158   14.2064 C   0  0  2  0  0  0  0  0  0  0  0  0
   -3.4003    0.1690   12.8490 N   0  0  0  0  0  0  0  0  0  0  0  0
   -4.5373    4.9430   17.2346 C   0  0  0  0  0  0  0  0  0  0  0  0
   -4.9700   -4.8448   15.4712 C   0  0  2  0  0  0  0  0  0  0  0  0
   -5.2404   -3.8489   14.4035 N   0  0  0  0  0  0  0  0  0  0  0  0
   -3.7670   -0.3167   15.2875 C   0  0  1  0  0  0  0  0  0  0  0  0
   -3.9022   -1.7615   14.9673 O   0  0  0  0  0  0  0  0  0  0  0  0
   -3.7934    4.0725   16.1313 C   0  0  2  0  0  0  0  0  0  0  0  0
   -3.0647    4.9570   15.1969 N   0  0  0  0  0  0  0  0  0  0  0  0
   -3.4521   -4.7524   15.9426 C   0  0  1  0  0  0  0  0  0  0  0  0
   -3.0919   -3.4303   16.4191 O   0  0  0  0  0  0  0  0  0  0  0  0
   -3.1349   -0.0222   16.7184 C   0  0  2  0  0  0  0  0  0  0  0  0
   -3.8954   -0.6184   17.7538 O   0  0  0  0  0  0  0  0  0  0  0  0
   -4.8456    3.1955   15.3356 C   0  0  2  0  0  0  0  0  0  0  0  0
   -3.2192   -5.8051   17.0722 C   0  0  2  0  0  0  0  0  0  0  0  0
   -1.8797   -5.7759   17.5244 O   0  0  0  0  0  0  0  0  0  0  0  0
   -3.0210    1.5303   16.9643 C   0  0  2  0  0  0  0  0  0  0  0  0
   -2.2304    2.1515   15.8810 O   0  0  0  0  0  0  0  0  0  0  0  0
   -5.6134    2.2553   16.3065 C   0  0  2  0  0  0  0  0  0  0  0  0
   -6.5854    1.5134   15.5154 O   0  0  0  0  0  0  0  0  0  0  0  0
   -3.6072   -7.2474   16.5542 C   0  0  2  0  0  0  0  0  0  0  0  0
   -5.0086   -7.2618   16.0761 O   0  0  0  0  0  0  0  0  0  0  0  0
   -2.3822    1.8406   18.3172 C   0  0  0  0  0  0  0  0  0  0  0  0
   -2.1727    3.2228   18.4737 O   0  0  0  0  0  0  0  0  0  0  0  0
   -6.3358    3.0978   17.3837 C   0  0  1  0  0  0  0  0  0  0  0  0
   -7.0196    2.2212   18.2543 O   0  0  0  0  0  0  0  0  0  0  0  0
   -3.4380   -8.3027   17.6366 C   0  0  0  0  0  0  0  0  0  0  0  0
   -3.7196   -9.5822   17.1234 O   0  0  0  0  0  0  0  0  0  0  0  0
   -2.6822   -2.5869   15.3028 C   0  0  0  0  0  0  0  0  0  0  0  0
  1  2  1  1  0  0  0
  1  7  1  0  0  0  0
  1 24  1  0  0  0  0
  3  4  1  1  0  0  0
  3  9  1  0  0  0  0
  3 31  1  0  0  0  0
  5  6  1  6  0  0  0
  5 10  1  0  0  0  0
  5 28  1  0  0  0  0
  7  8  1  6  0  0  0
  7 12  1  0  0  0  0
  9 14  1  0  0  0  0
 10 11  1  6  0  0  0
 10 16  1  0  0  0  0
 12 13  1  6  0  0  0
 12 18  1  0  0  0  0
 13 35  1  0  0  0  0
 14 15  1  6  0  0  0
 14 20  1  0  0  0  0
 16 17  1  1  0  0  0
 16 21  1  0  0  0  0
 17 35  1  0  0  0  0
 18 19  1  1  0  0  0
 18 23  1  0  0  0  0
 20  2  1  6  0  0  0
 20 25  1  0  0  0  0
 21 22  1  6  0  0  0
 21 27  1  0  0  0  0
 23 24  1  0  0  0  0
 23 29  1  1  0  0  0
 25 26  1  6  0  0  0
 25 31  1  0  0  0  0
 27 28  1  0  0  0  0
 27 33  1  1  0  0  0
 29 30  1  0  0  0  0
 31 32  1  1  0  0  0
 33 34  1  0  0  0  0
M  END
>  <CHROM.1>
126.97983419,76.22615169,111.07726758,-86.10853877,98.56581062,30.82316842
174.56125295,-176.75084223,-4.02465687,-0.92686712,16.22261455,-1.82985150
-1.38412404,2.94472839

>  <Name>
2o3v_lig

>  <RI>
0

>  <Rbt.Current_Directory>
/home/afrankz/demos/rdock_decoys_rna/rnas/2o3v

>  <Rbt.Executable>
rbdock ($Id: //depot/dev/client3/rdock/2013.1/src/exe/rbdock.cxx#4 $)

>  <Rbt.Library>
libRbt.so (2013.1, Build901 2013/11/27)

>  <Rbt.Parameter_File>
/export/apps/rDock/src/rDock_2013.1_src/data/scripts/dock_solv.prm

>  <Rbt.Receptor>
prm/blind_docking_20.prm

>  <SCORE>
20.3458

>  <SCORE.INTER>
0.651361

>  <SCORE.INTER.CONST>
1

>  <SCORE.INTER.POLAR>
-0.795007

>  <SCORE.INTER.ROT>
8

>  <SCORE.INTER.SOLV>
22.7172

>  <SCORE.INTER.VDW>
-13.4215

>  <SCORE.INTER.norm>
0.0186103

>  <SCORE.INTRA>
11.8405

>  <SCORE.INTRA.DIHEDRAL>
13.5111

>  <SCORE.INTRA.DIHEDRAL.0>
13.1227

>  <SCORE.INTRA.POLAR>
0

>  <SCORE.INTRA.POLAR.0>
0

>  <SCORE.INTRA.REPUL>
0

>  <SCORE.INTRA.REPUL.0>
0

>  <SCORE.INTRA.SOLV>
5.10079

>  <SCORE.INTRA.SOLV.lig_0>
-89.1587

>  <SCORE.INTRA.VDW>
2.53458

>  <SCORE.INTRA.VDW.0>
-0.838383

>  <SCORE.INTRA.norm>
0.338301

>  <SCORE.RESTR>
7.85393

>  <SCORE.RESTR.CAVITY>
7.85393

>  <SCORE.RESTR.norm>
0.224398

>  <SCORE.SYSTEM>
0

>  <SCORE.SYSTEM.CONST>
0

>  <SCORE.SYSTEM.DIHEDRAL>
0

>  <SCORE.SYSTEM.SOLV>
0

>  <SCORE.SYSTEM.norm>
0

>  <SCORE.heavy>
35

>  <SCORE.norm>
0.581309

>  <RMSD>
31.424

$$$$
2o3v_lig
 OpenBabel02141814113D
libRbt.so/2013.1/901 2013/11/27
 35 37  0  0  0  0  0  0  0  0999 V2000
   -4.7399    2.5693   15.4336 C   0  0  2  0  0  0  0  0  0  0  0  0
   -3.6534    2.6503   14.4611 O   0  0  0  0  0  0  0  0  0  0  0  0
   -2.0868    0.9442   10.7785 C   0  0  2  0  0  0  0  0  0  0  0  0
   -2.0169    0.2002    9.4847 N   0  0  0  0  0  0  0  0  0  0  0  0
   -3.0872    8.2078   22.7035 C   0  0  2  0  0  0  0  0  0  0  0  0
   -3.6858    9.1119   21.7497 O   0  0  0  0  0  0  0  0  0  0  0  0
   -4.3975    3.7102   16.4433 C   0  0  2  0  0  0  0  0  0  0  0  0
   -4.3303    5.0252   15.7633 N   0  0  0  0  0  0  0  0  0  0  0  0
   -2.4739   -0.0472   11.9586 C   0  0  0  0  0  0  0  0  0  0  0  0
   -2.4301    7.0367   21.8941 C   0  0  2  0  0  0  0  0  0  0  0  0
   -1.4301    7.5539   20.9258 N   0  0  0  0  0  0  0  0  0  0  0  0
   -3.0282    3.4275   17.2014 C   0  0  1  0  0  0  0  0  0  0  0  0
   -2.6985    4.5450   18.1239 O   0  0  0  0  0  0  0  0  0  0  0  0
   -2.5529    0.7706   13.3201 C   0  0  2  0  0  0  0  0  0  0  0  0
   -2.9237   -0.1323   14.4308 N   0  0  0  0  0  0  0  0  0  0  0  0
   -3.5246    6.1579   21.1429 C   0  0  1  0  0  0  0  0  0  0  0  0
   -2.9465    5.0459   20.4122 O   0  0  0  0  0  0  0  0  0  0  0  0
   -3.1625    2.0110   17.9149 C   0  0  2  0  0  0  0  0  0  0  0  0
   -1.9734    1.6607   18.6000 O   0  0  0  0  0  0  0  0  0  0  0  0
   -3.6203    1.9338   13.1900 C   0  0  2  0  0  0  0  0  0  0  0  0
   -4.5433    5.6257   22.2001 C   0  0  2  0  0  0  0  0  0  0  0  0
   -5.5491    4.8437   21.5864 O   0  0  0  0  0  0  0  0  0  0  0  0
   -3.5229    0.8936   16.8635 C   0  0  2  0  0  0  0  0  0  0  0  0
   -4.7617    1.2624   16.1466 O   0  0  0  0  0  0  0  0  0  0  0  0
   -3.2374    2.8948   12.0298 C   0  0  2  0  0  0  0  0  0  0  0  0
   -4.2785    3.9096   11.9443 O   0  0  0  0  0  0  0  0  0  0  0  0
   -5.1778    6.8359   22.9951 C   0  0  2  0  0  0  0  0  0  0  0  0
   -4.1140    7.6508   23.6252 O   0  0  0  0  0  0  0  0  0  0  0  0
   -3.6943   -0.4712   17.5288 C   0  0  0  0  0  0  0  0  0  0  0  0
   -2.5100   -0.8737   18.1724 O   0  0  0  0  0  0  0  0  0  0  0  0
   -3.1559    2.1027   10.7039 C   0  0  1  0  0  0  0  0  0  0  0  0
   -2.8018    2.9961    9.6692 O   0  0  0  0  0  0  0  0  0  0  0  0
   -6.1465    6.3629   24.0684 C   0  0  0  0  0  0  0  0  0  0  0  0
   -7.2119    5.6498   23.4886 O   0  0  0  0  0  0  0  0  0  0  0  0
   -3.7240    4.7752   19.2091 C   0  0  0  0  0  0  0  0  0  0  0  0
  1  2  1  6  0  0  0
  1  7  1  0  0  0  0
  1 24  1  0  0  0  0
  3  4  1  6  0  0  0
  3  9  1  0  0  0  0
  3 31  1  0  0  0  0
  5  6  1  6  0  0  0
  5 10  1  0  0  0  0
  5 28  1  0  0  0  0
  7  8  1  6  0  0  0
  7 12  1  0  0  0  0
  9 14  1  0  0  0  0
 10 11  1  6  0  0  0
 10 16  1  0  0  0  0
 12 13  1  1  0  0  0
 12 18  1  0  0  0  0
 13 35  1  0  0  0  0
 14 15  1  1  0  0  0
 14 20  1  0  0  0  0
 16 17  1  1  0  0  0
 16 21  1  0  0  0  0
 17 35  1  0  0  0  0
 18 19  1  6  0  0  0
 18 23  1  0  0  0  0
 20  2  1  1  0  0  0
 20 25  1  0  0  0  0
 21 22  1  6  0  0  0
 21 27  1  0  0  0  0
 23 24  1  0  0  0  0
 23 29  1  1  0  0  0
 25 26  1  6  0  0  0
 25 31  1  0  0  0  0
 27 28  1  0  0  0  0
 27 33  1  1  0  0  0
 29 30  1  0  0  0  0
 31 32  1  6  0  0  0
 33 34  1  0  0  0  0
M  END
>  <CHROM.1>
-169.69908734,60.98884254,138.91659979,-146.89855678,136.69599447,-107.28143155
-60.45360090,-61.02925741,-3.59272679,3.64217085,17.36945302,0.53840675,-1.43719599
-3.07858119

>  <Name>
2o3v_lig

>  <RI>
0

>  <Rbt.Current_Directory>
/home/afrankz/demos/rdock_decoys_rna/rnas/2o3v

>  <Rbt.Executable>
rbdock ($Id: //depot/dev/client3/rdock/2013.1/src/exe/rbdock.cxx#4 $)

>  <Rbt.Library>
libRbt.so (2013.1, Build901 2013/11/27)

>  <Rbt.Parameter_File>
/export/apps/rDock/src/rDock_2013.1_src/data/scripts/dock_solv.prm

>  <Rbt.Receptor>
prm/blind_docking_40.prm

>  <SCORE>
14.8947

>  <SCORE.INTER>
5.39871

>  <SCORE.INTER.CONST>
1

>  <SCORE.INTER.POLAR>
-0.459803

>  <SCORE.INTER.ROT>
8

>  <SCORE.INTER.SOLV>
31.8065

>  <SCORE.INTER.VDW>
-14.4037

>  <SCORE.INTER.norm>
0.154249

>  <SCORE.INTRA>
5.58797

>  <SCORE.INTRA.DIHEDRAL>
9.53394

>  <SCORE.INTRA.DIHEDRAL.0>
13.1227

>  <SCORE.INTRA.POLAR>
0

>  <SCORE.INTRA.POLAR.0>
0

>  <SCORE.INTRA.REPUL>
0

>  <SCORE.INTRA.REPUL.0>
0

>  <SCORE.INTRA.SOLV>
3.41066

>  <SCORE.INTRA.SOLV.lig_0>
-89.1587

>  <SCORE.INTRA.VDW>
-0.884329

>  <SCORE.INTRA.VDW.0>
-0.838383

>  <SCORE.INTRA.norm>
0.159656

>  <SCORE.RESTR>
3.90806

>  <SCORE.RESTR.CAVITY>
3.90806

>  <SCORE.RESTR.norm>
0.111659

>  <SCORE.SYSTEM>
0

>  <SCORE.SYSTEM.CONST>
0

>  <SCORE.SYSTEM.DIHEDRAL>
0

>  <SCORE.SYSTEM.SOLV>
0

>  <SCORE.SYSTEM.norm>
0

>  <SCORE.heavy>
35

>  <SCORE.norm>
0.425564

>  <RMSD>
31.426

$$$$
2o3v_lig
 OpenBabel02141814113D
libRbt.so/2013.1/901 2013/11/27
 35 37  0  0  0  0  0  0  0  0999 V2000
   -6.5046    1.8822   17.1086 C   0  0  2  0  0  0  0  0  0  0  0  0
   -6.5235    2.3149   15.7139 O   0  0  0  0  0  0  0  0  0  0  0  0
   -8.7576    1.7416   12.0250 C   0  0  2  0  0  0  0  0  0  0  0  0
   -9.4847    1.0734   10.9039 N   0  0  0  0  0  0  0  0  0  0  0  0
   -6.0818    8.7787   22.9301 C   0  0  2  0  0  0  0  0  0  0  0  0
   -7.4577    8.7263   22.4944 O   0  0  0  0  0  0  0  0  0  0  0  0
   -6.2523    3.2113   17.8885 C   0  0  2  0  0  0  0  0  0  0  0  0
   -7.3142    4.2065   17.6088 N   0  0  0  0  0  0  0  0  0  0  0  0
   -7.2502    1.2408   12.0741 C   0  0  0  0  0  0  0  0  0  0  0  0
   -5.1895    8.3097   21.7292 C   0  0  2  0  0  0  0  0  0  0  0  0
   -5.4189    9.1578   20.5321 N   0  0  0  0  0  0  0  0  0  0  0  0
   -4.8300    3.8318   17.5400 C   0  0  1  0  0  0  0  0  0  0  0  0
   -4.6280    5.1174   18.2576 O   0  0  0  0  0  0  0  0  0  0  0  0
   -6.5031    1.9572   13.2812 C   0  0  2  0  0  0  0  0  0  0  0  0
   -5.1000    1.4958   13.3519 N   0  0  0  0  0  0  0  0  0  0  0  0
   -5.4393    6.7771   21.3777 C   0  0  1  0  0  0  0  0  0  0  0  0
   -4.6015    6.3070   20.2906 O   0  0  0  0  0  0  0  0  0  0  0  0
   -3.7343    2.7241   17.8658 C   0  0  2  0  0  0  0  0  0  0  0  0
   -2.4287    3.1809   17.5616 O   0  0  0  0  0  0  0  0  0  0  0  0
   -7.2465    1.6366   14.6427 C   0  0  2  0  0  0  0  0  0  0  0  0
   -5.1731    5.9253   22.6591 C   0  0  2  0  0  0  0  0  0  0  0  0
   -5.3906    4.5507   22.4086 O   0  0  0  0  0  0  0  0  0  0  0  0
   -4.0355    1.3971   17.0707 C   0  0  2  0  0  0  0  0  0  0  0  0
   -5.3997    0.9238   17.3862 O   0  0  0  0  0  0  0  0  0  0  0  0
   -8.7214    2.1240   14.5838 C   0  0  2  0  0  0  0  0  0  0  0  0
   -9.3497    1.7619   15.8468 O   0  0  0  0  0  0  0  0  0  0  0  0
   -6.0878    6.4331   23.8443 C   0  0  2  0  0  0  0  0  0  0  0  0
   -5.8565    7.8749   24.0904 O   0  0  0  0  0  0  0  0  0  0  0  0
   -3.0184    0.3037   17.3945 C   0  0  0  0  0  0  0  0  0  0  0  0
   -3.2646   -0.8573   16.6392 O   0  0  0  0  0  0  0  0  0  0  0  0
   -9.4511    1.4322   13.4086 C   0  0  1  0  0  0  0  0  0  0  0  0
  -10.7846    1.8956   13.3740 O   0  0  0  0  0  0  0  0  0  0  0  0
   -5.8316    5.6598   25.1290 C   0  0  0  0  0  0  0  0  0  0  0  0
   -4.7977    6.2639   25.8679 O   0  0  0  0  0  0  0  0  0  0  0  0
   -5.2099    5.1466   19.6514 C   0  0  0  0  0  0  0  0  0  0  0  0
  1  2  1  6  0  0  0
  1  7  1  0  0  0  0
  1 24  1  0  0  0  0
  3  4  1  6  0  0  0
  3  9  1  0  0  0  0
  3 31  1  0  0  0  0
  5  6  1  6  0  0  0
  5 10  1  0  0  0  0
  5 28  1  0  0  0  0
  7  8  1  6  0  0  0
  7 12  1  0  0  0  0
  9 14  1  0  0  0  0
 10 11  1  6  0  0  0
 10 16  1  0  0  0  0
 12 13  1  1  0  0  0
 12 18  1  0  0  0  0
 13 35  1  0  0  0  0
 14 15  1  1  0  0  0
 14 20  1  0  0  0  0
 16 17  1  6  0  0  0
 16 21  1  0  0  0  0
 17 35  1  0  0  0  0
 18 19  1  6  0  0  0
 18 23  1  0  0  0  0
 20  2  1  1  0  0  0
 20 25  1  0  0  0  0
 21 22  1  6  0  0  0
 21 27  1  0  0  0  0
 23 24  1  0  0  0  0
 23 29  1  1  0  0  0
 25 26  1  1  0  0  0
 25 31  1  0  0  0  0
 27 28  1  0  0  0  0
 27 33  1  1  0  0  0
 29 30  1  0  0  0  0
 31 32  1  6  0  0  0
 33 34  1  0  0  0  0
M  END
>  <CHROM.1>
-152.94856796,36.73468616,164.96007703,-156.71306879,156.39680708,-153.61879322
-177.60821174,88.45016238,-6.07338022,3.84966103,18.18684454,-1.78206932
-0.53674494,0.91254838

>  <Name>
2o3v_lig

>  <RI>
0

>  <Rbt.Current_Directory>
/home/afrankz/demos/rdock_decoys_rna/rnas/2o3v

>  <Rbt.Executable>
rbdock ($Id: //depot/dev/client3/rdock/2013.1/src/exe/rbdock.cxx#4 $)

>  <Rbt.Library>
libRbt.so (2013.1, Build901 2013/11/27)

>  <Rbt.Parameter_File>
/export/apps/rDock/src/rDock_2013.1_src/data/scripts/dock_solv.prm

>  <Rbt.Receptor>
prm/blind_docking_80.prm

>  <SCORE>
-3.81787

>  <SCORE.INTER>
-11.7946

>  <SCORE.INTER.CONST>
1

>  <SCORE.INTER.POLAR>
-2.49156

>  <SCORE.INTER.ROT>
8

>  <SCORE.INTER.SOLV>
27.7852

>  <SCORE.INTER.VDW>
-17.7529

>  <SCORE.INTER.norm>
-0.336989

>  <SCORE.INTRA>
2.10918

>  <SCORE.INTRA.DIHEDRAL>
3.51973

>  <SCORE.INTRA.DIHEDRAL.0>
13.1227

>  <SCORE.INTRA.POLAR>
0

>  <SCORE.INTRA.POLAR.0>
0

>  <SCORE.INTRA.REPUL>
0

>  <SCORE.INTRA.REPUL.0>
0

>  <SCORE.INTRA.SOLV>
0.355124

>  <SCORE.INTRA.SOLV.lig_0>
-89.1587

>  <SCORE.INTRA.VDW>
0.171754

>  <SCORE.INTRA.VDW.0>
-0.838383

>  <SCORE.INTRA.norm>
0.0602623

>  <SCORE.RESTR>
5.86755

>  <SCORE.RESTR.CAVITY>
5.86755

>  <SCORE.RESTR.norm>
0.167644

>  <SCORE.SYSTEM>
0

>  <SCORE.SYSTEM.CONST>
0

>  <SCORE.SYSTEM.DIHEDRAL>
0

>  <SCORE.SYSTEM.SOLV>
0

>  <SCORE.SYSTEM.norm>
0

>  <SCORE.heavy>
35

>  <SCORE.norm>
-0.109082

>  <RMSD>
31.432

$$$$
2o3v_lig
 OpenBabel02141814113D
libRbt.so/2013.1/901 2013/11/27
 35 37  0  0  0  0  0  0  0  0999 V2000
   -4.4961    2.9127   15.3969 C   0  0  2  0  0  0  0  0  0  0  0  0
   -3.4433    3.6865   16.0495 O   0  0  0  0  0  0  0  0  0  0  0  0
   -4.6458    5.3112   19.9019 C   0  0  2  0  0  0  0  0  0  0  0  0
   -4.8667    6.2769   21.0204 N   0  0  0  0  0  0  0  0  0  0  0  0
   -1.8855   -5.5687   16.0119 C   0  0  2  0  0  0  0  0  0  0  0  0
   -1.9351   -6.5055   17.1099 O   0  0  0  0  0  0  0  0  0  0  0  0
   -4.6676    1.6810   16.3413 C   0  0  2  0  0  0  0  0  0  0  0  0
   -5.0313    2.1048   17.7140 N   0  0  0  0  0  0  0  0  0  0  0  0
   -3.0920    5.1719   19.5991 C   0  0  0  0  0  0  0  0  0  0  0  0
   -2.1159   -4.1356   16.6048 C   0  0  2  0  0  0  0  0  0  0  0  0
   -1.1020   -3.8191   17.6426 N   0  0  0  0  0  0  0  0  0  0  0  0
   -3.3501    0.7913   16.3857 C   0  0  1  0  0  0  0  0  0  0  0  0
   -3.5184   -0.3496   17.3229 O   0  0  0  0  0  0  0  0  0  0  0  0
   -2.8856    4.1491   18.3992 C   0  0  2  0  0  0  0  0  0  0  0  0
   -1.4453    4.0136   18.0933 N   0  0  0  0  0  0  0  0  0  0  0  0
   -3.5843   -3.9771   17.1993 C   0  0  1  0  0  0  0  0  0  0  0  0
   -3.8364   -2.6487   17.7251 O   0  0  0  0  0  0  0  0  0  0  0  0
   -3.0144    0.3624   14.8900 C   0  0  2  0  0  0  0  0  0  0  0  0
   -1.8343   -0.4181   14.8268 O   0  0  0  0  0  0  0  0  0  0  0  0
   -3.6649    4.6568   17.1170 C   0  0  2  0  0  0  0  0  0  0  0  0
   -4.6133   -4.3053   16.0714 C   0  0  2  0  0  0  0  0  0  0  0  0
   -5.9403   -4.1908   16.5465 O   0  0  0  0  0  0  0  0  0  0  0  0
   -2.8650    1.6333   13.9701 C   0  0  2  0  0  0  0  0  0  0  0  0
   -4.0957    2.4488   14.0401 O   0  0  0  0  0  0  0  0  0  0  0  0
   -5.1824    4.7962   17.4237 C   0  0  2  0  0  0  0  0  0  0  0  0
   -5.8248    5.3024   16.2186 O   0  0  0  0  0  0  0  0  0  0  0  0
   -4.3433   -5.7541   15.4993 C   0  0  2  0  0  0  0  0  0  0  0  0
   -2.9487   -5.8628   15.0133 O   0  0  0  0  0  0  0  0  0  0  0  0
   -2.5790    1.2478   12.5194 C   0  0  0  0  0  0  0  0  0  0  0  0
   -3.7446    0.7924   11.8768 O   0  0  0  0  0  0  0  0  0  0  0  0
   -5.3876    5.7876   18.5928 C   0  0  1  0  0  0  0  0  0  0  0  0
   -6.7714    5.8917   18.8545 O   0  0  0  0  0  0  0  0  0  0  0  0
   -5.2958   -6.1021   14.3655 C   0  0  0  0  0  0  0  0  0  0  0  0
   -4.9557   -7.3462   13.8029 O   0  0  0  0  0  0  0  0  0  0  0  0
   -3.8148   -1.6678   16.6470 C   0  0  0  0  0  0  0  0  0  0  0  0
  1  2  1  1  0  0  0
  1  7  1  0  0  0  0
  1 24  1  0  0  0  0
  3  4  1  1  0  0  0
  3  9  1  0  0  0  0
  3 31  1  0  0  0  0
  5  6  1  1  0  0  0
  5 10  1  0  0  0  0
  5 28  1  0  0  0  0
  7  8  1  1  0  0  0
  7 12  1  0  0  0  0
  9 14  1  0  0  0  0
 10 11  1  1  0  0  0
 10 16  1  0  0  0  0
 12 13  1  1  0  0  0
 12 18  1  0  0  0  0
 13 35  1  0  0  0  0
 14 15  1  6  0  0  0
 14 20  1  0  0  0  0
 16 17  1  6  0  0  0
 16 21  1  0  0  0  0
 17 35  1  0  0  0  0
 18 19  1  1  0  0  0
 18 23  1  0  0  0  0
 20  2  1  6  0  0  0
 20 25  1  0  0  0  0
 21 22  1  1  0  0  0
 21 27  1  0  0  0  0
 23 24  1  0  0  0  0
 23 29  1  6  0  0  0
 25 26  1  6  0  0  0
 25 31  1  0  0  0  0
 27 28  1  0  0  0  0
 27 33  1  6  0  0  0
 29 30  1  0  0  0  0
 31 32  1  1  0  0  0
 33 34  1  0  0  0  0
M  END
>  <CHROM.1>
-85.42752313,101.37345516,175.71502216,65.67900587,-157.51730004,118.46812069
76.28045698,174.90796839,-3.80728963,0.12530841,16.44114348,-2.91218432,-1.47717327
2.02770608

>  <Name>
2o3v_lig

>  <RI>
0

>  <Rbt.Current_Directory>
/home/afrankz/demos/rdock_decoys_rna/rnas/2o3v

>  <Rbt.Executable>
rbdock ($Id: //depot/dev/client3/rdock/2013.1/src/exe/rbdock.cxx#4 $)

>  <Rbt.Library>
libRbt.so (2013.1, Build901 2013/11/27)

>  <Rbt.Parameter_File>
/export/apps/rDock/src/rDock_2013.1_src/data/scripts/dock_solv.prm

>  <Rbt.Receptor>
prm/blind_docking_60.prm

>  <SCORE>
3.49381

>  <SCORE.INTER>
-7.96336

>  <SCORE.INTER.CONST>
1

>  <SCORE.INTER.POLAR>
-1.3452

>  <SCORE.INTER.ROT>
8

>  <SCORE.INTER.SOLV>
25.6915

>  <SCORE.INTER.VDW>
-18.3221

>  <SCORE.INTER.norm>
-0.227525

>  <SCORE.INTRA>
7.98469

>  <SCORE.INTRA.DIHEDRAL>
5.9227

>  <SCORE.INTRA.DIHEDRAL.0>
13.1227

>  <SCORE.INTRA.POLAR>
0

>  <SCORE.INTRA.POLAR.0>
0

>  <SCORE.INTRA.REPUL>
0

>  <SCORE.INTRA.REPUL.0>
0

>  <SCORE.INTRA.SOLV>
3.84316

>  <SCORE.INTRA.SOLV.lig_0>
-89.1587

>  <SCORE.INTRA.VDW>
3.10175

>  <SCORE.INTRA.VDW.0>
-0.838383

>  <SCORE.INTRA.norm>
0.228134

>  <SCORE.RESTR>
3.47249

>  <SCORE.RESTR.CAVITY>
3.47249

>  <SCORE.RESTR.norm>
0.099214

>  <SCORE.SYSTEM>
0

>  <SCORE.SYSTEM.CONST>
0

>  <SCORE.SYSTEM.DIHEDRAL>
0

>  <SCORE.SYSTEM.SOLV>
0

>  <SCORE.SYSTEM.norm>
0

>  <SCORE.heavy>
35

>  <SCORE.norm>
0.0998232

>  <RMSD>
31.485

$$$$
2o3v_lig
 OpenBabel02141814113D
libRbt.so/2013.1/901 2013/11/27
 35 37  0  0  0  0  0  0  0  0999 V2000
   -3.4536    4.9297   18.3970 C   0  0  2  0  0  0  0  0  0  0  0  0
   -3.0696    5.8605   17.3392 O   0  0  0  0  0  0  0  0  0  0  0  0
    0.5405    8.1184   16.4471 C   0  0  2  0  0  0  0  0  0  0  0  0
    1.9484    8.4354   16.0602 N   0  0  0  0  0  0  0  0  0  0  0  0
   -2.7069   -3.9026   17.9562 C   0  0  2  0  0  0  0  0  0  0  0  0
   -4.0187   -3.6737   18.5151 O   0  0  0  0  0  0  0  0  0  0  0  0
   -2.6701    3.6305   18.0274 C   0  0  2  0  0  0  0  0  0  0  0  0
   -1.2099    3.8800   17.9822 N   0  0  0  0  0  0  0  0  0  0  0  0
    0.5231    7.2198   17.7576 C   0  0  0  0  0  0  0  0  0  0  0  0
   -2.1013   -2.5040   17.5881 C   0  0  2  0  0  0  0  0  0  0  0  0
   -2.0437   -1.6185   18.7787 N   0  0  0  0  0  0  0  0  0  0  0  0
   -3.1556    3.0316   16.6363 C   0  0  1  0  0  0  0  0  0  0  0  0
   -2.3680    1.8223   16.2820 O   0  0  0  0  0  0  0  0  0  0  0  0
   -0.9841    6.8876   18.1405 C   0  0  2  0  0  0  0  0  0  0  0  0
   -1.0226    6.0414   19.3524 N   0  0  0  0  0  0  0  0  0  0  0  0
   -2.9184   -1.8024   16.4156 C   0  0  1  0  0  0  0  0  0  0  0  0
   -2.3594   -0.5200   16.0315 O   0  0  0  0  0  0  0  0  0  0  0  0
   -4.7233    2.7794   16.7476 C   0  0  2  0  0  0  0  0  0  0  0  0
   -5.2529    2.2656   15.5387 O   0  0  0  0  0  0  0  0  0  0  0  0
   -1.6948    6.1413   16.9375 C   0  0  2  0  0  0  0  0  0  0  0  0
   -2.9400   -2.7620   15.1838 C   0  0  2  0  0  0  0  0  0  0  0  0
   -3.6643   -2.1935   14.1106 O   0  0  0  0  0  0  0  0  0  0  0  0
   -5.4719    4.1106   17.1364 C   0  0  2  0  0  0  0  0  0  0  0  0
   -4.9155    4.6476   18.3960 O   0  0  0  0  0  0  0  0  0  0  0  0
   -1.6677    7.0244   15.6586 C   0  0  2  0  0  0  0  0  0  0  0  0
   -2.2990    6.2620   14.5903 O   0  0  0  0  0  0  0  0  0  0  0  0
   -3.5526   -4.1591   15.5988 C   0  0  2  0  0  0  0  0  0  0  0  0
   -2.7905   -4.7391   16.7283 O   0  0  0  0  0  0  0  0  0  0  0  0
   -6.9760    3.8875   17.2863 C   0  0  0  0  0  0  0  0  0  0  0  0
   -7.6522    5.1056   17.4809 O   0  0  0  0  0  0  0  0  0  0  0  0
   -0.2034    7.3529   15.2845 C   0  0  1  0  0  0  0  0  0  0  0  0
   -0.2070    8.1590   14.1251 O   0  0  0  0  0  0  0  0  0  0  0  0
   -3.5540   -5.1440   14.4395 C   0  0  0  0  0  0  0  0  0  0  0  0
   -4.1885   -6.3427   14.8142 O   0  0  0  0  0  0  0  0  0  0  0  0
   -2.9045    0.5391   16.8720 C   0  0  0  0  0  0  0  0  0  0  0  0
  1  2  1  6  0  0  0
  1  7  1  0  0  0  0
  1 24  1  0  0  0  0
  3  4  1  6  0  0  0
  3  9  1  0  0  0  0
  3 31  1  0  0  0  0
  5  6  1  6  0  0  0
  5 10  1  0  0  0  0
  5 28  1  0  0  0  0
  7  8  1  6  0  0  0
  7 12  1  0  0  0  0
  9 14  1  0  0  0  0
 10 11  1  1  0  0  0
 10 16  1  0  0  0  0
 12 13  1  1  0  0  0
 12 18  1  0  0  0  0
 13 35  1  0  0  0  0
 14 15  1  1  0  0  0
 14 20  1  0  0  0  0
 16 17  1  6  0  0  0
 16 21  1  0  0  0  0
 17 35  1  0  0  0  0
 18 19  1  6  0  0  0
 18 23  1  0  0  0  0
 20  2  1  1  0  0  0
 20 25  1  0  0  0  0
 21 22  1  6  0  0  0
 21 27  1  0  0  0  0
 23 24  1  0  0  0  0
 23 29  1  1  0  0  0
 25 26  1  6  0  0  0
 25 31  1  0  0  0  0
 27 28  1  0  0  0  0
 27 33  1  6  0  0  0
 29 30  1  0  0  0  0
 31 32  1  6  0  0  0
 33 34  1  0  0  0  0
M  END
>  <CHROM.1>
-50.70383516,86.09597319,158.67284242,-86.94310597,-174.06468831,-67.06406203
-173.21334462,-175.91338289,-2.78149579,2.19904700,16.67479835,1.37577014
0.20840318,0.08627679

>  <Name>
2o3v_lig

>  <RI>
0

>  <Rbt.Current_Directory>
/home/afrankz/demos/rdock_decoys_rna/rnas/2o3v

>  <Rbt.Executable>
rbdock ($Id: //depot/dev/client3/rdock/2013.1/src/exe/rbdock.cxx#4 $)

>  <Rbt.Library>
libRbt.so (2013.1, Build901 2013/11/27)

>  <Rbt.Parameter_File>
/export/apps/rDock/src/rDock_2013.1_src/data/scripts/dock_solv.prm

>  <Rbt.Receptor>
prm/blind_docking_20.prm

>  <SCORE>
7.15618

>  <SCORE.INTER>
1.81397

>  <SCORE.INTER.CONST>
1

>  <SCORE.INTER.POLAR>
-2.11233

>  <SCORE.INTER.ROT>
8

>  <SCORE.INTER.SOLV>
30.7513

>  <SCORE.INTER.VDW>
-10.9333

>  <SCORE.INTER.norm>
0.0518276

>  <SCORE.INTRA>
2.42979

>  <SCORE.INTRA.DIHEDRAL>
-4.09924

>  <SCORE.INTRA.DIHEDRAL.0>
13.1227

>  <SCORE.INTRA.POLAR>
0

>  <SCORE.INTRA.POLAR.0>
0

>  <SCORE.INTRA.REPUL>
0

>  <SCORE.INTRA.REPUL.0>
0

>  <SCORE.INTRA.SOLV>
5.14362

>  <SCORE.INTRA.SOLV.lig_0>
-89.1587

>  <SCORE.INTRA.VDW>
1.9076

>  <SCORE.INTRA.VDW.0>
-0.838383

>  <SCORE.INTRA.norm>
0.0694226

>  <SCORE.RESTR>
2.91242

>  <SCORE.RESTR.CAVITY>
2.91242

>  <SCORE.RESTR.norm>
0.0832121

>  <SCORE.SYSTEM>
0

>  <SCORE.SYSTEM.CONST>
0

>  <SCORE.SYSTEM.DIHEDRAL>
0

>  <SCORE.SYSTEM.SOLV>
0

>  <SCORE.SYSTEM.norm>
0

>  <SCORE.heavy>
35

>  <SCORE.norm>
0.204462

>  <RMSD>
31.486

$$$$
2o3v_lig
 OpenBabel02141814113D
libRbt.so/2013.1/901 2013/11/27
 35 37  0  0  0  0  0  0  0  0999 V2000
   -2.3932   -1.3837   15.6997 C   0  0  2  0  0  0  0  0  0  0  0  0
   -3.4225   -2.3577   15.3465 O   0  0  0  0  0  0  0  0  0  0  0  0
   -3.4462   -6.6643   15.9630 C   0  0  2  0  0  0  0  0  0  0  0  0
   -3.2280   -8.1246   15.7349 N   0  0  0  0  0  0  0  0  0  0  0  0
   -5.7744    6.0679   18.7018 C   0  0  2  0  0  0  0  0  0  0  0  0
   -6.0505    5.3883   19.9458 O   0  0  0  0  0  0  0  0  0  0  0  0
   -3.0980   -0.4978   16.7753 C   0  0  2  0  0  0  0  0  0  0  0  0
   -3.5423   -1.3109   17.9319 N   0  0  0  0  0  0  0  0  0  0  0  0
   -4.3741   -6.0654   14.8203 C   0  0  0  0  0  0  0  0  0  0  0  0
   -6.3677    5.1917   17.5448 C   0  0  2  0  0  0  0  0  0  0  0  0
   -7.8231    4.9695   17.7376 N   0  0  0  0  0  0  0  0  0  0  0  0
   -4.3382    0.2877   16.1634 C   0  0  1  0  0  0  0  0  0  0  0  0
   -5.0211    1.0893   17.2119 O   0  0  0  0  0  0  0  0  0  0  0  0
   -4.5807   -4.5103   15.0796 C   0  0  2  0  0  0  0  0  0  0  0  0
   -5.4331   -3.9303   14.0196 N   0  0  0  0  0  0  0  0  0  0  0  0
   -5.6074    3.7987   17.4165 C   0  0  1  0  0  0  0  0  0  0  0  0
   -6.1144    2.9807   16.3309 O   0  0  0  0  0  0  0  0  0  0  0  0
   -3.8000    1.1445   14.9346 C   0  0  2  0  0  0  0  0  0  0  0  0
   -4.8458    1.8642   14.3067 O   0  0  0  0  0  0  0  0  0  0  0  0
   -3.1772   -3.7763   15.1064 C   0  0  2  0  0  0  0  0  0  0  0  0
   -4.0869    4.0823   17.2016 C   0  0  2  0  0  0  0  0  0  0  0  0
   -3.3568    2.8763   17.0910 O   0  0  0  0  0  0  0  0  0  0  0  0
   -3.0840    0.2146   13.8828 C   0  0  2  0  0  0  0  0  0  0  0  0
   -1.9955   -0.5386   14.5403 O   0  0  0  0  0  0  0  0  0  0  0  0
   -2.2741   -4.3722   16.2224 C   0  0  2  0  0  0  0  0  0  0  0  0
   -0.9939   -3.6803   16.1614 O   0  0  0  0  0  0  0  0  0  0  0  0
   -3.5309    4.9704   18.3854 C   0  0  2  0  0  0  0  0  0  0  0  0
   -4.3092    6.2253   18.4955 O   0  0  0  0  0  0  0  0  0  0  0  0
   -2.5247    1.0182   12.7096 C   0  0  0  0  0  0  0  0  0  0  0  0
   -3.1338    2.2835   12.6257 O   0  0  0  0  0  0  0  0  0  0  0  0
   -2.0733   -5.8858   15.9759 C   0  0  1  0  0  0  0  0  0  0  0  0
   -1.2556   -6.4028   17.0046 O   0  0  0  0  0  0  0  0  0  0  0  0
   -2.0602    5.3098   18.1966 C   0  0  0  0  0  0  0  0  0  0  0  0
   -1.3660    4.2070   17.6656 O   0  0  0  0  0  0  0  0  0  0  0  0
   -6.3724    1.6248   16.8002 C   0  0  0  0  0  0  0  0  0  0  0  0
  1  2  1  6  0  0  0
  1  7  1  0  0  0  0
  1 24  1  0  0  0  0
  3  4  1  6  0  0  0
  3  9  1  0  0  0  0
  3 31  1  0  0  0  0
  5  6  1  1  0  0  0
  5 10  1  0  0  0  0
  5 28  1  0  0  0  0
  7  8  1  1  0  0  0
  7 12  1  0  0  0  0
  9 14  1  0  0  0  0
 10 11  1  1  0  0  0
 10 16  1  0  0  0  0
 12 13  1  1  0  0  0
 12 18  1  0  0  0  0
 13 35  1  0  0  0  0
 14 15  1  6  0  0  0
 14 20  1  0  0  0  0
 16 17  1  6  0  0  0
 16 21  1  0  0  0  0
 17 35  1  0  0  0  0
 18 19  1  6  0  0  0
 18 23  1  0  0  0  0
 20  2  1  1  0  0  0
 20 25  1  0  0  0  0
 21 22  1  1  0  0  0
 21 27  1  0  0  0  0
 23 24  1  0  0  0  0
 23 29  1  6  0  0  0
 25 26  1  6  0  0  0
 25 31  1  0  0  0  0
 27 28  1  0  0  0  0
 27 33  1  6  0  0  0
 29 30  1  0  0  0  0
 31 32  1  1  0  0  0
 33 34  1  0  0  0  0
M  END
>  <CHROM.1>
-139.79255351,-167.34944458,-95.67324488,-131.17260211,-63.37457461,167.44621388
-18.92142344,-38.63949164,-3.83588329,0.22923045,16.28168782,-1.27957431
0.85984205,-0.00609469

>  <Name>
2o3v_lig

>  <RI>
0

>  <Rbt.Current_Directory>
/home/afrankz/demos/rdock_decoys_rna/rnas/2o3v

>  <Rbt.Executable>
rbdock ($Id: //depot/dev/client3/rdock/2013.1/src/exe/rbdock.cxx#4 $)

>  <Rbt.Library>
libRbt.so (2013.1, Build901 2013/11/27)

>  <Rbt.Parameter_File>
/export/apps/rDock/src/rDock_2013.1_src/data/scripts/dock_solv.prm

>  <Rbt.Receptor>
prm/blind_docking_100.prm

>  <SCORE>
-3.84296

>  <SCORE.INTER>
-16.7886

>  <SCORE.INTER.CONST>
1

>  <SCORE.INTER.POLAR>
-3.14168

>  <SCORE.INTER.ROT>
8

>  <SCORE.INTER.SOLV>
31.2554

>  <SCORE.INTER.VDW>
-20.0719

>  <SCORE.INTER.norm>
-0.479674

>  <SCORE.INTRA>
8.16493

>  <SCORE.INTRA.DIHEDRAL>
10.7258

>  <SCORE.INTRA.DIHEDRAL.0>
13.1227

>  <SCORE.INTRA.POLAR>
0

>  <SCORE.INTRA.POLAR.0>
0

>  <SCORE.INTRA.REPUL>
0

>  <SCORE.INTRA.REPUL.0>
0

>  <SCORE.INTRA.SOLV>
2.02303

>  <SCORE.INTRA.SOLV.lig_0>
-89.1587

>  <SCORE.INTRA.VDW>
1.79051

>  <SCORE.INTRA.VDW.0>
-0.838383

>  <SCORE.INTRA.norm>
0.233284

>  <SCORE.RESTR>
4.78071

>  <SCORE.RESTR.CAVITY>
4.78071

>  <SCORE.RESTR.norm>
0.136592

>  <SCORE.SYSTEM>
0

>  <SCORE.SYSTEM.CONST>
0

>  <SCORE.SYSTEM.DIHEDRAL>
0

>  <SCORE.SYSTEM.SOLV>
0

>  <SCORE.SYSTEM.norm>
0

>  <SCORE.heavy>
35

>  <SCORE.norm>
-0.109799

>  <RMSD>
31.505

$$$$
2o3v_lig
 OpenBabel02141814113D
libRbt.so/2013.1/901 2013/11/27
 35 37  0  0  0  0  0  0  0  0999 V2000
   -4.7651    2.1585   16.3623 C   0  0  2  0  0  0  0  0  0  0  0  0
   -3.6483    2.8800   16.9665 O   0  0  0  0  0  0  0  0  0  0  0  0
   -3.7696    5.5829   20.3734 C   0  0  2  0  0  0  0  0  0  0  0  0
   -3.8726    6.8382   21.1770 N   0  0  0  0  0  0  0  0  0  0  0  0
   -3.5102   -6.5514   15.9023 C   0  0  2  0  0  0  0  0  0  0  0  0
   -3.3322   -6.6608   14.4734 O   0  0  0  0  0  0  0  0  0  0  0  0
   -4.2234    0.6985   16.2479 C   0  0  2  0  0  0  0  0  0  0  0  0
   -3.8429    0.1625   17.5762 N   0  0  0  0  0  0  0  0  0  0  0  0
   -2.5146    5.6577   19.4014 C   0  0  0  0  0  0  0  0  0  0  0  0
   -4.0864   -5.1233   16.1971 C   0  0  2  0  0  0  0  0  0  0  0  0
   -5.3602   -4.9017   15.4667 N   0  0  0  0  0  0  0  0  0  0  0  0
   -2.9811    0.6124   15.2585 C   0  0  1  0  0  0  0  0  0  0  0  0
   -2.4533   -0.7754   15.1980 O   0  0  0  0  0  0  0  0  0  0  0  0
   -2.4348    4.3167   18.5507 C   0  0  2  0  0  0  0  0  0  0  0  0
   -1.2789    4.3705   17.6302 N   0  0  0  0  0  0  0  0  0  0  0  0
   -3.0361   -3.9824   15.8367 C   0  0  1  0  0  0  0  0  0  0  0  0
   -3.5310   -2.6508   16.1310 O   0  0  0  0  0  0  0  0  0  0  0  0
   -3.4506    1.1934   13.8530 C   0  0  2  0  0  0  0  0  0  0  0  0
   -2.3959    1.1799   12.9079 O   0  0  0  0  0  0  0  0  0  0  0  0
   -3.7731    4.1197   17.7266 C   0  0  2  0  0  0  0  0  0  0  0  0
   -1.7216   -4.2486   16.6366 C   0  0  2  0  0  0  0  0  0  0  0  0
   -0.7444   -3.2684   16.3471 O   0  0  0  0  0  0  0  0  0  0  0  0
   -4.0030    2.6603   14.0170 C   0  0  2  0  0  0  0  0  0  0  0  0
   -5.1010    2.6734   15.0063 O   0  0  0  0  0  0  0  0  0  0  0  0
   -4.9958    4.0538   18.6842 C   0  0  2  0  0  0  0  0  0  0  0  0
   -6.1874    3.9132   17.8589 O   0  0  0  0  0  0  0  0  0  0  0  0
   -1.1780   -5.6977   16.3145 C   0  0  2  0  0  0  0  0  0  0  0  0
   -2.2134   -6.7131   16.6139 O   0  0  0  0  0  0  0  0  0  0  0  0
   -4.4955    3.2284   12.6867 C   0  0  0  0  0  0  0  0  0  0  0  0
   -4.3449    4.6264   12.6458 O   0  0  0  0  0  0  0  0  0  0  0  0
   -5.0752    5.3551   19.5164 C   0  0  1  0  0  0  0  0  0  0  0  0
   -6.1888    5.2674   20.3803 O   0  0  0  0  0  0  0  0  0  0  0  0
    0.0806   -6.0195   17.1059 C   0  0  0  0  0  0  0  0  0  0  0  0
    1.1537   -5.2218   16.6675 O   0  0  0  0  0  0  0  0  0  0  0  0
   -3.5046   -1.8265   14.9289 C   0  0  0  0  0  0  0  0  0  0  0  0
  1  2  1  6  0  0  0
  1  7  1  0  0  0  0
  1 24  1  0  0  0  0
  3  4  1  6  0  0  0
  3  9  1  0  0  0  0
  3 31  1  0  0  0  0
  5  6  1  6  0  0  0
  5 10  1  0  0  0  0
  5 28  1  0  0  0  0
  7  8  1  1  0  0  0
  7 12  1  0  0  0  0
  9 14  1  0  0  0  0
 10 11  1  6  0  0  0
 10 16  1  0  0  0  0
 12 13  1  6  0  0  0
 12 18  1  0  0  0  0
 13 35  1  0  0  0  0
 14 15  1  6  0  0  0
 14 20  1  0  0  0  0
 16 17  1  1  0  0  0
 16 21  1  0  0  0  0
 17 35  1  0  0  0  0
 18 19  1  6  0  0  0
 18 23  1  0  0  0  0
 20  2  1  1  0  0  0
 20 25  1  0  0  0  0
 21 22  1  6  0  0  0
 21 27  1  0  0  0  0
 23 24  1  0  0  0  0
 23 29  1  6  0  0  0
 25 26  1  6  0  0  0
 25 31  1  0  0  0  0
 27 28  1  0  0  0  0
 27 33  1  1  0  0  0
 29 30  1  0  0  0  0
 31 32  1  1  0  0  0
 33 34  1  0  0  0  0
M  END
>  <CHROM.1>
-156.27182143,50.75551372,-115.68365594,-122.91198196,-112.56775488,163.18657475
-150.08679653,-68.13694656,-3.32639229,0.19266787,16.49706554,2.26386149
-1.25626525,0.88092038

>  <Name>
2o3v_lig

>  <RI>
0

>  <Rbt.Current_Directory>
/home/afrankz/demos/rdock_decoys_rna/rnas/2o3v

>  <Rbt.Executable>
rbdock ($Id: //depot/dev/client3/rdock/2013.1/src/exe/rbdock.cxx#4 $)

>  <Rbt.Library>
libRbt.so (2013.1, Build901 2013/11/27)

>  <Rbt.Parameter_File>
/export/apps/rDock/src/rDock_2013.1_src/data/scripts/dock_solv.prm

>  <Rbt.Receptor>
prm/blind_docking_40.prm

>  <SCORE>
2.93244

>  <SCORE.INTER>
-6.63106

>  <SCORE.INTER.CONST>
1

>  <SCORE.INTER.POLAR>
-2.1546

>  <SCORE.INTER.ROT>
8

>  <SCORE.INTER.SOLV>
29.0595

>  <SCORE.INTER.VDW>
-15.8585

>  <SCORE.INTER.norm>
-0.189459

>  <SCORE.INTRA>
6.82038

>  <SCORE.INTRA.DIHEDRAL>
15.125

>  <SCORE.INTRA.DIHEDRAL.0>
13.1227

>  <SCORE.INTRA.POLAR>
0

>  <SCORE.INTRA.POLAR.0>
0

>  <SCORE.INTRA.REPUL>
0

>  <SCORE.INTRA.REPUL.0>
0

>  <SCORE.INTRA.SOLV>
0.386546

>  <SCORE.INTRA.SOLV.lig_0>
-89.1587

>  <SCORE.INTRA.VDW>
-0.935397

>  <SCORE.INTRA.VDW.0>
-0.838383

>  <SCORE.INTRA.norm>
0.194868

>  <SCORE.RESTR>
2.74313

>  <SCORE.RESTR.CAVITY>
2.74313

>  <SCORE.RESTR.norm>
0.078375

>  <SCORE.SYSTEM>
0

>  <SCORE.SYSTEM.CONST>
0

>  <SCORE.SYSTEM.DIHEDRAL>
0

>  <SCORE.SYSTEM.SOLV>
0

>  <SCORE.SYSTEM.norm>
0

>  <SCORE.heavy>
35

>  <SCORE.norm>
0.0837841

>  <RMSD>
31.519

$$$$
2o3v_lig
 OpenBabel02141814113D
libRbt.so/2013.1/901 2013/11/27
 35 37  0  0  0  0  0  0  0  0999 V2000
   -4.4121    3.2110   17.8793 C   0  0  2  0  0  0  0  0  0  0  0  0
   -4.0043    4.1953   16.8805 O   0  0  0  0  0  0  0  0  0  0  0  0
   -0.9211    7.2626   16.9956 C   0  0  2  0  0  0  0  0  0  0  0  0
    0.4205    7.9186   16.9513 N   0  0  0  0  0  0  0  0  0  0  0  0
   -1.7685   -5.8095   16.5378 C   0  0  2  0  0  0  0  0  0  0  0  0
   -2.4429   -5.9650   17.8053 O   0  0  0  0  0  0  0  0  0  0  0  0
   -3.4412    2.0165   17.6166 C   0  0  2  0  0  0  0  0  0  0  0  0
   -2.0267    2.4335   17.7633 N   0  0  0  0  0  0  0  0  0  0  0  0
   -0.9755    6.2094   18.1843 C   0  0  0  0  0  0  0  0  0  0  0  0
   -1.2276   -4.3395   16.4695 C   0  0  2  0  0  0  0  0  0  0  0  0
   -0.3232   -4.0510   17.6114 N   0  0  0  0  0  0  0  0  0  0  0  0
   -3.6681    1.3860   16.1742 C   0  0  1  0  0  0  0  0  0  0  0  0
   -2.7057    0.2810   15.9271 O   0  0  0  0  0  0  0  0  0  0  0  0
   -2.4075    5.5184   18.2020 C   0  0  2  0  0  0  0  0  0  0  0  0
   -2.4755    4.5250   19.2951 N   0  0  0  0  0  0  0  0  0  0  0  0
   -2.4152   -3.2802   16.4228 C   0  0  1  0  0  0  0  0  0  0  0  0
   -1.9431   -1.9118   16.3255 O   0  0  0  0  0  0  0  0  0  0  0  0
   -5.1968    0.9530   16.0789 C   0  0  2  0  0  0  0  0  0  0  0  0
   -5.5008    0.3992   14.8112 O   0  0  0  0  0  0  0  0  0  0  0  0
   -2.6829    4.8113   16.8115 C   0  0  2  0  0  0  0  0  0  0  0  0
   -3.3292   -3.6142   15.2014 C   0  0  2  0  0  0  0  0  0  0  0  0
   -4.4118   -2.7086   15.1155 O   0  0  0  0  0  0  0  0  0  0  0  0
   -6.1395    2.1831   16.3652 C   0  0  2  0  0  0  0  0  0  0  0  0
   -5.8185    2.7621   17.6866 O   0  0  0  0  0  0  0  0  0  0  0  0
   -2.6217    5.8472   15.6541 C   0  0  2  0  0  0  0  0  0  0  0  0
   -2.8431    5.1229   14.4102 O   0  0  0  0  0  0  0  0  0  0  0  0
   -3.8482   -5.1037   15.3071 C   0  0  2  0  0  0  0  0  0  0  0  0
   -2.7054   -6.0403   15.4050 O   0  0  0  0  0  0  0  0  0  0  0  0
   -7.6141    1.7856   16.3165 C   0  0  0  0  0  0  0  0  0  0  0  0
   -8.4284    2.8943   16.0223 O   0  0  0  0  0  0  0  0  0  0  0  0
   -1.2314    6.5245   15.6355 C   0  0  1  0  0  0  0  0  0  0  0  0
   -1.2041    7.4630   14.5807 O   0  0  0  0  0  0  0  0  0  0  0  0
   -4.7093   -5.4896   14.1140 C   0  0  0  0  0  0  0  0  0  0  0  0
   -5.0593   -6.8508   14.1808 O   0  0  0  0  0  0  0  0  0  0  0  0
   -3.0059   -0.9849   16.6949 C   0  0  0  0  0  0  0  0  0  0  0  0
  1  2  1  6  0  0  0
  1  7  1  0  0  0  0
  1 24  1  0  0  0  0
  3  4  1  6  0  0  0
  3  9  1  0  0  0  0
  3 31  1  0  0  0  0
  5  6  1  1  0  0  0
  5 10  1  0  0  0  0
  5 28  1  0  0  0  0
  7  8  1  6  0  0  0
  7 12  1  0  0  0  0
  9 14  1  0  0  0  0
 10 11  1  1  0  0  0
 10 16  1  0  0  0  0
 12 13  1  1  0  0  0
 12 18  1  0  0  0  0
 13 35  1  0  0  0  0
 14 15  1  1  0  0  0
 14 20  1  0  0  0  0
 16 17  1  6  0  0  0
 16 21  1  0  0  0  0
 17 35  1  0  0  0  0
 18 19  1  6  0  0  0
 18 23  1  0  0  0  0
 20  2  1  1  0  0  0
 20 25  1  0  0  0  0
 21 22  1  1  0  0  0
 21 27  1  0  0  0  0
 23 24  1  0  0  0  0
 23 29  1  1  0  0  0
 25 26  1  6  0  0  0
 25 31  1  0  0  0  0
 27 28  1  0  0  0  0
 27 33  1  6  0  0  0
 29 30  1  0  0  0  0
 31 32  1  6  0  0  0
 33 34  1  0  0  0  0
M  END
>  <CHROM.1>
-61.88604142,73.30192410,-179.09440214,-162.61029514,-151.90700316,-57.18341231
-155.74743849,174.96363282,-3.27056779,0.79277338,16.35088609,1.49075705
-0.20107947,0.07061719

>  <Name>
2o3v_lig

>  <RI>
0

>  <Rbt.Current_Directory>
/home/afrankz/demos/rdock_decoys_rna/rnas/2o3v

>  <Rbt.Executable>
rbdock ($Id: //depot/dev/client3/rdock/2013.1/src/exe/rbdock.cxx#4 $)

>  <Rbt.Library>
libRbt.so (2013.1, Build901 2013/11/27)

>  <Rbt.Parameter_File>
/export/apps/rDock/src/rDock_2013.1_src/data/scripts/dock_solv.prm

>  <Rbt.Receptor>
prm/blind_docking_20.prm

>  <SCORE>
-10.605

>  <SCORE.INTER>
-16.3145

>  <SCORE.INTER.CONST>
1

>  <SCORE.INTER.POLAR>
-1.70773

>  <SCORE.INTER.ROT>
8

>  <SCORE.INTER.SOLV>
25.0552

>  <SCORE.INTER.VDW>
-22.469

>  <SCORE.INTER.norm>
-0.466129

>  <SCORE.INTRA>
0.997977

>  <SCORE.INTRA.DIHEDRAL>
-5.59247

>  <SCORE.INTRA.DIHEDRAL.0>
13.1227

>  <SCORE.INTRA.POLAR>
0

>  <SCORE.INTRA.POLAR.0>
0

>  <SCORE.INTRA.REPUL>
0

>  <SCORE.INTRA.REPUL.0>
0

>  <SCORE.INTRA.SOLV>
4.68123

>  <SCORE.INTRA.SOLV.lig_0>
-89.1587

>  <SCORE.INTRA.VDW>
1.45359

>  <SCORE.INTRA.VDW.0>
-0.838383

>  <SCORE.INTRA.norm>
0.0285136

>  <SCORE.RESTR>
4.71151

>  <SCORE.RESTR.CAVITY>
4.71151

>  <SCORE.RESTR.norm>
0.134615

>  <SCORE.SYSTEM>
0

>  <SCORE.SYSTEM.CONST>
0

>  <SCORE.SYSTEM.DIHEDRAL>
0

>  <SCORE.SYSTEM.SOLV>
0

>  <SCORE.SYSTEM.norm>
0

>  <SCORE.heavy>
35

>  <SCORE.norm>
-0.303

>  <RMSD>
31.523

$$$$
2o3v_lig
 OpenBabel02141814113D
libRbt.so/2013.1/901 2013/11/27
 35 37  0  0  0  0  0  0  0  0999 V2000
   -4.0195    2.5525   16.6017 C   0  0  2  0  0  0  0  0  0  0  0  0
   -2.7455    3.2436   16.7814 O   0  0  0  0  0  0  0  0  0  0  0  0
   -0.8616    7.1650   16.7635 C   0  0  2  0  0  0  0  0  0  0  0  0
   -0.6801    8.6449   16.8605 N   0  0  0  0  0  0  0  0  0  0  0  0
   -5.6110   -5.0445   17.9549 C   0  0  2  0  0  0  0  0  0  0  0  0
   -6.6540   -4.8454   16.9762 O   0  0  0  0  0  0  0  0  0  0  0  0
   -3.6237    1.0459   16.7109 C   0  0  2  0  0  0  0  0  0  0  0  0
   -2.9886    0.7520   18.0172 N   0  0  0  0  0  0  0  0  0  0  0  0
   -1.8742    6.8145   15.5900 C   0  0  0  0  0  0  0  0  0  0  0  0
   -4.5407   -3.9194   17.7382 C   0  0  2  0  0  0  0  0  0  0  0  0
   -5.1533   -2.5718   17.8554 N   0  0  0  0  0  0  0  0  0  0  0  0
   -2.6502    0.6109   15.5308 C   0  0  1  0  0  0  0  0  0  0  0  0
   -2.2506   -0.8128   15.6778 O   0  0  0  0  0  0  0  0  0  0  0  0
   -2.0585    5.2368   15.5159 C   0  0  2  0  0  0  0  0  0  0  0  0
   -3.0073    4.8893   14.4363 N   0  0  0  0  0  0  0  0  0  0  0  0
   -3.8059   -4.0730   16.3342 C   0  0  1  0  0  0  0  0  0  0  0  0
   -2.7859   -3.0635   16.1213 O   0  0  0  0  0  0  0  0  0  0  0  0
   -3.3863    0.9433   14.1592 C   0  0  2  0  0  0  0  0  0  0  0  0
   -2.5796    0.6102   13.0438 O   0  0  0  0  0  0  0  0  0  0  0  0
   -2.5943    4.6901   16.9028 C   0  0  2  0  0  0  0  0  0  0  0  0
   -3.1670   -5.4961   16.2626 C   0  0  2  0  0  0  0  0  0  0  0  0
   -2.5067   -5.6941   15.0279 O   0  0  0  0  0  0  0  0  0  0  0  0
   -3.7806    2.4679   14.0979 C   0  0  2  0  0  0  0  0  0  0  0  0
   -4.6192    2.8149   15.2645 O   0  0  0  0  0  0  0  0  0  0  0  0
   -1.6013    5.0427   18.0455 C   0  0  2  0  0  0  0  0  0  0  0  0
   -2.1755    4.5471   19.2888 O   0  0  0  0  0  0  0  0  0  0  0  0
   -4.2772   -6.5982   16.4903 C   0  0  2  0  0  0  0  0  0  0  0  0
   -4.9661   -6.3743   17.7819 O   0  0  0  0  0  0  0  0  0  0  0  0
   -4.5226    2.8061   12.8057 C   0  0  0  0  0  0  0  0  0  0  0  0
   -4.5280    4.1933   12.5724 O   0  0  0  0  0  0  0  0  0  0  0  0
   -1.4163    6.5765   18.1189 C   0  0  1  0  0  0  0  0  0  0  0  0
   -0.5072    6.8690   19.1591 O   0  0  0  0  0  0  0  0  0  0  0  0
   -3.6933   -8.0027   16.4727 C   0  0  0  0  0  0  0  0  0  0  0  0
   -3.0921   -8.2690   15.2287 O   0  0  0  0  0  0  0  0  0  0  0  0
   -3.4028   -1.7564   15.9313 C   0  0  0  0  0  0  0  0  0  0  0  0
  1  2  1  6  0  0  0
  1  7  1  0  0  0  0
  1 24  1  0  0  0  0
  3  4  1  1  0  0  0
  3  9  1  0  0  0  0
  3 31  1  0  0  0  0
  5  6  1  6  0  0  0
  5 10  1  0  0  0  0
  5 28  1  0  0  0  0
  7  8  1  1  0  0  0
  7 12  1  0  0  0  0
  9 14  1  0  0  0  0
 10 11  1  6  0  0  0
 10 16  1  0  0  0  0
 12 13  1  6  0  0  0
 12 18  1  0  0  0  0
 13 35  1  0  0  0  0
 14 15  1  6  0  0  0
 14 20  1  0  0  0  0
 16 17  1  1  0  0  0
 16 21  1  0  0  0  0
 17 35  1  0  0  0  0
 18 19  1  6  0  0  0
 18 23  1  0  0  0  0
 20  2  1  6  0  0  0
 20 25  1  0  0  0  0
 21 22  1  6  0  0  0
 21 27  1  0  0  0  0
 23 24  1  0  0  0  0
 23 29  1  6  0  0  0
 25 26  1  1  0  0  0
 25 31  1  0  0  0  0
 27 28  1  0  0  0  0
 27 33  1  1  0  0  0
 29 30  1  0  0  0  0
 31 32  1  1  0  0  0
 33 34  1  0  0  0  0
M  END
>  <CHROM.1>
-173.27147823,48.51215967,-176.68747324,-69.68075949,-178.23174913,-103.08975312
-162.85206905,-60.71205809,-3.20880897,0.39938619,16.21700920,-0.87274969
1.29008032,2.46758976

>  <Name>
2o3v_lig

>  <RI>
0

>  <Rbt.Current_Directory>
/home/afrankz/demos/rdock_decoys_rna/rnas/2o3v

>  <Rbt.Executable>
rbdock ($Id: //depot/dev/client3/rdock/2013.1/src/exe/rbdock.cxx#4 $)

>  <Rbt.Library>
libRbt.so (2013.1, Build901 2013/11/27)

>  <Rbt.Parameter_File>
/export/apps/rDock/src/rDock_2013.1_src/data/scripts/dock_solv.prm

>  <Rbt.Receptor>
prm/blind_docking_20.prm

>  <SCORE>
14.4379

>  <SCORE.INTER>
7.85878

>  <SCORE.INTER.CONST>
1

>  <SCORE.INTER.POLAR>
-0.140862

>  <SCORE.INTER.ROT>
8

>  <SCORE.INTER.SOLV>
31.9551

>  <SCORE.INTER.VDW>
-13.8763

>  <SCORE.INTER.norm>
0.224537

>  <SCORE.INTRA>
2.2835

>  <SCORE.INTRA.DIHEDRAL>
-4.82124

>  <SCORE.INTRA.DIHEDRAL.0>
13.1227

>  <SCORE.INTRA.POLAR>
0

>  <SCORE.INTRA.POLAR.0>
0

>  <SCORE.INTRA.REPUL>
0

>  <SCORE.INTRA.REPUL.0>
0

>  <SCORE.INTRA.SOLV>
5.92376

>  <SCORE.INTRA.SOLV.lig_0>
-89.1587

>  <SCORE.INTRA.VDW>
1.73224

>  <SCORE.INTRA.VDW.0>
-0.838383

>  <SCORE.INTRA.norm>
0.0652427

>  <SCORE.RESTR>
4.29565

>  <SCORE.RESTR.CAVITY>
4.29565

>  <SCORE.RESTR.norm>
0.122733

>  <SCORE.SYSTEM>
0

>  <SCORE.SYSTEM.CONST>
0

>  <SCORE.SYSTEM.DIHEDRAL>
0

>  <SCORE.SYSTEM.SOLV>
0

>  <SCORE.SYSTEM.norm>
0

>  <SCORE.heavy>
35

>  <SCORE.norm>
0.412512

>  <RMSD>
31.536

$$$$
2o3v_lig
 OpenBabel02141814113D
libRbt.so/2013.1/901 2013/11/27
 35 37  0  0  0  0  0  0  0  0999 V2000
   -3.4509   -5.4247   17.7648 C   0  0  2  0  0  0  0  0  0  0  0  0
   -4.1854   -5.0984   16.5455 O   0  0  0  0  0  0  0  0  0  0  0  0
   -6.9930   -6.6293   13.5958 C   0  0  2  0  0  0  0  0  0  0  0  0
   -7.7882   -7.5831   12.7650 N   0  0  0  0  0  0  0  0  0  0  0  0
   -3.2057    3.3755   15.6936 C   0  0  2  0  0  0  0  0  0  0  0  0
   -1.8029    3.6423   15.9095 O   0  0  0  0  0  0  0  0  0  0  0  0
   -3.5748   -4.1195   18.6131 C   0  0  2  0  0  0  0  0  0  0  0  0
   -4.9943   -3.7798   18.8696 N   0  0  0  0  0  0  0  0  0  0  0  0
   -5.4399   -6.8380   13.3315 C   0  0  0  0  0  0  0  0  0  0  0  0
   -3.5778    2.1040   16.5321 C   0  0  2  0  0  0  0  0  0  0  0  0
   -3.2728    2.3068   17.9711 N   0  0  0  0  0  0  0  0  0  0  0  0
   -2.8486   -2.8932   17.9071 C   0  0  1  0  0  0  0  0  0  0  0  0
   -3.0159   -1.6525   18.7077 O   0  0  0  0  0  0  0  0  0  0  0  0
   -4.6172   -5.8205   14.2349 C   0  0  2  0  0  0  0  0  0  0  0  0
   -3.1672   -6.0061   14.0126 N   0  0  0  0  0  0  0  0  0  0  0  0
   -2.8355    0.8053   15.9868 C   0  0  1  0  0  0  0  0  0  0  0  0
   -3.1876   -0.3934   16.7242 O   0  0  0  0  0  0  0  0  0  0  0  0
   -1.3325   -3.3131   17.6643 C   0  0  2  0  0  0  0  0  0  0  0  0
   -0.6078   -2.2852   17.0130 O   0  0  0  0  0  0  0  0  0  0  0  0
   -4.9637   -6.0534   15.7630 C   0  0  2  0  0  0  0  0  0  0  0  0
   -3.1962    0.6253   14.4782 C   0  0  2  0  0  0  0  0  0  0  0  0
   -2.5541   -0.5115   13.9353 O   0  0  0  0  0  0  0  0  0  0  0  0
   -1.2545   -4.6408   16.8189 C   0  0  2  0  0  0  0  0  0  0  0  0
   -2.0145   -5.7113   17.4978 O   0  0  0  0  0  0  0  0  0  0  0  0
   -6.4851   -5.8535   16.0113 C   0  0  2  0  0  0  0  0  0  0  0  0
   -6.7344   -6.1216   17.4210 O   0  0  0  0  0  0  0  0  0  0  0  0
   -2.8098    1.9289   13.6716 C   0  0  2  0  0  0  0  0  0  0  0  0
   -3.4819    3.1123   14.2554 O   0  0  0  0  0  0  0  0  0  0  0  0
    0.1909   -5.0866   16.6029 C   0  0  0  0  0  0  0  0  0  0  0  0
    0.2551   -6.4490   16.2586 O   0  0  0  0  0  0  0  0  0  0  0  0
   -7.2894   -6.8391   15.1317 C   0  0  1  0  0  0  0  0  0  0  0  0
   -8.6657   -6.6334   15.3717 O   0  0  0  0  0  0  0  0  0  0  0  0
   -3.1835    1.8170   12.2013 C   0  0  0  0  0  0  0  0  0  0  0  0
   -2.6069    2.8695   11.4666 O   0  0  0  0  0  0  0  0  0  0  0  0
   -2.5215   -0.4010   18.0209 C   0  0  0  0  0  0  0  0  0  0  0  0
  1  2  1  6  0  0  0
  1  7  1  0  0  0  0
  1 24  1  0  0  0  0
  3  4  1  6  0  0  0
  3  9  1  0  0  0  0
  3 31  1  0  0  0  0
  5  6  1  6  0  0  0
  5 10  1  0  0  0  0
  5 28  1  0  0  0  0
  7  8  1  6  0  0  0
  7 12  1  0  0  0  0
  9 14  1  0  0  0  0
 10 11  1  1  0  0  0
 10 16  1  0  0  0  0
 12 13  1  1  0  0  0
 12 18  1  0  0  0  0
 13 35  1  0  0  0  0
 14 15  1  1  0  0  0
 14 20  1  0  0  0  0
 16 17  1  1  0  0  0
 16 21  1  0  0  0  0
 17 35  1  0  0  0  0
 18 19  1  6  0  0  0
 18 23  1  0  0  0  0
 20  2  1  1  0  0  0
 20 25  1  0  0  0  0
 21 22  1  6  0  0  0
 21 27  1  0  0  0  0
 23 24  1  0  0  0  0
 23 29  1  1  0  0  0
 25 26  1  1  0  0  0
 25 31  1  0  0  0  0
 27 28  1  0  0  0  0
 27 33  1  6  0  0  0
 29 30  1  0  0  0  0
 31 32  1  6  0  0  0
 33 34  1  0  0  0  0
M  END
>  <CHROM.1>
-146.38648996,-172.05569844,53.04330496,-75.20202617,177.42880295,-135.13691261
160.35779579,-168.86992990,-3.60677807,-2.64031304,15.84925134,-1.99005442
-0.74859725,-0.34929288

>  <Name>
2o3v_lig

>  <RI>
0

>  <Rbt.Current_Directory>
/home/afrankz/demos/rdock_decoys_rna/rnas/2o3v

>  <Rbt.Executable>
rbdock ($Id: //depot/dev/client3/rdock/2013.1/src/exe/rbdock.cxx#4 $)

>  <Rbt.Library>
libRbt.so (2013.1, Build901 2013/11/27)

>  <Rbt.Parameter_File>
/export/apps/rDock/src/rDock_2013.1_src/data/scripts/dock_solv.prm

>  <Rbt.Receptor>
prm/blind_docking_20.prm

>  <SCORE>
43.5581

>  <SCORE.INTER>
38.0968

>  <SCORE.INTER.CONST>
1

>  <SCORE.INTER.POLAR>
-2.12573

>  <SCORE.INTER.ROT>
8

>  <SCORE.INTER.SOLV>
36.4148

>  <SCORE.INTER.VDW>
11.412

>  <SCORE.INTER.norm>
1.08848

>  <SCORE.INTRA>
0.173767

>  <SCORE.INTRA.DIHEDRAL>
0.670051

>  <SCORE.INTRA.DIHEDRAL.0>
13.1227

>  <SCORE.INTRA.POLAR>
0

>  <SCORE.INTRA.POLAR.0>
0

>  <SCORE.INTRA.REPUL>
0

>  <SCORE.INTRA.REPUL.0>
0

>  <SCORE.INTRA.SOLV>
2.14969

>  <SCORE.INTRA.SOLV.lig_0>
-89.1587

>  <SCORE.INTRA.VDW>
-1.2361

>  <SCORE.INTRA.VDW.0>
-0.838383

>  <SCORE.INTRA.norm>
0.00496478

>  <SCORE.RESTR>
5.2876

>  <SCORE.RESTR.CAVITY>
5.2876

>  <SCORE.RESTR.norm>
0.151074

>  <SCORE.SYSTEM>
0

>  <SCORE.SYSTEM.CONST>
0

>  <SCORE.SYSTEM.DIHEDRAL>
0

>  <SCORE.SYSTEM.SOLV>
0

>  <SCORE.SYSTEM.norm>
0

>  <SCORE.heavy>
35

>  <SCORE.norm>
1.24452

>  <RMSD>
31.562

$$$$
2o3v_lig
 OpenBabel02141814113D
libRbt.so/2013.1/901 2013/11/27
 35 37  0  0  0  0  0  0  0  0999 V2000
   -5.0604    3.0378   15.6366 C   0  0  2  0  0  0  0  0  0  0  0  0
   -4.1609    4.1733   15.8220 O   0  0  0  0  0  0  0  0  0  0  0  0
   -3.5589    5.0349   20.0436 C   0  0  2  0  0  0  0  0  0  0  0  0
   -3.4018    5.7923   21.3219 N   0  0  0  0  0  0  0  0  0  0  0  0
   -3.7738   -5.1000   17.4693 C   0  0  2  0  0  0  0  0  0  0  0  0
   -4.4535   -5.2394   16.2027 O   0  0  0  0  0  0  0  0  0  0  0  0
   -4.2160    1.8291   16.1508 C   0  0  2  0  0  0  0  0  0  0  0  0
   -3.8131    2.0196   17.5642 N   0  0  0  0  0  0  0  0  0  0  0  0
   -2.4078    5.4377   19.0247 C   0  0  0  0  0  0  0  0  0  0  0  0
   -3.4410   -3.5797   17.6602 C   0  0  2  0  0  0  0  0  0  0  0  0
   -4.6736   -2.7536   17.6050 N   0  0  0  0  0  0  0  0  0  0  0  0
   -2.9252    1.5941   15.2518 C   0  0  1  0  0  0  0  0  0  0  0  0
   -2.1130    0.4690   15.7835 O   0  0  0  0  0  0  0  0  0  0  0  0
   -2.6046    4.6275   17.6708 C   0  0  2  0  0  0  0  0  0  0  0  0
   -1.5491    4.9967   16.7033 N   0  0  0  0  0  0  0  0  0  0  0  0
   -2.3854   -3.0716   16.5821 C   0  0  1  0  0  0  0  0  0  0  0  0
   -2.0335   -1.6750   16.7562 O   0  0  0  0  0  0  0  0  0  0  0  0
   -3.4196    1.3901   13.7527 C   0  0  2  0  0  0  0  0  0  0  0  0
   -2.3298    1.1969   12.8690 O   0  0  0  0  0  0  0  0  0  0  0  0
   -4.0319    4.9385   17.0581 C   0  0  2  0  0  0  0  0  0  0  0  0
   -1.1043   -3.9585   16.6868 C   0  0  2  0  0  0  0  0  0  0  0  0
   -0.1318   -3.5583   15.7415 O   0  0  0  0  0  0  0  0  0  0  0  0
   -4.2790    2.6239   13.2805 C   0  0  2  0  0  0  0  0  0  0  0  0
   -5.4136    2.8265   14.2057 O   0  0  0  0  0  0  0  0  0  0  0  0
   -5.1512    4.5473   18.0633 C   0  0  2  0  0  0  0  0  0  0  0  0
   -6.4261    4.8966   17.4520 O   0  0  0  0  0  0  0  0  0  0  0  0
   -1.4845   -5.4807   16.4934 C   0  0  2  0  0  0  0  0  0  0  0  0
   -2.5092   -5.8841   17.4834 O   0  0  0  0  0  0  0  0  0  0  0  0
   -4.7978    2.4363   11.8555 C   0  0  0  0  0  0  0  0  0  0  0  0
   -5.4459    3.5968   11.3952 O   0  0  0  0  0  0  0  0  0  0  0  0
   -4.9615    5.3307   19.3833 C   0  0  1  0  0  0  0  0  0  0  0  0
   -5.9858    4.9536   20.2794 O   0  0  0  0  0  0  0  0  0  0  0  0
   -0.2723   -6.3893   16.6310 C   0  0  0  0  0  0  0  0  0  0  0  0
    0.3053   -6.2476   17.9063 O   0  0  0  0  0  0  0  0  0  0  0  0
   -2.8652   -0.8358   15.9021 C   0  0  0  0  0  0  0  0  0  0  0  0
  1  2  1  6  0  0  0
  1  7  1  0  0  0  0
  1 24  1  0  0  0  0
  3  4  1  1  0  0  0
  3  9  1  0  0  0  0
  3 31  1  0  0  0  0
  5  6  1  6  0  0  0
  5 10  1  0  0  0  0
  5 28  1  0  0  0  0
  7  8  1  1  0  0  0
  7 12  1  0  0  0  0
  9 14  1  0  0  0  0
 10 11  1  6  0  0  0
 10 16  1  0  0  0  0
 12 13  1  1  0  0  0
 12 18  1  0  0  0  0
 13 35  1  0  0  0  0
 14 15  1  6  0  0  0
 14 20  1  0  0  0  0
 16 17  1  1  0  0  0
 16 21  1  0  0  0  0
 17 35  1  0  0  0  0
 18 19  1  6  0  0  0
 18 23  1  0  0  0  0
 20  2  1  6  0  0  0
 20 25  1  0  0  0  0
 21 22  1  6  0  0  0
 21 27  1  0  0  0  0
 23 24  1  0  0  0  0
 23 29  1  6  0  0  0
 25 26  1  6  0  0  0
 25 31  1  0  0  0  0
 27 28  1  0  0  0  0
 27 33  1  1  0  0  0
 29 30  1  0  0  0  0
 31 32  1  1  0  0  0
 33 34  1  0  0  0  0
M  END
>  <CHROM.1>
-86.40998737,56.93155323,-165.01370190,-94.54846862,-160.28987781,110.80938617
-173.96958151,59.87561190,-3.33712026,0.64326597,16.52961553,2.65333044,-1.27612389
1.11766193

>  <Name>
2o3v_lig

>  <RI>
0

>  <Rbt.Current_Directory>
/home/afrankz/demos/rdock_decoys_rna/rnas/2o3v

>  <Rbt.Executable>
rbdock ($Id: //depot/dev/client3/rdock/2013.1/src/exe/rbdock.cxx#4 $)

>  <Rbt.Library>
libRbt.so (2013.1, Build901 2013/11/27)

>  <Rbt.Parameter_File>
/export/apps/rDock/src/rDock_2013.1_src/data/scripts/dock_solv.prm

>  <Rbt.Receptor>
prm/blind_docking_60.prm

>  <SCORE>
9.05392

>  <SCORE.INTER>
2.41515

>  <SCORE.INTER.CONST>
1

>  <SCORE.INTER.POLAR>
-1.44663

>  <SCORE.INTER.ROT>
8

>  <SCORE.INTER.SOLV>
28.6449

>  <SCORE.INTER.VDW>
-12.0494

>  <SCORE.INTER.norm>
0.0690042

>  <SCORE.INTRA>
3.51461

>  <SCORE.INTRA.DIHEDRAL>
4.06052

>  <SCORE.INTRA.DIHEDRAL.0>
13.1227

>  <SCORE.INTRA.POLAR>
0

>  <SCORE.INTRA.POLAR.0>
0

>  <SCORE.INTRA.REPUL>
0

>  <SCORE.INTRA.REPUL.0>
0

>  <SCORE.INTRA.SOLV>
4.45916

>  <SCORE.INTRA.SOLV.lig_0>
-89.1587

>  <SCORE.INTRA.VDW>
-0.745235

>  <SCORE.INTRA.VDW.0>
-0.838383

>  <SCORE.INTRA.norm>
0.100417

>  <SCORE.RESTR>
3.12416

>  <SCORE.RESTR.CAVITY>
3.12416

>  <SCORE.RESTR.norm>
0.0892619

>  <SCORE.SYSTEM>
0

>  <SCORE.SYSTEM.CONST>
0

>  <SCORE.SYSTEM.DIHEDRAL>
0

>  <SCORE.SYSTEM.SOLV>
0

>  <SCORE.SYSTEM.norm>
0

>  <SCORE.heavy>
35

>  <SCORE.norm>
0.258683

>  <RMSD>
31.587

$$$$
2o3v_lig
 OpenBabel02141814113D
libRbt.so/2013.1/901 2013/11/27
 35 37  0  0  0  0  0  0  0  0999 V2000
   -5.1197    2.3942   14.2419 C   0  0  2  0  0  0  0  0  0  0  0  0
   -4.3240    3.4051   14.9331 O   0  0  0  0  0  0  0  0  0  0  0  0
   -3.5249    5.1014   18.8588 C   0  0  2  0  0  0  0  0  0  0  0  0
   -3.3711    5.2228   20.3400 N   0  0  0  0  0  0  0  0  0  0  0  0
   -3.7627   -6.6468   16.8715 C   0  0  2  0  0  0  0  0  0  0  0  0
   -4.0130   -6.7462   15.4527 O   0  0  0  0  0  0  0  0  0  0  0  0
   -5.2019    1.2343   15.2841 C   0  0  2  0  0  0  0  0  0  0  0  0
   -5.8256    1.6928   16.5479 N   0  0  0  0  0  0  0  0  0  0  0  0
   -5.0265    4.7305   18.4940 C   0  0  0  0  0  0  0  0  0  0  0  0
   -4.2297   -5.2231   17.3334 C   0  0  2  0  0  0  0  0  0  0  0  0
   -5.6624   -5.0021   17.0121 N   0  0  0  0  0  0  0  0  0  0  0  0
   -3.7672    0.6181   15.5863 C   0  0  1  0  0  0  0  0  0  0  0  0
   -3.8614   -0.4529   16.6122 O   0  0  0  0  0  0  0  0  0  0  0  0
   -5.1602    4.5961   16.9152 C   0  0  2  0  0  0  0  0  0  0  0  0
   -6.5492    4.2395   16.5545 N   0  0  0  0  0  0  0  0  0  0  0  0
   -3.3345   -4.0754   16.6883 C   0  0  1  0  0  0  0  0  0  0  0  0
   -3.7236   -2.7478   17.1251 O   0  0  0  0  0  0  0  0  0  0  0  0
   -3.1526    0.1393   14.1983 C   0  0  2  0  0  0  0  0  0  0  0  0
   -1.8559   -0.4051   14.3657 O   0  0  0  0  0  0  0  0  0  0  0  0
   -4.1619    3.4882   16.3812 C   0  0  2  0  0  0  0  0  0  0  0  0
   -1.8422   -4.3412   17.0637 C   0  0  2  0  0  0  0  0  0  0  0  0
   -0.9956   -3.3550   16.5066 O   0  0  0  0  0  0  0  0  0  0  0  0
   -3.1023    1.3353   13.1732 C   0  0  2  0  0  0  0  0  0  0  0  0
   -4.4555    1.9048   13.0026 O   0  0  0  0  0  0  0  0  0  0  0  0
   -2.6966    3.8557   16.7477 C   0  0  2  0  0  0  0  0  0  0  0  0
   -1.8442    2.7788   16.2632 O   0  0  0  0  0  0  0  0  0  0  0  0
   -1.4143   -5.7859   16.5851 C   0  0  2  0  0  0  0  0  0  0  0  0
   -2.3135   -6.8076   17.1685 O   0  0  0  0  0  0  0  0  0  0  0  0
   -2.5502    0.8931   11.8189 C   0  0  0  0  0  0  0  0  0  0  0  0
   -2.2708    2.0015   10.9990 O   0  0  0  0  0  0  0  0  0  0  0  0
   -2.5628    3.9909   18.2826 C   0  0  1  0  0  0  0  0  0  0  0  0
   -1.2264    4.3299   18.5878 O   0  0  0  0  0  0  0  0  0  0  0  0
    0.0222   -6.1075   16.9685 C   0  0  0  0  0  0  0  0  0  0  0  0
    0.9185   -5.3395   16.2025 O   0  0  0  0  0  0  0  0  0  0  0  0
   -3.1700   -1.7402   16.2289 C   0  0  0  0  0  0  0  0  0  0  0  0
  1  2  1  1  0  0  0
  1  7  1  0  0  0  0
  1 24  1  0  0  0  0
  3  4  1  1  0  0  0
  3  9  1  0  0  0  0
  3 31  1  0  0  0  0
  5  6  1  6  0  0  0
  5 10  1  0  0  0  0
  5 28  1  0  0  0  0
  7  8  1  1  0  0  0
  7 12  1  0  0  0  0
  9 14  1  0  0  0  0
 10 11  1  6  0  0  0
 10 16  1  0  0  0  0
 12 13  1  1  0  0  0
 12 18  1  0  0  0  0
 13 35  1  0  0  0  0
 14 15  1  1  0  0  0
 14 20  1  0  0  0  0
 16 17  1  1  0  0  0
 16 21  1  0  0  0  0
 17 35  1  0  0  0  0
 18 19  1  1  0  0  0
 18 23  1  0  0  0  0
 20  2  1  6  0  0  0
 20 25  1  0  0  0  0
 21 22  1  6  0  0  0
 21 27  1  0  0  0  0
 23 24  1  0  0  0  0
 23 29  1  6  0  0  0
 25 26  1  1  0  0  0
 25 31  1  0  0  0  0
 27 28  1  0  0  0  0
 27 33  1  1  0  0  0
 29 30  1  0  0  0  0
 31 32  1  6  0  0  0
 33 34  1  0  0  0  0
M  END
>  <CHROM.1>
-21.78797656,130.13398942,-162.55050010,-162.94326120,168.90459280,-99.33173366
-168.78184448,-70.41658778,-3.24413480,-0.23845732,16.12389053,3.05818518
-1.40517135,1.49355556

>  <Name>
2o3v_lig

>  <RI>
0

>  <Rbt.Current_Directory>
/home/afrankz/demos/rdock_decoys_rna/rnas/2o3v

>  <Rbt.Executable>
rbdock ($Id: //depot/dev/client3/rdock/2013.1/src/exe/rbdock.cxx#4 $)

>  <Rbt.Library>
libRbt.so (2013.1, Build901 2013/11/27)

>  <Rbt.Parameter_File>
/export/apps/rDock/src/rDock_2013.1_src/data/scripts/dock_solv.prm

>  <Rbt.Receptor>
prm/blind_docking_20.prm

>  <SCORE>
4.90549

>  <SCORE.INTER>
-15.8445

>  <SCORE.INTER.CONST>
1

>  <SCORE.INTER.POLAR>
-2.10911

>  <SCORE.INTER.ROT>
8

>  <SCORE.INTER.SOLV>
21.1195

>  <SCORE.INTER.VDW>
-19.5058

>  <SCORE.INTER.norm>
-0.4527

>  <SCORE.INTRA>
14.0391

>  <SCORE.INTRA.DIHEDRAL>
8.14224

>  <SCORE.INTRA.DIHEDRAL.0>
13.1227

>  <SCORE.INTRA.POLAR>
0

>  <SCORE.INTRA.POLAR.0>
0

>  <SCORE.INTRA.REPUL>
0.0450447

>  <SCORE.INTRA.REPUL.0>
0

>  <SCORE.INTRA.SOLV>
5.26253

>  <SCORE.INTRA.SOLV.lig_0>
-89.1587

>  <SCORE.INTRA.VDW>
7.11145

>  <SCORE.INTRA.VDW.0>
-0.838383

>  <SCORE.INTRA.norm>
0.401116

>  <SCORE.RESTR>
6.71094

>  <SCORE.RESTR.CAVITY>
6.71094

>  <SCORE.RESTR.norm>
0.191741

>  <SCORE.SYSTEM>
0

>  <SCORE.SYSTEM.CONST>
0

>  <SCORE.SYSTEM.DIHEDRAL>
0

>  <SCORE.SYSTEM.SOLV>
0

>  <SCORE.SYSTEM.norm>
0

>  <SCORE.heavy>
35

>  <SCORE.norm>
0.140157

>  <RMSD>
31.622

$$$$
2o3v_lig
 OpenBabel02141814113D
libRbt.so/2013.1/901 2013/11/27
 35 37  0  0  0  0  0  0  0  0999 V2000
   -2.8369    1.9247   17.7165 C   0  0  2  0  0  0  0  0  0  0  0  0
   -2.4371    2.0820   16.3207 O   0  0  0  0  0  0  0  0  0  0  0  0
   -3.8530    2.9343   12.2963 C   0  0  2  0  0  0  0  0  0  0  0  0
   -4.7720    3.1324   11.1351 N   0  0  0  0  0  0  0  0  0  0  0  0
   -3.2894   -6.6388   16.6302 C   0  0  2  0  0  0  0  0  0  0  0  0
   -3.5343   -6.6566   15.2070 O   0  0  0  0  0  0  0  0  0  0  0  0
   -3.4700    0.4975   17.7450 C   0  0  2  0  0  0  0  0  0  0  0  0
   -2.4961   -0.5296   17.3059 N   0  0  0  0  0  0  0  0  0  0  0  0
   -3.9572    1.4400   12.8269 C   0  0  0  0  0  0  0  0  0  0  0  0
   -4.0087   -5.3749   17.2160 C   0  0  2  0  0  0  0  0  0  0  0  0
   -5.4614   -5.3988   16.9094 N   0  0  0  0  0  0  0  0  0  0  0  0
   -4.7761    0.4200   16.8409 C   0  0  1  0  0  0  0  0  0  0  0  0
   -5.3374   -0.9560   16.8463 O   0  0  0  0  0  0  0  0  0  0  0  0
   -2.9796    1.2592   14.0679 C   0  0  2  0  0  0  0  0  0  0  0  0
   -3.0699   -0.1232   14.5849 N   0  0  0  0  0  0  0  0  0  0  0  0
   -3.3523   -4.0268   16.6806 C   0  0  1  0  0  0  0  0  0  0  0  0
   -3.9776   -2.8401   17.2333 O   0  0  0  0  0  0  0  0  0  0  0  0
   -5.7831    1.5371   17.3622 C   0  0  2  0  0  0  0  0  0  0  0  0
   -6.9740    1.5600   16.5958 O   0  0  0  0  0  0  0  0  0  0  0  0
   -3.3606    2.2890   15.2097 C   0  0  2  0  0  0  0  0  0  0  0  0
   -1.8320   -4.0405   17.0373 C   0  0  2  0  0  0  0  0  0  0  0  0
   -1.1921   -2.8674   16.5750 O   0  0  0  0  0  0  0  0  0  0  0  0
   -5.0995    2.9567   17.3308 C   0  0  2  0  0  0  0  0  0  0  0  0
   -3.8550    2.9301   18.1277 O   0  0  0  0  0  0  0  0  0  0  0  0
   -3.2621    3.7473   14.6805 C   0  0  2  0  0  0  0  0  0  0  0  0
   -3.6628    4.6317   15.7661 O   0  0  0  0  0  0  0  0  0  0  0  0
   -1.1474   -5.3308   16.4327 C   0  0  2  0  0  0  0  0  0  0  0  0
   -1.8321   -6.5509   16.9180 O   0  0  0  0  0  0  0  0  0  0  0  0
   -6.0334    4.0432   17.8620 C   0  0  0  0  0  0  0  0  0  0  0  0
   -7.2071    4.1241   17.0908 O   0  0  0  0  0  0  0  0  0  0  0  0
   -4.2089    3.9266   13.4708 C   0  0  1  0  0  0  0  0  0  0  0  0
   -4.0964    5.2555   13.0067 O   0  0  0  0  0  0  0  0  0  0  0  0
    0.3286   -5.4101   16.7921 C   0  0  0  0  0  0  0  0  0  0  0  0
    0.8967   -6.5900   16.2772 O   0  0  0  0  0  0  0  0  0  0  0  0
   -4.4667   -1.9826   16.1606 C   0  0  0  0  0  0  0  0  0  0  0  0
  1  2  1  6  0  0  0
  1  7  1  0  0  0  0
  1 24  1  0  0  0  0
  3  4  1  6  0  0  0
  3  9  1  0  0  0  0
  3 31  1  0  0  0  0
  5  6  1  6  0  0  0
  5 10  1  0  0  0  0
  5 28  1  0  0  0  0
  7  8  1  6  0  0  0
  7 12  1  0  0  0  0
  9 14  1  0  0  0  0
 10 11  1  6  0  0  0
 10 16  1  0  0  0  0
 12 13  1  1  0  0  0
 12 18  1  0  0  0  0
 13 35  1  0  0  0  0
 14 15  1  1  0  0  0
 14 20  1  0  0  0  0
 16 17  1  1  0  0  0
 16 21  1  0  0  0  0
 17 35  1  0  0  0  0
 18 19  1  6  0  0  0
 18 23  1  0  0  0  0
 20  2  1  1  0  0  0
 20 25  1  0  0  0  0
 21 22  1  6  0  0  0
 21 27  1  0  0  0  0
 23 24  1  0  0  0  0
 23 29  1  1  0  0  0
 25 26  1  1  0  0  0
 25 31  1  0  0  0  0
 27 28  1  0  0  0  0
 27 33  1  1  0  0  0
 29 30  1  0  0  0  0
 31 32  1  6  0  0  0
 33 34  1  0  0  0  0
M  END
>  <CHROM.1>
72.38785065,-67.46992405,110.90918115,-123.17503093,168.34139950,-130.78111248
-60.12705706,178.05873618,-3.61261824,-0.42597500,16.02164801,1.99428276
0.87239543,-0.48723427

>  <Name>
2o3v_lig

>  <RI>
0

>  <Rbt.Current_Directory>
/home/afrankz/demos/rdock_decoys_rna/rnas/2o3v

>  <Rbt.Executable>
rbdock ($Id: //depot/dev/client3/rdock/2013.1/src/exe/rbdock.cxx#4 $)

>  <Rbt.Library>
libRbt.so (2013.1, Build901 2013/11/27)

>  <Rbt.Parameter_File>
/export/apps/rDock/src/rDock_2013.1_src/data/scripts/dock_solv.prm

>  <Rbt.Receptor>
prm/blind_docking_100.prm

>  <SCORE>
-2.94823

>  <SCORE.INTER>
-16.5533

>  <SCORE.INTER.CONST>
1

>  <SCORE.INTER.POLAR>
-1.75853

>  <SCORE.INTER.ROT>
8

>  <SCORE.INTER.SOLV>
21.9351

>  <SCORE.INTER.VDW>
-21.4188

>  <SCORE.INTER.norm>
-0.472951

>  <SCORE.INTRA>
9.89727

>  <SCORE.INTRA.DIHEDRAL>
9.16988

>  <SCORE.INTRA.DIHEDRAL.0>
13.1227

>  <SCORE.INTRA.POLAR>
0

>  <SCORE.INTRA.POLAR.0>
0

>  <SCORE.INTRA.REPUL>
0.0441321

>  <SCORE.INTRA.REPUL.0>
0

>  <SCORE.INTRA.SOLV>
10.0898

>  <SCORE.INTRA.SOLV.lig_0>
-89.1587

>  <SCORE.INTRA.VDW>
0.0467507

>  <SCORE.INTRA.VDW.0>
-0.838383

>  <SCORE.INTRA.norm>
0.282779

>  <SCORE.RESTR>
3.70778

>  <SCORE.RESTR.CAVITY>
3.70778

>  <SCORE.RESTR.norm>
0.105937

>  <SCORE.SYSTEM>
0

>  <SCORE.SYSTEM.CONST>
0

>  <SCORE.SYSTEM.DIHEDRAL>
0

>  <SCORE.SYSTEM.SOLV>
0

>  <SCORE.SYSTEM.norm>
0

>  <SCORE.heavy>
35

>  <SCORE.norm>
-0.0842351

>  <RMSD>
31.637

$$$$
2o3v_lig
 OpenBabel02141814113D
libRbt.so/2013.1/901 2013/11/27
 35 37  0  0  0  0  0  0  0  0999 V2000
   -4.5294    2.7451   15.3300 C   0  0  2  0  0  0  0  0  0  0  0  0
   -3.4580    3.3411   16.1235 O   0  0  0  0  0  0  0  0  0  0  0  0
   -4.5575    5.2894   19.8548 C   0  0  2  0  0  0  0  0  0  0  0  0
   -4.7430    6.3456   20.8951 N   0  0  0  0  0  0  0  0  0  0  0  0
   -2.0606   -6.1817   16.2265 C   0  0  2  0  0  0  0  0  0  0  0  0
   -2.6587   -6.3753   17.5266 O   0  0  0  0  0  0  0  0  0  0  0  0
   -4.7809    1.3791   16.0435 C   0  0  2  0  0  0  0  0  0  0  0  0
   -5.1578    1.5774   17.4630 N   0  0  0  0  0  0  0  0  0  0  0  0
   -3.0124    5.1058   19.5320 C   0  0  0  0  0  0  0  0  0  0  0  0
   -1.4041   -4.7579   16.2175 C   0  0  2  0  0  0  0  0  0  0  0  0
   -0.4038   -4.6256   17.3070 N   0  0  0  0  0  0  0  0  0  0  0  0
   -3.5076    0.4303   15.9538 C   0  0  1  0  0  0  0  0  0  0  0  0
   -3.7515   -0.8453   16.6761 O   0  0  0  0  0  0  0  0  0  0  0  0
   -2.8437    3.9862   18.4155 C   0  0  2  0  0  0  0  0  0  0  0  0
   -1.4121    3.8075   18.0916 N   0  0  0  0  0  0  0  0  0  0  0  0
   -2.4991   -3.6075   16.3290 C   0  0  1  0  0  0  0  0  0  0  0  0
   -1.9216   -2.2773   16.2895 O   0  0  0  0  0  0  0  0  0  0  0  0
   -3.1560    0.2497   14.4119 C   0  0  2  0  0  0  0  0  0  0  0  0
   -2.0122   -0.5663   14.2331 O   0  0  0  0  0  0  0  0  0  0  0  0
   -3.6452    4.3979   17.1126 C   0  0  2  0  0  0  0  0  0  0  0  0
   -3.5182   -3.7785   15.1581 C   0  0  2  0  0  0  0  0  0  0  0  0
   -4.5243   -2.7864   15.2125 O   0  0  0  0  0  0  0  0  0  0  0  0
   -2.9253    1.6511   13.7289 C   0  0  2  0  0  0  0  0  0  0  0  0
   -4.1181    2.5028   13.9198 O   0  0  0  0  0  0  0  0  0  0  0  0
   -5.1539    4.5814   17.4386 C   0  0  2  0  0  0  0  0  0  0  0  0
   -5.8169    4.9961   16.2100 O   0  0  0  0  0  0  0  0  0  0  0  0
   -4.1520   -5.2261   15.2014 C   0  0  2  0  0  0  0  0  0  0  0  0
   -3.0878   -6.2546   15.1523 O   0  0  0  0  0  0  0  0  0  0  0  0
   -2.6224    1.5078   12.2381 C   0  0  0  0  0  0  0  0  0  0  0  0
   -1.4847    0.7079   12.0267 O   0  0  0  0  0  0  0  0  0  0  0  0
   -5.3224    5.6673   18.5270 C   0  0  1  0  0  0  0  0  0  0  0  0
   -6.6988    5.8103   18.8082 O   0  0  0  0  0  0  0  0  0  0  0  0
   -5.1209   -5.4548   14.0512 C   0  0  0  0  0  0  0  0  0  0  0  0
   -5.7102   -6.7287   14.1515 O   0  0  0  0  0  0  0  0  0  0  0  0
   -2.5200   -1.4376   17.3200 C   0  0  0  0  0  0  0  0  0  0  0  0
  1  2  1  1  0  0  0
  1  7  1  0  0  0  0
  1 24  1  0  0  0  0
  3  4  1  1  0  0  0
  3  9  1  0  0  0  0
  3 31  1  0  0  0  0
  5  6  1  1  0  0  0
  5 10  1  0  0  0  0
  5 28  1  0  0  0  0
  7  8  1  1  0  0  0
  7 12  1  0  0  0  0
  9 14  1  0  0  0  0
 10 11  1  1  0  0  0
 10 16  1  0  0  0  0
 12 13  1  6  0  0  0
 12 18  1  0  0  0  0
 13 35  1  0  0  0  0
 14 15  1  6  0  0  0
 14 20  1  0  0  0  0
 16 17  1  6  0  0  0
 16 21  1  0  0  0  0
 17 35  1  0  0  0  0
 18 19  1  1  0  0  0
 18 23  1  0  0  0  0
 20  2  1  6  0  0  0
 20 25  1  0  0  0  0
 21 22  1  1  0  0  0
 21 27  1  0  0  0  0
 23 24  1  0  0  0  0
 23 29  1  6  0  0  0
 25 26  1  6  0  0  0
 25 31  1  0  0  0  0
 27 28  1  0  0  0  0
 27 33  1  6  0  0  0
 29 30  1  0  0  0  0
 31 32  1  1  0  0  0
 33 34  1  0  0  0  0
M  END
>  <CHROM.1>
-102.54392374,-147.25415732,-88.51826581,-135.23062491,-87.28399772,133.47576928
-58.36221435,-177.44800365,-3.56007236,0.09784455,16.22295241,-3.02176045
-1.43747370,1.94229312

>  <Name>
2o3v_lig

>  <RI>
0

>  <Rbt.Current_Directory>
/home/afrankz/demos/rdock_decoys_rna/rnas/2o3v

>  <Rbt.Executable>
rbdock ($Id: //depot/dev/client3/rdock/2013.1/src/exe/rbdock.cxx#4 $)

>  <Rbt.Library>
libRbt.so (2013.1, Build901 2013/11/27)

>  <Rbt.Parameter_File>
/export/apps/rDock/src/rDock_2013.1_src/data/scripts/dock_solv.prm

>  <Rbt.Receptor>
prm/blind_docking_60.prm

>  <SCORE>
-5.77341

>  <SCORE.INTER>
-16.9377

>  <SCORE.INTER.CONST>
1

>  <SCORE.INTER.POLAR>
-2.06922

>  <SCORE.INTER.ROT>
8

>  <SCORE.INTER.SOLV>
27.045

>  <SCORE.INTER.VDW>
-22.3427

>  <SCORE.INTER.norm>
-0.483933

>  <SCORE.INTRA>
7.71395

>  <SCORE.INTRA.DIHEDRAL>
15.7021

>  <SCORE.INTRA.DIHEDRAL.0>
13.1227

>  <SCORE.INTRA.POLAR>
0

>  <SCORE.INTRA.POLAR.0>
0

>  <SCORE.INTRA.REPUL>
0

>  <SCORE.INTRA.REPUL.0>
0

>  <SCORE.INTRA.SOLV>
2.92221

>  <SCORE.INTRA.SOLV.lig_0>
-89.1587

>  <SCORE.INTRA.VDW>
-1.59819

>  <SCORE.INTRA.VDW.0>
-0.838383

>  <SCORE.INTRA.norm>
0.220398

>  <SCORE.RESTR>
3.4503

>  <SCORE.RESTR.CAVITY>
3.4503

>  <SCORE.RESTR.norm>
0.0985799

>  <SCORE.SYSTEM>
0

>  <SCORE.SYSTEM.CONST>
0

>  <SCORE.SYSTEM.DIHEDRAL>
0

>  <SCORE.SYSTEM.SOLV>
0

>  <SCORE.SYSTEM.norm>
0

>  <SCORE.heavy>
35

>  <SCORE.norm>
-0.164954

>  <RMSD>
31.643

$$$$
2o3v_lig
 OpenBabel02141814113D
libRbt.so/2013.1/901 2013/11/27
 35 37  0  0  0  0  0  0  0  0999 V2000
   -5.1513    2.2518   16.0599 C   0  0  2  0  0  0  0  0  0  0  0  0
   -4.0804    2.6550   16.9674 O   0  0  0  0  0  0  0  0  0  0  0  0
   -3.6952    5.4850   20.2491 C   0  0  2  0  0  0  0  0  0  0  0  0
   -3.6162    6.7742   21.0000 N   0  0  0  0  0  0  0  0  0  0  0  0
   -4.0752   -5.6395   17.3048 C   0  0  2  0  0  0  0  0  0  0  0  0
   -5.2084   -4.8470   17.7211 O   0  0  0  0  0  0  0  0  0  0  0  0
   -4.8026    0.7638   15.7394 C   0  0  2  0  0  0  0  0  0  0  0  0
   -4.7565   -0.0538   16.9746 N   0  0  0  0  0  0  0  0  0  0  0  0
   -2.5090    5.3927   19.1957 C   0  0  0  0  0  0  0  0  0  0  0  0
   -2.9000   -4.6509   16.9884 C   0  0  2  0  0  0  0  0  0  0  0  0
   -2.5780   -3.8108   18.1698 N   0  0  0  0  0  0  0  0  0  0  0  0
   -3.4197    0.6422   14.9633 C   0  0  1  0  0  0  0  0  0  0  0  0
   -3.0850   -0.7828   14.7073 O   0  0  0  0  0  0  0  0  0  0  0  0
   -2.6228    4.0188   18.4032 C   0  0  2  0  0  0  0  0  0  0  0  0
   -1.5335    3.9178   17.4084 N   0  0  0  0  0  0  0  0  0  0  0  0
   -3.2298   -3.7330   15.7300 C   0  0  1  0  0  0  0  0  0  0  0  0
   -2.1447   -2.8305   15.3940 O   0  0  0  0  0  0  0  0  0  0  0  0
   -3.5317    1.5322   13.6483 C   0  0  2  0  0  0  0  0  0  0  0  0
   -2.3296    1.5051   12.9000 O   0  0  0  0  0  0  0  0  0  0  0  0
   -4.0277    3.9292   17.6770 C   0  0  2  0  0  0  0  0  0  0  0  0
   -3.5474   -4.6574   14.5122 C   0  0  2  0  0  0  0  0  0  0  0  0
   -3.8594   -3.8939   13.3636 O   0  0  0  0  0  0  0  0  0  0  0  0
   -3.8991    3.0199   14.0165 C   0  0  2  0  0  0  0  0  0  0  0  0
   -5.1517    3.0462   14.8007 O   0  0  0  0  0  0  0  0  0  0  0  0
   -5.1819    4.0266   18.7137 C   0  0  2  0  0  0  0  0  0  0  0  0
   -6.4357    3.9778   17.9742 O   0  0  0  0  0  0  0  0  0  0  0  0
   -4.7323   -5.6393   14.8745 C   0  0  2  0  0  0  0  0  0  0  0  0
   -4.3962   -6.4261   16.0831 O   0  0  0  0  0  0  0  0  0  0  0  0
   -4.0494    3.8880   12.7681 C   0  0  0  0  0  0  0  0  0  0  0  0
   -3.9276    5.2537   13.0828 O   0  0  0  0  0  0  0  0  0  0  0  0
   -5.0730    5.3602   19.4894 C   0  0  1  0  0  0  0  0  0  0  0  0
   -6.1275    5.4210   20.4266 O   0  0  0  0  0  0  0  0  0  0  0  0
   -5.0490   -6.5912   13.7310 C   0  0  0  0  0  0  0  0  0  0  0  0
   -6.3966   -6.9924   13.7849 O   0  0  0  0  0  0  0  0  0  0  0  0
   -2.4391   -1.4870   15.8774 C   0  0  0  0  0  0  0  0  0  0  0  0
  1  2  1  1  0  0  0
  1  7  1  0  0  0  0
  1 24  1  0  0  0  0
  3  4  1  6  0  0  0
  3  9  1  0  0  0  0
  3 31  1  0  0  0  0
  5  6  1  6  0  0  0
  5 10  1  0  0  0  0
  5 28  1  0  0  0  0
  7  8  1  1  0  0  0
  7 12  1  0  0  0  0
  9 14  1  0  0  0  0
 10 11  1  1  0  0  0
 10 16  1  0  0  0  0
 12 13  1  6  0  0  0
 12 18  1  0  0  0  0
 13 35  1  0  0  0  0
 14 15  1  6  0  0  0
 14 20  1  0  0  0  0
 16 17  1  6  0  0  0
 16 21  1  0  0  0  0
 17 35  1  0  0  0  0
 18 19  1  1  0  0  0
 18 23  1  0  0  0  0
 20  2  1  1  0  0  0
 20 25  1  0  0  0  0
 21 22  1  6  0  0  0
 21 27  1  0  0  0  0
 23 24  1  0  0  0  0
 23 29  1  6  0  0  0
 25 26  1  6  0  0  0
 25 31  1  0  0  0  0
 27 28  1  0  0  0  0
 27 33  1  6  0  0  0
 29 30  1  0  0  0  0
 31 32  1  1  0  0  0
 33 34  1  0  0  0  0
M  END
>  <CHROM.1>
-172.98081162,-82.23264444,-177.48740404,-101.83306086,-93.79985824,-173.24119711
-160.15713948,-152.82538903,-4.00840769,0.27477675,16.26431224,-1.52319343
-1.46832219,-2.82498464

>  <Name>
2o3v_lig

>  <RI>
0

>  <Rbt.Current_Directory>
/home/afrankz/demos/rdock_decoys_rna/rnas/2o3v

>  <Rbt.Executable>
rbdock ($Id: //depot/dev/client3/rdock/2013.1/src/exe/rbdock.cxx#4 $)

>  <Rbt.Library>
libRbt.so (2013.1, Build901 2013/11/27)

>  <Rbt.Parameter_File>
/export/apps/rDock/src/rDock_2013.1_src/data/scripts/dock_solv.prm

>  <Rbt.Receptor>
prm/blind_docking_100.prm

>  <SCORE>
-6.6713

>  <SCORE.INTER>
-9.82948

>  <SCORE.INTER.CONST>
1

>  <SCORE.INTER.POLAR>
-2.39221

>  <SCORE.INTER.ROT>
8

>  <SCORE.INTER.SOLV>
28.2674

>  <SCORE.INTER.VDW>
-16.9347

>  <SCORE.INTER.norm>
-0.280842

>  <SCORE.INTRA>
-0.605904

>  <SCORE.INTRA.DIHEDRAL>
3.151

>  <SCORE.INTRA.DIHEDRAL.0>
13.1227

>  <SCORE.INTRA.POLAR>
0

>  <SCORE.INTRA.POLAR.0>
0

>  <SCORE.INTRA.REPUL>
0

>  <SCORE.INTRA.REPUL.0>
0

>  <SCORE.INTRA.SOLV>
-0.0201414

>  <SCORE.INTRA.SOLV.lig_0>
-89.1587

>  <SCORE.INTRA.VDW>
-2.17133

>  <SCORE.INTRA.VDW.0>
-0.838383

>  <SCORE.INTRA.norm>
-0.0173115

>  <SCORE.RESTR>
3.76408

>  <SCORE.RESTR.CAVITY>
3.76408

>  <SCORE.RESTR.norm>
0.107545

>  <SCORE.SYSTEM>
0

>  <SCORE.SYSTEM.CONST>
0

>  <SCORE.SYSTEM.DIHEDRAL>
0

>  <SCORE.SYSTEM.SOLV>
0

>  <SCORE.SYSTEM.norm>
0

>  <SCORE.heavy>
35

>  <SCORE.norm>
-0.190609

>  <RMSD>
31.660

$$$$
2o3v_lig
 OpenBabel02141814113D
libRbt.so/2013.1/901 2013/11/27
 35 37  0  0  0  0  0  0  0  0999 V2000
   -4.6155    3.0620   15.9353 C   0  0  2  0  0  0  0  0  0  0  0  0
   -3.3954    3.5102   16.6011 O   0  0  0  0  0  0  0  0  0  0  0  0
   -0.7954    6.9961   16.4741 C   0  0  2  0  0  0  0  0  0  0  0  0
   -0.3299    8.4139   16.5471 N   0  0  0  0  0  0  0  0  0  0  0  0
   -4.3302   -5.5899   17.8192 C   0  0  2  0  0  0  0  0  0  0  0  0
   -5.6415   -5.0043   17.9706 O   0  0  0  0  0  0  0  0  0  0  0  0
   -4.7566    1.5820   16.4129 C   0  0  2  0  0  0  0  0  0  0  0  0
   -4.8441    1.5017   17.8902 N   0  0  0  0  0  0  0  0  0  0  0  0
   -1.8962    6.8401   15.3386 C   0  0  0  0  0  0  0  0  0  0  0  0
   -3.2778   -4.4962   18.2125 C   0  0  2  0  0  0  0  0  0  0  0  0
   -3.5058   -4.0112   19.5973 N   0  0  0  0  0  0  0  0  0  0  0  0
   -3.5492    0.6844   15.8972 C   0  0  1  0  0  0  0  0  0  0  0  0
   -3.6789   -0.7084   16.3989 O   0  0  0  0  0  0  0  0  0  0  0  0
   -2.3824    5.3270   15.2897 C   0  0  2  0  0  0  0  0  0  0  0  0
   -3.4168    5.1623   14.2460 N   0  0  0  0  0  0  0  0  0  0  0  0
   -3.2912   -3.2761   17.1897 C   0  0  1  0  0  0  0  0  0  0  0  0
   -2.3030   -2.2637   17.5109 O   0  0  0  0  0  0  0  0  0  0  0  0
   -3.5100    0.8050   14.3105 C   0  0  2  0  0  0  0  0  0  0  0  0
   -2.4437    0.0530   13.7596 O   0  0  0  0  0  0  0  0  0  0  0  0
   -2.9652    4.9013   16.6999 C   0  0  2  0  0  0  0  0  0  0  0  0
   -3.0342   -3.8314   15.7530 C   0  0  2  0  0  0  0  0  0  0  0  0
   -3.0456   -2.7894   14.7970 O   0  0  0  0  0  0  0  0  0  0  0  0
   -3.3825    2.3136   13.8730 C   0  0  2  0  0  0  0  0  0  0  0  0
   -4.4936    3.0977   14.4519 O   0  0  0  0  0  0  0  0  0  0  0  0
   -1.8842    5.0628   17.8052 C   0  0  2  0  0  0  0  0  0  0  0  0
   -2.4998    4.6938   19.0725 O   0  0  0  0  0  0  0  0  0  0  0  0
   -4.1123   -4.9321   15.3989 C   0  0  2  0  0  0  0  0  0  0  0  0
   -4.0955   -6.0122   16.4118 O   0  0  0  0  0  0  0  0  0  0  0  0
   -3.3801    2.4605   12.3521 C   0  0  0  0  0  0  0  0  0  0  0  0
   -2.2271    1.8840   11.7890 O   0  0  0  0  0  0  0  0  0  0  0  0
   -1.4058    6.5327   17.8538 C   0  0  1  0  0  0  0  0  0  0  0  0
   -0.4222    6.6509   18.8602 O   0  0  0  0  0  0  0  0  0  0  0  0
   -3.8756   -5.5347   14.0223 C   0  0  0  0  0  0  0  0  0  0  0  0
   -4.8395   -6.5220   13.7462 O   0  0  0  0  0  0  0  0  0  0  0  0
   -2.9490   -0.9700   17.6955 C   0  0  0  0  0  0  0  0  0  0  0  0
  1  2  1  1  0  0  0
  1  7  1  0  0  0  0
  1 24  1  0  0  0  0
  3  4  1  1  0  0  0
  3  9  1  0  0  0  0
  3 31  1  0  0  0  0
  5  6  1  6  0  0  0
  5 10  1  0  0  0  0
  5 28  1  0  0  0  0
  7  8  1  1  0  0  0
  7 12  1  0  0  0  0
  9 14  1  0  0  0  0
 10 11  1  1  0  0  0
 10 16  1  0  0  0  0
 12 13  1  6  0  0  0
 12 18  1  0  0  0  0
 13 35  1  0  0  0  0
 14 15  1  6  0  0  0
 14 20  1  0  0  0  0
 16 17  1  1  0  0  0
 16 21  1  0  0  0  0
 17 35  1  0  0  0  0
 18 19  1  1  0  0  0
 18 23  1  0  0  0  0
 20  2  1  6  0  0  0
 20 25  1  0  0  0  0
 21 22  1  6  0  0  0
 21 27  1  0  0  0  0
 23 24  1  0  0  0  0
 23 29  1  6  0  0  0
 25 26  1  1  0  0  0
 25 31  1  0  0  0  0
 27 28  1  0  0  0  0
 27 33  1  6  0  0  0
 29 30  1  0  0  0  0
 31 32  1  1  0  0  0
 33 34  1  0  0  0  0
M  END
>  <CHROM.1>
-167.03709575,-92.78129857,-136.98149855,-122.80440721,-57.44008293,-76.00447100
-66.36666689,179.18342395,-3.16416514,0.67435805,16.09928876,0.46104671,-1.36100755
-1.09080969

>  <Name>
2o3v_lig

>  <RI>
0

>  <Rbt.Current_Directory>
/home/afrankz/demos/rdock_decoys_rna/rnas/2o3v

>  <Rbt.Executable>
rbdock ($Id: //depot/dev/client3/rdock/2013.1/src/exe/rbdock.cxx#4 $)

>  <Rbt.Library>
libRbt.so (2013.1, Build901 2013/11/27)

>  <Rbt.Parameter_File>
/export/apps/rDock/src/rDock_2013.1_src/data/scripts/dock_solv.prm

>  <Rbt.Receptor>
prm/blind_docking_20.prm

>  <SCORE>
4.62062

>  <SCORE.INTER>
-3.66894

>  <SCORE.INTER.CONST>
1

>  <SCORE.INTER.POLAR>
-0.306932

>  <SCORE.INTER.ROT>
8

>  <SCORE.INTER.SOLV>
25.914

>  <SCORE.INTER.VDW>
-18.9942

>  <SCORE.INTER.norm>
-0.104827

>  <SCORE.INTRA>
4.46911

>  <SCORE.INTRA.DIHEDRAL>
6.22576

>  <SCORE.INTRA.DIHEDRAL.0>
13.1227

>  <SCORE.INTRA.POLAR>
0

>  <SCORE.INTRA.POLAR.0>
0

>  <SCORE.INTRA.REPUL>
0

>  <SCORE.INTRA.REPUL.0>
0

>  <SCORE.INTRA.SOLV>
4.11242

>  <SCORE.INTRA.SOLV.lig_0>
-89.1587

>  <SCORE.INTRA.VDW>
-0.699988

>  <SCORE.INTRA.VDW.0>
-0.838383

>  <SCORE.INTRA.norm>
0.127689

>  <SCORE.RESTR>
3.82045

>  <SCORE.RESTR.CAVITY>
3.82045

>  <SCORE.RESTR.norm>
0.109156

>  <SCORE.SYSTEM>
0

>  <SCORE.SYSTEM.CONST>
0

>  <SCORE.SYSTEM.DIHEDRAL>
0

>  <SCORE.SYSTEM.SOLV>
0

>  <SCORE.SYSTEM.norm>
0

>  <SCORE.heavy>
35

>  <SCORE.norm>
0.132018

>  <RMSD>
31.663

$$$$
2o3v_lig
 OpenBabel02141814113D
libRbt.so/2013.1/901 2013/11/27
 35 37  0  0  0  0  0  0  0  0999 V2000
   -5.3349    1.2291   15.7007 C   0  0  2  0  0  0  0  0  0  0  0  0
   -4.6837    1.9191   16.8110 O   0  0  0  0  0  0  0  0  0  0  0  0
   -5.3282    5.6390   18.9730 C   0  0  2  0  0  0  0  0  0  0  0  0
   -5.4164    7.0995   19.2753 N   0  0  0  0  0  0  0  0  0  0  0  0
   -3.2632   -7.2404   16.2396 C   0  0  2  0  0  0  0  0  0  0  0  0
   -4.0071   -7.0095   17.4557 O   0  0  0  0  0  0  0  0  0  0  0  0
   -5.1727   -0.2779   16.0761 C   0  0  2  0  0  0  0  0  0  0  0  0
   -5.8000   -0.5745   17.3856 N   0  0  0  0  0  0  0  0  0  0  0  0
   -3.8395    5.2526   18.5730 C   0  0  0  0  0  0  0  0  0  0  0  0
   -2.1684   -6.1226   16.1379 C   0  0  2  0  0  0  0  0  0  0  0  0
   -1.2854   -6.1316   17.3317 N   0  0  0  0  0  0  0  0  0  0  0  0
   -3.6427   -0.7115   16.1035 C   0  0  1  0  0  0  0  0  0  0  0  0
   -3.5078   -2.1357   16.5056 O   0  0  0  0  0  0  0  0  0  0  0  0
   -3.7757    3.6979   18.2455 C   0  0  2  0  0  0  0  0  0  0  0  0
   -2.3996    3.3192   17.8592 N   0  0  0  0  0  0  0  0  0  0  0  0
   -2.8185   -4.6826   15.9414 C   0  0  1  0  0  0  0  0  0  0  0  0
   -1.8265   -3.6321   15.8108 O   0  0  0  0  0  0  0  0  0  0  0  0
   -3.0270   -0.3762   14.6744 C   0  0  2  0  0  0  0  0  0  0  0  0
   -1.6516   -0.7078   14.6116 O   0  0  0  0  0  0  0  0  0  0  0  0
   -4.7811    3.3519   17.0713 C   0  0  2  0  0  0  0  0  0  0  0  0
   -3.7248   -4.7175   14.6702 C   0  0  2  0  0  0  0  0  0  0  0  0
   -4.3396   -3.4631   14.4509 O   0  0  0  0  0  0  0  0  0  0  0  0
   -3.2258    1.1488   14.3300 C   0  0  2  0  0  0  0  0  0  0  0  0
   -4.6612    1.4942   14.3997 O   0  0  0  0  0  0  0  0  0  0  0  0
   -6.2334    3.7386   17.4683 C   0  0  2  0  0  0  0  0  0  0  0  0
   -7.0912    3.4309   16.3323 O   0  0  0  0  0  0  0  0  0  0  0  0
   -4.8094   -5.8589   14.8118 C   0  0  2  0  0  0  0  0  0  0  0  0
   -4.1529   -7.1649   15.0493 O   0  0  0  0  0  0  0  0  0  0  0  0
   -2.6761    1.4896   12.9457 C   0  0  0  0  0  0  0  0  0  0  0  0
   -3.4671    0.9195   11.9317 O   0  0  0  0  0  0  0  0  0  0  0  0
   -6.2993    5.2497   17.7913 C   0  0  1  0  0  0  0  0  0  0  0  0
   -7.6252    5.5731   18.1537 O   0  0  0  0  0  0  0  0  0  0  0  0
   -5.6900   -5.9602   13.5756 C   0  0  0  0  0  0  0  0  0  0  0  0
   -6.6394   -6.9869   13.7317 O   0  0  0  0  0  0  0  0  0  0  0  0
   -2.0866   -2.5709   16.7758 C   0  0  0  0  0  0  0  0  0  0  0  0
  1  2  1  1  0  0  0
  1  7  1  0  0  0  0
  1 24  1  0  0  0  0
  3  4  1  6  0  0  0
  3  9  1  0  0  0  0
  3 31  1  0  0  0  0
  5  6  1  1  0  0  0
  5 10  1  0  0  0  0
  5 28  1  0  0  0  0
  7  8  1  1  0  0  0
  7 12  1  0  0  0  0
  9 14  1  0  0  0  0
 10 11  1  1  0  0  0
 10 16  1  0  0  0  0
 12 13  1  6  0  0  0
 12 18  1  0  0  0  0
 13 35  1  0  0  0  0
 14 15  1  6  0  0  0
 14 20  1  0  0  0  0
 16 17  1  6  0  0  0
 16 21  1  0  0  0  0
 17 35  1  0  0  0  0
 18 19  1  1  0  0  0
 18 23  1  0  0  0  0
 20  2  1  1  0  0  0
 20 25  1  0  0  0  0
 21 22  1  1  0  0  0
 21 27  1  0  0  0  0
 23 24  1  0  0  0  0
 23 29  1  6  0  0  0
 25 26  1  6  0  0  0
 25 31  1  0  0  0  0
 27 28  1  0  0  0  0
 27 33  1  6  0  0  0
 29 30  1  0  0  0  0
 31 32  1  1  0  0  0
 33 34  1  0  0  0  0
M  END
>  <CHROM.1>
-167.75617263,-170.56835027,-119.10639991,-126.59753305,-55.90290000,-172.60093583
70.00828355,179.77251340,-4.19631154,-0.66985445,16.05434820,3.06704816,-1.42444995
1.70255780

>  <Name>
2o3v_lig

>  <RI>
0

>  <Rbt.Current_Directory>
/home/afrankz/demos/rdock_decoys_rna/rnas/2o3v

>  <Rbt.Executable>
rbdock ($Id: //depot/dev/client3/rdock/2013.1/src/exe/rbdock.cxx#4 $)

>  <Rbt.Library>
libRbt.so (2013.1, Build901 2013/11/27)

>  <Rbt.Parameter_File>
/export/apps/rDock/src/rDock_2013.1_src/data/scripts/dock_solv.prm

>  <Rbt.Receptor>
prm/blind_docking_100.prm

>  <SCORE>
0.751765

>  <SCORE.INTER>
-5.82863

>  <SCORE.INTER.CONST>
1

>  <SCORE.INTER.POLAR>
-1.45253

>  <SCORE.INTER.ROT>
8

>  <SCORE.INTER.SOLV>
29.6969

>  <SCORE.INTER.VDW>
-17.8763

>  <SCORE.INTER.norm>
-0.166532

>  <SCORE.INTRA>
-0.332047

>  <SCORE.INTRA.DIHEDRAL>
2.95359

>  <SCORE.INTRA.DIHEDRAL.0>
13.1227

>  <SCORE.INTRA.POLAR>
0

>  <SCORE.INTRA.POLAR.0>
0

>  <SCORE.INTRA.REPUL>
0

>  <SCORE.INTRA.REPUL.0>
0

>  <SCORE.INTRA.SOLV>
0.176943

>  <SCORE.INTRA.SOLV.lig_0>
-89.1587

>  <SCORE.INTRA.VDW>
-1.89732

>  <SCORE.INTRA.VDW.0>
-0.838383

>  <SCORE.INTRA.norm>
-0.00948705

>  <SCORE.RESTR>
6.91244

>  <SCORE.RESTR.CAVITY>
6.91244

>  <SCORE.RESTR.norm>
0.197498

>  <SCORE.SYSTEM>
0

>  <SCORE.SYSTEM.CONST>
0

>  <SCORE.SYSTEM.DIHEDRAL>
0

>  <SCORE.SYSTEM.SOLV>
0

>  <SCORE.SYSTEM.norm>
0

>  <SCORE.heavy>
35

>  <SCORE.norm>
0.021479

>  <RMSD>
31.711

$$$$
2o3v_lig
 OpenBabel02141814113D
libRbt.so/2013.1/901 2013/11/27
 35 37  0  0  0  0  0  0  0  0999 V2000
   -5.0846    2.0734   15.9994 C   0  0  2  0  0  0  0  0  0  0  0  0
   -4.0125    2.5202   16.8847 O   0  0  0  0  0  0  0  0  0  0  0  0
   -3.6910    5.4053   20.1250 C   0  0  2  0  0  0  0  0  0  0  0  0
   -3.6387    6.7068   20.8569 N   0  0  0  0  0  0  0  0  0  0  0  0
   -2.7908   -6.6424   16.5079 C   0  0  2  0  0  0  0  0  0  0  0  0
   -3.6381   -6.3765   17.6467 O   0  0  0  0  0  0  0  0  0  0  0  0
   -4.7161    0.5816   15.7215 C   0  0  2  0  0  0  0  0  0  0  0  0
   -4.6473   -0.1969   16.9806 N   0  0  0  0  0  0  0  0  0  0  0  0
   -2.5000    5.3199   19.0764 C   0  0  0  0  0  0  0  0  0  0  0  0
   -1.9085   -5.3685   16.2697 C   0  0  2  0  0  0  0  0  0  0  0  0
   -1.1138   -5.0371   17.4795 N   0  0  0  0  0  0  0  0  0  0  0  0
   -3.3380    0.4569   14.9374 C   0  0  1  0  0  0  0  0  0  0  0  0
   -2.9838   -0.9702   14.7221 O   0  0  0  0  0  0  0  0  0  0  0  0
   -2.5854    3.9325   18.3041 C   0  0  2  0  0  0  0  0  0  0  0  0
   -1.4913    3.8375   17.3140 N   0  0  0  0  0  0  0  0  0  0  0  0
   -2.7911   -4.1192   15.8281 C   0  0  1  0  0  0  0  0  0  0  0  0
   -1.9958   -2.9340   15.5683 O   0  0  0  0  0  0  0  0  0  0  0  0
   -3.4745    1.3043   13.5968 C   0  0  2  0  0  0  0  0  0  0  0  0
   -2.2783    1.2721   12.8391 O   0  0  0  0  0  0  0  0  0  0  0  0
   -3.9861    3.8056   17.5754 C   0  0  2  0  0  0  0  0  0  0  0  0
   -3.5959   -4.5091   14.5478 C   0  0  2  0  0  0  0  0  0  0  0  0
   -4.4094   -3.4369   14.1140 O   0  0  0  0  0  0  0  0  0  0  0  0
   -3.8614    2.7969   13.9225 C   0  0  2  0  0  0  0  0  0  0  0  0
   -5.1076    2.8286   14.7165 O   0  0  0  0  0  0  0  0  0  0  0  0
   -5.1451    3.8964   18.6073 C   0  0  2  0  0  0  0  0  0  0  0  0
   -6.3955    3.8130   17.8651 O   0  0  0  0  0  0  0  0  0  0  0  0
   -4.4666   -5.7982   14.8295 C   0  0  2  0  0  0  0  0  0  0  0  0
   -3.6041   -6.9100   15.2908 O   0  0  0  0  0  0  0  0  0  0  0  0
   -4.0352    3.6240   12.6495 C   0  0  0  0  0  0  0  0  0  0  0  0
   -3.9797    5.0016   12.9286 O   0  0  0  0  0  0  0  0  0  0  0  0
   -5.0638    5.2432   19.3634 C   0  0  1  0  0  0  0  0  0  0  0  0
   -6.1222    5.2979   20.2966 O   0  0  0  0  0  0  0  0  0  0  0  0
   -5.2365   -6.2426   13.5951 C   0  0  0  0  0  0  0  0  0  0  0  0
   -6.5682   -6.5489   13.9309 O   0  0  0  0  0  0  0  0  0  0  0  0
   -2.7167   -1.7405   15.9939 C   0  0  0  0  0  0  0  0  0  0  0  0
  1  2  1  1  0  0  0
  1  7  1  0  0  0  0
  1 24  1  0  0  0  0
  3  4  1  6  0  0  0
  3  9  1  0  0  0  0
  3 31  1  0  0  0  0
  5  6  1  1  0  0  0
  5 10  1  0  0  0  0
  5 28  1  0  0  0  0
  7  8  1  1  0  0  0
  7 12  1  0  0  0  0
  9 14  1  0  0  0  0
 10 11  1  1  0  0  0
 10 16  1  0  0  0  0
 12 13  1  6  0  0  0
 12 18  1  0  0  0  0
 13 35  1  0  0  0  0
 14 15  1  6  0  0  0
 14 20  1  0  0  0  0
 16 17  1  6  0  0  0
 16 21  1  0  0  0  0
 17 35  1  0  0  0  0
 18 19  1  1  0  0  0
 18 23  1  0  0  0  0
 20  2  1  1  0  0  0
 20 25  1  0  0  0  0
 21 22  1  1  0  0  0
 21 27  1  0  0  0  0
 23 24  1  0  0  0  0
 23 29  1  6  0  0  0
 25 26  1  6  0  0  0
 25 31  1  0  0  0  0
 27 28  1  0  0  0  0
 27 33  1  6  0  0  0
 29 30  1  0  0  0  0
 31 32  1  1  0  0  0
 33 34  1  0  0  0  0
M  END
>  <CHROM.1>
-171.70288809,-64.55512226,-162.48420972,-144.20517909,-114.84478910,-174.41635183
-162.28377819,-134.65779667,-3.82215193,0.04924895,16.16012008,2.19460369
-1.48814830,0.87221830

>  <Name>
2o3v_lig

>  <RI>
0

>  <Rbt.Current_Directory>
/home/afrankz/demos/rdock_decoys_rna/rnas/2o3v

>  <Rbt.Executable>
rbdock ($Id: //depot/dev/client3/rdock/2013.1/src/exe/rbdock.cxx#4 $)

>  <Rbt.Library>
libRbt.so (2013.1, Build901 2013/11/27)

>  <Rbt.Parameter_File>
/export/apps/rDock/src/rDock_2013.1_src/data/scripts/dock_solv.prm

>  <Rbt.Receptor>
prm/blind_docking_60.prm

>  <SCORE>
-10.0547

>  <SCORE.INTER>
-16.9452

>  <SCORE.INTER.CONST>
1

>  <SCORE.INTER.POLAR>
-2.62578

>  <SCORE.INTER.ROT>
8

>  <SCORE.INTER.SOLV>
27.2382

>  <SCORE.INTER.VDW>
-20.5569

>  <SCORE.INTER.norm>
-0.484149

>  <SCORE.INTRA>
2.39948

>  <SCORE.INTRA.DIHEDRAL>
6.25629

>  <SCORE.INTRA.DIHEDRAL.0>
13.1227

>  <SCORE.INTRA.POLAR>
0

>  <SCORE.INTRA.POLAR.0>
0

>  <SCORE.INTRA.REPUL>
0

>  <SCORE.INTRA.REPUL.0>
0

>  <SCORE.INTRA.SOLV>
-0.1944

>  <SCORE.INTRA.SOLV.lig_0>
-89.1587

>  <SCORE.INTRA.VDW>
-0.631464

>  <SCORE.INTRA.VDW.0>
-0.838383

>  <SCORE.INTRA.norm>
0.0685566

>  <SCORE.RESTR>
4.491

>  <SCORE.RESTR.CAVITY>
4.491

>  <SCORE.RESTR.norm>
0.128314

>  <SCORE.SYSTEM>
0

>  <SCORE.SYSTEM.CONST>
0

>  <SCORE.SYSTEM.DIHEDRAL>
0

>  <SCORE.SYSTEM.SOLV>
0

>  <SCORE.SYSTEM.norm>
0

>  <SCORE.heavy>
35

>  <SCORE.norm>
-0.287278

>  <RMSD>
31.715

$$$$
2o3v_lig
 OpenBabel02141814113D
libRbt.so/2013.1/901 2013/11/27
 35 37  0  0  0  0  0  0  0  0999 V2000
   -4.4423    1.8648   14.7495 C   0  0  2  0  0  0  0  0  0  0  0  0
   -3.4759    2.8011   15.3172 O   0  0  0  0  0  0  0  0  0  0  0  0
   -3.8836    5.0319   19.0300 C   0  0  2  0  0  0  0  0  0  0  0  0
   -4.1961    6.1358   19.9871 N   0  0  0  0  0  0  0  0  0  0  0  0
   -5.3725   -6.2050   15.0793 C   0  0  2  0  0  0  0  0  0  0  0  0
   -4.6537   -6.4936   13.8604 O   0  0  0  0  0  0  0  0  0  0  0  0
   -4.1612    0.5453   15.5359 C   0  0  2  0  0  0  0  0  0  0  0  0
   -4.3386    0.7423   16.9940 N   0  0  0  0  0  0  0  0  0  0  0  0
   -2.7849    5.5089   17.9856 C   0  0  0  0  0  0  0  0  0  0  0  0
   -4.9149   -4.7885   15.5717 C   0  0  2  0  0  0  0  0  0  0  0  0
   -5.1617   -3.7576   14.5318 N   0  0  0  0  0  0  0  0  0  0  0  0
   -2.6994   -0.0088   15.2430 C   0  0  1  0  0  0  0  0  0  0  0  0
   -2.4362   -1.2389   16.0340 O   0  0  0  0  0  0  0  0  0  0  0  0
   -2.4794    4.3215   16.9731 C   0  0  2  0  0  0  0  0  0  0  0  0
   -1.4665    4.7488   15.9843 N   0  0  0  0  0  0  0  0  0  0  0  0
   -3.3818   -4.7850   16.0014 C   0  0  1  0  0  0  0  0  0  0  0  0
   -2.9398   -3.4938   16.4933 O   0  0  0  0  0  0  0  0  0  0  0  0
   -2.5714   -0.2059   13.6688 C   0  0  2  0  0  0  0  0  0  0  0  0
   -1.2853   -0.6768   13.3081 O   0  0  0  0  0  0  0  0  0  0  0  0
   -3.8104    3.8891   16.2308 C   0  0  2  0  0  0  0  0  0  0  0  0
   -3.1738   -5.8720   17.1032 C   0  0  2  0  0  0  0  0  0  0  0  0
   -1.8228   -5.9219   17.5176 O   0  0  0  0  0  0  0  0  0  0  0  0
   -2.8774    1.1440   12.9152 C   0  0  2  0  0  0  0  0  0  0  0  0
   -4.2182    1.6361   13.2955 O   0  0  0  0  0  0  0  0  0  0  0  0
   -4.8813    3.4301   17.2598 C   0  0  2  0  0  0  0  0  0  0  0  0
   -6.0836    3.0879   16.5125 O   0  0  0  0  0  0  0  0  0  0  0  0
   -3.6510   -7.2810   16.5682 C   0  0  2  0  0  0  0  0  0  0  0  0
   -5.0639   -7.2124   16.1300 O   0  0  0  0  0  0  0  0  0  0  0  0
   -2.7977    0.9729   11.3989 C   0  0  0  0  0  0  0  0  0  0  0  0
   -1.4926    0.6377   10.9946 O   0  0  0  0  0  0  0  0  0  0  0  0
   -5.1789    4.5812   18.2490 C   0  0  1  0  0  0  0  0  0  0  0  0
   -6.1487    4.1373   19.1745 O   0  0  0  0  0  0  0  0  0  0  0  0
   -3.5079   -8.3661   17.6246 C   0  0  0  0  0  0  0  0  0  0  0  0
   -3.7960   -9.6286   17.0739 O   0  0  0  0  0  0  0  0  0  0  0  0
   -3.0127   -2.4983   15.4308 C   0  0  0  0  0  0  0  0  0  0  0  0
  1  2  1  1  0  0  0
  1  7  1  0  0  0  0
  1 24  1  0  0  0  0
  3  4  1  1  0  0  0
  3  9  1  0  0  0  0
  3 31  1  0  0  0  0
  5  6  1  6  0  0  0
  5 10  1  0  0  0  0
  5 28  1  0  0  0  0
  7  8  1  1  0  0  0
  7 12  1  0  0  0  0
  9 14  1  0  0  0  0
 10 11  1  6  0  0  0
 10 16  1  0  0  0  0
 12 13  1  1  0  0  0
 12 18  1  0  0  0  0
 13 35  1  0  0  0  0
 14 15  1  6  0  0  0
 14 20  1  0  0  0  0
 16 17  1  1  0  0  0
 16 21  1  0  0  0  0
 17 35  1  0  0  0  0
 18 19  1  1  0  0  0
 18 23  1  0  0  0  0
 20  2  1  6  0  0  0
 20 25  1  0  0  0  0
 21 22  1  6  0  0  0
 21 27  1  0  0  0  0
 23 24  1  0  0  0  0
 23 29  1  6  0  0  0
 25 26  1  6  0  0  0
 25 31  1  0  0  0  0
 27 28  1  0  0  0  0
 27 33  1  1  0  0  0
 29 30  1  0  0  0  0
 31 32  1  1  0  0  0
 33 34  1  0  0  0  0
M  END
>  <CHROM.1>
-106.44797038,81.12762087,-166.29115842,-64.17437819,-175.94335256,160.88829524
-64.04337186,-173.36495600,-3.65452989,-0.73200766,15.85747052,-1.57824511
-1.25374720,-3.07213886

>  <Name>
2o3v_lig

>  <RI>
0

>  <Rbt.Current_Directory>
/home/afrankz/demos/rdock_decoys_rna/rnas/2o3v

>  <Rbt.Executable>
rbdock ($Id: //depot/dev/client3/rdock/2013.1/src/exe/rbdock.cxx#4 $)

>  <Rbt.Library>
libRbt.so (2013.1, Build901 2013/11/27)

>  <Rbt.Parameter_File>
/export/apps/rDock/src/rDock_2013.1_src/data/scripts/dock_solv.prm

>  <Rbt.Receptor>
prm/blind_docking_40.prm

>  <SCORE>
1.4024

>  <SCORE.INTER>
-8.32201

>  <SCORE.INTER.CONST>
1

>  <SCORE.INTER.POLAR>
-1.43821

>  <SCORE.INTER.ROT>
8

>  <SCORE.INTER.SOLV>
25.1748

>  <SCORE.INTER.VDW>
-18.0789

>  <SCORE.INTER.norm>
-0.237772

>  <SCORE.INTRA>
2.4701

>  <SCORE.INTRA.DIHEDRAL>
-1.85471

>  <SCORE.INTRA.DIHEDRAL.0>
13.1227

>  <SCORE.INTRA.POLAR>
0

>  <SCORE.INTRA.POLAR.0>
0

>  <SCORE.INTRA.REPUL>
0

>  <SCORE.INTRA.REPUL.0>
0

>  <SCORE.INTRA.SOLV>
2.65577

>  <SCORE.INTRA.SOLV.lig_0>
-89.1587

>  <SCORE.INTRA.VDW>
2.06957

>  <SCORE.INTRA.VDW.0>
-0.838383

>  <SCORE.INTRA.norm>
0.0705744

>  <SCORE.RESTR>
7.25431

>  <SCORE.RESTR.CAVITY>
7.25431

>  <SCORE.RESTR.norm>
0.207266

>  <SCORE.SYSTEM>
0

>  <SCORE.SYSTEM.CONST>
0

>  <SCORE.SYSTEM.DIHEDRAL>
0

>  <SCORE.SYSTEM.SOLV>
0

>  <SCORE.SYSTEM.norm>
0

>  <SCORE.heavy>
35

>  <SCORE.norm>
0.0400687

>  <RMSD>
31.823

$$$$
2o3v_lig
 OpenBabel02141814113D
libRbt.so/2013.1/901 2013/11/27
 35 37  0  0  0  0  0  0  0  0999 V2000
   -4.5996    2.7247   15.7332 C   0  0  2  0  0  0  0  0  0  0  0  0
   -3.5433    3.6242   16.1893 O   0  0  0  0  0  0  0  0  0  0  0  0
   -4.5590    5.4198   20.0196 C   0  0  2  0  0  0  0  0  0  0  0  0
   -4.7187    6.4325   21.1063 N   0  0  0  0  0  0  0  0  0  0  0  0
   -3.7476   -5.1840   17.9074 C   0  0  2  0  0  0  0  0  0  0  0  0
   -5.0485   -4.5842   18.0907 O   0  0  0  0  0  0  0  0  0  0  0  0
   -3.9511    1.3121   15.8829 C   0  0  2  0  0  0  0  0  0  0  0  0
   -3.5421    1.0560   17.2841 N   0  0  0  0  0  0  0  0  0  0  0  0
   -3.0215    5.2437   19.6583 C   0  0  0  0  0  0  0  0  0  0  0  0
   -2.7760   -4.0585   17.4099 C   0  0  2  0  0  0  0  0  0  0  0  0
   -2.7293   -2.9305   18.3744 N   0  0  0  0  0  0  0  0  0  0  0  0
   -2.6986    1.1393   14.9181 C   0  0  1  0  0  0  0  0  0  0  0  0
   -2.0698   -0.1937   15.1078 O   0  0  0  0  0  0  0  0  0  0  0  0
   -2.8804    4.1709   18.4932 C   0  0  2  0  0  0  0  0  0  0  0  0
   -1.4564    4.0003   18.1333 N   0  0  0  0  0  0  0  0  0  0  0  0
   -3.1812   -3.5328   15.9628 C   0  0  1  0  0  0  0  0  0  0  0  0
   -2.2783   -2.5130   15.4631 O   0  0  0  0  0  0  0  0  0  0  0  0
   -3.1991    1.4188   13.4332 C   0  0  2  0  0  0  0  0  0  0  0  0
   -2.1392    1.3114   12.4999 O   0  0  0  0  0  0  0  0  0  0  0  0
   -3.7058    4.6396   17.2250 C   0  0  2  0  0  0  0  0  0  0  0  0
   -3.2034   -4.7482   14.9825 C   0  0  2  0  0  0  0  0  0  0  0  0
   -3.5689   -4.3414   13.6785 O   0  0  0  0  0  0  0  0  0  0  0  0
   -3.8591    2.8464   13.3311 C   0  0  2  0  0  0  0  0  0  0  0  0
   -4.9623    2.9583   14.3082 O   0  0  0  0  0  0  0  0  0  0  0  0
   -5.2068    4.8152   17.5886 C   0  0  2  0  0  0  0  0  0  0  0  0
   -5.8922    5.2833   16.3918 O   0  0  0  0  0  0  0  0  0  0  0  0
   -4.1897   -5.8593   15.5227 C   0  0  2  0  0  0  0  0  0  0  0  0
   -3.8010   -6.2699   16.8914 O   0  0  0  0  0  0  0  0  0  0  0  0
   -4.3821    3.1253   11.9227 C   0  0  0  0  0  0  0  0  0  0  0  0
   -5.5671    2.4102   11.6713 O   0  0  0  0  0  0  0  0  0  0  0  0
   -5.3484    5.8556   18.7243 C   0  0  1  0  0  0  0  0  0  0  0  0
   -6.7183    5.9920   19.0389 O   0  0  0  0  0  0  0  0  0  0  0  0
   -4.2116   -7.0843   14.6212 C   0  0  0  0  0  0  0  0  0  0  0  0
   -2.9559   -7.7193   14.6250 O   0  0  0  0  0  0  0  0  0  0  0  0
   -3.0329   -1.3531   15.0046 C   0  0  0  0  0  0  0  0  0  0  0  0
  1  2  1  6  0  0  0
  1  7  1  0  0  0  0
  1 24  1  0  0  0  0
  3  4  1  1  0  0  0
  3  9  1  0  0  0  0
  3 31  1  0  0  0  0
  5  6  1  6  0  0  0
  5 10  1  0  0  0  0
  5 28  1  0  0  0  0
  7  8  1  1  0  0  0
  7 12  1  0  0  0  0
  9 14  1  0  0  0  0
 10 11  1  1  0  0  0
 10 16  1  0  0  0  0
 12 13  1  6  0  0  0
 12 18  1  0  0  0  0
 13 35  1  0  0  0  0
 14 15  1  6  0  0  0
 14 20  1  0  0  0  0
 16 17  1  6  0  0  0
 16 21  1  0  0  0  0
 17 35  1  0  0  0  0
 18 19  1  6  0  0  0
 18 23  1  0  0  0  0
 20  2  1  6  0  0  0
 20 25  1  0  0  0  0
 21 22  1  6  0  0  0
 21 27  1  0  0  0  0
 23 24  1  0  0  0  0
 23 29  1  6  0  0  0
 25 26  1  6  0  0  0
 25 31  1  0  0  0  0
 27 28  1  0  0  0  0
 27 33  1  6  0  0  0
 29 30  1  0  0  0  0
 31 32  1  1  0  0  0
 33 34  1  0  0  0  0
M  END
>  <CHROM.1>
-126.69455638,52.28091809,-169.68198298,-129.18078720,155.24831215,110.27675285
74.69496687,64.92426420,-3.80437637,0.39430788,16.15547446,-3.00589443,-1.47165682
1.90177089

>  <Name>
2o3v_lig

>  <RI>
0

>  <Rbt.Current_Directory>
/home/afrankz/demos/rdock_decoys_rna/rnas/2o3v

>  <Rbt.Executable>
rbdock ($Id: //depot/dev/client3/rdock/2013.1/src/exe/rbdock.cxx#4 $)

>  <Rbt.Library>
libRbt.so (2013.1, Build901 2013/11/27)

>  <Rbt.Parameter_File>
/export/apps/rDock/src/rDock_2013.1_src/data/scripts/dock_solv.prm

>  <Rbt.Receptor>
prm/blind_docking_60.prm

>  <SCORE>
-3.93048

>  <SCORE.INTER>
-12.4788

>  <SCORE.INTER.CONST>
1

>  <SCORE.INTER.POLAR>
-2.41647

>  <SCORE.INTER.ROT>
8

>  <SCORE.INTER.SOLV>
28.963

>  <SCORE.INTER.VDW>
-18.852

>  <SCORE.INTER.norm>
-0.356537

>  <SCORE.INTRA>
5.93097

>  <SCORE.INTRA.DIHEDRAL>
11.669

>  <SCORE.INTRA.DIHEDRAL.0>
13.1227

>  <SCORE.INTRA.POLAR>
0

>  <SCORE.INTRA.POLAR.0>
0

>  <SCORE.INTRA.REPUL>
0

>  <SCORE.INTRA.REPUL.0>
0

>  <SCORE.INTRA.SOLV>
1.93859

>  <SCORE.INTRA.SOLV.lig_0>
-89.1587

>  <SCORE.INTRA.VDW>
-0.872825

>  <SCORE.INTRA.VDW.0>
-0.838383

>  <SCORE.INTRA.norm>
0.169456

>  <SCORE.RESTR>
2.61736

>  <SCORE.RESTR.CAVITY>
2.61736

>  <SCORE.RESTR.norm>
0.0747816

>  <SCORE.SYSTEM>
0

>  <SCORE.SYSTEM.CONST>
0

>  <SCORE.SYSTEM.DIHEDRAL>
0

>  <SCORE.SYSTEM.SOLV>
0

>  <SCORE.SYSTEM.norm>
0

>  <SCORE.heavy>
35

>  <SCORE.norm>
-0.112299

>  <RMSD>
31.838

$$$$
2o3v_lig
 OpenBabel02141814113D
libRbt.so/2013.1/901 2013/11/27
 35 37  0  0  0  0  0  0  0  0999 V2000
   -2.6479    0.8362   15.0354 C   0  0  2  0  0  0  0  0  0  0  0  0
   -3.4415    0.2313   13.9691 O   0  0  0  0  0  0  0  0  0  0  0  0
   -1.6085    1.1065   10.1218 C   0  0  2  0  0  0  0  0  0  0  0  0
   -1.4562    1.4278    8.6706 N   0  0  0  0  0  0  0  0  0  0  0  0
   -5.5921   -6.4824   19.1437 C   0  0  2  0  0  0  0  0  0  0  0  0
   -6.9588   -6.8234   18.8253 O   0  0  0  0  0  0  0  0  0  0  0  0
   -2.6564   -0.2593   16.1482 C   0  0  2  0  0  0  0  0  0  0  0  0
   -2.0800   -1.5314   15.6523 N   0  0  0  0  0  0  0  0  0  0  0  0
   -2.3531   -0.2863   10.2979 C   0  0  0  0  0  0  0  0  0  0  0  0
   -5.3734   -4.9843   18.7360 C   0  0  2  0  0  0  0  0  0  0  0  0
   -6.3374   -4.0962   19.4336 N   0  0  0  0  0  0  0  0  0  0  0  0
   -4.1243   -0.5158   16.7039 C   0  0  1  0  0  0  0  0  0  0  0  0
   -4.1170   -1.5916   17.7291 O   0  0  0  0  0  0  0  0  0  0  0  0
   -2.5126   -0.5984   11.8489 C   0  0  2  0  0  0  0  0  0  0  0  0
   -3.2144   -1.8865   12.0353 N   0  0  0  0  0  0  0  0  0  0  0  0
   -5.4782   -4.7852   17.1598 C   0  0  1  0  0  0  0  0  0  0  0  0
   -5.2466   -3.4126   16.7510 O   0  0  0  0  0  0  0  0  0  0  0  0
   -4.6863    0.8789   17.2262 C   0  0  2  0  0  0  0  0  0  0  0  0
   -6.0075    0.7531   17.7208 O   0  0  0  0  0  0  0  0  0  0  0  0
   -3.3238    0.5657   12.5532 C   0  0  2  0  0  0  0  0  0  0  0  0
   -4.4393   -5.7262   16.4715 C   0  0  2  0  0  0  0  0  0  0  0  0
   -4.4946   -5.5995   15.0642 O   0  0  0  0  0  0  0  0  0  0  0  0
   -4.6455    1.9572   16.0776 C   0  0  2  0  0  0  0  0  0  0  0  0
   -3.2670    2.0845   15.5599 O   0  0  0  0  0  0  0  0  0  0  0  0
   -2.5919    1.9249   12.3708 C   0  0  2  0  0  0  0  0  0  0  0  0
   -3.4110    2.9483   13.0056 O   0  0  0  0  0  0  0  0  0  0  0  0
   -4.6921   -7.2232   16.9123 C   0  0  2  0  0  0  0  0  0  0  0  0
   -4.6399   -7.3402   18.3876 O   0  0  0  0  0  0  0  0  0  0  0  0
   -5.1456    3.3167   16.5637 C   0  0  0  0  0  0  0  0  0  0  0  0
   -4.3905    3.7721   17.6598 O   0  0  0  0  0  0  0  0  0  0  0  0
   -2.4315    2.2308   10.8633 C   0  0  1  0  0  0  0  0  0  0  0  0
   -1.7601    3.4655   10.7255 O   0  0  0  0  0  0  0  0  0  0  0  0
   -3.6745   -8.1737   16.2997 C   0  0  0  0  0  0  0  0  0  0  0  0
   -3.5456   -7.9320   14.9195 O   0  0  0  0  0  0  0  0  0  0  0  0
   -3.9184   -2.9802   17.1681 C   0  0  0  0  0  0  0  0  0  0  0  0
  1  2  1  6  0  0  0
  1  7  1  0  0  0  0
  1 24  1  0  0  0  0
  3  4  1  6  0  0  0
  3  9  1  0  0  0  0
  3 31  1  0  0  0  0
  5  6  1  6  0  0  0
  5 10  1  0  0  0  0
  5 28  1  0  0  0  0
  7  8  1  6  0  0  0
  7 12  1  0  0  0  0
  9 14  1  0  0  0  0
 10 11  1  1  0  0  0
 10 16  1  0  0  0  0
 12 13  1  1  0  0  0
 12 18  1  0  0  0  0
 13 35  1  0  0  0  0
 14 15  1  6  0  0  0
 14 20  1  0  0  0  0
 16 17  1  1  0  0  0
 16 21  1  0  0  0  0
 17 35  1  0  0  0  0
 18 19  1  6  0  0  0
 18 23  1  0  0  0  0
 20  2  1  1  0  0  0
 20 25  1  0  0  0  0
 21 22  1  6  0  0  0
 21 27  1  0  0  0  0
 23 24  1  0  0  0  0
 23 29  1  1  0  0  0
 25 26  1  1  0  0  0
 25 31  1  0  0  0  0
 27 28  1  0  0  0  0
 27 33  1  6  0  0  0
 29 30  1  0  0  0  0
 31 32  1  1  0  0  0
 33 34  1  0  0  0  0
M  END
>  <CHROM.1>
-154.61700067,-73.12979483,-83.91717103,59.45679222,-136.22584308,103.09676755
57.55311475,-48.10674500,-3.91459209,-1.57118003,15.28362155,0.92371701,1.17103991
0.03608653

>  <Name>
2o3v_lig

>  <RI>
0

>  <Rbt.Current_Directory>
/home/afrankz/demos/rdock_decoys_rna/rnas/2o3v

>  <Rbt.Executable>
rbdock ($Id: //depot/dev/client3/rdock/2013.1/src/exe/rbdock.cxx#4 $)

>  <Rbt.Library>
libRbt.so (2013.1, Build901 2013/11/27)

>  <Rbt.Parameter_File>
/export/apps/rDock/src/rDock_2013.1_src/data/scripts/dock_solv.prm

>  <Rbt.Receptor>
prm/blind_docking_100.prm

>  <SCORE>
1.74563

>  <SCORE.INTER>
-8.339

>  <SCORE.INTER.CONST>
1

>  <SCORE.INTER.POLAR>
-1.37633

>  <SCORE.INTER.ROT>
8

>  <SCORE.INTER.SOLV>
23.3254

>  <SCORE.INTER.VDW>
-17.68

>  <SCORE.INTER.norm>
-0.238257

>  <SCORE.INTRA>
5.35654

>  <SCORE.INTRA.DIHEDRAL>
5.32081

>  <SCORE.INTRA.DIHEDRAL.0>
13.1227

>  <SCORE.INTRA.POLAR>
0

>  <SCORE.INTRA.POLAR.0>
0

>  <SCORE.INTRA.REPUL>
0

>  <SCORE.INTRA.REPUL.0>
0

>  <SCORE.INTRA.SOLV>
2.37331

>  <SCORE.INTRA.SOLV.lig_0>
-89.1587

>  <SCORE.INTRA.VDW>
1.50948

>  <SCORE.INTRA.VDW.0>
-0.838383

>  <SCORE.INTRA.norm>
0.153044

>  <SCORE.RESTR>
4.72809

>  <SCORE.RESTR.CAVITY>
4.72809

>  <SCORE.RESTR.norm>
0.135088

>  <SCORE.SYSTEM>
0

>  <SCORE.SYSTEM.CONST>
0

>  <SCORE.SYSTEM.DIHEDRAL>
0

>  <SCORE.SYSTEM.SOLV>
0

>  <SCORE.SYSTEM.norm>
0

>  <SCORE.heavy>
35

>  <SCORE.norm>
0.0498751

>  <RMSD>
31.864

$$$$
2o3v_lig
 OpenBabel02141814113D
libRbt.so/2013.1/901 2013/11/27
 35 37  0  0  0  0  0  0  0  0999 V2000
   -2.9407    5.3678   17.1343 C   0  0  2  0  0  0  0  0  0  0  0  0
   -1.4885    5.3904   16.9812 O   0  0  0  0  0  0  0  0  0  0  0  0
   -0.2888    9.4985   16.1990 C   0  0  2  0  0  0  0  0  0  0  0  0
    0.4835   10.6713   15.6887 N   0  0  0  0  0  0  0  0  0  0  0  0
   -4.9302   -3.8372   16.5256 C   0  0  2  0  0  0  0  0  0  0  0  0
   -4.8543   -3.6156   15.1005 O   0  0  0  0  0  0  0  0  0  0  0  0
   -3.2029    3.9911   17.8230 C   0  0  2  0  0  0  0  0  0  0  0  0
   -2.4860    3.8938   19.1164 N   0  0  0  0  0  0  0  0  0  0  0  0
    0.6215    8.6223   17.1628 C   0  0  0  0  0  0  0  0  0  0  0  0
   -4.5639   -2.4865   17.2324 C   0  0  2  0  0  0  0  0  0  0  0  0
   -5.4716   -1.3946   16.7977 N   0  0  0  0  0  0  0  0  0  0  0  0
   -2.7820    2.7787   16.8836 C   0  0  1  0  0  0  0  0  0  0  0  0
   -2.9977    1.4804   17.5738 O   0  0  0  0  0  0  0  0  0  0  0  0
   -0.2192    7.3765   17.6820 C   0  0  2  0  0  0  0  0  0  0  0  0
    0.6141    6.5405   18.5726 N   0  0  0  0  0  0  0  0  0  0  0  0
   -3.0465   -2.0816   16.9712 C   0  0  1  0  0  0  0  0  0  0  0  0
   -2.6705   -0.8513   17.6418 O   0  0  0  0  0  0  0  0  0  0  0  0
   -3.5857    2.9329   15.5183 C   0  0  2  0  0  0  0  0  0  0  0  0
   -3.2550    1.9040   14.6030 O   0  0  0  0  0  0  0  0  0  0  0  0
   -0.7258    6.5166   16.4518 C   0  0  2  0  0  0  0  0  0  0  0  0
   -2.1315   -3.2508   17.4554 C   0  0  2  0  0  0  0  0  0  0  0  0
   -0.7669   -2.9504   17.2376 O   0  0  0  0  0  0  0  0  0  0  0  0
   -3.3043    4.3397   14.8663 C   0  0  2  0  0  0  0  0  0  0  0  0
   -3.6462    5.4122   15.8241 O   0  0  0  0  0  0  0  0  0  0  0  0
   -1.6100    7.3827   15.5114 C   0  0  2  0  0  0  0  0  0  0  0  0
   -2.0039    6.5423   14.3891 O   0  0  0  0  0  0  0  0  0  0  0  0
   -2.5365   -4.5919   16.7230 C   0  0  2  0  0  0  0  0  0  0  0  0
   -3.9689   -4.8900   16.9520 O   0  0  0  0  0  0  0  0  0  0  0  0
   -4.0938    4.5282   13.5716 C   0  0  0  0  0  0  0  0  0  0  0  0
   -3.5129    3.8052   12.5139 O   0  0  0  0  0  0  0  0  0  0  0  0
   -0.7971    8.5979   15.0068 C   0  0  1  0  0  0  0  0  0  0  0  0
   -1.6233    9.3697   14.1607 O   0  0  0  0  0  0  0  0  0  0  0  0
   -1.6994   -5.7708   17.1958 C   0  0  0  0  0  0  0  0  0  0  0  0
   -0.7624   -6.1341   16.2109 O   0  0  0  0  0  0  0  0  0  0  0  0
   -2.7327    0.2689   16.7111 C   0  0  0  0  0  0  0  0  0  0  0  0
  1  2  1  6  0  0  0
  1  7  1  0  0  0  0
  1 24  1  0  0  0  0
  3  4  1  6  0  0  0
  3  9  1  0  0  0  0
  3 31  1  0  0  0  0
  5  6  1  6  0  0  0
  5 10  1  0  0  0  0
  5 28  1  0  0  0  0
  7  8  1  1  0  0  0
  7 12  1  0  0  0  0
  9 14  1  0  0  0  0
 10 11  1  6  0  0  0
 10 16  1  0  0  0  0
 12 13  1  1  0  0  0
 12 18  1  0  0  0  0
 13 35  1  0  0  0  0
 14 15  1  1  0  0  0
 14 20  1  0  0  0  0
 16 17  1  1  0  0  0
 16 21  1  0  0  0  0
 17 35  1  0  0  0  0
 18 19  1  6  0  0  0
 18 23  1  0  0  0  0
 20  2  1  1  0  0  0
 20 25  1  0  0  0  0
 21 22  1  6  0  0  0
 21 27  1  0  0  0  0
 23 24  1  0  0  0  0
 23 29  1  6  0  0  0
 25 26  1  6  0  0  0
 25 31  1  0  0  0  0
 27 28  1  0  0  0  0
 27 33  1  1  0  0  0
 29 30  1  0  0  0  0
 31 32  1  6  0  0  0
 33 34  1  0  0  0  0
M  END
>  <CHROM.1>
-176.23626679,175.13687453,166.18068991,-98.36639130,153.20668251,95.24923484
-76.21026461,-106.20718371,-2.38098405,2.37182376,16.30927034,-1.33897994
0.77109298,2.90696832

>  <Name>
2o3v_lig

>  <RI>
0

>  <Rbt.Current_Directory>
/home/afrankz/demos/rdock_decoys_rna/rnas/2o3v

>  <Rbt.Executable>
rbdock ($Id: //depot/dev/client3/rdock/2013.1/src/exe/rbdock.cxx#4 $)

>  <Rbt.Library>
libRbt.so (2013.1, Build901 2013/11/27)

>  <Rbt.Parameter_File>
/export/apps/rDock/src/rDock_2013.1_src/data/scripts/dock_solv.prm

>  <Rbt.Receptor>
prm/blind_docking_20.prm

>  <SCORE>
12.4666

>  <SCORE.INTER>
2.32951

>  <SCORE.INTER.CONST>
1

>  <SCORE.INTER.POLAR>
-1.53961

>  <SCORE.INTER.ROT>
8

>  <SCORE.INTER.SOLV>
30.1147

>  <SCORE.INTER.VDW>
-12.2865

>  <SCORE.INTER.norm>
0.0665574

>  <SCORE.INTRA>
4.62657

>  <SCORE.INTRA.DIHEDRAL>
6.17949

>  <SCORE.INTRA.DIHEDRAL.0>
13.1227

>  <SCORE.INTRA.POLAR>
0

>  <SCORE.INTRA.POLAR.0>
0

>  <SCORE.INTRA.REPUL>
0

>  <SCORE.INTRA.REPUL.0>
0

>  <SCORE.INTRA.SOLV>
0.571813

>  <SCORE.INTRA.SOLV.lig_0>
-89.1587

>  <SCORE.INTRA.VDW>
1.25091

>  <SCORE.INTRA.VDW.0>
-0.838383

>  <SCORE.INTRA.norm>
0.132188

>  <SCORE.RESTR>
5.5105

>  <SCORE.RESTR.CAVITY>
5.5105

>  <SCORE.RESTR.norm>
0.157443

>  <SCORE.SYSTEM>
0

>  <SCORE.SYSTEM.CONST>
0

>  <SCORE.SYSTEM.DIHEDRAL>
0

>  <SCORE.SYSTEM.SOLV>
0

>  <SCORE.SYSTEM.norm>
0

>  <SCORE.heavy>
35

>  <SCORE.norm>
0.356188

>  <RMSD>
31.927

$$$$
2o3v_lig
 OpenBabel02141814113D
libRbt.so/2013.1/901 2013/11/27
 35 37  0  0  0  0  0  0  0  0999 V2000
   -4.3809    3.6864   16.2162 C   0  0  2  0  0  0  0  0  0  0  0  0
   -3.0498    4.0839   16.6668 O   0  0  0  0  0  0  0  0  0  0  0  0
   -0.3679    7.5093   16.7023 C   0  0  2  0  0  0  0  0  0  0  0  0
    0.1252    8.9156   16.8090 N   0  0  0  0  0  0  0  0  0  0  0  0
   -3.5519   -4.3367   18.1972 C   0  0  2  0  0  0  0  0  0  0  0  0
   -4.7590   -3.5819   18.4397 O   0  0  0  0  0  0  0  0  0  0  0  0
   -4.3954    2.1457   16.4697 C   0  0  2  0  0  0  0  0  0  0  0  0
   -4.1548    1.8355   17.8988 N   0  0  0  0  0  0  0  0  0  0  0  0
   -1.4083    7.3841   15.5076 C   0  0  0  0  0  0  0  0  0  0  0  0
   -2.5017   -3.3565   17.5691 C   0  0  2  0  0  0  0  0  0  0  0  0
   -2.2538   -2.1972   18.4633 N   0  0  0  0  0  0  0  0  0  0  0  0
   -3.3200    1.3957   15.5693 C   0  0  1  0  0  0  0  0  0  0  0  0
   -3.3191   -0.0621   15.8575 O   0  0  0  0  0  0  0  0  0  0  0  0
   -1.9255    5.8829   15.4234 C   0  0  2  0  0  0  0  0  0  0  0  0
   -2.9048    5.7470   14.3238 N   0  0  0  0  0  0  0  0  0  0  0  0
   -2.9566   -2.8562   16.1277 C   0  0  1  0  0  0  0  0  0  0  0  0
   -1.9866   -1.9729   15.5083 O   0  0  0  0  0  0  0  0  0  0  0  0
   -3.6322    1.7602   14.0516 C   0  0  2  0  0  0  0  0  0  0  0  0
   -2.7041    1.1527   13.1710 O   0  0  0  0  0  0  0  0  0  0  0  0
   -2.5940    5.4643   16.7971 C   0  0  2  0  0  0  0  0  0  0  0  0
   -3.1913   -4.1057   15.2210 C   0  0  2  0  0  0  0  0  0  0  0  0
   -3.6091   -3.7213   13.9259 O   0  0  0  0  0  0  0  0  0  0  0  0
   -3.6226    3.3225   13.8444 C   0  0  2  0  0  0  0  0  0  0  0  0
   -4.5887    3.9552   14.7667 O   0  0  0  0  0  0  0  0  0  0  0  0
   -1.5717    5.5956   17.9607 C   0  0  2  0  0  0  0  0  0  0  0  0
   -2.2639    5.2351   19.1903 O   0  0  0  0  0  0  0  0  0  0  0  0
   -4.2511   -5.0680   15.8919 C   0  0  2  0  0  0  0  0  0  0  0  0
   -3.8057   -5.4558   17.2498 O   0  0  0  0  0  0  0  0  0  0  0  0
   -3.9565    3.7011   12.4022 C   0  0  0  0  0  0  0  0  0  0  0  0
   -5.1982    3.1669   12.0124 O   0  0  0  0  0  0  0  0  0  0  0  0
   -1.0632    7.0538   18.0440 C   0  0  1  0  0  0  0  0  0  0  0  0
   -0.1336    7.1445   19.1032 O   0  0  0  0  0  0  0  0  0  0  0  0
   -4.4804   -6.3234   15.0640 C   0  0  0  0  0  0  0  0  0  0  0  0
   -3.2909   -7.0680   14.9614 O   0  0  0  0  0  0  0  0  0  0  0  0
   -2.6669   -0.9047   14.7865 C   0  0  0  0  0  0  0  0  0  0  0  0
  1  2  1  6  0  0  0
  1  7  1  0  0  0  0
  1 24  1  0  0  0  0
  3  4  1  1  0  0  0
  3  9  1  0  0  0  0
  3 31  1  0  0  0  0
  5  6  1  6  0  0  0
  5 10  1  0  0  0  0
  5 28  1  0  0  0  0
  7  8  1  1  0  0  0
  7 12  1  0  0  0  0
  9 14  1  0  0  0  0
 10 11  1  1  0  0  0
 10 16  1  0  0  0  0
 12 13  1  6  0  0  0
 12 18  1  0  0  0  0
 13 35  1  0  0  0  0
 14 15  1  6  0  0  0
 14 20  1  0  0  0  0
 16 17  1  6  0  0  0
 16 21  1  0  0  0  0
 17 35  1  0  0  0  0
 18 19  1  6  0  0  0
 18 23  1  0  0  0  0
 20  2  1  6  0  0  0
 20 25  1  0  0  0  0
 21 22  1  6  0  0  0
 21 27  1  0  0  0  0
 23 24  1  0  0  0  0
 23 29  1  6  0  0  0
 25 26  1  1  0  0  0
 25 31  1  0  0  0  0
 27 28  1  0  0  0  0
 27 33  1  6  0  0  0
 29 30  1  0  0  0  0
 31 32  1  1  0  0  0
 33 34  1  0  0  0  0
M  END
>  <CHROM.1>
-171.82443578,161.97047941,143.58831343,-141.60859995,67.87850521,-91.14710239
56.54034065,62.20909310,-2.97866180,1.22964168,15.99252619,1.10857370,-1.20269574
-0.39419391

>  <Name>
2o3v_lig

>  <RI>
0

>  <Rbt.Current_Directory>
/home/afrankz/demos/rdock_decoys_rna/rnas/2o3v

>  <Rbt.Executable>
rbdock ($Id: //depot/dev/client3/rdock/2013.1/src/exe/rbdock.cxx#4 $)

>  <Rbt.Library>
libRbt.so (2013.1, Build901 2013/11/27)

>  <Rbt.Parameter_File>
/export/apps/rDock/src/rDock_2013.1_src/data/scripts/dock_solv.prm

>  <Rbt.Receptor>
prm/blind_docking_20.prm

>  <SCORE>
1.59426

>  <SCORE.INTER>
-7.5605

>  <SCORE.INTER.CONST>
1

>  <SCORE.INTER.POLAR>
-1.19532

>  <SCORE.INTER.ROT>
8

>  <SCORE.INTER.SOLV>
28.696

>  <SCORE.INTER.VDW>
-19.5546

>  <SCORE.INTER.norm>
-0.216014

>  <SCORE.INTRA>
5.43935

>  <SCORE.INTRA.DIHEDRAL>
2.82555

>  <SCORE.INTRA.DIHEDRAL.0>
13.1227

>  <SCORE.INTRA.POLAR>
0

>  <SCORE.INTRA.POLAR.0>
0

>  <SCORE.INTRA.REPUL>
0

>  <SCORE.INTRA.REPUL.0>
0

>  <SCORE.INTRA.SOLV>
3.8574

>  <SCORE.INTRA.SOLV.lig_0>
-89.1587

>  <SCORE.INTRA.VDW>
2.09788

>  <SCORE.INTRA.VDW.0>
-0.838383

>  <SCORE.INTRA.norm>
0.15541

>  <SCORE.RESTR>
3.71541

>  <SCORE.RESTR.CAVITY>
3.71541

>  <SCORE.RESTR.norm>
0.106154

>  <SCORE.SYSTEM>
0

>  <SCORE.SYSTEM.CONST>
0

>  <SCORE.SYSTEM.DIHEDRAL>
0

>  <SCORE.SYSTEM.SOLV>
0

>  <SCORE.SYSTEM.norm>
0

>  <SCORE.heavy>
35

>  <SCORE.norm>
0.0455502

>  <RMSD>
31.933

$$$$
2o3v_lig
 OpenBabel02141814113D
libRbt.so/2013.1/901 2013/11/27
 35 37  0  0  0  0  0  0  0  0999 V2000
   -3.6657    4.3214   16.2031 C   0  0  2  0  0  0  0  0  0  0  0  0
   -2.4104    5.0014   15.8952 O   0  0  0  0  0  0  0  0  0  0  0  0
    0.0990    8.3652   17.0417 C   0  0  2  0  0  0  0  0  0  0  0  0
    0.5157    9.7127   17.5346 N   0  0  0  0  0  0  0  0  0  0  0  0
   -3.2316   -4.4612   17.9669 C   0  0  2  0  0  0  0  0  0  0  0  0
   -4.5800   -4.1399   18.3722 O   0  0  0  0  0  0  0  0  0  0  0  0
   -3.1931    2.9520   16.7860 C   0  0  2  0  0  0  0  0  0  0  0  0
   -2.3352    3.1449   17.9789 N   0  0  0  0  0  0  0  0  0  0  0  0
   -0.8076    8.5140   15.7451 C   0  0  0  0  0  0  0  0  0  0  0  0
   -2.5556   -3.1317   17.4836 C   0  0  2  0  0  0  0  0  0  0  0  0
   -2.5765   -2.1035   18.5548 N   0  0  0  0  0  0  0  0  0  0  0  0
   -2.4143    2.0919   15.6982 C   0  0  1  0  0  0  0  0  0  0  0  0
   -1.9351    0.8134   16.2848 O   0  0  0  0  0  0  0  0  0  0  0  0
   -1.2463    7.0685   15.2485 C   0  0  2  0  0  0  0  0  0  0  0  0
   -2.1014    7.1849   14.0478 N   0  0  0  0  0  0  0  0  0  0  0  0
   -3.2464   -2.5699   16.1638 C   0  0  1  0  0  0  0  0  0  0  0  0
   -2.6188   -1.3567   15.6748 O   0  0  0  0  0  0  0  0  0  0  0  0
   -3.3842    1.9131   14.4489 C   0  0  2  0  0  0  0  0  0  0  0  0
   -2.7632    1.1752   13.4117 O   0  0  0  0  0  0  0  0  0  0  0  0
   -2.0320    6.3173   16.4006 C   0  0  2  0  0  0  0  0  0  0  0  0
   -3.1883   -3.6774   15.0644 C   0  0  2  0  0  0  0  0  0  0  0  0
   -3.7992   -3.2366   13.8677 O   0  0  0  0  0  0  0  0  0  0  0  0
   -3.8481    3.3168   13.9029 C   0  0  2  0  0  0  0  0  0  0  0  0
   -4.4925    4.0871   14.9873 O   0  0  0  0  0  0  0  0  0  0  0  0
   -1.1405    6.1817   17.6667 C   0  0  2  0  0  0  0  0  0  0  0  0
   -1.9376    5.5213   18.6911 O   0  0  0  0  0  0  0  0  0  0  0  0
   -3.8752   -4.9994   15.5933 C   0  0  2  0  0  0  0  0  0  0  0  0
   -3.2320   -5.4450   16.8505 O   0  0  0  0  0  0  0  0  0  0  0  0
   -4.8108    3.1726   12.7251 C   0  0  0  0  0  0  0  0  0  0  0  0
   -4.9084    4.3743   12.0002 O   0  0  0  0  0  0  0  0  0  0  0  0
   -0.7084    7.5855   18.1512 C   0  0  1  0  0  0  0  0  0  0  0  0
    0.1034    7.4341   19.2967 O   0  0  0  0  0  0  0  0  0  0  0  0
   -3.8041   -6.1231   14.5704 C   0  0  0  0  0  0  0  0  0  0  0  0
   -4.3099   -7.3171   15.1167 O   0  0  0  0  0  0  0  0  0  0  0  0
   -3.0195   -0.2178   16.4919 C   0  0  0  0  0  0  0  0  0  0  0  0
  1  2  1  6  0  0  0
  1  7  1  0  0  0  0
  1 24  1  0  0  0  0
  3  4  1  1  0  0  0
  3  9  1  0  0  0  0
  3 31  1  0  0  0  0
  5  6  1  6  0  0  0
  5 10  1  0  0  0  0
  5 28  1  0  0  0  0
  7  8  1  1  0  0  0
  7 12  1  0  0  0  0
  9 14  1  0  0  0  0
 10 11  1  1  0  0  0
 10 16  1  0  0  0  0
 12 13  1  1  0  0  0
 12 18  1  0  0  0  0
 13 35  1  0  0  0  0
 14 15  1  6  0  0  0
 14 20  1  0  0  0  0
 16 17  1  6  0  0  0
 16 21  1  0  0  0  0
 17 35  1  0  0  0  0
 18 19  1  6  0  0  0
 18 23  1  0  0  0  0
 20  2  1  6  0  0  0
 20 25  1  0  0  0  0
 21 22  1  6  0  0  0
 21 27  1  0  0  0  0
 23 24  1  0  0  0  0
 23 29  1  6  0  0  0
 25 26  1  1  0  0  0
 25 31  1  0  0  0  0
 27 28  1  0  0  0  0
 27 33  1  6  0  0  0
 29 30  1  0  0  0  0
 31 32  1  1  0  0  0
 33 34  1  0  0  0  0
M  END
>  <CHROM.1>
-124.52390579,74.99801678,119.46070973,-76.40899748,157.60679773,-143.22976663
-162.48892279,174.49225958,-2.69428530,1.68994308,16.03984490,1.12355087
-1.11043452,-0.35745391

>  <Name>
2o3v_lig

>  <RI>
0

>  <Rbt.Current_Directory>
/home/afrankz/demos/rdock_decoys_rna/rnas/2o3v

>  <Rbt.Executable>
rbdock ($Id: //depot/dev/client3/rdock/2013.1/src/exe/rbdock.cxx#4 $)

>  <Rbt.Library>
libRbt.so (2013.1, Build901 2013/11/27)

>  <Rbt.Parameter_File>
/export/apps/rDock/src/rDock_2013.1_src/data/scripts/dock_solv.prm

>  <Rbt.Receptor>
prm/blind_docking_20.prm

>  <SCORE>
5.10596

>  <SCORE.INTER>
-5.46082

>  <SCORE.INTER.CONST>
1

>  <SCORE.INTER.POLAR>
-1.2493

>  <SCORE.INTER.ROT>
8

>  <SCORE.INTER.SOLV>
33.6399

>  <SCORE.INTER.VDW>
-19.6229

>  <SCORE.INTER.norm>
-0.156023

>  <SCORE.INTRA>
6.37824

>  <SCORE.INTRA.DIHEDRAL>
11.6913

>  <SCORE.INTRA.DIHEDRAL.0>
13.1227

>  <SCORE.INTRA.POLAR>
0

>  <SCORE.INTRA.POLAR.0>
0

>  <SCORE.INTRA.REPUL>
0

>  <SCORE.INTRA.REPUL.0>
0

>  <SCORE.INTRA.SOLV>
2.30203

>  <SCORE.INTRA.SOLV.lig_0>
-89.1587

>  <SCORE.INTRA.VDW>
-0.618408

>  <SCORE.INTRA.VDW.0>
-0.838383

>  <SCORE.INTRA.norm>
0.182236

>  <SCORE.RESTR>
4.18853

>  <SCORE.RESTR.CAVITY>
4.18853

>  <SCORE.RESTR.norm>
0.119672

>  <SCORE.SYSTEM>
0

>  <SCORE.SYSTEM.CONST>
0

>  <SCORE.SYSTEM.DIHEDRAL>
0

>  <SCORE.SYSTEM.SOLV>
0

>  <SCORE.SYSTEM.norm>
0

>  <SCORE.heavy>
35

>  <SCORE.norm>
0.145885

>  <RMSD>
32.000

$$$$
2o3v_lig
 OpenBabel02141814113D
libRbt.so/2013.1/901 2013/11/27
 35 37  0  0  0  0  0  0  0  0999 V2000
   -3.4967    2.8018   15.6902 C   0  0  2  0  0  0  0  0  0  0  0  0
   -3.8668    2.1388   14.4427 O   0  0  0  0  0  0  0  0  0  0  0  0
   -2.5288    1.1769   10.4163 C   0  0  2  0  0  0  0  0  0  0  0  0
   -1.6369    0.9801    9.2339 N   0  0  0  0  0  0  0  0  0  0  0  0
   -3.7532   -6.5522   16.8978 C   0  0  2  0  0  0  0  0  0  0  0  0
   -4.1274   -6.3634   15.5158 O   0  0  0  0  0  0  0  0  0  0  0  0
   -3.1201    1.6102   16.6265 C   0  0  2  0  0  0  0  0  0  0  0  0
   -2.0157    0.8059   16.0524 N   0  0  0  0  0  0  0  0  0  0  0  0
   -2.5070    2.6998   10.8698 C   0  0  0  0  0  0  0  0  0  0  0  0
   -4.1141   -5.2348   17.6676 C   0  0  2  0  0  0  0  0  0  0  0  0
   -5.5575   -4.9150   17.5286 N   0  0  0  0  0  0  0  0  0  0  0  0
   -4.3735    0.6738   16.9127 C   0  0  1  0  0  0  0  0  0  0  0  0
   -3.9843   -0.4771   17.7684 O   0  0  0  0  0  0  0  0  0  0  0  0
   -3.4536    2.8796   12.1347 C   0  0  2  0  0  0  0  0  0  0  0  0
   -3.4386    4.2894   12.5805 N   0  0  0  0  0  0  0  0  0  0  0  0
   -3.2257   -4.0080   17.1771 C   0  0  1  0  0  0  0  0  0  0  0  0
   -3.5157   -2.7821   17.8966 O   0  0  0  0  0  0  0  0  0  0  0  0
   -5.5197    1.5884   17.5318 C   0  0  2  0  0  0  0  0  0  0  0  0
   -6.6925    0.8405   17.7985 O   0  0  0  0  0  0  0  0  0  0  0  0
   -2.9681    1.9359   13.3107 C   0  0  2  0  0  0  0  0  0  0  0  0
   -1.7205   -4.3841   17.3547 C   0  0  2  0  0  0  0  0  0  0  0  0
   -0.8804   -3.3316   16.9235 O   0  0  0  0  0  0  0  0  0  0  0  0
   -5.8571    2.7848   16.5630 C   0  0  2  0  0  0  0  0  0  0  0  0
   -4.6316    3.5620   16.2825 O   0  0  0  0  0  0  0  0  0  0  0  0
   -2.9867    0.4493   12.8568 C   0  0  2  0  0  0  0  0  0  0  0  0
   -2.4930   -0.3510   13.9689 O   0  0  0  0  0  0  0  0  0  0  0  0
   -1.4010   -5.7177   16.5682 C   0  0  2  0  0  0  0  0  0  0  0  0
   -2.2929   -6.8088   17.0232 O   0  0  0  0  0  0  0  0  0  0  0  0
   -6.9297    3.7003   17.1512 C   0  0  0  0  0  0  0  0  0  0  0  0
   -8.1676    3.0382   17.2412 O   0  0  0  0  0  0  0  0  0  0  0  0
   -2.0698    0.2706   11.6241 C   0  0  1  0  0  0  0  0  0  0  0  0
   -2.1088   -1.0846   11.2292 O   0  0  0  0  0  0  0  0  0  0  0  0
    0.0468   -6.1484   16.7480 C   0  0  0  0  0  0  0  0  0  0  0  0
    0.9153   -5.2055   16.1678 O   0  0  0  0  0  0  0  0  0  0  0  0
   -3.3729   -1.6327   17.0113 C   0  0  0  0  0  0  0  0  0  0  0  0
  1  2  1  6  0  0  0
  1  7  1  0  0  0  0
  1 24  1  0  0  0  0
  3  4  1  6  0  0  0
  3  9  1  0  0  0  0
  3 31  1  0  0  0  0
  5  6  1  6  0  0  0
  5 10  1  0  0  0  0
  5 28  1  0  0  0  0
  7  8  1  6  0  0  0
  7 12  1  0  0  0  0
  9 14  1  0  0  0  0
 10 11  1  6  0  0  0
 10 16  1  0  0  0  0
 12 13  1  1  0  0  0
 12 18  1  0  0  0  0
 13 35  1  0  0  0  0
 14 15  1  1  0  0  0
 14 20  1  0  0  0  0
 16 17  1  1  0  0  0
 16 21  1  0  0  0  0
 17 35  1  0  0  0  0
 18 19  1  6  0  0  0
 18 23  1  0  0  0  0
 20  2  1  1  0  0  0
 20 25  1  0  0  0  0
 21 22  1  6  0  0  0
 21 27  1  0  0  0  0
 23 24  1  0  0  0  0
 23 29  1  1  0  0  0
 25 26  1  1  0  0  0
 25 31  1  0  0  0  0
 27 28  1  0  0  0  0
 27 33  1  1  0  0  0
 29 30  1  0  0  0  0
 31 32  1  6  0  0  0
 33 34  1  0  0  0  0
M  END
>  <CHROM.1>
-95.82423898,-83.02751614,-160.11560439,-145.78867191,167.90965202,-110.02082535
-66.84184629,-65.16273720,-3.37257964,-0.79878006,15.42652121,1.92448976
0.90498229,-0.62632928

>  <Name>
2o3v_lig

>  <RI>
0

>  <Rbt.Current_Directory>
/home/afrankz/demos/rdock_decoys_rna/rnas/2o3v

>  <Rbt.Executable>
rbdock ($Id: //depot/dev/client3/rdock/2013.1/src/exe/rbdock.cxx#4 $)

>  <Rbt.Library>
libRbt.so (2013.1, Build901 2013/11/27)

>  <Rbt.Parameter_File>
/export/apps/rDock/src/rDock_2013.1_src/data/scripts/dock_solv.prm

>  <Rbt.Receptor>
prm/blind_docking_100.prm

>  <SCORE>
-9.10051

>  <SCORE.INTER>
-15.8103

>  <SCORE.INTER.CONST>
1

>  <SCORE.INTER.POLAR>
-1.54798

>  <SCORE.INTER.ROT>
8

>  <SCORE.INTER.SOLV>
27.1482

>  <SCORE.INTER.VDW>
-23.363

>  <SCORE.INTER.norm>
-0.451723

>  <SCORE.INTRA>
4.04146

>  <SCORE.INTRA.DIHEDRAL>
7.7312

>  <SCORE.INTRA.DIHEDRAL.0>
13.1227

>  <SCORE.INTRA.POLAR>
0

>  <SCORE.INTRA.POLAR.0>
0

>  <SCORE.INTRA.REPUL>
0.00643015

>  <SCORE.INTRA.REPUL.0>
0

>  <SCORE.INTRA.SOLV>
2.64788

>  <SCORE.INTRA.SOLV.lig_0>
-89.1587

>  <SCORE.INTRA.VDW>
-1.18023

>  <SCORE.INTRA.VDW.0>
-0.838383

>  <SCORE.INTRA.norm>
0.11547

>  <SCORE.RESTR>
2.66831

>  <SCORE.RESTR.CAVITY>
2.66831

>  <SCORE.RESTR.norm>
0.0762375

>  <SCORE.SYSTEM>
0

>  <SCORE.SYSTEM.CONST>
0

>  <SCORE.SYSTEM.DIHEDRAL>
0

>  <SCORE.SYSTEM.SOLV>
0

>  <SCORE.SYSTEM.norm>
0

>  <SCORE.heavy>
35

>  <SCORE.norm>
-0.260015

>  <RMSD>
32.006

$$$$
2o3v_lig
 OpenBabel02141814113D
libRbt.so/2013.1/901 2013/11/27
 35 37  0  0  0  0  0  0  0  0999 V2000
   -3.3705    2.7850   15.7080 C   0  0  2  0  0  0  0  0  0  0  0  0
   -3.7973    2.1439   14.4672 O   0  0  0  0  0  0  0  0  0  0  0  0
   -2.6167    1.1681   10.3952 C   0  0  2  0  0  0  0  0  0  0  0  0
   -1.7713    0.9668    9.1799 N   0  0  0  0  0  0  0  0  0  0  0  0
   -2.2043   -5.3937   15.6644 C   0  0  2  0  0  0  0  0  0  0  0  0
   -1.5304   -6.2278   16.6316 O   0  0  0  0  0  0  0  0  0  0  0  0
   -3.1182    1.5756   16.6631 C   0  0  2  0  0  0  0  0  0  0  0  0
   -2.0953    0.6583   16.1075 N   0  0  0  0  0  0  0  0  0  0  0  0
   -2.5761    2.6925   10.8426 C   0  0  0  0  0  0  0  0  0  0  0  0
   -2.3062   -3.9530   16.2748 C   0  0  2  0  0  0  0  0  0  0  0  0
   -0.9618   -3.4224   16.6152 N   0  0  0  0  0  0  0  0  0  0  0  0
   -4.4592    0.7714   16.9536 C   0  0  1  0  0  0  0  0  0  0  0  0
   -4.1900   -0.4000   17.8275 O   0  0  0  0  0  0  0  0  0  0  0  0
   -3.4730    2.8770   12.1426 C   0  0  2  0  0  0  0  0  0  0  0  0
   -3.4397    4.2882   12.5830 N   0  0  0  0  0  0  0  0  0  0  0  0
   -3.2526   -3.9252   17.5548 C   0  0  1  0  0  0  0  0  0  0  0  0
   -3.3918   -2.5967   18.1209 O   0  0  0  0  0  0  0  0  0  0  0  0
   -5.5131    1.8031   17.5523 C   0  0  2  0  0  0  0  0  0  0  0  0
   -6.7553    1.1782   17.8212 O   0  0  0  0  0  0  0  0  0  0  0  0
   -2.9432    1.9366   13.3020 C   0  0  2  0  0  0  0  0  0  0  0  0
   -4.6550   -4.4773   17.1462 C   0  0  2  0  0  0  0  0  0  0  0  0
   -5.5381   -4.4861   18.2505 O   0  0  0  0  0  0  0  0  0  0  0  0
   -5.7257    3.0129   16.5649 C   0  0  2  0  0  0  0  0  0  0  0  0
   -4.4281    3.6616   16.2822 O   0  0  0  0  0  0  0  0  0  0  0  0
   -2.9804    0.4486   12.8539 C   0  0  2  0  0  0  0  0  0  0  0  0
   -2.4448   -0.3487   13.9486 O   0  0  0  0  0  0  0  0  0  0  0  0
   -4.5065   -5.9267   16.5326 C   0  0  2  0  0  0  0  0  0  0  0  0
   -3.5731   -5.9048   15.3831 O   0  0  0  0  0  0  0  0  0  0  0  0
   -6.7060    4.0379   17.1333 C   0  0  0  0  0  0  0  0  0  0  0  0
   -6.5996    5.2685   16.4601 O   0  0  0  0  0  0  0  0  0  0  0  0
   -2.1120    0.2652   11.5873 C   0  0  1  0  0  0  0  0  0  0  0  0
   -2.1673   -1.0912   11.1985 O   0  0  0  0  0  0  0  0  0  0  0  0
   -5.8448   -6.4895   16.0785 C   0  0  0  0  0  0  0  0  0  0  0  0
   -6.5574   -7.0074   17.1757 O   0  0  0  0  0  0  0  0  0  0  0  0
   -3.7636   -1.6433   17.0827 C   0  0  0  0  0  0  0  0  0  0  0  0
  1  2  1  6  0  0  0
  1  7  1  0  0  0  0
  1 24  1  0  0  0  0
  3  4  1  6  0  0  0
  3  9  1  0  0  0  0
  3 31  1  0  0  0  0
  5  6  1  1  0  0  0
  5 10  1  0  0  0  0
  5 28  1  0  0  0  0
  7  8  1  6  0  0  0
  7 12  1  0  0  0  0
  9 14  1  0  0  0  0
 10 11  1  1  0  0  0
 10 16  1  0  0  0  0
 12 13  1  1  0  0  0
 12 18  1  0  0  0  0
 13 35  1  0  0  0  0
 14 15  1  1  0  0  0
 14 20  1  0  0  0  0
 16 17  1  6  0  0  0
 16 21  1  0  0  0  0
 17 35  1  0  0  0  0
 18 19  1  6  0  0  0
 18 23  1  0  0  0  0
 20  2  1  1  0  0  0
 20 25  1  0  0  0  0
 21 22  1  1  0  0  0
 21 27  1  0  0  0  0
 23 24  1  0  0  0  0
 23 29  1  1  0  0  0
 25 26  1  1  0  0  0
 25 31  1  0  0  0  0
 27 28  1  0  0  0  0
 27 33  1  6  0  0  0
 29 30  1  0  0  0  0
 31 32  1  6  0  0  0
 33 34  1  0  0  0  0
M  END
>  <CHROM.1>
-101.13004308,-86.19145024,172.96929105,51.12294675,167.11223312,-111.39819347
162.78834263,-80.55292516,-3.78326906,-0.65937043,15.36135356,1.55925179
1.04315774,-0.34006284

>  <Name>
2o3v_lig

>  <RI>
0

>  <Rbt.Current_Directory>
/home/afrankz/demos/rdock_decoys_rna/rnas/2o3v

>  <Rbt.Executable>
rbdock ($Id: //depot/dev/client3/rdock/2013.1/src/exe/rbdock.cxx#4 $)

>  <Rbt.Library>
libRbt.so (2013.1, Build901 2013/11/27)

>  <Rbt.Parameter_File>
/export/apps/rDock/src/rDock_2013.1_src/data/scripts/dock_solv.prm

>  <Rbt.Receptor>
prm/blind_docking_20.prm

>  <SCORE>
-2.32896

>  <SCORE.INTER>
-9.90366

>  <SCORE.INTER.CONST>
1

>  <SCORE.INTER.POLAR>
-1.75381

>  <SCORE.INTER.ROT>
8

>  <SCORE.INTER.SOLV>
29.1466

>  <SCORE.INTER.VDW>
-19.4053

>  <SCORE.INTER.norm>
-0.282962

>  <SCORE.INTRA>
4.90023

>  <SCORE.INTRA.DIHEDRAL>
5.97111

>  <SCORE.INTRA.DIHEDRAL.0>
13.1227

>  <SCORE.INTRA.POLAR>
0

>  <SCORE.INTRA.POLAR.0>
0

>  <SCORE.INTRA.REPUL>
0

>  <SCORE.INTRA.REPUL.0>
0

>  <SCORE.INTRA.SOLV>
2.90183

>  <SCORE.INTRA.SOLV.lig_0>
-89.1587

>  <SCORE.INTRA.VDW>
0.463758

>  <SCORE.INTRA.VDW.0>
-0.838383

>  <SCORE.INTRA.norm>
0.140007

>  <SCORE.RESTR>
2.67446

>  <SCORE.RESTR.CAVITY>
2.67446

>  <SCORE.RESTR.norm>
0.0764133

>  <SCORE.SYSTEM>
0

>  <SCORE.SYSTEM.CONST>
0

>  <SCORE.SYSTEM.DIHEDRAL>
0

>  <SCORE.SYSTEM.SOLV>
0

>  <SCORE.SYSTEM.norm>
0

>  <SCORE.heavy>
35

>  <SCORE.norm>
-0.0665418

>  <RMSD>
32.025

$$$$
2o3v_lig
 OpenBabel02141814113D
libRbt.so/2013.1/901 2013/11/27
 35 37  0  0  0  0  0  0  0  0999 V2000
   -5.0361    2.2355   14.6352 C   0  0  2  0  0  0  0  0  0  0  0  0
   -4.2057    3.2235   15.3186 O   0  0  0  0  0  0  0  0  0  0  0  0
   -4.7281    5.5051   18.9858 C   0  0  2  0  0  0  0  0  0  0  0  0
   -4.8270    5.8402   20.4385 N   0  0  0  0  0  0  0  0  0  0  0  0
   -3.4945   -6.3763   15.8504 C   0  0  2  0  0  0  0  0  0  0  0  0
   -3.2866   -6.5463   14.4315 O   0  0  0  0  0  0  0  0  0  0  0  0
   -4.3894    0.8777   15.0554 C   0  0  2  0  0  0  0  0  0  0  0  0
   -4.3950    0.7145   16.5283 N   0  0  0  0  0  0  0  0  0  0  0  0
   -5.8533    4.4553   18.5894 C   0  0  0  0  0  0  0  0  0  0  0  0
   -3.9283   -4.8884   16.0879 C   0  0  2  0  0  0  0  0  0  0  0  0
   -5.1501   -4.5593   15.3108 N   0  0  0  0  0  0  0  0  0  0  0  0
   -2.9027    0.7444   14.5063 C   0  0  1  0  0  0  0  0  0  0  0  0
   -2.2904   -0.5336   14.9539 O   0  0  0  0  0  0  0  0  0  0  0  0
   -5.7188    4.1074   17.0437 C   0  0  2  0  0  0  0  0  0  0  0  0
   -6.7507    3.1218   16.6561 N   0  0  0  0  0  0  0  0  0  0  0  0
   -2.7554   -3.8726   15.7313 C   0  0  1  0  0  0  0  0  0  0  0  0
   -3.1183   -2.4890   15.9736 O   0  0  0  0  0  0  0  0  0  0  0  0
   -2.9612    0.9209   12.9255 C   0  0  2  0  0  0  0  0  0  0  0  0
   -1.6710    0.8413   12.3467 O   0  0  0  0  0  0  0  0  0  0  0  0
   -4.2762    3.5251   16.7448 C   0  0  2  0  0  0  0  0  0  0  0  0
   -1.4997   -4.2481   16.5804 C   0  0  2  0  0  0  0  0  0  0  0  0
   -0.4182   -3.3825   16.2966 O   0  0  0  0  0  0  0  0  0  0  0  0
   -3.6336    2.2950   12.5465 C   0  0  2  0  0  0  0  0  0  0  0  0
   -4.9782    2.3782   13.1543 O   0  0  0  0  0  0  0  0  0  0  0  0
   -3.1820    4.5556   17.1412 C   0  0  2  0  0  0  0  0  0  0  0  0
   -1.8889    3.9396   16.8776 O   0  0  0  0  0  0  0  0  0  0  0  0
   -1.0997   -5.7544   16.3151 C   0  0  2  0  0  0  0  0  0  0  0  0
   -2.2430   -6.6488   16.6079 O   0  0  0  0  0  0  0  0  0  0  0  0
   -3.7359    2.4730   11.0324 C   0  0  0  0  0  0  0  0  0  0  0  0
   -4.3251    1.3474   10.4284 O   0  0  0  0  0  0  0  0  0  0  0  0
   -3.3114    4.8995   18.6435 C   0  0  1  0  0  0  0  0  0  0  0  0
   -2.3115    5.8397   18.9758 O   0  0  0  0  0  0  0  0  0  0  0  0
    0.0949   -6.1797   17.1554 C   0  0  0  0  0  0  0  0  0  0  0  0
   -0.2793   -6.3218   18.5044 O   0  0  0  0  0  0  0  0  0  0  0  0
   -3.1540   -1.7503   14.7173 C   0  0  0  0  0  0  0  0  0  0  0  0
  1  2  1  1  0  0  0
  1  7  1  0  0  0  0
  1 24  1  0  0  0  0
  3  4  1  1  0  0  0
  3  9  1  0  0  0  0
  3 31  1  0  0  0  0
  5  6  1  6  0  0  0
  5 10  1  0  0  0  0
  5 28  1  0  0  0  0
  7  8  1  1  0  0  0
  7 12  1  0  0  0  0
  9 14  1  0  0  0  0
 10 11  1  6  0  0  0
 10 16  1  0  0  0  0
 12 13  1  6  0  0  0
 12 18  1  0  0  0  0
 13 35  1  0  0  0  0
 14 15  1  1  0  0  0
 14 20  1  0  0  0  0
 16 17  1  1  0  0  0
 16 21  1  0  0  0  0
 17 35  1  0  0  0  0
 18 19  1  1  0  0  0
 18 23  1  0  0  0  0
 20  2  1  6  0  0  0
 20 25  1  0  0  0  0
 21 22  1  6  0  0  0
 21 27  1  0  0  0  0
 23 24  1  0  0  0  0
 23 29  1  6  0  0  0
 25 26  1  1  0  0  0
 25 31  1  0  0  0  0
 27 28  1  0  0  0  0
 27 33  1  1  0  0  0
 29 30  1  0  0  0  0
 31 32  1  6  0  0  0
 33 34  1  0  0  0  0
M  END
>  <CHROM.1>
-76.08484777,49.19946835,-132.85514086,-114.91759343,-128.29803988,-63.10624154
50.76976744,72.47574133,-3.32078337,-0.03419363,15.77604869,2.54462954,-1.30175274
1.03363899

>  <Name>
2o3v_lig

>  <RI>
0

>  <Rbt.Current_Directory>
/home/afrankz/demos/rdock_decoys_rna/rnas/2o3v

>  <Rbt.Executable>
rbdock ($Id: //depot/dev/client3/rdock/2013.1/src/exe/rbdock.cxx#4 $)

>  <Rbt.Library>
libRbt.so (2013.1, Build901 2013/11/27)

>  <Rbt.Parameter_File>
/export/apps/rDock/src/rDock_2013.1_src/data/scripts/dock_solv.prm

>  <Rbt.Receptor>
prm/blind_docking_100.prm

>  <SCORE>
-8.48077

>  <SCORE.INTER>
-21.1227

>  <SCORE.INTER.CONST>
1

>  <SCORE.INTER.POLAR>
-2.92411

>  <SCORE.INTER.ROT>
8

>  <SCORE.INTER.SOLV>
17.9106

>  <SCORE.INTER.VDW>
-19.2383

>  <SCORE.INTER.norm>
-0.603507

>  <SCORE.INTRA>
6.31673

>  <SCORE.INTRA.DIHEDRAL>
9.92401

>  <SCORE.INTRA.DIHEDRAL.0>
13.1227

>  <SCORE.INTRA.POLAR>
0

>  <SCORE.INTRA.POLAR.0>
0

>  <SCORE.INTRA.REPUL>
0

>  <SCORE.INTRA.REPUL.0>
0

>  <SCORE.INTRA.SOLV>
4.45346

>  <SCORE.INTRA.SOLV.lig_0>
-89.1587

>  <SCORE.INTRA.VDW>
-0.872004

>  <SCORE.INTRA.VDW.0>
-0.838383

>  <SCORE.INTRA.norm>
0.180478

>  <SCORE.RESTR>
6.32524

>  <SCORE.RESTR.CAVITY>
6.32524

>  <SCORE.RESTR.norm>
0.180721

>  <SCORE.SYSTEM>
0

>  <SCORE.SYSTEM.CONST>
0

>  <SCORE.SYSTEM.DIHEDRAL>
0

>  <SCORE.SYSTEM.SOLV>
0

>  <SCORE.SYSTEM.norm>
0

>  <SCORE.heavy>
35

>  <SCORE.norm>
-0.242308

>  <RMSD>
32.124

$$$$
2o3v_lig
 OpenBabel02141814113D
libRbt.so/2013.1/901 2013/11/27
 35 37  0  0  0  0  0  0  0  0999 V2000
   -4.2768    2.9134   15.7444 C   0  0  2  0  0  0  0  0  0  0  0  0
   -4.3948    2.2731   14.4371 O   0  0  0  0  0  0  0  0  0  0  0  0
   -2.3182    1.4122   10.7124 C   0  0  2  0  0  0  0  0  0  0  0  0
   -1.2220    1.2688    9.7074 N   0  0  0  0  0  0  0  0  0  0  0  0
   -0.5700   -6.0482   16.5941 C   0  0  2  0  0  0  0  0  0  0  0  0
   -0.8874   -6.3738   17.9648 O   0  0  0  0  0  0  0  0  0  0  0  0
   -3.2172    2.0306   16.4769 C   0  0  2  0  0  0  0  0  0  0  0  0
   -1.9363    2.0021   15.7320 N   0  0  0  0  0  0  0  0  0  0  0  0
   -2.4511    2.9303   11.1630 C   0  0  0  0  0  0  0  0  0  0  0  0
   -0.4931   -4.4858   16.4869 C   0  0  2  0  0  0  0  0  0  0  0  0
    0.5145   -3.9362   17.4291 N   0  0  0  0  0  0  0  0  0  0  0  0
   -3.7443    0.5460   16.6951 C   0  0  1  0  0  0  0  0  0  0  0  0
   -2.7056   -0.2885   17.3530 O   0  0  0  0  0  0  0  0  0  0  0  0
   -3.6148    3.0534   12.2396 C   0  0  2  0  0  0  0  0  0  0  0  0
   -3.7477    4.4582   12.6814 N   0  0  0  0  0  0  0  0  0  0  0  0
   -1.9129   -3.8110   16.7396 C   0  0  1  0  0  0  0  0  0  0  0  0
   -1.8779   -2.3662   16.6135 O   0  0  0  0  0  0  0  0  0  0  0  0
   -5.1128    0.6404   17.5026 C   0  0  2  0  0  0  0  0  0  0  0  0
   -5.6736   -0.6411   17.7241 O   0  0  0  0  0  0  0  0  0  0  0  0
   -3.3007    2.1234   13.4829 C   0  0  2  0  0  0  0  0  0  0  0  0
   -2.9336   -4.4080   15.7196 C   0  0  2  0  0  0  0  0  0  0  0  0
   -4.2201   -3.8510   15.9045 O   0  0  0  0  0  0  0  0  0  0  0  0
   -6.1459    1.5512   16.7364 C   0  0  2  0  0  0  0  0  0  0  0  0
   -5.5578    2.8869   16.5026 O   0  0  0  0  0  0  0  0  0  0  0  0
   -3.1662    0.6418   13.0323 C   0  0  2  0  0  0  0  0  0  0  0  0
   -2.8396   -0.1441   14.2142 O   0  0  0  0  0  0  0  0  0  0  0  0
   -2.9766   -5.9823   15.8578 C   0  0  2  0  0  0  0  0  0  0  0  0
   -1.6225   -6.5516   15.6705 O   0  0  0  0  0  0  0  0  0  0  0  0
   -7.4567    1.6888   17.5095 C   0  0  0  0  0  0  0  0  0  0  0  0
   -8.4057    2.4198   16.7720 O   0  0  0  0  0  0  0  0  0  0  0  0
   -2.0374    0.5180   11.9823 C   0  0  1  0  0  0  0  0  0  0  0  0
   -1.9399   -0.8339   11.5863 O   0  0  0  0  0  0  0  0  0  0  0  0
   -3.9272   -6.6135   14.8518 C   0  0  0  0  0  0  0  0  0  0  0  0
   -5.2436   -6.1689   15.0743 O   0  0  0  0  0  0  0  0  0  0  0  0
   -2.9974   -1.7706   17.3325 C   0  0  0  0  0  0  0  0  0  0  0  0
  1  2  1  6  0  0  0
  1  7  1  0  0  0  0
  1 24  1  0  0  0  0
  3  4  1  6  0  0  0
  3  9  1  0  0  0  0
  3 31  1  0  0  0  0
  5  6  1  1  0  0  0
  5 10  1  0  0  0  0
  5 28  1  0  0  0  0
  7  8  1  6  0  0  0
  7 12  1  0  0  0  0
  9 14  1  0  0  0  0
 10 11  1  1  0  0  0
 10 16  1  0  0  0  0
 12 13  1  1  0  0  0
 12 18  1  0  0  0  0
 13 35  1  0  0  0  0
 14 15  1  1  0  0  0
 14 20  1  0  0  0  0
 16 17  1  6  0  0  0
 16 21  1  0  0  0  0
 17 35  1  0  0  0  0
 18 19  1  6  0  0  0
 18 23  1  0  0  0  0
 20  2  1  1  0  0  0
 20 25  1  0  0  0  0
 21 22  1  1  0  0  0
 21 27  1  0  0  0  0
 23 24  1  0  0  0  0
 23 29  1  1  0  0  0
 25 26  1  1  0  0  0
 25 31  1  0  0  0  0
 27 28  1  0  0  0  0
 27 33  1  6  0  0  0
 29 30  1  0  0  0  0
 31 32  1  6  0  0  0
 33 34  1  0  0  0  0
M  END
>  <CHROM.1>
-60.90923981,-167.51695485,120.08930585,-158.04529942,169.44270045,-111.57034803
-175.58976638,-62.22240601,-3.29995252,-0.87111763,15.23989549,1.95875693
0.86878703,-0.59109170

>  <Name>
2o3v_lig

>  <RI>
0

>  <Rbt.Current_Directory>
/home/afrankz/demos/rdock_decoys_rna/rnas/2o3v

>  <Rbt.Executable>
rbdock ($Id: //depot/dev/client3/rdock/2013.1/src/exe/rbdock.cxx#4 $)

>  <Rbt.Library>
libRbt.so (2013.1, Build901 2013/11/27)

>  <Rbt.Parameter_File>
/export/apps/rDock/src/rDock_2013.1_src/data/scripts/dock_solv.prm

>  <Rbt.Receptor>
prm/blind_docking_20.prm

>  <SCORE>
-4.1818

>  <SCORE.INTER>
-11.9998

>  <SCORE.INTER.CONST>
1

>  <SCORE.INTER.POLAR>
-1.3484

>  <SCORE.INTER.ROT>
8

>  <SCORE.INTER.SOLV>
30.5337

>  <SCORE.INTER.VDW>
-22.6164

>  <SCORE.INTER.norm>
-0.342852

>  <SCORE.INTRA>
3.51998

>  <SCORE.INTRA.DIHEDRAL>
4.47517

>  <SCORE.INTRA.DIHEDRAL.0>
13.1227

>  <SCORE.INTRA.POLAR>
0

>  <SCORE.INTRA.POLAR.0>
0

>  <SCORE.INTRA.REPUL>
0.00903225

>  <SCORE.INTRA.REPUL.0>
0

>  <SCORE.INTRA.SOLV>
2.87134

>  <SCORE.INTRA.SOLV.lig_0>
-89.1587

>  <SCORE.INTRA.VDW>
-0.198433

>  <SCORE.INTRA.VDW.0>
-0.838383

>  <SCORE.INTRA.norm>
0.100571

>  <SCORE.RESTR>
4.29804

>  <SCORE.RESTR.CAVITY>
4.29804

>  <SCORE.RESTR.norm>
0.122801

>  <SCORE.SYSTEM>
0

>  <SCORE.SYSTEM.CONST>
0

>  <SCORE.SYSTEM.DIHEDRAL>
0

>  <SCORE.SYSTEM.SOLV>
0

>  <SCORE.SYSTEM.norm>
0

>  <SCORE.heavy>
35

>  <SCORE.norm>
-0.11948

>  <RMSD>
32.133

$$$$
2o3v_lig
 OpenBabel02141814113D
libRbt.so/2013.1/901 2013/11/27
 35 37  0  0  0  0  0  0  0  0999 V2000
   -3.0582    1.8938   15.1910 C   0  0  2  0  0  0  0  0  0  0  0  0
   -3.6338    1.2297   14.0246 O   0  0  0  0  0  0  0  0  0  0  0  0
   -3.7973    1.2283    9.6771 C   0  0  2  0  0  0  0  0  0  0  0  0
   -3.4585    1.5185    8.2512 N   0  0  0  0  0  0  0  0  0  0  0  0
   -0.0169   -6.4560   17.3670 C   0  0  2  0  0  0  0  0  0  0  0  0
    0.2837   -6.3551   15.9581 O   0  0  0  0  0  0  0  0  0  0  0  0
   -2.6405    0.7007   16.1077 C   0  0  2  0  0  0  0  0  0  0  0  0
   -1.6779   -0.1920   15.4201 N   0  0  0  0  0  0  0  0  0  0  0  0
   -4.1509    2.5766   10.4401 C   0  0  0  0  0  0  0  0  0  0  0  0
   -1.3639   -5.6935   17.6169 C   0  0  2  0  0  0  0  0  0  0  0  0
   -2.4561   -6.2537   16.7812 N   0  0  0  0  0  0  0  0  0  0  0  0
   -3.9041   -0.1388   16.5854 C   0  0  1  0  0  0  0  0  0  0  0  0
   -3.4819   -1.2942   17.4193 O   0  0  0  0  0  0  0  0  0  0  0  0
   -4.4957    2.2416   11.9558 C   0  0  2  0  0  0  0  0  0  0  0  0
   -4.8169    3.4857   12.6876 N   0  0  0  0  0  0  0  0  0  0  0  0
   -1.2102   -4.1311   17.3519 C   0  0  1  0  0  0  0  0  0  0  0  0
   -2.4341   -3.3955   17.6080 O   0  0  0  0  0  0  0  0  0  0  0  0
   -4.8948    0.8678   17.3196 C   0  0  2  0  0  0  0  0  0  0  0  0
   -6.0687    0.2101   17.7613 O   0  0  0  0  0  0  0  0  0  0  0  0
   -3.2668    1.5137   12.6408 C   0  0  2  0  0  0  0  0  0  0  0  0
   -0.0632   -3.5852   18.2601 C   0  0  2  0  0  0  0  0  0  0  0  0
    0.1265   -2.1984   18.0589 O   0  0  0  0  0  0  0  0  0  0  0  0
   -5.2777    2.0621   16.3653 C   0  0  2  0  0  0  0  0  0  0  0  0
   -4.0514    2.7450   15.9021 O   0  0  0  0  0  0  0  0  0  0  0  0
   -2.9238    0.1996   11.8848 C   0  0  2  0  0  0  0  0  0  0  0  0
   -1.7663   -0.3910   12.5424 O   0  0  0  0  0  0  0  0  0  0  0  0
    1.2728   -4.3826   17.9801 C   0  0  2  0  0  0  0  0  0  0  0  0
    1.0580   -5.8332   18.1860 O   0  0  0  0  0  0  0  0  0  0  0  0
   -6.1996    3.0638   17.0592 C   0  0  0  0  0  0  0  0  0  0  0  0
   -7.4423    2.4805   17.3663 O   0  0  0  0  0  0  0  0  0  0  0  0
   -2.5912    0.5205   10.4088 C   0  0  1  0  0  0  0  0  0  0  0  0
   -2.2894   -0.6884    9.7443 O   0  0  0  0  0  0  0  0  0  0  0  0
    2.4103   -3.9142   18.8749 C   0  0  0  0  0  0  0  0  0  0  0  0
    3.6368   -4.4358   18.4236 O   0  0  0  0  0  0  0  0  0  0  0  0
   -2.5134   -2.2304   16.7353 C   0  0  0  0  0  0  0  0  0  0  0  0
  1  2  1  6  0  0  0
  1  7  1  0  0  0  0
  1 24  1  0  0  0  0
  3  4  1  6  0  0  0
  3  9  1  0  0  0  0
  3 31  1  0  0  0  0
  5  6  1  6  0  0  0
  5 10  1  0  0  0  0
  5 28  1  0  0  0  0
  7  8  1  6  0  0  0
  7 12  1  0  0  0  0
  9 14  1  0  0  0  0
 10 11  1  6  0  0  0
 10 16  1  0  0  0  0
 12 13  1  1  0  0  0
 12 18  1  0  0  0  0
 13 35  1  0  0  0  0
 14 15  1  1  0  0  0
 14 20  1  0  0  0  0
 16 17  1  1  0  0  0
 16 21  1  0  0  0  0
 17 35  1  0  0  0  0
 18 19  1  6  0  0  0
 18 23  1  0  0  0  0
 20  2  1  1  0  0  0
 20 25  1  0  0  0  0
 21 22  1  6  0  0  0
 21 27  1  0  0  0  0
 23 24  1  0  0  0  0
 23 29  1  1  0  0  0
 25 26  1  1  0  0  0
 25 31  1  0  0  0  0
 27 28  1  0  0  0  0
 27 33  1  1  0  0  0
 29 30  1  0  0  0  0
 31 32  1  6  0  0  0
 33 34  1  0  0  0  0
M  END
>  <CHROM.1>
-129.46112758,-57.14186618,-169.58731948,-149.41787060,-158.87799133,-110.08804107
-65.14250244,-167.91199935,-2.47325357,-0.97194234,15.35588967,2.36334978
0.82010442,-1.28976124

>  <Name>
2o3v_lig

>  <RI>
0

>  <Rbt.Current_Directory>
/home/afrankz/demos/rdock_decoys_rna/rnas/2o3v

>  <Rbt.Executable>
rbdock ($Id: //depot/dev/client3/rdock/2013.1/src/exe/rbdock.cxx#4 $)

>  <Rbt.Library>
libRbt.so (2013.1, Build901 2013/11/27)

>  <Rbt.Parameter_File>
/export/apps/rDock/src/rDock_2013.1_src/data/scripts/dock_solv.prm

>  <Rbt.Receptor>
prm/blind_docking_20.prm

>  <SCORE>
10.6649

>  <SCORE.INTER>
-2.39746

>  <SCORE.INTER.CONST>
1

>  <SCORE.INTER.POLAR>
-0.17857

>  <SCORE.INTER.ROT>
8

>  <SCORE.INTER.SOLV>
24.4321

>  <SCORE.INTER.VDW>
-18.0805

>  <SCORE.INTER.norm>
-0.0684989

>  <SCORE.INTRA>
5.69529

>  <SCORE.INTRA.DIHEDRAL>
7.25144

>  <SCORE.INTRA.DIHEDRAL.0>
13.1227

>  <SCORE.INTRA.POLAR>
0

>  <SCORE.INTRA.POLAR.0>
0

>  <SCORE.INTRA.REPUL>
0

>  <SCORE.INTRA.REPUL.0>
0

>  <SCORE.INTRA.SOLV>
2.89293

>  <SCORE.INTRA.SOLV.lig_0>
-89.1587

>  <SCORE.INTRA.VDW>
0.623103

>  <SCORE.INTRA.VDW.0>
-0.838383

>  <SCORE.INTRA.norm>
0.162723

>  <SCORE.RESTR>
7.36709

>  <SCORE.RESTR.CAVITY>
7.36709

>  <SCORE.RESTR.norm>
0.210488

>  <SCORE.SYSTEM>
0

>  <SCORE.SYSTEM.CONST>
0

>  <SCORE.SYSTEM.DIHEDRAL>
0

>  <SCORE.SYSTEM.SOLV>
0

>  <SCORE.SYSTEM.norm>
0

>  <SCORE.heavy>
35

>  <SCORE.norm>
0.304712

>  <RMSD>
32.158

$$$$
2o3v_lig
 OpenBabel02141814113D
libRbt.so/2013.1/901 2013/11/27
 35 37  0  0  0  0  0  0  0  0999 V2000
   -2.9514    2.4163   15.4617 C   0  0  2  0  0  0  0  0  0  0  0  0
   -3.4758    1.8186   14.2367 O   0  0  0  0  0  0  0  0  0  0  0  0
   -2.7021    1.1422   10.0093 C   0  0  2  0  0  0  0  0  0  0  0  0
   -1.9885    1.0662    8.6988 N   0  0  0  0  0  0  0  0  0  0  0  0
   -1.0034   -5.1035   16.3024 C   0  0  2  0  0  0  0  0  0  0  0  0
   -0.5674   -5.8643   17.4499 O   0  0  0  0  0  0  0  0  0  0  0  0
   -2.9113    1.2117   16.4546 C   0  0  2  0  0  0  0  0  0  0  0  0
   -2.0564    0.1179   15.9359 N   0  0  0  0  0  0  0  0  0  0  0  0
   -2.7141    2.6405   10.5388 C   0  0  0  0  0  0  0  0  0  0  0  0
   -1.5139   -3.7157   16.8238 C   0  0  2  0  0  0  0  0  0  0  0  0
   -0.4507   -3.0071   17.5803 N   0  0  0  0  0  0  0  0  0  0  0  0
   -4.3703    0.6553   16.7568 C   0  0  1  0  0  0  0  0  0  0  0  0
   -4.3067   -0.5172   17.6676 O   0  0  0  0  0  0  0  0  0  0  0  0
   -3.4679    2.6916   11.9380 C   0  0  2  0  0  0  0  0  0  0  0  0
   -3.4803    4.0770   12.4546 N   0  0  0  0  0  0  0  0  0  0  0  0
   -2.8206   -3.8716   17.7199 C   0  0  1  0  0  0  0  0  0  0  0  0
   -3.3345   -2.5985   18.1888 O   0  0  0  0  0  0  0  0  0  0  0  0
   -5.2365    1.8684   17.3149 C   0  0  2  0  0  0  0  0  0  0  0  0
   -6.5676    1.4712   17.5911 O   0  0  0  0  0  0  0  0  0  0  0  0
   -2.7476    1.7348   12.9747 C   0  0  2  0  0  0  0  0  0  0  0  0
   -3.9122   -4.6075   16.8801 C   0  0  2  0  0  0  0  0  0  0  0  0
   -5.0969   -4.7841   17.6318 O   0  0  0  0  0  0  0  0  0  0  0  0
   -5.2373    3.0656   16.2900 C   0  0  2  0  0  0  0  0  0  0  0  0
   -3.8475    3.4764   15.9998 O   0  0  0  0  0  0  0  0  0  0  0  0
   -2.7348    0.2730   12.4461 C   0  0  2  0  0  0  0  0  0  0  0  0
   -2.0257   -0.5376   13.4265 O   0  0  0  0  0  0  0  0  0  0  0  0
   -3.3560   -5.9971   16.3712 C   0  0  2  0  0  0  0  0  0  0  0  0
   -2.1117   -5.7986   15.5934 O   0  0  0  0  0  0  0  0  0  0  0  0
   -6.0321    4.2588   16.8187 C   0  0  0  0  0  0  0  0  0  0  0  0
   -5.3842    4.8529   17.9169 O   0  0  0  0  0  0  0  0  0  0  0  0
   -2.0054    0.2191   11.0834 C   0  0  1  0  0  0  0  0  0  0  0  0
   -2.0127   -1.1160   10.6235 O   0  0  0  0  0  0  0  0  0  0  0  0
   -4.3714   -6.7326   15.5099 C   0  0  0  0  0  0  0  0  0  0  0  0
   -4.4915   -6.1109   14.2533 O   0  0  0  0  0  0  0  0  0  0  0  0
   -3.6661   -1.7416   17.0571 C   0  0  0  0  0  0  0  0  0  0  0  0
  1  2  1  6  0  0  0
  1  7  1  0  0  0  0
  1 24  1  0  0  0  0
  3  4  1  6  0  0  0
  3  9  1  0  0  0  0
  3 31  1  0  0  0  0
  5  6  1  1  0  0  0
  5 10  1  0  0  0  0
  5 28  1  0  0  0  0
  7  8  1  6  0  0  0
  7 12  1  0  0  0  0
  9 14  1  0  0  0  0
 10 11  1  1  0  0  0
 10 16  1  0  0  0  0
 12 13  1  1  0  0  0
 12 18  1  0  0  0  0
 13 35  1  0  0  0  0
 14 15  1  1  0  0  0
 14 20  1  0  0  0  0
 16 17  1  6  0  0  0
 16 21  1  0  0  0  0
 17 35  1  0  0  0  0
 18 19  1  6  0  0  0
 18 23  1  0  0  0  0
 20  2  1  1  0  0  0
 20 25  1  0  0  0  0
 21 22  1  1  0  0  0
 21 27  1  0  0  0  0
 23 24  1  0  0  0  0
 23 29  1  1  0  0  0
 25 26  1  1  0  0  0
 25 31  1  0  0  0  0
 27 28  1  0  0  0  0
 27 33  1  6  0  0  0
 29 30  1  0  0  0  0
 31 32  1  6  0  0  0
 33 34  1  0  0  0  0
M  END
>  <CHROM.1>
-117.00389279,-67.47119748,163.14658293,59.33058280,174.71932658,-111.87450411
68.35533051,72.54488178,-3.30424040,-0.69325057,15.18279776,1.86504252,1.17936200
-0.63220453

>  <Name>
2o3v_lig

>  <RI>
0

>  <Rbt.Current_Directory>
/home/afrankz/demos/rdock_decoys_rna/rnas/2o3v

>  <Rbt.Executable>
rbdock ($Id: //depot/dev/client3/rdock/2013.1/src/exe/rbdock.cxx#4 $)

>  <Rbt.Library>
libRbt.so (2013.1, Build901 2013/11/27)

>  <Rbt.Parameter_File>
/export/apps/rDock/src/rDock_2013.1_src/data/scripts/dock_solv.prm

>  <Rbt.Receptor>
prm/blind_docking_20.prm

>  <SCORE>
-2.61611

>  <SCORE.INTER>
-9.74481

>  <SCORE.INTER.CONST>
1

>  <SCORE.INTER.POLAR>
-1.02298

>  <SCORE.INTER.ROT>
8

>  <SCORE.INTER.SOLV>
26.0622

>  <SCORE.INTER.VDW>
-20.7073

>  <SCORE.INTER.norm>
-0.278423

>  <SCORE.INTRA>
4.45183

>  <SCORE.INTRA.DIHEDRAL>
3.46104

>  <SCORE.INTRA.DIHEDRAL.0>
13.1227

>  <SCORE.INTRA.POLAR>
0

>  <SCORE.INTRA.POLAR.0>
0

>  <SCORE.INTRA.REPUL>
0.000759498

>  <SCORE.INTRA.REPUL.0>
0

>  <SCORE.INTRA.SOLV>
4.04824

>  <SCORE.INTRA.SOLV.lig_0>
-89.1587

>  <SCORE.INTRA.VDW>
0.693398

>  <SCORE.INTRA.VDW.0>
-0.838383

>  <SCORE.INTRA.norm>
0.127195

>  <SCORE.RESTR>
2.67687

>  <SCORE.RESTR.CAVITY>
2.67687

>  <SCORE.RESTR.norm>
0.0764819

>  <SCORE.SYSTEM>
0

>  <SCORE.SYSTEM.CONST>
0

>  <SCORE.SYSTEM.DIHEDRAL>
0

>  <SCORE.SYSTEM.SOLV>
0

>  <SCORE.SYSTEM.norm>
0

>  <SCORE.heavy>
35

>  <SCORE.norm>
-0.074746

>  <RMSD>
32.167

$$$$
2o3v_lig
 OpenBabel02141814113D
libRbt.so/2013.1/901 2013/11/27
 35 37  0  0  0  0  0  0  0  0999 V2000
   -4.6585    3.2781   14.3262 C   0  0  2  0  0  0  0  0  0  0  0  0
   -3.5547    3.8159   15.1168 O   0  0  0  0  0  0  0  0  0  0  0  0
   -4.5274    4.7397   19.2553 C   0  0  2  0  0  0  0  0  0  0  0  0
   -4.6800    5.4952   20.5352 N   0  0  0  0  0  0  0  0  0  0  0  0
   -3.5710   -4.4829   18.1581 C   0  0  2  0  0  0  0  0  0  0  0  0
   -4.8706   -3.8637   18.2731 O   0  0  0  0  0  0  0  0  0  0  0  0
   -4.7927    1.8147   14.8544 C   0  0  2  0  0  0  0  0  0  0  0  0
   -5.0641    1.7936   16.3111 N   0  0  0  0  0  0  0  0  0  0  0  0
   -2.9942    4.6650   18.8443 C   0  0  0  0  0  0  0  0  0  0  0  0
   -2.6261   -3.4634   17.4329 C   0  0  2  0  0  0  0  0  0  0  0  0
   -2.5584   -2.1790   18.1750 N   0  0  0  0  0  0  0  0  0  0  0  0
   -3.4902    0.9583   14.5387 C   0  0  1  0  0  0  0  0  0  0  0  0
   -3.6200   -0.4164   15.0879 O   0  0  0  0  0  0  0  0  0  0  0  0
   -2.8609    3.8674   17.4753 C   0  0  2  0  0  0  0  0  0  0  0  0
   -1.4411    3.7962   17.0683 N   0  0  0  0  0  0  0  0  0  0  0  0
   -3.0825   -3.2100   15.9287 C   0  0  1  0  0  0  0  0  0  0  0  0
   -2.2055   -2.2951   15.2227 O   0  0  0  0  0  0  0  0  0  0  0  0
   -3.2544    1.0124   12.9654 C   0  0  2  0  0  0  0  0  0  0  0  0
   -2.0938    0.2927   12.5901 O   0  0  0  0  0  0  0  0  0  0  0  0
   -3.7109    4.5848   16.3474 C   0  0  2  0  0  0  0  0  0  0  0  0
   -3.1254   -4.5831   15.1862 C   0  0  2  0  0  0  0  0  0  0  0  0
   -3.5364   -4.4207   13.8430 O   0  0  0  0  0  0  0  0  0  0  0  0
   -3.1402    2.5054   12.4739 C   0  0  2  0  0  0  0  0  0  0  0  0
   -4.3502    3.2562   12.8698 O   0  0  0  0  0  0  0  0  0  0  0  0
   -5.2077    4.6591   16.7602 C   0  0  2  0  0  0  0  0  0  0  0  0
   -5.9166    5.3626   15.7002 O   0  0  0  0  0  0  0  0  0  0  0  0
   -4.0837   -5.5808   15.9514 C   0  0  2  0  0  0  0  0  0  0  0  0
   -3.6473   -5.7351   17.3580 O   0  0  0  0  0  0  0  0  0  0  0  0
   -2.9504    2.5867   10.9599 C   0  0  0  0  0  0  0  0  0  0  0  0
   -4.0053    1.9492   10.2819 O   0  0  0  0  0  0  0  0  0  0  0  0
   -5.3416    5.4313   18.0936 C   0  0  1  0  0  0  0  0  0  0  0  0
   -6.7076    5.4795   18.4483 O   0  0  0  0  0  0  0  0  0  0  0  0
   -4.1236   -6.9491   15.2879 C   0  0  0  0  0  0  0  0  0  0  0  0
   -4.6870   -6.8550   14.0019 O   0  0  0  0  0  0  0  0  0  0  0  0
   -2.3645   -0.9426   15.7430 C   0  0  0  0  0  0  0  0  0  0  0  0
  1  2  1  1  0  0  0
  1  7  1  0  0  0  0
  1 24  1  0  0  0  0
  3  4  1  1  0  0  0
  3  9  1  0  0  0  0
  3 31  1  0  0  0  0
  5  6  1  6  0  0  0
  5 10  1  0  0  0  0
  5 28  1  0  0  0  0
  7  8  1  1  0  0  0
  7 12  1  0  0  0  0
  9 14  1  0  0  0  0
 10 11  1  1  0  0  0
 10 16  1  0  0  0  0
 12 13  1  6  0  0  0
 12 18  1  0  0  0  0
 13 35  1  0  0  0  0
 14 15  1  6  0  0  0
 14 20  1  0  0  0  0
 16 17  1  6  0  0  0
 16 21  1  0  0  0  0
 17 35  1  0  0  0  0
 18 19  1  1  0  0  0
 18 23  1  0  0  0  0
 20  2  1  6  0  0  0
 20 25  1  0  0  0  0
 21 22  1  6  0  0  0
 21 27  1  0  0  0  0
 23 24  1  0  0  0  0
 23 29  1  6  0  0  0
 25 26  1  6  0  0  0
 25 31  1  0  0  0  0
 27 28  1  0  0  0  0
 27 33  1  6  0  0  0
 29 30  1  0  0  0  0
 31 32  1  1  0  0  0
 33 34  1  0  0  0  0
M  END
>  <CHROM.1>
-95.02226101,-138.31677779,-133.87791318,-70.29058099,-79.75247899,125.16538598
57.48915836,-64.69107257,-3.80894294,0.42252615,15.70832935,-2.26071375,-1.43469822
2.55135062

>  <Name>
2o3v_lig

>  <RI>
0

>  <Rbt.Current_Directory>
/home/afrankz/demos/rdock_decoys_rna/rnas/2o3v

>  <Rbt.Executable>
rbdock ($Id: //depot/dev/client3/rdock/2013.1/src/exe/rbdock.cxx#4 $)

>  <Rbt.Library>
libRbt.so (2013.1, Build901 2013/11/27)

>  <Rbt.Parameter_File>
/export/apps/rDock/src/rDock_2013.1_src/data/scripts/dock_solv.prm

>  <Rbt.Receptor>
prm/blind_docking_20.prm

>  <SCORE>
2.00647

>  <SCORE.INTER>
-13.3706

>  <SCORE.INTER.CONST>
1

>  <SCORE.INTER.POLAR>
-2.86573

>  <SCORE.INTER.ROT>
8

>  <SCORE.INTER.SOLV>
26.0839

>  <SCORE.INTER.VDW>
-16.9893

>  <SCORE.INTER.norm>
-0.382016

>  <SCORE.INTRA>
8.22085

>  <SCORE.INTRA.DIHEDRAL>
12.8245

>  <SCORE.INTRA.DIHEDRAL.0>
13.1227

>  <SCORE.INTRA.POLAR>
0

>  <SCORE.INTRA.POLAR.0>
0

>  <SCORE.INTRA.REPUL>
0

>  <SCORE.INTRA.REPUL.0>
0

>  <SCORE.INTRA.SOLV>
4.04641

>  <SCORE.INTRA.SOLV.lig_0>
-89.1587

>  <SCORE.INTRA.VDW>
-0.214595

>  <SCORE.INTRA.VDW.0>
-0.838383

>  <SCORE.INTRA.norm>
0.234882

>  <SCORE.RESTR>
7.15618

>  <SCORE.RESTR.CAVITY>
7.15618

>  <SCORE.RESTR.norm>
0.204462

>  <SCORE.SYSTEM>
0

>  <SCORE.SYSTEM.CONST>
0

>  <SCORE.SYSTEM.DIHEDRAL>
0

>  <SCORE.SYSTEM.SOLV>
0

>  <SCORE.SYSTEM.norm>
0

>  <SCORE.heavy>
35

>  <SCORE.norm>
0.0573276

>  <RMSD>
32.208

$$$$
2o3v_lig
 OpenBabel02141814113D
libRbt.so/2013.1/901 2013/11/27
 35 37  0  0  0  0  0  0  0  0999 V2000
   -4.7913    2.8849   14.6861 C   0  0  2  0  0  0  0  0  0  0  0  0
   -3.7702    3.8376   15.1132 O   0  0  0  0  0  0  0  0  0  0  0  0
   -3.5875    5.0083   19.2993 C   0  0  2  0  0  0  0  0  0  0  0  0
   -3.6512    5.8446   20.5357 N   0  0  0  0  0  0  0  0  0  0  0  0
   -4.0554   -5.1978   17.7021 C   0  0  2  0  0  0  0  0  0  0  0  0
   -5.4165   -4.7199   17.7689 O   0  0  0  0  0  0  0  0  0  0  0  0
   -4.2563    1.5235   15.2326 C   0  0  2  0  0  0  0  0  0  0  0  0
   -4.0881    1.5658   16.7044 N   0  0  0  0  0  0  0  0  0  0  0  0
   -2.4770    5.5743   18.3134 C   0  0  0  0  0  0  0  0  0  0  0  0
   -3.1595   -4.0025   17.2256 C   0  0  2  0  0  0  0  0  0  0  0  0
   -3.2891   -2.8413   18.1420 N   0  0  0  0  0  0  0  0  0  0  0  0
   -2.8796    1.1193   14.5465 C   0  0  1  0  0  0  0  0  0  0  0  0
   -2.3657   -0.1554   15.1117 O   0  0  0  0  0  0  0  0  0  0  0  0
   -2.4379    4.6749   17.0027 C   0  0  2  0  0  0  0  0  0  0  0  0
   -1.4176    5.1920   16.0656 N   0  0  0  0  0  0  0  0  0  0  0  0
   -3.5051   -3.5706   15.7327 C   0  0  1  0  0  0  0  0  0  0  0  0
   -2.6674   -2.4873   15.2538 O   0  0  0  0  0  0  0  0  0  0  0  0
   -3.1235    1.0838   12.9740 C   0  0  2  0  0  0  0  0  0  0  0  0
   -1.9379    0.7545   12.2726 O   0  0  0  0  0  0  0  0  0  0  0  0
   -3.8604    4.6740   16.3059 C   0  0  2  0  0  0  0  0  0  0  0  0
   -3.3418   -4.8170   14.8061 C   0  0  2  0  0  0  0  0  0  0  0  0
   -3.6473   -4.4944   13.4637 O   0  0  0  0  0  0  0  0  0  0  0  0
   -3.6765    2.4703   12.4683 C   0  0  2  0  0  0  0  0  0  0  0  0
   -4.9114    2.8144   13.2038 O   0  0  0  0  0  0  0  0  0  0  0  0
   -4.9412    4.1249   17.2789 C   0  0  2  0  0  0  0  0  0  0  0  0
   -6.2218    4.1910   16.5883 O   0  0  0  0  0  0  0  0  0  0  0  0
   -4.2567   -5.9978   15.3236 C   0  0  2  0  0  0  0  0  0  0  0  0
   -3.9325   -6.3195   16.7322 O   0  0  0  0  0  0  0  0  0  0  0  0
   -3.9547    2.4513   10.9659 C   0  0  0  0  0  0  0  0  0  0  0  0
   -5.1678    3.0977   10.6669 O   0  0  0  0  0  0  0  0  0  0  0  0
   -4.9803    4.9949   18.5570 C   0  0  1  0  0  0  0  0  0  0  0  0
   -5.9643    4.4726   19.4248 O   0  0  0  0  0  0  0  0  0  0  0  0
   -4.0979   -7.2508   14.4758 C   0  0  0  0  0  0  0  0  0  0  0  0
   -2.7655   -7.7018   14.5110 O   0  0  0  0  0  0  0  0  0  0  0  0
   -3.4128   -1.2345   15.2583 C   0  0  0  0  0  0  0  0  0  0  0  0
  1  2  1  6  0  0  0
  1  7  1  0  0  0  0
  1 24  1  0  0  0  0
  3  4  1  1  0  0  0
  3  9  1  0  0  0  0
  3 31  1  0  0  0  0
  5  6  1  6  0  0  0
  5 10  1  0  0  0  0
  5 28  1  0  0  0  0
  7  8  1  1  0  0  0
  7 12  1  0  0  0  0
  9 14  1  0  0  0  0
 10 11  1  1  0  0  0
 10 16  1  0  0  0  0
 12 13  1  1  0  0  0
 12 18  1  0  0  0  0
 13 35  1  0  0  0  0
 14 15  1  6  0  0  0
 14 20  1  0  0  0  0
 16 17  1  6  0  0  0
 16 21  1  0  0  0  0
 17 35  1  0  0  0  0
 18 19  1  6  0  0  0
 18 23  1  0  0  0  0
 20  2  1  6  0  0  0
 20 25  1  0  0  0  0
 21 22  1  6  0  0  0
 21 27  1  0  0  0  0
 23 24  1  0  0  0  0
 23 29  1  6  0  0  0
 25 26  1  6  0  0  0
 25 31  1  0  0  0  0
 27 28  1  0  0  0  0
 27 33  1  6  0  0  0
 29 30  1  0  0  0  0
 31 32  1  1  0  0  0
 33 34  1  0  0  0  0
M  END
>  <CHROM.1>
-97.57288910,44.83679179,156.28053778,-103.87790717,165.14882773,138.19382693
137.78551463,60.33823922,-3.78510830,0.27977866,15.66555145,-2.02746281,-1.49259393
2.80675002

>  <Name>
2o3v_lig

>  <RI>
0

>  <Rbt.Current_Directory>
/home/afrankz/demos/rdock_decoys_rna/rnas/2o3v

>  <Rbt.Executable>
rbdock ($Id: //depot/dev/client3/rdock/2013.1/src/exe/rbdock.cxx#4 $)

>  <Rbt.Library>
libRbt.so (2013.1, Build901 2013/11/27)

>  <Rbt.Parameter_File>
/export/apps/rDock/src/rDock_2013.1_src/data/scripts/dock_solv.prm

>  <Rbt.Receptor>
prm/blind_docking_100.prm

>  <SCORE>
1.63918

>  <SCORE.INTER>
-9.31976

>  <SCORE.INTER.CONST>
1

>  <SCORE.INTER.POLAR>
-1.07631

>  <SCORE.INTER.ROT>
8

>  <SCORE.INTER.SOLV>
26.9874

>  <SCORE.INTER.VDW>
-20.5546

>  <SCORE.INTER.norm>
-0.266279

>  <SCORE.INTRA>
8.04975

>  <SCORE.INTRA.DIHEDRAL>
12.3019

>  <SCORE.INTRA.DIHEDRAL.0>
13.1227

>  <SCORE.INTRA.POLAR>
0

>  <SCORE.INTRA.POLAR.0>
0

>  <SCORE.INTRA.REPUL>
0

>  <SCORE.INTRA.REPUL.0>
0

>  <SCORE.INTRA.SOLV>
2.73527

>  <SCORE.INTRA.SOLV.lig_0>
-89.1587

>  <SCORE.INTRA.VDW>
0.531148

>  <SCORE.INTRA.VDW.0>
-0.838383

>  <SCORE.INTRA.norm>
0.229993

>  <SCORE.RESTR>
2.90919

>  <SCORE.RESTR.CAVITY>
2.90919

>  <SCORE.RESTR.norm>
0.0831196

>  <SCORE.SYSTEM>
0

>  <SCORE.SYSTEM.CONST>
0

>  <SCORE.SYSTEM.DIHEDRAL>
0

>  <SCORE.SYSTEM.SOLV>
0

>  <SCORE.SYSTEM.norm>
0

>  <SCORE.heavy>
35

>  <SCORE.norm>
0.0468338

>  <RMSD>
32.217

$$$$
2o3v_lig
 OpenBabel02141814113D
libRbt.so/2013.1/901 2013/11/27
 35 37  0  0  0  0  0  0  0  0999 V2000
   -2.2811   -0.9326   15.5397 C   0  0  2  0  0  0  0  0  0  0  0  0
   -3.6498   -1.2839   15.9086 O   0  0  0  0  0  0  0  0  0  0  0  0
   -3.5286   -5.5511   16.7475 C   0  0  2  0  0  0  0  0  0  0  0  0
   -3.9243   -6.9054   17.2390 N   0  0  0  0  0  0  0  0  0  0  0  0
   -2.3026    4.9344   18.6176 C   0  0  2  0  0  0  0  0  0  0  0  0
   -1.3880    3.8367   18.4070 O   0  0  0  0  0  0  0  0  0  0  0  0
   -2.1962    0.5850   15.8978 C   0  0  2  0  0  0  0  0  0  0  0  0
   -2.4821    0.8135   17.3338 N   0  0  0  0  0  0  0  0  0  0  0  0
   -3.3983   -4.5430   17.9690 C   0  0  0  0  0  0  0  0  0  0  0  0
   -3.3863    4.8680   17.4864 C   0  0  2  0  0  0  0  0  0  0  0  0
   -4.0878    3.5593   17.4970 N   0  0  0  0  0  0  0  0  0  0  0  0
   -3.1899    1.4513   15.0082 C   0  0  1  0  0  0  0  0  0  0  0  0
   -3.1261    2.8848   15.3946 O   0  0  0  0  0  0  0  0  0  0  0  0
   -2.9884   -3.1087   17.4182 C   0  0  2  0  0  0  0  0  0  0  0  0
   -2.8729   -2.1513   18.5392 N   0  0  0  0  0  0  0  0  0  0  0  0
   -2.7531    5.1449   16.0521 C   0  0  1  0  0  0  0  0  0  0  0  0
   -3.7402    5.1226   14.9892 O   0  0  0  0  0  0  0  0  0  0  0  0
   -2.8315    1.1705   13.4829 C   0  0  2  0  0  0  0  0  0  0  0  0
   -3.6868    1.8854   12.6092 O   0  0  0  0  0  0  0  0  0  0  0  0
   -4.0720   -2.5986   16.3815 C   0  0  2  0  0  0  0  0  0  0  0  0
   -2.0404    6.5340   16.0850 C   0  0  2  0  0  0  0  0  0  0  0  0
   -1.4478    6.8297   14.8357 O   0  0  0  0  0  0  0  0  0  0  0  0
   -2.9148   -0.3718   13.1697 C   0  0  2  0  0  0  0  0  0  0  0  0
   -2.0247   -1.1167   14.0847 O   0  0  0  0  0  0  0  0  0  0  0  0
   -4.1974   -3.5933   15.1936 C   0  0  2  0  0  0  0  0  0  0  0  0
   -5.2338   -3.0829   14.3067 O   0  0  0  0  0  0  0  0  0  0  0  0
   -0.9612    6.5595   17.2401 C   0  0  2  0  0  0  0  0  0  0  0  0
   -1.5931    6.2401   18.5406 O   0  0  0  0  0  0  0  0  0  0  0  0
   -2.5387   -0.6728   11.7196 C   0  0  0  0  0  0  0  0  0  0  0  0
   -1.6652    0.3046   11.2091 O   0  0  0  0  0  0  0  0  0  0  0  0
   -4.5926   -4.9909   15.7252 C   0  0  1  0  0  0  0  0  0  0  0  0
   -4.6943   -5.8751   14.6289 O   0  0  0  0  0  0  0  0  0  0  0  0
   -0.2696    7.9108   17.3394 C   0  0  0  0  0  0  0  0  0  0  0  0
    0.9467    7.7898   18.0365 O   0  0  0  0  0  0  0  0  0  0  0  0
   -4.1656    3.7533   14.7256 C   0  0  0  0  0  0  0  0  0  0  0  0
  1  2  1  6  0  0  0
  1  7  1  0  0  0  0
  1 24  1  0  0  0  0
  3  4  1  1  0  0  0
  3  9  1  0  0  0  0
  3 31  1  0  0  0  0
  5  6  1  6  0  0  0
  5 10  1  0  0  0  0
  5 28  1  0  0  0  0
  7  8  1  1  0  0  0
  7 12  1  0  0  0  0
  9 14  1  0  0  0  0
 10 11  1  6  0  0  0
 10 16  1  0  0  0  0
 12 13  1  1  0  0  0
 12 18  1  0  0  0  0
 13 35  1  0  0  0  0
 14 15  1  1  0  0  0
 14 20  1  0  0  0  0
 16 17  1  6  0  0  0
 16 21  1  0  0  0  0
 17 35  1  0  0  0  0
 18 19  1  6  0  0  0
 18 23  1  0  0  0  0
 20  2  1  6  0  0  0
 20 25  1  0  0  0  0
 21 22  1  6  0  0  0
 21 27  1  0  0  0  0
 23 24  1  0  0  0  0
 23 29  1  6  0  0  0
 25 26  1  6  0  0  0
 25 31  1  0  0  0  0
 27 28  1  0  0  0  0
 27 33  1  1  0  0  0
 29 30  1  0  0  0  0
 31 32  1  6  0  0  0
 33 34  1  0  0  0  0
M  END
>  <CHROM.1>
-149.20008414,-172.46738865,-167.28039335,-73.20240951,-15.53230719,43.10282823
26.89699534,-160.65859971,-2.82224477,1.06704485,15.83353606,-2.80637076
-1.34630135,-1.11398671

>  <Name>
2o3v_lig

>  <RI>
0

>  <Rbt.Current_Directory>
/home/afrankz/demos/rdock_decoys_rna/rnas/2o3v

>  <Rbt.Executable>
rbdock ($Id: //depot/dev/client3/rdock/2013.1/src/exe/rbdock.cxx#4 $)

>  <Rbt.Library>
libRbt.so (2013.1, Build901 2013/11/27)

>  <Rbt.Parameter_File>
/export/apps/rDock/src/rDock_2013.1_src/data/scripts/dock_solv.prm

>  <Rbt.Receptor>
prm/blind_docking_20.prm

>  <SCORE>
10.1098

>  <SCORE.INTER>
-6.86408

>  <SCORE.INTER.CONST>
1

>  <SCORE.INTER.POLAR>
-1.06731

>  <SCORE.INTER.ROT>
8

>  <SCORE.INTER.SOLV>
22.8826

>  <SCORE.INTER.VDW>
-17.5792

>  <SCORE.INTER.norm>
-0.196117

>  <SCORE.INTRA>
10.0297

>  <SCORE.INTRA.DIHEDRAL>
4.21739

>  <SCORE.INTRA.DIHEDRAL.0>
13.1227

>  <SCORE.INTRA.POLAR>
0

>  <SCORE.INTRA.POLAR.0>
0

>  <SCORE.INTRA.REPUL>
0

>  <SCORE.INTRA.REPUL.0>
0

>  <SCORE.INTRA.SOLV>
7.09406

>  <SCORE.INTRA.SOLV.lig_0>
-89.1587

>  <SCORE.INTRA.VDW>
4.37394

>  <SCORE.INTRA.VDW.0>
-0.838383

>  <SCORE.INTRA.norm>
0.286562

>  <SCORE.RESTR>
6.94417

>  <SCORE.RESTR.CAVITY>
6.94417

>  <SCORE.RESTR.norm>
0.198405

>  <SCORE.SYSTEM>
0

>  <SCORE.SYSTEM.CONST>
0

>  <SCORE.SYSTEM.DIHEDRAL>
0

>  <SCORE.SYSTEM.SOLV>
0

>  <SCORE.SYSTEM.norm>
0

>  <SCORE.heavy>
35

>  <SCORE.norm>
0.28885

>  <RMSD>
32.234

$$$$
2o3v_lig
 OpenBabel02141814113D
libRbt.so/2013.1/901 2013/11/27
 35 37  0  0  0  0  0  0  0  0999 V2000
   -4.0788    2.8699   15.3475 C   0  0  2  0  0  0  0  0  0  0  0  0
   -4.0874    1.9727   14.1952 O   0  0  0  0  0  0  0  0  0  0  0  0
   -2.1951    1.4988   10.3065 C   0  0  2  0  0  0  0  0  0  0  0  0
   -1.1474    1.4500    9.2425 N   0  0  0  0  0  0  0  0  0  0  0  0
   -2.9722   -5.9440   16.1405 C   0  0  2  0  0  0  0  0  0  0  0  0
   -3.0221   -5.5204   14.7608 O   0  0  0  0  0  0  0  0  0  0  0  0
   -3.4265    2.0004   16.4686 C   0  0  2  0  0  0  0  0  0  0  0  0
   -2.0690    1.5524   16.0777 N   0  0  0  0  0  0  0  0  0  0  0  0
   -2.2746    2.9590   10.9286 C   0  0  0  0  0  0  0  0  0  0  0  0
   -3.5811   -4.7899   17.0097 C   0  0  2  0  0  0  0  0  0  0  0  0
   -4.9679   -4.4757   16.5819 N   0  0  0  0  0  0  0  0  0  0  0  0
   -4.3259    0.7384   16.8265 C   0  0  1  0  0  0  0  0  0  0  0  0
   -3.6671   -0.0989   17.8625 O   0  0  0  0  0  0  0  0  0  0  0  0
   -3.3871    2.9807   12.0644 C   0  0  2  0  0  0  0  0  0  0  0  0
   -3.4694    4.3293   12.6652 N   0  0  0  0  0  0  0  0  0  0  0  0
   -2.6768   -3.4805   16.9607 C   0  0  1  0  0  0  0  0  0  0  0  0
   -3.1997   -2.4063   17.7838 O   0  0  0  0  0  0  0  0  0  0  0  0
   -5.7632    1.2806   17.2432 C   0  0  2  0  0  0  0  0  0  0  0  0
   -6.6466    0.2193   17.5579 O   0  0  0  0  0  0  0  0  0  0  0  0
   -3.0396    1.9121   13.1810 C   0  0  2  0  0  0  0  0  0  0  0  0
   -1.2357   -3.8558   17.4310 C   0  0  2  0  0  0  0  0  0  0  0  0
   -0.3819   -2.7292   17.3978 O   0  0  0  0  0  0  0  0  0  0  0  0
   -6.3770    2.1638   16.0913 C   0  0  2  0  0  0  0  0  0  0  0  0
   -5.4523    3.2686   15.7615 O   0  0  0  0  0  0  0  0  0  0  0  0
   -2.9578    0.4881   12.5630 C   0  0  2  0  0  0  0  0  0  0  0  0
   -2.5973   -0.4305   13.6341 O   0  0  0  0  0  0  0  0  0  0  0  0
   -0.6620   -5.0236   16.5330 C   0  0  2  0  0  0  0  0  0  0  0  0
   -1.5694   -6.1933   16.5699 O   0  0  0  0  0  0  0  0  0  0  0  0
   -7.7424    2.7280   16.4813 C   0  0  0  0  0  0  0  0  0  0  0  0
   -7.6316    3.6220   17.5617 O   0  0  0  0  0  0  0  0  0  0  0  0
   -1.8790    0.4634   11.4550 C   0  0  1  0  0  0  0  0  0  0  0  0
   -1.8288   -0.8372   10.9072 O   0  0  0  0  0  0  0  0  0  0  0  0
    0.7261   -5.4541   16.9823 C   0  0  0  0  0  0  0  0  0  0  0  0
    1.1978   -6.5078   16.1779 O   0  0  0  0  0  0  0  0  0  0  0  0
   -2.7010   -1.1208   17.3106 C   0  0  0  0  0  0  0  0  0  0  0  0
  1  2  1  6  0  0  0
  1  7  1  0  0  0  0
  1 24  1  0  0  0  0
  3  4  1  6  0  0  0
  3  9  1  0  0  0  0
  3 31  1  0  0  0  0
  5  6  1  6  0  0  0
  5 10  1  0  0  0  0
  5 28  1  0  0  0  0
  7  8  1  6  0  0  0
  7 12  1  0  0  0  0
  9 14  1  0  0  0  0
 10 11  1  6  0  0  0
 10 16  1  0  0  0  0
 12 13  1  1  0  0  0
 12 18  1  0  0  0  0
 13 35  1  0  0  0  0
 14 15  1  1  0  0  0
 14 20  1  0  0  0  0
 16 17  1  1  0  0  0
 16 21  1  0  0  0  0
 17 35  1  0  0  0  0
 18 19  1  6  0  0  0
 18 23  1  0  0  0  0
 20  2  1  1  0  0  0
 20 25  1  0  0  0  0
 21 22  1  6  0  0  0
 21 27  1  0  0  0  0
 23 24  1  0  0  0  0
 23 29  1  1  0  0  0
 25 26  1  1  0  0  0
 25 31  1  0  0  0  0
 27 28  1  0  0  0  0
 27 33  1  1  0  0  0
 29 30  1  0  0  0  0
 31 32  1  6  0  0  0
 33 34  1  0  0  0  0
M  END
>  <CHROM.1>
-93.33995812,-86.51464584,-121.87963567,-156.88756066,159.51970962,-87.78440517
64.84036974,179.03013314,-3.17527647,-0.62052044,15.23749215,2.11308910,0.84954260
-0.75109109

>  <Name>
2o3v_lig

>  <RI>
0

>  <Rbt.Current_Directory>
/home/afrankz/demos/rdock_decoys_rna/rnas/2o3v

>  <Rbt.Executable>
rbdock ($Id: //depot/dev/client3/rdock/2013.1/src/exe/rbdock.cxx#4 $)

>  <Rbt.Library>
libRbt.so (2013.1, Build901 2013/11/27)

>  <Rbt.Parameter_File>
/export/apps/rDock/src/rDock_2013.1_src/data/scripts/dock_solv.prm

>  <Rbt.Receptor>
prm/blind_docking_20.prm

>  <SCORE>
-5.21381

>  <SCORE.INTER>
-11.9052

>  <SCORE.INTER.CONST>
1

>  <SCORE.INTER.POLAR>
-1.12032

>  <SCORE.INTER.ROT>
8

>  <SCORE.INTER.SOLV>
29.8133

>  <SCORE.INTER.VDW>
-23.0735

>  <SCORE.INTER.norm>
-0.340148

>  <SCORE.INTRA>
3.54187

>  <SCORE.INTRA.DIHEDRAL>
8.73866

>  <SCORE.INTRA.DIHEDRAL.0>
13.1227

>  <SCORE.INTRA.POLAR>
0

>  <SCORE.INTRA.POLAR.0>
0

>  <SCORE.INTRA.REPUL>
0

>  <SCORE.INTRA.REPUL.0>
0

>  <SCORE.INTRA.SOLV>
1.85651

>  <SCORE.INTRA.SOLV.lig_0>
-89.1587

>  <SCORE.INTRA.VDW>
-1.75571

>  <SCORE.INTRA.VDW.0>
-0.838383

>  <SCORE.INTRA.norm>
0.101196

>  <SCORE.RESTR>
3.14949

>  <SCORE.RESTR.CAVITY>
3.14949

>  <SCORE.RESTR.norm>
0.0899854

>  <SCORE.SYSTEM>
0

>  <SCORE.SYSTEM.CONST>
0

>  <SCORE.SYSTEM.DIHEDRAL>
0

>  <SCORE.SYSTEM.SOLV>
0

>  <SCORE.SYSTEM.norm>
0

>  <SCORE.heavy>
35

>  <SCORE.norm>
-0.148966

>  <RMSD>
32.244

$$$$
2o3v_lig
 OpenBabel02141814113D
libRbt.so/2013.1/901 2013/11/27
 35 37  0  0  0  0  0  0  0  0999 V2000
   -3.0169    2.2852   15.5779 C   0  0  2  0  0  0  0  0  0  0  0  0
   -3.5183    1.8354   14.2821 O   0  0  0  0  0  0  0  0  0  0  0  0
   -2.5250    1.2535   10.0866 C   0  0  2  0  0  0  0  0  0  0  0  0
   -1.7423    1.1998    8.8151 N   0  0  0  0  0  0  0  0  0  0  0  0
   -4.4782   -5.9971   14.5075 C   0  0  2  0  0  0  0  0  0  0  0  0
   -3.1671   -5.8205   13.9282 O   0  0  0  0  0  0  0  0  0  0  0  0
   -2.9537    0.9657   16.4106 C   0  0  2  0  0  0  0  0  0  0  0  0
   -2.0686   -0.0330   15.7659 N   0  0  0  0  0  0  0  0  0  0  0  0
   -2.5459    2.7381   10.6531 C   0  0  0  0  0  0  0  0  0  0  0  0
   -4.8269   -4.6852   15.2921 C   0  0  2  0  0  0  0  0  0  0  0  0
   -4.7769   -3.5006   14.3982 N   0  0  0  0  0  0  0  0  0  0  0  0
   -4.4004    0.3412   16.6258 C   0  0  1  0  0  0  0  0  0  0  0  0
   -4.3140   -0.9355   17.3815 O   0  0  0  0  0  0  0  0  0  0  0  0
   -3.3739    2.7654   12.0103 C   0  0  2  0  0  0  0  0  0  0  0  0
   -3.3960    4.1375   12.5611 N   0  0  0  0  0  0  0  0  0  0  0  0
   -3.8627   -4.4766   16.5417 C   0  0  1  0  0  0  0  0  0  0  0  0
   -4.1845   -3.2863   17.3062 O   0  0  0  0  0  0  0  0  0  0  0  0
   -5.3000    1.4529   17.3246 C   0  0  2  0  0  0  0  0  0  0  0  0
   -6.6227    0.9926   17.5354 O   0  0  0  0  0  0  0  0  0  0  0  0
   -2.7237    1.7725   13.0595 C   0  0  2  0  0  0  0  0  0  0  0  0
   -3.9592   -5.7376   17.4578 C   0  0  2  0  0  0  0  0  0  0  0  0
   -3.1123   -5.6128   18.5833 O   0  0  0  0  0  0  0  0  0  0  0  0
   -5.3235    2.7701   16.4596 C   0  0  2  0  0  0  0  0  0  0  0  0
   -3.9424    3.2471   16.2372 O   0  0  0  0  0  0  0  0  0  0  0  0
   -2.7016    0.3243   12.4950 C   0  0  2  0  0  0  0  0  0  0  0  0
   -2.0576   -0.5208   13.4911 O   0  0  0  0  0  0  0  0  0  0  0  0
   -3.6051   -7.0358   16.6280 C   0  0  2  0  0  0  0  0  0  0  0  0
   -4.4931   -7.1497   15.4485 O   0  0  0  0  0  0  0  0  0  0  0  0
   -6.1510    3.8675   17.1273 C   0  0  0  0  0  0  0  0  0  0  0  0
   -6.0440    5.0814   16.4247 O   0  0  0  0  0  0  0  0  0  0  0  0
   -1.9000    0.2938   11.1726 C   0  0  1  0  0  0  0  0  0  0  0  0
   -1.9000   -1.0292   10.6789 O   0  0  0  0  0  0  0  0  0  0  0  0
   -3.7282   -8.2971   17.4694 C   0  0  0  0  0  0  0  0  0  0  0  0
   -2.7760   -8.2912   18.5054 O   0  0  0  0  0  0  0  0  0  0  0  0
   -3.7659   -2.0933   16.5805 C   0  0  0  0  0  0  0  0  0  0  0  0
  1  2  1  6  0  0  0
  1  7  1  0  0  0  0
  1 24  1  0  0  0  0
  3  4  1  6  0  0  0
  3  9  1  0  0  0  0
  3 31  1  0  0  0  0
  5  6  1  1  0  0  0
  5 10  1  0  0  0  0
  5 28  1  0  0  0  0
  7  8  1  6  0  0  0
  7 12  1  0  0  0  0
  9 14  1  0  0  0  0
 10 11  1  6  0  0  0
 10 16  1  0  0  0  0
 12 13  1  1  0  0  0
 12 18  1  0  0  0  0
 13 35  1  0  0  0  0
 14 15  1  1  0  0  0
 14 20  1  0  0  0  0
 16 17  1  1  0  0  0
 16 21  1  0  0  0  0
 17 35  1  0  0  0  0
 18 19  1  6  0  0  0
 18 23  1  0  0  0  0
 20  2  1  1  0  0  0
 20 25  1  0  0  0  0
 21 22  1  1  0  0  0
 21 27  1  0  0  0  0
 23 24  1  0  0  0  0
 23 29  1  1  0  0  0
 25 26  1  1  0  0  0
 25 31  1  0  0  0  0
 27 28  1  0  0  0  0
 27 33  1  1  0  0  0
 29 30  1  0  0  0  0
 31 32  1  6  0  0  0
 33 34  1  0  0  0  0
M  END
>  <CHROM.1>
-108.87936356,-73.27403993,-161.06210060,-73.67816103,172.72047555,-117.55754794
173.42974988,-64.94920368,-3.70124831,-1.10151435,15.04084632,1.53163596
1.17284313,-0.30827471

>  <Name>
2o3v_lig

>  <RI>
0

>  <Rbt.Current_Directory>
/home/afrankz/demos/rdock_decoys_rna/rnas/2o3v

>  <Rbt.Executable>
rbdock ($Id: //depot/dev/client3/rdock/2013.1/src/exe/rbdock.cxx#4 $)

>  <Rbt.Library>
libRbt.so (2013.1, Build901 2013/11/27)

>  <Rbt.Parameter_File>
/export/apps/rDock/src/rDock_2013.1_src/data/scripts/dock_solv.prm

>  <Rbt.Receptor>
prm/blind_docking_20.prm

>  <SCORE>
0.876446

>  <SCORE.INTER>
-8.98457

>  <SCORE.INTER.CONST>
1

>  <SCORE.INTER.POLAR>
-0.680668

>  <SCORE.INTER.ROT>
8

>  <SCORE.INTER.SOLV>
24.3408

>  <SCORE.INTER.VDW>
-20.7678

>  <SCORE.INTER.norm>
-0.256702

>  <SCORE.INTRA>
5.05143

>  <SCORE.INTRA.DIHEDRAL>
4.51236

>  <SCORE.INTRA.DIHEDRAL.0>
13.1227

>  <SCORE.INTRA.POLAR>
0

>  <SCORE.INTRA.POLAR.0>
0

>  <SCORE.INTRA.REPUL>
0.0158256

>  <SCORE.INTRA.REPUL.0>
0

>  <SCORE.INTRA.SOLV>
3.43073

>  <SCORE.INTRA.SOLV.lig_0>
-89.1587

>  <SCORE.INTRA.VDW>
1.00075

>  <SCORE.INTRA.VDW.0>
-0.838383

>  <SCORE.INTRA.norm>
0.144326

>  <SCORE.RESTR>
4.80959

>  <SCORE.RESTR.CAVITY>
4.80959

>  <SCORE.RESTR.norm>
0.137417

>  <SCORE.SYSTEM>
0

>  <SCORE.SYSTEM.CONST>
0

>  <SCORE.SYSTEM.DIHEDRAL>
0

>  <SCORE.SYSTEM.SOLV>
0

>  <SCORE.SYSTEM.norm>
0

>  <SCORE.heavy>
35

>  <SCORE.norm>
0.0250413

>  <RMSD>
32.265

$$$$
2o3v_lig
 OpenBabel02141814113D
libRbt.so/2013.1/901 2013/11/27
 35 37  0  0  0  0  0  0  0  0999 V2000
   -4.0185    2.6368   15.5248 C   0  0  2  0  0  0  0  0  0  0  0  0
   -3.5857    1.5912   16.4479 O   0  0  0  0  0  0  0  0  0  0  0  0
   -3.7606   -2.6647   17.3333 C   0  0  2  0  0  0  0  0  0  0  0  0
   -4.0388   -4.1259   17.1931 N   0  0  0  0  0  0  0  0  0  0  0  0
    0.3828    7.2074   15.1504 C   0  0  2  0  0  0  0  0  0  0  0  0
    0.1572    8.6231   14.9759 O   0  0  0  0  0  0  0  0  0  0  0  0
   -3.4122    3.9335   16.1488 C   0  0  2  0  0  0  0  0  0  0  0  0
   -1.9374    3.8365   16.2583 N   0  0  0  0  0  0  0  0  0  0  0  0
   -5.1221   -1.8454   17.3193 C   0  0  0  0  0  0  0  0  0  0  0  0
   -0.7107    6.6746   16.1397 C   0  0  2  0  0  0  0  0  0  0  0  0
   -2.0755    6.9537   15.6255 N   0  0  0  0  0  0  0  0  0  0  0  0
   -4.0374    4.2410   17.5785 C   0  0  1  0  0  0  0  0  0  0  0  0
   -3.4159    5.4525   18.1737 O   0  0  0  0  0  0  0  0  0  0  0  0
   -4.7976   -0.2949   17.4580 C   0  0  2  0  0  0  0  0  0  0  0  0
   -6.0521    0.4876   17.4355 N   0  0  0  0  0  0  0  0  0  0  0  0
   -0.5318    7.2904   17.5969 C   0  0  1  0  0  0  0  0  0  0  0  0
   -1.5112    6.7886   18.5423 O   0  0  0  0  0  0  0  0  0  0  0  0
   -5.6157    4.3401   17.3968 C   0  0  2  0  0  0  0  0  0  0  0  0
   -6.2650    4.5894   18.6305 O   0  0  0  0  0  0  0  0  0  0  0  0
   -3.8516    0.1667   16.2742 C   0  0  2  0  0  0  0  0  0  0  0  0
    0.9091    6.9607   18.1005 C   0  0  2  0  0  0  0  0  0  0  0  0
    1.1298    7.4942   19.3913 O   0  0  0  0  0  0  0  0  0  0  0  0
   -6.1826    3.0189   16.7513 C   0  0  2  0  0  0  0  0  0  0  0  0
   -5.5012    2.7581   15.4659 O   0  0  0  0  0  0  0  0  0  0  0  0
   -2.5253   -0.6438   16.2916 C   0  0  2  0  0  0  0  0  0  0  0  0
   -1.7275   -0.1963   15.1583 O   0  0  0  0  0  0  0  0  0  0  0  0
    1.9785    7.5101   17.0739 C   0  0  2  0  0  0  0  0  0  0  0  0
    1.7310    6.9505   15.7255 O   0  0  0  0  0  0  0  0  0  0  0  0
   -7.6923    3.1025   16.5315 C   0  0  0  0  0  0  0  0  0  0  0  0
   -8.1891    1.9133   15.9677 O   0  0  0  0  0  0  0  0  0  0  0  0
   -2.8366   -2.1532   16.1605 C   0  0  1  0  0  0  0  0  0  0  0  0
   -1.6177   -2.8659   16.1845 O   0  0  0  0  0  0  0  0  0  0  0  0
    3.3991    7.1735   17.5012 C   0  0  0  0  0  0  0  0  0  0  0  0
    4.2974    7.4014   16.4424 O   0  0  0  0  0  0  0  0  0  0  0  0
   -1.9054    5.4310   18.1861 C   0  0  0  0  0  0  0  0  0  0  0  0
  1  2  1  1  0  0  0
  1  7  1  0  0  0  0
  1 24  1  0  0  0  0
  3  4  1  6  0  0  0
  3  9  1  0  0  0  0
  3 31  1  0  0  0  0
  5  6  1  1  0  0  0
  5 10  1  0  0  0  0
  5 28  1  0  0  0  0
  7  8  1  1  0  0  0
  7 12  1  0  0  0  0
  9 14  1  0  0  0  0
 10 11  1  6  0  0  0
 10 16  1  0  0  0  0
 12 13  1  6  0  0  0
 12 18  1  0  0  0  0
 13 35  1  0  0  0  0
 14 15  1  6  0  0  0
 14 20  1  0  0  0  0
 16 17  1  1  0  0  0
 16 21  1  0  0  0  0
 17 35  1  0  0  0  0
 18 19  1  1  0  0  0
 18 23  1  0  0  0  0
 20  2  1  1  0  0  0
 20 25  1  0  0  0  0
 21 22  1  1  0  0  0
 21 27  1  0  0  0  0
 23 24  1  0  0  0  0
 23 29  1  6  0  0  0
 25 26  1  6  0  0  0
 25 31  1  0  0  0  0
 27 28  1  0  0  0  0
 27 33  1  1  0  0  0
 29 30  1  0  0  0  0
 31 32  1  1  0  0  0
 33 34  1  0  0  0  0
M  END
>  <CHROM.1>
-177.23884403,-51.32766793,168.71090048,30.21754738,-129.38837173,-114.98161662
-179.40771211,166.81133905,-2.51528887,3.46488089,16.80394457,2.20692803
-0.05967540,-3.06515810

>  <Name>
2o3v_lig

>  <RI>
0

>  <Rbt.Current_Directory>
/home/afrankz/demos/rdock_decoys_rna/rnas/2o3v

>  <Rbt.Executable>
rbdock ($Id: //depot/dev/client3/rdock/2013.1/src/exe/rbdock.cxx#4 $)

>  <Rbt.Library>
libRbt.so (2013.1, Build901 2013/11/27)

>  <Rbt.Parameter_File>
/export/apps/rDock/src/rDock_2013.1_src/data/scripts/dock_solv.prm

>  <Rbt.Receptor>
prm/blind_docking_20.prm

>  <SCORE>
-4.97808

>  <SCORE.INTER>
-21.7112

>  <SCORE.INTER.CONST>
1

>  <SCORE.INTER.POLAR>
-3.77031

>  <SCORE.INTER.ROT>
8

>  <SCORE.INTER.SOLV>
27.1139

>  <SCORE.INTER.VDW>
-19.8777

>  <SCORE.INTER.norm>
-0.62032

>  <SCORE.INTRA>
13.0825

>  <SCORE.INTRA.DIHEDRAL>
5.93621

>  <SCORE.INTRA.DIHEDRAL.0>
13.1227

>  <SCORE.INTRA.POLAR>
0

>  <SCORE.INTRA.POLAR.0>
0

>  <SCORE.INTRA.REPUL>
0

>  <SCORE.INTRA.REPUL.0>
0

>  <SCORE.INTRA.SOLV>
9.16081

>  <SCORE.INTRA.SOLV.lig_0>
-89.1587

>  <SCORE.INTRA.VDW>
5.53395

>  <SCORE.INTRA.VDW.0>
-0.838383

>  <SCORE.INTRA.norm>
0.373784

>  <SCORE.RESTR>
3.65067

>  <SCORE.RESTR.CAVITY>
3.65067

>  <SCORE.RESTR.norm>
0.104305

>  <SCORE.SYSTEM>
0

>  <SCORE.SYSTEM.CONST>
0

>  <SCORE.SYSTEM.DIHEDRAL>
0

>  <SCORE.SYSTEM.SOLV>
0

>  <SCORE.SYSTEM.norm>
0

>  <SCORE.heavy>
35

>  <SCORE.norm>
-0.142231

>  <RMSD>
32.289

$$$$
2o3v_lig
 OpenBabel02141814113D
libRbt.so/2013.1/901 2013/11/27
 35 37  0  0  0  0  0  0  0  0999 V2000
   -2.8310    1.9740   14.7831 C   0  0  2  0  0  0  0  0  0  0  0  0
   -3.6566    1.2571   13.8150 O   0  0  0  0  0  0  0  0  0  0  0  0
   -1.4833    1.2218   10.0463 C   0  0  2  0  0  0  0  0  0  0  0  0
   -1.1993    1.1681    8.5805 N   0  0  0  0  0  0  0  0  0  0  0  0
   -0.7713   -5.3242   16.4150 C   0  0  2  0  0  0  0  0  0  0  0  0
   -0.2745   -6.0105   17.5845 O   0  0  0  0  0  0  0  0  0  0  0  0
   -2.5959    0.9120   15.9035 C   0  0  2  0  0  0  0  0  0  0  0  0
   -1.9312   -0.2978   15.3641 N   0  0  0  0  0  0  0  0  0  0  0  0
   -2.1931   -0.1206   10.5150 C   0  0  0  0  0  0  0  0  0  0  0  0
   -1.2565   -3.9051   16.8724 C   0  0  2  0  0  0  0  0  0  0  0  0
   -0.1566   -3.1510   17.5254 N   0  0  0  0  0  0  0  0  0  0  0  0
   -3.9579    0.5035   16.6159 C   0  0  1  0  0  0  0  0  0  0  0  0
   -3.7187   -0.5393   17.6472 O   0  0  0  0  0  0  0  0  0  0  0  0
   -2.4944   -0.0328   12.0738 C   0  0  2  0  0  0  0  0  0  0  0  0
   -3.1662   -1.2690   12.5288 N   0  0  0  0  0  0  0  0  0  0  0  0
   -2.5142   -4.0013   17.8438 C   0  0  1  0  0  0  0  0  0  0  0  0
   -3.0054   -2.7001   18.2564 O   0  0  0  0  0  0  0  0  0  0  0  0
   -4.6198    1.8373   17.1785 C   0  0  2  0  0  0  0  0  0  0  0  0
   -5.8584    1.5738   17.8129 O   0  0  0  0  0  0  0  0  0  0  0  0
   -3.4110    1.2231   12.3767 C   0  0  2  0  0  0  0  0  0  0  0  0
   -3.6469   -4.7880   17.1111 C   0  0  2  0  0  0  0  0  0  0  0  0
   -4.7903   -4.9144   17.9335 O   0  0  0  0  0  0  0  0  0  0  0  0
   -4.8248    2.8851   16.0193 C   0  0  2  0  0  0  0  0  0  0  0  0
   -3.5322    3.1560   15.3558 O   0  0  0  0  0  0  0  0  0  0  0  0
   -2.7120    2.5306   11.9097 C   0  0  2  0  0  0  0  0  0  0  0  0
   -3.6247    3.6325   12.1817 O   0  0  0  0  0  0  0  0  0  0  0  0
   -3.1154   -6.2081   16.6639 C   0  0  2  0  0  0  0  0  0  0  0  0
   -1.9138   -6.0616   15.8109 O   0  0  0  0  0  0  0  0  0  0  0  0
   -5.4252    4.1902   16.5398 C   0  0  0  0  0  0  0  0  0  0  0  0
   -6.6953    3.9741   17.1045 O   0  0  0  0  0  0  0  0  0  0  0  0
   -2.4138    2.4481   10.3943 C   0  0  1  0  0  0  0  0  0  0  0  0
   -1.7752    3.6434    9.9975 O   0  0  0  0  0  0  0  0  0  0  0  0
   -4.1731   -6.9958   15.9057 C   0  0  0  0  0  0  0  0  0  0  0  0
   -4.4803   -6.3601   14.6886 O   0  0  0  0  0  0  0  0  0  0  0  0
   -3.2938   -1.8770   17.0883 C   0  0  0  0  0  0  0  0  0  0  0  0
  1  2  1  6  0  0  0
  1  7  1  0  0  0  0
  1 24  1  0  0  0  0
  3  4  1  6  0  0  0
  3  9  1  0  0  0  0
  3 31  1  0  0  0  0
  5  6  1  1  0  0  0
  5 10  1  0  0  0  0
  5 28  1  0  0  0  0
  7  8  1  6  0  0  0
  7 12  1  0  0  0  0
  9 14  1  0  0  0  0
 10 11  1  1  0  0  0
 10 16  1  0  0  0  0
 12 13  1  1  0  0  0
 12 18  1  0  0  0  0
 13 35  1  0  0  0  0
 14 15  1  6  0  0  0
 14 20  1  0  0  0  0
 16 17  1  6  0  0  0
 16 21  1  0  0  0  0
 17 35  1  0  0  0  0
 18 19  1  6  0  0  0
 18 23  1  0  0  0  0
 20  2  1  1  0  0  0
 20 25  1  0  0  0  0
 21 22  1  1  0  0  0
 21 27  1  0  0  0  0
 23 24  1  0  0  0  0
 23 29  1  1  0  0  0
 25 26  1  6  0  0  0
 25 31  1  0  0  0  0
 27 28  1  0  0  0  0
 27 33  1  6  0  0  0
 29 30  1  0  0  0  0
 31 32  1  1  0  0  0
 33 34  1  0  0  0  0
M  END
>  <CHROM.1>
-132.09476071,-67.69287316,175.24380518,54.67891562,-176.97484434,91.13622110
-61.57818243,65.22099080,-3.10446192,-0.76139718,15.02259411,1.72048833,1.10811399
-0.64364292

>  <Name>
2o3v_lig

>  <RI>
0

>  <Rbt.Current_Directory>
/home/afrankz/demos/rdock_decoys_rna/rnas/2o3v

>  <Rbt.Executable>
rbdock ($Id: //depot/dev/client3/rdock/2013.1/src/exe/rbdock.cxx#4 $)

>  <Rbt.Library>
libRbt.so (2013.1, Build901 2013/11/27)

>  <Rbt.Parameter_File>
/export/apps/rDock/src/rDock_2013.1_src/data/scripts/dock_solv.prm

>  <Rbt.Receptor>
prm/blind_docking_20.prm

>  <SCORE>
-5.34604

>  <SCORE.INTER>
-11.773

>  <SCORE.INTER.CONST>
1

>  <SCORE.INTER.POLAR>
-1.19214

>  <SCORE.INTER.ROT>
8

>  <SCORE.INTER.SOLV>
25.6443

>  <SCORE.INTER.VDW>
-21.3563

>  <SCORE.INTER.norm>
-0.336371

>  <SCORE.INTRA>
2.10205

>  <SCORE.INTRA.DIHEDRAL>
-2.09346

>  <SCORE.INTRA.DIHEDRAL.0>
13.1227

>  <SCORE.INTRA.POLAR>
0

>  <SCORE.INTRA.POLAR.0>
0

>  <SCORE.INTRA.REPUL>
0

>  <SCORE.INTRA.REPUL.0>
0

>  <SCORE.INTRA.SOLV>
3.9287

>  <SCORE.INTRA.SOLV.lig_0>
-89.1587

>  <SCORE.INTRA.VDW>
1.18443

>  <SCORE.INTRA.VDW.0>
-0.838383

>  <SCORE.INTRA.norm>
0.0600586

>  <SCORE.RESTR>
4.32489

>  <SCORE.RESTR.CAVITY>
4.32489

>  <SCORE.RESTR.norm>
0.123568

>  <SCORE.SYSTEM>
0

>  <SCORE.SYSTEM.CONST>
0

>  <SCORE.SYSTEM.DIHEDRAL>
0

>  <SCORE.SYSTEM.SOLV>
0

>  <SCORE.SYSTEM.norm>
0

>  <SCORE.heavy>
35

>  <SCORE.norm>
-0.152744

>  <RMSD>
32.324

$$$$
2o3v_lig
 OpenBabel02141814113D
libRbt.so/2013.1/901 2013/11/27
 35 37  0  0  0  0  0  0  0  0999 V2000
   -2.7086    2.1301   14.8855 C   0  0  2  0  0  0  0  0  0  0  0  0
   -3.5818    1.7393   13.7820 O   0  0  0  0  0  0  0  0  0  0  0  0
   -3.7714    1.2124    9.4677 C   0  0  2  0  0  0  0  0  0  0  0  0
   -3.4746    1.3681    8.0117 N   0  0  0  0  0  0  0  0  0  0  0  0
   -3.1774   -6.8062   17.0414 C   0  0  2  0  0  0  0  0  0  0  0  0
   -3.5427   -6.9430   15.6510 O   0  0  0  0  0  0  0  0  0  0  0  0
   -2.7063    0.8648   15.8007 C   0  0  2  0  0  0  0  0  0  0  0  0
   -2.2115   -0.3250   15.0687 N   0  0  0  0  0  0  0  0  0  0  0  0
   -4.2623    2.5959   10.0762 C   0  0  0  0  0  0  0  0  0  0  0  0
   -3.9053   -5.5333   17.5966 C   0  0  2  0  0  0  0  0  0  0  0  0
   -5.3760   -5.6428   17.4238 N   0  0  0  0  0  0  0  0  0  0  0  0
   -4.1530    0.5686   16.3911 C   0  0  1  0  0  0  0  0  0  0  0  0
   -4.1387   -0.6632   17.2222 O   0  0  0  0  0  0  0  0  0  0  0  0
   -4.5598    2.4059   11.6267 C   0  0  2  0  0  0  0  0  0  0  0  0
   -5.0075    3.6861   12.2157 N   0  0  0  0  0  0  0  0  0  0  0  0
   -3.3648   -4.2031   16.9087 C   0  0  1  0  0  0  0  0  0  0  0  0
   -3.9981   -3.0056   17.4280 O   0  0  0  0  0  0  0  0  0  0  0  0
   -4.6267    1.8743   17.1684 C   0  0  2  0  0  0  0  0  0  0  0  0
   -5.9246    1.7121   17.7116 O   0  0  0  0  0  0  0  0  0  0  0  0
   -3.2558    1.8967   12.3681 C   0  0  2  0  0  0  0  0  0  0  0  0
   -1.8207   -4.1242   17.1279 C   0  0  2  0  0  0  0  0  0  0  0  0
   -1.2817   -2.9634   16.5266 O   0  0  0  0  0  0  0  0  0  0  0  0
   -4.5995    3.1276   16.2133 C   0  0  2  0  0  0  0  0  0  0  0  0
   -3.2455    3.2932   15.6442 O   0  0  0  0  0  0  0  0  0  0  0  0
   -2.7791    0.5467   11.7627 C   0  0  2  0  0  0  0  0  0  0  0  0
   -1.5610    0.1624   12.4625 O   0  0  0  0  0  0  0  0  0  0  0  0
   -1.1277   -5.4263   16.5592 C   0  0  2  0  0  0  0  0  0  0  0  0
   -1.7069   -6.6341   17.1905 O   0  0  0  0  0  0  0  0  0  0  0  0
   -5.0148    4.4027   16.9457 C   0  0  0  0  0  0  0  0  0  0  0  0
   -6.3664    4.3482   17.3317 O   0  0  0  0  0  0  0  0  0  0  0  0
   -2.4920    0.7262   10.2536 C   0  0  1  0  0  0  0  0  0  0  0  0
   -2.0668   -0.5135    9.7277 O   0  0  0  0  0  0  0  0  0  0  0  0
    0.3759   -5.4146   16.7897 C   0  0  0  0  0  0  0  0  0  0  0  0
    0.9647   -6.5726   16.2490 O   0  0  0  0  0  0  0  0  0  0  0  0
   -3.9487   -1.9389   16.4356 C   0  0  0  0  0  0  0  0  0  0  0  0
  1  2  1  6  0  0  0
  1  7  1  0  0  0  0
  1 24  1  0  0  0  0
  3  4  1  6  0  0  0
  3  9  1  0  0  0  0
  3 31  1  0  0  0  0
  5  6  1  6  0  0  0
  5 10  1  0  0  0  0
  5 28  1  0  0  0  0
  7  8  1  6  0  0  0
  7 12  1  0  0  0  0
  9 14  1  0  0  0  0
 10 11  1  6  0  0  0
 10 16  1  0  0  0  0
 12 13  1  1  0  0  0
 12 18  1  0  0  0  0
 13 35  1  0  0  0  0
 14 15  1  1  0  0  0
 14 20  1  0  0  0  0
 16 17  1  1  0  0  0
 16 21  1  0  0  0  0
 17 35  1  0  0  0  0
 18 19  1  6  0  0  0
 18 23  1  0  0  0  0
 20  2  1  1  0  0  0
 20 25  1  0  0  0  0
 21 22  1  6  0  0  0
 21 27  1  0  0  0  0
 23 24  1  0  0  0  0
 23 29  1  1  0  0  0
 25 26  1  1  0  0  0
 25 31  1  0  0  0  0
 27 28  1  0  0  0  0
 27 33  1  1  0  0  0
 29 30  1  0  0  0  0
 31 32  1  6  0  0  0
 33 34  1  0  0  0  0
M  END
>  <CHROM.1>
-131.03791076,-69.76273320,-178.67163792,-154.85736158,-159.46019862,-138.51174213
-66.44769955,-178.81821883,-3.25794160,-0.82943820,14.92488178,2.06985457
1.13941155,-0.93022455

>  <Name>
2o3v_lig

>  <RI>
0

>  <Rbt.Current_Directory>
/home/afrankz/demos/rdock_decoys_rna/rnas/2o3v

>  <Rbt.Executable>
rbdock ($Id: //depot/dev/client3/rdock/2013.1/src/exe/rbdock.cxx#4 $)

>  <Rbt.Library>
libRbt.so (2013.1, Build901 2013/11/27)

>  <Rbt.Parameter_File>
/export/apps/rDock/src/rDock_2013.1_src/data/scripts/dock_solv.prm

>  <Rbt.Receptor>
prm/blind_docking_20.prm

>  <SCORE>
-3.6348

>  <SCORE.INTER>
-9.52181

>  <SCORE.INTER.CONST>
1

>  <SCORE.INTER.POLAR>
-0.996072

>  <SCORE.INTER.ROT>
8

>  <SCORE.INTER.SOLV>
21.0028

>  <SCORE.INTER.VDW>
-18.9619

>  <SCORE.INTER.norm>
-0.272052

>  <SCORE.INTRA>
2.98671

>  <SCORE.INTRA.DIHEDRAL>
4.34789

>  <SCORE.INTRA.DIHEDRAL.0>
13.1227

>  <SCORE.INTRA.POLAR>
0

>  <SCORE.INTRA.POLAR.0>
0

>  <SCORE.INTRA.REPUL>
0.0633965

>  <SCORE.INTRA.REPUL.0>
0

>  <SCORE.INTRA.SOLV>
2.86269

>  <SCORE.INTRA.SOLV.lig_0>
-89.1587

>  <SCORE.INTRA.VDW>
-0.935563

>  <SCORE.INTRA.VDW.0>
-0.838383

>  <SCORE.INTRA.norm>
0.0853345

>  <SCORE.RESTR>
2.90031

>  <SCORE.RESTR.CAVITY>
2.90031

>  <SCORE.RESTR.norm>
0.0828659

>  <SCORE.SYSTEM>
0

>  <SCORE.SYSTEM.CONST>
0

>  <SCORE.SYSTEM.DIHEDRAL>
0

>  <SCORE.SYSTEM.SOLV>
0

>  <SCORE.SYSTEM.norm>
0

>  <SCORE.heavy>
35

>  <SCORE.norm>
-0.103851

>  <RMSD>
32.487

$$$$
2o3v_lig
 OpenBabel02141814113D
libRbt.so/2013.1/901 2013/11/27
 35 37  0  0  0  0  0  0  0  0999 V2000
   -2.8872    2.0580   15.1266 C   0  0  2  0  0  0  0  0  0  0  0  0
   -3.6109    1.5000   13.9875 O   0  0  0  0  0  0  0  0  0  0  0  0
   -3.8035    1.2821    9.6466 C   0  0  2  0  0  0  0  0  0  0  0  0
   -3.4900    1.5209    8.2055 N   0  0  0  0  0  0  0  0  0  0  0  0
   -4.3992   -5.8462   14.4354 C   0  0  2  0  0  0  0  0  0  0  0  0
   -3.0388   -5.8297   13.9511 O   0  0  0  0  0  0  0  0  0  0  0  0
   -2.6944    0.8234   16.0631 C   0  0  2  0  0  0  0  0  0  0  0  0
   -1.9456   -0.2568   15.3784 N   0  0  0  0  0  0  0  0  0  0  0  0
   -4.2218    2.6453   10.3481 C   0  0  0  0  0  0  0  0  0  0  0  0
   -4.6256   -4.5251   15.2488 C   0  0  2  0  0  0  0  0  0  0  0  0
   -4.3563   -3.3301   14.4095 N   0  0  0  0  0  0  0  0  0  0  0  0
   -4.0885    0.2628   16.5846 C   0  0  1  0  0  0  0  0  0  0  0  0
   -3.8857   -0.9373   17.4373 O   0  0  0  0  0  0  0  0  0  0  0  0
   -4.5383    2.3658   11.8811 C   0  0  2  0  0  0  0  0  0  0  0  0
   -4.9190    3.6251   12.5560 N   0  0  0  0  0  0  0  0  0  0  0  0
   -3.7328   -4.4885   16.5665 C   0  0  1  0  0  0  0  0  0  0  0  0
   -3.9472   -3.2907   17.3565 O   0  0  0  0  0  0  0  0  0  0  0  0
   -4.8410    1.4611   17.3136 C   0  0  2  0  0  0  0  0  0  0  0  0
   -6.1118    1.0600   17.7932 O   0  0  0  0  0  0  0  0  0  0  0  0
   -3.2685    1.7361   12.5885 C   0  0  2  0  0  0  0  0  0  0  0  0
   -4.0597   -5.7536   17.4216 C   0  0  2  0  0  0  0  0  0  0  0  0
   -3.2853   -5.7802   18.6044 O   0  0  0  0  0  0  0  0  0  0  0  0
   -5.0003    2.6892   16.3389 C   0  0  2  0  0  0  0  0  0  0  0  0
   -3.6738    3.1041   15.8363 O   0  0  0  0  0  0  0  0  0  0  0  0
   -2.8627    0.4067   11.8924 C   0  0  2  0  0  0  0  0  0  0  0  0
   -1.6716   -0.0910   12.5666 O   0  0  0  0  0  0  0  0  0  0  0  0
   -3.8230   -7.0605   16.5641 C   0  0  2  0  0  0  0  0  0  0  0  0
   -4.6329   -7.0157   15.3252 O   0  0  0  0  0  0  0  0  0  0  0  0
   -5.6874    3.8682   17.0265 C   0  0  0  0  0  0  0  0  0  0  0  0
   -4.9485    4.3060   18.1406 O   0  0  0  0  0  0  0  0  0  0  0  0
   -2.5572    0.6735   10.3999 C   0  0  1  0  0  0  0  0  0  0  0  0
   -2.1973   -0.5486    9.7907 O   0  0  0  0  0  0  0  0  0  0  0  0
   -4.1711   -8.3198   17.3431 C   0  0  0  0  0  0  0  0  0  0  0  0
   -3.6787   -9.4591   16.6801 O   0  0  0  0  0  0  0  0  0  0  0  0
   -3.3447   -2.1383   16.6976 C   0  0  0  0  0  0  0  0  0  0  0  0
  1  2  1  6  0  0  0
  1  7  1  0  0  0  0
  1 24  1  0  0  0  0
  3  4  1  6  0  0  0
  3  9  1  0  0  0  0
  3 31  1  0  0  0  0
  5  6  1  1  0  0  0
  5 10  1  0  0  0  0
  5 28  1  0  0  0  0
  7  8  1  6  0  0  0
  7 12  1  0  0  0  0
  9 14  1  0  0  0  0
 10 11  1  6  0  0  0
 10 16  1  0  0  0  0
 12 13  1  1  0  0  0
 12 18  1  0  0  0  0
 13 35  1  0  0  0  0
 14 15  1  1  0  0  0
 14 20  1  0  0  0  0
 16 17  1  1  0  0  0
 16 21  1  0  0  0  0
 17 35  1  0  0  0  0
 18 19  1  6  0  0  0
 18 23  1  0  0  0  0
 20  2  1  1  0  0  0
 20 25  1  0  0  0  0
 21 22  1  1  0  0  0
 21 27  1  0  0  0  0
 23 24  1  0  0  0  0
 23 29  1  1  0  0  0
 25 26  1  1  0  0  0
 25 31  1  0  0  0  0
 27 28  1  0  0  0  0
 27 33  1  1  0  0  0
 29 30  1  0  0  0  0
 31 32  1  6  0  0  0
 33 34  1  0  0  0  0
M  END
>  <CHROM.1>
-132.86606018,-66.58810414,-146.55863571,-72.67293343,167.94202790,-122.47162126
60.03107051,-166.96655919,-3.82411880,-1.16609214,14.83338939,1.57068115
1.36883396,-0.36828466

>  <Name>
2o3v_lig

>  <RI>
0

>  <Rbt.Current_Directory>
/home/afrankz/demos/rdock_decoys_rna/rnas/2o3v

>  <Rbt.Executable>
rbdock ($Id: //depot/dev/client3/rdock/2013.1/src/exe/rbdock.cxx#4 $)

>  <Rbt.Library>
libRbt.so (2013.1, Build901 2013/11/27)

>  <Rbt.Parameter_File>
/export/apps/rDock/src/rDock_2013.1_src/data/scripts/dock_solv.prm

>  <Rbt.Receptor>
prm/blind_docking_20.prm

>  <SCORE>
6.94175

>  <SCORE.INTER>
-2.91147

>  <SCORE.INTER.CONST>
1

>  <SCORE.INTER.POLAR>
-0.0783014

>  <SCORE.INTER.ROT>
8

>  <SCORE.INTER.SOLV>
21.9858

>  <SCORE.INTER.VDW>
-17.9419

>  <SCORE.INTER.norm>
-0.083185

>  <SCORE.INTRA>
5.14166

>  <SCORE.INTRA.DIHEDRAL>
6.99197

>  <SCORE.INTRA.DIHEDRAL.0>
13.1227

>  <SCORE.INTRA.POLAR>
0

>  <SCORE.INTRA.POLAR.0>
0

>  <SCORE.INTRA.REPUL>
0

>  <SCORE.INTRA.REPUL.0>
0

>  <SCORE.INTRA.SOLV>
3.77747

>  <SCORE.INTRA.SOLV.lig_0>
-89.1587

>  <SCORE.INTRA.VDW>
-0.243056

>  <SCORE.INTRA.VDW.0>
-0.838383

>  <SCORE.INTRA.norm>
0.146905

>  <SCORE.RESTR>
4.71156

>  <SCORE.RESTR.CAVITY>
4.71156

>  <SCORE.RESTR.norm>
0.134616

>  <SCORE.SYSTEM>
0

>  <SCORE.SYSTEM.CONST>
0

>  <SCORE.SYSTEM.DIHEDRAL>
0

>  <SCORE.SYSTEM.SOLV>
0

>  <SCORE.SYSTEM.norm>
0

>  <SCORE.heavy>
35

>  <SCORE.norm>
0.198336

>  <RMSD>
32.494

$$$$
2o3v_lig
 OpenBabel02141814113D
libRbt.so/2013.1/901 2013/11/27
 35 37  0  0  0  0  0  0  0  0999 V2000
   -2.7748    1.1546   14.8918 C   0  0  2  0  0  0  0  0  0  0  0  0
   -3.6562    0.7297   13.8077 O   0  0  0  0  0  0  0  0  0  0  0  0
   -1.4264    1.2867   10.1138 C   0  0  2  0  0  0  0  0  0  0  0  0
   -1.1213    1.4814    8.6642 N   0  0  0  0  0  0  0  0  0  0  0  0
   -3.0689   -7.0748   14.8986 C   0  0  2  0  0  0  0  0  0  0  0  0
   -3.2441   -8.1519   15.8445 O   0  0  0  0  0  0  0  0  0  0  0  0
   -2.6658   -0.1240   15.7816 C   0  0  2  0  0  0  0  0  0  0  0  0
   -2.1218   -1.2677   15.0119 N   0  0  0  0  0  0  0  0  0  0  0  0
   -2.1819   -0.0942   10.3325 C   0  0  0  0  0  0  0  0  0  0  0  0
   -2.8039   -5.7656   15.7196 C   0  0  2  0  0  0  0  0  0  0  0  0
   -1.6190   -5.9202   16.6010 N   0  0  0  0  0  0  0  0  0  0  0  0
   -4.0724   -0.5202   16.4093 C   0  0  1  0  0  0  0  0  0  0  0  0
   -3.9561   -1.7631   17.2155 O   0  0  0  0  0  0  0  0  0  0  0  0
   -2.5047   -0.2712   11.8793 C   0  0  2  0  0  0  0  0  0  0  0  0
   -3.2190   -1.5464   12.1035 N   0  0  0  0  0  0  0  0  0  0  0  0
   -4.0785   -5.3429   16.5750 C   0  0  1  0  0  0  0  0  0  0  0  0
   -3.8725   -4.1149   17.3196 O   0  0  0  0  0  0  0  0  0  0  0  0
   -4.6012    0.7396   17.2260 C   0  0  2  0  0  0  0  0  0  0  0  0
   -5.8690    0.4874   17.8047 O   0  0  0  0  0  0  0  0  0  0  0  0
   -3.3893    0.9402   12.3883 C   0  0  2  0  0  0  0  0  0  0  0  0
   -5.2927   -5.1788   15.6068 C   0  0  2  0  0  0  0  0  0  0  0  0
   -6.4604   -4.8127   16.3152 O   0  0  0  0  0  0  0  0  0  0  0  0
   -4.6811    2.0088   16.2952 C   0  0  2  0  0  0  0  0  0  0  0  0
   -3.3584    2.2684   15.6889 O   0  0  0  0  0  0  0  0  0  0  0  0
   -2.6457    2.2869   12.1650 C   0  0  2  0  0  0  0  0  0  0  0  0
   -3.5303    3.3521   12.6166 O   0  0  0  0  0  0  0  0  0  0  0  0
   -5.5218   -6.5171   14.7970 C   0  0  2  0  0  0  0  0  0  0  0  0
   -4.2895   -6.8933   14.0671 O   0  0  0  0  0  0  0  0  0  0  0  0
   -5.1512    3.2425   17.0645 C   0  0  0  0  0  0  0  0  0  0  0  0
   -4.1661    3.6828   17.9670 O   0  0  0  0  0  0  0  0  0  0  0  0
   -2.3265    2.4616   10.6618 C   0  0  1  0  0  0  0  0  0  0  0  0
   -1.6475    3.6874   10.4873 O   0  0  0  0  0  0  0  0  0  0  0  0
   -6.6697   -6.3906   13.8069 C   0  0  0  0  0  0  0  0  0  0  0  0
   -7.9048   -6.4236   14.4802 O   0  0  0  0  0  0  0  0  0  0  0  0
   -3.6547   -3.0014   16.4042 C   0  0  0  0  0  0  0  0  0  0  0  0
  1  2  1  6  0  0  0
  1  7  1  0  0  0  0
  1 24  1  0  0  0  0
  3  4  1  6  0  0  0
  3  9  1  0  0  0  0
  3 31  1  0  0  0  0
  5  6  1  1  0  0  0
  5 10  1  0  0  0  0
  5 28  1  0  0  0  0
  7  8  1  6  0  0  0
  7 12  1  0  0  0  0
  9 14  1  0  0  0  0
 10 11  1  1  0  0  0
 10 16  1  0  0  0  0
 12 13  1  1  0  0  0
 12 18  1  0  0  0  0
 13 35  1  0  0  0  0
 14 15  1  6  0  0  0
 14 20  1  0  0  0  0
 16 17  1  6  0  0  0
 16 21  1  0  0  0  0
 17 35  1  0  0  0  0
 18 19  1  6  0  0  0
 18 23  1  0  0  0  0
 20  2  1  1  0  0  0
 20 25  1  0  0  0  0
 21 22  1  1  0  0  0
 21 27  1  0  0  0  0
 23 24  1  0  0  0  0
 23 29  1  1  0  0  0
 25 26  1  6  0  0  0
 25 31  1  0  0  0  0
 27 28  1  0  0  0  0
 27 33  1  6  0  0  0
 29 30  1  0  0  0  0
 31 32  1  1  0  0  0
 33 34  1  0  0  0  0
M  END
>  <CHROM.1>
-131.48148174,-67.32111559,-167.96197124,63.38138583,159.96637506,86.38642142
70.10342663,-74.79970768,-3.73880328,-1.47307803,14.58489356,0.97909556,1.20319649
0.23958631

>  <Name>
2o3v_lig

>  <RI>
0

>  <Rbt.Current_Directory>
/home/afrankz/demos/rdock_decoys_rna/rnas/2o3v

>  <Rbt.Executable>
rbdock ($Id: //depot/dev/client3/rdock/2013.1/src/exe/rbdock.cxx#4 $)

>  <Rbt.Library>
libRbt.so (2013.1, Build901 2013/11/27)

>  <Rbt.Parameter_File>
/export/apps/rDock/src/rDock_2013.1_src/data/scripts/dock_solv.prm

>  <Rbt.Receptor>
prm/blind_docking_20.prm

>  <SCORE>
-2.72599

>  <SCORE.INTER>
-10.9103

>  <SCORE.INTER.CONST>
1

>  <SCORE.INTER.POLAR>
-0.565363

>  <SCORE.INTER.ROT>
8

>  <SCORE.INTER.SOLV>
25.301

>  <SCORE.INTER.VDW>
-22.756

>  <SCORE.INTER.norm>
-0.311723

>  <SCORE.INTRA>
2.87476

>  <SCORE.INTRA.DIHEDRAL>
0.310394

>  <SCORE.INTRA.DIHEDRAL.0>
13.1227

>  <SCORE.INTRA.POLAR>
0

>  <SCORE.INTRA.POLAR.0>
0

>  <SCORE.INTRA.REPUL>
0

>  <SCORE.INTRA.REPUL.0>
0

>  <SCORE.INTRA.SOLV>
3.13473

>  <SCORE.INTRA.SOLV.lig_0>
-89.1587

>  <SCORE.INTRA.VDW>
1.1522

>  <SCORE.INTRA.VDW.0>
-0.838383

>  <SCORE.INTRA.norm>
0.0821361

>  <SCORE.RESTR>
5.30956

>  <SCORE.RESTR.CAVITY>
5.30956

>  <SCORE.RESTR.norm>
0.151702

>  <SCORE.SYSTEM>
0

>  <SCORE.SYSTEM.CONST>
0

>  <SCORE.SYSTEM.DIHEDRAL>
0

>  <SCORE.SYSTEM.SOLV>
0

>  <SCORE.SYSTEM.norm>
0

>  <SCORE.heavy>
35

>  <SCORE.norm>
-0.0778854

>  <RMSD>
32.529

$$$$
2o3v_lig
 OpenBabel02141814113D
libRbt.so/2013.1/901 2013/11/27
 35 37  0  0  0  0  0  0  0  0999 V2000
   -2.2126   -0.5981   14.9520 C   0  0  2  0  0  0  0  0  0  0  0  0
   -3.4034   -1.4400   15.0299 O   0  0  0  0  0  0  0  0  0  0  0  0
   -4.3406   -5.2382   16.9333 C   0  0  2  0  0  0  0  0  0  0  0  0
   -4.3648   -6.7032   17.2256 N   0  0  0  0  0  0  0  0  0  0  0  0
   -0.9322    6.5205   18.5646 C   0  0  2  0  0  0  0  0  0  0  0  0
    0.1697    5.6022   18.3972 O   0  0  0  0  0  0  0  0  0  0  0  0
   -2.6990    0.7598   15.5500 C   0  0  2  0  0  0  0  0  0  0  0  0
   -3.1931    0.5883   16.9367 N   0  0  0  0  0  0  0  0  0  0  0  0
   -4.9303   -4.9603   15.4840 C   0  0  0  0  0  0  0  0  0  0  0  0
   -2.2505    5.7400   18.2311 C   0  0  2  0  0  0  0  0  0  0  0  0
   -2.3958    4.5443   19.0995 N   0  0  0  0  0  0  0  0  0  0  0  0
   -3.8349    1.4193   14.6532 C   0  0  1  0  0  0  0  0  0  0  0  0
   -4.3148    2.6870   15.2623 O   0  0  0  0  0  0  0  0  0  0  0  0
   -4.8823   -3.3976   15.1937 C   0  0  2  0  0  0  0  0  0  0  0  0
   -5.4167   -3.1180   13.8436 N   0  0  0  0  0  0  0  0  0  0  0  0
   -2.3100    5.3200   16.6966 C   0  0  1  0  0  0  0  0  0  0  0  0
   -3.5358    4.6246   16.3522 O   0  0  0  0  0  0  0  0  0  0  0  0
   -3.2459    1.5840   13.1837 C   0  0  2  0  0  0  0  0  0  0  0  0
   -4.2017    2.1450   12.3018 O   0  0  0  0  0  0  0  0  0  0  0  0
   -3.3916   -2.8735   15.3041 C   0  0  2  0  0  0  0  0  0  0  0  0
   -2.1677    6.6077   15.8247 C   0  0  2  0  0  0  0  0  0  0  0  0
   -2.2030    6.2934   14.4464 O   0  0  0  0  0  0  0  0  0  0  0  0
   -2.7539    0.1946   12.6257 C   0  0  2  0  0  0  0  0  0  0  0  0
   -1.7595   -0.3913   13.5489 O   0  0  0  0  0  0  0  0  0  0  0  0
   -2.8207   -3.1548   16.7222 C   0  0  2  0  0  0  0  0  0  0  0  0
   -1.4422   -2.6852   16.7370 O   0  0  0  0  0  0  0  0  0  0  0  0
   -0.8305    7.3653   16.1952 C   0  0  2  0  0  0  0  0  0  0  0  0
   -0.8027    7.6806   17.6418 O   0  0  0  0  0  0  0  0  0  0  0  0
   -2.1491    0.3311   11.2291 C   0  0  0  0  0  0  0  0  0  0  0  0
   -1.9901   -0.9271   10.6204 O   0  0  0  0  0  0  0  0  0  0  0  0
   -2.8687   -4.6736   17.0102 C   0  0  1  0  0  0  0  0  0  0  0  0
   -2.3508   -4.9011   18.3040 O   0  0  0  0  0  0  0  0  0  0  0  0
   -0.6697    8.6523   15.4004 C   0  0  0  0  0  0  0  0  0  0  0  0
    0.4736    9.3531   15.8268 O   0  0  0  0  0  0  0  0  0  0  0  0
   -3.3454    3.8392   15.1389 C   0  0  0  0  0  0  0  0  0  0  0  0
  1  2  1  6  0  0  0
  1  7  1  0  0  0  0
  1 24  1  0  0  0  0
  3  4  1  6  0  0  0
  3  9  1  0  0  0  0
  3 31  1  0  0  0  0
  5  6  1  6  0  0  0
  5 10  1  0  0  0  0
  5 28  1  0  0  0  0
  7  8  1  1  0  0  0
  7 12  1  0  0  0  0
  9 14  1  0  0  0  0
 10 11  1  1  0  0  0
 10 16  1  0  0  0  0
 12 13  1  1  0  0  0
 12 18  1  0  0  0  0
 13 35  1  0  0  0  0
 14 15  1  6  0  0  0
 14 20  1  0  0  0  0
 16 17  1  1  0  0  0
 16 21  1  0  0  0  0
 17 35  1  0  0  0  0
 18 19  1  6  0  0  0
 18 23  1  0  0  0  0
 20  2  1  1  0  0  0
 20 25  1  0  0  0  0
 21 22  1  6  0  0  0
 21 27  1  0  0  0  0
 23 24  1  0  0  0  0
 23 29  1  6  0  0  0
 25 26  1  6  0  0  0
 25 31  1  0  0  0  0
 27 28  1  0  0  0  0
 27 33  1  6  0  0  0
 29 30  1  0  0  0  0
 31 32  1  1  0  0  0
 33 34  1  0  0  0  0
M  END
>  <CHROM.1>
-144.96763007,73.61228374,-146.74359941,-158.61826391,151.79932073,-176.02302678
-166.78343962,175.42296750,-2.63807408,1.39370787,15.59478313,2.62134912
1.32563397,2.18702691

>  <Name>
2o3v_lig

>  <RI>
0

>  <Rbt.Current_Directory>
/home/afrankz/demos/rdock_decoys_rna/rnas/2o3v

>  <Rbt.Executable>
rbdock ($Id: //depot/dev/client3/rdock/2013.1/src/exe/rbdock.cxx#4 $)

>  <Rbt.Library>
libRbt.so (2013.1, Build901 2013/11/27)

>  <Rbt.Parameter_File>
/export/apps/rDock/src/rDock_2013.1_src/data/scripts/dock_solv.prm

>  <Rbt.Receptor>
prm/blind_docking_20.prm

>  <SCORE>
9.08495

>  <SCORE.INTER>
-1.02808

>  <SCORE.INTER.CONST>
1

>  <SCORE.INTER.POLAR>
-1.28078

>  <SCORE.INTER.ROT>
8

>  <SCORE.INTER.SOLV>
21.6555

>  <SCORE.INTER.VDW>
-12.5679

>  <SCORE.INTER.norm>
-0.0293738

>  <SCORE.INTRA>
0.624562

>  <SCORE.INTRA.DIHEDRAL>
2.5841

>  <SCORE.INTRA.DIHEDRAL.0>
13.1227

>  <SCORE.INTRA.POLAR>
0

>  <SCORE.INTRA.POLAR.0>
0

>  <SCORE.INTRA.REPUL>
0

>  <SCORE.INTRA.REPUL.0>
0

>  <SCORE.INTRA.SOLV>
-0.49127

>  <SCORE.INTRA.SOLV.lig_0>
-89.1587

>  <SCORE.INTRA.VDW>
-0.421854

>  <SCORE.INTRA.VDW.0>
-0.838383

>  <SCORE.INTRA.norm>
0.0178446

>  <SCORE.RESTR>
9.48847

>  <SCORE.RESTR.CAVITY>
9.48847

>  <SCORE.RESTR.norm>
0.271099

>  <SCORE.SYSTEM>
0

>  <SCORE.SYSTEM.CONST>
0

>  <SCORE.SYSTEM.DIHEDRAL>
0

>  <SCORE.SYSTEM.SOLV>
0

>  <SCORE.SYSTEM.norm>
0

>  <SCORE.heavy>
35

>  <SCORE.norm>
0.25957

>  <RMSD>
32.609

$$$$
2o3v_lig
 OpenBabel02141814113D
libRbt.so/2013.1/901 2013/11/27
 35 37  0  0  0  0  0  0  0  0999 V2000
   -2.7347    1.8751   15.0272 C   0  0  2  0  0  0  0  0  0  0  0  0
   -3.5640    1.4538   13.9014 O   0  0  0  0  0  0  0  0  0  0  0  0
   -3.8027    1.2410    9.5626 C   0  0  2  0  0  0  0  0  0  0  0  0
   -3.5273    1.5072    8.1185 N   0  0  0  0  0  0  0  0  0  0  0  0
   -3.3723   -5.4745   14.5427 C   0  0  2  0  0  0  0  0  0  0  0  0
   -2.7752   -6.6233   15.1823 O   0  0  0  0  0  0  0  0  0  0  0  0
   -2.4793    0.5412   15.7978 C   0  0  2  0  0  0  0  0  0  0  0  0
   -1.8101   -0.4582   14.9320 N   0  0  0  0  0  0  0  0  0  0  0  0
   -4.3052    2.5687   10.2768 C   0  0  0  0  0  0  0  0  0  0  0  0
   -3.3372   -4.2916   15.5711 C   0  0  2  0  0  0  0  0  0  0  0  0
   -1.9478   -4.0124   16.0146 N   0  0  0  0  0  0  0  0  0  0  0  0
   -3.8306   -0.0677   16.3748 C   0  0  1  0  0  0  0  0  0  0  0  0
   -3.5722   -1.3579   17.0654 O   0  0  0  0  0  0  0  0  0  0  0  0
   -4.5796    2.2614   11.8126 C   0  0  2  0  0  0  0  0  0  0  0  0
   -5.0376    3.4882   12.4992 N   0  0  0  0  0  0  0  0  0  0  0  0
   -4.2716   -4.5802   16.8275 C   0  0  1  0  0  0  0  0  0  0  0  0
   -4.2842   -3.4864   17.7805 O   0  0  0  0  0  0  0  0  0  0  0  0
   -4.4978    1.0440   17.2981 C   0  0  2  0  0  0  0  0  0  0  0  0
   -5.7277    0.5978   17.8405 O   0  0  0  0  0  0  0  0  0  0  0  0
   -3.2589    1.7191   12.4990 C   0  0  2  0  0  0  0  0  0  0  0  0
   -5.7210   -4.8534   16.3144 C   0  0  2  0  0  0  0  0  0  0  0  0
   -6.5966   -5.1276   17.3903 O   0  0  0  0  0  0  0  0  0  0  0  0
   -4.7233    2.3757   16.4859 C   0  0  2  0  0  0  0  0  0  0  0  0
   -3.4398    2.8380   15.9173 O   0  0  0  0  0  0  0  0  0  0  0  0
   -2.7711    0.4243   11.7905 C   0  0  2  0  0  0  0  0  0  0  0  0
   -1.5386    0.0083   12.4455 O   0  0  0  0  0  0  0  0  0  0  0  0
   -5.7106   -6.0477   15.2786 C   0  0  2  0  0  0  0  0  0  0  0  0
   -4.7840   -5.7515   14.1622 O   0  0  0  0  0  0  0  0  0  0  0  0
   -5.3293    3.4726   17.3603 C   0  0  0  0  0  0  0  0  0  0  0  0
   -5.6202    4.6217   16.6028 O   0  0  0  0  0  0  0  0  0  0  0  0
   -2.5064    0.7180   10.2953 C   0  0  1  0  0  0  0  0  0  0  0  0
   -2.0707   -0.4734    9.6749 O   0  0  0  0  0  0  0  0  0  0  0  0
   -7.0974   -6.3226   14.7170 C   0  0  0  0  0  0  0  0  0  0  0  0
   -7.0181   -7.2024   13.6217 O   0  0  0  0  0  0  0  0  0  0  0  0
   -4.7741   -2.2697   17.1442 C   0  0  0  0  0  0  0  0  0  0  0  0
  1  2  1  6  0  0  0
  1  7  1  0  0  0  0
  1 24  1  0  0  0  0
  3  4  1  6  0  0  0
  3  9  1  0  0  0  0
  3 31  1  0  0  0  0
  5  6  1  1  0  0  0
  5 10  1  0  0  0  0
  5 28  1  0  0  0  0
  7  8  1  6  0  0  0
  7 12  1  0  0  0  0
  9 14  1  0  0  0  0
 10 11  1  1  0  0  0
 10 16  1  0  0  0  0
 12 13  1  1  0  0  0
 12 18  1  0  0  0  0
 13 35  1  0  0  0  0
 14 15  1  1  0  0  0
 14 20  1  0  0  0  0
 16 17  1  1  0  0  0
 16 21  1  0  0  0  0
 17 35  1  0  0  0  0
 18 19  1  6  0  0  0
 18 23  1  0  0  0  0
 20  2  1  1  0  0  0
 20 25  1  0  0  0  0
 21 22  1  1  0  0  0
 21 27  1  0  0  0  0
 23 24  1  0  0  0  0
 23 29  1  1  0  0  0
 25 26  1  1  0  0  0
 25 31  1  0  0  0  0
 27 28  1  0  0  0  0
 27 33  1  6  0  0  0
 29 30  1  0  0  0  0
 31 32  1  6  0  0  0
 33 34  1  0  0  0  0
M  END
>  <CHROM.1>
-125.60444086,-156.26353429,176.87893546,60.05051401,-110.97099130,-133.14409185
-175.51741078,168.65501046,-4.08470881,-1.05567160,14.55187133,0.86003746
1.34152262,0.32840084

>  <Name>
2o3v_lig

>  <RI>
0

>  <Rbt.Current_Directory>
/home/afrankz/demos/rdock_decoys_rna/rnas/2o3v

>  <Rbt.Executable>
rbdock ($Id: //depot/dev/client3/rdock/2013.1/src/exe/rbdock.cxx#4 $)

>  <Rbt.Library>
libRbt.so (2013.1, Build901 2013/11/27)

>  <Rbt.Parameter_File>
/export/apps/rDock/src/rDock_2013.1_src/data/scripts/dock_solv.prm

>  <Rbt.Receptor>
prm/blind_docking_20.prm

>  <SCORE>
10.2232

>  <SCORE.INTER>
-0.145651

>  <SCORE.INTER.CONST>
1

>  <SCORE.INTER.POLAR>
-0.132547

>  <SCORE.INTER.ROT>
8

>  <SCORE.INTER.SOLV>
24.2031

>  <SCORE.INTER.VDW>
-16.6563

>  <SCORE.INTER.norm>
-0.00416145

>  <SCORE.INTRA>
6.31618

>  <SCORE.INTRA.DIHEDRAL>
10.1277

>  <SCORE.INTRA.DIHEDRAL.0>
13.1227

>  <SCORE.INTRA.POLAR>
0

>  <SCORE.INTRA.POLAR.0>
0

>  <SCORE.INTRA.REPUL>
0

>  <SCORE.INTRA.REPUL.0>
0

>  <SCORE.INTRA.SOLV>
3.23014

>  <SCORE.INTRA.SOLV.lig_0>
-89.1587

>  <SCORE.INTRA.VDW>
-0.36275

>  <SCORE.INTRA.VDW.0>
-0.838383

>  <SCORE.INTRA.norm>
0.180462

>  <SCORE.RESTR>
4.05266

>  <SCORE.RESTR.CAVITY>
4.05266

>  <SCORE.RESTR.norm>
0.11579

>  <SCORE.SYSTEM>
0

>  <SCORE.SYSTEM.CONST>
0

>  <SCORE.SYSTEM.DIHEDRAL>
0

>  <SCORE.SYSTEM.SOLV>
0

>  <SCORE.SYSTEM.norm>
0

>  <SCORE.heavy>
35

>  <SCORE.norm>
0.292091

>  <RMSD>
32.692

$$$$
2o3v_lig
 OpenBabel02141814113D
libRbt.so/2013.1/901 2013/11/27
 35 37  0  0  0  0  0  0  0  0999 V2000
   -2.7250    2.1927   14.6736 C   0  0  2  0  0  0  0  0  0  0  0  0
   -3.5450    1.6448   13.5965 O   0  0  0  0  0  0  0  0  0  0  0  0
   -3.9623    1.6060    9.2661 C   0  0  2  0  0  0  0  0  0  0  0  0
   -3.9718    2.0647    7.8443 N   0  0  0  0  0  0  0  0  0  0  0  0
   -1.4878   -4.8609   16.5894 C   0  0  2  0  0  0  0  0  0  0  0  0
   -1.3198   -4.6006   17.9999 O   0  0  0  0  0  0  0  0  0  0  0  0
   -2.6172    1.0016   15.6777 C   0  0  2  0  0  0  0  0  0  0  0  0
   -2.0062   -0.1864   15.0362 N   0  0  0  0  0  0  0  0  0  0  0  0
   -5.0222    2.4325   10.1140 C   0  0  0  0  0  0  0  0  0  0  0  0
   -2.2711   -3.6486   15.9768 C   0  0  2  0  0  0  0  0  0  0  0  0
   -1.5508   -2.3726   16.2175 N   0  0  0  0  0  0  0  0  0  0  0  0
   -4.0376    0.6154   16.2800 C   0  0  1  0  0  0  0  0  0  0  0  0
   -3.9199   -0.5473   17.1980 O   0  0  0  0  0  0  0  0  0  0  0  0
   -4.9837    1.9337   11.6233 C   0  0  2  0  0  0  0  0  0  0  0  0
   -5.9558    2.6989   12.4332 N   0  0  0  0  0  0  0  0  0  0  0  0
   -3.7552   -3.5623   16.5468 C   0  0  1  0  0  0  0  0  0  0  0  0
   -4.5145   -2.4683   15.9713 O   0  0  0  0  0  0  0  0  0  0  0  0
   -4.6389    1.9237   16.9585 C   0  0  2  0  0  0  0  0  0  0  0  0
   -5.9228    1.6811   17.5049 O   0  0  0  0  0  0  0  0  0  0  0  0
   -3.5256    2.1156   12.2151 C   0  0  2  0  0  0  0  0  0  0  0  0
   -4.4759   -4.9175   16.2589 C   0  0  2  0  0  0  0  0  0  0  0  0
   -5.8002   -4.9029   16.7545 O   0  0  0  0  0  0  0  0  0  0  0  0
   -4.7156    3.1027   15.9155 C   0  0  2  0  0  0  0  0  0  0  0  0
   -3.3758    3.3521   15.3434 O   0  0  0  0  0  0  0  0  0  0  0  0
   -2.4948    1.3092   11.3764 C   0  0  2  0  0  0  0  0  0  0  0  0
   -1.1794    1.5548   11.9512 O   0  0  0  0  0  0  0  0  0  0  0  0
   -3.6524   -6.1111   16.8885 C   0  0  2  0  0  0  0  0  0  0  0  0
   -2.2661   -6.1096   16.3679 O   0  0  0  0  0  0  0  0  0  0  0  0
   -5.2554    4.3829   16.5517 C   0  0  0  0  0  0  0  0  0  0  0  0
   -6.6135    4.2462   16.8917 O   0  0  0  0  0  0  0  0  0  0  0  0
   -2.5314    1.7889    9.9065 C   0  0  1  0  0  0  0  0  0  0  0  0
   -1.5917    1.0381    9.1665 O   0  0  0  0  0  0  0  0  0  0  0  0
   -4.2943   -7.4587   16.5957 C   0  0  0  0  0  0  0  0  0  0  0  0
   -5.4983   -7.5949   17.3111 O   0  0  0  0  0  0  0  0  0  0  0  0
   -5.0030   -1.5859   17.0239 C   0  0  0  0  0  0  0  0  0  0  0  0
  1  2  1  6  0  0  0
  1  7  1  0  0  0  0
  1 24  1  0  0  0  0
  3  4  1  6  0  0  0
  3  9  1  0  0  0  0
  3 31  1  0  0  0  0
  5  6  1  1  0  0  0
  5 10  1  0  0  0  0
  5 28  1  0  0  0  0
  7  8  1  6  0  0  0
  7 12  1  0  0  0  0
  9 14  1  0  0  0  0
 10 11  1  1  0  0  0
 10 16  1  0  0  0  0
 12 13  1  1  0  0  0
 12 18  1  0  0  0  0
 13 35  1  0  0  0  0
 14 15  1  1  0  0  0
 14 20  1  0  0  0  0
 16 17  1  6  0  0  0
 16 21  1  0  0  0  0
 17 35  1  0  0  0  0
 18 19  1  6  0  0  0
 18 23  1  0  0  0  0
 20  2  1  1  0  0  0
 20 25  1  0  0  0  0
 21 22  1  1  0  0  0
 21 27  1  0  0  0  0
 23 24  1  0  0  0  0
 23 29  1  1  0  0  0
 25 26  1  1  0  0  0
 25 31  1  0  0  0  0
 27 28  1  0  0  0  0
 27 33  1  6  0  0  0
 29 30  1  0  0  0  0
 31 32  1  6  0  0  0
 33 34  1  0  0  0  0
M  END
>  <CHROM.1>
-154.82698454,-136.48435717,86.60741008,-122.89673516,90.50212693,-147.74629345
-68.45989361,-69.81376828,-3.73945100,-0.55151499,14.73391862,1.63835547
1.21685026,-0.63019447

>  <Name>
2o3v_lig

>  <RI>
0

>  <Rbt.Current_Directory>
/home/afrankz/demos/rdock_decoys_rna/rnas/2o3v

>  <Rbt.Executable>
rbdock ($Id: //depot/dev/client3/rdock/2013.1/src/exe/rbdock.cxx#4 $)

>  <Rbt.Library>
libRbt.so (2013.1, Build901 2013/11/27)

>  <Rbt.Parameter_File>
/export/apps/rDock/src/rDock_2013.1_src/data/scripts/dock_solv.prm

>  <Rbt.Receptor>
prm/blind_docking_20.prm

>  <SCORE>
6.20105

>  <SCORE.INTER>
-6.78944

>  <SCORE.INTER.CONST>
1

>  <SCORE.INTER.POLAR>
-1.6113

>  <SCORE.INTER.ROT>
8

>  <SCORE.INTER.SOLV>
20.0604

>  <SCORE.INTER.VDW>
-14.7754

>  <SCORE.INTER.norm>
-0.193984

>  <SCORE.INTRA>
7.23452

>  <SCORE.INTRA.DIHEDRAL>
13.958

>  <SCORE.INTRA.DIHEDRAL.0>
13.1227

>  <SCORE.INTRA.POLAR>
0

>  <SCORE.INTRA.POLAR.0>
0

>  <SCORE.INTRA.REPUL>
0.0270738

>  <SCORE.INTRA.REPUL.0>
0

>  <SCORE.INTRA.SOLV>
5.93058

>  <SCORE.INTRA.SOLV.lig_0>
-89.1587

>  <SCORE.INTRA.VDW>
-2.84513

>  <SCORE.INTRA.VDW.0>
-0.838383

>  <SCORE.INTRA.norm>
0.206701

>  <SCORE.RESTR>
5.75596

>  <SCORE.RESTR.CAVITY>
5.75596

>  <SCORE.RESTR.norm>
0.164456

>  <SCORE.SYSTEM>
0

>  <SCORE.SYSTEM.CONST>
0

>  <SCORE.SYSTEM.DIHEDRAL>
0

>  <SCORE.SYSTEM.SOLV>
0

>  <SCORE.SYSTEM.norm>
0

>  <SCORE.heavy>
35

>  <SCORE.norm>
0.177173

>  <RMSD>
32.697

$$$$
2o3v_lig
 OpenBabel02141814113D
libRbt.so/2013.1/901 2013/11/27
 35 37  0  0  0  0  0  0  0  0999 V2000
   -3.7581    0.8802   13.4163 C   0  0  2  0  0  0  0  0  0  0  0  0
   -2.4730    0.9794   12.7297 O   0  0  0  0  0  0  0  0  0  0  0  0
   -3.3397    0.4154    8.5038 C   0  0  2  0  0  0  0  0  0  0  0  0
   -3.1496    0.1382    7.0481 N   0  0  0  0  0  0  0  0  0  0  0  0
   -6.0538    5.8720   17.8693 C   0  0  2  0  0  0  0  0  0  0  0  0
   -7.1192    4.9519   18.1919 O   0  0  0  0  0  0  0  0  0  0  0  0
   -3.5237    1.6966   14.7266 C   0  0  2  0  0  0  0  0  0  0  0  0
   -3.1387    3.0955   14.4247 N   0  0  0  0  0  0  0  0  0  0  0  0
   -2.4947    1.6913    8.9320 C   0  0  0  0  0  0  0  0  0  0  0  0
   -4.7995    5.0193   17.4716 C   0  0  2  0  0  0  0  0  0  0  0  0
   -5.1082    4.1163   16.3340 N   0  0  0  0  0  0  0  0  0  0  0  0
   -2.4148    1.0210   15.6450 C   0  0  1  0  0  0  0  0  0  0  0  0
   -2.1751    1.8361   16.8643 O   0  0  0  0  0  0  0  0  0  0  0  0
   -2.7051    1.9573   10.4855 C   0  0  2  0  0  0  0  0  0  0  0  0
   -1.9171    3.1351   10.9076 N   0  0  0  0  0  0  0  0  0  0  0  0
   -4.2446    4.1828   18.7074 C   0  0  1  0  0  0  0  0  0  0  0  0
   -3.0627    3.4095   18.3761 O   0  0  0  0  0  0  0  0  0  0  0  0
   -2.8848   -0.4709   15.9398 C   0  0  2  0  0  0  0  0  0  0  0  0
   -1.9410   -1.1640   16.7365 O   0  0  0  0  0  0  0  0  0  0  0  0
   -2.2606    0.6839   11.3163 C   0  0  2  0  0  0  0  0  0  0  0  0
   -3.9216    5.1731   19.8708 C   0  0  2  0  0  0  0  0  0  0  0  0
   -3.4328    4.4824   21.0038 O   0  0  0  0  0  0  0  0  0  0  0  0
   -3.1239   -1.2524   14.5923 C   0  0  2  0  0  0  0  0  0  0  0  0
   -4.1061   -0.5259   13.7604 O   0  0  0  0  0  0  0  0  0  0  0  0
   -3.0875   -0.5603   10.8869 C   0  0  2  0  0  0  0  0  0  0  0  0
   -2.5994   -1.6944   11.6593 O   0  0  0  0  0  0  0  0  0  0  0  0
   -5.2091    6.0144   20.2366 C   0  0  2  0  0  0  0  0  0  0  0  0
   -5.7152    6.7254   19.0402 O   0  0  0  0  0  0  0  0  0  0  0  0
   -3.6122   -2.6777   14.8472 C   0  0  0  0  0  0  0  0  0  0  0  0
   -3.9923   -2.8506   16.1905 O   0  0  0  0  0  0  0  0  0  0  0  0
   -2.8885   -0.8206    9.3754 C   0  0  1  0  0  0  0  0  0  0  0  0
   -3.6532   -1.9503    9.0106 O   0  0  0  0  0  0  0  0  0  0  0  0
   -4.9309    7.0259   21.3381 C   0  0  0  0  0  0  0  0  0  0  0  0
   -4.6130    6.3676   22.5404 O   0  0  0  0  0  0  0  0  0  0  0  0
   -3.4328    2.2306   17.6025 C   0  0  0  0  0  0  0  0  0  0  0  0
  1  2  1  6  0  0  0
  1  7  1  0  0  0  0
  1 24  1  0  0  0  0
  3  4  1  6  0  0  0
  3  9  1  0  0  0  0
  3 31  1  0  0  0  0
  5  6  1  1  0  0  0
  5 10  1  0  0  0  0
  5 28  1  0  0  0  0
  7  8  1  6  0  0  0
  7 12  1  0  0  0  0
  9 14  1  0  0  0  0
 10 11  1  6  0  0  0
 10 16  1  0  0  0  0
 12 13  1  1  0  0  0
 12 18  1  0  0  0  0
 13 35  1  0  0  0  0
 14 15  1  1  0  0  0
 14 20  1  0  0  0  0
 16 17  1  6  0  0  0
 16 21  1  0  0  0  0
 17 35  1  0  0  0  0
 18 19  1  1  0  0  0
 18 23  1  0  0  0  0
 20  2  1  1  0  0  0
 20 25  1  0  0  0  0
 21 22  1  1  0  0  0
 21 27  1  0  0  0  0
 23 24  1  0  0  0  0
 23 29  1  1  0  0  0
 25 26  1  1  0  0  0
 25 31  1  0  0  0  0
 27 28  1  0  0  0  0
 27 33  1  1  0  0  0
 29 30  1  0  0  0  0
 31 32  1  6  0  0  0
 33 34  1  0  0  0  0
M  END
>  <CHROM.1>
-163.46629163,49.51652803,-157.45241971,-76.01679907,157.84828323,81.24953305
12.31484129,-65.16758889,-3.63104080,1.96240387,15.12052684,0.78696725,1.34144088
-1.34646813

>  <Name>
2o3v_lig

>  <RI>
0

>  <Rbt.Current_Directory>
/home/afrankz/demos/rdock_decoys_rna/rnas/2o3v

>  <Rbt.Executable>
rbdock ($Id: //depot/dev/client3/rdock/2013.1/src/exe/rbdock.cxx#4 $)

>  <Rbt.Library>
libRbt.so (2013.1, Build901 2013/11/27)

>  <Rbt.Parameter_File>
/export/apps/rDock/src/rDock_2013.1_src/data/scripts/dock_solv.prm

>  <Rbt.Receptor>
prm/blind_docking_100.prm

>  <SCORE>
4.03025

>  <SCORE.INTER>
-5.15376

>  <SCORE.INTER.CONST>
1

>  <SCORE.INTER.POLAR>
-1.39028

>  <SCORE.INTER.ROT>
8

>  <SCORE.INTER.SOLV>
25.8748

>  <SCORE.INTER.VDW>
-16.3598

>  <SCORE.INTER.norm>
-0.14725

>  <SCORE.INTRA>
3.35027

>  <SCORE.INTRA.DIHEDRAL>
1.12524

>  <SCORE.INTRA.DIHEDRAL.0>
13.1227

>  <SCORE.INTRA.POLAR>
0

>  <SCORE.INTRA.POLAR.0>
0

>  <SCORE.INTRA.REPUL>
0

>  <SCORE.INTRA.REPUL.0>
0

>  <SCORE.INTRA.SOLV>
5.52005

>  <SCORE.INTRA.SOLV.lig_0>
-89.1587

>  <SCORE.INTRA.VDW>
0.027623

>  <SCORE.INTRA.VDW.0>
-0.838383

>  <SCORE.INTRA.norm>
0.095722

>  <SCORE.RESTR>
5.83374

>  <SCORE.RESTR.CAVITY>
5.83374

>  <SCORE.RESTR.norm>
0.166678

>  <SCORE.SYSTEM>
0

>  <SCORE.SYSTEM.CONST>
0

>  <SCORE.SYSTEM.DIHEDRAL>
0

>  <SCORE.SYSTEM.SOLV>
0

>  <SCORE.SYSTEM.norm>
0

>  <SCORE.heavy>
35

>  <SCORE.norm>
0.11515

>  <RMSD>
32.924

$$$$
2o3v_lig
 OpenBabel02141814113D
libRbt.so/2013.1/901 2013/11/27
 35 37  0  0  0  0  0  0  0  0999 V2000
   -2.8038    1.8861   14.1225 C   0  0  2  0  0  0  0  0  0  0  0  0
   -3.8267    1.6063   13.1184 O   0  0  0  0  0  0  0  0  0  0  0  0
   -2.3176    2.4500    9.1261 C   0  0  2  0  0  0  0  0  0  0  0  0
   -2.0199    2.3051    7.6692 N   0  0  0  0  0  0  0  0  0  0  0  0
   -4.2825   -5.4507   17.8615 C   0  0  2  0  0  0  0  0  0  0  0  0
   -5.5944   -4.8711   18.0299 O   0  0  0  0  0  0  0  0  0  0  0  0
   -2.8214    0.6035   15.0131 C   0  0  2  0  0  0  0  0  0  0  0  0
   -2.5264   -0.6085   14.2129 N   0  0  0  0  0  0  0  0  0  0  0  0
   -1.6572    1.2557    9.9403 C   0  0  0  0  0  0  0  0  0  0  0  0
   -3.2731   -4.2729   17.6330 C   0  0  2  0  0  0  0  0  0  0  0  0
   -3.3081   -3.3140   18.7663 N   0  0  0  0  0  0  0  0  0  0  0  0
   -4.2158    0.4288   15.7577 C   0  0  1  0  0  0  0  0  0  0  0  0
   -4.2276   -0.8194   16.5640 O   0  0  0  0  0  0  0  0  0  0  0  0
   -1.9984    1.4271   11.4839 C   0  0  2  0  0  0  0  0  0  0  0  0
   -1.4021    0.3182   12.2592 N   0  0  0  0  0  0  0  0  0  0  0  0
   -3.5556   -3.5177   16.2602 C   0  0  1  0  0  0  0  0  0  0  0  0
   -2.6145   -2.4431   16.0069 O   0  0  0  0  0  0  0  0  0  0  0  0
   -4.4740    1.7531   16.6023 C   0  0  2  0  0  0  0  0  0  0  0  0
   -5.7135    1.6991   17.2853 O   0  0  0  0  0  0  0  0  0  0  0  0
   -3.5688    1.4477   11.6906 C   0  0  2  0  0  0  0  0  0  0  0  0
   -3.4948   -4.5607   15.0995 C   0  0  2  0  0  0  0  0  0  0  0  0
   -3.7497   -3.9463   13.8517 O   0  0  0  0  0  0  0  0  0  0  0  0
   -4.4326    3.0220   15.6684 C   0  0  2  0  0  0  0  0  0  0  0  0
   -3.1401    3.0748   14.9535 O   0  0  0  0  0  0  0  0  0  0  0  0
   -4.2071    2.6147   10.8862 C   0  0  2  0  0  0  0  0  0  0  0  0
   -5.6474    2.5470   11.0908 O   0  0  0  0  0  0  0  0  0  0  0  0
   -4.5224   -5.7309   15.3711 C   0  0  2  0  0  0  0  0  0  0  0  0
   -4.2497   -6.3597   16.6838 O   0  0  0  0  0  0  0  0  0  0  0  0
   -4.6408    4.3115   16.4613 C   0  0  0  0  0  0  0  0  0  0  0  0
   -3.6341    4.4794   17.4293 O   0  0  0  0  0  0  0  0  0  0  0  0
   -3.8746    2.4538    9.3843 C   0  0  1  0  0  0  0  0  0  0  0  0
   -4.4602    3.5274    8.6781 O   0  0  0  0  0  0  0  0  0  0  0  0
   -4.4679   -6.7959   14.2863 C   0  0  0  0  0  0  0  0  0  0  0  0
   -3.2747   -7.5354   14.3837 O   0  0  0  0  0  0  0  0  0  0  0  0
   -2.8547   -1.3364   16.9249 C   0  0  0  0  0  0  0  0  0  0  0  0
  1  2  1  6  0  0  0
  1  7  1  0  0  0  0
  1 24  1  0  0  0  0
  3  4  1  6  0  0  0
  3  9  1  0  0  0  0
  3 31  1  0  0  0  0
  5  6  1  6  0  0  0
  5 10  1  0  0  0  0
  5 28  1  0  0  0  0
  7  8  1  6  0  0  0
  7 12  1  0  0  0  0
  9 14  1  0  0  0  0
 10 11  1  1  0  0  0
 10 16  1  0  0  0  0
 12 13  1  1  0  0  0
 12 18  1  0  0  0  0
 13 35  1  0  0  0  0
 14 15  1  1  0  0  0
 14 20  1  0  0  0  0
 16 17  1  6  0  0  0
 16 21  1  0  0  0  0
 17 35  1  0  0  0  0
 18 19  1  6  0  0  0
 18 23  1  0  0  0  0
 20  2  1  1  0  0  0
 20 25  1  0  0  0  0
 21 22  1  6  0  0  0
 21 27  1  0  0  0  0
 23 24  1  0  0  0  0
 23 29  1  1  0  0  0
 25 26  1  6  0  0  0
 25 31  1  0  0  0  0
 27 28  1  0  0  0  0
 27 33  1  6  0  0  0
 29 30  1  0  0  0  0
 31 32  1  6  0  0  0
 33 34  1  0  0  0  0
M  END
>  <CHROM.1>
-115.24819132,21.83757750,-102.35132171,-70.61074786,-64.94718215,7.91859061
60.60676378,71.20405107,-3.65184866,-0.54010783,14.33245885,1.19635116,1.40617552
-0.22477348

>  <Name>
2o3v_lig

>  <RI>
0

>  <Rbt.Current_Directory>
/home/afrankz/demos/rdock_decoys_rna/rnas/2o3v

>  <Rbt.Executable>
rbdock ($Id: //depot/dev/client3/rdock/2013.1/src/exe/rbdock.cxx#4 $)

>  <Rbt.Library>
libRbt.so (2013.1, Build901 2013/11/27)

>  <Rbt.Parameter_File>
/export/apps/rDock/src/rDock_2013.1_src/data/scripts/dock_solv.prm

>  <Rbt.Receptor>
prm/blind_docking_20.prm

>  <SCORE>
16.3314

>  <SCORE.INTER>
-3.3205

>  <SCORE.INTER.CONST>
1

>  <SCORE.INTER.POLAR>
-0.462097

>  <SCORE.INTER.ROT>
8

>  <SCORE.INTER.SOLV>
19.7849

>  <SCORE.INTER.VDW>
-16.2017

>  <SCORE.INTER.norm>
-0.0948715

>  <SCORE.INTRA>
14.8864

>  <SCORE.INTRA.DIHEDRAL>
12.8415

>  <SCORE.INTRA.DIHEDRAL.0>
13.1227

>  <SCORE.INTRA.POLAR>
0

>  <SCORE.INTRA.POLAR.0>
0

>  <SCORE.INTRA.REPUL>
0

>  <SCORE.INTRA.REPUL.0>
0

>  <SCORE.INTRA.SOLV>
7.69095

>  <SCORE.INTRA.SOLV.lig_0>
-89.1587

>  <SCORE.INTRA.VDW>
4.62023

>  <SCORE.INTRA.VDW.0>
-0.838383

>  <SCORE.INTRA.norm>
0.425327

>  <SCORE.RESTR>
4.76551

>  <SCORE.RESTR.CAVITY>
4.76551

>  <SCORE.RESTR.norm>
0.136157

>  <SCORE.SYSTEM>
0

>  <SCORE.SYSTEM.CONST>
0

>  <SCORE.SYSTEM.DIHEDRAL>
0

>  <SCORE.SYSTEM.SOLV>
0

>  <SCORE.SYSTEM.norm>
0

>  <SCORE.heavy>
35

>  <SCORE.norm>
0.466613

>  <RMSD>
33.002

$$$$
2o3v_lig
 OpenBabel02141814113D
libRbt.so/2013.1/901 2013/11/27
 35 37  0  0  0  0  0  0  0  0999 V2000
   -2.6268    4.4913   18.6040 C   0  0  2  0  0  0  0  0  0  0  0  0
   -2.0019    4.8751   17.3411 O   0  0  0  0  0  0  0  0  0  0  0  0
   -0.1328    8.3149   15.4434 C   0  0  2  0  0  0  0  0  0  0  0  0
    0.0961    9.7102   14.9607 N   0  0  0  0  0  0  0  0  0  0  0  0
   -4.4133    3.6505   12.4913 C   0  0  2  0  0  0  0  0  0  0  0  0
   -3.3399    4.6166   12.4836 O   0  0  0  0  0  0  0  0  0  0  0  0
   -2.9169    2.9695   18.4076 C   0  0  2  0  0  0  0  0  0  0  0  0
   -1.6702    2.2178   18.1303 N   0  0  0  0  0  0  0  0  0  0  0  0
   -1.4482    7.7168   14.7821 C   0  0  0  0  0  0  0  0  0  0  0  0
   -4.3067    2.8389   13.8286 C   0  0  2  0  0  0  0  0  0  0  0  0
   -4.3721    3.7412   15.0060 N   0  0  0  0  0  0  0  0  0  0  0  0
   -3.9649    2.7211   17.2373 C   0  0  1  0  0  0  0  0  0  0  0  0
   -4.1932    1.2664   17.0372 O   0  0  0  0  0  0  0  0  0  0  0  0
   -1.6748    6.2379   15.3206 C   0  0  2  0  0  0  0  0  0  0  0  0
   -2.9018    5.6662   14.7256 N   0  0  0  0  0  0  0  0  0  0  0  0
   -2.9789    1.9616   13.8768 C   0  0  1  0  0  0  0  0  0  0  0  0
   -2.8707    1.1736   15.0901 O   0  0  0  0  0  0  0  0  0  0  0  0
   -5.2798    3.5448   17.5928 C   0  0  2  0  0  0  0  0  0  0  0  0
   -6.2678    3.4032   16.5880 O   0  0  0  0  0  0  0  0  0  0  0  0
   -1.7956    6.2510   16.9000 C   0  0  2  0  0  0  0  0  0  0  0  0
   -2.9611    1.0212   12.6302 C   0  0  2  0  0  0  0  0  0  0  0  0
   -1.7945    0.2223   12.6143 O   0  0  0  0  0  0  0  0  0  0  0  0
   -4.9393    5.0699   17.7970 C   0  0  2  0  0  0  0  0  0  0  0  0
   -3.9053    5.2157   18.8431 O   0  0  0  0  0  0  0  0  0  0  0  0
   -0.5078    6.8431   17.5381 C   0  0  2  0  0  0  0  0  0  0  0  0
   -0.7061    6.8608   18.9809 O   0  0  0  0  0  0  0  0  0  0  0  0
   -3.0749    1.8778   11.3063 C   0  0  2  0  0  0  0  0  0  0  0  0
   -4.2955    2.7155   11.3398 O   0  0  0  0  0  0  0  0  0  0  0  0
   -6.1796    5.8778   18.1762 C   0  0  0  0  0  0  0  0  0  0  0  0
   -5.8246    7.1054   18.7643 O   0  0  0  0  0  0  0  0  0  0  0  0
   -0.2815    8.2806   17.0143 C   0  0  1  0  0  0  0  0  0  0  0  0
    0.8952    8.7925   17.6038 O   0  0  0  0  0  0  0  0  0  0  0  0
   -3.1056    0.9999   10.0644 C   0  0  0  0  0  0  0  0  0  0  0  0
   -1.8710    0.3465    9.8943 O   0  0  0  0  0  0  0  0  0  0  0  0
   -4.1973    0.8336   15.5898 C   0  0  0  0  0  0  0  0  0  0  0  0
  1  2  1  6  0  0  0
  1  7  1  0  0  0  0
  1 24  1  0  0  0  0
  3  4  1  6  0  0  0
  3  9  1  0  0  0  0
  3 31  1  0  0  0  0
  5  6  1  6  0  0  0
  5 10  1  0  0  0  0
  5 28  1  0  0  0  0
  7  8  1  6  0  0  0
  7 12  1  0  0  0  0
  9 14  1  0  0  0  0
 10 11  1  1  0  0  0
 10 16  1  0  0  0  0
 12 13  1  1  0  0  0
 12 18  1  0  0  0  0
 13 35  1  0  0  0  0
 14 15  1  6  0  0  0
 14 20  1  0  0  0  0
 16 17  1  1  0  0  0
 16 21  1  0  0  0  0
 17 35  1  0  0  0  0
 18 19  1  6  0  0  0
 18 23  1  0  0  0  0
 20  2  1  1  0  0  0
 20 25  1  0  0  0  0
 21 22  1  6  0  0  0
 21 27  1  0  0  0  0
 23 24  1  0  0  0  0
 23 29  1  1  0  0  0
 25 26  1  1  0  0  0
 25 31  1  0  0  0  0
 27 28  1  0  0  0  0
 27 33  1  6  0  0  0
 29 30  1  0  0  0  0
 31 32  1  1  0  0  0
 33 34  1  0  0  0  0
M  END
>  <CHROM.1>
166.29516024,-135.31215604,60.91785937,29.44286745,-127.86644595,-156.74481439
161.10166706,-66.73745962,-2.91753946,4.24686642,15.53745967,1.27426301,0.86301895
0.97220440

>  <Name>
2o3v_lig

>  <RI>
0

>  <Rbt.Current_Directory>
/home/afrankz/demos/rdock_decoys_rna/rnas/2o3v

>  <Rbt.Executable>
rbdock ($Id: //depot/dev/client3/rdock/2013.1/src/exe/rbdock.cxx#4 $)

>  <Rbt.Library>
libRbt.so (2013.1, Build901 2013/11/27)

>  <Rbt.Parameter_File>
/export/apps/rDock/src/rDock_2013.1_src/data/scripts/dock_solv.prm

>  <Rbt.Receptor>
prm/blind_docking_20.prm

>  <SCORE>
7.7383

>  <SCORE.INTER>
-12.6451

>  <SCORE.INTER.CONST>
1

>  <SCORE.INTER.POLAR>
-1.89845

>  <SCORE.INTER.ROT>
8

>  <SCORE.INTER.SOLV>
31.389

>  <SCORE.INTER.VDW>
-21.4983

>  <SCORE.INTER.norm>
-0.36129

>  <SCORE.INTRA>
14.5298

>  <SCORE.INTRA.DIHEDRAL>
8.19557

>  <SCORE.INTRA.DIHEDRAL.0>
13.1227

>  <SCORE.INTRA.POLAR>
0

>  <SCORE.INTRA.POLAR.0>
0

>  <SCORE.INTRA.REPUL>
0

>  <SCORE.INTRA.REPUL.0>
0

>  <SCORE.INTRA.SOLV>
12.4489

>  <SCORE.INTRA.SOLV.lig_0>
-89.1587

>  <SCORE.INTRA.VDW>
4.20756

>  <SCORE.INTRA.VDW.0>
-0.838383

>  <SCORE.INTRA.norm>
0.415137

>  <SCORE.RESTR>
5.85363

>  <SCORE.RESTR.CAVITY>
5.85363

>  <SCORE.RESTR.norm>
0.167247

>  <SCORE.SYSTEM>
0

>  <SCORE.SYSTEM.CONST>
0

>  <SCORE.SYSTEM.DIHEDRAL>
0

>  <SCORE.SYSTEM.SOLV>
0

>  <SCORE.SYSTEM.norm>
0

>  <SCORE.heavy>
35

>  <SCORE.norm>
0.221094

>  <RMSD>
33.194

$$$$
2o3v_lig
 OpenBabel02141814113D
libRbt.so/2013.1/901 2013/11/27
 35 37  0  0  0  0  0  0  0  0999 V2000
   -4.8471   -1.4055   16.1094 C   0  0  2  0  0  0  0  0  0  0  0  0
   -3.9254   -1.7454   17.1900 O   0  0  0  0  0  0  0  0  0  0  0  0
   -0.8199   -4.7720   17.5411 C   0  0  2  0  0  0  0  0  0  0  0  0
    0.4746   -5.4949   17.3570 N   0  0  0  0  0  0  0  0  0  0  0  0
   -2.9483   -0.1050    9.4858 C   0  0  2  0  0  0  0  0  0  0  0  0
   -4.2836    0.4083    9.2884 O   0  0  0  0  0  0  0  0  0  0  0  0
   -3.9671   -0.5412   15.1519 C   0  0  2  0  0  0  0  0  0  0  0  0
   -2.7834   -1.2989   14.6818 N   0  0  0  0  0  0  0  0  0  0  0  0
   -1.5641   -4.6199   16.1452 C   0  0  0  0  0  0  0  0  0  0  0  0
   -2.5644    0.1454   10.9852 C   0  0  2  0  0  0  0  0  0  0  0  0
   -3.5408   -0.4989   11.8998 N   0  0  0  0  0  0  0  0  0  0  0  0
   -3.4978    0.8088   15.8495 C   0  0  1  0  0  0  0  0  0  0  0  0
   -2.6260    1.5951   14.9383 O   0  0  0  0  0  0  0  0  0  0  0  0
   -2.9310   -3.8383   16.3669 C   0  0  2  0  0  0  0  0  0  0  0  0
   -3.6349   -3.6757   15.0767 N   0  0  0  0  0  0  0  0  0  0  0  0
   -2.4466    1.7001   11.3076 C   0  0  1  0  0  0  0  0  0  0  0  0
   -2.0595    1.9605   12.6813 O   0  0  0  0  0  0  0  0  0  0  0  0
   -4.8069    1.5792   16.3253 C   0  0  2  0  0  0  0  0  0  0  0  0
   -4.4849    2.7907   16.9844 O   0  0  0  0  0  0  0  0  0  0  0  0
   -2.6433   -2.4187   17.0081 C   0  0  2  0  0  0  0  0  0  0  0  0
   -1.4015    2.3302   10.3333 C   0  0  2  0  0  0  0  0  0  0  0  0
   -1.2624    3.7179   10.5671 O   0  0  0  0  0  0  0  0  0  0  0  0
   -5.6715    0.6666   17.2757 C   0  0  2  0  0  0  0  0  0  0  0  0
   -6.0034   -0.5989   16.5879 O   0  0  0  0  0  0  0  0  0  0  0  0
   -1.9099   -2.5764   18.3696 C   0  0  2  0  0  0  0  0  0  0  0  0
   -1.6440   -1.2378   18.8779 O   0  0  0  0  0  0  0  0  0  0  0  0
   -1.8233    2.0512    8.8355 C   0  0  2  0  0  0  0  0  0  0  0  0
   -1.9736    0.5959    8.6067 O   0  0  0  0  0  0  0  0  0  0  0  0
   -6.9542    1.3697   17.7176 C   0  0  0  0  0  0  0  0  0  0  0  0
   -6.6862    2.6729   18.1743 O   0  0  0  0  0  0  0  0  0  0  0  0
   -0.5812   -3.3395   18.1591 C   0  0  1  0  0  0  0  0  0  0  0  0
    0.0614   -3.4740   19.4094 O   0  0  0  0  0  0  0  0  0  0  0  0
   -0.8099    2.6099    7.8481 C   0  0  0  0  0  0  0  0  0  0  0  0
    0.4411    1.9903    8.0249 O   0  0  0  0  0  0  0  0  0  0  0  0
   -3.2112    1.8217   13.5641 C   0  0  0  0  0  0  0  0  0  0  0  0
  1  2  1  1  0  0  0
  1  7  1  0  0  0  0
  1 24  1  0  0  0  0
  3  4  1  6  0  0  0
  3  9  1  0  0  0  0
  3 31  1  0  0  0  0
  5  6  1  1  0  0  0
  5 10  1  0  0  0  0
  5 28  1  0  0  0  0
  7  8  1  1  0  0  0
  7 12  1  0  0  0  0
  9 14  1  0  0  0  0
 10 11  1  1  0  0  0
 10 16  1  0  0  0  0
 12 13  1  6  0  0  0
 12 18  1  0  0  0  0
 13 35  1  0  0  0  0
 14 15  1  6  0  0  0
 14 20  1  0  0  0  0
 16 17  1  1  0  0  0
 16 21  1  0  0  0  0
 17 35  1  0  0  0  0
 18 19  1  1  0  0  0
 18 23  1  0  0  0  0
 20  2  1  1  0  0  0
 20 25  1  0  0  0  0
 21 22  1  6  0  0  0
 21 27  1  0  0  0  0
 23 24  1  0  0  0  0
 23 29  1  6  0  0  0
 25 26  1  6  0  0  0
 25 31  1  0  0  0  0
 27 28  1  0  0  0  0
 27 33  1  6  0  0  0
 29 30  1  0  0  0  0
 31 32  1  1  0  0  0
 33 34  1  0  0  0  0
M  END
>  <CHROM.1>
-56.19440050,51.53583291,-152.15032085,-79.18413387,159.36590757,-61.05896678
-48.21163907,61.98830022,-2.83903542,-0.24976124,14.40823861,1.70080193,-0.81040764
2.12492989

>  <Name>
2o3v_lig

>  <RI>
0

>  <Rbt.Current_Directory>
/home/afrankz/demos/rdock_decoys_rna/rnas/2o3v

>  <Rbt.Executable>
rbdock ($Id: //depot/dev/client3/rdock/2013.1/src/exe/rbdock.cxx#4 $)

>  <Rbt.Library>
libRbt.so (2013.1, Build901 2013/11/27)

>  <Rbt.Parameter_File>
/export/apps/rDock/src/rDock_2013.1_src/data/scripts/dock_solv.prm

>  <Rbt.Receptor>
prm/blind_docking_20.prm

>  <SCORE>
4.0907

>  <SCORE.INTER>
-9.2253

>  <SCORE.INTER.CONST>
1

>  <SCORE.INTER.POLAR>
-0.548051

>  <SCORE.INTER.ROT>
8

>  <SCORE.INTER.SOLV>
19.0944

>  <SCORE.INTER.VDW>
-19.6215

>  <SCORE.INTER.norm>
-0.26358

>  <SCORE.INTRA>
3.84005

>  <SCORE.INTRA.DIHEDRAL>
-5.37243

>  <SCORE.INTRA.DIHEDRAL.0>
13.1227

>  <SCORE.INTRA.POLAR>
0

>  <SCORE.INTRA.POLAR.0>
0

>  <SCORE.INTRA.REPUL>
0.00205855

>  <SCORE.INTRA.REPUL.0>
0

>  <SCORE.INTRA.SOLV>
9.28033

>  <SCORE.INTRA.SOLV.lig_0>
-89.1587

>  <SCORE.INTRA.VDW>
1.87581

>  <SCORE.INTRA.VDW.0>
-0.838383

>  <SCORE.INTRA.norm>
0.109716

>  <SCORE.RESTR>
9.47595

>  <SCORE.RESTR.CAVITY>
9.47595

>  <SCORE.RESTR.norm>
0.270742

>  <SCORE.SYSTEM>
0

>  <SCORE.SYSTEM.CONST>
0

>  <SCORE.SYSTEM.DIHEDRAL>
0

>  <SCORE.SYSTEM.SOLV>
0

>  <SCORE.SYSTEM.norm>
0

>  <SCORE.heavy>
35

>  <SCORE.norm>
0.116877

>  <RMSD>
33.231

$$$$
2o3v_lig
 OpenBabel02141814113D
libRbt.so/2013.1/901 2013/11/27
 35 37  0  0  0  0  0  0  0  0999 V2000
   -4.9228    2.4552   14.7706 C   0  0  2  0  0  0  0  0  0  0  0  0
   -3.7892    2.4431   13.8499 O   0  0  0  0  0  0  0  0  0  0  0  0
   -2.3851    1.0861    9.9622 C   0  0  2  0  0  0  0  0  0  0  0  0
   -2.3109    0.3431    8.6682 N   0  0  0  0  0  0  0  0  0  0  0  0
    0.5433    7.9165   17.0702 C   0  0  2  0  0  0  0  0  0  0  0  0
   -0.4004    8.7854   16.4068 O   0  0  0  0  0  0  0  0  0  0  0  0
   -4.6581    3.7237   15.6419 C   0  0  2  0  0  0  0  0  0  0  0  0
   -4.5841    4.9436   14.8037 N   0  0  0  0  0  0  0  0  0  0  0  0
   -2.3158    0.0689   11.1812 C   0  0  0  0  0  0  0  0  0  0  0  0
   -0.2398    6.6421   17.5402 C   0  0  2  0  0  0  0  0  0  0  0  0
   -0.8950    5.9659   16.3919 N   0  0  0  0  0  0  0  0  0  0  0  0
   -3.3243    3.5775   16.4958 C   0  0  1  0  0  0  0  0  0  0  0  0
   -3.0673    4.8114   17.2831 O   0  0  0  0  0  0  0  0  0  0  0  0
   -2.4083    0.8830   12.5439 C   0  0  2  0  0  0  0  0  0  0  0  0
   -2.3572   -0.0471   13.6923 N   0  0  0  0  0  0  0  0  0  0  0  0
   -1.3142    6.9952   18.6608 C   0  0  1  0  0  0  0  0  0  0  0  0
   -2.0312    5.8279   19.1384 O   0  0  0  0  0  0  0  0  0  0  0  0
   -3.4649    2.2593   17.3768 C   0  0  2  0  0  0  0  0  0  0  0  0
   -2.3058    2.0319   18.1583 O   0  0  0  0  0  0  0  0  0  0  0  0
   -3.7541    1.7176   12.5840 C   0  0  2  0  0  0  0  0  0  0  0  0
   -0.5790    7.6897   19.8506 C   0  0  2  0  0  0  0  0  0  0  0  0
   -1.4889    8.0372   20.8757 O   0  0  0  0  0  0  0  0  0  0  0  0
   -3.7459    1.0084   16.4603 C   0  0  2  0  0  0  0  0  0  0  0  0
   -4.9535    1.2488   15.6426 O   0  0  0  0  0  0  0  0  0  0  0  0
   -3.8164    2.7052   11.3852 C   0  0  2  0  0  0  0  0  0  0  0  0
   -5.0911    3.4051   11.4644 O   0  0  0  0  0  0  0  0  0  0  0  0
    0.2000    8.9645   19.3334 C   0  0  2  0  0  0  0  0  0  0  0  0
    1.1426    8.5882   18.2551 O   0  0  0  0  0  0  0  0  0  0  0  0
   -3.9222   -0.2657   17.2851 C   0  0  0  0  0  0  0  0  0  0  0  0
   -2.7276   -0.6142   17.9411 O   0  0  0  0  0  0  0  0  0  0  0  0
   -3.7231    1.9177   10.0574 C   0  0  1  0  0  0  0  0  0  0  0  0
   -3.7763    2.8367    8.9865 O   0  0  0  0  0  0  0  0  0  0  0  0
    0.9691    9.6509   20.4520 C   0  0  0  0  0  0  0  0  0  0  0  0
    1.5425   10.8499   19.9898 O   0  0  0  0  0  0  0  0  0  0  0  0
   -1.8721    4.7214   18.2028 C   0  0  0  0  0  0  0  0  0  0  0  0
  1  2  1  6  0  0  0
  1  7  1  0  0  0  0
  1 24  1  0  0  0  0
  3  4  1  6  0  0  0
  3  9  1  0  0  0  0
  3 31  1  0  0  0  0
  5  6  1  1  0  0  0
  5 10  1  0  0  0  0
  5 28  1  0  0  0  0
  7  8  1  6  0  0  0
  7 12  1  0  0  0  0
  9 14  1  0  0  0  0
 10 11  1  6  0  0  0
 10 16  1  0  0  0  0
 12 13  1  1  0  0  0
 12 18  1  0  0  0  0
 13 35  1  0  0  0  0
 14 15  1  1  0  0  0
 14 20  1  0  0  0  0
 16 17  1  1  0  0  0
 16 21  1  0  0  0  0
 17 35  1  0  0  0  0
 18 19  1  6  0  0  0
 18 23  1  0  0  0  0
 20  2  1  1  0  0  0
 20 25  1  0  0  0  0
 21 22  1  1  0  0  0
 21 27  1  0  0  0  0
 23 24  1  0  0  0  0
 23 29  1  1  0  0  0
 25 26  1  6  0  0  0
 25 31  1  0  0  0  0
 27 28  1  0  0  0  0
 27 33  1  1  0  0  0
 29 30  1  0  0  0  0
 31 32  1  6  0  0  0
 33 34  1  0  0  0  0
M  END
>  <CHROM.1>
-160.47813551,175.74735103,-163.60866044,-17.04251043,-93.36024311,-130.30407988
-65.56601912,-174.25955965,-2.32840831,4.13076311,15.71906583,2.40740412
-1.12423822,-1.55390898

>  <Name>
2o3v_lig

>  <RI>
0

>  <Rbt.Current_Directory>
/home/afrankz/demos/rdock_decoys_rna/rnas/2o3v

>  <Rbt.Executable>
rbdock ($Id: //depot/dev/client3/rdock/2013.1/src/exe/rbdock.cxx#4 $)

>  <Rbt.Library>
libRbt.so (2013.1, Build901 2013/11/27)

>  <Rbt.Parameter_File>
/export/apps/rDock/src/rDock_2013.1_src/data/scripts/dock_solv.prm

>  <Rbt.Receptor>
prm/blind_docking_100.prm

>  <SCORE>
19.3962

>  <SCORE.INTER>
-3.35233

>  <SCORE.INTER.CONST>
1

>  <SCORE.INTER.POLAR>
-1.07875

>  <SCORE.INTER.ROT>
8

>  <SCORE.INTER.SOLV>
29.5937

>  <SCORE.INTER.VDW>
-17.437

>  <SCORE.INTER.norm>
-0.0957809

>  <SCORE.INTRA>
15.6085

>  <SCORE.INTRA.DIHEDRAL>
6.97586

>  <SCORE.INTRA.DIHEDRAL.0>
13.1227

>  <SCORE.INTRA.POLAR>
0

>  <SCORE.INTRA.POLAR.0>
0

>  <SCORE.INTRA.REPUL>
0

>  <SCORE.INTRA.REPUL.0>
0

>  <SCORE.INTRA.SOLV>
4.25164

>  <SCORE.INTRA.SOLV.lig_0>
-89.1587

>  <SCORE.INTRA.VDW>
9.99475

>  <SCORE.INTRA.VDW.0>
-0.838383

>  <SCORE.INTRA.norm>
0.445957

>  <SCORE.RESTR>
7.14004

>  <SCORE.RESTR.CAVITY>
7.14004

>  <SCORE.RESTR.norm>
0.204001

>  <SCORE.SYSTEM>
0

>  <SCORE.SYSTEM.CONST>
0

>  <SCORE.SYSTEM.DIHEDRAL>
0

>  <SCORE.SYSTEM.SOLV>
0

>  <SCORE.SYSTEM.norm>
0

>  <SCORE.heavy>
35

>  <SCORE.norm>
0.554177

>  <RMSD>
33.277

$$$$
2o3v_lig
 OpenBabel02141814113D
libRbt.so/2013.1/901 2013/11/27
 35 37  0  0  0  0  0  0  0  0999 V2000
   -4.2989    1.8044   14.8640 C   0  0  2  0  0  0  0  0  0  0  0  0
   -3.1301    2.1789   14.0726 O   0  0  0  0  0  0  0  0  0  0  0  0
   -4.1748    1.1136    9.9859 C   0  0  2  0  0  0  0  0  0  0  0  0
   -4.1252    1.0139    8.4960 N   0  0  0  0  0  0  0  0  0  0  0  0
   -0.0106    8.5573   15.0519 C   0  0  2  0  0  0  0  0  0  0  0  0
   -0.9861    9.5326   15.4794 O   0  0  0  0  0  0  0  0  0  0  0  0
   -4.3940    2.9510   15.9198 C   0  0  2  0  0  0  0  0  0  0  0  0
   -4.5416    4.2720   15.2645 N   0  0  0  0  0  0  0  0  0  0  0  0
   -4.3275    2.6327   10.4270 C   0  0  0  0  0  0  0  0  0  0  0  0
   -0.7170    7.1576   15.0425 C   0  0  2  0  0  0  0  0  0  0  0  0
   -1.9079    7.1679   14.1556 N   0  0  0  0  0  0  0  0  0  0  0  0
   -3.1264    2.9670   16.8802 C   0  0  1  0  0  0  0  0  0  0  0  0
   -3.2150    4.0914   17.8478 O   0  0  0  0  0  0  0  0  0  0  0  0
   -4.3659    2.7119   12.0147 C   0  0  2  0  0  0  0  0  0  0  0  0
   -4.4962    4.1199   12.4471 N   0  0  0  0  0  0  0  0  0  0  0  0
   -1.1248    6.6976   16.5112 C   0  0  1  0  0  0  0  0  0  0  0  0
   -1.7511    5.3893   16.5359 O   0  0  0  0  0  0  0  0  0  0  0  0
   -3.0239    1.5303   17.5577 C   0  0  2  0  0  0  0  0  0  0  0  0
   -1.9022    1.4413   18.4177 O   0  0  0  0  0  0  0  0  0  0  0  0
   -3.0444    2.0812   12.6189 C   0  0  2  0  0  0  0  0  0  0  0  0
    0.1582    6.6885   17.4015 C   0  0  2  0  0  0  0  0  0  0  0  0
   -0.1461    6.2963   18.7255 O   0  0  0  0  0  0  0  0  0  0  0  0
   -2.9455    0.4041   16.4580 C   0  0  2  0  0  0  0  0  0  0  0  0
   -4.1147    0.5007   15.5590 O   0  0  0  0  0  0  0  0  0  0  0  0
   -2.8997    0.5978   12.1775 C   0  0  2  0  0  0  0  0  0  0  0  0
   -1.6498    0.0986   12.7338 O   0  0  0  0  0  0  0  0  0  0  0  0
    0.8405    8.1144   17.3795 C   0  0  2  0  0  0  0  0  0  0  0  0
    1.1459    8.5164   15.9874 O   0  0  0  0  0  0  0  0  0  0  0  0
   -2.8839   -0.9892   17.0824 C   0  0  0  0  0  0  0  0  0  0  0  0
   -1.9930   -1.8206   16.3796 O   0  0  0  0  0  0  0  0  0  0  0  0
   -2.8655    0.5157   10.6334 C   0  0  1  0  0  0  0  0  0  0  0  0
   -2.7395   -0.8401   10.2594 O   0  0  0  0  0  0  0  0  0  0  0  0
    2.1213    8.1423   18.1997 C   0  0  0  0  0  0  0  0  0  0  0  0
    2.7937    9.3651   18.0189 O   0  0  0  0  0  0  0  0  0  0  0  0
   -3.0320    5.4571   17.2285 C   0  0  0  0  0  0  0  0  0  0  0  0
  1  2  1  6  0  0  0
  1  7  1  0  0  0  0
  1 24  1  0  0  0  0
  3  4  1  6  0  0  0
  3  9  1  0  0  0  0
  3 31  1  0  0  0  0
  5  6  1  1  0  0  0
  5 10  1  0  0  0  0
  5 28  1  0  0  0  0
  7  8  1  6  0  0  0
  7 12  1  0  0  0  0
  9 14  1  0  0  0  0
 10 11  1  6  0  0  0
 10 16  1  0  0  0  0
 12 13  1  1  0  0  0
 12 18  1  0  0  0  0
 13 35  1  0  0  0  0
 14 15  1  6  0  0  0
 14 20  1  0  0  0  0
 16 17  1  6  0  0  0
 16 21  1  0  0  0  0
 17 35  1  0  0  0  0
 18 19  1  6  0  0  0
 18 23  1  0  0  0  0
 20  2  1  1  0  0  0
 20 25  1  0  0  0  0
 21 22  1  1  0  0  0
 21 27  1  0  0  0  0
 23 24  1  0  0  0  0
 23 29  1  1  0  0  0
 25 26  1  1  0  0  0
 25 31  1  0  0  0  0
 27 28  1  0  0  0  0
 27 33  1  1  0  0  0
 29 30  1  0  0  0  0
 31 32  1  1  0  0  0
 33 34  1  0  0  0  0
M  END
>  <CHROM.1>
-138.21721370,-70.36941394,-55.16532162,-126.62618804,-150.01396856,47.17077308
-140.55916488,172.29112933,-2.15573978,3.73148776,15.01575596,3.08050838
-1.15460703,-1.06792355

>  <Name>
2o3v_lig

>  <RI>
0

>  <Rbt.Current_Directory>
/home/afrankz/demos/rdock_decoys_rna/rnas/2o3v

>  <Rbt.Executable>
rbdock ($Id: //depot/dev/client3/rdock/2013.1/src/exe/rbdock.cxx#4 $)

>  <Rbt.Library>
libRbt.so (2013.1, Build901 2013/11/27)

>  <Rbt.Parameter_File>
/export/apps/rDock/src/rDock_2013.1_src/data/scripts/dock_solv.prm

>  <Rbt.Receptor>
prm/blind_docking_20.prm

>  <SCORE>
11.2456

>  <SCORE.INTER>
-0.53194

>  <SCORE.INTER.CONST>
1

>  <SCORE.INTER.POLAR>
-1.64929

>  <SCORE.INTER.ROT>
8

>  <SCORE.INTER.SOLV>
29.763

>  <SCORE.INTER.VDW>
-13.7113

>  <SCORE.INTER.norm>
-0.0151983

>  <SCORE.INTRA>
5.46475

>  <SCORE.INTRA.DIHEDRAL>
8.66901

>  <SCORE.INTRA.DIHEDRAL.0>
13.1227

>  <SCORE.INTRA.POLAR>
0

>  <SCORE.INTRA.POLAR.0>
0

>  <SCORE.INTRA.REPUL>
0.112934

>  <SCORE.INTRA.REPUL.0>
0

>  <SCORE.INTRA.SOLV>
3.94741

>  <SCORE.INTRA.SOLV.lig_0>
-89.1587

>  <SCORE.INTRA.VDW>
-1.40813

>  <SCORE.INTRA.VDW.0>
-0.838383

>  <SCORE.INTRA.norm>
0.156136

>  <SCORE.RESTR>
6.31274

>  <SCORE.RESTR.CAVITY>
6.31274

>  <SCORE.RESTR.norm>
0.180364

>  <SCORE.SYSTEM>
0

>  <SCORE.SYSTEM.CONST>
0

>  <SCORE.SYSTEM.DIHEDRAL>
0

>  <SCORE.SYSTEM.SOLV>
0

>  <SCORE.SYSTEM.norm>
0

>  <SCORE.heavy>
35

>  <SCORE.norm>
0.321302

>  <RMSD>
33.773

$$$$
2o3v_lig
 OpenBabel02141814113D
libRbt.so/2013.1/901 2013/11/27
 35 37  0  0  0  0  0  0  0  0999 V2000
   -3.1507    3.9774   17.0321 C   0  0  2  0  0  0  0  0  0  0  0  0
   -4.1444    4.9115   17.5543 O   0  0  0  0  0  0  0  0  0  0  0  0
   -4.8148    6.5808   21.5156 C   0  0  2  0  0  0  0  0  0  0  0  0
   -5.2400    6.7040   22.9425 N   0  0  0  0  0  0  0  0  0  0  0  0
   -3.0359    0.9534    8.3192 C   0  0  2  0  0  0  0  0  0  0  0  0
   -1.7497    1.5785    8.1181 O   0  0  0  0  0  0  0  0  0  0  0  0
   -3.1900    4.2417   15.4936 C   0  0  2  0  0  0  0  0  0  0  0  0
   -2.8699    5.6553   15.1844 N   0  0  0  0  0  0  0  0  0  0  0  0
   -6.0789    6.3168   20.5895 C   0  0  0  0  0  0  0  0  0  0  0  0
   -3.9345    1.9680    9.1075 C   0  0  2  0  0  0  0  0  0  0  0  0
   -4.0575    3.2527    8.3731 N   0  0  0  0  0  0  0  0  0  0  0  0
   -4.6043    3.8634   14.8722 C   0  0  1  0  0  0  0  0  0  0  0  0
   -4.6356    4.1637   13.4171 O   0  0  0  0  0  0  0  0  0  0  0  0
   -5.5983    6.1782   19.0802 C   0  0  2  0  0  0  0  0  0  0  0  0
   -6.7596    5.9204   18.2019 N   0  0  0  0  0  0  0  0  0  0  0  0
   -3.3793    2.2220   10.5779 C   0  0  1  0  0  0  0  0  0  0  0  0
   -4.2111    3.1324   11.3422 O   0  0  0  0  0  0  0  0  0  0  0  0
   -4.8892    2.3387   15.2297 C   0  0  2  0  0  0  0  0  0  0  0  0
   -6.1472    1.9164   14.7348 O   0  0  0  0  0  0  0  0  0  0  0  0
   -4.5518    4.9958   18.9533 C   0  0  2  0  0  0  0  0  0  0  0  0
   -3.2806    0.8485   11.3143 C   0  0  2  0  0  0  0  0  0  0  0  0
   -2.7811    1.0116   12.6271 O   0  0  0  0  0  0  0  0  0  0  0  0
   -4.8248    2.1144   16.7883 C   0  0  2  0  0  0  0  0  0  0  0  0
   -3.5130    2.5591   17.3038 O   0  0  0  0  0  0  0  0  0  0  0  0
   -3.3219    5.2590   19.8666 C   0  0  2  0  0  0  0  0  0  0  0  0
   -2.4265    4.1185   19.7294 O   0  0  0  0  0  0  0  0  0  0  0  0
   -2.3714   -0.1442   10.4853 C   0  0  2  0  0  0  0  0  0  0  0  0
   -2.9005   -0.2992    9.1109 O   0  0  0  0  0  0  0  0  0  0  0  0
   -5.0583    0.6498   17.1563 C   0  0  0  0  0  0  0  0  0  0  0  0
   -4.0112   -0.1639   16.6868 O   0  0  0  0  0  0  0  0  0  0  0  0
   -3.7854    5.3980   21.3356 C   0  0  1  0  0  0  0  0  0  0  0  0
   -2.6520    5.6416   22.1420 O   0  0  0  0  0  0  0  0  0  0  0  0
   -2.2810   -1.5128   11.1430 C   0  0  0  0  0  0  0  0  0  0  0  0
   -1.4008   -2.3447   10.4266 O   0  0  0  0  0  0  0  0  0  0  0  0
   -3.5737    3.4492   12.6144 C   0  0  0  0  0  0  0  0  0  0  0  0
  1  2  1  1  0  0  0
  1  7  1  0  0  0  0
  1 24  1  0  0  0  0
  3  4  1  1  0  0  0
  3  9  1  0  0  0  0
  3 31  1  0  0  0  0
  5  6  1  1  0  0  0
  5 10  1  0  0  0  0
  5 28  1  0  0  0  0
  7  8  1  1  0  0  0
  7 12  1  0  0  0  0
  9 14  1  0  0  0  0
 10 11  1  6  0  0  0
 10 16  1  0  0  0  0
 12 13  1  6  0  0  0
 12 18  1  0  0  0  0
 13 35  1  0  0  0  0
 14 15  1  6  0  0  0
 14 20  1  0  0  0  0
 16 17  1  1  0  0  0
 16 21  1  0  0  0  0
 17 35  1  0  0  0  0
 18 19  1  1  0  0  0
 18 23  1  0  0  0  0
 20  2  1  6  0  0  0
 20 25  1  0  0  0  0
 21 22  1  1  0  0  0
 21 27  1  0  0  0  0
 23 24  1  0  0  0  0
 23 29  1  6  0  0  0
 25 26  1  1  0  0  0
 25 31  1  0  0  0  0
 27 28  1  0  0  0  0
 27 33  1  1  0  0  0
 29 30  1  0  0  0  0
 31 32  1  1  0  0  0
 33 34  1  0  0  0  0
M  END
>  <CHROM.1>
175.79946211,58.19437643,144.09486816,-173.30935033,-169.13743406,177.64895725
66.18990235,-176.37608110,-3.83897546,3.01828806,15.08560835,-2.00852190
1.25472077,-1.57768137

>  <Name>
2o3v_lig

>  <RI>
0

>  <Rbt.Current_Directory>
/home/afrankz/demos/rdock_decoys_rna/rnas/2o3v

>  <Rbt.Executable>
rbdock ($Id: //depot/dev/client3/rdock/2013.1/src/exe/rbdock.cxx#4 $)

>  <Rbt.Library>
libRbt.so (2013.1, Build901 2013/11/27)

>  <Rbt.Parameter_File>
/export/apps/rDock/src/rDock_2013.1_src/data/scripts/dock_solv.prm

>  <Rbt.Receptor>
prm/blind_docking_100.prm

>  <SCORE>
17.9362

>  <SCORE.INTER>
17.6052

>  <SCORE.INTER.CONST>
1

>  <SCORE.INTER.POLAR>
-0.885053

>  <SCORE.INTER.ROT>
8

>  <SCORE.INTER.SOLV>
31.1796

>  <SCORE.INTER.VDW>
-4.63954

>  <SCORE.INTER.norm>
0.503007

>  <SCORE.INTRA>
-2.43973

>  <SCORE.INTRA.DIHEDRAL>
-7.26988

>  <SCORE.INTRA.DIHEDRAL.0>
13.1227

>  <SCORE.INTRA.POLAR>
0

>  <SCORE.INTRA.POLAR.0>
0

>  <SCORE.INTRA.REPUL>
0

>  <SCORE.INTRA.REPUL.0>
0

>  <SCORE.INTRA.SOLV>
-0.738273

>  <SCORE.INTRA.SOLV.lig_0>
-89.1587

>  <SCORE.INTRA.VDW>
1.56434

>  <SCORE.INTRA.VDW.0>
-0.838383

>  <SCORE.INTRA.norm>
-0.0697067

>  <SCORE.RESTR>
2.77072

>  <SCORE.RESTR.CAVITY>
2.77072

>  <SCORE.RESTR.norm>
0.0791635

>  <SCORE.SYSTEM>
0

>  <SCORE.SYSTEM.CONST>
0

>  <SCORE.SYSTEM.DIHEDRAL>
0

>  <SCORE.SYSTEM.SOLV>
0

>  <SCORE.SYSTEM.norm>
0

>  <SCORE.heavy>
35

>  <SCORE.norm>
0.512463

>  <RMSD>
33.782

$$$$
2o3v_lig
 OpenBabel02141814113D
libRbt.so/2013.1/901 2013/11/27
 35 37  0  0  0  0  0  0  0  0999 V2000
   -2.8814    3.9522   17.2260 C   0  0  2  0  0  0  0  0  0  0  0  0
   -4.0821    4.7166   17.5528 O   0  0  0  0  0  0  0  0  0  0  0  0
   -4.9755    6.7962   21.2681 C   0  0  2  0  0  0  0  0  0  0  0  0
   -5.4886    7.0718   22.6440 N   0  0  0  0  0  0  0  0  0  0  0  0
   -1.5470    0.7695   10.6201 C   0  0  2  0  0  0  0  0  0  0  0  0
   -2.2385   -0.4711   10.8814 O   0  0  0  0  0  0  0  0  0  0  0  0
   -2.7622    4.1240   15.6785 C   0  0  2  0  0  0  0  0  0  0  0  0
   -2.6537    5.5540   15.3049 N   0  0  0  0  0  0  0  0  0  0  0  0
   -6.1824    6.4496   20.2942 C   0  0  0  0  0  0  0  0  0  0  0  0
   -2.3589    1.9167   11.3152 C   0  0  2  0  0  0  0  0  0  0  0  0
   -2.4994    1.6629   12.7715 N   0  0  0  0  0  0  0  0  0  0  0  0
   -3.9948    3.4634   14.9211 C   0  0  1  0  0  0  0  0  0  0  0  0
   -3.8849    3.6763   13.4545 O   0  0  0  0  0  0  0  0  0  0  0  0
   -5.6090    6.1496   18.8417 C   0  0  2  0  0  0  0  0  0  0  0  0
   -6.7162    5.8130   17.9212 N   0  0  0  0  0  0  0  0  0  0  0  0
   -3.7909    2.1087   10.6463 C   0  0  1  0  0  0  0  0  0  0  0  0
   -4.5516    3.1871   11.2487 O   0  0  0  0  0  0  0  0  0  0  0  0
   -4.0559    1.9332   15.3551 C   0  0  2  0  0  0  0  0  0  0  0  0
   -5.1451    1.2643   14.7451 O   0  0  0  0  0  0  0  0  0  0  0  0
   -4.5762    4.9502   18.9060 C   0  0  2  0  0  0  0  0  0  0  0  0
   -3.5925    2.3863    9.1224 C   0  0  2  0  0  0  0  0  0  0  0  0
   -4.8365    2.5553    8.4715 O   0  0  0  0  0  0  0  0  0  0  0  0
   -4.1603    1.8062   16.9225 C   0  0  2  0  0  0  0  0  0  0  0  0
   -3.0252    2.5079   17.5577 O   0  0  0  0  0  0  0  0  0  0  0  0
   -3.4027    5.2951   19.8653 C   0  0  2  0  0  0  0  0  0  0  0  0
   -2.5194    4.1379   19.9053 O   0  0  0  0  0  0  0  0  0  0  0  0
   -2.7672    1.2104    8.4626 C   0  0  2  0  0  0  0  0  0  0  0  0
   -1.4714    1.0387    9.1585 O   0  0  0  0  0  0  0  0  0  0  0  0
   -4.1831    0.3449   17.3686 C   0  0  0  0  0  0  0  0  0  0  0  0
   -2.9864   -0.3091   17.0235 O   0  0  0  0  0  0  0  0  0  0  0  0
   -3.9564    5.5911   21.2788 C   0  0  1  0  0  0  0  0  0  0  0  0
   -2.8728    5.9064   22.1277 O   0  0  0  0  0  0  0  0  0  0  0  0
   -2.5107    1.4585    6.9838 C   0  0  0  0  0  0  0  0  0  0  0  0
   -1.7101    2.6024    6.8095 O   0  0  0  0  0  0  0  0  0  0  0  0
   -4.8649    2.8684   12.6363 C   0  0  0  0  0  0  0  0  0  0  0  0
  1  2  1  6  0  0  0
  1  7  1  0  0  0  0
  1 24  1  0  0  0  0
  3  4  1  1  0  0  0
  3  9  1  0  0  0  0
  3 31  1  0  0  0  0
  5  6  1  6  0  0  0
  5 10  1  0  0  0  0
  5 28  1  0  0  0  0
  7  8  1  1  0  0  0
  7 12  1  0  0  0  0
  9 14  1  0  0  0  0
 10 11  1  1  0  0  0
 10 16  1  0  0  0  0
 12 13  1  6  0  0  0
 12 18  1  0  0  0  0
 13 35  1  0  0  0  0
 14 15  1  6  0  0  0
 14 20  1  0  0  0  0
 16 17  1  1  0  0  0
 16 21  1  0  0  0  0
 17 35  1  0  0  0  0
 18 19  1  6  0  0  0
 18 23  1  0  0  0  0
 20  2  1  6  0  0  0
 20 25  1  0  0  0  0
 21 22  1  6  0  0  0
 21 27  1  0  0  0  0
 23 24  1  0  0  0  0
 23 29  1  6  0  0  0
 25 26  1  1  0  0  0
 25 31  1  0  0  0  0
 27 28  1  0  0  0  0
 27 33  1  6  0  0  0
 29 30  1  0  0  0  0
 31 32  1  1  0  0  0
 33 34  1  0  0  0  0
M  END
>  <CHROM.1>
-175.36678062,169.11341235,-177.90369630,-64.93931033,102.27846279,163.30436253
62.85881432,63.66322460,-3.66386048,3.23064002,14.95314158,-1.90823767,1.15378176
-1.59361850

>  <Name>
2o3v_lig

>  <RI>
0

>  <Rbt.Current_Directory>
/home/afrankz/demos/rdock_decoys_rna/rnas/2o3v

>  <Rbt.Executable>
rbdock ($Id: //depot/dev/client3/rdock/2013.1/src/exe/rbdock.cxx#4 $)

>  <Rbt.Library>
libRbt.so (2013.1, Build901 2013/11/27)

>  <Rbt.Parameter_File>
/export/apps/rDock/src/rDock_2013.1_src/data/scripts/dock_solv.prm

>  <Rbt.Receptor>
prm/blind_docking_100.prm

>  <SCORE>
-4.22665

>  <SCORE.INTER>
-8.56936

>  <SCORE.INTER.CONST>
1

>  <SCORE.INTER.POLAR>
-0.472659

>  <SCORE.INTER.ROT>
8

>  <SCORE.INTER.SOLV>
27.5153

>  <SCORE.INTER.VDW>
-22.2425

>  <SCORE.INTER.norm>
-0.244839

>  <SCORE.INTRA>
1.28991

>  <SCORE.INTRA.DIHEDRAL>
-5.12656

>  <SCORE.INTRA.DIHEDRAL.0>
13.1227

>  <SCORE.INTRA.POLAR>
0

>  <SCORE.INTRA.POLAR.0>
0

>  <SCORE.INTRA.REPUL>
0

>  <SCORE.INTRA.REPUL.0>
0

>  <SCORE.INTRA.SOLV>
3.40338

>  <SCORE.INTRA.SOLV.lig_0>
-89.1587

>  <SCORE.INTRA.VDW>
2.1515

>  <SCORE.INTRA.VDW.0>
-0.838383

>  <SCORE.INTRA.norm>
0.0368546

>  <SCORE.RESTR>
3.0528

>  <SCORE.RESTR.CAVITY>
3.0528

>  <SCORE.RESTR.norm>
0.0872229

>  <SCORE.SYSTEM>
0

>  <SCORE.SYSTEM.CONST>
0

>  <SCORE.SYSTEM.DIHEDRAL>
0

>  <SCORE.SYSTEM.SOLV>
0

>  <SCORE.SYSTEM.norm>
0

>  <SCORE.heavy>
35

>  <SCORE.norm>
-0.120761

>  <RMSD>
33.907

$$$$
2o3v_lig
 OpenBabel02141814113D
libRbt.so/2013.1/901 2013/11/27
 35 37  0  0  0  0  0  0  0  0999 V2000
   -4.4048    0.9283   16.9013 C   0  0  2  0  0  0  0  0  0  0  0  0
   -3.3710   -0.1031   16.9097 O   0  0  0  0  0  0  0  0  0  0  0  0
   -2.8765   -4.4240   16.7991 C   0  0  2  0  0  0  0  0  0  0  0  0
   -3.0819   -5.8766   17.0825 N   0  0  0  0  0  0  0  0  0  0  0  0
   -2.9491    0.0299    8.5249 C   0  0  2  0  0  0  0  0  0  0  0  0
   -4.2456    0.6510    8.3871 O   0  0  0  0  0  0  0  0  0  0  0  0
   -4.3731    1.4498   15.4297 C   0  0  2  0  0  0  0  0  0  0  0  0
   -4.6437    0.3556   14.4675 N   0  0  0  0  0  0  0  0  0  0  0  0
   -2.4789   -3.6579   18.1334 C   0  0  0  0  0  0  0  0  0  0  0  0
   -2.4936    0.2160   10.0136 C   0  0  2  0  0  0  0  0  0  0  0  0
   -3.4851   -0.3695   10.9512 N   0  0  0  0  0  0  0  0  0  0  0  0
   -2.9811    2.1368   15.0836 C   0  0  1  0  0  0  0  0  0  0  0  0
   -2.9552    2.5860   13.6673 O   0  0  0  0  0  0  0  0  0  0  0  0
   -2.2779   -2.1147   17.8069 C   0  0  2  0  0  0  0  0  0  0  0  0
   -1.9181   -1.3805   19.0390 N   0  0  0  0  0  0  0  0  0  0  0  0
   -2.2412    1.7490   10.3614 C   0  0  1  0  0  0  0  0  0  0  0  0
   -1.7861    1.9476   11.7245 O   0  0  0  0  0  0  0  0  0  0  0  0
   -2.7494    3.3031   16.1419 C   0  0  2  0  0  0  0  0  0  0  0  0
   -1.5138    3.9608   15.9264 O   0  0  0  0  0  0  0  0  0  0  0  0
   -3.6082   -1.5157   17.1899 C   0  0  2  0  0  0  0  0  0  0  0  0
   -1.1845    2.3163    9.3613 C   0  0  2  0  0  0  0  0  0  0  0  0
   -0.9273    3.6831    9.6165 O   0  0  0  0  0  0  0  0  0  0  0  0
   -2.8044    2.7360   17.6113 C   0  0  2  0  0  0  0  0  0  0  0  0
   -4.0928    2.0466   17.8334 O   0  0  0  0  0  0  0  0  0  0  0  0
   -3.9931   -2.2746   15.8891 C   0  0  2  0  0  0  0  0  0  0  0  0
   -5.2397   -1.6995   15.4030 O   0  0  0  0  0  0  0  0  0  0  0  0
   -1.6800    2.1047    7.8750 C   0  0  2  0  0  0  0  0  0  0  0  0
   -1.9536    0.6712    7.6239 O   0  0  0  0  0  0  0  0  0  0  0  0
   -2.6217    3.8427   18.6490 C   0  0  0  0  0  0  0  0  0  0  0  0
   -1.4707    4.6052   18.3795 O   0  0  0  0  0  0  0  0  0  0  0  0
   -4.1862   -3.7770   16.2015 C   0  0  1  0  0  0  0  0  0  0  0  0
   -4.5291   -4.4432   15.0045 O   0  0  0  0  0  0  0  0  0  0  0  0
   -0.6610    2.6036    6.8617 C   0  0  0  0  0  0  0  0  0  0  0  0
    0.5735    1.9539    7.0461 O   0  0  0  0  0  0  0  0  0  0  0  0
   -2.7902    1.4670   12.6658 C   0  0  0  0  0  0  0  0  0  0  0  0
  1  2  1  6  0  0  0
  1  7  1  0  0  0  0
  1 24  1  0  0  0  0
  3  4  1  1  0  0  0
  3  9  1  0  0  0  0
  3 31  1  0  0  0  0
  5  6  1  1  0  0  0
  5 10  1  0  0  0  0
  5 28  1  0  0  0  0
  7  8  1  6  0  0  0
  7 12  1  0  0  0  0
  9 14  1  0  0  0  0
 10 11  1  1  0  0  0
 10 16  1  0  0  0  0
 12 13  1  6  0  0  0
 12 18  1  0  0  0  0
 13 35  1  0  0  0  0
 14 15  1  1  0  0  0
 14 20  1  0  0  0  0
 16 17  1  1  0  0  0
 16 21  1  0  0  0  0
 17 35  1  0  0  0  0
 18 19  1  6  0  0  0
 18 23  1  0  0  0  0
 20  2  1  6  0  0  0
 20 25  1  0  0  0  0
 21 22  1  1  0  0  0
 21 27  1  0  0  0  0
 23 24  1  0  0  0  0
 23 29  1  1  0  0  0
 25 26  1  1  0  0  0
 25 31  1  0  0  0  0
 27 28  1  0  0  0  0
 27 33  1  6  0  0  0
 29 30  1  0  0  0  0
 31 32  1  6  0  0  0
 33 34  1  0  0  0  0
M  END
>  <CHROM.1>
-118.19431771,-74.71842339,-134.80349879,-61.02908663,-131.49503002,-151.87908171
-51.91440488,57.57714882,-2.78586973,0.49834966,13.85943829,-2.38056022,-1.33384702
-2.05011843

>  <Name>
2o3v_lig

>  <RI>
0

>  <Rbt.Current_Directory>
/home/afrankz/demos/rdock_decoys_rna/rnas/2o3v

>  <Rbt.Executable>
rbdock ($Id: //depot/dev/client3/rdock/2013.1/src/exe/rbdock.cxx#4 $)

>  <Rbt.Library>
libRbt.so (2013.1, Build901 2013/11/27)

>  <Rbt.Parameter_File>
/export/apps/rDock/src/rDock_2013.1_src/data/scripts/dock_solv.prm

>  <Rbt.Receptor>
prm/blind_docking_20.prm

>  <SCORE>
1.23225

>  <SCORE.INTER>
-17.3362

>  <SCORE.INTER.CONST>
1

>  <SCORE.INTER.POLAR>
-1.94875

>  <SCORE.INTER.ROT>
8

>  <SCORE.INTER.SOLV>
20.7309

>  <SCORE.INTER.VDW>
-20.9052

>  <SCORE.INTER.norm>
-0.495319

>  <SCORE.INTRA>
11.7899

>  <SCORE.INTRA.DIHEDRAL>
11.3427

>  <SCORE.INTRA.DIHEDRAL.0>
13.1227

>  <SCORE.INTRA.POLAR>
0

>  <SCORE.INTRA.POLAR.0>
0

>  <SCORE.INTRA.REPUL>
0.206883

>  <SCORE.INTRA.REPUL.0>
0

>  <SCORE.INTRA.SOLV>
3.84455

>  <SCORE.INTRA.SOLV.lig_0>
-89.1587

>  <SCORE.INTRA.VDW>
3.16182

>  <SCORE.INTRA.VDW.0>
-0.838383

>  <SCORE.INTRA.norm>
0.336854

>  <SCORE.RESTR>
6.77854

>  <SCORE.RESTR.CAVITY>
6.77854

>  <SCORE.RESTR.norm>
0.193673

>  <SCORE.SYSTEM>
0

>  <SCORE.SYSTEM.CONST>
0

>  <SCORE.SYSTEM.DIHEDRAL>
0

>  <SCORE.SYSTEM.SOLV>
0

>  <SCORE.SYSTEM.norm>
0

>  <SCORE.heavy>
35

>  <SCORE.norm>
0.0352072

>  <RMSD>
33.976

$$$$
2o3v_lig
 OpenBabel02141814113D
libRbt.so/2013.1/901 2013/11/27
 35 37  0  0  0  0  0  0  0  0999 V2000
   -4.5774    2.8418   17.8854 C   0  0  2  0  0  0  0  0  0  0  0  0
   -4.5179    4.2756   17.6145 O   0  0  0  0  0  0  0  0  0  0  0  0
   -4.5657    6.1735   21.5290 C   0  0  2  0  0  0  0  0  0  0  0  0
   -4.4225    7.2056   22.5997 N   0  0  0  0  0  0  0  0  0  0  0  0
   -2.9266   -0.4093    8.8509 C   0  0  2  0  0  0  0  0  0  0  0  0
   -4.3194   -0.0477    8.7294 O   0  0  0  0  0  0  0  0  0  0  0  0
   -3.5104    2.2523   16.9095 C   0  0  2  0  0  0  0  0  0  0  0  0
   -2.1708    2.8316   17.1666 N   0  0  0  0  0  0  0  0  0  0  0  0
   -3.1570    5.8918   20.8496 C   0  0  0  0  0  0  0  0  0  0  0  0
   -2.5505   -0.3306   10.3710 C   0  0  2  0  0  0  0  0  0  0  0  0
   -3.4210   -1.2194   11.1817 N   0  0  0  0  0  0  0  0  0  0  0  0
   -3.9150    2.4893   15.3897 C   0  0  1  0  0  0  0  0  0  0  0  0
   -2.8665    1.9610   14.4788 O   0  0  0  0  0  0  0  0  0  0  0  0
   -3.3391    4.8003   19.7077 C   0  0  2  0  0  0  0  0  0  0  0  0
   -2.0403    4.5316   19.0540 N   0  0  0  0  0  0  0  0  0  0  0  0
   -2.6246    1.1635   10.9159 C   0  0  1  0  0  0  0  0  0  0  0  0
   -2.2488    1.2705   12.3131 O   0  0  0  0  0  0  0  0  0  0  0  0
   -5.3532    1.8424   15.1733 C   0  0  2  0  0  0  0  0  0  0  0  0
   -5.8102    2.0270   13.8455 O   0  0  0  0  0  0  0  0  0  0  0  0
   -4.3882    5.3101   18.6359 C   0  0  2  0  0  0  0  0  0  0  0  0
   -1.6853    2.0558   10.0441 C   0  0  2  0  0  0  0  0  0  0  0  0
   -1.7186    3.4015   10.4771 O   0  0  0  0  0  0  0  0  0  0  0  0
   -6.3934    2.4540   16.1869 C   0  0  2  0  0  0  0  0  0  0  0  0
   -5.9132    2.2641   17.5718 O   0  0  0  0  0  0  0  0  0  0  0  0
   -5.7609    5.5889   19.3098 C   0  0  2  0  0  0  0  0  0  0  0  0
   -6.6583    6.0895   18.2777 O   0  0  0  0  0  0  0  0  0  0  0  0
   -2.0952    1.9441    8.5214 C   0  0  2  0  0  0  0  0  0  0  0  0
   -2.0644    0.5298    8.0835 O   0  0  0  0  0  0  0  0  0  0  0  0
   -7.7754    1.8225   16.0250 C   0  0  0  0  0  0  0  0  0  0  0  0
   -8.5576    2.0122   17.1787 O   0  0  0  0  0  0  0  0  0  0  0  0
   -5.5878    6.6478   20.4238 C   0  0  1  0  0  0  0  0  0  0  0  0
   -6.8457    6.8784   21.0225 O   0  0  0  0  0  0  0  0  0  0  0  0
   -1.1786    2.7641    7.6262 C   0  0  0  0  0  0  0  0  0  0  0  0
    0.1152    2.2111    7.6100 O   0  0  0  0  0  0  0  0  0  0  0  0
   -3.1575    2.1714   13.0114 C   0  0  0  0  0  0  0  0  0  0  0  0
  1  2  1  6  0  0  0
  1  7  1  0  0  0  0
  1 24  1  0  0  0  0
  3  4  1  1  0  0  0
  3  9  1  0  0  0  0
  3 31  1  0  0  0  0
  5  6  1  1  0  0  0
  5 10  1  0  0  0  0
  5 28  1  0  0  0  0
  7  8  1  1  0  0  0
  7 12  1  0  0  0  0
  9 14  1  0  0  0  0
 10 11  1  1  0  0  0
 10 16  1  0  0  0  0
 12 13  1  6  0  0  0
 12 18  1  0  0  0  0
 13 35  1  0  0  0  0
 14 15  1  6  0  0  0
 14 20  1  0  0  0  0
 16 17  1  1  0  0  0
 16 21  1  0  0  0  0
 17 35  1  0  0  0  0
 18 19  1  6  0  0  0
 18 23  1  0  0  0  0
 20  2  1  6  0  0  0
 20 25  1  0  0  0  0
 21 22  1  1  0  0  0
 21 27  1  0  0  0  0
 23 24  1  0  0  0  0
 23 29  1  1  0  0  0
 25 26  1  6  0  0  0
 25 31  1  0  0  0  0
 27 28  1  0  0  0  0
 27 33  1  6  0  0  0
 29 30  1  0  0  0  0
 31 32  1  1  0  0  0
 33 34  1  0  0  0  0
M  END
>  <CHROM.1>
-130.04849438,-178.77349403,-164.03558567,-137.62325201,167.69444440,41.34264816
159.85022600,67.73637432,-3.95895054,2.95132483,14.92720161,1.85306325,0.47329865
1.05536770

>  <Name>
2o3v_lig

>  <RI>
0

>  <Rbt.Current_Directory>
/home/afrankz/demos/rdock_decoys_rna/rnas/2o3v

>  <Rbt.Executable>
rbdock ($Id: //depot/dev/client3/rdock/2013.1/src/exe/rbdock.cxx#4 $)

>  <Rbt.Library>
libRbt.so (2013.1, Build901 2013/11/27)

>  <Rbt.Parameter_File>
/export/apps/rDock/src/rDock_2013.1_src/data/scripts/dock_solv.prm

>  <Rbt.Receptor>
prm/blind_docking_100.prm

>  <SCORE>
-7.65179

>  <SCORE.INTER>
-13.3289

>  <SCORE.INTER.CONST>
1

>  <SCORE.INTER.POLAR>
-1.67672

>  <SCORE.INTER.ROT>
8

>  <SCORE.INTER.SOLV>
28.0809

>  <SCORE.INTER.VDW>
-21.5905

>  <SCORE.INTER.norm>
-0.380825

>  <SCORE.INTRA>
3.00024

>  <SCORE.INTRA.DIHEDRAL>
4.41928

>  <SCORE.INTRA.DIHEDRAL.0>
13.1227

>  <SCORE.INTRA.POLAR>
0

>  <SCORE.INTRA.POLAR.0>
0

>  <SCORE.INTRA.REPUL>
0

>  <SCORE.INTRA.REPUL.0>
0

>  <SCORE.INTRA.SOLV>
2.79849

>  <SCORE.INTRA.SOLV.lig_0>
-89.1587

>  <SCORE.INTRA.VDW>
-0.608644

>  <SCORE.INTRA.VDW.0>
-0.838383

>  <SCORE.INTRA.norm>
0.0857213

>  <SCORE.RESTR>
2.67686

>  <SCORE.RESTR.CAVITY>
2.67686

>  <SCORE.RESTR.norm>
0.0764816

>  <SCORE.SYSTEM>
0

>  <SCORE.SYSTEM.CONST>
0

>  <SCORE.SYSTEM.DIHEDRAL>
0

>  <SCORE.SYSTEM.SOLV>
0

>  <SCORE.SYSTEM.norm>
0

>  <SCORE.heavy>
35

>  <SCORE.norm>
-0.218623

>  <RMSD>
33.997

$$$$
2o3v_lig
 OpenBabel02141814113D
libRbt.so/2013.1/901 2013/11/27
 35 37  0  0  0  0  0  0  0  0999 V2000
   -3.1833    0.2756   17.5631 C   0  0  2  0  0  0  0  0  0  0  0  0
   -4.5299    0.7615   17.2743 O   0  0  0  0  0  0  0  0  0  0  0  0
   -5.9350    4.8780   17.1897 C   0  0  2  0  0  0  0  0  0  0  0  0
   -6.5076    6.1841   17.6354 N   0  0  0  0  0  0  0  0  0  0  0  0
   -3.0737   -0.1445    8.7831 C   0  0  2  0  0  0  0  0  0  0  0  0
   -4.3953    0.4372    8.8053 O   0  0  0  0  0  0  0  0  0  0  0  0
   -2.4231    0.5196   16.2211 C   0  0  2  0  0  0  0  0  0  0  0  0
   -2.4494    1.9524   15.8433 N   0  0  0  0  0  0  0  0  0  0  0  0
   -7.0114    3.7219   17.3633 C   0  0  0  0  0  0  0  0  0  0  0  0
   -2.5150   -0.1003   10.2474 C   0  0  2  0  0  0  0  0  0  0  0  0
   -3.4158   -0.8201   11.1831 N   0  0  0  0  0  0  0  0  0  0  0  0
   -3.0268   -0.3580   15.0401 C   0  0  1  0  0  0  0  0  0  0  0  0
   -2.3191   -0.0784   13.7637 O   0  0  0  0  0  0  0  0  0  0  0  0
   -6.3740    2.3429   16.8937 C   0  0  2  0  0  0  0  0  0  0  0  0
   -7.3566    1.2503   17.0580 N   0  0  0  0  0  0  0  0  0  0  0  0
   -2.2850    1.3956   10.7414 C   0  0  1  0  0  0  0  0  0  0  0  0
   -1.7364    1.4655   12.0827 O   0  0  0  0  0  0  0  0  0  0  0  0
   -2.9661   -1.8808   15.4993 C   0  0  2  0  0  0  0  0  0  0  0  0
   -3.5089   -2.7415   14.5142 O   0  0  0  0  0  0  0  0  0  0  0  0
   -5.0735    2.0323   17.7431 C   0  0  2  0  0  0  0  0  0  0  0  0
   -1.3233    2.1065    9.7372 C   0  0  2  0  0  0  0  0  0  0  0  0
   -1.0901    3.4473   10.1211 O   0  0  0  0  0  0  0  0  0  0  0  0
   -3.7312   -2.0787   16.8628 C   0  0  2  0  0  0  0  0  0  0  0  0
   -3.1663   -1.1771   17.8887 O   0  0  0  0  0  0  0  0  0  0  0  0
   -4.0289    3.1707   17.5725 C   0  0  2  0  0  0  0  0  0  0  0  0
   -2.8834    2.8386   18.4084 O   0  0  0  0  0  0  0  0  0  0  0  0
   -1.9208    2.0352    8.2753 C   0  0  2  0  0  0  0  0  0  0  0  0
   -2.1679    0.6270    7.8895 O   0  0  0  0  0  0  0  0  0  0  0  0
   -3.6563   -3.5266   17.3455 C   0  0  0  0  0  0  0  0  0  0  0  0
   -2.3235   -3.9723   17.4062 O   0  0  0  0  0  0  0  0  0  0  0  0
   -4.6460    4.5148   18.0249 C   0  0  1  0  0  0  0  0  0  0  0  0
   -3.6805    5.5311   17.8549 O   0  0  0  0  0  0  0  0  0  0  0  0
   -0.9956    2.6780    7.2532 C   0  0  0  0  0  0  0  0  0  0  0  0
    0.2026    1.9478    7.1477 O   0  0  0  0  0  0  0  0  0  0  0  0
   -2.7741    1.1823   13.0666 C   0  0  0  0  0  0  0  0  0  0  0  0
  1  2  1  6  0  0  0
  1  7  1  0  0  0  0
  1 24  1  0  0  0  0
  3  4  1  1  0  0  0
  3  9  1  0  0  0  0
  3 31  1  0  0  0  0
  5  6  1  1  0  0  0
  5 10  1  0  0  0  0
  5 28  1  0  0  0  0
  7  8  1  6  0  0  0
  7 12  1  0  0  0  0
  9 14  1  0  0  0  0
 10 11  1  1  0  0  0
 10 16  1  0  0  0  0
 12 13  1  6  0  0  0
 12 18  1  0  0  0  0
 13 35  1  0  0  0  0
 14 15  1  1  0  0  0
 14 20  1  0  0  0  0
 16 17  1  1  0  0  0
 16 21  1  0  0  0  0
 17 35  1  0  0  0  0
 18 19  1  6  0  0  0
 18 23  1  0  0  0  0
 20  2  1  6  0  0  0
 20 25  1  0  0  0  0
 21 22  1  1  0  0  0
 21 27  1  0  0  0  0
 23 24  1  0  0  0  0
 23 29  1  1  0  0  0
 25 26  1  1  0  0  0
 25 31  1  0  0  0  0
 27 28  1  0  0  0  0
 27 33  1  6  0  0  0
 29 30  1  0  0  0  0
 31 32  1  6  0  0  0
 33 34  1  0  0  0  0
M  END
>  <CHROM.1>
-103.88155043,-79.98982770,164.53568834,-75.98366189,116.94532357,164.63944575
53.51411063,65.61809970,-3.33989311,1.13299770,14.14467654,-2.63936204,1.21476534
-0.59810017

>  <Name>
2o3v_lig

>  <RI>
0

>  <Rbt.Current_Directory>
/home/afrankz/demos/rdock_decoys_rna/rnas/2o3v

>  <Rbt.Executable>
rbdock ($Id: //depot/dev/client3/rdock/2013.1/src/exe/rbdock.cxx#4 $)

>  <Rbt.Library>
libRbt.so (2013.1, Build901 2013/11/27)

>  <Rbt.Parameter_File>
/export/apps/rDock/src/rDock_2013.1_src/data/scripts/dock_solv.prm

>  <Rbt.Receptor>
prm/blind_docking_20.prm

>  <SCORE>
-5.74544

>  <SCORE.INTER>
-15.8328

>  <SCORE.INTER.CONST>
1

>  <SCORE.INTER.POLAR>
-0.975146

>  <SCORE.INTER.ROT>
8

>  <SCORE.INTER.SOLV>
27.3149

>  <SCORE.INTER.VDW>
-25.343

>  <SCORE.INTER.norm>
-0.452366

>  <SCORE.INTRA>
5.50835

>  <SCORE.INTRA.DIHEDRAL>
5.51459

>  <SCORE.INTRA.DIHEDRAL.0>
13.1227

>  <SCORE.INTRA.POLAR>
0

>  <SCORE.INTRA.POLAR.0>
0

>  <SCORE.INTRA.REPUL>
0

>  <SCORE.INTRA.REPUL.0>
0

>  <SCORE.INTRA.SOLV>
5.08246

>  <SCORE.INTRA.SOLV.lig_0>
-89.1587

>  <SCORE.INTRA.VDW>
0.209829

>  <SCORE.INTRA.VDW.0>
-0.838383

>  <SCORE.INTRA.norm>
0.157381

>  <SCORE.RESTR>
4.57903

>  <SCORE.RESTR.CAVITY>
4.57903

>  <SCORE.RESTR.norm>
0.130829

>  <SCORE.SYSTEM>
0

>  <SCORE.SYSTEM.CONST>
0

>  <SCORE.SYSTEM.DIHEDRAL>
0

>  <SCORE.SYSTEM.SOLV>
0

>  <SCORE.SYSTEM.norm>
0

>  <SCORE.heavy>
35

>  <SCORE.norm>
-0.164155

>  <RMSD>
34.025

$$$$
2o3v_lig
 OpenBabel02141814113D
libRbt.so/2013.1/901 2013/11/27
 35 37  0  0  0  0  0  0  0  0999 V2000
   -4.5919    2.8943   17.3524 C   0  0  2  0  0  0  0  0  0  0  0  0
   -3.6499    1.7866   17.2176 O   0  0  0  0  0  0  0  0  0  0  0  0
   -4.2193   -2.5136   16.8841 C   0  0  2  0  0  0  0  0  0  0  0  0
   -4.5593   -3.8532   16.3165 N   0  0  0  0  0  0  0  0  0  0  0  0
   -1.5722    0.2569   10.4536 C   0  0  2  0  0  0  0  0  0  0  0  0
   -2.6148   -0.7421   10.4262 O   0  0  0  0  0  0  0  0  0  0  0  0
   -4.9219    3.2610   15.8708 C   0  0  2  0  0  0  0  0  0  0  0  0
   -5.4958    2.1021   15.1470 N   0  0  0  0  0  0  0  0  0  0  0  0
   -5.5095   -1.5861   16.9063 C   0  0  0  0  0  0  0  0  0  0  0  0
   -2.0801    1.4433   11.3439 C   0  0  2  0  0  0  0  0  0  0  0  0
   -2.4267    0.9742   12.7094 N   0  0  0  0  0  0  0  0  0  0  0  0
   -3.6358    3.7918   15.1003 C   0  0  1  0  0  0  0  0  0  0  0  0
   -3.9607    4.0928   13.6818 O   0  0  0  0  0  0  0  0  0  0  0  0
   -5.1183   -0.1650   17.5029 C   0  0  2  0  0  0  0  0  0  0  0  0
   -6.3038    0.7186   17.5217 N   0  0  0  0  0  0  0  0  0  0  0  0
   -3.3243    2.1824   10.6802 C   0  0  1  0  0  0  0  0  0  0  0  0
   -3.7944    3.3067   11.4675 O   0  0  0  0  0  0  0  0  0  0  0  0
   -3.0702    5.0350   15.9177 C   0  0  2  0  0  0  0  0  0  0  0  0
   -1.9017    5.5628   15.3160 O   0  0  0  0  0  0  0  0  0  0  0  0
   -3.9702    0.4897   16.6297 C   0  0  2  0  0  0  0  0  0  0  0  0
   -2.9092    2.6690    9.2556 C   0  0  2  0  0  0  0  0  0  0  0  0
   -3.9827    3.3263    8.6114 O   0  0  0  0  0  0  0  0  0  0  0  0
   -2.7656    4.6248   17.4086 C   0  0  2  0  0  0  0  0  0  0  0  0
   -3.9848    4.0706   18.0338 O   0  0  0  0  0  0  0  0  0  0  0  0
   -2.7148   -0.4267   16.6084 C   0  0  2  0  0  0  0  0  0  0  0  0
   -1.7216    0.2163   15.7592 O   0  0  0  0  0  0  0  0  0  0  0  0
   -2.4002    1.4449    8.3943 C   0  0  2  0  0  0  0  0  0  0  0  0
   -1.2824    0.7610    9.0839 O   0  0  0  0  0  0  0  0  0  0  0  0
   -2.2558    5.8110   18.2258 C   0  0  0  0  0  0  0  0  0  0  0  0
   -2.5901    5.6710   19.5851 O   0  0  0  0  0  0  0  0  0  0  0  0
   -3.0916   -1.8115   16.0319 C   0  0  1  0  0  0  0  0  0  0  0  0
   -1.9373   -2.6249   16.0286 O   0  0  0  0  0  0  0  0  0  0  0  0
   -1.9426    1.8779    7.0097 C   0  0  0  0  0  0  0  0  0  0  0  0
   -0.7921    2.6827    7.1021 O   0  0  0  0  0  0  0  0  0  0  0  0
   -4.1399    2.8689   12.8144 C   0  0  0  0  0  0  0  0  0  0  0  0
  1  2  1  6  0  0  0
  1  7  1  0  0  0  0
  1 24  1  0  0  0  0
  3  4  1  6  0  0  0
  3  9  1  0  0  0  0
  3 31  1  0  0  0  0
  5  6  1  6  0  0  0
  5 10  1  0  0  0  0
  5 28  1  0  0  0  0
  7  8  1  6  0  0  0
  7 12  1  0  0  0  0
  9 14  1  0  0  0  0
 10 11  1  1  0  0  0
 10 16  1  0  0  0  0
 12 13  1  6  0  0  0
 12 18  1  0  0  0  0
 13 35  1  0  0  0  0
 14 15  1  6  0  0  0
 14 20  1  0  0  0  0
 16 17  1  1  0  0  0
 16 21  1  0  0  0  0
 17 35  1  0  0  0  0
 18 19  1  6  0  0  0
 18 23  1  0  0  0  0
 20  2  1  1  0  0  0
 20 25  1  0  0  0  0
 21 22  1  6  0  0  0
 21 27  1  0  0  0  0
 23 24  1  0  0  0  0
 23 29  1  1  0  0  0
 25 26  1  6  0  0  0
 25 31  1  0  0  0  0
 27 28  1  0  0  0  0
 27 33  1  6  0  0  0
 29 30  1  0  0  0  0
 31 32  1  1  0  0  0
 33 34  1  0  0  0  0
M  END
>  <CHROM.1>
-64.14257403,-74.16331889,-152.96819256,-56.87224800,153.53448349,-61.11180056
151.38108147,66.60242043,-3.26126693,1.75507076,14.08986826,-2.73019073,-1.37043154
-2.72935543

>  <Name>
2o3v_lig

>  <RI>
0

>  <Rbt.Current_Directory>
/home/afrankz/demos/rdock_decoys_rna/rnas/2o3v

>  <Rbt.Executable>
rbdock ($Id: //depot/dev/client3/rdock/2013.1/src/exe/rbdock.cxx#4 $)

>  <Rbt.Library>
libRbt.so (2013.1, Build901 2013/11/27)

>  <Rbt.Parameter_File>
/export/apps/rDock/src/rDock_2013.1_src/data/scripts/dock_solv.prm

>  <Rbt.Receptor>
prm/blind_docking_20.prm

>  <SCORE>
-0.660419

>  <SCORE.INTER>
-9.39252

>  <SCORE.INTER.CONST>
1

>  <SCORE.INTER.POLAR>
-1.47758

>  <SCORE.INTER.ROT>
8

>  <SCORE.INTER.SOLV>
21.7313

>  <SCORE.INTER.VDW>
-17.5135

>  <SCORE.INTER.norm>
-0.268358

>  <SCORE.INTRA>
5.28265

>  <SCORE.INTRA.DIHEDRAL>
-3.42103

>  <SCORE.INTRA.DIHEDRAL.0>
13.1227

>  <SCORE.INTRA.POLAR>
0

>  <SCORE.INTRA.POLAR.0>
0

>  <SCORE.INTRA.REPUL>
0.0148337

>  <SCORE.INTRA.REPUL.0>
0

>  <SCORE.INTRA.SOLV>
7.8379

>  <SCORE.INTRA.SOLV.lig_0>
-89.1587

>  <SCORE.INTRA.VDW>
3.00004

>  <SCORE.INTRA.VDW.0>
-0.838383

>  <SCORE.INTRA.norm>
0.150933

>  <SCORE.RESTR>
3.44945

>  <SCORE.RESTR.CAVITY>
3.44945

>  <SCORE.RESTR.norm>
0.0985557

>  <SCORE.SYSTEM>
0

>  <SCORE.SYSTEM.CONST>
0

>  <SCORE.SYSTEM.DIHEDRAL>
0

>  <SCORE.SYSTEM.SOLV>
0

>  <SCORE.SYSTEM.norm>
0

>  <SCORE.heavy>
35

>  <SCORE.norm>
-0.0188691

>  <RMSD>
34.042

$$$$
2o3v_lig
 OpenBabel02141814113D
libRbt.so/2013.1/901 2013/11/27
 35 37  0  0  0  0  0  0  0  0999 V2000
   -4.7477    2.1906   17.2525 C   0  0  2  0  0  0  0  0  0  0  0  0
   -3.8676    1.0310   17.3694 O   0  0  0  0  0  0  0  0  0  0  0  0
   -3.9501   -3.2407   16.5490 C   0  0  2  0  0  0  0  0  0  0  0  0
   -4.1346   -4.5371   15.8297 N   0  0  0  0  0  0  0  0  0  0  0  0
   -2.7349   -0.2870    9.0904 C   0  0  2  0  0  0  0  0  0  0  0  0
   -4.1387   -0.0022    8.9064 O   0  0  0  0  0  0  0  0  0  0  0  0
   -4.6854    2.5306   15.7297 C   0  0  2  0  0  0  0  0  0  0  0  0
   -5.1327    1.3829   14.9057 N   0  0  0  0  0  0  0  0  0  0  0  0
   -5.3361   -2.4698   16.6502 C   0  0  0  0  0  0  0  0  0  0  0  0
   -2.3471    0.1723   10.5385 C   0  0  2  0  0  0  0  0  0  0  0  0
   -3.1840   -0.5120   11.5564 N   0  0  0  0  0  0  0  0  0  0  0  0
   -3.2218    2.9697   15.2889 C   0  0  1  0  0  0  0  0  0  0  0  0
   -3.1737    3.2457   13.8295 O   0  0  0  0  0  0  0  0  0  0  0  0
   -5.1101   -1.0905   17.4085 C   0  0  2  0  0  0  0  0  0  0  0  0
   -6.3871   -0.3512   17.5034 N   0  0  0  0  0  0  0  0  0  0  0  0
   -2.4590    1.7521   10.7012 C   0  0  1  0  0  0  0  0  0  0  0  0
   -2.0734    2.2087   12.0232 O   0  0  0  0  0  0  0  0  0  0  0  0
   -2.8002    4.2047   16.2003 C   0  0  2  0  0  0  0  0  0  0  0  0
   -1.4917    4.6520   15.8945 O   0  0  0  0  0  0  0  0  0  0  0  0
   -4.0372   -0.2188   16.6350 C   0  0  2  0  0  0  0  0  0  0  0  0
   -1.5540    2.4266    9.6221 C   0  0  2  0  0  0  0  0  0  0  0  0
   -1.6220    3.8361    9.7121 O   0  0  0  0  0  0  0  0  0  0  0  0
   -2.8919    3.8229   17.7266 C   0  0  2  0  0  0  0  0  0  0  0  0
   -4.2568    3.3526   18.0433 O   0  0  0  0  0  0  0  0  0  0  0  0
   -2.6870   -0.9825   16.5352 C   0  0  2  0  0  0  0  0  0  0  0  0
   -1.7668   -0.1421   15.7814 O   0  0  0  0  0  0  0  0  0  0  0  0
   -1.9748    1.9337    8.1801 C   0  0  2  0  0  0  0  0  0  0  0  0
   -1.9074    0.4564    8.1022 O   0  0  0  0  0  0  0  0  0  0  0  0
   -2.5278    5.0039   18.6252 C   0  0  0  0  0  0  0  0  0  0  0  0
   -3.5909    5.9210   18.7126 O   0  0  0  0  0  0  0  0  0  0  0  0
   -2.9030   -2.3267   15.8013 C   0  0  1  0  0  0  0  0  0  0  0  0
   -1.6648   -3.0019   15.7290 O   0  0  0  0  0  0  0  0  0  0  0  0
   -1.0905    2.5318    7.0965 C   0  0  0  0  0  0  0  0  0  0  0  0
   -1.4267    3.8805    6.8772 O   0  0  0  0  0  0  0  0  0  0  0  0
   -3.1679    2.0069   12.9648 C   0  0  0  0  0  0  0  0  0  0  0  0
  1  2  1  6  0  0  0
  1  7  1  0  0  0  0
  1 24  1  0  0  0  0
  3  4  1  6  0  0  0
  3  9  1  0  0  0  0
  3 31  1  0  0  0  0
  5  6  1  6  0  0  0
  5 10  1  0  0  0  0
  5 28  1  0  0  0  0
  7  8  1  6  0  0  0
  7 12  1  0  0  0  0
  9 14  1  0  0  0  0
 10 11  1  1  0  0  0
 10 16  1  0  0  0  0
 12 13  1  6  0  0  0
 12 18  1  0  0  0  0
 13 35  1  0  0  0  0
 14 15  1  6  0  0  0
 14 20  1  0  0  0  0
 16 17  1  1  0  0  0
 16 21  1  0  0  0  0
 17 35  1  0  0  0  0
 18 19  1  6  0  0  0
 18 23  1  0  0  0  0
 20  2  1  1  0  0  0
 20 25  1  0  0  0  0
 21 22  1  6  0  0  0
 21 27  1  0  0  0  0
 23 24  1  0  0  0  0
 23 29  1  1  0  0  0
 25 26  1  6  0  0  0
 25 31  1  0  0  0  0
 27 28  1  0  0  0  0
 27 33  1  6  0  0  0
 29 30  1  0  0  0  0
 31 32  1  1  0  0  0
 33 34  1  0  0  0  0
M  END
>  <CHROM.1>
-57.60887371,-75.82533582,-131.01023089,-79.87452946,-139.48640208,-82.25560447
77.57823375,-75.13700080,-3.11533877,1.26215426,13.94789906,-2.59413408,-1.31797887
-2.48608322

>  <Name>
2o3v_lig

>  <RI>
0

>  <Rbt.Current_Directory>
/home/afrankz/demos/rdock_decoys_rna/rnas/2o3v

>  <Rbt.Executable>
rbdock ($Id: //depot/dev/client3/rdock/2013.1/src/exe/rbdock.cxx#4 $)

>  <Rbt.Library>
libRbt.so (2013.1, Build901 2013/11/27)

>  <Rbt.Parameter_File>
/export/apps/rDock/src/rDock_2013.1_src/data/scripts/dock_solv.prm

>  <Rbt.Receptor>
prm/blind_docking_20.prm

>  <SCORE>
-10.7255

>  <SCORE.INTER>
-20.8789

>  <SCORE.INTER.CONST>
1

>  <SCORE.INTER.POLAR>
-2.86116

>  <SCORE.INTER.ROT>
8

>  <SCORE.INTER.SOLV>
19.8733

>  <SCORE.INTER.VDW>
-19.9398

>  <SCORE.INTER.norm>
-0.59654

>  <SCORE.INTRA>
5.2571

>  <SCORE.INTRA.DIHEDRAL>
5.99898

>  <SCORE.INTRA.DIHEDRAL.0>
13.1227

>  <SCORE.INTRA.POLAR>
0

>  <SCORE.INTRA.POLAR.0>
0

>  <SCORE.INTRA.REPUL>
0.0133061

>  <SCORE.INTRA.REPUL.0>
0

>  <SCORE.INTRA.SOLV>
4.96475

>  <SCORE.INTRA.SOLV.lig_0>
-89.1587

>  <SCORE.INTRA.VDW>
-0.291296

>  <SCORE.INTRA.VDW.0>
-0.838383

>  <SCORE.INTRA.norm>
0.150203

>  <SCORE.RESTR>
4.89635

>  <SCORE.RESTR.CAVITY>
4.89635

>  <SCORE.RESTR.norm>
0.139896

>  <SCORE.SYSTEM>
0

>  <SCORE.SYSTEM.CONST>
0

>  <SCORE.SYSTEM.DIHEDRAL>
0

>  <SCORE.SYSTEM.SOLV>
0

>  <SCORE.SYSTEM.norm>
0

>  <SCORE.heavy>
35

>  <SCORE.norm>
-0.306442

>  <RMSD>
34.057

$$$$
2o3v_lig
 OpenBabel02141814113D
libRbt.so/2013.1/901 2013/11/27
 35 37  0  0  0  0  0  0  0  0999 V2000
   -3.1355    0.3422   17.4476 C   0  0  2  0  0  0  0  0  0  0  0  0
   -4.3638    0.9764   16.9766 O   0  0  0  0  0  0  0  0  0  0  0  0
   -5.4722    4.9618   18.3238 C   0  0  2  0  0  0  0  0  0  0  0  0
   -5.7009    6.4383   18.3279 N   0  0  0  0  0  0  0  0  0  0  0  0
   -2.3750    1.6036    8.2305 C   0  0  2  0  0  0  0  0  0  0  0  0
   -1.0137    1.1373    8.1077 O   0  0  0  0  0  0  0  0  0  0  0  0
   -2.2135    0.3763   16.1878 C   0  0  2  0  0  0  0  0  0  0  0  0
   -2.0003    1.7654   15.7172 N   0  0  0  0  0  0  0  0  0  0  0  0
   -3.9306    4.6482   18.0990 C   0  0  0  0  0  0  0  0  0  0  0  0
   -2.7042    1.6978    9.7606 C   0  0  2  0  0  0  0  0  0  0  0  0
   -1.7505    2.5988   10.4561 N   0  0  0  0  0  0  0  0  0  0  0  0
   -2.8077   -0.5057   15.0052 C   0  0  1  0  0  0  0  0  0  0  0  0
   -1.9393   -0.4243   13.8021 O   0  0  0  0  0  0  0  0  0  0  0  0
   -3.7166    3.0726   18.0871 C   0  0  2  0  0  0  0  0  0  0  0  0
   -2.2885    2.7585   17.8674 N   0  0  0  0  0  0  0  0  0  0  0  0
   -2.7101    0.2616   10.4477 C   0  0  1  0  0  0  0  0  0  0  0  0
   -3.0450    0.3158   11.8583 O   0  0  0  0  0  0  0  0  0  0  0  0
   -3.0079   -1.9818   15.5663 C   0  0  2  0  0  0  0  0  0  0  0  0
   -3.5602   -2.8394   14.5838 O   0  0  0  0  0  0  0  0  0  0  0  0
   -4.5961    2.4169   16.9444 C   0  0  2  0  0  0  0  0  0  0  0  0
   -3.7347   -0.6440    9.6936 C   0  0  2  0  0  0  0  0  0  0  0  0
   -3.7753   -1.9408   10.2559 O   0  0  0  0  0  0  0  0  0  0  0  0
   -3.9306   -1.9679   16.8439 C   0  0  2  0  0  0  0  0  0  0  0  0
   -3.3550   -1.0695   17.8666 O   0  0  0  0  0  0  0  0  0  0  0  0
   -6.1013    2.7337   17.1685 C   0  0  2  0  0  0  0  0  0  0  0  0
   -6.8403    2.1366   16.0647 O   0  0  0  0  0  0  0  0  0  0  0  0
   -3.3696   -0.7080    8.1568 C   0  0  2  0  0  0  0  0  0  0  0  0
   -3.3222    0.6563    7.5828 O   0  0  0  0  0  0  0  0  0  0  0  0
   -4.1088   -3.3699   17.4248 C   0  0  0  0  0  0  0  0  0  0  0  0
   -4.6952   -4.2371   16.4852 O   0  0  0  0  0  0  0  0  0  0  0  0
   -6.3136    4.2656   17.1843 C   0  0  1  0  0  0  0  0  0  0  0  0
   -7.6855    4.5259   17.3946 O   0  0  0  0  0  0  0  0  0  0  0  0
   -4.3677   -1.5456    7.3718 C   0  0  0  0  0  0  0  0  0  0  0  0
   -5.6621   -1.0071    7.4914 O   0  0  0  0  0  0  0  0  0  0  0  0
   -2.5991   -0.8994   12.5288 C   0  0  0  0  0  0  0  0  0  0  0  0
  1  2  1  6  0  0  0
  1  7  1  0  0  0  0
  1 24  1  0  0  0  0
  3  4  1  6  0  0  0
  3  9  1  0  0  0  0
  3 31  1  0  0  0  0
  5  6  1  1  0  0  0
  5 10  1  0  0  0  0
  5 28  1  0  0  0  0
  7  8  1  6  0  0  0
  7 12  1  0  0  0  0
  9 14  1  0  0  0  0
 10 11  1  1  0  0  0
 10 16  1  0  0  0  0
 12 13  1  6  0  0  0
 12 18  1  0  0  0  0
 13 35  1  0  0  0  0
 14 15  1  6  0  0  0
 14 20  1  0  0  0  0
 16 17  1  1  0  0  0
 16 21  1  0  0  0  0
 17 35  1  0  0  0  0
 18 19  1  6  0  0  0
 18 23  1  0  0  0  0
 20  2  1  1  0  0  0
 20 25  1  0  0  0  0
 21 22  1  1  0  0  0
 21 27  1  0  0  0  0
 23 24  1  0  0  0  0
 23 29  1  1  0  0  0
 25 26  1  6  0  0  0
 25 31  1  0  0  0  0
 27 28  1  0  0  0  0
 27 33  1  6  0  0  0
 29 30  1  0  0  0  0
 31 32  1  1  0  0  0
 33 34  1  0  0  0  0
M  END
>  <CHROM.1>
-84.65331479,-163.80284660,98.69024276,-160.48940405,134.99576011,-27.69976366
-59.84749891,59.56801468,-3.79355561,0.70600014,13.98872048,-2.46118453,1.35036718
-0.99840733

>  <Name>
2o3v_lig

>  <RI>
0

>  <Rbt.Current_Directory>
/home/afrankz/demos/rdock_decoys_rna/rnas/2o3v

>  <Rbt.Executable>
rbdock ($Id: //depot/dev/client3/rdock/2013.1/src/exe/rbdock.cxx#4 $)

>  <Rbt.Library>
libRbt.so (2013.1, Build901 2013/11/27)

>  <Rbt.Parameter_File>
/export/apps/rDock/src/rDock_2013.1_src/data/scripts/dock_solv.prm

>  <Rbt.Receptor>
prm/blind_docking_20.prm

>  <SCORE>
4.22086

>  <SCORE.INTER>
-11.4553

>  <SCORE.INTER.CONST>
1

>  <SCORE.INTER.POLAR>
-2.20507

>  <SCORE.INTER.ROT>
8

>  <SCORE.INTER.SOLV>
32.7818

>  <SCORE.INTER.VDW>
-20.1473

>  <SCORE.INTER.norm>
-0.327296

>  <SCORE.INTRA>
9.21328

>  <SCORE.INTRA.DIHEDRAL>
7.81757

>  <SCORE.INTRA.DIHEDRAL.0>
13.1227

>  <SCORE.INTRA.POLAR>
0

>  <SCORE.INTRA.POLAR.0>
0

>  <SCORE.INTRA.REPUL>
0

>  <SCORE.INTRA.REPUL.0>
0

>  <SCORE.INTRA.SOLV>
4.85952

>  <SCORE.INTRA.SOLV.lig_0>
-89.1587

>  <SCORE.INTRA.VDW>
2.87473

>  <SCORE.INTRA.VDW.0>
-0.838383

>  <SCORE.INTRA.norm>
0.263236

>  <SCORE.RESTR>
6.46293

>  <SCORE.RESTR.CAVITY>
6.46293

>  <SCORE.RESTR.norm>
0.184655

>  <SCORE.SYSTEM>
0

>  <SCORE.SYSTEM.CONST>
0

>  <SCORE.SYSTEM.DIHEDRAL>
0

>  <SCORE.SYSTEM.SOLV>
0

>  <SCORE.SYSTEM.norm>
0

>  <SCORE.heavy>
35

>  <SCORE.norm>
0.120596

>  <RMSD>
34.061

$$$$
2o3v_lig
 OpenBabel02141814113D
libRbt.so/2013.1/901 2013/11/27
 35 37  0  0  0  0  0  0  0  0999 V2000
   -4.6784    2.2373   17.2505 C   0  0  2  0  0  0  0  0  0  0  0  0
   -3.7389    1.1194   17.2289 O   0  0  0  0  0  0  0  0  0  0  0  0
   -3.9905   -3.1750   16.5788 C   0  0  2  0  0  0  0  0  0  0  0  0
   -4.2412   -4.4906   15.9167 N   0  0  0  0  0  0  0  0  0  0  0  0
   -1.5475    1.8025    8.1423 C   0  0  2  0  0  0  0  0  0  0  0  0
   -0.3448    1.2659    8.7347 O   0  0  0  0  0  0  0  0  0  0  0  0
   -4.7986    2.6283   15.7435 C   0  0  2  0  0  0  0  0  0  0  0  0
   -5.2806    1.4868   14.9305 N   0  0  0  0  0  0  0  0  0  0  0  0
   -5.3460   -2.3533   16.6924 C   0  0  0  0  0  0  0  0  0  0  0  0
   -2.1909    2.7800    9.1858 C   0  0  2  0  0  0  0  0  0  0  0  0
   -1.2395    3.8549    9.5657 N   0  0  0  0  0  0  0  0  0  0  0  0
   -3.4134    3.1528   15.1641 C   0  0  1  0  0  0  0  0  0  0  0  0
   -3.5379    3.4772   13.7193 O   0  0  0  0  0  0  0  0  0  0  0  0
   -5.0498   -0.9549   17.3889 C   0  0  2  0  0  0  0  0  0  0  0  0
   -6.2976   -0.1686   17.4941 N   0  0  0  0  0  0  0  0  0  0  0  0
   -2.6953    2.0041   10.4813 C   0  0  1  0  0  0  0  0  0  0  0  0
   -3.3257    2.8806   11.4504 O   0  0  0  0  0  0  0  0  0  0  0  0
   -2.9514    4.3774   16.0700 C   0  0  2  0  0  0  0  0  0  0  0  0
   -1.7058    4.8982   15.6417 O   0  0  0  0  0  0  0  0  0  0  0  0
   -3.9737   -0.1508   16.5494 C   0  0  2  0  0  0  0  0  0  0  0  0
   -3.7011    0.8961   10.0349 C   0  0  2  0  0  0  0  0  0  0  0  0
   -4.1762    0.1643   11.1476 O   0  0  0  0  0  0  0  0  0  0  0  0
   -2.8581    3.9431   17.5821 C   0  0  2  0  0  0  0  0  0  0  0  0
   -4.1574    3.3963   18.0263 O   0  0  0  0  0  0  0  0  0  0  0  0
   -2.6537   -0.9641   16.4380 C   0  0  2  0  0  0  0  0  0  0  0  0
   -1.7305   -0.1853   15.6241 O   0  0  0  0  0  0  0  0  0  0  0  0
   -3.0151   -0.0628    8.9817 C   0  0  2  0  0  0  0  0  0  0  0  0
   -2.5149    0.7168    7.8264 O   0  0  0  0  0  0  0  0  0  0  0  0
   -2.4520    5.1114   18.4793 C   0  0  0  0  0  0  0  0  0  0  0  0
   -1.1492    5.5505   18.1811 O   0  0  0  0  0  0  0  0  0  0  0  0
   -2.9379   -2.3269   15.7642 C   0  0  1  0  0  0  0  0  0  0  0  0
   -1.7259   -3.0469   15.6803 O   0  0  0  0  0  0  0  0  0  0  0  0
   -3.9727   -1.1348    8.4838 C   0  0  0  0  0  0  0  0  0  0  0  0
   -3.3576   -1.9201    7.4913 O   0  0  0  0  0  0  0  0  0  0  0  0
   -3.1680    2.3407   12.7953 C   0  0  0  0  0  0  0  0  0  0  0  0
  1  2  1  6  0  0  0
  1  7  1  0  0  0  0
  1 24  1  0  0  0  0
  3  4  1  6  0  0  0
  3  9  1  0  0  0  0
  3 31  1  0  0  0  0
  5  6  1  1  0  0  0
  5 10  1  0  0  0  0
  5 28  1  0  0  0  0
  7  8  1  6  0  0  0
  7 12  1  0  0  0  0
  9 14  1  0  0  0  0
 10 11  1  1  0  0  0
 10 16  1  0  0  0  0
 12 13  1  6  0  0  0
 12 18  1  0  0  0  0
 13 35  1  0  0  0  0
 14 15  1  6  0  0  0
 14 20  1  0  0  0  0
 16 17  1  1  0  0  0
 16 21  1  0  0  0  0
 17 35  1  0  0  0  0
 18 19  1  6  0  0  0
 18 23  1  0  0  0  0
 20  2  1  1  0  0  0
 20 25  1  0  0  0  0
 21 22  1  1  0  0  0
 21 27  1  0  0  0  0
 23 24  1  0  0  0  0
 23 29  1  1  0  0  0
 25 26  1  6  0  0  0
 25 31  1  0  0  0  0
 27 28  1  0  0  0  0
 27 33  1  6  0  0  0
 29 30  1  0  0  0  0
 31 32  1  1  0  0  0
 33 34  1  0  0  0  0
M  END
>  <CHROM.1>
-62.22968316,-92.90049105,-178.54390513,-151.88847409,166.12382890,-72.94327331
-64.93785083,176.48949118,-3.22134184,1.13926269,13.86927955,-2.05838303
-1.30260955,-2.14211674

>  <Name>
2o3v_lig

>  <RI>
0

>  <Rbt.Current_Directory>
/home/afrankz/demos/rdock_decoys_rna/rnas/2o3v

>  <Rbt.Executable>
rbdock ($Id: //depot/dev/client3/rdock/2013.1/src/exe/rbdock.cxx#4 $)

>  <Rbt.Library>
libRbt.so (2013.1, Build901 2013/11/27)

>  <Rbt.Parameter_File>
/export/apps/rDock/src/rDock_2013.1_src/data/scripts/dock_solv.prm

>  <Rbt.Receptor>
prm/blind_docking_20.prm

>  <SCORE>
-10.1862

>  <SCORE.INTER>
-13.7913

>  <SCORE.INTER.CONST>
1

>  <SCORE.INTER.POLAR>
-1.45176

>  <SCORE.INTER.ROT>
8

>  <SCORE.INTER.SOLV>
25.1279

>  <SCORE.INTER.VDW>
-21.6643

>  <SCORE.INTER.norm>
-0.394037

>  <SCORE.INTRA>
-0.522482

>  <SCORE.INTRA.DIHEDRAL>
-3.82768

>  <SCORE.INTRA.DIHEDRAL.0>
13.1227

>  <SCORE.INTRA.POLAR>
0

>  <SCORE.INTRA.POLAR.0>
0

>  <SCORE.INTRA.REPUL>
0.0420402

>  <SCORE.INTRA.REPUL.0>
0

>  <SCORE.INTRA.SOLV>
4.01355

>  <SCORE.INTRA.SOLV.lig_0>
-89.1587

>  <SCORE.INTRA.VDW>
-0.825619

>  <SCORE.INTRA.VDW.0>
-0.838383

>  <SCORE.INTRA.norm>
-0.0149281

>  <SCORE.RESTR>
4.12761

>  <SCORE.RESTR.CAVITY>
4.12761

>  <SCORE.RESTR.norm>
0.117932

>  <SCORE.SYSTEM>
0

>  <SCORE.SYSTEM.CONST>
0

>  <SCORE.SYSTEM.DIHEDRAL>
0

>  <SCORE.SYSTEM.SOLV>
0

>  <SCORE.SYSTEM.norm>
0

>  <SCORE.heavy>
35

>  <SCORE.norm>
-0.291033

>  <RMSD>
34.103

$$$$
2o3v_lig
 OpenBabel02141814113D
libRbt.so/2013.1/901 2013/11/27
 35 37  0  0  0  0  0  0  0  0999 V2000
   -2.7112    4.2167   16.6832 C   0  0  2  0  0  0  0  0  0  0  0  0
   -3.9305    4.8548   17.1720 O   0  0  0  0  0  0  0  0  0  0  0  0
   -4.8090    6.2857   21.1855 C   0  0  2  0  0  0  0  0  0  0  0  0
   -5.2739    6.3116   22.6052 N   0  0  0  0  0  0  0  0  0  0  0  0
   -1.3674    1.8257    8.0017 C   0  0  2  0  0  0  0  0  0  0  0  0
   -0.2922    1.2250    8.7559 O   0  0  0  0  0  0  0  0  0  0  0  0
   -2.8975    4.2375   15.1329 C   0  0  2  0  0  0  0  0  0  0  0  0
   -3.0633    5.6223   14.6317 N   0  0  0  0  0  0  0  0  0  0  0  0
   -6.0296    5.9752   20.2164 C   0  0  0  0  0  0  0  0  0  0  0  0
   -2.1107    2.8241    8.9550 C   0  0  2  0  0  0  0  0  0  0  0  0
   -1.1760    3.8473    9.4883 N   0  0  0  0  0  0  0  0  0  0  0  0
   -4.1389    3.3513   14.6821 C   0  0  1  0  0  0  0  0  0  0  0  0
   -4.3257    3.4201   13.2094 O   0  0  0  0  0  0  0  0  0  0  0  0
   -5.5064    5.9417   18.7152 C   0  0  2  0  0  0  0  0  0  0  0  0
   -6.6259    5.6425   17.7967 N   0  0  0  0  0  0  0  0  0  0  0  0
   -2.8374    2.0623   10.1492 C   0  0  1  0  0  0  0  0  0  0  0  0
   -3.5619    2.9599   11.0291 O   0  0  0  0  0  0  0  0  0  0  0  0
   -3.9019    1.8800   15.2413 C   0  0  2  0  0  0  0  0  0  0  0  0
   -4.9760    1.0193   14.9078 O   0  0  0  0  0  0  0  0  0  0  0  0
   -4.3741    4.8445   18.5624 C   0  0  2  0  0  0  0  0  0  0  0  0
   -3.8176    1.0094    9.5415 C   0  0  2  0  0  0  0  0  0  0  0  0
   -4.4863    0.2918   10.5600 O   0  0  0  0  0  0  0  0  0  0  0  0
   -3.7040    1.9073   16.8046 C   0  0  2  0  0  0  0  0  0  0  0  0
   -2.5853    2.8090   17.1514 O   0  0  0  0  0  0  0  0  0  0  0  0
   -3.1874    5.1523   19.5180 C   0  0  2  0  0  0  0  0  0  0  0  0
   -2.2086    4.0866   19.3529 O   0  0  0  0  0  0  0  0  0  0  0  0
   -3.0298    0.0275    8.5852 C   0  0  2  0  0  0  0  0  0  0  0  0
   -2.3278    0.7921    7.5291 O   0  0  0  0  0  0  0  0  0  0  0  0
   -3.4373    0.5102   17.3628 C   0  0  0  0  0  0  0  0  0  0  0  0
   -4.5651   -0.3178   17.2165 O   0  0  0  0  0  0  0  0  0  0  0  0
   -3.6925    5.1893   20.9793 C   0  0  1  0  0  0  0  0  0  0  0  0
   -2.5983    5.4757   21.8247 O   0  0  0  0  0  0  0  0  0  0  0  0
   -3.9531   -0.9913    7.9342 C   0  0  0  0  0  0  0  0  0  0  0  0
   -4.5964   -1.7683    8.9152 O   0  0  0  0  0  0  0  0  0  0  0  0
   -3.3438    2.5854   12.4210 C   0  0  0  0  0  0  0  0  0  0  0  0
  1  2  1  1  0  0  0
  1  7  1  0  0  0  0
  1 24  1  0  0  0  0
  3  4  1  1  0  0  0
  3  9  1  0  0  0  0
  3 31  1  0  0  0  0
  5  6  1  1  0  0  0
  5 10  1  0  0  0  0
  5 28  1  0  0  0  0
  7  8  1  1  0  0  0
  7 12  1  0  0  0  0
  9 14  1  0  0  0  0
 10 11  1  1  0  0  0
 10 16  1  0  0  0  0
 12 13  1  6  0  0  0
 12 18  1  0  0  0  0
 13 35  1  0  0  0  0
 14 15  1  6  0  0  0
 14 20  1  0  0  0  0
 16 17  1  6  0  0  0
 16 21  1  0  0  0  0
 17 35  1  0  0  0  0
 18 19  1  1  0  0  0
 18 23  1  0  0  0  0
 20  2  1  6  0  0  0
 20 25  1  0  0  0  0
 21 22  1  1  0  0  0
 21 27  1  0  0  0  0
 23 24  1  0  0  0  0
 23 29  1  6  0  0  0
 25 26  1  1  0  0  0
 25 31  1  0  0  0  0
 27 28  1  0  0  0  0
 27 33  1  6  0  0  0
 29 30  1  0  0  0  0
 31 32  1  1  0  0  0
 33 34  1  0  0  0  0
M  END
>  <CHROM.1>
167.12025648,76.70129298,-171.22867923,-137.42129321,-170.28135226,165.61257347
-66.42926146,-59.87565769,-3.57729833,2.94694206,14.61333375,-1.84824551
-1.12309403,-2.18871579

>  <Name>
2o3v_lig

>  <RI>
0

>  <Rbt.Current_Directory>
/home/afrankz/demos/rdock_decoys_rna/rnas/2o3v

>  <Rbt.Executable>
rbdock ($Id: //depot/dev/client3/rdock/2013.1/src/exe/rbdock.cxx#4 $)

>  <Rbt.Library>
libRbt.so (2013.1, Build901 2013/11/27)

>  <Rbt.Parameter_File>
/export/apps/rDock/src/rDock_2013.1_src/data/scripts/dock_solv.prm

>  <Rbt.Receptor>
prm/blind_docking_100.prm

>  <SCORE>
-6.33934

>  <SCORE.INTER>
-6.40365

>  <SCORE.INTER.CONST>
1

>  <SCORE.INTER.POLAR>
-1.23966

>  <SCORE.INTER.ROT>
8

>  <SCORE.INTER.SOLV>
33.7969

>  <SCORE.INTER.VDW>
-20.3358

>  <SCORE.INTER.norm>
-0.182962

>  <SCORE.INTRA>
-2.18172

>  <SCORE.INTRA.DIHEDRAL>
-3.25487

>  <SCORE.INTRA.DIHEDRAL.0>
13.1227

>  <SCORE.INTRA.POLAR>
0

>  <SCORE.INTRA.POLAR.0>
0

>  <SCORE.INTRA.REPUL>
0

>  <SCORE.INTRA.REPUL.0>
0

>  <SCORE.INTRA.SOLV>
-0.689485

>  <SCORE.INTRA.SOLV.lig_0>
-89.1587

>  <SCORE.INTRA.VDW>
-0.209544

>  <SCORE.INTRA.VDW.0>
-0.838383

>  <SCORE.INTRA.norm>
-0.0623349

>  <SCORE.RESTR>
2.24604

>  <SCORE.RESTR.CAVITY>
2.24604

>  <SCORE.RESTR.norm>
0.0641724

>  <SCORE.SYSTEM>
0

>  <SCORE.SYSTEM.CONST>
0

>  <SCORE.SYSTEM.DIHEDRAL>
0

>  <SCORE.SYSTEM.SOLV>
0

>  <SCORE.SYSTEM.norm>
0

>  <SCORE.heavy>
35

>  <SCORE.norm>
-0.181124

>  <RMSD>
34.166

$$$$
2o3v_lig
 OpenBabel02141814113D
libRbt.so/2013.1/901 2013/11/27
 35 37  0  0  0  0  0  0  0  0999 V2000
   -2.8478    0.6407   17.1578 C   0  0  2  0  0  0  0  0  0  0  0  0
   -4.2338    1.0809   17.0244 O   0  0  0  0  0  0  0  0  0  0  0  0
   -5.8472    4.9254   18.2671 C   0  0  2  0  0  0  0  0  0  0  0  0
   -6.2739    6.3567   18.2287 N   0  0  0  0  0  0  0  0  0  0  0  0
   -2.8042    0.6275    7.8896 C   0  0  2  0  0  0  0  0  0  0  0  0
   -3.8130    1.5182    7.3657 O   0  0  0  0  0  0  0  0  0  0  0  0
   -2.2473    0.9277   15.7452 C   0  0  2  0  0  0  0  0  0  0  0  0
   -2.3643    2.3628   15.3946 N   0  0  0  0  0  0  0  0  0  0  0  0
   -4.2818    4.8149   18.0168 C   0  0  0  0  0  0  0  0  0  0  0  0
   -3.3633    0.0128    9.2192 C   0  0  2  0  0  0  0  0  0  0  0  0
   -4.6481   -0.6926    8.9809 N   0  0  0  0  0  0  0  0  0  0  0  0
   -2.9454    0.0425   14.6232 C   0  0  1  0  0  0  0  0  0  0  0  0
   -2.3912    0.3624   13.2820 O   0  0  0  0  0  0  0  0  0  0  0  0
   -3.8563    3.2832   18.0510 C   0  0  2  0  0  0  0  0  0  0  0  0
   -2.4032    3.1570   17.8084 N   0  0  0  0  0  0  0  0  0  0  0  0
   -3.5419    1.1219   10.3473 C   0  0  1  0  0  0  0  0  0  0  0  0
   -4.0270    0.5748   11.6003 O   0  0  0  0  0  0  0  0  0  0  0  0
   -2.7821   -1.4824   15.0495 C   0  0  2  0  0  0  0  0  0  0  0  0
   -3.3989   -2.3506   14.1159 O   0  0  0  0  0  0  0  0  0  0  0  0
   -4.6600    2.4749   16.9509 C   0  0  2  0  0  0  0  0  0  0  0  0
   -2.1660    1.8252   10.5727 C   0  0  2  0  0  0  0  0  0  0  0  0
   -2.2667    2.8316   11.5609 O   0  0  0  0  0  0  0  0  0  0  0  0
   -3.3868   -1.7236   16.4848 C   0  0  2  0  0  0  0  0  0  0  0  0
   -2.7450   -0.8141   17.4571 O   0  0  0  0  0  0  0  0  0  0  0  0
   -6.1898    2.5934   17.1996 C   0  0  2  0  0  0  0  0  0  0  0  0
   -6.8614    1.8636   16.1331 O   0  0  0  0  0  0  0  0  0  0  0  0
   -1.6371    2.4258    9.2094 C   0  0  2  0  0  0  0  0  0  0  0  0
   -1.5445    1.3636    8.1817 O   0  0  0  0  0  0  0  0  0  0  0  0
   -3.2095   -3.1733   16.9340 C   0  0  0  0  0  0  0  0  0  0  0  0
   -1.8473   -3.5082   17.0396 O   0  0  0  0  0  0  0  0  0  0  0  0
   -6.6075    4.0823   17.1706 C   0  0  1  0  0  0  0  0  0  0  0  0
   -7.9978    4.1624   17.4042 O   0  0  0  0  0  0  0  0  0  0  0  0
   -0.2754    3.0844    9.3709 C   0  0  0  0  0  0  0  0  0  0  0  0
   -0.3250    4.0767   10.3673 O   0  0  0  0  0  0  0  0  0  0  0  0
   -3.0609   -0.3718   12.1441 C   0  0  0  0  0  0  0  0  0  0  0  0
  1  2  1  6  0  0  0
  1  7  1  0  0  0  0
  1 24  1  0  0  0  0
  3  4  1  6  0  0  0
  3  9  1  0  0  0  0
  3 31  1  0  0  0  0
  5  6  1  1  0  0  0
  5 10  1  0  0  0  0
  5 28  1  0  0  0  0
  7  8  1  6  0  0  0
  7 12  1  0  0  0  0
  9 14  1  0  0  0  0
 10 11  1  6  0  0  0
 10 16  1  0  0  0  0
 12 13  1  6  0  0  0
 12 18  1  0  0  0  0
 13 35  1  0  0  0  0
 14 15  1  6  0  0  0
 14 20  1  0  0  0  0
 16 17  1  1  0  0  0
 16 21  1  0  0  0  0
 17 35  1  0  0  0  0
 18 19  1  6  0  0  0
 18 23  1  0  0  0  0
 20  2  1  1  0  0  0
 20 25  1  0  0  0  0
 21 22  1  1  0  0  0
 21 27  1  0  0  0  0
 23 24  1  0  0  0  0
 23 29  1  1  0  0  0
 25 26  1  6  0  0  0
 25 31  1  0  0  0  0
 27 28  1  0  0  0  0
 27 33  1  1  0  0  0
 29 30  1  0  0  0  0
 31 32  1  1  0  0  0
 33 34  1  0  0  0  0
M  END
>  <CHROM.1>
-72.70335855,-176.31886804,98.02800116,62.76220914,104.67215754,-43.86741614
62.57388310,-56.14108304,-3.50282770,1.36124310,14.03228751,-2.41703077,1.18358483
-0.91886646

>  <Name>
2o3v_lig

>  <RI>
0

>  <Rbt.Current_Directory>
/home/afrankz/demos/rdock_decoys_rna/rnas/2o3v

>  <Rbt.Executable>
rbdock ($Id: //depot/dev/client3/rdock/2013.1/src/exe/rbdock.cxx#4 $)

>  <Rbt.Library>
libRbt.so (2013.1, Build901 2013/11/27)

>  <Rbt.Parameter_File>
/export/apps/rDock/src/rDock_2013.1_src/data/scripts/dock_solv.prm

>  <Rbt.Receptor>
prm/blind_docking_100.prm

>  <SCORE>
-1.80486

>  <SCORE.INTER>
-13.583

>  <SCORE.INTER.CONST>
1

>  <SCORE.INTER.POLAR>
-1.8

>  <SCORE.INTER.ROT>
8

>  <SCORE.INTER.SOLV>
29.9166

>  <SCORE.INTER.VDW>
-21.9609

>  <SCORE.INTER.norm>
-0.388086

>  <SCORE.INTRA>
5.88977

>  <SCORE.INTRA.DIHEDRAL>
0.258817

>  <SCORE.INTRA.DIHEDRAL.0>
13.1227

>  <SCORE.INTRA.POLAR>
0

>  <SCORE.INTRA.POLAR.0>
0

>  <SCORE.INTRA.REPUL>
0

>  <SCORE.INTRA.REPUL.0>
0

>  <SCORE.INTRA.SOLV>
5.8448

>  <SCORE.INTRA.SOLV.lig_0>
-89.1587

>  <SCORE.INTRA.VDW>
2.83796

>  <SCORE.INTRA.VDW.0>
-0.838383

>  <SCORE.INTRA.norm>
0.168279

>  <SCORE.RESTR>
5.8884

>  <SCORE.RESTR.CAVITY>
5.8884

>  <SCORE.RESTR.norm>
0.16824

>  <SCORE.SYSTEM>
0

>  <SCORE.SYSTEM.CONST>
0

>  <SCORE.SYSTEM.DIHEDRAL>
0

>  <SCORE.SYSTEM.SOLV>
0

>  <SCORE.SYSTEM.norm>
0

>  <SCORE.heavy>
35

>  <SCORE.norm>
-0.0515673

>  <RMSD>
34.176

$$$$
2o3v_lig
 OpenBabel02141814113D
libRbt.so/2013.1/901 2013/11/27
 35 37  0  0  0  0  0  0  0  0999 V2000
   -2.7406    3.8549   16.4155 C   0  0  2  0  0  0  0  0  0  0  0  0
   -3.9903    4.3228   17.0089 O   0  0  0  0  0  0  0  0  0  0  0  0
   -4.8520    6.2425   20.8167 C   0  0  2  0  0  0  0  0  0  0  0  0
   -5.1144    6.4316   22.2754 N   0  0  0  0  0  0  0  0  0  0  0  0
   -3.1058   -0.2320    8.3945 C   0  0  2  0  0  0  0  0  0  0  0  0
   -4.3162    0.3792    7.8977 O   0  0  0  0  0  0  0  0  0  0  0  0
   -3.0477    3.8707   14.8845 C   0  0  2  0  0  0  0  0  0  0  0  0
   -3.4289    5.2282   14.4284 N   0  0  0  0  0  0  0  0  0  0  0  0
   -5.9696    5.3115   20.1767 C   0  0  0  0  0  0  0  0  0  0  0  0
   -3.1017   -0.0691    9.9540 C   0  0  2  0  0  0  0  0  0  0  0  0
   -4.3129   -0.6812   10.5566 N   0  0  0  0  0  0  0  0  0  0  0  0
   -4.1957    2.8361   14.5086 C   0  0  1  0  0  0  0  0  0  0  0  0
   -4.5034    2.8984   13.0561 O   0  0  0  0  0  0  0  0  0  0  0  0
   -5.6609    5.1170   18.6290 C   0  0  2  0  0  0  0  0  0  0  0  0
   -6.6840    4.2431   18.0159 N   0  0  0  0  0  0  0  0  0  0  0  0
   -2.9826    1.4596   10.3826 C   0  0  1  0  0  0  0  0  0  0  0  0
   -2.9429    1.6373   11.8219 O   0  0  0  0  0  0  0  0  0  0  0  0
   -3.7285    1.4014   15.0153 C   0  0  2  0  0  0  0  0  0  0  0  0
   -4.7053    0.4123   14.7442 O   0  0  0  0  0  0  0  0  0  0  0  0
   -4.2230    4.4796   18.4412 C   0  0  2  0  0  0  0  0  0  0  0  0
   -1.6907    2.0554    9.7387 C   0  0  2  0  0  0  0  0  0  0  0  0
   -1.5378    3.4197   10.0777 O   0  0  0  0  0  0  0  0  0  0  0  0
   -3.4151    1.4347   16.5594 C   0  0  2  0  0  0  0  0  0  0  0  0
   -2.3985    2.4699   16.8411 O   0  0  0  0  0  0  0  0  0  0  0  0
   -3.1370    5.3933   19.0753 C   0  0  2  0  0  0  0  0  0  0  0  0
   -1.8532    4.7281   18.9009 O   0  0  0  0  0  0  0  0  0  0  0  0
   -1.7333    1.8665    8.1697 C   0  0  2  0  0  0  0  0  0  0  0  0
   -1.9021    0.4354    7.8289 O   0  0  0  0  0  0  0  0  0  0  0  0
   -2.9282    0.0772   17.0644 C   0  0  0  0  0  0  0  0  0  0  0  0
   -3.9752   -0.8620   17.0829 O   0  0  0  0  0  0  0  0  0  0  0  0
   -3.4354    5.5880   20.5804 C   0  0  1  0  0  0  0  0  0  0  0  0
   -2.4394    6.4246   21.1302 O   0  0  0  0  0  0  0  0  0  0  0  0
   -0.4727    2.3937    7.5012 C   0  0  0  0  0  0  0  0  0  0  0  0
    0.6648    1.7470    8.0187 O   0  0  0  0  0  0  0  0  0  0  0  0
   -3.2855    3.0110   12.1694 C   0  0  0  0  0  0  0  0  0  0  0  0
  1  2  1  1  0  0  0
  1  7  1  0  0  0  0
  1 24  1  0  0  0  0
  3  4  1  1  0  0  0
  3  9  1  0  0  0  0
  3 31  1  0  0  0  0
  5  6  1  6  0  0  0
  5 10  1  0  0  0  0
  5 28  1  0  0  0  0
  7  8  1  1  0  0  0
  7 12  1  0  0  0  0
  9 14  1  0  0  0  0
 10 11  1  6  0  0  0
 10 16  1  0  0  0  0
 12 13  1  6  0  0  0
 12 18  1  0  0  0  0
 13 35  1  0  0  0  0
 14 15  1  1  0  0  0
 14 20  1  0  0  0  0
 16 17  1  1  0  0  0
 16 21  1  0  0  0  0
 17 35  1  0  0  0  0
 18 19  1  1  0  0  0
 18 23  1  0  0  0  0
 20  2  1  6  0  0  0
 20 25  1  0  0  0  0
 21 22  1  6  0  0  0
 21 27  1  0  0  0  0
 23 24  1  0  0  0  0
 23 29  1  6  0  0  0
 25 26  1  1  0  0  0
 25 31  1  0  0  0  0
 27 28  1  0  0  0  0
 27 33  1  6  0  0  0
 29 30  1  0  0  0  0
 31 32  1  6  0  0  0
 33 34  1  0  0  0  0
M  END
>  <CHROM.1>
179.61812788,41.76660439,92.51127372,-160.89579359,120.61540726,175.51021708
-71.02374971,57.92160772,-3.32032070,2.80836208,14.47222388,-1.88105870,-0.99085753
-2.18131128

>  <Name>
2o3v_lig

>  <RI>
0

>  <Rbt.Current_Directory>
/home/afrankz/demos/rdock_decoys_rna/rnas/2o3v

>  <Rbt.Executable>
rbdock ($Id: //depot/dev/client3/rdock/2013.1/src/exe/rbdock.cxx#4 $)

>  <Rbt.Library>
libRbt.so (2013.1, Build901 2013/11/27)

>  <Rbt.Parameter_File>
/export/apps/rDock/src/rDock_2013.1_src/data/scripts/dock_solv.prm

>  <Rbt.Receptor>
prm/blind_docking_100.prm

>  <SCORE>
-2.85842

>  <SCORE.INTER>
-6.93214

>  <SCORE.INTER.CONST>
1

>  <SCORE.INTER.POLAR>
-1.74351

>  <SCORE.INTER.ROT>
8

>  <SCORE.INTER.SOLV>
26.3764

>  <SCORE.INTER.VDW>
-16.5352

>  <SCORE.INTER.norm>
-0.198061

>  <SCORE.INTRA>
1.10701

>  <SCORE.INTRA.DIHEDRAL>
1.90294

>  <SCORE.INTRA.DIHEDRAL.0>
13.1227

>  <SCORE.INTRA.POLAR>
0

>  <SCORE.INTRA.POLAR.0>
0

>  <SCORE.INTRA.REPUL>
0

>  <SCORE.INTRA.REPUL.0>
0

>  <SCORE.INTRA.SOLV>
-0.379967

>  <SCORE.INTRA.SOLV.lig_0>
-89.1587

>  <SCORE.INTRA.VDW>
0.34553

>  <SCORE.INTRA.VDW.0>
-0.838383

>  <SCORE.INTRA.norm>
0.031629

>  <SCORE.RESTR>
2.96671

>  <SCORE.RESTR.CAVITY>
2.96671

>  <SCORE.RESTR.norm>
0.0847631

>  <SCORE.SYSTEM>
0

>  <SCORE.SYSTEM.CONST>
0

>  <SCORE.SYSTEM.DIHEDRAL>
0

>  <SCORE.SYSTEM.SOLV>
0

>  <SCORE.SYSTEM.norm>
0

>  <SCORE.heavy>
35

>  <SCORE.norm>
-0.0816692

>  <RMSD>
34.225

$$$$
2o3v_lig
 OpenBabel02141814113D
libRbt.so/2013.1/901 2013/11/27
 35 37  0  0  0  0  0  0  0  0999 V2000
   -4.5175    1.0913   16.5007 C   0  0  2  0  0  0  0  0  0  0  0  0
   -3.5080    0.1041   16.1276 O   0  0  0  0  0  0  0  0  0  0  0  0
   -2.3574   -4.0837   16.3842 C   0  0  2  0  0  0  0  0  0  0  0  0
   -2.4044   -5.5446   16.6936 N   0  0  0  0  0  0  0  0  0  0  0  0
   -2.9751   -0.1663    8.7331 C   0  0  2  0  0  0  0  0  0  0  0  0
   -4.2897    0.2309    8.2864 O   0  0  0  0  0  0  0  0  0  0  0  0
   -4.7179    1.9078   15.1848 C   0  0  2  0  0  0  0  0  0  0  0  0
   -5.1531    1.0318   14.0715 N   0  0  0  0  0  0  0  0  0  0  0  0
   -2.4149   -3.2383   17.7286 C   0  0  0  0  0  0  0  0  0  0  0  0
   -2.7969    0.3600   10.1993 C   0  0  2  0  0  0  0  0  0  0  0  0
   -3.8619   -0.1693   11.0884 N   0  0  0  0  0  0  0  0  0  0  0  0
   -3.3921    2.6829   14.7710 C   0  0  1  0  0  0  0  0  0  0  0  0
   -3.5902    3.4171   13.4943 O   0  0  0  0  0  0  0  0  0  0  0  0
   -2.3752   -1.6894   17.3713 C   0  0  2  0  0  0  0  0  0  0  0  0
   -2.4395   -0.8835   18.6094 N   0  0  0  0  0  0  0  0  0  0  0  0
   -2.7728    1.9511   10.2512 C   0  0  1  0  0  0  0  0  0  0  0  0
   -2.5755    2.4658   11.5932 O   0  0  0  0  0  0  0  0  0  0  0  0
   -2.9789    3.6086   15.9983 C   0  0  2  0  0  0  0  0  0  0  0  0
   -1.7867    4.3243   15.7295 O   0  0  0  0  0  0  0  0  0  0  0  0
   -3.5908   -1.3226   16.4241 C   0  0  2  0  0  0  0  0  0  0  0  0
   -1.6316    2.4601    9.3147 C   0  0  2  0  0  0  0  0  0  0  0  0
   -1.5693    3.8727    9.3126 O   0  0  0  0  0  0  0  0  0  0  0  0
   -2.8024    2.7474   17.3063 C   0  0  2  0  0  0  0  0  0  0  0  0
   -4.0459    1.9980   17.5832 O   0  0  0  0  0  0  0  0  0  0  0  0
   -3.5302   -2.1582   15.1147 C   0  0  2  0  0  0  0  0  0  0  0  0
   -4.6936   -1.7991   14.3156 O   0  0  0  0  0  0  0  0  0  0  0  0
   -1.8465    1.9038    7.8506 C   0  0  2  0  0  0  0  0  0  0  0  0
   -1.9183    0.4248    7.8683 O   0  0  0  0  0  0  0  0  0  0  0  0
   -2.4415    3.6179   18.5091 C   0  0  0  0  0  0  0  0  0  0  0  0
   -1.2887    4.3825   18.2537 O   0  0  0  0  0  0  0  0  0  0  0  0
   -3.5650   -3.6658   15.4580 C   0  0  1  0  0  0  0  0  0  0  0  0
   -3.5033   -4.4011   14.2540 O   0  0  0  0  0  0  0  0  0  0  0  0
   -0.7326    2.3385    6.9102 C   0  0  0  0  0  0  0  0  0  0  0  0
   -1.0033    3.6159    6.3857 O   0  0  0  0  0  0  0  0  0  0  0  0
   -3.8482    2.5267   12.3015 C   0  0  0  0  0  0  0  0  0  0  0  0
  1  2  1  6  0  0  0
  1  7  1  0  0  0  0
  1 24  1  0  0  0  0
  3  4  1  1  0  0  0
  3  9  1  0  0  0  0
  3 31  1  0  0  0  0
  5  6  1  6  0  0  0
  5 10  1  0  0  0  0
  5 28  1  0  0  0  0
  7  8  1  6  0  0  0
  7 12  1  0  0  0  0
  9 14  1  0  0  0  0
 10 11  1  1  0  0  0
 10 16  1  0  0  0  0
 12 13  1  6  0  0  0
 12 18  1  0  0  0  0
 13 35  1  0  0  0  0
 14 15  1  1  0  0  0
 14 20  1  0  0  0  0
 16 17  1  1  0  0  0
 16 21  1  0  0  0  0
 17 35  1  0  0  0  0
 18 19  1  6  0  0  0
 18 23  1  0  0  0  0
 20  2  1  6  0  0  0
 20 25  1  0  0  0  0
 21 22  1  6  0  0  0
 21 27  1  0  0  0  0
 23 24  1  0  0  0  0
 23 29  1  1  0  0  0
 25 26  1  6  0  0  0
 25 31  1  0  0  0  0
 27 28  1  0  0  0  0
 27 33  1  6  0  0  0
 29 30  1  0  0  0  0
 31 32  1  6  0  0  0
 33 34  1  0  0  0  0
M  END
>  <CHROM.1>
-132.99076983,-64.37945892,-101.40481400,-84.08258414,-164.44328578,-117.44787025
-55.70591238,-84.85198308,-2.93096319,0.73494306,13.55388785,-2.49677355
-1.44634247,-2.18143918

>  <Name>
2o3v_lig

>  <RI>
0

>  <Rbt.Current_Directory>
/home/afrankz/demos/rdock_decoys_rna/rnas/2o3v

>  <Rbt.Executable>
rbdock ($Id: //depot/dev/client3/rdock/2013.1/src/exe/rbdock.cxx#4 $)

>  <Rbt.Library>
libRbt.so (2013.1, Build901 2013/11/27)

>  <Rbt.Parameter_File>
/export/apps/rDock/src/rDock_2013.1_src/data/scripts/dock_solv.prm

>  <Rbt.Receptor>
prm/blind_docking_100.prm

>  <SCORE>
-1.47955

>  <SCORE.INTER>
-16.0648

>  <SCORE.INTER.CONST>
1

>  <SCORE.INTER.POLAR>
-2.04916

>  <SCORE.INTER.ROT>
8

>  <SCORE.INTER.SOLV>
20.0278

>  <SCORE.INTER.VDW>
-19.4886

>  <SCORE.INTER.norm>
-0.458995

>  <SCORE.INTRA>
8.88745

>  <SCORE.INTRA.DIHEDRAL>
11.793

>  <SCORE.INTRA.DIHEDRAL.0>
13.1227

>  <SCORE.INTRA.POLAR>
0

>  <SCORE.INTRA.POLAR.0>
0

>  <SCORE.INTRA.REPUL>
0.223548

>  <SCORE.INTRA.REPUL.0>
0

>  <SCORE.INTRA.SOLV>
4.74279

>  <SCORE.INTRA.SOLV.lig_0>
-89.1587

>  <SCORE.INTRA.VDW>
-0.498199

>  <SCORE.INTRA.VDW.0>
-0.838383

>  <SCORE.INTRA.norm>
0.253927

>  <SCORE.RESTR>
5.69781

>  <SCORE.RESTR.CAVITY>
5.69781

>  <SCORE.RESTR.norm>
0.162795

>  <SCORE.SYSTEM>
0

>  <SCORE.SYSTEM.CONST>
0

>  <SCORE.SYSTEM.DIHEDRAL>
0

>  <SCORE.SYSTEM.SOLV>
0

>  <SCORE.SYSTEM.norm>
0

>  <SCORE.heavy>
35

>  <SCORE.norm>
-0.0422729

>  <RMSD>
34.244

$$$$
2o3v_lig
 OpenBabel02141814113D
libRbt.so/2013.1/901 2013/11/27
 35 37  0  0  0  0  0  0  0  0999 V2000
   -3.3826    3.5411   17.2826 C   0  0  2  0  0  0  0  0  0  0  0  0
   -3.0520    4.5461   16.2759 O   0  0  0  0  0  0  0  0  0  0  0  0
   -0.1106    7.7170   16.7460 C   0  0  2  0  0  0  0  0  0  0  0  0
    0.4885    9.0584   17.0177 N   0  0  0  0  0  0  0  0  0  0  0  0
   -1.9137    2.3362    8.9352 C   0  0  2  0  0  0  0  0  0  0  0  0
   -0.5716    1.9235    9.2728 O   0  0  0  0  0  0  0  0  0  0  0  0
   -3.1454    2.1939   16.5294 C   0  0  2  0  0  0  0  0  0  0  0  0
   -1.7479    2.0882   16.0476 N   0  0  0  0  0  0  0  0  0  0  0  0
   -1.1216    7.8075   15.5232 C   0  0  0  0  0  0  0  0  0  0  0  0
   -2.6810    2.5881   10.2791 C   0  0  2  0  0  0  0  0  0  0  0  0
   -1.9856    3.6061   11.1068 N   0  0  0  0  0  0  0  0  0  0  0  0
   -4.1488    2.0237   15.3073 C   0  0  1  0  0  0  0  0  0  0  0  0
   -3.8776    0.7577   14.5778 O   0  0  0  0  0  0  0  0  0  0  0  0
   -1.7528    6.3716   15.2627 C   0  0  2  0  0  0  0  0  0  0  0  0
   -2.7066    6.4362   14.1347 N   0  0  0  0  0  0  0  0  0  0  0  0
   -2.8732    1.2406   11.1050 C   0  0  1  0  0  0  0  0  0  0  0  0
   -3.6102    1.4389   12.3388 O   0  0  0  0  0  0  0  0  0  0  0  0
   -5.6274    2.1393   15.8853 C   0  0  2  0  0  0  0  0  0  0  0  0
   -6.5960    2.0237   14.8585 O   0  0  0  0  0  0  0  0  0  0  0  0
   -2.4928    5.8624   16.5675 C   0  0  2  0  0  0  0  0  0  0  0  0
   -3.6190    0.2080   10.2016 C   0  0  2  0  0  0  0  0  0  0  0  0
   -3.8089   -1.0170   10.8820 O   0  0  0  0  0  0  0  0  0  0  0  0
   -5.8179    3.5047   16.6490 C   0  0  2  0  0  0  0  0  0  0  0  0
   -4.8039    3.6256   17.7176 O   0  0  0  0  0  0  0  0  0  0  0  0
   -1.4984    5.7827   17.7596 C   0  0  2  0  0  0  0  0  0  0  0  0
   -2.2531    5.3487   18.9271 O   0  0  0  0  0  0  0  0  0  0  0  0
   -2.8157   -0.0129    8.8581 C   0  0  2  0  0  0  0  0  0  0  0  0
   -2.6166    1.2780    8.1604 O   0  0  0  0  0  0  0  0  0  0  0  0
   -7.2191    3.6248   17.2464 C   0  0  0  0  0  0  0  0  0  0  0  0
   -7.5272    2.5082   18.0447 O   0  0  0  0  0  0  0  0  0  0  0  0
   -0.8792    7.1769   18.0142 C   0  0  1  0  0  0  0  0  0  0  0  0
    0.0227    7.0760   19.0961 O   0  0  0  0  0  0  0  0  0  0  0  0
   -3.5278   -0.9803    7.9248 C   0  0  0  0  0  0  0  0  0  0  0  0
   -3.3611   -2.3047    8.3700 O   0  0  0  0  0  0  0  0  0  0  0  0
   -2.8648    0.8892   13.4646 C   0  0  0  0  0  0  0  0  0  0  0  0
  1  2  1  6  0  0  0
  1  7  1  0  0  0  0
  1 24  1  0  0  0  0
  3  4  1  1  0  0  0
  3  9  1  0  0  0  0
  3 31  1  0  0  0  0
  5  6  1  1  0  0  0
  5 10  1  0  0  0  0
  5 28  1  0  0  0  0
  7  8  1  6  0  0  0
  7 12  1  0  0  0  0
  9 14  1  0  0  0  0
 10 11  1  1  0  0  0
 10 16  1  0  0  0  0
 12 13  1  1  0  0  0
 12 18  1  0  0  0  0
 13 35  1  0  0  0  0
 14 15  1  6  0  0  0
 14 20  1  0  0  0  0
 16 17  1  1  0  0  0
 16 21  1  0  0  0  0
 17 35  1  0  0  0  0
 18 19  1  6  0  0  0
 18 23  1  0  0  0  0
 20  2  1  6  0  0  0
 20 25  1  0  0  0  0
 21 22  1  1  0  0  0
 21 27  1  0  0  0  0
 23 24  1  0  0  0  0
 23 29  1  1  0  0  0
 25 26  1  1  0  0  0
 25 31  1  0  0  0  0
 27 28  1  0  0  0  0
 27 33  1  6  0  0  0
 29 30  1  0  0  0  0
 31 32  1  1  0  0  0
 33 34  1  0  0  0  0
M  END
>  <CHROM.1>
-149.11568105,-89.27559213,-80.74558524,-127.30037059,-162.79631477,157.13357133
53.24765346,-76.22380735,-3.04270217,3.15746244,14.17001574,1.45837520,0.70712591
1.01460764

>  <Name>
2o3v_lig

>  <RI>
0

>  <Rbt.Current_Directory>
/home/afrankz/demos/rdock_decoys_rna/rnas/2o3v

>  <Rbt.Executable>
rbdock ($Id: //depot/dev/client3/rdock/2013.1/src/exe/rbdock.cxx#4 $)

>  <Rbt.Library>
libRbt.so (2013.1, Build901 2013/11/27)

>  <Rbt.Parameter_File>
/export/apps/rDock/src/rDock_2013.1_src/data/scripts/dock_solv.prm

>  <Rbt.Receptor>
prm/blind_docking_20.prm

>  <SCORE>
10.0243

>  <SCORE.INTER>
1.0546

>  <SCORE.INTER.CONST>
1

>  <SCORE.INTER.POLAR>
-0.905733

>  <SCORE.INTER.ROT>
8

>  <SCORE.INTER.SOLV>
35.5456

>  <SCORE.INTER.VDW>
-17.0597

>  <SCORE.INTER.norm>
0.0301314

>  <SCORE.INTRA>
2.64848

>  <SCORE.INTRA.DIHEDRAL>
7.68069

>  <SCORE.INTRA.DIHEDRAL.0>
13.1227

>  <SCORE.INTRA.POLAR>
0

>  <SCORE.INTRA.POLAR.0>
0

>  <SCORE.INTRA.REPUL>
0

>  <SCORE.INTRA.REPUL.0>
0

>  <SCORE.INTRA.SOLV>
0.406194

>  <SCORE.INTRA.SOLV.lig_0>
-89.1587

>  <SCORE.INTRA.VDW>
-1.39496

>  <SCORE.INTRA.VDW.0>
-0.838383

>  <SCORE.INTRA.norm>
0.075671

>  <SCORE.RESTR>
6.32119

>  <SCORE.RESTR.CAVITY>
6.32119

>  <SCORE.RESTR.norm>
0.180605

>  <SCORE.SYSTEM>
0

>  <SCORE.SYSTEM.CONST>
0

>  <SCORE.SYSTEM.DIHEDRAL>
0

>  <SCORE.SYSTEM.SOLV>
0

>  <SCORE.SYSTEM.norm>
0

>  <SCORE.heavy>
35

>  <SCORE.norm>
0.286408

>  <RMSD>
34.314

$$$$
2o3v_lig
 OpenBabel02141814113D
libRbt.so/2013.1/901 2013/11/27
 35 37  0  0  0  0  0  0  0  0999 V2000
   -4.3286    2.0854   16.8256 C   0  0  2  0  0  0  0  0  0  0  0  0
   -3.4082    1.0884   16.2857 O   0  0  0  0  0  0  0  0  0  0  0  0
   -2.7643   -3.1582   15.5934 C   0  0  2  0  0  0  0  0  0  0  0  0
   -3.0012   -4.6325   15.5425 N   0  0  0  0  0  0  0  0  0  0  0  0
   -3.2729    0.8442    8.9083 C   0  0  2  0  0  0  0  0  0  0  0  0
   -4.0980    1.7679    8.1657 O   0  0  0  0  0  0  0  0  0  0  0  0
   -4.7656    2.8870   15.5587 C   0  0  2  0  0  0  0  0  0  0  0  0
   -5.4014    1.9998   14.5562 N   0  0  0  0  0  0  0  0  0  0  0  0
   -2.8319   -2.6454   17.0960 C   0  0  0  0  0  0  0  0  0  0  0  0
   -3.3867    1.2254   10.4248 C   0  0  2  0  0  0  0  0  0  0  0  0
   -4.7998    1.1864   10.8793 N   0  0  0  0  0  0  0  0  0  0  0  0
   -3.5365    3.6498   14.8977 C   0  0  1  0  0  0  0  0  0  0  0  0
   -3.9643    4.3695   13.6699 O   0  0  0  0  0  0  0  0  0  0  0  0
   -2.5885   -1.0743   17.1209 C   0  0  2  0  0  0  0  0  0  0  0  0
   -2.6589   -0.5742   18.5107 N   0  0  0  0  0  0  0  0  0  0  0  0
   -2.7502    2.6549   10.7186 C   0  0  1  0  0  0  0  0  0  0  0  0
   -2.8119    3.0191   12.1215 O   0  0  0  0  0  0  0  0  0  0  0  0
   -2.9012    4.5881   16.0156 C   0  0  2  0  0  0  0  0  0  0  0  0
   -1.7769    5.2940   15.5224 O   0  0  0  0  0  0  0  0  0  0  0  0
   -3.6756   -0.3453   16.2287 C   0  0  2  0  0  0  0  0  0  0  0  0
   -1.2644    2.6438   10.2382 C   0  0  2  0  0  0  0  0  0  0  0  0
   -0.6486    3.8963   10.4651 O   0  0  0  0  0  0  0  0  0  0  0  0
   -2.4892    3.7419   17.2797 C   0  0  2  0  0  0  0  0  0  0  0  0
   -3.6626    3.0028   17.7908 O   0  0  0  0  0  0  0  0  0  0  0  0
   -3.6067   -0.8571   14.7625 C   0  0  2  0  0  0  0  0  0  0  0  0
   -4.6548   -0.1765   14.0147 O   0  0  0  0  0  0  0  0  0  0  0  0
   -1.1947    2.2510    8.7085 C   0  0  2  0  0  0  0  0  0  0  0  0
   -1.8501    0.9423    8.4837 O   0  0  0  0  0  0  0  0  0  0  0  0
   -1.9101    4.6251   18.3839 C   0  0  0  0  0  0  0  0  0  0  0  0
   -2.7712    5.6975   18.6792 O   0  0  0  0  0  0  0  0  0  0  0  0
   -3.8394   -2.3859   14.7340 C   0  0  1  0  0  0  0  0  0  0  0  0
   -3.7663   -2.8255   13.3940 O   0  0  0  0  0  0  0  0  0  0  0  0
    0.2394    2.1843    8.2055 C   0  0  0  0  0  0  0  0  0  0  0  0
    0.2628    2.0417    6.8058 O   0  0  0  0  0  0  0  0  0  0  0  0
   -4.1522    3.4791   12.4639 C   0  0  0  0  0  0  0  0  0  0  0  0
  1  2  1  6  0  0  0
  1  7  1  0  0  0  0
  1 24  1  0  0  0  0
  3  4  1  1  0  0  0
  3  9  1  0  0  0  0
  3 31  1  0  0  0  0
  5  6  1  6  0  0  0
  5 10  1  0  0  0  0
  5 28  1  0  0  0  0
  7  8  1  6  0  0  0
  7 12  1  0  0  0  0
  9 14  1  0  0  0  0
 10 11  1  6  0  0  0
 10 16  1  0  0  0  0
 12 13  1  6  0  0  0
 12 18  1  0  0  0  0
 13 35  1  0  0  0  0
 14 15  1  1  0  0  0
 14 20  1  0  0  0  0
 16 17  1  1  0  0  0
 16 21  1  0  0  0  0
 17 35  1  0  0  0  0
 18 19  1  6  0  0  0
 18 23  1  0  0  0  0
 20  2  1  6  0  0  0
 20 25  1  0  0  0  0
 21 22  1  6  0  0  0
 21 27  1  0  0  0  0
 23 24  1  0  0  0  0
 23 29  1  1  0  0  0
 25 26  1  6  0  0  0
 25 31  1  0  0  0  0
 27 28  1  0  0  0  0
 27 33  1  1  0  0  0
 29 30  1  0  0  0  0
 31 32  1  6  0  0  0
 33 34  1  0  0  0  0
M  END
>  <CHROM.1>
-111.39698403,-77.01349677,-68.02764227,-78.36786373,-155.54688964,-117.79700594
52.01137909,-170.77584659,-2.95860777,1.54760232,13.64658801,-2.61306699
-1.37703822,-2.51672249

>  <Name>
2o3v_lig

>  <RI>
0

>  <Rbt.Current_Directory>
/home/afrankz/demos/rdock_decoys_rna/rnas/2o3v

>  <Rbt.Executable>
rbdock ($Id: //depot/dev/client3/rdock/2013.1/src/exe/rbdock.cxx#4 $)

>  <Rbt.Library>
libRbt.so (2013.1, Build901 2013/11/27)

>  <Rbt.Parameter_File>
/export/apps/rDock/src/rDock_2013.1_src/data/scripts/dock_solv.prm

>  <Rbt.Receptor>
prm/blind_docking_20.prm

>  <SCORE>
0.0471047

>  <SCORE.INTER>
-13.4699

>  <SCORE.INTER.CONST>
1

>  <SCORE.INTER.POLAR>
-1.20576

>  <SCORE.INTER.ROT>
8

>  <SCORE.INTER.SOLV>
23.709

>  <SCORE.INTER.VDW>
-21.7971

>  <SCORE.INTER.norm>
-0.384854

>  <SCORE.INTRA>
5.47478

>  <SCORE.INTRA.DIHEDRAL>
7.1964

>  <SCORE.INTRA.DIHEDRAL.0>
13.1227

>  <SCORE.INTRA.POLAR>
0

>  <SCORE.INTRA.POLAR.0>
0

>  <SCORE.INTRA.REPUL>
0.0142857

>  <SCORE.INTRA.REPUL.0>
0

>  <SCORE.INTRA.SOLV>
4.551

>  <SCORE.INTRA.SOLV.lig_0>
-89.1587

>  <SCORE.INTRA.VDW>
-0.470346

>  <SCORE.INTRA.VDW.0>
-0.838383

>  <SCORE.INTRA.norm>
0.156422

>  <SCORE.RESTR>
8.04221

>  <SCORE.RESTR.CAVITY>
8.04221

>  <SCORE.RESTR.norm>
0.229777

>  <SCORE.SYSTEM>
0

>  <SCORE.SYSTEM.CONST>
0

>  <SCORE.SYSTEM.DIHEDRAL>
0

>  <SCORE.SYSTEM.SOLV>
0

>  <SCORE.SYSTEM.norm>
0

>  <SCORE.heavy>
35

>  <SCORE.norm>
0.00134585

>  <RMSD>
34.363

$$$$
2o3v_lig
 OpenBabel02141814113D
libRbt.so/2013.1/901 2013/11/27
 35 37  0  0  0  0  0  0  0  0999 V2000
   -3.3494    4.0335   17.4751 C   0  0  2  0  0  0  0  0  0  0  0  0
   -3.2973    5.2407   16.6548 O   0  0  0  0  0  0  0  0  0  0  0  0
    0.5313    7.2948   16.8789 C   0  0  2  0  0  0  0  0  0  0  0  0
    1.5426    8.3841   17.0295 N   0  0  0  0  0  0  0  0  0  0  0  0
   -3.0816   -0.3935    8.5625 C   0  0  2  0  0  0  0  0  0  0  0  0
   -4.4521    0.0382    8.4182 O   0  0  0  0  0  0  0  0  0  0  0  0
   -2.7464    2.9411   16.5363 C   0  0  2  0  0  0  0  0  0  0  0  0
   -1.3691    3.2943   16.1186 N   0  0  0  0  0  0  0  0  0  0  0  0
   -0.4039    7.5865   15.6275 C   0  0  0  0  0  0  0  0  0  0  0  0
   -2.7718   -0.4723   10.0975 C   0  0  2  0  0  0  0  0  0  0  0  0
   -3.7125   -1.3934   10.7841 N   0  0  0  0  0  0  0  0  0  0  0  0
   -3.6543    2.7097   15.2511 C   0  0  1  0  0  0  0  0  0  0  0  0
   -3.0410    1.6995   14.3501 O   0  0  0  0  0  0  0  0  0  0  0  0
   -1.4768    6.4202   15.4968 C   0  0  2  0  0  0  0  0  0  0  0  0
   -2.3656    6.6785   14.3437 N   0  0  0  0  0  0  0  0  0  0  0  0
   -2.8111    0.9668   10.7773 C   0  0  1  0  0  0  0  0  0  0  0  0
   -2.4949    0.9276   12.1927 O   0  0  0  0  0  0  0  0  0  0  0  0
   -5.1132    2.3284   15.7610 C   0  0  2  0  0  0  0  0  0  0  0  0
   -6.0043    2.1263   14.6789 O   0  0  0  0  0  0  0  0  0  0  0  0
   -2.3318    6.3216   16.8267 C   0  0  2  0  0  0  0  0  0  0  0  0
   -1.7987    1.8940   10.0331 C   0  0  2  0  0  0  0  0  0  0  0  0
   -1.7982    3.1941   10.5893 O   0  0  0  0  0  0  0  0  0  0  0  0
   -5.6763    3.4489   16.7156 C   0  0  2  0  0  0  0  0  0  0  0  0
   -4.7434    3.6614   17.8421 O   0  0  0  0  0  0  0  0  0  0  0  0
   -1.4089    6.0425   18.0460 C   0  0  2  0  0  0  0  0  0  0  0  0
   -2.2542    6.0050   19.2314 O   0  0  0  0  0  0  0  0  0  0  0  0
   -2.1436    1.9416    8.4910 C   0  0  2  0  0  0  0  0  0  0  0  0
   -2.1490    0.5739    7.9233 O   0  0  0  0  0  0  0  0  0  0  0  0
   -7.0622    3.0895   17.2493 C   0  0  0  0  0  0  0  0  0  0  0  0
   -7.0093    1.9468   18.0682 O   0  0  0  0  0  0  0  0  0  0  0  0
   -0.3613    7.1729   18.1748 C   0  0  1  0  0  0  0  0  0  0  0  0
    0.4661    6.8929   19.2843 O   0  0  0  0  0  0  0  0  0  0  0  0
   -1.1556    2.8001    7.7158 C   0  0  0  0  0  0  0  0  0  0  0  0
    0.1361    2.2464    7.7853 O   0  0  0  0  0  0  0  0  0  0  0  0
   -3.1307    2.0438   12.8819 C   0  0  0  0  0  0  0  0  0  0  0  0
  1  2  1  6  0  0  0
  1  7  1  0  0  0  0
  1 24  1  0  0  0  0
  3  4  1  1  0  0  0
  3  9  1  0  0  0  0
  3 31  1  0  0  0  0
  5  6  1  1  0  0  0
  5 10  1  0  0  0  0
  5 28  1  0  0  0  0
  7  8  1  6  0  0  0
  7 12  1  0  0  0  0
  9 14  1  0  0  0  0
 10 11  1  1  0  0  0
 10 16  1  0  0  0  0
 12 13  1  6  0  0  0
 12 18  1  0  0  0  0
 13 35  1  0  0  0  0
 14 15  1  6  0  0  0
 14 20  1  0  0  0  0
 16 17  1  1  0  0  0
 16 21  1  0  0  0  0
 17 35  1  0  0  0  0
 18 19  1  6  0  0  0
 18 23  1  0  0  0  0
 20  2  1  6  0  0  0
 20 25  1  0  0  0  0
 21 22  1  1  0  0  0
 21 27  1  0  0  0  0
 23 24  1  0  0  0  0
 23 29  1  1  0  0  0
 25 26  1  1  0  0  0
 25 31  1  0  0  0  0
 27 28  1  0  0  0  0
 27 33  1  6  0  0  0
 29 30  1  0  0  0  0
 31 32  1  1  0  0  0
 33 34  1  0  0  0  0
M  END
>  <CHROM.1>
-104.78189448,-138.72229086,-179.24122779,-153.00761416,165.55866099,118.10887097
64.66068973,63.34089640,-2.66521930,3.39112579,14.09501906,1.49791734,0.65585039
1.07912073

>  <Name>
2o3v_lig

>  <RI>
0

>  <Rbt.Current_Directory>
/home/afrankz/demos/rdock_decoys_rna/rnas/2o3v

>  <Rbt.Executable>
rbdock ($Id: //depot/dev/client3/rdock/2013.1/src/exe/rbdock.cxx#4 $)

>  <Rbt.Library>
libRbt.so (2013.1, Build901 2013/11/27)

>  <Rbt.Parameter_File>
/export/apps/rDock/src/rDock_2013.1_src/data/scripts/dock_solv.prm

>  <Rbt.Receptor>
prm/blind_docking_100.prm

>  <SCORE>
-3.79211

>  <SCORE.INTER>
-11.1851

>  <SCORE.INTER.CONST>
1

>  <SCORE.INTER.POLAR>
-1.64256

>  <SCORE.INTER.ROT>
8

>  <SCORE.INTER.SOLV>
30.1402

>  <SCORE.INTER.VDW>
-20.9616

>  <SCORE.INTER.norm>
-0.319575

>  <SCORE.INTRA>
4.72438

>  <SCORE.INTRA.DIHEDRAL>
9.93163

>  <SCORE.INTRA.DIHEDRAL.0>
13.1227

>  <SCORE.INTRA.POLAR>
0

>  <SCORE.INTRA.POLAR.0>
0

>  <SCORE.INTRA.REPUL>
0

>  <SCORE.INTRA.REPUL.0>
0

>  <SCORE.INTRA.SOLV>
2.02364

>  <SCORE.INTRA.SOLV.lig_0>
-89.1587

>  <SCORE.INTRA.VDW>
-1.25325

>  <SCORE.INTRA.VDW.0>
-0.838383

>  <SCORE.INTRA.norm>
0.134982

>  <SCORE.RESTR>
2.66863

>  <SCORE.RESTR.CAVITY>
2.66863

>  <SCORE.RESTR.norm>
0.0762466

>  <SCORE.SYSTEM>
0

>  <SCORE.SYSTEM.CONST>
0

>  <SCORE.SYSTEM.DIHEDRAL>
0

>  <SCORE.SYSTEM.SOLV>
0

>  <SCORE.SYSTEM.norm>
0

>  <SCORE.heavy>
35

>  <SCORE.norm>
-0.108346

>  <RMSD>
34.432

$$$$
2o3v_lig
 OpenBabel02141814113D
libRbt.so/2013.1/901 2013/11/27
 35 37  0  0  0  0  0  0  0  0999 V2000
   -3.3742    4.0291   17.4443 C   0  0  2  0  0  0  0  0  0  0  0  0
   -3.3417    5.2655   16.6678 O   0  0  0  0  0  0  0  0  0  0  0  0
    0.5338    7.2309   16.8780 C   0  0  2  0  0  0  0  0  0  0  0  0
    1.5704    8.2974   17.0210 N   0  0  0  0  0  0  0  0  0  0  0  0
   -3.0172   -0.3494    8.4639 C   0  0  2  0  0  0  0  0  0  0  0  0
   -4.4173   -0.0149    8.3489 O   0  0  0  0  0  0  0  0  0  0  0  0
   -2.7016    2.9930   16.4891 C   0  0  2  0  0  0  0  0  0  0  0  0
   -1.3261    3.4105   16.1287 N   0  0  0  0  0  0  0  0  0  0  0  0
   -0.3942    7.5355   15.6244 C   0  0  0  0  0  0  0  0  0  0  0  0
   -2.6716   -0.4104    9.9921 C   0  0  2  0  0  0  0  0  0  0  0  0
   -3.5311   -1.3974   10.6936 N   0  0  0  0  0  0  0  0  0  0  0  0
   -3.5595    2.7741   15.1679 C   0  0  1  0  0  0  0  0  0  0  0  0
   -2.8809    1.8193   14.2535 O   0  0  0  0  0  0  0  0  0  0  0  0
   -1.4941    6.3938   15.5018 C   0  0  2  0  0  0  0  0  0  0  0  0
   -2.3766    6.6646   14.3467 N   0  0  0  0  0  0  0  0  0  0  0  0
   -2.7984    1.0205   10.6786 C   0  0  1  0  0  0  0  0  0  0  0  0
   -2.4516    0.9998   12.0871 O   0  0  0  0  0  0  0  0  0  0  0  0
   -5.0183    2.3223   15.6167 C   0  0  2  0  0  0  0  0  0  0  0  0
   -5.8669    2.1262   14.4998 O   0  0  0  0  0  0  0  0  0  0  0  0
   -2.3512    6.3247   16.8322 C   0  0  2  0  0  0  0  0  0  0  0  0
   -1.8690    2.0188    9.9181 C   0  0  2  0  0  0  0  0  0  0  0  0
   -1.9488    3.3141   10.4796 O   0  0  0  0  0  0  0  0  0  0  0  0
   -5.6527    3.3873   16.5899 C   0  0  2  0  0  0  0  0  0  0  0  0
   -4.7642    3.5938   17.7529 O   0  0  0  0  0  0  0  0  0  0  0  0
   -1.4351    6.0326   18.0536 C   0  0  2  0  0  0  0  0  0  0  0  0
   -2.2811    6.0234   19.2391 O   0  0  0  0  0  0  0  0  0  0  0  0
   -2.2475    2.0462    8.3834 C   0  0  2  0  0  0  0  0  0  0  0  0
   -2.1682    0.6831    7.8103 O   0  0  0  0  0  0  0  0  0  0  0  0
   -7.0402    2.9592   17.0657 C   0  0  0  0  0  0  0  0  0  0  0  0
   -7.7745    4.0601   17.5428 O   0  0  0  0  0  0  0  0  0  0  0  0
   -0.3613    7.1392   18.1746 C   0  0  1  0  0  0  0  0  0  0  0  0
    0.4593    6.8477   19.2862 O   0  0  0  0  0  0  0  0  0  0  0  0
   -1.3383    2.9743    7.5922 C   0  0  0  0  0  0  0  0  0  0  0  0
   -1.8023    3.1068    6.2704 O   0  0  0  0  0  0  0  0  0  0  0  0
   -3.1210    2.0897   12.7866 C   0  0  0  0  0  0  0  0  0  0  0  0
  1  2  1  6  0  0  0
  1  7  1  0  0  0  0
  1 24  1  0  0  0  0
  3  4  1  1  0  0  0
  3  9  1  0  0  0  0
  3 31  1  0  0  0  0
  5  6  1  1  0  0  0
  5 10  1  0  0  0  0
  5 28  1  0  0  0  0
  7  8  1  6  0  0  0
  7 12  1  0  0  0  0
  9 14  1  0  0  0  0
 10 11  1  1  0  0  0
 10 16  1  0  0  0  0
 12 13  1  6  0  0  0
 12 18  1  0  0  0  0
 13 35  1  0  0  0  0
 14 15  1  6  0  0  0
 14 20  1  0  0  0  0
 16 17  1  1  0  0  0
 16 21  1  0  0  0  0
 17 35  1  0  0  0  0
 18 19  1  6  0  0  0
 18 23  1  0  0  0  0
 20  2  1  6  0  0  0
 20 25  1  0  0  0  0
 21 22  1  1  0  0  0
 21 27  1  0  0  0  0
 23 24  1  0  0  0  0
 23 29  1  1  0  0  0
 25 26  1  1  0  0  0
 25 31  1  0  0  0  0
 27 28  1  0  0  0  0
 27 33  1  6  0  0  0
 29 30  1  0  0  0  0
 31 32  1  1  0  0  0
 33 34  1  0  0  0  0
M  END
>  <CHROM.1>
-99.26310145,-147.90377064,-176.23599012,-154.60174429,170.41325307,114.30156945
-160.14361074,-172.61698925,-2.74102262,3.50526082,13.96765377,1.48666624
0.63649020,1.11118655

>  <Name>
2o3v_lig

>  <RI>
0

>  <Rbt.Current_Directory>
/home/afrankz/demos/rdock_decoys_rna/rnas/2o3v

>  <Rbt.Executable>
rbdock ($Id: //depot/dev/client3/rdock/2013.1/src/exe/rbdock.cxx#4 $)

>  <Rbt.Library>
libRbt.so (2013.1, Build901 2013/11/27)

>  <Rbt.Parameter_File>
/export/apps/rDock/src/rDock_2013.1_src/data/scripts/dock_solv.prm

>  <Rbt.Receptor>
prm/blind_docking_100.prm

>  <SCORE>
-0.959555

>  <SCORE.INTER>
-7.26657

>  <SCORE.INTER.CONST>
1

>  <SCORE.INTER.POLAR>
-1.73423

>  <SCORE.INTER.ROT>
8

>  <SCORE.INTER.SOLV>
29.8576

>  <SCORE.INTER.VDW>
-17.9495

>  <SCORE.INTER.norm>
-0.207616

>  <SCORE.INTRA>
3.83806

>  <SCORE.INTRA.DIHEDRAL>
7.96888

>  <SCORE.INTRA.DIHEDRAL.0>
13.1227

>  <SCORE.INTRA.POLAR>
0

>  <SCORE.INTRA.POLAR.0>
0

>  <SCORE.INTRA.REPUL>
0

>  <SCORE.INTRA.REPUL.0>
0

>  <SCORE.INTRA.SOLV>
1.99225

>  <SCORE.INTRA.SOLV.lig_0>
-89.1587

>  <SCORE.INTRA.VDW>
-1.1425

>  <SCORE.INTRA.VDW.0>
-0.838383

>  <SCORE.INTRA.norm>
0.109659

>  <SCORE.RESTR>
2.46895

>  <SCORE.RESTR.CAVITY>
2.46895

>  <SCORE.RESTR.norm>
0.0705415

>  <SCORE.SYSTEM>
0

>  <SCORE.SYSTEM.CONST>
0

>  <SCORE.SYSTEM.DIHEDRAL>
0

>  <SCORE.SYSTEM.SOLV>
0

>  <SCORE.SYSTEM.norm>
0

>  <SCORE.heavy>
35

>  <SCORE.norm>
-0.0274159

>  <RMSD>
34.577

$$$$
2o3v_lig
 OpenBabel02141814113D
libRbt.so/2013.1/901 2013/11/27
 35 37  0  0  0  0  0  0  0  0999 V2000
   -4.5984    2.7183   14.0355 C   0  0  2  0  0  0  0  0  0  0  0  0
   -3.6208    2.0902   13.1508 O   0  0  0  0  0  0  0  0  0  0  0  0
   -3.4749    1.8001    8.8124 C   0  0  2  0  0  0  0  0  0  0  0  0
   -3.2710    2.1675    7.3786 N   0  0  0  0  0  0  0  0  0  0  0  0
    1.7773    7.9017   16.5000 C   0  0  2  0  0  0  0  0  0  0  0  0
    2.3315    6.7009   15.9199 O   0  0  0  0  0  0  0  0  0  0  0  0
   -3.8171    3.9387   14.6173 C   0  0  2  0  0  0  0  0  0  0  0  0
   -3.3535    4.8421   13.5379 N   0  0  0  0  0  0  0  0  0  0  0  0
   -4.5814    2.7360    9.4643 C   0  0  0  0  0  0  0  0  0  0  0  0
    0.6213    7.4677   17.4663 C   0  0  2  0  0  0  0  0  0  0  0  0
    1.1201    6.5345   18.5081 N   0  0  0  0  0  0  0  0  0  0  0  0
   -2.5766    3.4724   15.4967 C   0  0  1  0  0  0  0  0  0  0  0  0
   -1.8214    4.6475   16.0038 O   0  0  0  0  0  0  0  0  0  0  0  0
   -4.7705    2.3325   10.9907 C   0  0  2  0  0  0  0  0  0  0  0  0
   -5.7890    3.2002   11.6201 N   0  0  0  0  0  0  0  0  0  0  0  0
   -0.5917    6.8117   16.6706 C   0  0  1  0  0  0  0  0  0  0  0  0
   -1.6908    6.4307   17.5375 O   0  0  0  0  0  0  0  0  0  0  0  0
   -3.1354    2.5142   16.6383 C   0  0  2  0  0  0  0  0  0  0  0  0
   -2.0921    2.0264   17.4625 O   0  0  0  0  0  0  0  0  0  0  0  0
   -3.3929    2.4707   11.7603 C   0  0  2  0  0  0  0  0  0  0  0  0
   -1.0905    7.8320   15.5988 C   0  0  2  0  0  0  0  0  0  0  0  0
   -2.1650    7.2974   14.8510 O   0  0  0  0  0  0  0  0  0  0  0  0
   -3.9285    1.3067   16.0083 C   0  0  2  0  0  0  0  0  0  0  0  0
   -5.0144    1.8174   15.1455 O   0  0  0  0  0  0  0  0  0  0  0  0
   -2.3151    1.5569   11.1125 C   0  0  2  0  0  0  0  0  0  0  0  0
   -1.0724    1.7653   11.8428 O   0  0  0  0  0  0  0  0  0  0  0  0
    0.1046    8.2458   14.6502 C   0  0  2  0  0  0  0  0  0  0  0  0
    1.2256    8.7959   15.4463 O   0  0  0  0  0  0  0  0  0  0  0  0
   -4.5079    0.3906   17.0853 C   0  0  0  0  0  0  0  0  0  0  0  0
   -5.4989    1.0516   17.8335 O   0  0  0  0  0  0  0  0  0  0  0  0
   -2.1304    1.9437    9.6264 C   0  0  1  0  0  0  0  0  0  0  0  0
   -1.1521    1.0967    9.0611 O   0  0  0  0  0  0  0  0  0  0  0  0
   -0.3242    9.2742   13.6146 C   0  0  0  0  0  0  0  0  0  0  0  0
   -0.9066   10.3904   14.2428 O   0  0  0  0  0  0  0  0  0  0  0  0
   -2.6553    5.6221   16.8020 C   0  0  0  0  0  0  0  0  0  0  0  0
  1  2  1  6  0  0  0
  1  7  1  0  0  0  0
  1 24  1  0  0  0  0
  3  4  1  6  0  0  0
  3  9  1  0  0  0  0
  3 31  1  0  0  0  0
  5  6  1  6  0  0  0
  5 10  1  0  0  0  0
  5 28  1  0  0  0  0
  7  8  1  6  0  0  0
  7 12  1  0  0  0  0
  9 14  1  0  0  0  0
 10 11  1  1  0  0  0
 10 16  1  0  0  0  0
 12 13  1  1  0  0  0
 12 18  1  0  0  0  0
 13 35  1  0  0  0  0
 14 15  1  1  0  0  0
 14 20  1  0  0  0  0
 16 17  1  1  0  0  0
 16 21  1  0  0  0  0
 17 35  1  0  0  0  0
 18 19  1  6  0  0  0
 18 23  1  0  0  0  0
 20  2  1  1  0  0  0
 20 25  1  0  0  0  0
 21 22  1  6  0  0  0
 21 27  1  0  0  0  0
 23 24  1  0  0  0  0
 23 29  1  1  0  0  0
 25 26  1  1  0  0  0
 25 31  1  0  0  0  0
 27 28  1  0  0  0  0
 27 33  1  6  0  0  0
 29 30  1  0  0  0  0
 31 32  1  6  0  0  0
 33 34  1  0  0  0  0
M  END
>  <CHROM.1>
-85.97944734,56.38919265,162.62907075,-169.60207455,43.82136763,-57.23816964
66.13443971,54.65671673,-2.21235045,4.33375643,14.22406697,2.44493345,-0.96601966
-1.65554261

>  <Name>
2o3v_lig

>  <RI>
0

>  <Rbt.Current_Directory>
/home/afrankz/demos/rdock_decoys_rna/rnas/2o3v

>  <Rbt.Executable>
rbdock ($Id: //depot/dev/client3/rdock/2013.1/src/exe/rbdock.cxx#4 $)

>  <Rbt.Library>
libRbt.so (2013.1, Build901 2013/11/27)

>  <Rbt.Parameter_File>
/export/apps/rDock/src/rDock_2013.1_src/data/scripts/dock_solv.prm

>  <Rbt.Receptor>
prm/blind_docking_20.prm

>  <SCORE>
-13.6094

>  <SCORE.INTER>
-18.4746

>  <SCORE.INTER.CONST>
1

>  <SCORE.INTER.POLAR>
-3.42452

>  <SCORE.INTER.ROT>
8

>  <SCORE.INTER.SOLV>
30.747

>  <SCORE.INTER.VDW>
-20.0837

>  <SCORE.INTER.norm>
-0.527846

>  <SCORE.INTRA>
1.22872

>  <SCORE.INTRA.DIHEDRAL>
-6.7721

>  <SCORE.INTRA.DIHEDRAL.0>
13.1227

>  <SCORE.INTRA.POLAR>
0

>  <SCORE.INTRA.POLAR.0>
0

>  <SCORE.INTRA.REPUL>
0

>  <SCORE.INTRA.REPUL.0>
0

>  <SCORE.INTRA.SOLV>
4.49582

>  <SCORE.INTRA.SOLV.lig_0>
-89.1587

>  <SCORE.INTRA.VDW>
2.36685

>  <SCORE.INTRA.VDW.0>
-0.838383

>  <SCORE.INTRA.norm>
0.0351062

>  <SCORE.RESTR>
3.63649

>  <SCORE.RESTR.CAVITY>
3.63649

>  <SCORE.RESTR.norm>
0.1039

>  <SCORE.SYSTEM>
0

>  <SCORE.SYSTEM.CONST>
0

>  <SCORE.SYSTEM.DIHEDRAL>
0

>  <SCORE.SYSTEM.SOLV>
0

>  <SCORE.SYSTEM.norm>
0

>  <SCORE.heavy>
35

>  <SCORE.norm>
-0.38884

>  <RMSD>
34.616

$$$$
2o3v_lig
 OpenBabel02141814113D
libRbt.so/2013.1/901 2013/11/27
 35 37  0  0  0  0  0  0  0  0999 V2000
   -2.9118    3.8132   15.4245 C   0  0  2  0  0  0  0  0  0  0  0  0
   -4.0759    4.2298   16.2017 O   0  0  0  0  0  0  0  0  0  0  0  0
   -3.6849    5.1757   20.4302 C   0  0  2  0  0  0  0  0  0  0  0  0
   -3.6004    5.9580   21.7002 N   0  0  0  0  0  0  0  0  0  0  0  0
   -3.2251   -0.4205    8.1207 C   0  0  2  0  0  0  0  0  0  0  0  0
   -4.0359   -0.3424    6.9283 O   0  0  0  0  0  0  0  0  0  0  0  0
   -3.4429    3.8268   13.9561 C   0  0  2  0  0  0  0  0  0  0  0  0
   -3.9366    5.1718   13.5773 N   0  0  0  0  0  0  0  0  0  0  0  0
   -2.4951    5.5816   19.4580 C   0  0  0  0  0  0  0  0  0  0  0  0
   -3.9966    0.3244    9.2645 C   0  0  2  0  0  0  0  0  0  0  0  0
   -5.3409   -0.2700    9.4750 N   0  0  0  0  0  0  0  0  0  0  0  0
   -4.5955    2.7521   13.7420 C   0  0  1  0  0  0  0  0  0  0  0  0
   -5.1172    2.8117   12.3518 O   0  0  0  0  0  0  0  0  0  0  0  0
   -2.6149    4.7445   18.1115 C   0  0  2  0  0  0  0  0  0  0  0  0
   -1.5224    5.1159   17.1869 N   0  0  0  0  0  0  0  0  0  0  0  0
   -4.1212    1.8836    8.9674 C   0  0  1  0  0  0  0  0  0  0  0  0
   -4.8024    2.6039   10.0266 O   0  0  0  0  0  0  0  0  0  0  0  0
   -4.0064    1.3328   14.1572 C   0  0  2  0  0  0  0  0  0  0  0  0
   -4.9760    0.3093   14.0221 O   0  0  0  0  0  0  0  0  0  0  0  0
   -4.0175    5.0187   17.4283 C   0  0  2  0  0  0  0  0  0  0  0  0
   -2.6862    2.4660    8.7676 C   0  0  2  0  0  0  0  0  0  0  0  0
   -2.7354    3.8515    8.4890 O   0  0  0  0  0  0  0  0  0  0  0  0
   -3.4689    1.3684   15.6382 C   0  0  2  0  0  0  0  0  0  0  0  0
   -2.4601    2.4394   15.7786 O   0  0  0  0  0  0  0  0  0  0  0  0
   -5.1752    4.6248   18.3880 C   0  0  2  0  0  0  0  0  0  0  0  0
   -6.4263    4.9402   17.7124 O   0  0  0  0  0  0  0  0  0  0  0  0
   -1.9431    1.6853    7.6110 C   0  0  2  0  0  0  0  0  0  0  0  0
   -1.9061    0.2357    7.9110 O   0  0  0  0  0  0  0  0  0  0  0  0
   -2.8634    0.0272   16.0497 C   0  0  0  0  0  0  0  0  0  0  0  0
   -1.8880   -0.3930   15.1272 O   0  0  0  0  0  0  0  0  0  0  0  0
   -5.0604    5.4344   19.7008 C   0  0  1  0  0  0  0  0  0  0  0  0
   -6.1183    5.0544   20.5556 O   0  0  0  0  0  0  0  0  0  0  0  0
   -0.5223    2.1899    7.4089 C   0  0  0  0  0  0  0  0  0  0  0  0
    0.1048    1.4859    6.3643 O   0  0  0  0  0  0  0  0  0  0  0  0
   -4.1183    2.3968   11.2972 C   0  0  0  0  0  0  0  0  0  0  0  0
  1  2  1  1  0  0  0
  1  7  1  0  0  0  0
  1 24  1  0  0  0  0
  3  4  1  1  0  0  0
  3  9  1  0  0  0  0
  3 31  1  0  0  0  0
  5  6  1  6  0  0  0
  5 10  1  0  0  0  0
  5 28  1  0  0  0  0
  7  8  1  1  0  0  0
  7 12  1  0  0  0  0
  9 14  1  0  0  0  0
 10 11  1  6  0  0  0
 10 16  1  0  0  0  0
 12 13  1  6  0  0  0
 12 18  1  0  0  0  0
 13 35  1  0  0  0  0
 14 15  1  6  0  0  0
 14 20  1  0  0  0  0
 16 17  1  1  0  0  0
 16 21  1  0  0  0  0
 17 35  1  0  0  0  0
 18 19  1  1  0  0  0
 18 23  1  0  0  0  0
 20  2  1  6  0  0  0
 20 25  1  0  0  0  0
 21 22  1  6  0  0  0
 21 27  1  0  0  0  0
 23 24  1  0  0  0  0
 23 29  1  6  0  0  0
 25 26  1  6  0  0  0
 25 31  1  0  0  0  0
 27 28  1  0  0  0  0
 27 33  1  1  0  0  0
 29 30  1  0  0  0  0
 31 32  1  1  0  0  0
 33 34  1  0  0  0  0
M  END
>  <CHROM.1>
-146.81107021,66.19136714,-176.75124984,56.93866519,-163.04287714,-26.78154446
53.21263031,-179.33429585,-3.54080831,2.75446584,13.57917816,-1.76667713
-0.92124534,-2.05466774

>  <Name>
2o3v_lig

>  <RI>
0

>  <Rbt.Current_Directory>
/home/afrankz/demos/rdock_decoys_rna/rnas/2o3v

>  <Rbt.Executable>
rbdock ($Id: //depot/dev/client3/rdock/2013.1/src/exe/rbdock.cxx#4 $)

>  <Rbt.Library>
libRbt.so (2013.1, Build901 2013/11/27)

>  <Rbt.Parameter_File>
/export/apps/rDock/src/rDock_2013.1_src/data/scripts/dock_solv.prm

>  <Rbt.Receptor>
prm/blind_docking_100.prm

>  <SCORE>
5.33594

>  <SCORE.INTER>
-0.882692

>  <SCORE.INTER.CONST>
1

>  <SCORE.INTER.POLAR>
-1.80485

>  <SCORE.INTER.ROT>
8

>  <SCORE.INTER.SOLV>
29.1069

>  <SCORE.INTER.VDW>
-13.2079

>  <SCORE.INTER.norm>
-0.0252198

>  <SCORE.INTRA>
1.57339

>  <SCORE.INTRA.DIHEDRAL>
-2.91398

>  <SCORE.INTRA.DIHEDRAL.0>
13.1227

>  <SCORE.INTRA.POLAR>
0

>  <SCORE.INTRA.POLAR.0>
0

>  <SCORE.INTRA.REPUL>
0

>  <SCORE.INTRA.REPUL.0>
0

>  <SCORE.INTRA.SOLV>
1.38011

>  <SCORE.INTRA.SOLV.lig_0>
-89.1587

>  <SCORE.INTRA.VDW>
2.34032

>  <SCORE.INTRA.VDW.0>
-0.838383

>  <SCORE.INTRA.norm>
0.0449539

>  <SCORE.RESTR>
4.64525

>  <SCORE.RESTR.CAVITY>
4.64525

>  <SCORE.RESTR.norm>
0.132721

>  <SCORE.SYSTEM>
0

>  <SCORE.SYSTEM.CONST>
0

>  <SCORE.SYSTEM.DIHEDRAL>
0

>  <SCORE.SYSTEM.SOLV>
0

>  <SCORE.SYSTEM.norm>
0

>  <SCORE.heavy>
35

>  <SCORE.norm>
0.152456

>  <RMSD>
34.995

$$$$
2o3v_lig
 OpenBabel02141814113D
libRbt.so/2013.1/901 2013/11/27
 35 37  0  0  0  0  0  0  0  0999 V2000
   -2.7564    1.9725   16.4884 C   0  0  2  0  0  0  0  0  0  0  0  0
   -4.1809    2.0058   16.8084 O   0  0  0  0  0  0  0  0  0  0  0  0
   -5.6831    5.7741   18.3803 C   0  0  2  0  0  0  0  0  0  0  0  0
   -6.3348    6.7660   19.2879 N   0  0  0  0  0  0  0  0  0  0  0  0
   -2.7337    1.1055    7.4737 C   0  0  2  0  0  0  0  0  0  0  0  0
   -3.4197    2.2652    6.9541 O   0  0  0  0  0  0  0  0  0  0  0  0
   -2.6396    2.9648   15.2883 C   0  0  2  0  0  0  0  0  0  0  0  0
   -3.1139    4.3177   15.6635 N   0  0  0  0  0  0  0  0  0  0  0  0
   -6.7393    4.6807   17.9174 C   0  0  0  0  0  0  0  0  0  0  0  0
   -2.8833    1.1298    9.0342 C   0  0  2  0  0  0  0  0  0  0  0  0
   -4.3138    1.1452    9.4321 N   0  0  0  0  0  0  0  0  0  0  0  0
   -3.4473    2.4454   14.0205 C   0  0  1  0  0  0  0  0  0  0  0  0
   -3.3601    3.4240   12.9056 O   0  0  0  0  0  0  0  0  0  0  0  0
   -6.0185    3.6323   16.9635 C   0  0  2  0  0  0  0  0  0  0  0  0
   -6.9823    2.5981   16.5299 N   0  0  0  0  0  0  0  0  0  0  0  0
   -2.1169    2.3686    9.6766 C   0  0  1  0  0  0  0  0  0  0  0  0
   -2.2107    2.3973   11.1241 O   0  0  0  0  0  0  0  0  0  0  0  0
   -2.8915    0.9975   13.6622 C   0  0  2  0  0  0  0  0  0  0  0  0
   -3.5730    0.4405   12.5526 O   0  0  0  0  0  0  0  0  0  0  0  0
   -4.8053    2.9552   17.7243 C   0  0  2  0  0  0  0  0  0  0  0  0
   -0.6180    2.3026    9.2434 C   0  0  2  0  0  0  0  0  0  0  0  0
    0.1128    3.3887    9.7781 O   0  0  0  0  0  0  0  0  0  0  0  0
   -3.0145    0.0346   14.9038 C   0  0  2  0  0  0  0  0  0  0  0  0
   -2.3061    0.6190   16.0619 O   0  0  0  0  0  0  0  0  0  0  0  0
   -3.7805    4.0320   18.1789 C   0  0  2  0  0  0  0  0  0  0  0  0
   -2.7195    3.3447   18.9019 O   0  0  0  0  0  0  0  0  0  0  0  0
   -0.5128    2.2753    7.6662 C   0  0  2  0  0  0  0  0  0  0  0  0
   -1.2889    1.1390    7.1192 O   0  0  0  0  0  0  0  0  0  0  0  0
   -2.4530   -1.3532   14.5977 C   0  0  0  0  0  0  0  0  0  0  0  0
   -2.4281   -2.1559   15.7526 O   0  0  0  0  0  0  0  0  0  0  0  0
   -4.4784    5.0561   19.1043 C   0  0  1  0  0  0  0  0  0  0  0  0
   -3.5289    6.0245   19.4978 O   0  0  0  0  0  0  0  0  0  0  0  0
    0.9300    2.1668    7.1965 C   0  0  0  0  0  0  0  0  0  0  0  0
    0.9934    2.2086    5.7915 O   0  0  0  0  0  0  0  0  0  0  0  0
   -3.5449    2.8182   11.5340 C   0  0  0  0  0  0  0  0  0  0  0  0
  1  2  1  6  0  0  0
  1  7  1  0  0  0  0
  1 24  1  0  0  0  0
  3  4  1  1  0  0  0
  3  9  1  0  0  0  0
  3 31  1  0  0  0  0
  5  6  1  6  0  0  0
  5 10  1  0  0  0  0
  5 28  1  0  0  0  0
  7  8  1  1  0  0  0
  7 12  1  0  0  0  0
  9 14  1  0  0  0  0
 10 11  1  6  0  0  0
 10 16  1  0  0  0  0
 12 13  1  6  0  0  0
 12 18  1  0  0  0  0
 13 35  1  0  0  0  0
 14 15  1  1  0  0  0
 14 20  1  0  0  0  0
 16 17  1  1  0  0  0
 16 21  1  0  0  0  0
 17 35  1  0  0  0  0
 18 19  1  6  0  0  0
 18 23  1  0  0  0  0
 20  2  1  6  0  0  0
 20 25  1  0  0  0  0
 21 22  1  6  0  0  0
 21 27  1  0  0  0  0
 23 24  1  0  0  0  0
 23 29  1  6  0  0  0
 25 26  1  1  0  0  0
 25 31  1  0  0  0  0
 27 28  1  0  0  0  0
 27 33  1  1  0  0  0
 29 30  1  0  0  0  0
 31 32  1  6  0  0  0
 33 34  1  0  0  0  0
M  END
>  <CHROM.1>
-87.97284730,154.78165101,-87.93814872,-74.16995515,-154.23744008,127.65015353
173.30942305,-177.22647457,-3.06876190,2.47135081,13.47451587,-2.71143458
1.21710939,-0.66964730

>  <Name>
2o3v_lig

>  <RI>
0

>  <Rbt.Current_Directory>
/home/afrankz/demos/rdock_decoys_rna/rnas/2o3v

>  <Rbt.Executable>
rbdock ($Id: //depot/dev/client3/rdock/2013.1/src/exe/rbdock.cxx#4 $)

>  <Rbt.Library>
libRbt.so (2013.1, Build901 2013/11/27)

>  <Rbt.Parameter_File>
/export/apps/rDock/src/rDock_2013.1_src/data/scripts/dock_solv.prm

>  <Rbt.Receptor>
prm/blind_docking_100.prm

>  <SCORE>
-1.24527

>  <SCORE.INTER>
-13.8531

>  <SCORE.INTER.CONST>
1

>  <SCORE.INTER.POLAR>
-1.4909

>  <SCORE.INTER.ROT>
8

>  <SCORE.INTER.SOLV>
25.0701

>  <SCORE.INTER.VDW>
-21.5558

>  <SCORE.INTER.norm>
-0.395803

>  <SCORE.INTRA>
9.16503

>  <SCORE.INTRA.DIHEDRAL>
6.89852

>  <SCORE.INTRA.DIHEDRAL.0>
13.1227

>  <SCORE.INTRA.POLAR>
0

>  <SCORE.INTRA.POLAR.0>
0

>  <SCORE.INTRA.REPUL>
0

>  <SCORE.INTRA.REPUL.0>
0

>  <SCORE.INTRA.SOLV>
4.56697

>  <SCORE.INTRA.SOLV.lig_0>
-89.1587

>  <SCORE.INTRA.VDW>
3.43229

>  <SCORE.INTRA.VDW.0>
-0.838383

>  <SCORE.INTRA.norm>
0.261858

>  <SCORE.RESTR>
3.44281

>  <SCORE.RESTR.CAVITY>
3.44281

>  <SCORE.RESTR.norm>
0.0983659

>  <SCORE.SYSTEM>
0

>  <SCORE.SYSTEM.CONST>
0

>  <SCORE.SYSTEM.DIHEDRAL>
0

>  <SCORE.SYSTEM.SOLV>
0

>  <SCORE.SYSTEM.norm>
0

>  <SCORE.heavy>
35

>  <SCORE.norm>
-0.035579

>  <RMSD>
35.079

$$$$
2o3v_lig
 OpenBabel02141814113D
libRbt.so/2013.1/901 2013/11/27
 35 37  0  0  0  0  0  0  0  0999 V2000
   -4.1090    2.4340    9.6711 C   0  0  2  0  0  0  0  0  0  0  0  0
   -2.9153    3.0610    9.1104 O   0  0  0  0  0  0  0  0  0  0  0  0
    0.5710    2.3344    6.6113 C   0  0  2  0  0  0  0  0  0  0  0  0
    1.7021    1.6296    5.9359 N   0  0  0  0  0  0  0  0  0  0  0  0
   -6.0841    1.1210   16.8489 C   0  0  2  0  0  0  0  0  0  0  0  0
   -5.7192    0.3656   18.0245 O   0  0  0  0  0  0  0  0  0  0  0  0
   -3.7090    2.1776   11.1587 C   0  0  2  0  0  0  0  0  0  0  0  0
   -3.3480    3.4421   11.8420 N   0  0  0  0  0  0  0  0  0  0  0  0
    0.7537    2.2744    8.1888 C   0  0  0  0  0  0  0  0  0  0  0  0
   -5.0880    0.7228   15.7054 C   0  0  2  0  0  0  0  0  0  0  0  0
   -5.1255   -0.7398   15.4516 N   0  0  0  0  0  0  0  0  0  0  0  0
   -2.5048    1.1447   11.2698 C   0  0  1  0  0  0  0  0  0  0  0  0
   -2.1107    0.9487   12.6891 O   0  0  0  0  0  0  0  0  0  0  0  0
   -0.4672    3.0202    8.8826 C   0  0  2  0  0  0  0  0  0  0  0  0
   -0.3225    2.9659   10.3532 N   0  0  0  0  0  0  0  0  0  0  0  0
   -3.6018    1.1893   16.0348 C   0  0  1  0  0  0  0  0  0  0  0  0
   -2.6638    0.8629   14.9773 O   0  0  0  0  0  0  0  0  0  0  0  0
   -2.9521   -0.1901   10.5269 C   0  0  2  0  0  0  0  0  0  0  0  0
   -1.9267   -1.1666   10.5530 O   0  0  0  0  0  0  0  0  0  0  0  0
   -1.8313    2.3418    8.4486 C   0  0  2  0  0  0  0  0  0  0  0  0
   -3.6095    2.7315   16.2797 C   0  0  2  0  0  0  0  0  0  0  0  0
   -2.3125    3.2026   16.5884 O   0  0  0  0  0  0  0  0  0  0  0  0
   -3.3609    0.1166    9.0361 C   0  0  2  0  0  0  0  0  0  0  0  0
   -4.4283    1.1386    9.0104 O   0  0  0  0  0  0  0  0  0  0  0  0
   -1.9990    2.3994    6.9043 C   0  0  2  0  0  0  0  0  0  0  0  0
   -3.2481    1.7256    6.5772 O   0  0  0  0  0  0  0  0  0  0  0  0
   -4.6281    3.0894   17.4346 C   0  0  2  0  0  0  0  0  0  0  0  0
   -5.9796    2.5834   17.1027 O   0  0  0  0  0  0  0  0  0  0  0  0
   -3.8305   -1.1435    8.3105 C   0  0  0  0  0  0  0  0  0  0  0  0
   -2.7697   -2.0496    8.1302 O   0  0  0  0  0  0  0  0  0  0  0  0
   -0.8114    1.6780    6.2251 C   0  0  1  0  0  0  0  0  0  0  0  0
   -0.9848    1.7494    4.8254 O   0  0  0  0  0  0  0  0  0  0  0  0
   -4.7025    4.5889   17.6797 C   0  0  0  0  0  0  0  0  0  0  0  0
   -5.5827    5.1932   16.7631 O   0  0  0  0  0  0  0  0  0  0  0  0
   -3.2005    1.2706   13.6846 C   0  0  0  0  0  0  0  0  0  0  0  0
  1  2  1  6  0  0  0
  1  7  1  0  0  0  0
  1 24  1  0  0  0  0
  3  4  1  6  0  0  0
  3  9  1  0  0  0  0
  3 31  1  0  0  0  0
  5  6  1  1  0  0  0
  5 10  1  0  0  0  0
  5 28  1  0  0  0  0
  7  8  1  6  0  0  0
  7 12  1  0  0  0  0
  9 14  1  0  0  0  0
 10 11  1  1  0  0  0
 10 16  1  0  0  0  0
 12 13  1  1  0  0  0
 12 18  1  0  0  0  0
 13 35  1  0  0  0  0
 14 15  1  1  0  0  0
 14 20  1  0  0  0  0
 16 17  1  6  0  0  0
 16 21  1  0  0  0  0
 17 35  1  0  0  0  0
 18 19  1  6  0  0  0
 18 23  1  0  0  0  0
 20  2  1  1  0  0  0
 20 25  1  0  0  0  0
 21 22  1  1  0  0  0
 21 27  1  0  0  0  0
 23 24  1  0  0  0  0
 23 29  1  1  0  0  0
 25 26  1  1  0  0  0
 25 31  1  0  0  0  0
 27 28  1  0  0  0  0
 27 33  1  6  0  0  0
 29 30  1  0  0  0  0
 31 32  1  6  0  0  0
 33 34  1  0  0  0  0
M  END
>  <CHROM.1>
92.26024414,23.36141261,173.45880712,48.02486862,177.02505764,-141.09025154
-67.45980776,83.02434870,-2.96120495,1.65121181,11.64992007,-0.90067844,0.98636217
0.90611463

>  <Name>
2o3v_lig

>  <RI>
0

>  <Rbt.Current_Directory>
/home/afrankz/demos/rdock_decoys_rna/rnas/2o3v

>  <Rbt.Executable>
rbdock ($Id: //depot/dev/client3/rdock/2013.1/src/exe/rbdock.cxx#4 $)

>  <Rbt.Library>
libRbt.so (2013.1, Build901 2013/11/27)

>  <Rbt.Parameter_File>
/export/apps/rDock/src/rDock_2013.1_src/data/scripts/dock_solv.prm

>  <Rbt.Receptor>
prm/blind_docking_20.prm

>  <SCORE>
13.7662

>  <SCORE.INTER>
-1.36862

>  <SCORE.INTER.CONST>
1

>  <SCORE.INTER.POLAR>
-1.30808

>  <SCORE.INTER.ROT>
8

>  <SCORE.INTER.SOLV>
26.6195

>  <SCORE.INTER.VDW>
-14.3586

>  <SCORE.INTER.norm>
-0.0391034

>  <SCORE.INTRA>
7.69995

>  <SCORE.INTRA.DIHEDRAL>
3.80313

>  <SCORE.INTRA.DIHEDRAL.0>
13.1227

>  <SCORE.INTRA.POLAR>
0

>  <SCORE.INTRA.POLAR.0>
0

>  <SCORE.INTRA.REPUL>
0

>  <SCORE.INTRA.REPUL.0>
0

>  <SCORE.INTRA.SOLV>
5.11481

>  <SCORE.INTRA.SOLV.lig_0>
-89.1587

>  <SCORE.INTRA.VDW>
3.24097

>  <SCORE.INTRA.VDW.0>
-0.838383

>  <SCORE.INTRA.norm>
0.219998

>  <SCORE.RESTR>
7.43487

>  <SCORE.RESTR.CAVITY>
7.43487

>  <SCORE.RESTR.norm>
0.212425

>  <SCORE.SYSTEM>
0

>  <SCORE.SYSTEM.CONST>
0

>  <SCORE.SYSTEM.DIHEDRAL>
0

>  <SCORE.SYSTEM.SOLV>
0

>  <SCORE.SYSTEM.norm>
0

>  <SCORE.heavy>
35

>  <SCORE.norm>
0.39332

>  <RMSD>
35.851

$$$$
2o3v_lig
 OpenBabel02141814113D
libRbt.so/2013.1/901 2013/11/27
 35 37  0  0  0  0  0  0  0  0999 V2000
   -4.4525    1.9320    8.9920 C   0  0  2  0  0  0  0  0  0  0  0  0
   -3.4585    2.9100    8.5582 O   0  0  0  0  0  0  0  0  0  0  0  0
   -0.1449    3.3848    5.7793 C   0  0  2  0  0  0  0  0  0  0  0  0
    0.6849    3.2845    4.5409 N   0  0  0  0  0  0  0  0  0  0  0  0
   -2.3027    3.8406   17.3727 C   0  0  2  0  0  0  0  0  0  0  0  0
   -3.1322    4.3626   18.4334 O   0  0  0  0  0  0  0  0  0  0  0  0
   -5.0836    2.6036   10.2526 C   0  0  2  0  0  0  0  0  0  0  0  0
   -5.6782    3.9192    9.9178 N   0  0  0  0  0  0  0  0  0  0  0  0
   -0.4309    1.9351    6.3643 C   0  0  0  0  0  0  0  0  0  0  0  0
   -2.6644    4.6237   16.0633 C   0  0  2  0  0  0  0  0  0  0  0  0
   -2.4686    6.0844   16.2449 N   0  0  0  0  0  0  0  0  0  0  0  0
   -4.0152    2.7785   11.4177 C   0  0  1  0  0  0  0  0  0  0  0  0
   -4.6238    3.4588   12.5903 O   0  0  0  0  0  0  0  0  0  0  0  0
   -1.3240    2.0692    7.6730 C   0  0  2  0  0  0  0  0  0  0  0  0
   -1.6118    0.7290    8.2276 N   0  0  0  0  0  0  0  0  0  0  0  0
   -4.1544    4.3194   15.5919 C   0  0  1  0  0  0  0  0  0  0  0  0
   -4.5053    5.0057   14.3629 O   0  0  0  0  0  0  0  0  0  0  0  0
   -3.4185    1.3377   11.7369 C   0  0  2  0  0  0  0  0  0  0  0  0
   -2.4335    1.3979   12.7527 O   0  0  0  0  0  0  0  0  0  0  0  0
   -2.6791    2.8136    7.3280 C   0  0  2  0  0  0  0  0  0  0  0  0
   -4.3084    2.7772   15.4010 C   0  0  2  0  0  0  0  0  0  0  0  0
   -5.6204    2.4454   14.9911 O   0  0  0  0  0  0  0  0  0  0  0  0
   -2.8067    0.6914   10.4362 C   0  0  2  0  0  0  0  0  0  0  0  0
   -3.8347    0.6329    9.3758 O   0  0  0  0  0  0  0  0  0  0  0  0
   -2.3900    4.2276    6.7508 C   0  0  2  0  0  0  0  0  0  0  0  0
   -3.6729    4.8333    6.4213 O   0  0  0  0  0  0  0  0  0  0  0  0
   -3.9304    2.0272   16.7404 C   0  0  2  0  0  0  0  0  0  0  0  0
   -2.5582    2.3899   17.1626 O   0  0  0  0  0  0  0  0  0  0  0  0
   -2.2597   -0.7093   10.7074 C   0  0  0  0  0  0  0  0  0  0  0  0
   -3.0404   -1.6905   10.0697 O   0  0  0  0  0  0  0  0  0  0  0  0
   -1.5184    4.1021    5.4794 C   0  0  1  0  0  0  0  0  0  0  0  0
   -1.2661    5.3984    4.9791 O   0  0  0  0  0  0  0  0  0  0  0  0
   -4.0235    0.5164   16.5893 C   0  0  0  0  0  0  0  0  0  0  0  0
   -3.6352   -0.1212   17.7820 O   0  0  0  0  0  0  0  0  0  0  0  0
   -3.7247    4.4775   13.2507 C   0  0  0  0  0  0  0  0  0  0  0  0
  1  2  1  1  0  0  0
  1  7  1  0  0  0  0
  1 24  1  0  0  0  0
  3  4  1  6  0  0  0
  3  9  1  0  0  0  0
  3 31  1  0  0  0  0
  5  6  1  1  0  0  0
  5 10  1  0  0  0  0
  5 28  1  0  0  0  0
  7  8  1  6  0  0  0
  7 12  1  0  0  0  0
  9 14  1  0  0  0  0
 10 11  1  1  0  0  0
 10 16  1  0  0  0  0
 12 13  1  1  0  0  0
 12 18  1  0  0  0  0
 13 35  1  0  0  0  0
 14 15  1  6  0  0  0
 14 20  1  0  0  0  0
 16 17  1  6  0  0  0
 16 21  1  0  0  0  0
 17 35  1  0  0  0  0
 18 19  1  1  0  0  0
 18 23  1  0  0  0  0
 20  2  1  1  0  0  0
 20 25  1  0  0  0  0
 21 22  1  1  0  0  0
 21 27  1  0  0  0  0
 23 24  1  0  0  0  0
 23 29  1  1  0  0  0
 25 26  1  6  0  0  0
 25 31  1  0  0  0  0
 27 28  1  0  0  0  0
 27 33  1  6  0  0  0
 29 30  1  0  0  0  0
 31 32  1  1  0  0  0
 33 34  1  0  0  0  0
M  END
>  <CHROM.1>
-173.57537536,-139.55110073,-179.62176023,66.89285050,96.70200977,-92.16101054
111.08328612,177.88660830,-3.06432012,2.69643035,11.48804759,0.04162961,-1.38985622
-3.09005676

>  <Name>
2o3v_lig

>  <RI>
0

>  <Rbt.Current_Directory>
/home/afrankz/demos/rdock_decoys_rna/rnas/2o3v

>  <Rbt.Executable>
rbdock ($Id: //depot/dev/client3/rdock/2013.1/src/exe/rbdock.cxx#4 $)

>  <Rbt.Library>
libRbt.so (2013.1, Build901 2013/11/27)

>  <Rbt.Parameter_File>
/export/apps/rDock/src/rDock_2013.1_src/data/scripts/dock_solv.prm

>  <Rbt.Receptor>
prm/blind_docking_20.prm

>  <SCORE>
8.68358

>  <SCORE.INTER>
-4.49835

>  <SCORE.INTER.CONST>
1

>  <SCORE.INTER.POLAR>
-1.61909

>  <SCORE.INTER.ROT>
8

>  <SCORE.INTER.SOLV>
26.4776

>  <SCORE.INTER.VDW>
-15.3611

>  <SCORE.INTER.norm>
-0.128524

>  <SCORE.INTRA>
7.40871

>  <SCORE.INTRA.DIHEDRAL>
6.66623

>  <SCORE.INTRA.DIHEDRAL.0>
13.1227

>  <SCORE.INTRA.POLAR>
0

>  <SCORE.INTRA.POLAR.0>
0

>  <SCORE.INTRA.REPUL>
0

>  <SCORE.INTRA.REPUL.0>
0

>  <SCORE.INTRA.SOLV>
4.4683

>  <SCORE.INTRA.SOLV.lig_0>
-89.1587

>  <SCORE.INTRA.VDW>
1.84145

>  <SCORE.INTRA.VDW.0>
-0.838383

>  <SCORE.INTRA.norm>
0.211678

>  <SCORE.RESTR>
5.77322

>  <SCORE.RESTR.CAVITY>
5.77322

>  <SCORE.RESTR.norm>
0.164949

>  <SCORE.SYSTEM>
0

>  <SCORE.SYSTEM.CONST>
0

>  <SCORE.SYSTEM.DIHEDRAL>
0

>  <SCORE.SYSTEM.SOLV>
0

>  <SCORE.SYSTEM.norm>
0

>  <SCORE.heavy>
35

>  <SCORE.norm>
0.248102

>  <RMSD>
36.417

$$$$
2o3v_lig
 OpenBabel02141814113D
libRbt.so/2013.1/901 2013/11/27
 35 37  0  0  0  0  0  0  0  0999 V2000
   -2.5927    2.6078    8.6347 C   0  0  2  0  0  0  0  0  0  0  0  0
   -1.1692    2.4116    8.3741 O   0  0  0  0  0  0  0  0  0  0  0  0
    0.2165    1.8803    4.2845 C   0  0  2  0  0  0  0  0  0  0  0  0
    0.8650    2.1536    2.9666 N   0  0  0  0  0  0  0  0  0  0  0  0
   -3.7683    1.2113   17.6784 C   0  0  2  0  0  0  0  0  0  0  0  0
   -2.3810    0.8154   17.7427 O   0  0  0  0  0  0  0  0  0  0  0  0
   -2.6745    2.5807   10.1939 C   0  0  2  0  0  0  0  0  0  0  0  0
   -1.8282    3.6394   10.7933 N   0  0  0  0  0  0  0  0  0  0  0  0
   -0.9420    2.9345    4.5525 C   0  0  0  0  0  0  0  0  0  0  0  0
   -4.2708    0.9316   16.2198 C   0  0  2  0  0  0  0  0  0  0  0  0
   -4.0906   -0.4976   15.8593 N   0  0  0  0  0  0  0  0  0  0  0  0
   -2.2523    1.1622   10.7762 C   0  0  1  0  0  0  0  0  0  0  0  0
   -2.2941    1.1710   12.2617 O   0  0  0  0  0  0  0  0  0  0  0  0
   -1.6069    2.6291    5.9643 C   0  0  2  0  0  0  0  0  0  0  0  0
   -2.6814    3.6072    6.2387 N   0  0  0  0  0  0  0  0  0  0  0  0
   -3.5388    1.8663   15.1590 C   0  0  1  0  0  0  0  0  0  0  0  0
   -4.0089    1.6519   13.8034 O   0  0  0  0  0  0  0  0  0  0  0  0
   -3.1962    0.0712   10.1037 C   0  0  2  0  0  0  0  0  0  0  0  0
   -2.8758   -1.2354   10.5464 O   0  0  0  0  0  0  0  0  0  0  0  0
   -0.5093    2.6982    7.1043 C   0  0  2  0  0  0  0  0  0  0  0  0
   -3.7670    3.3554   15.5703 C   0  0  2  0  0  0  0  0  0  0  0  0
   -3.1278    4.2350   14.6662 O   0  0  0  0  0  0  0  0  0  0  0  0
   -3.0942    0.1438    8.5327 C   0  0  2  0  0  0  0  0  0  0  0  0
   -3.4252    1.5088    8.0727 O   0  0  0  0  0  0  0  0  0  0  0  0
    0.6228    1.6685    6.8311 C   0  0  2  0  0  0  0  0  0  0  0  0
    1.6100    1.8162    7.8916 O   0  0  0  0  0  0  0  0  0  0  0  0
   -3.2518    3.5927   17.0459 C   0  0  2  0  0  0  0  0  0  0  0  0
   -3.9224    2.6602   17.9804 O   0  0  0  0  0  0  0  0  0  0  0  0
   -4.0199   -0.8695    7.8611 C   0  0  0  0  0  0  0  0  0  0  0  0
   -3.5355   -2.1808    8.0186 O   0  0  0  0  0  0  0  0  0  0  0  0
    1.2701    1.9598    5.4570 C   0  0  1  0  0  0  0  0  0  0  0  0
    2.2894    1.0089    5.2311 O   0  0  0  0  0  0  0  0  0  0  0  0
   -3.4935    5.0220   17.5074 C   0  0  0  0  0  0  0  0  0  0  0  0
   -4.8407    5.1987   17.8729 O   0  0  0  0  0  0  0  0  0  0  0  0
   -3.1121    2.2959   12.8515 C   0  0  0  0  0  0  0  0  0  0  0  0
  1  2  1  1  0  0  0
  1  7  1  0  0  0  0
  1 24  1  0  0  0  0
  3  4  1  6  0  0  0
  3  9  1  0  0  0  0
  3 31  1  0  0  0  0
  5  6  1  6  0  0  0
  5 10  1  0  0  0  0
  5 28  1  0  0  0  0
  7  8  1  1  0  0  0
  7 12  1  0  0  0  0
  9 14  1  0  0  0  0
 10 11  1  6  0  0  0
 10 16  1  0  0  0  0
 12 13  1  1  0  0  0
 12 18  1  0  0  0  0
 13 35  1  0  0  0  0
 14 15  1  1  0  0  0
 14 20  1  0  0  0  0
 16 17  1  6  0  0  0
 16 21  1  0  0  0  0
 17 35  1  0  0  0  0
 18 19  1  1  0  0  0
 18 23  1  0  0  0  0
 20  2  1  1  0  0  0
 20 25  1  0  0  0  0
 21 22  1  6  0  0  0
 21 27  1  0  0  0  0
 23 24  1  0  0  0  0
 23 29  1  6  0  0  0
 25 26  1  1  0  0  0
 25 31  1  0  0  0  0
 27 28  1  0  0  0  0
 27 33  1  1  0  0  0
 29 30  1  0  0  0  0
 31 32  1  6  0  0  0
 33 34  1  0  0  0  0
M  END
>  <CHROM.1>
-163.26403718,18.40957151,129.56841415,-167.12692947,103.38961224,-24.13904722
-72.20703658,78.01259937,-2.27361949,1.86316277,10.93041033,-0.92397596,1.06326327
0.90688904

>  <Name>
2o3v_lig

>  <RI>
0

>  <Rbt.Current_Directory>
/home/afrankz/demos/rdock_decoys_rna/rnas/2o3v

>  <Rbt.Executable>
rbdock ($Id: //depot/dev/client3/rdock/2013.1/src/exe/rbdock.cxx#4 $)

>  <Rbt.Library>
libRbt.so (2013.1, Build901 2013/11/27)

>  <Rbt.Parameter_File>
/export/apps/rDock/src/rDock_2013.1_src/data/scripts/dock_solv.prm

>  <Rbt.Receptor>
prm/blind_docking_20.prm

>  <SCORE>
23.6805

>  <SCORE.INTER>
3.67415

>  <SCORE.INTER.CONST>
1

>  <SCORE.INTER.POLAR>
-0.219233

>  <SCORE.INTER.ROT>
8

>  <SCORE.INTER.SOLV>
20.8991

>  <SCORE.INTER.VDW>
-12.7195

>  <SCORE.INTER.norm>
0.104976

>  <SCORE.INTRA>
13.1376

>  <SCORE.INTRA.DIHEDRAL>
13.6216

>  <SCORE.INTRA.DIHEDRAL.0>
13.1227

>  <SCORE.INTRA.POLAR>
0

>  <SCORE.INTRA.POLAR.0>
0

>  <SCORE.INTRA.REPUL>
0

>  <SCORE.INTRA.REPUL.0>
0

>  <SCORE.INTRA.SOLV>
2.04674

>  <SCORE.INTRA.SOLV.lig_0>
-89.1587

>  <SCORE.INTRA.VDW>
5.30342

>  <SCORE.INTRA.VDW.0>
-0.838383

>  <SCORE.INTRA.norm>
0.37536

>  <SCORE.RESTR>
6.86873

>  <SCORE.RESTR.CAVITY>
6.86873

>  <SCORE.RESTR.norm>
0.196249

>  <SCORE.SYSTEM>
0

>  <SCORE.SYSTEM.CONST>
0

>  <SCORE.SYSTEM.DIHEDRAL>
0

>  <SCORE.SYSTEM.SOLV>
0

>  <SCORE.SYSTEM.norm>
0

>  <SCORE.heavy>
35

>  <SCORE.norm>
0.676585

>  <RMSD>
36.600

$$$$
2o3v_lig
 OpenBabel02141814113D
libRbt.so/2013.1/901 2013/11/27
 35 37  0  0  0  0  0  0  0  0999 V2000
   -3.2008    2.1467    8.8570 C   0  0  2  0  0  0  0  0  0  0  0  0
   -1.9131    2.0077    8.1822 O   0  0  0  0  0  0  0  0  0  0  0  0
    0.1089    4.2782    5.0704 C   0  0  2  0  0  0  0  0  0  0  0  0
    0.4615    4.8286    3.7269 N   0  0  0  0  0  0  0  0  0  0  0  0
   -5.6559    2.7944   16.3722 C   0  0  2  0  0  0  0  0  0  0  0  0
   -5.4470    1.5466   17.0687 O   0  0  0  0  0  0  0  0  0  0  0  0
   -2.8080    2.1714   10.3681 C   0  0  2  0  0  0  0  0  0  0  0  0
   -1.8801    3.2889   10.6624 N   0  0  0  0  0  0  0  0  0  0  0  0
    0.2773    2.6980    5.0748 C   0  0  0  0  0  0  0  0  0  0  0  0
   -5.0418    2.6415   14.9377 C   0  0  2  0  0  0  0  0  0  0  0  0
   -5.6561    1.4996   14.2142 N   0  0  0  0  0  0  0  0  0  0  0  0
   -2.1529    0.7956   10.8237 C   0  0  1  0  0  0  0  0  0  0  0  0
   -1.7462    0.8553   12.2517 O   0  0  0  0  0  0  0  0  0  0  0  0
   -0.1148    2.1371    6.5102 C   0  0  2  0  0  0  0  0  0  0  0  0
    0.0240    0.6652    6.5325 N   0  0  0  0  0  0  0  0  0  0  0  0
   -3.4594    2.4748   14.9930 C   0  0  1  0  0  0  0  0  0  0  0  0
   -2.8604    2.3647   13.6763 O   0  0  0  0  0  0  0  0  0  0  0  0
   -3.1940   -0.3612   10.4899 C   0  0  2  0  0  0  0  0  0  0  0  0
   -2.6838   -1.6350   10.8409 O   0  0  0  0  0  0  0  0  0  0  0  0
   -1.6049    2.5447    6.8606 C   0  0  2  0  0  0  0  0  0  0  0  0
   -2.8581    3.7022   15.7484 C   0  0  2  0  0  0  0  0  0  0  0  0
   -1.4504    3.6029   15.8378 O   0  0  0  0  0  0  0  0  0  0  0  0
   -3.5735   -0.3400    8.9605 C   0  0  2  0  0  0  0  0  0  0  0  0
   -4.1021    0.9910    8.5949 O   0  0  0  0  0  0  0  0  0  0  0  0
   -1.7620    4.0912    6.8479 C   0  0  2  0  0  0  0  0  0  0  0  0
   -3.1581    4.3887    7.1371 O   0  0  0  0  0  0  0  0  0  0  0  0
   -3.5064    3.8222   17.1852 C   0  0  2  0  0  0  0  0  0  0  0  0
   -4.9802    3.9169   17.0776 O   0  0  0  0  0  0  0  0  0  0  0  0
   -4.6013   -1.4184    8.6204 C   0  0  0  0  0  0  0  0  0  0  0  0
   -4.7612   -1.5453    7.2286 O   0  0  0  0  0  0  0  0  0  0  0  0
   -1.3782    4.6414    5.4543 C   0  0  1  0  0  0  0  0  0  0  0  0
   -1.5240    6.0459    5.4713 O   0  0  0  0  0  0  0  0  0  0  0  0
   -2.9823    5.0320   17.9440 C   0  0  0  0  0  0  0  0  0  0  0  0
   -1.5789    5.0932   17.8615 O   0  0  0  0  0  0  0  0  0  0  0  0
   -2.8996    0.9809   13.2193 C   0  0  0  0  0  0  0  0  0  0  0  0
  1  2  1  6  0  0  0
  1  7  1  0  0  0  0
  1 24  1  0  0  0  0
  3  4  1  6  0  0  0
  3  9  1  0  0  0  0
  3 31  1  0  0  0  0
  5  6  1  1  0  0  0
  5 10  1  0  0  0  0
  5 28  1  0  0  0  0
  7  8  1  6  0  0  0
  7 12  1  0  0  0  0
  9 14  1  0  0  0  0
 10 11  1  1  0  0  0
 10 16  1  0  0  0  0
 12 13  1  1  0  0  0
 12 18  1  0  0  0  0
 13 35  1  0  0  0  0
 14 15  1  6  0  0  0
 14 20  1  0  0  0  0
 16 17  1  6  0  0  0
 16 21  1  0  0  0  0
 17 35  1  0  0  0  0
 18 19  1  6  0  0  0
 18 23  1  0  0  0  0
 20  2  1  1  0  0  0
 20 25  1  0  0  0  0
 21 22  1  1  0  0  0
 21 27  1  0  0  0  0
 23 24  1  0  0  0  0
 23 29  1  1  0  0  0
 25 26  1  6  0  0  0
 25 31  1  0  0  0  0
 27 28  1  0  0  0  0
 27 33  1  6  0  0  0
 29 30  1  0  0  0  0
 31 32  1  1  0  0  0
 33 34  1  0  0  0  0
M  END
>  <CHROM.1>
-149.27496217,65.95054026,-105.84254471,-85.23647183,-153.80941996,-178.86798341
-169.83779051,-47.38114555,-2.69229488,2.35707504,10.92724013,1.07674920
-1.06547993,-2.04232206

>  <Name>
2o3v_lig

>  <RI>
0

>  <Rbt.Current_Directory>
/home/afrankz/demos/rdock_decoys_rna/rnas/2o3v

>  <Rbt.Executable>
rbdock ($Id: //depot/dev/client3/rdock/2013.1/src/exe/rbdock.cxx#4 $)

>  <Rbt.Library>
libRbt.so (2013.1, Build901 2013/11/27)

>  <Rbt.Parameter_File>
/export/apps/rDock/src/rDock_2013.1_src/data/scripts/dock_solv.prm

>  <Rbt.Receptor>
prm/blind_docking_20.prm

>  <SCORE>
0.699866

>  <SCORE.INTER>
-7.65033

>  <SCORE.INTER.CONST>
1

>  <SCORE.INTER.POLAR>
-2.08334

>  <SCORE.INTER.ROT>
8

>  <SCORE.INTER.SOLV>
23.3301

>  <SCORE.INTER.VDW>
-14.8658

>  <SCORE.INTER.norm>
-0.218581

>  <SCORE.INTRA>
1.64638

>  <SCORE.INTRA.DIHEDRAL>
3.61085

>  <SCORE.INTRA.DIHEDRAL.0>
13.1227

>  <SCORE.INTRA.POLAR>
0

>  <SCORE.INTRA.POLAR.0>
0

>  <SCORE.INTRA.REPUL>
0

>  <SCORE.INTRA.REPUL.0>
0

>  <SCORE.INTRA.SOLV>
0.906668

>  <SCORE.INTRA.SOLV.lig_0>
-89.1587

>  <SCORE.INTRA.VDW>
-0.612383

>  <SCORE.INTRA.VDW.0>
-0.838383

>  <SCORE.INTRA.norm>
0.0470393

>  <SCORE.RESTR>
6.70382

>  <SCORE.RESTR.CAVITY>
6.70382

>  <SCORE.RESTR.norm>
0.191538

>  <SCORE.SYSTEM>
0

>  <SCORE.SYSTEM.CONST>
0

>  <SCORE.SYSTEM.DIHEDRAL>
0

>  <SCORE.SYSTEM.SOLV>
0

>  <SCORE.SYSTEM.norm>
0

>  <SCORE.heavy>
35

>  <SCORE.norm>
0.0199962

>  <RMSD>
36.837

$$$$
2o3v_lig
 OpenBabel02141814113D
libRbt.so/2013.1/901 2013/11/27
 35 37  0  0  0  0  0  0  0  0999 V2000
   -2.1819    1.7702    7.0247 C   0  0  2  0  0  0  0  0  0  0  0  0
   -0.7958    1.3185    7.1112 O   0  0  0  0  0  0  0  0  0  0  0  0
    0.3520    0.4679    3.0019 C   0  0  2  0  0  0  0  0  0  0  0  0
    1.1462    0.0024    1.8251 N   0  0  0  0  0  0  0  0  0  0  0  0
   -4.5493    3.1677   16.0808 C   0  0  2  0  0  0  0  0  0  0  0  0
   -5.8637    2.7659   15.6376 O   0  0  0  0  0  0  0  0  0  0  0  0
   -2.3254    2.7126    8.2615 C   0  0  2  0  0  0  0  0  0  0  0  0
   -1.3515    3.8281    8.2010 N   0  0  0  0  0  0  0  0  0  0  0  0
    1.1455    1.6022    3.7825 C   0  0  0  0  0  0  0  0  0  0  0  0
   -3.6407    3.2909   14.8090 C   0  0  2  0  0  0  0  0  0  0  0  0
   -4.2119    4.2582   13.8379 N   0  0  0  0  0  0  0  0  0  0  0  0
   -2.1452    1.9162    9.6263 C   0  0  1  0  0  0  0  0  0  0  0  0
   -2.2410    2.8376   10.7883 O   0  0  0  0  0  0  0  0  0  0  0  0
    0.2851    2.0711    5.0348 C   0  0  2  0  0  0  0  0  0  0  0  0
    1.0116    3.1197    5.7825 N   0  0  0  0  0  0  0  0  0  0  0  0
   -3.4130    1.8772   14.1130 C   0  0  1  0  0  0  0  0  0  0  0  0
   -2.5477    1.9565   12.9513 O   0  0  0  0  0  0  0  0  0  0  0  0
   -3.2177    0.7401    9.6366 C   0  0  2  0  0  0  0  0  0  0  0  0
   -3.1158   -0.0443   10.8115 O   0  0  0  0  0  0  0  0  0  0  0  0
   -0.0068    0.8357    5.9823 C   0  0  2  0  0  0  0  0  0  0  0  0
   -2.7999    0.8999   15.1654 C   0  0  2  0  0  0  0  0  0  0  0  0
   -2.5849   -0.3801   14.6042 O   0  0  0  0  0  0  0  0  0  0  0  0
   -3.0470   -0.1758    8.3656 C   0  0  2  0  0  0  0  0  0  0  0  0
   -3.1496    0.6447    7.1405 O   0  0  0  0  0  0  0  0  0  0  0  0
   -0.7774   -0.2712    5.2095 C   0  0  2  0  0  0  0  0  0  0  0  0
   -0.9742   -1.3852    6.1267 O   0  0  0  0  0  0  0  0  0  0  0  0
   -3.7431    0.8085   16.4308 C   0  0  2  0  0  0  0  0  0  0  0  0
   -3.9667    2.1558   17.0033 O   0  0  0  0  0  0  0  0  0  0  0  0
   -4.0896   -1.2923    8.3320 C   0  0  0  0  0  0  0  0  0  0  0  0
   -4.0970   -2.0153    9.5386 O   0  0  0  0  0  0  0  0  0  0  0  0
    0.0546   -0.7278    3.9882 C   0  0  1  0  0  0  0  0  0  0  0  0
   -0.6688   -1.7276    3.3016 O   0  0  0  0  0  0  0  0  0  0  0  0
   -3.1642   -0.1004   17.5044 C   0  0  0  0  0  0  0  0  0  0  0  0
   -2.3559    0.6373   18.3890 O   0  0  0  0  0  0  0  0  0  0  0  0
   -3.2937    2.4507   11.8004 C   0  0  0  0  0  0  0  0  0  0  0  0
  1  2  1  1  0  0  0
  1  7  1  0  0  0  0
  1 24  1  0  0  0  0
  3  4  1  6  0  0  0
  3  9  1  0  0  0  0
  3 31  1  0  0  0  0
  5  6  1  6  0  0  0
  5 10  1  0  0  0  0
  5 28  1  0  0  0  0
  7  8  1  6  0  0  0
  7 12  1  0  0  0  0
  9 14  1  0  0  0  0
 10 11  1  6  0  0  0
 10 16  1  0  0  0  0
 12 13  1  1  0  0  0
 12 18  1  0  0  0  0
 13 35  1  0  0  0  0
 14 15  1  1  0  0  0
 14 20  1  0  0  0  0
 16 17  1  6  0  0  0
 16 21  1  0  0  0  0
 17 35  1  0  0  0  0
 18 19  1  1  0  0  0
 18 23  1  0  0  0  0
 20  2  1  1  0  0  0
 20 25  1  0  0  0  0
 21 22  1  6  0  0  0
 21 27  1  0  0  0  0
 23 24  1  0  0  0  0
 23 29  1  6  0  0  0
 25 26  1  1  0  0  0
 25 31  1  0  0  0  0
 27 28  1  0  0  0  0
 27 33  1  1  0  0  0
 29 30  1  0  0  0  0
 31 32  1  6  0  0  0
 33 34  1  0  0  0  0
M  END
>  <CHROM.1>
-156.25316706,124.18455498,107.70520563,-79.16675415,165.27288880,69.42955014
-52.62427928,90.01039558,-2.20851641,1.11104717,9.98939987,-0.66040430,1.19554862
0.58202134

>  <Name>
2o3v_lig

>  <RI>
0

>  <Rbt.Current_Directory>
/home/afrankz/demos/rdock_decoys_rna/rnas/2o3v

>  <Rbt.Executable>
rbdock ($Id: //depot/dev/client3/rdock/2013.1/src/exe/rbdock.cxx#4 $)

>  <Rbt.Library>
libRbt.so (2013.1, Build901 2013/11/27)

>  <Rbt.Parameter_File>
/export/apps/rDock/src/rDock_2013.1_src/data/scripts/dock_solv.prm

>  <Rbt.Receptor>
prm/blind_docking_20.prm

>  <SCORE>
9.17742

>  <SCORE.INTER>
-3.03373

>  <SCORE.INTER.CONST>
1

>  <SCORE.INTER.POLAR>
-1.11648

>  <SCORE.INTER.ROT>
8

>  <SCORE.INTER.SOLV>
23.8084

>  <SCORE.INTER.VDW>
-15.1703

>  <SCORE.INTER.norm>
-0.0866781

>  <SCORE.INTRA>
7.51341

>  <SCORE.INTRA.DIHEDRAL>
8.89509

>  <SCORE.INTRA.DIHEDRAL.0>
13.1227

>  <SCORE.INTRA.POLAR>
0

>  <SCORE.INTRA.POLAR.0>
0

>  <SCORE.INTRA.REPUL>
0

>  <SCORE.INTRA.REPUL.0>
0

>  <SCORE.INTRA.SOLV>
2.57288

>  <SCORE.INTRA.SOLV.lig_0>
-89.1587

>  <SCORE.INTRA.VDW>
1.77943

>  <SCORE.INTRA.VDW.0>
-0.838383

>  <SCORE.INTRA.norm>
0.214669

>  <SCORE.RESTR>
4.69774

>  <SCORE.RESTR.CAVITY>
4.69774

>  <SCORE.RESTR.norm>
0.134221

>  <SCORE.SYSTEM>
0

>  <SCORE.SYSTEM.CONST>
0

>  <SCORE.SYSTEM.DIHEDRAL>
0

>  <SCORE.SYSTEM.SOLV>
0

>  <SCORE.SYSTEM.norm>
0

>  <SCORE.heavy>
35

>  <SCORE.norm>
0.262212

>  <RMSD>
37.368

$$$$
2o3v_lig
 OpenBabel02141814113D
libRbt.so/2013.1/901 2013/11/27
 35 37  0  0  0  0  0  0  0  0999 V2000
   -2.3564    1.6103    7.1148 C   0  0  2  0  0  0  0  0  0  0  0  0
   -0.9640    1.2076    7.2933 O   0  0  0  0  0  0  0  0  0  0  0  0
    0.7774    0.8828    3.3197 C   0  0  2  0  0  0  0  0  0  0  0  0
    1.6780    0.4675    2.2023 N   0  0  0  0  0  0  0  0  0  0  0  0
   -3.9084    1.6625   15.6849 C   0  0  2  0  0  0  0  0  0  0  0  0
   -2.5912    1.1090   15.4746 O   0  0  0  0  0  0  0  0  0  0  0  0
   -2.6130    2.5493    8.3358 C   0  0  2  0  0  0  0  0  0  0  0  0
   -1.6767    3.6981    8.3344 N   0  0  0  0  0  0  0  0  0  0  0  0
    1.6128    1.6314    4.4454 C   0  0  0  0  0  0  0  0  0  0  0  0
   -4.4626    2.1038   14.2861 C   0  0  2  0  0  0  0  0  0  0  0  0
   -4.4926    0.9598   13.3400 N   0  0  0  0  0  0  0  0  0  0  0  0
   -2.4947    1.7622    9.7127 C   0  0  1  0  0  0  0  0  0  0  0  0
   -2.6981    2.6818   10.8622 O   0  0  0  0  0  0  0  0  0  0  0  0
    0.6344    2.0518    5.6263 C   0  0  2  0  0  0  0  0  0  0  0  0
    1.3947    2.7406    6.6911 N   0  0  0  0  0  0  0  0  0  0  0  0
   -3.6170    3.3060   13.6742 C   0  0  1  0  0  0  0  0  0  0  0  0
   -4.1286    3.7572   12.3938 O   0  0  0  0  0  0  0  0  0  0  0  0
   -3.5239    0.5493    9.6579 C   0  0  2  0  0  0  0  0  0  0  0  0
   -3.4717   -0.2289   10.8401 O   0  0  0  0  0  0  0  0  0  0  0  0
   -0.0812    0.7681    6.2174 C   0  0  2  0  0  0  0  0  0  0  0  0
   -3.6254    4.4876   14.6951 C   0  0  2  0  0  0  0  0  0  0  0  0
   -2.8777    5.5844   14.2077 O   0  0  0  0  0  0  0  0  0  0  0  0
   -3.2388   -0.3624    8.4043 C   0  0  2  0  0  0  0  0  0  0  0  0
   -3.2898    0.4519    7.1719 O   0  0  0  0  0  0  0  0  0  0  0  0
   -0.8906    0.0388    5.1086 C   0  0  2  0  0  0  0  0  0  0  0  0
   -1.4846   -1.1461    5.7121 O   0  0  0  0  0  0  0  0  0  0  0  0
   -3.0645    3.9995   16.0902 C   0  0  2  0  0  0  0  0  0  0  0  0
   -3.8506    2.8461   16.5848 O   0  0  0  0  0  0  0  0  0  0  0  0
   -4.2376   -1.5147    8.3074 C   0  0  0  0  0  0  0  0  0  0  0  0
   -4.1932   -2.1185    7.0377 O   0  0  0  0  0  0  0  0  0  0  0  0
    0.0568   -0.3688    3.9561 C   0  0  1  0  0  0  0  0  0  0  0  0
   -0.7029   -1.0231    2.9616 O   0  0  0  0  0  0  0  0  0  0  0  0
   -3.0943    5.1076   17.1319 C   0  0  0  0  0  0  0  0  0  0  0  0
   -2.6091    4.6353   18.3654 O   0  0  0  0  0  0  0  0  0  0  0  0
   -4.0992    2.6666   11.4270 C   0  0  0  0  0  0  0  0  0  0  0  0
  1  2  1  1  0  0  0
  1  7  1  0  0  0  0
  1 24  1  0  0  0  0
  3  4  1  6  0  0  0
  3  9  1  0  0  0  0
  3 31  1  0  0  0  0
  5  6  1  6  0  0  0
  5 10  1  0  0  0  0
  5 28  1  0  0  0  0
  7  8  1  1  0  0  0
  7 12  1  0  0  0  0
  9 14  1  0  0  0  0
 10 11  1  6  0  0  0
 10 16  1  0  0  0  0
 12 13  1  1  0  0  0
 12 18  1  0  0  0  0
 13 35  1  0  0  0  0
 14 15  1  1  0  0  0
 14 20  1  0  0  0  0
 16 17  1  6  0  0  0
 16 21  1  0  0  0  0
 17 35  1  0  0  0  0
 18 19  1  1  0  0  0
 18 23  1  0  0  0  0
 20  2  1  1  0  0  0
 20 25  1  0  0  0  0
 21 22  1  6  0  0  0
 21 27  1  0  0  0  0
 23 24  1  0  0  0  0
 23 29  1  6  0  0  0
 25 26  1  1  0  0  0
 25 31  1  0  0  0  0
 27 28  1  0  0  0  0
 27 33  1  1  0  0  0
 29 30  1  0  0  0  0
 31 32  1  6  0  0  0
 33 34  1  0  0  0  0
M  END
>  <CHROM.1>
-155.37126807,97.73715144,-172.05707685,-59.98243956,-84.71376851,89.14318129
165.39960989,179.07420894,-2.26021467,1.66388404,9.84603629,1.18185739,-0.79381467
-2.14063223

>  <Name>
2o3v_lig

>  <RI>
0

>  <Rbt.Current_Directory>
/home/afrankz/demos/rdock_decoys_rna/rnas/2o3v

>  <Rbt.Executable>
rbdock ($Id: //depot/dev/client3/rdock/2013.1/src/exe/rbdock.cxx#4 $)

>  <Rbt.Library>
libRbt.so (2013.1, Build901 2013/11/27)

>  <Rbt.Parameter_File>
/export/apps/rDock/src/rDock_2013.1_src/data/scripts/dock_solv.prm

>  <Rbt.Receptor>
prm/blind_docking_20.prm

>  <SCORE>
11.477

>  <SCORE.INTER>
-0.2268

>  <SCORE.INTER.CONST>
1

>  <SCORE.INTER.POLAR>
-0.712624

>  <SCORE.INTER.ROT>
8

>  <SCORE.INTER.SOLV>
20.599

>  <SCORE.INTER.VDW>
-13.5754

>  <SCORE.INTER.norm>
-0.00647999

>  <SCORE.INTRA>
4.61898

>  <SCORE.INTRA.DIHEDRAL>
1.61424

>  <SCORE.INTRA.DIHEDRAL.0>
13.1227

>  <SCORE.INTRA.POLAR>
0

>  <SCORE.INTRA.POLAR.0>
0

>  <SCORE.INTRA.REPUL>
0

>  <SCORE.INTRA.REPUL.0>
0

>  <SCORE.INTRA.SOLV>
3.60887

>  <SCORE.INTRA.SOLV.lig_0>
-89.1587

>  <SCORE.INTRA.VDW>
2.00743

>  <SCORE.INTRA.VDW.0>
-0.838383

>  <SCORE.INTRA.norm>
0.131971

>  <SCORE.RESTR>
7.08486

>  <SCORE.RESTR.CAVITY>
7.08486

>  <SCORE.RESTR.norm>
0.202425

>  <SCORE.SYSTEM>
0

>  <SCORE.SYSTEM.CONST>
0

>  <SCORE.SYSTEM.DIHEDRAL>
0

>  <SCORE.SYSTEM.SOLV>
0

>  <SCORE.SYSTEM.norm>
0

>  <SCORE.heavy>
35

>  <SCORE.norm>
0.327916

>  <RMSD>
37.606

$$$$
2o3v_lig
 OpenBabel02141814113D
libRbt.so/2013.1/901 2013/11/27
 35 37  0  0  0  0  0  0  0  0999 V2000
    0.3876    2.0844    6.7126 C   0  0  2  0  0  0  0  0  0  0  0  0
   -0.3259    1.0602    5.9545 O   0  0  0  0  0  0  0  0  0  0  0  0
    0.5068   -1.3695    2.4431 C   0  0  2  0  0  0  0  0  0  0  0  0
    1.1515   -2.3670    1.5366 N   0  0  0  0  0  0  0  0  0  0  0  0
   -2.3958    0.3611   12.2404 C   0  0  2  0  0  0  0  0  0  0  0  0
   -1.1104    0.9224   11.8963 O   0  0  0  0  0  0  0  0  0  0  0  0
   -0.6051    2.4255    7.8687 C   0  0  2  0  0  0  0  0  0  0  0  0
   -0.9186    1.2240    8.6778 N   0  0  0  0  0  0  0  0  0  0  0  0
    1.5463   -0.2319    2.8312 C   0  0  0  0  0  0  0  0  0  0  0  0
   -3.3815    0.6863   11.0653 C   0  0  2  0  0  0  0  0  0  0  0  0
   -2.8733    0.1460    9.7789 N   0  0  0  0  0  0  0  0  0  0  0  0
   -1.9514    3.0644    7.3128 C   0  0  1  0  0  0  0  0  0  0  0  0
   -2.8992    3.3403    8.4236 O   0  0  0  0  0  0  0  0  0  0  0  0
    0.8396    0.8086    3.8040 C   0  0  2  0  0  0  0  0  0  0  0  0
    1.7944    1.8708    4.1871 N   0  0  0  0  0  0  0  0  0  0  0  0
   -3.6489    2.2509   10.9414 C   0  0  1  0  0  0  0  0  0  0  0  0
   -4.5846    2.5780    9.8821 O   0  0  0  0  0  0  0  0  0  0  0  0
   -1.5528    4.3488    6.4614 C   0  0  2  0  0  0  0  0  0  0  0  0
   -2.6937    4.9745    5.9020 O   0  0  0  0  0  0  0  0  0  0  0  0
    0.3113    0.0643    5.0987 C   0  0  2  0  0  0  0  0  0  0  0  0
   -4.1938    2.7701   12.3096 C   0  0  2  0  0  0  0  0  0  0  0  0
   -4.4405    4.1617   12.2621 O   0  0  0  0  0  0  0  0  0  0  0  0
   -0.5399    3.9623    5.3175 C   0  0  2  0  0  0  0  0  0  0  0  0
    0.6482    3.3060    5.9025 O   0  0  0  0  0  0  0  0  0  0  0  0
   -0.6997   -1.0504    4.7096 C   0  0  2  0  0  0  0  0  0  0  0  0
   -1.1097   -1.7141    5.9395 O   0  0  0  0  0  0  0  0  0  0  0  0
   -3.1740    2.4183   13.4652 C   0  0  2  0  0  0  0  0  0  0  0  0
   -2.9182    0.9602   13.4984 O   0  0  0  0  0  0  0  0  0  0  0  0
   -0.1120    5.1852    4.5076 C   0  0  0  0  0  0  0  0  0  0  0  0
    0.0606    6.3078    5.3376 O   0  0  0  0  0  0  0  0  0  0  0  0
   -0.0174   -2.0630    3.7604 C   0  0  1  0  0  0  0  0  0  0  0  0
   -0.9570   -3.0601    3.4183 O   0  0  0  0  0  0  0  0  0  0  0  0
   -3.6836    2.8670   14.8265 C   0  0  0  0  0  0  0  0  0  0  0  0
   -3.8109    4.2678   14.8659 O   0  0  0  0  0  0  0  0  0  0  0  0
   -3.9876    2.3044    8.5806 C   0  0  0  0  0  0  0  0  0  0  0  0
  1  2  1  6  0  0  0
  1  7  1  0  0  0  0
  1 24  1  0  0  0  0
  3  4  1  6  0  0  0
  3  9  1  0  0  0  0
  3 31  1  0  0  0  0
  5  6  1  6  0  0  0
  5 10  1  0  0  0  0
  5 28  1  0  0  0  0
  7  8  1  6  0  0  0
  7 12  1  0  0  0  0
  9 14  1  0  0  0  0
 10 11  1  6  0  0  0
 10 16  1  0  0  0  0
 12 13  1  1  0  0  0
 12 18  1  0  0  0  0
 13 35  1  0  0  0  0
 14 15  1  1  0  0  0
 14 20  1  0  0  0  0
 16 17  1  6  0  0  0
 16 21  1  0  0  0  0
 17 35  1  0  0  0  0
 18 19  1  6  0  0  0
 18 23  1  0  0  0  0
 20  2  1  1  0  0  0
 20 25  1  0  0  0  0
 21 22  1  6  0  0  0
 21 27  1  0  0  0  0
 23 24  1  0  0  0  0
 23 29  1  1  0  0  0
 25 26  1  1  0  0  0
 25 31  1  0  0  0  0
 27 28  1  0  0  0  0
 27 33  1  1  0  0  0
 29 30  1  0  0  0  0
 31 32  1  6  0  0  0
 33 34  1  0  0  0  0
M  END
>  <CHROM.1>
-156.03716850,-100.34702221,166.64465831,-68.48709055,-69.07717415,-72.03384697
38.58607164,-63.40077665,-1.49667706,1.71845719,7.80961664,-0.19261876,1.16523224
-0.07061716

>  <Name>
2o3v_lig

>  <RI>
0

>  <Rbt.Current_Directory>
/home/afrankz/demos/rdock_decoys_rna/rnas/2o3v

>  <Rbt.Executable>
rbdock ($Id: //depot/dev/client3/rdock/2013.1/src/exe/rbdock.cxx#4 $)

>  <Rbt.Library>
libRbt.so (2013.1, Build901 2013/11/27)

>  <Rbt.Parameter_File>
/export/apps/rDock/src/rDock_2013.1_src/data/scripts/dock_solv.prm

>  <Rbt.Receptor>
prm/blind_docking_20.prm

>  <SCORE>
4.16046

>  <SCORE.INTER>
-7.62777

>  <SCORE.INTER.CONST>
1

>  <SCORE.INTER.POLAR>
-1.26735

>  <SCORE.INTER.ROT>
8

>  <SCORE.INTER.SOLV>
20.5862

>  <SCORE.INTER.VDW>
-16.6561

>  <SCORE.INTER.norm>
-0.217936

>  <SCORE.INTRA>
3.7879

>  <SCORE.INTRA.DIHEDRAL>
-1.35494

>  <SCORE.INTRA.DIHEDRAL.0>
13.1227

>  <SCORE.INTRA.POLAR>
0

>  <SCORE.INTRA.POLAR.0>
0

>  <SCORE.INTRA.REPUL>
0

>  <SCORE.INTRA.REPUL.0>
0

>  <SCORE.INTRA.SOLV>
9.06361

>  <SCORE.INTRA.SOLV.lig_0>
-89.1587

>  <SCORE.INTRA.VDW>
-0.0664332

>  <SCORE.INTRA.VDW.0>
-0.838383

>  <SCORE.INTRA.norm>
0.108226

>  <SCORE.RESTR>
8.00033

>  <SCORE.RESTR.CAVITY>
8.00033

>  <SCORE.RESTR.norm>
0.228581

>  <SCORE.SYSTEM>
0

>  <SCORE.SYSTEM.CONST>
0

>  <SCORE.SYSTEM.DIHEDRAL>
0

>  <SCORE.SYSTEM.SOLV>
0

>  <SCORE.SYSTEM.norm>
0

>  <SCORE.heavy>
35

>  <SCORE.norm>
0.11887

>  <RMSD>
39.450

$$$$
