
 OpenBabel11021811403D
libRbt.so/2013.1/901 2013/11/27
 23 25  0  0  0  0  0  0  0  0999 V2000
  -21.8170    8.5493    6.0767 S   0  0  0  0  0  0  0  0  0  0  0  0
  -24.6579    7.7342    6.4432 N   0  0  0  0  0  0  0  0  0  0  0  0
  -24.4148    6.8110    8.6574 C   0  0  0  0  0  0  0  0  0  0  0  0
  -23.5893    6.5250    9.7528 C   0  0  0  0  0  0  0  0  0  0  0  0
  -22.2397    6.8624    9.7202 C   0  0  0  0  0  0  0  0  0  0  0  0
  -21.7066    7.4817    8.5950 C   0  0  0  0  0  0  0  0  0  0  0  0
  -22.5171    7.7685    7.4995 C   0  0  0  0  0  0  0  0  0  0  0  0
  -23.8767    7.4356    7.5234 C   0  0  0  0  0  0  0  0  0  0  0  0
  -22.7723    7.5429    4.9861 C   0  0  0  0  0  0  0  0  0  0  0  0
  -22.2015    7.0455    3.8109 C   0  0  0  0  0  0  0  0  0  0  0  0
  -22.9631    6.2529    2.9474 C   0  0  0  0  0  0  0  0  0  0  0  0
  -24.2953    5.9638    3.2602 C   0  0  0  0  0  0  0  0  0  0  0  0
  -24.8590    6.4642    4.4345 C   0  0  0  0  0  0  0  0  0  0  0  0
  -24.1046    7.2478    5.2967 C   0  0  0  0  0  0  0  0  0  0  0  0
  -26.1353    7.7699    6.5775 C   0  0  0  0  0  0  0  0  0  0  0  0
  -26.8713    6.3970    6.7304 C   0  0  0  0  0  0  0  0  0  0  0  0
  -27.2842    5.7544    5.3622 C   0  0  0  0  0  0  0  0  0  0  0  0
  -28.1934    4.5806    5.3982 N   0  3  0  0  0  0  0  0  0  0  0  0
  -27.4374    3.3118    5.5599 C   0  0  0  0  0  0  0  0  0  0  0  0
  -29.0704    4.5524    4.1766 C   0  0  0  0  0  0  0  0  0  0  0  0
  -24.1526    5.8481   10.9698 C   0  0  0  0  0  0  0  0  0  0  0  0
  -25.6067    5.4541   11.0636 C   0  0  0  0  0  0  0  0  0  0  0  0
  -23.4064    5.5510   11.8891 O   0  0  0  0  0  0  0  0  0  0  0  0
  1  7  1  0  0  0  0
  1  9  1  0  0  0  0
  2  8  1  0  0  0  0
  2 14  1  0  0  0  0
  2 15  1  0  0  0  0
  3  4  2  0  0  0  0
  3  8  1  0  0  0  0
  4  5  1  0  0  0  0
  4 21  1  0  0  0  0
  5  6  2  0  0  0  0
  6  7  1  0  0  0  0
  7  8  2  0  0  0  0
  9 10  2  0  0  0  0
  9 14  1  0  0  0  0
 10 11  1  0  0  0  0
 11 12  2  0  0  0  0
 12 13  1  0  0  0  0
 13 14  2  0  0  0  0
 15 16  1  0  0  0  0
 16 17  1  0  0  0  0
 17 18  1  0  0  0  0
 18 19  1  0  0  0  0
 18 20  1  0  0  0  0
 21 22  1  0  0  0  0
 21 23  2  0  0  0  0
M  CHG  1  18   1
M  END
>  <CHROM.1>
-72.64994162,-0.01586501,-89.42358867,-169.39968389,33.36532452,-24.47809171
6.53200849,6.79125089,-0.87540796,-0.49159676,-1.46958793

>  <Name>


>  <RI>
0

>  <Rbt.Current_Directory>
/home/itssahil/PROJECTS/Mol_Feturizer/New_Systems/rnas/1lvj

>  <Rbt.Executable>
rbdock ($Id: //depot/dev/client3/rdock/2013.1/src/exe/rbdock.cxx#4 $)

>  <Rbt.Library>
libRbt.so (2013.1, Build901 2013/11/27)

>  <Rbt.Parameter_File>
/export/apps/rDock/src/rDock_2013.1_src/data/scripts/dock_solv.prm

>  <Rbt.Receptor>
prm/pocket_docking_2.prm

>  <SCORE>
7.43925

>  <SCORE.INTER>
6.87179

>  <SCORE.INTER.CONST>
1

>  <SCORE.INTER.POLAR>
-0.530131

>  <SCORE.INTER.ROT>
5

>  <SCORE.INTER.SOLV>
25.5124

>  <SCORE.INTER.VDW>
-9.08918

>  <SCORE.INTER.norm>
0.298774

>  <SCORE.INTRA>
-0.498002

>  <SCORE.INTRA.DIHEDRAL>
-3.1074

>  <SCORE.INTRA.DIHEDRAL.0>
8.06479

>  <SCORE.INTRA.POLAR>
0

>  <SCORE.INTRA.POLAR.0>
0

>  <SCORE.INTRA.REPUL>
0

>  <SCORE.INTRA.REPUL.0>
0

>  <SCORE.INTRA.SOLV>
0.745541

>  <SCORE.INTRA.SOLV.lig_0>
-29.8054

>  <SCORE.INTRA.VDW>
0.682928

>  <SCORE.INTRA.VDW.0>
2.61447

>  <SCORE.INTRA.norm>
-0.0216522

>  <SCORE.RESTR>
1.06546

>  <SCORE.RESTR.CAVITY>
1.06546

>  <SCORE.RESTR.norm>
0.0463244

>  <SCORE.SYSTEM>
0

>  <SCORE.SYSTEM.CONST>
0

>  <SCORE.SYSTEM.DIHEDRAL>
0

>  <SCORE.SYSTEM.SOLV>
0

>  <SCORE.SYSTEM.norm>
0

>  <SCORE.heavy>
23

>  <SCORE.norm>
0.323446

>  <RMSD>
0.481

$$$$

 OpenBabel11021811403D
libRbt.so/2013.1/901 2013/11/27
 23 25  0  0  0  0  0  0  0  0999 V2000
  -21.8023    8.5418    6.1427 S   0  0  0  0  0  0  0  0  0  0  0  0
  -24.6493    7.7267    6.4576 N   0  0  0  0  0  0  0  0  0  0  0  0
  -24.4406    6.7789    8.6649 C   0  0  0  0  0  0  0  0  0  0  0  0
  -23.6319    6.4796    9.7693 C   0  0  0  0  0  0  0  0  0  0  0  0
  -22.2815    6.8156    9.7606 C   0  0  0  0  0  0  0  0  0  0  0  0
  -21.7309    7.4465    8.6504 C   0  0  0  0  0  0  0  0  0  0  0  0
  -22.5245    7.7464    7.5461 C   0  0  0  0  0  0  0  0  0  0  0  0
  -23.8848    7.4151    7.5460 C   0  0  0  0  0  0  0  0  0  0  0  0
  -22.7424    7.5488    5.0268 C   0  0  0  0  0  0  0  0  0  0  0  0
  -22.1547    7.0635    3.8549 C   0  0  0  0  0  0  0  0  0  0  0  0
  -22.9043    6.2816    2.9714 C   0  0  0  0  0  0  0  0  0  0  0  0
  -24.2414    5.9909    3.2611 C   0  0  0  0  0  0  0  0  0  0  0  0
  -24.8220    6.4791    4.4322 C   0  0  0  0  0  0  0  0  0  0  0  0
  -24.0796    7.2522    5.3142 C   0  0  0  0  0  0  0  0  0  0  0  0
  -26.1286    7.7629    6.5702 C   0  0  0  0  0  0  0  0  0  0  0  0
  -26.8641    6.3934    6.7529 C   0  0  0  0  0  0  0  0  0  0  0  0
  -27.1845    5.6716    5.3995 C   0  0  0  0  0  0  0  0  0  0  0  0
  -28.1521    4.5453    5.4309 N   0  3  0  0  0  0  0  0  0  0  0  0
  -27.4586    3.2353    5.5322 C   0  0  0  0  0  0  0  0  0  0  0  0
  -29.0659    4.5989    4.2376 C   0  0  0  0  0  0  0  0  0  0  0  0
  -24.2141    5.7902   10.9702 C   0  0  0  0  0  0  0  0  0  0  0  0
  -23.3910    5.5004   12.2019 C   0  0  0  0  0  0  0  0  0  0  0  0
  -25.4014    5.5067   10.9810 O   0  0  0  0  0  0  0  0  0  0  0  0
  1  7  1  0  0  0  0
  1  9  1  0  0  0  0
  2  8  1  0  0  0  0
  2 14  1  0  0  0  0
  2 15  1  0  0  0  0
  3  4  2  0  0  0  0
  3  8  1  0  0  0  0
  4  5  1  0  0  0  0
  4 21  1  0  0  0  0
  5  6  2  0  0  0  0
  6  7  1  0  0  0  0
  7  8  2  0  0  0  0
  9 10  2  0  0  0  0
  9 14  1  0  0  0  0
 10 11  1  0  0  0  0
 11 12  2  0  0  0  0
 12 13  1  0  0  0  0
 13 14  2  0  0  0  0
 15 16  1  0  0  0  0
 16 17  1  0  0  0  0
 17 18  1  0  0  0  0
 18 19  1  0  0  0  0
 18 20  1  0  0  0  0
 21 22  1  0  0  0  0
 21 23  2  0  0  0  0
M  CHG  1  18   1
M  END
>  <CHROM.1>
-70.33730158,-177.47316176,-86.16193703,-165.70112107,24.26430249,-24.46416653
6.51795972,6.82361704,-0.90221794,-0.49650902,-1.46576951

>  <Name>


>  <RI>
0

>  <Rbt.Current_Directory>
/home/itssahil/PROJECTS/Mol_Feturizer/New_Systems/rnas/1lvj

>  <Rbt.Executable>
rbdock ($Id: //depot/dev/client3/rdock/2013.1/src/exe/rbdock.cxx#4 $)

>  <Rbt.Library>
libRbt.so (2013.1, Build901 2013/11/27)

>  <Rbt.Parameter_File>
/export/apps/rDock/src/rDock_2013.1_src/data/scripts/dock_solv.prm

>  <Rbt.Receptor>
prm/pocket_docking_2.prm

>  <SCORE>
8.0646

>  <SCORE.INTER>
6.71626

>  <SCORE.INTER.CONST>
1

>  <SCORE.INTER.POLAR>
-0.592778

>  <SCORE.INTER.ROT>
5

>  <SCORE.INTER.SOLV>
25.505

>  <SCORE.INTER.VDW>
-8.98158

>  <SCORE.INTER.norm>
0.292011

>  <SCORE.INTRA>
0.264736

>  <SCORE.INTRA.DIHEDRAL>
-2.42356

>  <SCORE.INTRA.DIHEDRAL.0>
8.06479

>  <SCORE.INTRA.POLAR>
0

>  <SCORE.INTRA.POLAR.0>
0

>  <SCORE.INTRA.REPUL>
0

>  <SCORE.INTRA.REPUL.0>
0

>  <SCORE.INTRA.SOLV>
0.839781

>  <SCORE.INTRA.SOLV.lig_0>
-29.8054

>  <SCORE.INTRA.VDW>
1.05662

>  <SCORE.INTRA.VDW.0>
2.61447

>  <SCORE.INTRA.norm>
0.0115102

>  <SCORE.RESTR>
1.0836

>  <SCORE.RESTR.CAVITY>
1.0836

>  <SCORE.RESTR.norm>
0.047113

>  <SCORE.SYSTEM>
0

>  <SCORE.SYSTEM.CONST>
0

>  <SCORE.SYSTEM.DIHEDRAL>
0

>  <SCORE.SYSTEM.SOLV>
0

>  <SCORE.SYSTEM.norm>
0

>  <SCORE.heavy>
23

>  <SCORE.norm>
0.350635

>  <RMSD>
0.846

$$$$

 OpenBabel11021811403D
libRbt.so/2013.1/901 2013/11/27
 23 25  0  0  0  0  0  0  0  0999 V2000
  -21.8839    8.5234    6.1579 S   0  0  0  0  0  0  0  0  0  0  0  0
  -24.7219    7.7408    6.6081 N   0  0  0  0  0  0  0  0  0  0  0  0
  -24.4208    6.7977    8.8068 C   0  0  0  0  0  0  0  0  0  0  0  0
  -23.5648    6.4931    9.8734 C   0  0  0  0  0  0  0  0  0  0  0  0
  -22.2127    6.8141    9.8006 C   0  0  0  0  0  0  0  0  0  0  0  0
  -21.7076    7.4353    8.6636 C   0  0  0  0  0  0  0  0  0  0  0  0
  -22.5486    7.7405    7.5964 C   0  0  0  0  0  0  0  0  0  0  0  0
  -23.9109    7.4242    7.6609 C   0  0  0  0  0  0  0  0  0  0  0  0
  -22.8858    7.5373    5.0908 C   0  0  0  0  0  0  0  0  0  0  0  0
  -22.3587    7.0418    3.8946 C   0  0  0  0  0  0  0  0  0  0  0  0
  -23.1570    6.2654    3.0498 C   0  0  0  0  0  0  0  0  0  0  0  0
  -24.4822    5.9904    3.4025 C   0  0  0  0  0  0  0  0  0  0  0  0
  -25.0023    6.4887    4.5976 C   0  0  0  0  0  0  0  0  0  0  0  0
  -24.2113    7.2564    5.4412 C   0  0  0  0  0  0  0  0  0  0  0  0
  -26.1938    7.7936    6.7894 C   0  0  0  0  0  0  0  0  0  0  0  0
  -26.9716    6.4375    6.7119 C   0  0  0  0  0  0  0  0  0  0  0  0
  -27.8931    6.3178    5.4503 C   0  0  0  0  0  0  0  0  0  0  0  0
  -27.9063    5.0208    4.7267 N   0  3  0  0  0  0  0  0  0  0  0  0
  -29.2574    4.7097    4.1927 C   0  0  0  0  0  0  0  0  0  0  0  0
  -27.3903    3.9172    5.6087 C   0  0  0  0  0  0  0  0  0  0  0  0
  -24.0979    5.8139   11.1027 C   0  0  0  0  0  0  0  0  0  0  0  0
  -23.2281    5.5434   12.3064 C   0  0  0  0  0  0  0  0  0  0  0  0
  -25.2821    5.5233   11.1604 O   0  0  0  0  0  0  0  0  0  0  0  0
  1  7  1  0  0  0  0
  1  9  1  0  0  0  0
  2  8  1  0  0  0  0
  2 14  1  0  0  0  0
  2 15  1  0  0  0  0
  3  4  2  0  0  0  0
  3  8  1  0  0  0  0
  4  5  1  0  0  0  0
  4 21  1  0  0  0  0
  5  6  2  0  0  0  0
  6  7  1  0  0  0  0
  7  8  2  0  0  0  0
  9 10  2  0  0  0  0
  9 14  1  0  0  0  0
 10 11  1  0  0  0  0
 11 12  2  0  0  0  0
 12 13  1  0  0  0  0
 13 14  2  0  0  0  0
 15 16  1  0  0  0  0
 16 17  1  0  0  0  0
 17 18  1  0  0  0  0
 18 19  1  0  0  0  0
 18 20  1  0  0  0  0
 21 22  1  0  0  0  0
 21 23  2  0  0  0  0
M  CHG  1  18   1
M  END
>  <CHROM.1>
-82.76182222,-176.24842228,-111.60802559,137.62856603,-95.61872865,-24.52588741
6.60874973,6.86563672,-0.93889485,-0.43491553,-1.44521814

>  <Name>


>  <RI>
0

>  <Rbt.Current_Directory>
/home/itssahil/PROJECTS/Mol_Feturizer/New_Systems/rnas/1lvj

>  <Rbt.Executable>
rbdock ($Id: //depot/dev/client3/rdock/2013.1/src/exe/rbdock.cxx#4 $)

>  <Rbt.Library>
libRbt.so (2013.1, Build901 2013/11/27)

>  <Rbt.Parameter_File>
/export/apps/rDock/src/rDock_2013.1_src/data/scripts/dock_solv.prm

>  <Rbt.Receptor>
prm/pocket_docking_2.prm

>  <SCORE>
11.1094

>  <SCORE.INTER>
4.26674

>  <SCORE.INTER.CONST>
1

>  <SCORE.INTER.POLAR>
-0.589382

>  <SCORE.INTER.ROT>
5

>  <SCORE.INTER.SOLV>
22.3497

>  <SCORE.INTER.VDW>
-9.57415

>  <SCORE.INTER.norm>
0.185511

>  <SCORE.INTRA>
6.22029

>  <SCORE.INTRA.DIHEDRAL>
4.48512

>  <SCORE.INTRA.DIHEDRAL.0>
8.06479

>  <SCORE.INTRA.POLAR>
0

>  <SCORE.INTRA.POLAR.0>
0

>  <SCORE.INTRA.REPUL>
0

>  <SCORE.INTRA.REPUL.0>
0

>  <SCORE.INTRA.SOLV>
3.15375

>  <SCORE.INTRA.SOLV.lig_0>
-29.8054

>  <SCORE.INTRA.VDW>
2.40085

>  <SCORE.INTRA.VDW.0>
2.61447

>  <SCORE.INTRA.norm>
0.270447

>  <SCORE.RESTR>
0.622369

>  <SCORE.RESTR.CAVITY>
0.622369

>  <SCORE.RESTR.norm>
0.0270595

>  <SCORE.SYSTEM>
0

>  <SCORE.SYSTEM.CONST>
0

>  <SCORE.SYSTEM.DIHEDRAL>
0

>  <SCORE.SYSTEM.SOLV>
0

>  <SCORE.SYSTEM.norm>
0

>  <SCORE.heavy>
23

>  <SCORE.norm>
0.483017

>  <RMSD>
0.861

$$$$

 OpenBabel11021811403D
libRbt.so/2013.1/901 2013/11/27
 23 25  0  0  0  0  0  0  0  0999 V2000
  -21.7333    8.3222    6.6929 S   0  0  0  0  0  0  0  0  0  0  0  0
  -24.6666    7.8088    6.7321 N   0  0  0  0  0  0  0  0  0  0  0  0
  -24.7482    6.7389    8.8914 C   0  0  0  0  0  0  0  0  0  0  0  0
  -24.0729    6.3004   10.0381 C   0  0  0  0  0  0  0  0  0  0  0  0
  -22.6990    6.4869   10.1566 C   0  0  0  0  0  0  0  0  0  0  0  0
  -21.9922    7.1065    9.1318 C   0  0  0  0  0  0  0  0  0  0  0  0
  -22.6525    7.5440    7.9865 C   0  0  0  0  0  0  0  0  0  0  0  0
  -24.0350    7.3637    7.8586 C   0  0  0  0  0  0  0  0  0  0  0  0
  -22.6733    7.4926    5.4507 C   0  0  0  0  0  0  0  0  0  0  0  0
  -22.0415    7.0029    4.3038 C   0  0  0  0  0  0  0  0  0  0  0  0
  -22.7905    6.3509    3.3201 C   0  0  0  0  0  0  0  0  0  0  0  0
  -24.1706    6.1944    3.4848 C   0  0  0  0  0  0  0  0  0  0  0  0
  -24.7950    6.6863    4.6316 C   0  0  0  0  0  0  0  0  0  0  0  0
  -24.0539    7.3304    5.6128 C   0  0  0  0  0  0  0  0  0  0  0  0
  -26.1380    8.0009    6.7279 C   0  0  0  0  0  0  0  0  0  0  0  0
  -27.0261    6.7121    6.7444 C   0  0  0  0  0  0  0  0  0  0  0  0
  -27.8064    6.4747    5.4065 C   0  0  0  0  0  0  0  0  0  0  0  0
  -28.0007    5.0711    4.9615 N   0  3  0  0  0  0  0  0  0  0  0  0
  -29.3032    4.8958    4.2684 C   0  0  0  0  0  0  0  0  0  0  0  0
  -27.8567    4.1234    6.1204 C   0  0  0  0  0  0  0  0  0  0  0  0
  -24.8249    5.6218   11.1474 C   0  0  0  0  0  0  0  0  0  0  0  0
  -24.1208    5.0298   12.3442 C   0  0  0  0  0  0  0  0  0  0  0  0
  -26.0450    5.5971   11.1162 O   0  0  0  0  0  0  0  0  0  0  0  0
  1  7  1  0  0  0  0
  1  9  1  0  0  0  0
  2  8  1  0  0  0  0
  2 14  1  0  0  0  0
  2 15  1  0  0  0  0
  3  4  2  0  0  0  0
  3  8  1  0  0  0  0
  4  5  1  0  0  0  0
  4 21  1  0  0  0  0
  5  6  2  0  0  0  0
  6  7  1  0  0  0  0
  7  8  2  0  0  0  0
  9 10  2  0  0  0  0
  9 14  1  0  0  0  0
 10 11  1  0  0  0  0
 11 12  2  0  0  0  0
 12 13  1  0  0  0  0
 13 14  2  0  0  0  0
 15 16  1  0  0  0  0
 16 17  1  0  0  0  0
 17 18  1  0  0  0  0
 18 19  1  0  0  0  0
 18 20  1  0  0  0  0
 21 22  1  0  0  0  0
 21 23  2  0  0  0  0
M  CHG  1  18   1
M  END
>  <CHROM.1>
-71.50507191,174.67121671,-111.18126459,144.85681153,-94.09360757,-24.64677353
6.58570721,7.07442537,-1.01868574,-0.38403161,-1.44985293

>  <Name>


>  <RI>
0

>  <Rbt.Current_Directory>
/home/itssahil/PROJECTS/Mol_Feturizer/New_Systems/rnas/1lvj

>  <Rbt.Executable>
rbdock ($Id: //depot/dev/client3/rdock/2013.1/src/exe/rbdock.cxx#4 $)

>  <Rbt.Library>
libRbt.so (2013.1, Build901 2013/11/27)

>  <Rbt.Parameter_File>
/export/apps/rDock/src/rDock_2013.1_src/data/scripts/dock_solv.prm

>  <Rbt.Receptor>
prm/pocket_docking_3.prm

>  <SCORE>
14.7958

>  <SCORE.INTER>
10.0775

>  <SCORE.INTER.CONST>
1

>  <SCORE.INTER.POLAR>
0

>  <SCORE.INTER.ROT>
5

>  <SCORE.INTER.SOLV>
20.9343

>  <SCORE.INTER.VDW>
-7.19307

>  <SCORE.INTER.norm>
0.438154

>  <SCORE.INTRA>
4.29637

>  <SCORE.INTRA.DIHEDRAL>
3.38978

>  <SCORE.INTRA.DIHEDRAL.0>
8.06479

>  <SCORE.INTRA.POLAR>
0

>  <SCORE.INTRA.POLAR.0>
0

>  <SCORE.INTRA.REPUL>
0

>  <SCORE.INTRA.REPUL.0>
0

>  <SCORE.INTRA.SOLV>
2.05063

>  <SCORE.INTRA.SOLV.lig_0>
-29.8054

>  <SCORE.INTRA.VDW>
1.57616

>  <SCORE.INTRA.VDW.0>
2.61447

>  <SCORE.INTRA.norm>
0.186799

>  <SCORE.RESTR>
0.421859

>  <SCORE.RESTR.CAVITY>
0.421859

>  <SCORE.RESTR.norm>
0.0183417

>  <SCORE.SYSTEM>
0

>  <SCORE.SYSTEM.CONST>
0

>  <SCORE.SYSTEM.DIHEDRAL>
0

>  <SCORE.SYSTEM.SOLV>
0

>  <SCORE.SYSTEM.norm>
0

>  <SCORE.heavy>
23

>  <SCORE.norm>
0.643294

>  <RMSD>
0.928

$$$$

 OpenBabel11021811403D
libRbt.so/2013.1/901 2013/11/27
 23 25  0  0  0  0  0  0  0  0999 V2000
  -21.9330    8.4791    6.3691 S   0  0  0  0  0  0  0  0  0  0  0  0
  -24.7914    7.7059    6.6864 N   0  0  0  0  0  0  0  0  0  0  0  0
  -24.5831    6.7017    8.8687 C   0  0  0  0  0  0  0  0  0  0  0  0
  -23.7718    6.3621    9.9593 C   0  0  0  0  0  0  0  0  0  0  0  0
  -22.4158    6.6749    9.9483 C   0  0  0  0  0  0  0  0  0  0  0  0
  -21.8624    7.3227    8.8493 C   0  0  0  0  0  0  0  0  0  0  0  0
  -22.6587    7.6627    7.7587 C   0  0  0  0  0  0  0  0  0  0  0  0
  -24.0245    7.3551    7.7611 C   0  0  0  0  0  0  0  0  0  0  0  0
  -22.8984    7.5296    5.2372 C   0  0  0  0  0  0  0  0  0  0  0  0
  -22.3278    7.0626    4.0495 C   0  0  0  0  0  0  0  0  0  0  0  0
  -23.0972    6.3152    3.1533 C   0  0  0  0  0  0  0  0  0  0  0  0
  -24.4371    6.0407    3.4463 C   0  0  0  0  0  0  0  0  0  0  0  0
  -25.0005    6.5105    4.6332 C   0  0  0  0  0  0  0  0  0  0  0  0
  -24.2384    7.2492    5.5277 C   0  0  0  0  0  0  0  0  0  0  0  0
  -26.2689    7.7649    6.8113 C   0  0  0  0  0  0  0  0  0  0  0  0
  -27.1081    7.0478    5.7016 C   0  0  0  0  0  0  0  0  0  0  0  0
  -27.2314    5.5003    5.9144 C   0  0  0  0  0  0  0  0  0  0  0  0
  -27.8238    4.6980    4.8138 N   0  3  0  0  0  0  0  0  0  0  0  0
  -29.2512    5.0469    4.5939 C   0  0  0  0  0  0  0  0  0  0  0  0
  -27.6457    3.2277    5.0751 C   0  0  0  0  0  0  0  0  0  0  0  0
  -24.3571    5.6541   11.1479 C   0  0  0  0  0  0  0  0  0  0  0  0
  -23.5211    5.2850   12.3493 C   0  0  0  0  0  0  0  0  0  0  0  0
  -25.5550    5.4205   11.1757 O   0  0  0  0  0  0  0  0  0  0  0  0
  1  7  1  0  0  0  0
  1  9  1  0  0  0  0
  2  8  1  0  0  0  0
  2 14  1  0  0  0  0
  2 15  1  0  0  0  0
  3  4  2  0  0  0  0
  3  8  1  0  0  0  0
  4  5  1  0  0  0  0
  4 21  1  0  0  0  0
  5  6  2  0  0  0  0
  6  7  1  0  0  0  0
  7  8  2  0  0  0  0
  9 10  2  0  0  0  0
  9 14  1  0  0  0  0
 10 11  1  0  0  0  0
 11 12  2  0  0  0  0
 12 13  1  0  0  0  0
 13 14  2  0  0  0  0
 15 16  1  0  0  0  0
 16 17  1  0  0  0  0
 17 18  1  0  0  0  0
 18 19  1  0  0  0  0
 18 20  1  0  0  0  0
 21 22  1  0  0  0  0
 21 23  2  0  0  0  0
M  CHG  1  18   1
M  END
>  <CHROM.1>
-131.70506661,-179.27821242,80.75592565,-170.71894407,54.81708677,-24.59124054
6.52061230,6.91970532,-0.96731743,-0.48071974,-1.43436805

>  <Name>


>  <RI>
0

>  <Rbt.Current_Directory>
/home/itssahil/PROJECTS/Mol_Feturizer/New_Systems/rnas/1lvj

>  <Rbt.Executable>
rbdock ($Id: //depot/dev/client3/rdock/2013.1/src/exe/rbdock.cxx#4 $)

>  <Rbt.Library>
libRbt.so (2013.1, Build901 2013/11/27)

>  <Rbt.Parameter_File>
/export/apps/rDock/src/rDock_2013.1_src/data/scripts/dock_solv.prm

>  <Rbt.Receptor>
prm/pocket_docking_2.prm

>  <SCORE>
18.6987

>  <SCORE.INTER>
5.8148

>  <SCORE.INTER.CONST>
1

>  <SCORE.INTER.POLAR>
-0.292496

>  <SCORE.INTER.ROT>
5

>  <SCORE.INTER.SOLV>
22.2009

>  <SCORE.INTER.VDW>
-9.48212

>  <SCORE.INTER.norm>
0.252817

>  <SCORE.INTRA>
12.4236

>  <SCORE.INTRA.DIHEDRAL>
-3.93996

>  <SCORE.INTRA.DIHEDRAL.0>
8.06479

>  <SCORE.INTRA.POLAR>
0

>  <SCORE.INTRA.POLAR.0>
0

>  <SCORE.INTRA.REPUL>
0

>  <SCORE.INTRA.REPUL.0>
0

>  <SCORE.INTRA.SOLV>
2.99922

>  <SCORE.INTRA.SOLV.lig_0>
-29.8054

>  <SCORE.INTRA.VDW>
12.894

>  <SCORE.INTRA.VDW.0>
2.61447

>  <SCORE.INTRA.norm>
0.540156

>  <SCORE.RESTR>
0.460275

>  <SCORE.RESTR.CAVITY>
0.460275

>  <SCORE.RESTR.norm>
0.020012

>  <SCORE.SYSTEM>
0

>  <SCORE.SYSTEM.CONST>
0

>  <SCORE.SYSTEM.DIHEDRAL>
0

>  <SCORE.SYSTEM.SOLV>
0

>  <SCORE.SYSTEM.norm>
0

>  <SCORE.heavy>
23

>  <SCORE.norm>
0.812985

>  <RMSD>
0.979

$$$$

 OpenBabel11021811403D
libRbt.so/2013.1/901 2013/11/27
 23 25  0  0  0  0  0  0  0  0999 V2000
  -21.7981    8.3168    6.8356 S   0  0  0  0  0  0  0  0  0  0  0  0
  -24.7174    7.7296    6.7913 N   0  0  0  0  0  0  0  0  0  0  0  0
  -24.8219    6.6012    8.9196 C   0  0  0  0  0  0  0  0  0  0  0  0
  -24.1626    6.1494   10.0704 C   0  0  0  0  0  0  0  0  0  0  0  0
  -22.7970    6.3668   10.2266 C   0  0  0  0  0  0  0  0  0  0  0  0
  -22.0825    7.0307    9.2353 C   0  0  0  0  0  0  0  0  0  0  0  0
  -22.7270    7.4819    8.0862 C   0  0  0  0  0  0  0  0  0  0  0  0
  -24.1011    7.2707    7.9207 C   0  0  0  0  0  0  0  0  0  0  0  0
  -22.6875    7.4972    5.5502 C   0  0  0  0  0  0  0  0  0  0  0  0
  -22.0169    7.0540    4.4065 C   0  0  0  0  0  0  0  0  0  0  0  0
  -22.7258    6.4098    3.3885 C   0  0  0  0  0  0  0  0  0  0  0  0
  -24.1050    6.2147    3.5161 C   0  0  0  0  0  0  0  0  0  0  0  0
  -24.7682    6.6603    4.6600 C   0  0  0  0  0  0  0  0  0  0  0  0
  -24.0669    7.2964    5.6750 C   0  0  0  0  0  0  0  0  0  0  0  0
  -26.1928    7.8851    6.7569 C   0  0  0  0  0  0  0  0  0  0  0  0
  -27.0476    6.5747    6.7090 C   0  0  0  0  0  0  0  0  0  0  0  0
  -27.8791    6.4198    5.3899 C   0  0  0  0  0  0  0  0  0  0  0  0
  -27.8590    5.0977    4.7135 N   0  3  0  0  0  0  0  0  0  0  0  0
  -29.2094    4.7161    4.2254 C   0  0  0  0  0  0  0  0  0  0  0  0
  -27.2793    4.0475    5.6207 C   0  0  0  0  0  0  0  0  0  0  0  0
  -24.9226    5.4231   11.1434 C   0  0  0  0  0  0  0  0  0  0  0  0
  -24.2602    4.9630   12.4194 C   0  0  0  0  0  0  0  0  0  0  0  0
  -26.1238    5.2491   11.0132 O   0  0  0  0  0  0  0  0  0  0  0  0
  1  7  1  0  0  0  0
  1  9  1  0  0  0  0
  2  8  1  0  0  0  0
  2 14  1  0  0  0  0
  2 15  1  0  0  0  0
  3  4  2  0  0  0  0
  3  8  1  0  0  0  0
  4  5  1  0  0  0  0
  4 21  1  0  0  0  0
  5  6  2  0  0  0  0
  6  7  1  0  0  0  0
  7  8  2  0  0  0  0
  9 10  2  0  0  0  0
  9 14  1  0  0  0  0
 10 11  1  0  0  0  0
 11 12  2  0  0  0  0
 12 13  1  0  0  0  0
 13 14  2  0  0  0  0
 15 16  1  0  0  0  0
 16 17  1  0  0  0  0
 17 18  1  0  0  0  0
 18 19  1  0  0  0  0
 18 20  1  0  0  0  0
 21 22  1  0  0  0  0
 21 23  2  0  0  0  0
M  CHG  1  18   1
M  END
>  <CHROM.1>
-71.90690616,-177.81670915,-115.78735104,134.24463431,-101.84120018,-24.65117223
6.51019088,7.08170503,-1.08348581,-0.40925033,-1.43894798

>  <Name>


>  <RI>
0

>  <Rbt.Current_Directory>
/home/itssahil/PROJECTS/Mol_Feturizer/New_Systems/rnas/1lvj

>  <Rbt.Executable>
rbdock ($Id: //depot/dev/client3/rdock/2013.1/src/exe/rbdock.cxx#4 $)

>  <Rbt.Library>
libRbt.so (2013.1, Build901 2013/11/27)

>  <Rbt.Parameter_File>
/export/apps/rDock/src/rDock_2013.1_src/data/scripts/dock_solv.prm

>  <Rbt.Receptor>
prm/pocket_docking_3.prm

>  <SCORE>
13.6543

>  <SCORE.INTER>
7.47266

>  <SCORE.INTER.CONST>
1

>  <SCORE.INTER.POLAR>
-0.825359

>  <SCORE.INTER.ROT>
5

>  <SCORE.INTER.SOLV>
22.1464

>  <SCORE.INTER.VDW>
-6.5825

>  <SCORE.INTER.norm>
0.324898

>  <SCORE.INTRA>
5.82759

>  <SCORE.INTRA.DIHEDRAL>
5.35311

>  <SCORE.INTRA.DIHEDRAL.0>
8.06479

>  <SCORE.INTRA.POLAR>
0

>  <SCORE.INTRA.POLAR.0>
0

>  <SCORE.INTRA.REPUL>
0

>  <SCORE.INTRA.REPUL.0>
0

>  <SCORE.INTRA.SOLV>
2.36772

>  <SCORE.INTRA.SOLV.lig_0>
-29.8054

>  <SCORE.INTRA.VDW>
1.96717

>  <SCORE.INTRA.VDW.0>
2.61447

>  <SCORE.INTRA.norm>
0.253373

>  <SCORE.RESTR>
0.354035

>  <SCORE.RESTR.CAVITY>
0.354035

>  <SCORE.RESTR.norm>
0.0153928

>  <SCORE.SYSTEM>
0

>  <SCORE.SYSTEM.CONST>
0

>  <SCORE.SYSTEM.DIHEDRAL>
0

>  <SCORE.SYSTEM.SOLV>
0

>  <SCORE.SYSTEM.norm>
0

>  <SCORE.heavy>
23

>  <SCORE.norm>
0.593665

>  <RMSD>
1.027

$$$$

 OpenBabel11021811403D
libRbt.so/2013.1/901 2013/11/27
 23 25  0  0  0  0  0  0  0  0999 V2000
  -22.2698    8.5791    6.7223 S   0  0  0  0  0  0  0  0  0  0  0  0
  -24.9747    7.3431    6.8796 N   0  0  0  0  0  0  0  0  0  0  0  0
  -24.6664    6.2314    8.9970 C   0  0  0  0  0  0  0  0  0  0  0  0
  -23.8405    5.9474   10.0926 C   0  0  0  0  0  0  0  0  0  0  0  0
  -22.5525    6.4706   10.1535 C   0  0  0  0  0  0  0  0  0  0  0  0
  -22.0809    7.2745    9.1214 C   0  0  0  0  0  0  0  0  0  0  0  0
  -22.8921    7.5613    8.0264 C   0  0  0  0  0  0  0  0  0  0  0  0
  -24.1904    7.0422    7.9569 C   0  0  0  0  0  0  0  0  0  0  0  0
  -23.0398    7.5721    5.4943 C   0  0  0  0  0  0  0  0  0  0  0  0
  -22.3702    7.2871    4.3008 C   0  0  0  0  0  0  0  0  0  0  0  0
  -22.9856    6.4934    3.3287 C   0  0  0  0  0  0  0  0  0  0  0  0
  -24.2715    5.9903    3.5521 C   0  0  0  0  0  0  0  0  0  0  0  0
  -24.9345    6.2792    4.7453 C   0  0  0  0  0  0  0  0  0  0  0  0
  -24.3248    7.0635    5.7149 C   0  0  0  0  0  0  0  0  0  0  0  0
  -26.4453    7.1586    6.9522 C   0  0  0  0  0  0  0  0  0  0  0  0
  -27.2684    7.4701    5.6579 C   0  0  0  0  0  0  0  0  0  0  0  0
  -28.3746    6.4039    5.3500 C   0  0  0  0  0  0  0  0  0  0  0  0
  -27.9506    5.1397    4.6957 N   0  3  0  0  0  0  0  0  0  0  0  0
  -29.1044    4.4297    4.0856 C   0  0  0  0  0  0  0  0  0  0  0  0
  -27.2101    4.2629    5.6677 C   0  0  0  0  0  0  0  0  0  0  0  0
  -24.3363    5.0728   11.2087 C   0  0  0  0  0  0  0  0  0  0  0  0
  -23.4675    4.7167   12.3906 C   0  0  0  0  0  0  0  0  0  0  0  0
  -25.4934    4.6841   11.1962 O   0  0  0  0  0  0  0  0  0  0  0  0
  1  7  1  0  0  0  0
  1  9  1  0  0  0  0
  2  8  1  0  0  0  0
  2 14  1  0  0  0  0
  2 15  1  0  0  0  0
  3  4  2  0  0  0  0
  3  8  1  0  0  0  0
  4  5  1  0  0  0  0
  4 21  1  0  0  0  0
  5  6  2  0  0  0  0
  6  7  1  0  0  0  0
  7  8  2  0  0  0  0
  9 10  2  0  0  0  0
  9 14  1  0  0  0  0
 10 11  1  0  0  0  0
 11 12  2  0  0  0  0
 12 13  1  0  0  0  0
 13 14  2  0  0  0  0
 15 16  1  0  0  0  0
 16 17  1  0  0  0  0
 17 18  1  0  0  0  0
 18 19  1  0  0  0  0
 18 20  1  0  0  0  0
 21 22  1  0  0  0  0
 21 23  2  0  0  0  0
M  CHG  1  18   1
M  END
>  <CHROM.1>
-177.57572978,178.55092358,136.58077268,-80.07038079,-42.08309006,-24.69878455
6.44227215,7.03439159,-1.00199299,-0.45484226,-1.32653912

>  <Name>


>  <RI>
0

>  <Rbt.Current_Directory>
/home/itssahil/PROJECTS/Mol_Feturizer/New_Systems/rnas/1lvj

>  <Rbt.Executable>
rbdock ($Id: //depot/dev/client3/rdock/2013.1/src/exe/rbdock.cxx#4 $)

>  <Rbt.Library>
libRbt.so (2013.1, Build901 2013/11/27)

>  <Rbt.Parameter_File>
/export/apps/rDock/src/rDock_2013.1_src/data/scripts/dock_solv.prm

>  <Rbt.Receptor>
prm/pocket_docking_3.prm

>  <SCORE>
18.9056

>  <SCORE.INTER>
17.0769

>  <SCORE.INTER.CONST>
1

>  <SCORE.INTER.POLAR>
-0.961366

>  <SCORE.INTER.ROT>
5

>  <SCORE.INTER.SOLV>
22.5139

>  <SCORE.INTER.VDW>
0.151177

>  <SCORE.INTER.norm>
0.742473

>  <SCORE.INTRA>
1.54341

>  <SCORE.INTRA.DIHEDRAL>
-1.0012

>  <SCORE.INTRA.DIHEDRAL.0>
8.06479

>  <SCORE.INTRA.POLAR>
0

>  <SCORE.INTRA.POLAR.0>
0

>  <SCORE.INTRA.REPUL>
0

>  <SCORE.INTRA.REPUL.0>
0

>  <SCORE.INTRA.SOLV>
4.26808

>  <SCORE.INTRA.SOLV.lig_0>
-29.8054

>  <SCORE.INTRA.VDW>
-0.0900298

>  <SCORE.INTRA.VDW.0>
2.61447

>  <SCORE.INTRA.norm>
0.0671047

>  <SCORE.RESTR>
0.285317

>  <SCORE.RESTR.CAVITY>
0.285317

>  <SCORE.RESTR.norm>
0.0124051

>  <SCORE.SYSTEM>
0

>  <SCORE.SYSTEM.CONST>
0

>  <SCORE.SYSTEM.DIHEDRAL>
0

>  <SCORE.SYSTEM.SOLV>
0

>  <SCORE.SYSTEM.norm>
0

>  <SCORE.heavy>
23

>  <SCORE.norm>
0.821983

>  <RMSD>
1.128

$$$$

 OpenBabel11021811403D
libRbt.so/2013.1/901 2013/11/27
 23 25  0  0  0  0  0  0  0  0999 V2000
  -21.6201    8.3673    6.1364 S   0  0  0  0  0  0  0  0  0  0  0  0
  -24.4810    8.0111    6.8831 N   0  0  0  0  0  0  0  0  0  0  0  0
  -24.0990    7.1158    9.0892 C   0  0  0  0  0  0  0  0  0  0  0  0
  -23.1930    6.7323   10.0867 C   0  0  0  0  0  0  0  0  0  0  0  0
  -21.8232    6.8559    9.8745 C   0  0  0  0  0  0  0  0  0  0  0  0
  -21.3511    7.3575    8.6665 C   0  0  0  0  0  0  0  0  0  0  0  0
  -22.2423    7.7394    7.6670 C   0  0  0  0  0  0  0  0  0  0  0  0
  -23.6223    7.6216    7.8716 C   0  0  0  0  0  0  0  0  0  0  0  0
  -22.8473    7.4946    5.2160 C   0  0  0  0  0  0  0  0  0  0  0  0
  -22.5127    6.8862    4.0027 C   0  0  0  0  0  0  0  0  0  0  0  0
  -23.4887    6.2003    3.2743 C   0  0  0  0  0  0  0  0  0  0  0  0
  -24.7983    6.1286    3.7602 C   0  0  0  0  0  0  0  0  0  0  0  0
  -25.1258    6.7387    4.9716 C   0  0  0  0  0  0  0  0  0  0  0  0
  -24.1582    7.4170    5.6999 C   0  0  0  0  0  0  0  0  0  0  0  0
  -25.9069    8.2783    7.1956 C   0  0  0  0  0  0  0  0  0  0  0  0
  -26.8706    7.0458    7.2410 C   0  0  0  0  0  0  0  0  0  0  0  0
  -27.8572    6.9798    6.0254 C   0  0  0  0  0  0  0  0  0  0  0  0
  -27.7356    5.8239    5.1008 N   0  3  0  0  0  0  0  0  0  0  0  0
  -28.0550    4.5443    5.7850 C   0  0  0  0  0  0  0  0  0  0  0  0
  -26.3702    5.7909    4.4710 C   0  0  0  0  0  0  0  0  0  0  0  0
  -23.6916    6.1807   11.3919 C   0  0  0  0  0  0  0  0  0  0  0  0
  -22.7488    5.7460   12.4877 C   0  0  0  0  0  0  0  0  0  0  0  0
  -24.8931    6.1354   11.6031 O   0  0  0  0  0  0  0  0  0  0  0  0
  1  7  1  0  0  0  0
  1  9  1  0  0  0  0
  2  8  1  0  0  0  0
  2 14  1  0  0  0  0
  2 15  1  0  0  0  0
  3  4  2  0  0  0  0
  3  8  1  0  0  0  0
  4  5  1  0  0  0  0
  4 21  1  0  0  0  0
  5  6  2  0  0  0  0
  6  7  1  0  0  0  0
  7  8  2  0  0  0  0
  9 10  2  0  0  0  0
  9 14  1  0  0  0  0
 10 11  1  0  0  0  0
 11 12  2  0  0  0  0
 12 13  1  0  0  0  0
 13 14  2  0  0  0  0
 15 16  1  0  0  0  0
 16 17  1  0  0  0  0
 17 18  1  0  0  0  0
 18 19  1  0  0  0  0
 18 20  1  0  0  0  0
 21 22  1  0  0  0  0
 21 23  2  0  0  0  0
M  CHG  1  18   1
M  END
>  <CHROM.1>
-83.45060662,179.50972797,-108.00831929,116.26227446,-175.58318125,-24.26529076
6.88653656,7.10739825,-1.08071382,-0.30374272,-1.47582091

>  <Name>


>  <RI>
0

>  <Rbt.Current_Directory>
/home/itssahil/PROJECTS/Mol_Feturizer/New_Systems/rnas/1lvj

>  <Rbt.Executable>
rbdock ($Id: //depot/dev/client3/rdock/2013.1/src/exe/rbdock.cxx#4 $)

>  <Rbt.Library>
libRbt.so (2013.1, Build901 2013/11/27)

>  <Rbt.Parameter_File>
/export/apps/rDock/src/rDock_2013.1_src/data/scripts/dock_solv.prm

>  <Rbt.Receptor>
prm/pocket_docking_2.prm

>  <SCORE>
15.8383

>  <SCORE.INTER>
-20.4238

>  <SCORE.INTER.CONST>
1

>  <SCORE.INTER.POLAR>
-1.54528

>  <SCORE.INTER.ROT>
5

>  <SCORE.INTER.SOLV>
22.5341

>  <SCORE.INTER.VDW>
-22.9096

>  <SCORE.INTER.norm>
-0.887991

>  <SCORE.INTRA>
35.7956

>  <SCORE.INTRA.DIHEDRAL>
2.85464

>  <SCORE.INTRA.DIHEDRAL.0>
8.06479

>  <SCORE.INTRA.POLAR>
0

>  <SCORE.INTRA.POLAR.0>
0

>  <SCORE.INTRA.REPUL>
0

>  <SCORE.INTRA.REPUL.0>
0

>  <SCORE.INTRA.SOLV>
1.25282

>  <SCORE.INTRA.SOLV.lig_0>
-29.8054

>  <SCORE.INTRA.VDW>
33.7419

>  <SCORE.INTRA.VDW.0>
2.61447

>  <SCORE.INTRA.norm>
1.55633

>  <SCORE.RESTR>
0.466472

>  <SCORE.RESTR.CAVITY>
0.466472

>  <SCORE.RESTR.norm>
0.0202814

>  <SCORE.SYSTEM>
0

>  <SCORE.SYSTEM.CONST>
0

>  <SCORE.SYSTEM.DIHEDRAL>
0

>  <SCORE.SYSTEM.SOLV>
0

>  <SCORE.SYSTEM.norm>
0

>  <SCORE.heavy>
23

>  <SCORE.norm>
0.688622

>  <RMSD>
1.170

$$$$

 OpenBabel11021811403D
libRbt.so/2013.1/901 2013/11/27
 23 25  0  0  0  0  0  0  0  0999 V2000
  -21.7406    8.5361    5.9941 S   0  0  0  0  0  0  0  0  0  0  0  0
  -24.5585    7.7776    6.5884 N   0  0  0  0  0  0  0  0  0  0  0  0
  -24.1611    6.8729    8.7879 C   0  0  0  0  0  0  0  0  0  0  0  0
  -23.2584    6.5829    9.8195 C   0  0  0  0  0  0  0  0  0  0  0  0
  -21.9096    6.8950    9.6788 C   0  0  0  0  0  0  0  0  0  0  0  0
  -21.4544    7.4926    8.5086 C   0  0  0  0  0  0  0  0  0  0  0  0
  -22.3421    7.7831    7.4757 C   0  0  0  0  0  0  0  0  0  0  0  0
  -23.7015    7.4757    7.6084 C   0  0  0  0  0  0  0  0  0  0  0  0
  -22.7952    7.5364    4.9924 C   0  0  0  0  0  0  0  0  0  0  0  0
  -22.3260    7.0164    3.7825 C   0  0  0  0  0  0  0  0  0  0  0  0
  -23.1660    6.2293    2.9897 C   0  0  0  0  0  0  0  0  0  0  0  0
  -24.4749    5.9681    3.4079 C   0  0  0  0  0  0  0  0  0  0  0  0
  -24.9371    6.4908    4.6162 C   0  0  0  0  0  0  0  0  0  0  0  0
  -24.1044    7.2693    5.4084 C   0  0  0  0  0  0  0  0  0  0  0  0
  -26.0203    7.8419    6.8360 C   0  0  0  0  0  0  0  0  0  0  0  0
  -26.7058    6.5534    7.4013 C   0  0  0  0  0  0  0  0  0  0  0  0
  -26.8788    5.4191    6.3342 C   0  0  0  0  0  0  0  0  0  0  0  0
  -27.6999    5.7211    5.1340 N   0  3  0  0  0  0  0  0  0  0  0  0
  -28.5984    6.8811    5.3676 C   0  0  0  0  0  0  0  0  0  0  0  0
  -28.4674    4.5036    4.6975 C   0  0  0  0  0  0  0  0  0  0  0  0
  -23.7376    5.9291   11.0842 C   0  0  0  0  0  0  0  0  0  0  0  0
  -22.7997    5.6095   12.2230 C   0  0  0  0  0  0  0  0  0  0  0  0
  -24.9283    5.7011   11.2265 O   0  0  0  0  0  0  0  0  0  0  0  0
  1  7  1  0  0  0  0
  1  9  1  0  0  0  0
  2  8  1  0  0  0  0
  2 14  1  0  0  0  0
  2 15  1  0  0  0  0
  3  4  2  0  0  0  0
  3  8  1  0  0  0  0
  4  5  1  0  0  0  0
  4 21  1  0  0  0  0
  5  6  2  0  0  0  0
  6  7  1  0  0  0  0
  7  8  2  0  0  0  0
  9 10  2  0  0  0  0
  9 14  1  0  0  0  0
 10 11  1  0  0  0  0
 11 12  2  0  0  0  0
 12 13  1  0  0  0  0
 13 14  2  0  0  0  0
 15 16  1  0  0  0  0
 16 17  1  0  0  0  0
 17 18  1  0  0  0  0
 18 19  1  0  0  0  0
 18 20  1  0  0  0  0
 21 22  1  0  0  0  0
 21 23  2  0  0  0  0
M  CHG  1  18   1
M  END
>  <CHROM.1>
-58.12635622,-179.53474672,-74.51981741,-60.33902253,100.13954594,-24.33228789
6.76773774,6.91683985,-1.00181002,-0.33429177,-1.44265226

>  <Name>


>  <RI>
0

>  <Rbt.Current_Directory>
/home/itssahil/PROJECTS/Mol_Feturizer/New_Systems/rnas/1lvj

>  <Rbt.Executable>
rbdock ($Id: //depot/dev/client3/rdock/2013.1/src/exe/rbdock.cxx#4 $)

>  <Rbt.Library>
libRbt.so (2013.1, Build901 2013/11/27)

>  <Rbt.Parameter_File>
/export/apps/rDock/src/rDock_2013.1_src/data/scripts/dock_solv.prm

>  <Rbt.Receptor>
prm/pocket_docking_2.prm

>  <SCORE>
-6.17615

>  <SCORE.INTER>
-12.2674

>  <SCORE.INTER.CONST>
1

>  <SCORE.INTER.POLAR>
0

>  <SCORE.INTER.ROT>
5

>  <SCORE.INTER.SOLV>
20.5341

>  <SCORE.INTER.VDW>
-21.9563

>  <SCORE.INTER.norm>
-0.533366

>  <SCORE.INTRA>
5.97027

>  <SCORE.INTRA.DIHEDRAL>
-4.27643

>  <SCORE.INTRA.DIHEDRAL.0>
8.06479

>  <SCORE.INTRA.POLAR>
0

>  <SCORE.INTRA.POLAR.0>
0

>  <SCORE.INTRA.REPUL>
0

>  <SCORE.INTRA.REPUL.0>
0

>  <SCORE.INTRA.SOLV>
5.51351

>  <SCORE.INTRA.SOLV.lig_0>
-29.8054

>  <SCORE.INTRA.VDW>
5.35173

>  <SCORE.INTRA.VDW.0>
2.61447

>  <SCORE.INTRA.norm>
0.259577

>  <SCORE.RESTR>
0.121011

>  <SCORE.RESTR.CAVITY>
0.121011

>  <SCORE.RESTR.norm>
0.00526134

>  <SCORE.SYSTEM>
0

>  <SCORE.SYSTEM.CONST>
0

>  <SCORE.SYSTEM.DIHEDRAL>
0

>  <SCORE.SYSTEM.SOLV>
0

>  <SCORE.SYSTEM.norm>
0

>  <SCORE.heavy>
23

>  <SCORE.norm>
-0.268528

>  <RMSD>
1.176

$$$$

 OpenBabel11021811403D
libRbt.so/2013.1/901 2013/11/27
 23 25  0  0  0  0  0  0  0  0999 V2000
  -21.7499    8.5798    5.9147 S   0  0  0  0  0  0  0  0  0  0  0  0
  -24.5417    7.7978    6.5956 N   0  0  0  0  0  0  0  0  0  0  0  0
  -24.0745    6.9284    8.7956 C   0  0  0  0  0  0  0  0  0  0  0  0
  -23.1409    6.6631    9.8062 C   0  0  0  0  0  0  0  0  0  0  0  0
  -21.8001    6.9884    9.6246 C   0  0  0  0  0  0  0  0  0  0  0  0
  -21.3837    7.5748    8.4345 C   0  0  0  0  0  0  0  0  0  0  0  0
  -22.3023    7.8408    7.4223 C   0  0  0  0  0  0  0  0  0  0  0  0
  -23.6539    7.5199    7.5960 C   0  0  0  0  0  0  0  0  0  0  0  0
  -22.8194    7.5544    4.9557 C   0  0  0  0  0  0  0  0  0  0  0  0
  -22.3770    7.0229    3.7408 C   0  0  0  0  0  0  0  0  0  0  0  0
  -23.2288    6.2153    2.9818 C   0  0  0  0  0  0  0  0  0  0  0  0
  -24.5228    5.9452    3.4390 C   0  0  0  0  0  0  0  0  0  0  0  0
  -24.9583    6.4795    4.6522 C   0  0  0  0  0  0  0  0  0  0  0  0
  -24.1137    7.2783    5.4107 C   0  0  0  0  0  0  0  0  0  0  0  0
  -25.9969    7.8491    6.8820 C   0  0  0  0  0  0  0  0  0  0  0  0
  -26.6624    6.5436    7.4320 C   0  0  0  0  0  0  0  0  0  0  0  0
  -26.8047    5.4141    6.3553 C   0  0  0  0  0  0  0  0  0  0  0  0
  -28.0603    5.3710    5.5631 N   0  3  0  0  0  0  0  0  0  0  0  0
  -27.8767    4.6216    4.2934 C   0  0  0  0  0  0  0  0  0  0  0  0
  -28.5793    6.7610    5.3172 C   0  0  0  0  0  0  0  0  0  0  0  0
  -23.5781    6.0216   11.0922 C   0  0  0  0  0  0  0  0  0  0  0  0
  -22.5944    5.6567   12.1775 C   0  0  0  0  0  0  0  0  0  0  0  0
  -24.7679    5.8418   11.2976 O   0  0  0  0  0  0  0  0  0  0  0  0
  1  7  1  0  0  0  0
  1  9  1  0  0  0  0
  2  8  1  0  0  0  0
  2 14  1  0  0  0  0
  2 15  1  0  0  0  0
  3  4  2  0  0  0  0
  3  8  1  0  0  0  0
  4  5  1  0  0  0  0
  4 21  1  0  0  0  0
  5  6  2  0  0  0  0
  6  7  1  0  0  0  0
  7  8  2  0  0  0  0
  9 10  2  0  0  0  0
  9 14  1  0  0  0  0
 10 11  1  0  0  0  0
 11 12  2  0  0  0  0
 12 13  1  0  0  0  0
 13 14  2  0  0  0  0
 15 16  1  0  0  0  0
 16 17  1  0  0  0  0
 17 18  1  0  0  0  0
 18 19  1  0  0  0  0
 18 20  1  0  0  0  0
 21 22  1  0  0  0  0
 21 23  2  0  0  0  0
M  CHG  1  18   1
M  END
>  <CHROM.1>
-60.39021935,176.91249166,-72.16155001,-90.79943628,-80.99798748,-24.28632443
6.78198694,6.90983924,-0.98702188,-0.34894365,-1.45174929

>  <Name>


>  <RI>
0

>  <Rbt.Current_Directory>
/home/itssahil/PROJECTS/Mol_Feturizer/New_Systems/rnas/1lvj

>  <Rbt.Executable>
rbdock ($Id: //depot/dev/client3/rdock/2013.1/src/exe/rbdock.cxx#4 $)

>  <Rbt.Library>
libRbt.so (2013.1, Build901 2013/11/27)

>  <Rbt.Parameter_File>
/export/apps/rDock/src/rDock_2013.1_src/data/scripts/dock_solv.prm

>  <Rbt.Receptor>
prm/pocket_docking_2.prm

>  <SCORE>
-1.19974

>  <SCORE.INTER>
-3.1133

>  <SCORE.INTER.CONST>
1

>  <SCORE.INTER.POLAR>
-0.216799

>  <SCORE.INTER.ROT>
5

>  <SCORE.INTER.SOLV>
24.6708

>  <SCORE.INTER.VDW>
-16.5098

>  <SCORE.INTER.norm>
-0.135361

>  <SCORE.INTRA>
1.83363

>  <SCORE.INTRA.DIHEDRAL>
-3.05872

>  <SCORE.INTRA.DIHEDRAL.0>
8.06479

>  <SCORE.INTRA.POLAR>
0

>  <SCORE.INTRA.POLAR.0>
0

>  <SCORE.INTRA.REPUL>
0

>  <SCORE.INTRA.REPUL.0>
0

>  <SCORE.INTRA.SOLV>
0.488291

>  <SCORE.INTRA.SOLV.lig_0>
-29.8054

>  <SCORE.INTRA.VDW>
3.11885

>  <SCORE.INTRA.VDW.0>
2.61447

>  <SCORE.INTRA.norm>
0.0797231

>  <SCORE.RESTR>
0.0799246

>  <SCORE.RESTR.CAVITY>
0.0799246

>  <SCORE.RESTR.norm>
0.00347498

>  <SCORE.SYSTEM>
0

>  <SCORE.SYSTEM.CONST>
0

>  <SCORE.SYSTEM.DIHEDRAL>
0

>  <SCORE.SYSTEM.SOLV>
0

>  <SCORE.SYSTEM.norm>
0

>  <SCORE.heavy>
23

>  <SCORE.norm>
-0.0521627

>  <RMSD>
1.177

$$$$

 OpenBabel11021811403D
libRbt.so/2013.1/901 2013/11/27
 23 25  0  0  0  0  0  0  0  0999 V2000
  -21.7841    8.5357    5.9335 S   0  0  0  0  0  0  0  0  0  0  0  0
  -24.5819    7.8240    6.6653 N   0  0  0  0  0  0  0  0  0  0  0  0
  -24.0983    6.9541    8.8615 C   0  0  0  0  0  0  0  0  0  0  0  0
  -23.1544    6.6713    9.8576 C   0  0  0  0  0  0  0  0  0  0  0  0
  -21.8095    6.9636    9.6519 C   0  0  0  0  0  0  0  0  0  0  0  0
  -21.3994    7.5342    8.4519 C   0  0  0  0  0  0  0  0  0  0  0  0
  -22.3284    7.8173    7.4539 C   0  0  0  0  0  0  0  0  0  0  0  0
  -23.6842    7.5297    7.6520 C   0  0  0  0  0  0  0  0  0  0  0  0
  -22.8938    7.5316    4.9979 C   0  0  0  0  0  0  0  0  0  0  0  0
  -22.4849    6.9840    3.7784 C   0  0  0  0  0  0  0  0  0  0  0  0
  -23.3686    6.1934    3.0381 C   0  0  0  0  0  0  0  0  0  0  0  0
  -24.6607    5.9565    3.5183 C   0  0  0  0  0  0  0  0  0  0  0  0
  -25.0627    6.5069    4.7359 C   0  0  0  0  0  0  0  0  0  0  0  0
  -24.1865    7.2888    5.4760 C   0  0  0  0  0  0  0  0  0  0  0  0
  -26.0303    7.9115    6.9758 C   0  0  0  0  0  0  0  0  0  0  0  0
  -26.7198    6.6218    7.5336 C   0  0  0  0  0  0  0  0  0  0  0  0
  -26.8305    5.4676    6.4796 C   0  0  0  0  0  0  0  0  0  0  0  0
  -28.0344    5.4408    5.6103 N   0  3  0  0  0  0  0  0  0  0  0  0
  -27.7839    4.6823    4.3575 C   0  0  0  0  0  0  0  0  0  0  0  0
  -28.5140    6.8378    5.3268 C   0  0  0  0  0  0  0  0  0  0  0  0
  -23.5849    6.0466   11.1541 C   0  0  0  0  0  0  0  0  0  0  0  0
  -22.5874    5.5968   12.1940 C   0  0  0  0  0  0  0  0  0  0  0  0
  -24.7753    5.9513   11.4068 O   0  0  0  0  0  0  0  0  0  0  0  0
  1  7  1  0  0  0  0
  1  9  1  0  0  0  0
  2  8  1  0  0  0  0
  2 14  1  0  0  0  0
  2 15  1  0  0  0  0
  3  4  2  0  0  0  0
  3  8  1  0  0  0  0
  4  5  1  0  0  0  0
  4 21  1  0  0  0  0
  5  6  2  0  0  0  0
  6  7  1  0  0  0  0
  7  8  2  0  0  0  0
  9 10  2  0  0  0  0
  9 14  1  0  0  0  0
 10 11  1  0  0  0  0
 11 12  2  0  0  0  0
 12 13  1  0  0  0  0
 13 14  2  0  0  0  0
 15 16  1  0  0  0  0
 16 17  1  0  0  0  0
 17 18  1  0  0  0  0
 18 19  1  0  0  0  0
 18 20  1  0  0  0  0
 21 22  1  0  0  0  0
 21 23  2  0  0  0  0
M  CHG  1  18   1
M  END
>  <CHROM.1>
-60.83697269,173.62394455,-68.67540963,-88.48053204,-82.55132080,-24.31774041
6.79706707,6.96576988,-1.00797897,-0.33494315,-1.45247827

>  <Name>


>  <RI>
0

>  <Rbt.Current_Directory>
/home/itssahil/PROJECTS/Mol_Feturizer/New_Systems/rnas/1lvj

>  <Rbt.Executable>
rbdock ($Id: //depot/dev/client3/rdock/2013.1/src/exe/rbdock.cxx#4 $)

>  <Rbt.Library>
libRbt.so (2013.1, Build901 2013/11/27)

>  <Rbt.Parameter_File>
/export/apps/rDock/src/rDock_2013.1_src/data/scripts/dock_solv.prm

>  <Rbt.Receptor>
prm/pocket_docking_3.prm

>  <SCORE>
-0.628904

>  <SCORE.INTER>
-3.79278

>  <SCORE.INTER.CONST>
1

>  <SCORE.INTER.POLAR>
-0.228854

>  <SCORE.INTER.ROT>
5

>  <SCORE.INTER.SOLV>
24.4061

>  <SCORE.INTER.VDW>
-16.8344

>  <SCORE.INTER.norm>
-0.164904

>  <SCORE.INTRA>
2.68959

>  <SCORE.INTRA.DIHEDRAL>
-3.37012

>  <SCORE.INTRA.DIHEDRAL.0>
8.06479

>  <SCORE.INTRA.POLAR>
0

>  <SCORE.INTRA.POLAR.0>
0

>  <SCORE.INTRA.REPUL>
0

>  <SCORE.INTRA.REPUL.0>
0

>  <SCORE.INTRA.SOLV>
0.520869

>  <SCORE.INTRA.SOLV.lig_0>
-29.8054

>  <SCORE.INTRA.VDW>
4.11422

>  <SCORE.INTRA.VDW.0>
2.61447

>  <SCORE.INTRA.norm>
0.116939

>  <SCORE.RESTR>
0.47429

>  <SCORE.RESTR.CAVITY>
0.47429

>  <SCORE.RESTR.norm>
0.0206213

>  <SCORE.SYSTEM>
0

>  <SCORE.SYSTEM.CONST>
0

>  <SCORE.SYSTEM.DIHEDRAL>
0

>  <SCORE.SYSTEM.SOLV>
0

>  <SCORE.SYSTEM.norm>
0

>  <SCORE.heavy>
23

>  <SCORE.norm>
-0.0273436

>  <RMSD>
1.189

$$$$

 OpenBabel11021811403D
libRbt.so/2013.1/901 2013/11/27
 23 25  0  0  0  0  0  0  0  0999 V2000
  -21.7972    8.3025    7.2438 S   0  0  0  0  0  0  0  0  0  0  0  0
  -24.6386    7.7219    6.5668 N   0  0  0  0  0  0  0  0  0  0  0  0
  -25.1832    6.5258    8.5884 C   0  0  0  0  0  0  0  0  0  0  0  0
  -24.7787    6.0363    9.8374 C   0  0  0  0  0  0  0  0  0  0  0  0
  -23.4778    6.2463   10.2846 C   0  0  0  0  0  0  0  0  0  0  0  0
  -22.5740    6.9406    9.4877 C   0  0  0  0  0  0  0  0  0  0  0  0
  -22.9643    7.4295    8.2435 C   0  0  0  0  0  0  0  0  0  0  0  0
  -24.2716    7.2259    7.7856 C   0  0  0  0  0  0  0  0  0  0  0  0
  -22.3916    7.5262    5.7745 C   0  0  0  0  0  0  0  0  0  0  0  0
  -21.4929    7.1188    4.7843 C   0  0  0  0  0  0  0  0  0  0  0  0
  -21.9682    6.5088    3.6199 C   0  0  0  0  0  0  0  0  0  0  0  0
  -23.3422    6.3119    3.4478 C   0  0  0  0  0  0  0  0  0  0  0  0
  -24.2338    6.7216    4.4398 C   0  0  0  0  0  0  0  0  0  0  0  0
  -23.7653    7.3237    5.5994 C   0  0  0  0  0  0  0  0  0  0  0  0
  -26.0744    7.8808    6.2273 C   0  0  0  0  0  0  0  0  0  0  0  0
  -27.0091    6.6522    6.4859 C   0  0  0  0  0  0  0  0  0  0  0  0
  -27.2016    5.7386    5.2275 C   0  0  0  0  0  0  0  0  0  0  0  0
  -28.1510    4.6020    5.3394 N   0  3  0  0  0  0  0  0  0  0  0  0
  -27.4355    3.3045    5.4495 C   0  0  0  0  0  0  0  0  0  0  0  0
  -29.1196    4.6058    4.1888 C   0  0  0  0  0  0  0  0  0  0  0  0
  -25.7439    5.2771   10.7026 C   0  0  0  0  0  0  0  0  0  0  0  0
  -25.2901    4.5027   11.9162 C   0  0  0  0  0  0  0  0  0  0  0  0
  -26.9386    5.3323   10.4580 O   0  0  0  0  0  0  0  0  0  0  0  0
  1  7  1  0  0  0  0
  1  9  1  0  0  0  0
  2  8  1  0  0  0  0
  2 14  1  0  0  0  0
  2 15  1  0  0  0  0
  3  4  2  0  0  0  0
  3  8  1  0  0  0  0
  4  5  1  0  0  0  0
  4 21  1  0  0  0  0
  5  6  2  0  0  0  0
  6  7  1  0  0  0  0
  7  8  2  0  0  0  0
  9 10  2  0  0  0  0
  9 14  1  0  0  0  0
 10 11  1  0  0  0  0
 11 12  2  0  0  0  0
 12 13  1  0  0  0  0
 13 14  2  0  0  0  0
 15 16  1  0  0  0  0
 16 17  1  0  0  0  0
 17 18  1  0  0  0  0
 18 19  1  0  0  0  0
 18 20  1  0  0  0  0
 21 22  1  0  0  0  0
 21 23  2  0  0  0  0
M  CHG  1  18   1
M  END
>  <CHROM.1>
-49.33154693,167.68594640,-94.11451755,-175.55251370,14.44988252,-24.72341237
6.39413392,7.04024160,-0.15517461,0.46226252,1.63767337

>  <Name>


>  <RI>
0

>  <Rbt.Current_Directory>
/home/itssahil/PROJECTS/Mol_Feturizer/New_Systems/rnas/1lvj

>  <Rbt.Executable>
rbdock ($Id: //depot/dev/client3/rdock/2013.1/src/exe/rbdock.cxx#4 $)

>  <Rbt.Library>
libRbt.so (2013.1, Build901 2013/11/27)

>  <Rbt.Parameter_File>
/export/apps/rDock/src/rDock_2013.1_src/data/scripts/dock_solv.prm

>  <Rbt.Receptor>
prm/blind_docking_100.prm

>  <SCORE>
19.4731

>  <SCORE.INTER>
16.0902

>  <SCORE.INTER.CONST>
1

>  <SCORE.INTER.POLAR>
-0.701219

>  <SCORE.INTER.ROT>
5

>  <SCORE.INTER.SOLV>
24.9178

>  <SCORE.INTER.VDW>
-2.17506

>  <SCORE.INTER.norm>
0.699575

>  <SCORE.INTRA>
-0.58652

>  <SCORE.INTRA.DIHEDRAL>
0.106634

>  <SCORE.INTRA.DIHEDRAL.0>
8.06479

>  <SCORE.INTRA.POLAR>
0

>  <SCORE.INTRA.POLAR.0>
0

>  <SCORE.INTRA.REPUL>
0

>  <SCORE.INTRA.REPUL.0>
0

>  <SCORE.INTRA.SOLV>
0.849119

>  <SCORE.INTRA.SOLV.lig_0>
-29.8054

>  <SCORE.INTRA.VDW>
-1.0644

>  <SCORE.INTRA.VDW.0>
2.61447

>  <SCORE.INTRA.norm>
-0.0255009

>  <SCORE.RESTR>
3.96936

>  <SCORE.RESTR.CAVITY>
3.96936

>  <SCORE.RESTR.norm>
0.172581

>  <SCORE.SYSTEM>
0

>  <SCORE.SYSTEM.CONST>
0

>  <SCORE.SYSTEM.DIHEDRAL>
0

>  <SCORE.SYSTEM.SOLV>
0

>  <SCORE.SYSTEM.norm>
0

>  <SCORE.heavy>
23

>  <SCORE.norm>
0.846655

>  <RMSD>
1.309

$$$$

 OpenBabel11021811403D
libRbt.so/2013.1/901 2013/11/27
 23 25  0  0  0  0  0  0  0  0999 V2000
  -21.5626    7.8753    8.0335 S   0  0  0  0  0  0  0  0  0  0  0  0
  -24.4699    7.7625    7.3979 N   0  0  0  0  0  0  0  0  0  0  0  0
  -25.1218    6.3668    9.2530 C   0  0  0  0  0  0  0  0  0  0  0  0
  -24.7574    5.6555   10.4038 C   0  0  0  0  0  0  0  0  0  0  0  0
  -23.4306    5.6327   10.8228 C   0  0  0  0  0  0  0  0  0  0  0  0
  -22.4615    6.3143   10.0947 C   0  0  0  0  0  0  0  0  0  0  0  0
  -22.8117    7.0224    8.9479 C   0  0  0  0  0  0  0  0  0  0  0  0
  -24.1442    7.0539    8.5195 C   0  0  0  0  0  0  0  0  0  0  0  0
  -22.2861    7.3998    6.4955 C   0  0  0  0  0  0  0  0  0  0  0  0
  -21.4706    7.0286    5.4224 C   0  0  0  0  0  0  0  0  0  0  0  0
  -22.0474    6.6575    4.2045 C   0  0  0  0  0  0  0  0  0  0  0  0
  -23.4389    6.6630    4.0624 C   0  0  0  0  0  0  0  0  0  0  0  0
  -24.2469    7.0353    5.1373 C   0  0  0  0  0  0  0  0  0  0  0  0
  -23.6780    7.4002    6.3497 C   0  0  0  0  0  0  0  0  0  0  0  0
  -25.8797    8.1490    7.1424 C   0  0  0  0  0  0  0  0  0  0  0  0
  -26.9510    7.0086    7.1833 C   0  0  0  0  0  0  0  0  0  0  0  0
  -26.9772    6.1299    5.8863 C   0  0  0  0  0  0  0  0  0  0  0  0
  -27.9675    5.0249    5.8219 N   0  3  0  0  0  0  0  0  0  0  0  0
  -27.3101    3.7206    5.5495 C   0  0  0  0  0  0  0  0  0  0  0  0
  -29.0363    5.3301    4.8087 C   0  0  0  0  0  0  0  0  0  0  0  0
  -25.7944    4.9082   11.1929 C   0  0  0  0  0  0  0  0  0  0  0  0
  -27.1497    4.5758   10.6174 C   0  0  0  0  0  0  0  0  0  0  0  0
  -25.5190    4.5027   12.3108 O   0  0  0  0  0  0  0  0  0  0  0  0
  1  7  1  0  0  0  0
  1  9  1  0  0  0  0
  2  8  1  0  0  0  0
  2 14  1  0  0  0  0
  2 15  1  0  0  0  0
  3  4  2  0  0  0  0
  3  8  1  0  0  0  0
  4  5  1  0  0  0  0
  4 21  1  0  0  0  0
  5  6  2  0  0  0  0
  6  7  1  0  0  0  0
  7  8  2  0  0  0  0
  9 10  2  0  0  0  0
  9 14  1  0  0  0  0
 10 11  1  0  0  0  0
 11 12  2  0  0  0  0
 12 13  1  0  0  0  0
 13 14  2  0  0  0  0
 15 16  1  0  0  0  0
 16 17  1  0  0  0  0
 17 18  1  0  0  0  0
 18 19  1  0  0  0  0
 18 20  1  0  0  0  0
 21 22  1  0  0  0  0
 21 23  2  0  0  0  0
M  CHG  1  18   1
M  END
>  <CHROM.1>
-52.75808877,16.69440474,-78.02822608,-179.56405241,-4.52027784,-24.65212447
6.35414247,7.65485618,-0.78069014,0.38305591,1.74665061

>  <Name>


>  <RI>
0

>  <Rbt.Current_Directory>
/home/itssahil/PROJECTS/Mol_Feturizer/New_Systems/rnas/1lvj

>  <Rbt.Executable>
rbdock ($Id: //depot/dev/client3/rdock/2013.1/src/exe/rbdock.cxx#4 $)

>  <Rbt.Library>
libRbt.so (2013.1, Build901 2013/11/27)

>  <Rbt.Parameter_File>
/export/apps/rDock/src/rDock_2013.1_src/data/scripts/dock_solv.prm

>  <Rbt.Receptor>
prm/pocket_docking_2.prm

>  <SCORE>
12.3157

>  <SCORE.INTER>
13.2263

>  <SCORE.INTER.CONST>
1

>  <SCORE.INTER.POLAR>
-0.895559

>  <SCORE.INTER.ROT>
5

>  <SCORE.INTER.SOLV>
23.598

>  <SCORE.INTER.VDW>
-2.9966

>  <SCORE.INTER.norm>
0.575057

>  <SCORE.INTRA>
-1.82471

>  <SCORE.INTRA.DIHEDRAL>
-1.90185

>  <SCORE.INTRA.DIHEDRAL.0>
8.06479

>  <SCORE.INTRA.POLAR>
0

>  <SCORE.INTRA.POLAR.0>
0

>  <SCORE.INTRA.REPUL>
0

>  <SCORE.INTRA.REPUL.0>
0

>  <SCORE.INTRA.SOLV>
1.12029

>  <SCORE.INTRA.SOLV.lig_0>
-29.8054

>  <SCORE.INTRA.VDW>
-1.43393

>  <SCORE.INTRA.VDW.0>
2.61447

>  <SCORE.INTRA.norm>
-0.0793352

>  <SCORE.RESTR>
0.914139

>  <SCORE.RESTR.CAVITY>
0.914139

>  <SCORE.RESTR.norm>
0.0397452

>  <SCORE.SYSTEM>
0

>  <SCORE.SYSTEM.CONST>
0

>  <SCORE.SYSTEM.DIHEDRAL>
0

>  <SCORE.SYSTEM.SOLV>
0

>  <SCORE.SYSTEM.norm>
0

>  <SCORE.heavy>
23

>  <SCORE.norm>
0.535467

>  <RMSD>
1.545

$$$$

 OpenBabel11021811403D
libRbt.so/2013.1/901 2013/11/27
 23 25  0  0  0  0  0  0  0  0999 V2000
  -22.1492    9.1362    5.4909 S   0  0  0  0  0  0  0  0  0  0  0  0
  -24.5283    7.4078    5.0200 N   0  0  0  0  0  0  0  0  0  0  0  0
  -24.7971    6.6529    7.2942 C   0  0  0  0  0  0  0  0  0  0  0  0
  -24.3613    6.6800    8.6255 C   0  0  0  0  0  0  0  0  0  0  0  0
  -23.2649    7.4563    8.9883 C   0  0  0  0  0  0  0  0  0  0  0  0
  -22.5959    8.2046    8.0259 C   0  0  0  0  0  0  0  0  0  0  0  0
  -23.0187    8.1833    6.6992 C   0  0  0  0  0  0  0  0  0  0  0  0
  -24.1224    7.4078    6.3244 C   0  0  0  0  0  0  0  0  0  0  0  0
  -22.2947    7.8499    4.2913 C   0  0  0  0  0  0  0  0  0  0  0  0
  -21.2239    7.5604    3.4406 C   0  0  0  0  0  0  0  0  0  0  0  0
  -21.3451    6.5442    2.4885 C   0  0  0  0  0  0  0  0  0  0  0  0
  -22.5393    5.8231    2.3875 C   0  0  0  0  0  0  0  0  0  0  0  0
  -23.6045    6.1177    3.2393 C   0  0  0  0  0  0  0  0  0  0  0  0
  -23.4864    7.1232    4.1890 C   0  0  0  0  0  0  0  0  0  0  0  0
  -25.8904    6.9402    4.6622 C   0  0  0  0  0  0  0  0  0  0  0  0
  -27.0111    7.1143    5.7409 C   0  0  0  0  0  0  0  0  0  0  0  0
  -28.4025    6.5507    5.2920 C   0  0  0  0  0  0  0  0  0  0  0  0
  -28.5408    5.0776    5.1633 N   0  3  0  0  0  0  0  0  0  0  0  0
  -27.9513    4.3721    6.3305 C   0  0  0  0  0  0  0  0  0  0  0  0
  -27.9446    4.6009    3.8675 C   0  0  0  0  0  0  0  0  0  0  0  0
  -25.0708    5.8685    9.6718 C   0  0  0  0  0  0  0  0  0  0  0  0
  -24.3373    5.2536   10.8390 C   0  0  0  0  0  0  0  0  0  0  0  0
  -26.2843    5.7486    9.6157 O   0  0  0  0  0  0  0  0  0  0  0  0
  1  7  1  0  0  0  0
  1  9  1  0  0  0  0
  2  8  1  0  0  0  0
  2 14  1  0  0  0  0
  2 15  1  0  0  0  0
  3  4  2  0  0  0  0
  3  8  1  0  0  0  0
  4  5  1  0  0  0  0
  4 21  1  0  0  0  0
  5  6  2  0  0  0  0
  6  7  1  0  0  0  0
  7  8  2  0  0  0  0
  9 10  2  0  0  0  0
  9 14  1  0  0  0  0
 10 11  1  0  0  0  0
 11 12  2  0  0  0  0
 12 13  1  0  0  0  0
 13 14  2  0  0  0  0
 15 16  1  0  0  0  0
 16 17  1  0  0  0  0
 17 18  1  0  0  0  0
 18 19  1  0  0  0  0
 18 20  1  0  0  0  0
 21 22  1  0  0  0  0
 21 23  2  0  0  0  0
M  CHG  1  18   1
M  END
>  <CHROM.1>
28.70862701,146.52099369,-178.12672205,69.21649296,165.58809804,-24.53733402
6.76398155,5.98255520,-0.57271662,0.43430637,1.54269261

>  <Name>


>  <RI>
0

>  <Rbt.Current_Directory>
/home/itssahil/PROJECTS/Mol_Feturizer/New_Systems/rnas/1lvj

>  <Rbt.Executable>
rbdock ($Id: //depot/dev/client3/rdock/2013.1/src/exe/rbdock.cxx#4 $)

>  <Rbt.Library>
libRbt.so (2013.1, Build901 2013/11/27)

>  <Rbt.Parameter_File>
/export/apps/rDock/src/rDock_2013.1_src/data/scripts/dock_solv.prm

>  <Rbt.Receptor>
prm/blind_docking_100.prm

>  <SCORE>
49.5217

>  <SCORE.INTER>
48.1445

>  <SCORE.INTER.CONST>
1

>  <SCORE.INTER.POLAR>
0

>  <SCORE.INTER.ROT>
5

>  <SCORE.INTER.SOLV>
28.117

>  <SCORE.INTER.VDW>
15.7907

>  <SCORE.INTER.norm>
2.09324

>  <SCORE.INTRA>
0.212985

>  <SCORE.INTRA.DIHEDRAL>
-2.20544

>  <SCORE.INTRA.DIHEDRAL.0>
8.06479

>  <SCORE.INTRA.POLAR>
0

>  <SCORE.INTRA.POLAR.0>
0

>  <SCORE.INTRA.REPUL>
0

>  <SCORE.INTRA.REPUL.0>
0

>  <SCORE.INTRA.SOLV>
-0.291767

>  <SCORE.INTRA.SOLV.lig_0>
-29.8054

>  <SCORE.INTRA.VDW>
1.46159

>  <SCORE.INTRA.VDW.0>
2.61447

>  <SCORE.INTRA.norm>
0.00926023

>  <SCORE.RESTR>
1.16425

>  <SCORE.RESTR.CAVITY>
1.16425

>  <SCORE.RESTR.norm>
0.0506194

>  <SCORE.SYSTEM>
0

>  <SCORE.SYSTEM.CONST>
0

>  <SCORE.SYSTEM.DIHEDRAL>
0

>  <SCORE.SYSTEM.SOLV>
0

>  <SCORE.SYSTEM.norm>
0

>  <SCORE.heavy>
23

>  <SCORE.norm>
2.15312

>  <RMSD>
1.569

$$$$

 OpenBabel11021811403D
libRbt.so/2013.1/901 2013/11/27
 23 25  0  0  0  0  0  0  0  0999 V2000
  -21.4397    7.8141    8.3170 S   0  0  0  0  0  0  0  0  0  0  0  0
  -24.3161    7.7742    7.5462 N   0  0  0  0  0  0  0  0  0  0  0  0
  -25.0733    6.3201    9.3143 C   0  0  0  0  0  0  0  0  0  0  0  0
  -24.7730    5.5595   10.4521 C   0  0  0  0  0  0  0  0  0  0  0  0
  -23.4673    5.4986   10.9297 C   0  0  0  0  0  0  0  0  0  0  0  0
  -22.4557    6.1911   10.2733 C   0  0  0  0  0  0  0  0  0  0  0  0
  -22.7422    6.9481    9.1401 C   0  0  0  0  0  0  0  0  0  0  0  0
  -24.0529    7.0181    8.6531 C   0  0  0  0  0  0  0  0  0  0  0  0
  -22.0987    7.4097    6.7305 C   0  0  0  0  0  0  0  0  0  0  0  0
  -21.2404    7.0660    5.6820 C   0  0  0  0  0  0  0  0  0  0  0  0
  -21.7660    6.7512    4.4256 C   0  0  0  0  0  0  0  0  0  0  0  0
  -23.1492    6.7853    4.2209 C   0  0  0  0  0  0  0  0  0  0  0  0
  -24.0002    7.1299    5.2716 C   0  0  0  0  0  0  0  0  0  0  0  0
  -23.4822    7.4389    6.5218 C   0  0  0  0  0  0  0  0  0  0  0  0
  -25.7066    8.1937    7.2422 C   0  0  0  0  0  0  0  0  0  0  0  0
  -26.7948    7.0700    7.1853 C   0  0  0  0  0  0  0  0  0  0  0  0
  -27.6304    7.0768    5.8598 C   0  0  0  0  0  0  0  0  0  0  0  0
  -27.8537    5.7759    5.1789 N   0  3  0  0  0  0  0  0  0  0  0  0
  -29.2070    5.7063    4.5696 C   0  0  0  0  0  0  0  0  0  0  0  0
  -27.6125    4.6337    6.1271 C   0  0  0  0  0  0  0  0  0  0  0  0
  -25.8562    4.8002   11.1637 C   0  0  0  0  0  0  0  0  0  0  0  0
  -27.1633    5.4482   11.5516 C   0  0  0  0  0  0  0  0  0  0  0  0
  -25.7065    3.6091   11.3848 O   0  0  0  0  0  0  0  0  0  0  0  0
  1  7  1  0  0  0  0
  1  9  1  0  0  0  0
  2  8  1  0  0  0  0
  2 14  1  0  0  0  0
  2 15  1  0  0  0  0
  3  4  2  0  0  0  0
  3  8  1  0  0  0  0
  4  5  1  0  0  0  0
  4 21  1  0  0  0  0
  5  6  2  0  0  0  0
  6  7  1  0  0  0  0
  7  8  2  0  0  0  0
  9 10  2  0  0  0  0
  9 14  1  0  0  0  0
 10 11  1  0  0  0  0
 11 12  2  0  0  0  0
 12 13  1  0  0  0  0
 13 14  2  0  0  0  0
 15 16  1  0  0  0  0
 16 17  1  0  0  0  0
 17 18  1  0  0  0  0
 18 19  1  0  0  0  0
 18 20  1  0  0  0  0
 21 22  1  0  0  0  0
 21 23  2  0  0  0  0
M  CHG  1  18   1
M  END
>  <CHROM.1>
-52.96302466,-49.38627543,-127.12047665,134.06922983,-96.53482546,-24.61058549
6.47561458,7.74304734,0.03998721,0.28329257,1.81646516

>  <Name>


>  <RI>
0

>  <Rbt.Current_Directory>
/home/itssahil/PROJECTS/Mol_Feturizer/New_Systems/rnas/1lvj

>  <Rbt.Executable>
rbdock ($Id: //depot/dev/client3/rdock/2013.1/src/exe/rbdock.cxx#4 $)

>  <Rbt.Library>
libRbt.so (2013.1, Build901 2013/11/27)

>  <Rbt.Parameter_File>
/export/apps/rDock/src/rDock_2013.1_src/data/scripts/dock_solv.prm

>  <Rbt.Receptor>
prm/blind_docking_100.prm

>  <SCORE>
24.7697

>  <SCORE.INTER>
10.5082

>  <SCORE.INTER.CONST>
1

>  <SCORE.INTER.POLAR>
0

>  <SCORE.INTER.ROT>
5

>  <SCORE.INTER.SOLV>
21.602

>  <SCORE.INTER.VDW>
-7.12849

>  <SCORE.INTER.norm>
0.45688

>  <SCORE.INTRA>
8.50196

>  <SCORE.INTRA.DIHEDRAL>
12.9668

>  <SCORE.INTRA.DIHEDRAL.0>
8.06479

>  <SCORE.INTRA.POLAR>
0

>  <SCORE.INTRA.POLAR.0>
0

>  <SCORE.INTRA.REPUL>
0

>  <SCORE.INTRA.REPUL.0>
0

>  <SCORE.INTRA.SOLV>
0.838368

>  <SCORE.INTRA.SOLV.lig_0>
-29.8054

>  <SCORE.INTRA.VDW>
1.59937

>  <SCORE.INTRA.VDW.0>
2.61447

>  <SCORE.INTRA.norm>
0.36965

>  <SCORE.RESTR>
5.75946

>  <SCORE.RESTR.CAVITY>
5.75946

>  <SCORE.RESTR.norm>
0.250411

>  <SCORE.SYSTEM>
0

>  <SCORE.SYSTEM.CONST>
0

>  <SCORE.SYSTEM.DIHEDRAL>
0

>  <SCORE.SYSTEM.SOLV>
0

>  <SCORE.SYSTEM.norm>
0

>  <SCORE.heavy>
23

>  <SCORE.norm>
1.07694

>  <RMSD>
1.787

$$$$

 OpenBabel11021811403D
libRbt.so/2013.1/901 2013/11/27
 23 25  0  0  0  0  0  0  0  0999 V2000
  -21.4101    7.7536    8.6045 S   0  0  0  0  0  0  0  0  0  0  0  0
  -24.2408    7.7388    7.6791 N   0  0  0  0  0  0  0  0  0  0  0  0
  -25.0915    6.2358    9.3618 C   0  0  0  0  0  0  0  0  0  0  0  0
  -24.8525    5.4429   10.4919 C   0  0  0  0  0  0  0  0  0  0  0  0
  -23.5745    5.3669   11.0372 C   0  0  0  0  0  0  0  0  0  0  0  0
  -22.5292    6.0767   10.4562 C   0  0  0  0  0  0  0  0  0  0  0  0
  -22.7546    6.8659    9.3312 C   0  0  0  0  0  0  0  0  0  0  0  0
  -24.0373    6.9513    8.7766 C   0  0  0  0  0  0  0  0  0  0  0  0
  -21.9825    7.3951    6.9739 C   0  0  0  0  0  0  0  0  0  0  0  0
  -21.0689    7.0804    5.9637 C   0  0  0  0  0  0  0  0  0  0  0  0
  -21.5260    6.8021    4.6725 C   0  0  0  0  0  0  0  0  0  0  0  0
  -22.8961    6.8435    4.3946 C   0  0  0  0  0  0  0  0  0  0  0  0
  -23.8026    7.1591    5.4074 C   0  0  0  0  0  0  0  0  0  0  0  0
  -23.3528    7.4318    6.6920 C   0  0  0  0  0  0  0  0  0  0  0  0
  -25.6131    8.1683    7.3127 C   0  0  0  0  0  0  0  0  0  0  0  0
  -26.6417    7.0436    6.9564 C   0  0  0  0  0  0  0  0  0  0  0  0
  -26.5984    6.6124    5.4506 C   0  0  0  0  0  0  0  0  0  0  0  0
  -27.7288    5.7997    4.9333 N   0  3  0  0  0  0  0  0  0  0  0  0
  -28.9876    6.5876    4.8851 C   0  0  0  0  0  0  0  0  0  0  0  0
  -27.8914    4.5428    5.7430 C   0  0  0  0  0  0  0  0  0  0  0  0
  -25.9722    4.6648   11.1223 C   0  0  0  0  0  0  0  0  0  0  0  0
  -27.1916    5.3436   11.6975 C   0  0  0  0  0  0  0  0  0  0  0  0
  -25.9296    3.4449   11.1195 O   0  0  0  0  0  0  0  0  0  0  0  0
  1  7  1  0  0  0  0
  1  9  1  0  0  0  0
  2  8  1  0  0  0  0
  2 14  1  0  0  0  0
  2 15  1  0  0  0  0
  3  4  2  0  0  0  0
  3  8  1  0  0  0  0
  4  5  1  0  0  0  0
  4 21  1  0  0  0  0
  5  6  2  0  0  0  0
  6  7  1  0  0  0  0
  7  8  2  0  0  0  0
  9 10  2  0  0  0  0
  9 14  1  0  0  0  0
 10 11  1  0  0  0  0
 11 12  2  0  0  0  0
 12 13  1  0  0  0  0
 13 14  2  0  0  0  0
 15 16  1  0  0  0  0
 16 17  1  0  0  0  0
 17 18  1  0  0  0  0
 18 19  1  0  0  0  0
 18 20  1  0  0  0  0
 21 22  1  0  0  0  0
 21 23  2  0  0  0  0
M  CHG  1  18   1
M  END
>  <CHROM.1>
-61.85896034,-61.29896421,-86.52163381,-165.83744600,-171.97137826,-24.53203272
6.44744542,7.80467329,-0.09736613,0.29029211,1.83171203

>  <Name>


>  <RI>
0

>  <Rbt.Current_Directory>
/home/itssahil/PROJECTS/Mol_Feturizer/New_Systems/rnas/1lvj

>  <Rbt.Executable>
rbdock ($Id: //depot/dev/client3/rdock/2013.1/src/exe/rbdock.cxx#4 $)

>  <Rbt.Library>
libRbt.so (2013.1, Build901 2013/11/27)

>  <Rbt.Parameter_File>
/export/apps/rDock/src/rDock_2013.1_src/data/scripts/dock_solv.prm

>  <Rbt.Receptor>
prm/pocket_docking_2.prm

>  <SCORE>
4.06452

>  <SCORE.INTER>
0.345372

>  <SCORE.INTER.CONST>
1

>  <SCORE.INTER.POLAR>
-0.753549

>  <SCORE.INTER.ROT>
5

>  <SCORE.INTER.SOLV>
24.088

>  <SCORE.INTER.VDW>
-12.2206

>  <SCORE.INTER.norm>
0.0150162

>  <SCORE.INTRA>
1.97291

>  <SCORE.INTRA.DIHEDRAL>
5.49763

>  <SCORE.INTRA.DIHEDRAL.0>
8.06479

>  <SCORE.INTRA.POLAR>
0

>  <SCORE.INTRA.POLAR.0>
0

>  <SCORE.INTRA.REPUL>
0

>  <SCORE.INTRA.REPUL.0>
0

>  <SCORE.INTRA.SOLV>
-0.49679

>  <SCORE.INTRA.SOLV.lig_0>
-29.8054

>  <SCORE.INTRA.VDW>
-0.527505

>  <SCORE.INTRA.VDW.0>
2.61447

>  <SCORE.INTRA.norm>
0.0857789

>  <SCORE.RESTR>
1.74623

>  <SCORE.RESTR.CAVITY>
1.74623

>  <SCORE.RESTR.norm>
0.0759231

>  <SCORE.SYSTEM>
0

>  <SCORE.SYSTEM.CONST>
0

>  <SCORE.SYSTEM.DIHEDRAL>
0

>  <SCORE.SYSTEM.SOLV>
0

>  <SCORE.SYSTEM.norm>
0

>  <SCORE.heavy>
23

>  <SCORE.norm>
0.176718

>  <RMSD>
2.035

$$$$

 OpenBabel11021811403D
libRbt.so/2013.1/901 2013/11/27
 23 25  0  0  0  0  0  0  0  0999 V2000
  -21.4046    7.7456    8.5941 S   0  0  0  0  0  0  0  0  0  0  0  0
  -24.2386    7.7881    7.6798 N   0  0  0  0  0  0  0  0  0  0  0  0
  -25.1107    6.2931    9.3586 C   0  0  0  0  0  0  0  0  0  0  0  0
  -24.8822    5.4904   10.4840 C   0  0  0  0  0  0  0  0  0  0  0  0
  -23.6037    5.3880   11.0239 C   0  0  0  0  0  0  0  0  0  0  0  0
  -22.5477    6.0809   10.4421 C   0  0  0  0  0  0  0  0  0  0  0  0
  -22.7626    6.8797    9.3219 C   0  0  0  0  0  0  0  0  0  0  0  0
  -24.0456    6.9916    8.7727 C   0  0  0  0  0  0  0  0  0  0  0  0
  -21.9898    7.4058    6.9641 C   0  0  0  0  0  0  0  0  0  0  0  0
  -21.0861    7.0791    5.9488 C   0  0  0  0  0  0  0  0  0  0  0  0
  -21.5533    6.8156    4.6580 C   0  0  0  0  0  0  0  0  0  0  0  0
  -22.9236    6.8839    4.3858 C   0  0  0  0  0  0  0  0  0  0  0  0
  -23.8201    7.2114    5.4036 C   0  0  0  0  0  0  0  0  0  0  0  0
  -23.3603    7.4694    6.6877 C   0  0  0  0  0  0  0  0  0  0  0  0
  -25.6041    8.2449    7.3209 C   0  0  0  0  0  0  0  0  0  0  0  0
  -26.6505    7.1422    6.9481 C   0  0  0  0  0  0  0  0  0  0  0  0
  -26.7765    6.8972    5.4056 C   0  0  0  0  0  0  0  0  0  0  0  0
  -27.7351    5.8589    4.9484 N   0  3  0  0  0  0  0  0  0  0  0  0
  -29.1045    6.4138    4.7932 C   0  0  0  0  0  0  0  0  0  0  0  0
  -27.7174    4.6761    5.8772 C   0  0  0  0  0  0  0  0  0  0  0  0
  -26.0138    4.7303   11.1151 C   0  0  0  0  0  0  0  0  0  0  0  0
  -25.8689    4.0470   12.4533 C   0  0  0  0  0  0  0  0  0  0  0  0
  -27.1028    4.7105   10.5640 O   0  0  0  0  0  0  0  0  0  0  0  0
  1  7  1  0  0  0  0
  1  9  1  0  0  0  0
  2  8  1  0  0  0  0
  2 14  1  0  0  0  0
  2 15  1  0  0  0  0
  3  4  2  0  0  0  0
  3  8  1  0  0  0  0
  4  5  1  0  0  0  0
  4 21  1  0  0  0  0
  5  6  2  0  0  0  0
  6  7  1  0  0  0  0
  7  8  2  0  0  0  0
  9 10  2  0  0  0  0
  9 14  1  0  0  0  0
 10 11  1  0  0  0  0
 11 12  2  0  0  0  0
 12 13  1  0  0  0  0
 13 14  2  0  0  0  0
 15 16  1  0  0  0  0
 16 17  1  0  0  0  0
 17 18  1  0  0  0  0
 18 19  1  0  0  0  0
 18 20  1  0  0  0  0
 21 22  1  0  0  0  0
 21 23  2  0  0  0  0
M  CHG  1  18   1
M  END
>  <CHROM.1>
-62.50700276,-169.38411400,-95.78487176,179.40870751,-153.60319465,-24.54298521
6.48684834,7.80762299,-1.20127728,-0.28466488,-1.29989577

>  <Name>


>  <RI>
0

>  <Rbt.Current_Directory>
/home/itssahil/PROJECTS/Mol_Feturizer/New_Systems/rnas/1lvj

>  <Rbt.Executable>
rbdock ($Id: //depot/dev/client3/rdock/2013.1/src/exe/rbdock.cxx#4 $)

>  <Rbt.Library>
libRbt.so (2013.1, Build901 2013/11/27)

>  <Rbt.Parameter_File>
/export/apps/rDock/src/rDock_2013.1_src/data/scripts/dock_solv.prm

>  <Rbt.Receptor>
prm/pocket_docking_2.prm

>  <SCORE>
1.90213

>  <SCORE.INTER>
0.965579

>  <SCORE.INTER.CONST>
1

>  <SCORE.INTER.POLAR>
-0.606212

>  <SCORE.INTER.ROT>
5

>  <SCORE.INTER.SOLV>
23.0353

>  <SCORE.INTER.VDW>
-11.9473

>  <SCORE.INTER.norm>
0.0419817

>  <SCORE.INTRA>
-0.749221

>  <SCORE.INTRA.DIHEDRAL>
-2.52039

>  <SCORE.INTRA.DIHEDRAL.0>
8.06479

>  <SCORE.INTRA.POLAR>
0

>  <SCORE.INTRA.POLAR.0>
0

>  <SCORE.INTRA.REPUL>
0

>  <SCORE.INTRA.REPUL.0>
0

>  <SCORE.INTRA.SOLV>
-0.426512

>  <SCORE.INTRA.SOLV.lig_0>
-29.8054

>  <SCORE.INTRA.VDW>
0.724231

>  <SCORE.INTRA.VDW.0>
2.61447

>  <SCORE.INTRA.norm>
-0.0325748

>  <SCORE.RESTR>
1.68577

>  <SCORE.RESTR.CAVITY>
1.68577

>  <SCORE.RESTR.norm>
0.0732944

>  <SCORE.SYSTEM>
0

>  <SCORE.SYSTEM.CONST>
0

>  <SCORE.SYSTEM.DIHEDRAL>
0

>  <SCORE.SYSTEM.SOLV>
0

>  <SCORE.SYSTEM.norm>
0

>  <SCORE.heavy>
23

>  <SCORE.norm>
0.0827013

>  <RMSD>
2.062

$$$$

 OpenBabel11021811403D
libRbt.so/2013.1/901 2013/11/27
 23 25  0  0  0  0  0  0  0  0999 V2000
  -21.3947    7.7228    8.6079 S   0  0  0  0  0  0  0  0  0  0  0  0
  -24.2420    7.8298    7.7418 N   0  0  0  0  0  0  0  0  0  0  0  0
  -25.1146    6.3303    9.4164 C   0  0  0  0  0  0  0  0  0  0  0  0
  -24.8827    5.5093   10.5278 C   0  0  0  0  0  0  0  0  0  0  0  0
  -23.5977    5.3762   11.0449 C   0  0  0  0  0  0  0  0  0  0  0  0
  -22.5384    6.0565   10.4542 C   0  0  0  0  0  0  0  0  0  0  0  0
  -22.7567    6.8733    9.3476 C   0  0  0  0  0  0  0  0  0  0  0  0
  -24.0462    7.0161    8.8214 C   0  0  0  0  0  0  0  0  0  0  0  0
  -22.0131    7.4146    6.9839 C   0  0  0  0  0  0  0  0  0  0  0  0
  -21.1326    7.0838    5.9497 C   0  0  0  0  0  0  0  0  0  0  0  0
  -21.6259    6.8454    4.6638 C   0  0  0  0  0  0  0  0  0  0  0  0
  -22.9989    6.9429    4.4153 C   0  0  0  0  0  0  0  0  0  0  0  0
  -23.8721    7.2742    5.4520 C   0  0  0  0  0  0  0  0  0  0  0  0
  -23.3865    7.5073    6.7313 C   0  0  0  0  0  0  0  0  0  0  0  0
  -25.6044    8.3166    7.4114 C   0  0  0  0  0  0  0  0  0  0  0  0
  -26.6671    7.2419    7.0046 C   0  0  0  0  0  0  0  0  0  0  0  0
  -26.7006    6.9485    5.4657 C   0  0  0  0  0  0  0  0  0  0  0  0
  -27.6710    5.9354    4.9779 N   0  3  0  0  0  0  0  0  0  0  0  0
  -29.0319    6.5129    4.8301 C   0  0  0  0  0  0  0  0  0  0  0  0
  -27.6743    4.7295    5.8768 C   0  0  0  0  0  0  0  0  0  0  0  0
  -26.0180    4.7627   11.1683 C   0  0  0  0  0  0  0  0  0  0  0  0
  -25.8715    4.0819   12.5076 C   0  0  0  0  0  0  0  0  0  0  0  0
  -27.1106    4.7523   10.6242 O   0  0  0  0  0  0  0  0  0  0  0  0
  1  7  1  0  0  0  0
  1  9  1  0  0  0  0
  2  8  1  0  0  0  0
  2 14  1  0  0  0  0
  2 15  1  0  0  0  0
  3  4  2  0  0  0  0
  3  8  1  0  0  0  0
  4  5  1  0  0  0  0
  4 21  1  0  0  0  0
  5  6  2  0  0  0  0
  6  7  1  0  0  0  0
  7  8  2  0  0  0  0
  9 10  2  0  0  0  0
  9 14  1  0  0  0  0
 10 11  1  0  0  0  0
 11 12  2  0  0  0  0
 12 13  1  0  0  0  0
 13 14  2  0  0  0  0
 15 16  1  0  0  0  0
 16 17  1  0  0  0  0
 17 18  1  0  0  0  0
 18 19  1  0  0  0  0
 18 20  1  0  0  0  0
 21 22  1  0  0  0  0
 21 23  2  0  0  0  0
M  CHG  1  18   1
M  END
>  <CHROM.1>
-64.13570035,-168.21180819,-89.66414078,179.62320764,-158.78117212,-24.54301638
6.52066608,7.84452290,-1.42529426,-0.27644345,-1.29481531

>  <Name>


>  <RI>
0

>  <Rbt.Current_Directory>
/home/itssahil/PROJECTS/Mol_Feturizer/New_Systems/rnas/1lvj

>  <Rbt.Executable>
rbdock ($Id: //depot/dev/client3/rdock/2013.1/src/exe/rbdock.cxx#4 $)

>  <Rbt.Library>
libRbt.so (2013.1, Build901 2013/11/27)

>  <Rbt.Parameter_File>
/export/apps/rDock/src/rDock_2013.1_src/data/scripts/dock_solv.prm

>  <Rbt.Receptor>
prm/pocket_docking_2.prm

>  <SCORE>
-0.358521

>  <SCORE.INTER>
-0.927516

>  <SCORE.INTER.CONST>
1

>  <SCORE.INTER.POLAR>
-0.644068

>  <SCORE.INTER.ROT>
5

>  <SCORE.INTER.SOLV>
22.7928

>  <SCORE.INTER.VDW>
-13.0024

>  <SCORE.INTER.norm>
-0.0403268

>  <SCORE.INTRA>
-1.08641

>  <SCORE.INTRA.DIHEDRAL>
-3.78504

>  <SCORE.INTRA.DIHEDRAL.0>
8.06479

>  <SCORE.INTRA.POLAR>
0

>  <SCORE.INTRA.POLAR.0>
0

>  <SCORE.INTRA.REPUL>
0

>  <SCORE.INTRA.REPUL.0>
0

>  <SCORE.INTRA.SOLV>
-0.345528

>  <SCORE.INTRA.SOLV.lig_0>
-29.8054

>  <SCORE.INTRA.VDW>
0.978878

>  <SCORE.INTRA.VDW.0>
2.61447

>  <SCORE.INTRA.norm>
-0.0472352

>  <SCORE.RESTR>
1.6554

>  <SCORE.RESTR.CAVITY>
1.6554

>  <SCORE.RESTR.norm>
0.071974

>  <SCORE.SYSTEM>
0

>  <SCORE.SYSTEM.CONST>
0

>  <SCORE.SYSTEM.DIHEDRAL>
0

>  <SCORE.SYSTEM.SOLV>
0

>  <SCORE.SYSTEM.norm>
0

>  <SCORE.heavy>
23

>  <SCORE.norm>
-0.0155879

>  <RMSD>
2.077

$$$$

 OpenBabel11021811403D
libRbt.so/2013.1/901 2013/11/27
 23 25  0  0  0  0  0  0  0  0999 V2000
  -21.3097    7.7045    8.7027 S   0  0  0  0  0  0  0  0  0  0  0  0
  -24.1128    7.8382    7.7057 N   0  0  0  0  0  0  0  0  0  0  0  0
  -25.0826    6.3768    9.3603 C   0  0  0  0  0  0  0  0  0  0  0  0
  -24.9138    5.5696   10.4930 C   0  0  0  0  0  0  0  0  0  0  0  0
  -23.6557    5.4264   11.0703 C   0  0  0  0  0  0  0  0  0  0  0  0
  -22.5608    6.0827   10.5188 C   0  0  0  0  0  0  0  0  0  0  0  0
  -22.7164    6.8855    9.3916 C   0  0  0  0  0  0  0  0  0  0  0  0
  -23.9783    7.0384    8.8049 C   0  0  0  0  0  0  0  0  0  0  0  0
  -21.8580    7.3804    7.0567 C   0  0  0  0  0  0  0  0  0  0  0  0
  -20.9363    7.0216    6.0688 C   0  0  0  0  0  0  0  0  0  0  0  0
  -21.3740    6.7706    4.7653 C   0  0  0  0  0  0  0  0  0  0  0  0
  -22.7327    6.8834    4.4529 C   0  0  0  0  0  0  0  0  0  0  0  0
  -23.6472    7.2427    5.4436 C   0  0  0  0  0  0  0  0  0  0  0  0
  -23.2170    7.4885    6.7402 C   0  0  0  0  0  0  0  0  0  0  0  0
  -25.4514    8.3390    7.3063 C   0  0  0  0  0  0  0  0  0  0  0  0
  -26.1138    7.6811    6.0499 C   0  0  0  0  0  0  0  0  0  0  0  0
  -27.0558    6.4785    6.3987 C   0  0  0  0  0  0  0  0  0  0  0  0
  -27.7700    5.8147    5.2784 N   0  3  0  0  0  0  0  0  0  0  0  0
  -29.0021    6.5558    4.9039 C   0  0  0  0  0  0  0  0  0  0  0  0
  -28.0665    4.3794    5.6158 C   0  0  0  0  0  0  0  0  0  0  0  0
  -26.0878    4.8487   11.0917 C   0  0  0  0  0  0  0  0  0  0  0  0
  -25.9553    3.9981   12.3317 C   0  0  0  0  0  0  0  0  0  0  0  0
  -27.1958    4.9983   10.6017 O   0  0  0  0  0  0  0  0  0  0  0  0
  1  7  1  0  0  0  0
  1  9  1  0  0  0  0
  2  8  1  0  0  0  0
  2 14  1  0  0  0  0
  2 15  1  0  0  0  0
  3  4  2  0  0  0  0
  3  8  1  0  0  0  0
  4  5  1  0  0  0  0
  4 21  1  0  0  0  0
  5  6  2  0  0  0  0
  6  7  1  0  0  0  0
  7  8  2  0  0  0  0
  9 10  2  0  0  0  0
  9 14  1  0  0  0  0
 10 11  1  0  0  0  0
 11 12  2  0  0  0  0
 12 13  1  0  0  0  0
 13 14  2  0  0  0  0
 15 16  1  0  0  0  0
 16 17  1  0  0  0  0
 17 18  1  0  0  0  0
 18 19  1  0  0  0  0
 18 20  1  0  0  0  0
 21 22  1  0  0  0  0
 21 23  2  0  0  0  0
M  CHG  1  18   1
M  END
>  <CHROM.1>
-106.00676095,-178.41032367,92.93033422,177.94828785,37.66211566,-24.49479614
6.50885423,7.85432476,-0.05986627,0.28241741,1.83140296

>  <Name>


>  <RI>
0

>  <Rbt.Current_Directory>
/home/itssahil/PROJECTS/Mol_Feturizer/New_Systems/rnas/1lvj

>  <Rbt.Executable>
rbdock ($Id: //depot/dev/client3/rdock/2013.1/src/exe/rbdock.cxx#4 $)

>  <Rbt.Library>
libRbt.so (2013.1, Build901 2013/11/27)

>  <Rbt.Parameter_File>
/export/apps/rDock/src/rDock_2013.1_src/data/scripts/dock_solv.prm

>  <Rbt.Receptor>
prm/blind_docking_100.prm

>  <SCORE>
15.1855

>  <SCORE.INTER>
5.82024

>  <SCORE.INTER.CONST>
1

>  <SCORE.INTER.POLAR>
0

>  <SCORE.INTER.ROT>
5

>  <SCORE.INTER.SOLV>
21.1635

>  <SCORE.INTER.VDW>
-10.1077

>  <SCORE.INTER.norm>
0.253054

>  <SCORE.INTRA>
2.82674

>  <SCORE.INTRA.DIHEDRAL>
-2.17851

>  <SCORE.INTRA.DIHEDRAL.0>
8.06479

>  <SCORE.INTRA.POLAR>
0

>  <SCORE.INTRA.POLAR.0>
0

>  <SCORE.INTRA.REPUL>
0

>  <SCORE.INTRA.REPUL.0>
0

>  <SCORE.INTRA.SOLV>
0.89777

>  <SCORE.INTRA.SOLV.lig_0>
-29.8054

>  <SCORE.INTRA.VDW>
3.46711

>  <SCORE.INTRA.VDW.0>
2.61447

>  <SCORE.INTRA.norm>
0.122902

>  <SCORE.RESTR>
6.53849

>  <SCORE.RESTR.CAVITY>
6.53849

>  <SCORE.RESTR.norm>
0.284282

>  <SCORE.SYSTEM>
0

>  <SCORE.SYSTEM.CONST>
0

>  <SCORE.SYSTEM.DIHEDRAL>
0

>  <SCORE.SYSTEM.SOLV>
0

>  <SCORE.SYSTEM.norm>
0

>  <SCORE.heavy>
23

>  <SCORE.norm>
0.660238

>  <RMSD>
2.134

$$$$

 OpenBabel11021811403D
libRbt.so/2013.1/901 2013/11/27
 23 25  0  0  0  0  0  0  0  0999 V2000
  -21.3853    7.6533    8.8928 S   0  0  0  0  0  0  0  0  0  0  0  0
  -24.2487    7.6897    8.0748 N   0  0  0  0  0  0  0  0  0  0  0  0
  -25.0397    6.0992    9.7052 C   0  0  0  0  0  0  0  0  0  0  0  0
  -24.7606    5.2466   10.7816 C   0  0  0  0  0  0  0  0  0  0  0  0
  -23.4633    5.1409   11.2737 C   0  0  0  0  0  0  0  0  0  0  0  0
  -22.4387    5.8801   10.6927 C   0  0  0  0  0  0  0  0  0  0  0  0
  -22.7040    6.7287    9.6209 C   0  0  0  0  0  0  0  0  0  0  0  0
  -24.0063    6.8444    9.1202 C   0  0  0  0  0  0  0  0  0  0  0  0
  -22.0193    7.3831    7.2680 C   0  0  0  0  0  0  0  0  0  0  0  0
  -21.1449    7.1226    6.2089 C   0  0  0  0  0  0  0  0  0  0  0  0
  -21.6507    6.9141    4.9226 C   0  0  0  0  0  0  0  0  0  0  0  0
  -23.0302    6.9712    4.6990 C   0  0  0  0  0  0  0  0  0  0  0  0
  -23.8973    7.2325    5.7605 C   0  0  0  0  0  0  0  0  0  0  0  0
  -23.3991    7.4356    7.0400 C   0  0  0  0  0  0  0  0  0  0  0  0
  -25.6327    8.1390    7.7836 C   0  0  0  0  0  0  0  0  0  0  0  0
  -26.7029    7.0280    7.5191 C   0  0  0  0  0  0  0  0  0  0  0  0
  -27.4905    7.2263    6.1791 C   0  0  0  0  0  0  0  0  0  0  0  0
  -27.4957    6.1013    5.2095 N   0  3  0  0  0  0  0  0  0  0  0  0
  -27.8598    4.8192    5.8660 C   0  0  0  0  0  0  0  0  0  0  0  0
  -26.1721    6.0063    4.5016 C   0  0  0  0  0  0  0  0  0  0  0  0
  -25.8579    4.4365   11.4109 C   0  0  0  0  0  0  0  0  0  0  0  0
  -25.6492    3.6697   12.6943 C   0  0  0  0  0  0  0  0  0  0  0  0
  -26.9702    4.4419   10.9079 O   0  0  0  0  0  0  0  0  0  0  0  0
  1  7  1  0  0  0  0
  1  9  1  0  0  0  0
  2  8  1  0  0  0  0
  2 14  1  0  0  0  0
  2 15  1  0  0  0  0
  3  4  2  0  0  0  0
  3  8  1  0  0  0  0
  4  5  1  0  0  0  0
  4 21  1  0  0  0  0
  5  6  2  0  0  0  0
  6  7  1  0  0  0  0
  7  8  2  0  0  0  0
  9 10  2  0  0  0  0
  9 14  1  0  0  0  0
 10 11  1  0  0  0  0
 11 12  2  0  0  0  0
 12 13  1  0  0  0  0
 13 14  2  0  0  0  0
 15 16  1  0  0  0  0
 16 17  1  0  0  0  0
 17 18  1  0  0  0  0
 18 19  1  0  0  0  0
 18 20  1  0  0  0  0
 21 22  1  0  0  0  0
 21 23  2  0  0  0  0
M  CHG  1  18   1
M  END
>  <CHROM.1>
-57.08748282,-170.59506239,-127.17195468,124.95839607,169.59914127,-24.41244145
6.40021060,8.10833929,-1.67595797,-0.30551352,-1.26939414

>  <Name>


>  <RI>
0

>  <Rbt.Current_Directory>
/home/itssahil/PROJECTS/Mol_Feturizer/New_Systems/rnas/1lvj

>  <Rbt.Executable>
rbdock ($Id: //depot/dev/client3/rdock/2013.1/src/exe/rbdock.cxx#4 $)

>  <Rbt.Library>
libRbt.so (2013.1, Build901 2013/11/27)

>  <Rbt.Parameter_File>
/export/apps/rDock/src/rDock_2013.1_src/data/scripts/dock_solv.prm

>  <Rbt.Receptor>
prm/pocket_docking_2.prm

>  <SCORE>
-25.7405

>  <SCORE.INTER>
-30.5999

>  <SCORE.INTER.CONST>
1

>  <SCORE.INTER.POLAR>
-1.55885

>  <SCORE.INTER.ROT>
5

>  <SCORE.INTER.SOLV>
23.1937

>  <SCORE.INTER.VDW>
-29.8684

>  <SCORE.INTER.norm>
-1.33043

>  <SCORE.INTRA>
3.01604

>  <SCORE.INTRA.DIHEDRAL>
3.76727

>  <SCORE.INTRA.DIHEDRAL.0>
8.06479

>  <SCORE.INTRA.POLAR>
0

>  <SCORE.INTRA.POLAR.0>
0

>  <SCORE.INTRA.REPUL>
0

>  <SCORE.INTRA.REPUL.0>
0

>  <SCORE.INTRA.SOLV>
-0.426142

>  <SCORE.INTRA.SOLV.lig_0>
-29.8054

>  <SCORE.INTRA.VDW>
1.34548

>  <SCORE.INTRA.VDW.0>
2.61447

>  <SCORE.INTRA.norm>
0.131132

>  <SCORE.RESTR>
1.84341

>  <SCORE.RESTR.CAVITY>
1.84341

>  <SCORE.RESTR.norm>
0.0801481

>  <SCORE.SYSTEM>
0

>  <SCORE.SYSTEM.CONST>
0

>  <SCORE.SYSTEM.DIHEDRAL>
0

>  <SCORE.SYSTEM.SOLV>
0

>  <SCORE.SYSTEM.norm>
0

>  <SCORE.heavy>
23

>  <SCORE.norm>
-1.11915

>  <RMSD>
2.301

$$$$

 OpenBabel11021811403D
libRbt.so/2013.1/901 2013/11/27
 23 25  0  0  0  0  0  0  0  0999 V2000
  -21.4291    7.5558    9.0086 S   0  0  0  0  0  0  0  0  0  0  0  0
  -24.1793    7.8769    7.9120 N   0  0  0  0  0  0  0  0  0  0  0  0
  -25.2799    6.3636    9.4327 C   0  0  0  0  0  0  0  0  0  0  0  0
  -25.1938    5.4825   10.5187 C   0  0  0  0  0  0  0  0  0  0  0  0
  -23.9685    5.2476   11.1351 C   0  0  0  0  0  0  0  0  0  0  0  0
  -22.8241    5.8856   10.6692 C   0  0  0  0  0  0  0  0  0  0  0  0
  -22.8974    6.7614    9.5890 C   0  0  0  0  0  0  0  0  0  0  0  0
  -24.1258    7.0067    8.9637 C   0  0  0  0  0  0  0  0  0  0  0  0
  -21.9208    7.3571    7.3252 C   0  0  0  0  0  0  0  0  0  0  0  0
  -20.9745    7.0172    6.3541 C   0  0  0  0  0  0  0  0  0  0  0  0
  -21.3672    6.8658    5.0211 C   0  0  0  0  0  0  0  0  0  0  0  0
  -22.7054    7.0590    4.6630 C   0  0  0  0  0  0  0  0  0  0  0  0
  -23.6447    7.3989    5.6373 C   0  0  0  0  0  0  0  0  0  0  0  0
  -23.2594    7.5458    6.9627 C   0  0  0  0  0  0  0  0  0  0  0  0
  -25.4771    8.4613    7.4921 C   0  0  0  0  0  0  0  0  0  0  0  0
  -26.1857    7.8120    6.2567 C   0  0  0  0  0  0  0  0  0  0  0  0
  -26.5510    6.3030    6.4685 C   0  0  0  0  0  0  0  0  0  0  0  0
  -27.7419    5.7752    5.7551 N   0  3  0  0  0  0  0  0  0  0  0  0
  -27.3537    4.9979    4.5498 C   0  0  0  0  0  0  0  0  0  0  0  0
  -28.6922    6.8900    5.4144 C   0  0  0  0  0  0  0  0  0  0  0  0
  -26.4220    4.7809   11.0245 C   0  0  0  0  0  0  0  0  0  0  0  0
  -26.5435    4.3147   12.4551 C   0  0  0  0  0  0  0  0  0  0  0  0
  -27.3771    4.6330   10.2788 O   0  0  0  0  0  0  0  0  0  0  0  0
  1  7  1  0  0  0  0
  1  9  1  0  0  0  0
  2  8  1  0  0  0  0
  2 14  1  0  0  0  0
  2 15  1  0  0  0  0
  3  4  2  0  0  0  0
  3  8  1  0  0  0  0
  4  5  1  0  0  0  0
  4 21  1  0  0  0  0
  5  6  2  0  0  0  0
  6  7  1  0  0  0  0
  7  8  2  0  0  0  0
  9 10  2  0  0  0  0
  9 14  1  0  0  0  0
 10 11  1  0  0  0  0
 11 12  2  0  0  0  0
 12 13  1  0  0  0  0
 13 14  2  0  0  0  0
 15 16  1  0  0  0  0
 16 17  1  0  0  0  0
 17 18  1  0  0  0  0
 18 19  1  0  0  0  0
 18 20  1  0  0  0  0
 21 22  1  0  0  0  0
 21 23  2  0  0  0  0
M  CHG  1  18   1
M  END
>  <CHROM.1>
-99.86432338,-153.71310280,61.04187244,150.15062830,-138.60071336,-24.55221575
6.52734075,7.98208372,-0.68963854,0.27124407,1.83220833

>  <Name>


>  <RI>
0

>  <Rbt.Current_Directory>
/home/itssahil/PROJECTS/Mol_Feturizer/New_Systems/rnas/1lvj

>  <Rbt.Executable>
rbdock ($Id: //depot/dev/client3/rdock/2013.1/src/exe/rbdock.cxx#4 $)

>  <Rbt.Library>
libRbt.so (2013.1, Build901 2013/11/27)

>  <Rbt.Parameter_File>
/export/apps/rDock/src/rDock_2013.1_src/data/scripts/dock_solv.prm

>  <Rbt.Receptor>
prm/pocket_docking_2.prm

>  <SCORE>
0.705145

>  <SCORE.INTER>
-6.22301

>  <SCORE.INTER.CONST>
1

>  <SCORE.INTER.POLAR>
-0.530684

>  <SCORE.INTER.ROT>
5

>  <SCORE.INTER.SOLV>
22.7105

>  <SCORE.INTER.VDW>
-16.8832

>  <SCORE.INTER.norm>
-0.270566

>  <SCORE.INTRA>
5.24609

>  <SCORE.INTRA.DIHEDRAL>
0.71664

>  <SCORE.INTRA.DIHEDRAL.0>
8.06479

>  <SCORE.INTRA.POLAR>
0

>  <SCORE.INTRA.POLAR.0>
0

>  <SCORE.INTRA.REPUL>
0

>  <SCORE.INTRA.REPUL.0>
0

>  <SCORE.INTRA.SOLV>
-0.286096

>  <SCORE.INTRA.SOLV.lig_0>
-29.8054

>  <SCORE.INTRA.VDW>
5.03082

>  <SCORE.INTRA.VDW.0>
2.61447

>  <SCORE.INTRA.norm>
0.228091

>  <SCORE.RESTR>
1.68207

>  <SCORE.RESTR.CAVITY>
1.68207

>  <SCORE.RESTR.norm>
0.0731334

>  <SCORE.SYSTEM>
0

>  <SCORE.SYSTEM.CONST>
0

>  <SCORE.SYSTEM.DIHEDRAL>
0

>  <SCORE.SYSTEM.SOLV>
0

>  <SCORE.SYSTEM.norm>
0

>  <SCORE.heavy>
23

>  <SCORE.norm>
0.0306585

>  <RMSD>
2.390

$$$$

 OpenBabel11021811403D
libRbt.so/2013.1/901 2013/11/27
 23 25  0  0  0  0  0  0  0  0999 V2000
  -21.5283    7.5204    9.1386 S   0  0  0  0  0  0  0  0  0  0  0  0
  -24.3121    7.8357    8.1283 N   0  0  0  0  0  0  0  0  0  0  0  0
  -25.3462    6.2456    9.6169 C   0  0  0  0  0  0  0  0  0  0  0  0
  -25.2164    5.3247   10.6649 C   0  0  0  0  0  0  0  0  0  0  0  0
  -23.9712    5.0875   11.2391 C   0  0  0  0  0  0  0  0  0  0  0  0
  -22.8504    5.7630   10.7686 C   0  0  0  0  0  0  0  0  0  0  0  0
  -22.9672    6.6786    9.7259 C   0  0  0  0  0  0  0  0  0  0  0  0
  -24.2159    6.9265    9.1432 C   0  0  0  0  0  0  0  0  0  0  0  0
  -22.0620    7.3785    7.4623 C   0  0  0  0  0  0  0  0  0  0  0  0
  -21.1368    7.0931    6.4539 C   0  0  0  0  0  0  0  0  0  0  0  0
  -21.5628    6.9866    5.1269 C   0  0  0  0  0  0  0  0  0  0  0  0
  -22.9132    7.1701    4.8120 C   0  0  0  0  0  0  0  0  0  0  0  0
  -23.8313    7.4555    5.8233 C   0  0  0  0  0  0  0  0  0  0  0  0
  -23.4128    7.5577    7.1428 C   0  0  0  0  0  0  0  0  0  0  0  0
  -25.6301    8.4131    7.7659 C   0  0  0  0  0  0  0  0  0  0  0  0
  -26.2698    7.9409    6.4176 C   0  0  0  0  0  0  0  0  0  0  0  0
  -27.0054    6.5615    6.5251 C   0  0  0  0  0  0  0  0  0  0  0  0
  -27.3757    5.8772    5.2600 N   0  3  0  0  0  0  0  0  0  0  0  0
  -28.0585    4.5837    5.5211 C   0  0  0  0  0  0  0  0  0  0  0  0
  -26.1684    5.7000    4.3808 C   0  0  0  0  0  0  0  0  0  0  0  0
  -26.4187    4.5826   11.1750 C   0  0  0  0  0  0  0  0  0  0  0  0
  -26.4586    3.9817   12.5592 C   0  0  0  0  0  0  0  0  0  0  0  0
  -27.4183    4.5109   10.4780 O   0  0  0  0  0  0  0  0  0  0  0  0
  1  7  1  0  0  0  0
  1  9  1  0  0  0  0
  2  8  1  0  0  0  0
  2 14  1  0  0  0  0
  2 15  1  0  0  0  0
  3  4  2  0  0  0  0
  3  8  1  0  0  0  0
  4  5  1  0  0  0  0
  4 21  1  0  0  0  0
  5  6  2  0  0  0  0
  6  7  1  0  0  0  0
  7  8  2  0  0  0  0
  9 10  2  0  0  0  0
  9 14  1  0  0  0  0
 10 11  1  0  0  0  0
 11 12  2  0  0  0  0
 12 13  1  0  0  0  0
 13 14  2  0  0  0  0
 15 16  1  0  0  0  0
 16 17  1  0  0  0  0
 17 18  1  0  0  0  0
 18 19  1  0  0  0  0
 18 20  1  0  0  0  0
 21 22  1  0  0  0  0
 21 23  2  0  0  0  0
M  CHG  1  18   1
M  END
>  <CHROM.1>
-108.07390517,-157.75205503,81.26888379,-166.41696562,-60.26103730,-24.54643242
6.43082304,8.08155252,-1.18016896,0.35633321,1.82537736

>  <Name>


>  <RI>
0

>  <Rbt.Current_Directory>
/home/itssahil/PROJECTS/Mol_Feturizer/New_Systems/rnas/1lvj

>  <Rbt.Executable>
rbdock ($Id: //depot/dev/client3/rdock/2013.1/src/exe/rbdock.cxx#4 $)

>  <Rbt.Library>
libRbt.so (2013.1, Build901 2013/11/27)

>  <Rbt.Parameter_File>
/export/apps/rDock/src/rDock_2013.1_src/data/scripts/dock_solv.prm

>  <Rbt.Receptor>
prm/pocket_docking_2.prm

>  <SCORE>
-23.3323

>  <SCORE.INTER>
-28.693

>  <SCORE.INTER.CONST>
1

>  <SCORE.INTER.POLAR>
-1.47676

>  <SCORE.INTER.ROT>
5

>  <SCORE.INTER.SOLV>
21.7763

>  <SCORE.INTER.VDW>
-28.3982

>  <SCORE.INTER.norm>
-1.24752

>  <SCORE.INTRA>
3.53684

>  <SCORE.INTRA.DIHEDRAL>
-2.69214

>  <SCORE.INTRA.DIHEDRAL.0>
8.06479

>  <SCORE.INTRA.POLAR>
0

>  <SCORE.INTRA.POLAR.0>
0

>  <SCORE.INTRA.REPUL>
0

>  <SCORE.INTRA.REPUL.0>
0

>  <SCORE.INTRA.SOLV>
0.37466

>  <SCORE.INTRA.SOLV.lig_0>
-29.8054

>  <SCORE.INTRA.VDW>
4.69558

>  <SCORE.INTRA.VDW.0>
2.61447

>  <SCORE.INTRA.norm>
0.153776

>  <SCORE.RESTR>
1.82385

>  <SCORE.RESTR.CAVITY>
1.82385

>  <SCORE.RESTR.norm>
0.079298

>  <SCORE.SYSTEM>
0

>  <SCORE.SYSTEM.CONST>
0

>  <SCORE.SYSTEM.DIHEDRAL>
0

>  <SCORE.SYSTEM.SOLV>
0

>  <SCORE.SYSTEM.norm>
0

>  <SCORE.heavy>
23

>  <SCORE.norm>
-1.01445

>  <RMSD>
2.455

$$$$

 OpenBabel11021811403D
libRbt.so/2013.1/901 2013/11/27
 23 25  0  0  0  0  0  0  0  0999 V2000
  -22.2044    8.4277    5.8593 S   0  0  0  0  0  0  0  0  0  0  0  0
  -24.7875    7.9676    7.2683 N   0  0  0  0  0  0  0  0  0  0  0  0
  -23.8511    7.2179    9.3600 C   0  0  0  0  0  0  0  0  0  0  0  0
  -22.7170    6.9377   10.1336 C   0  0  0  0  0  0  0  0  0  0  0  0
  -21.4438    7.1193    9.6021 C   0  0  0  0  0  0  0  0  0  0  0  0
  -21.2957    7.5761    8.2970 C   0  0  0  0  0  0  0  0  0  0  0  0
  -22.4158    7.8553    7.5181 C   0  0  0  0  0  0  0  0  0  0  0  0
  -23.7010    7.6786    8.0444 C   0  0  0  0  0  0  0  0  0  0  0  0
  -23.5536    7.4431    5.2891 C   0  0  0  0  0  0  0  0  0  0  0  0
  -23.4704    6.7858    4.0581 C   0  0  0  0  0  0  0  0  0  0  0  0
  -24.5431    6.0110    3.6078 C   0  0  0  0  0  0  0  0  0  0  0  0
  -25.6981    5.8996    4.3889 C   0  0  0  0  0  0  0  0  0  0  0  0
  -25.7747    6.5589    5.6162 C   0  0  0  0  0  0  0  0  0  0  0  0
  -24.7098    7.3256    6.0688 C   0  0  0  0  0  0  0  0  0  0  0  0
  -26.1166    8.1784    7.8937 C   0  0  0  0  0  0  0  0  0  0  0  0
  -26.7108    6.9922    8.7242 C   0  0  0  0  0  0  0  0  0  0  0  0
  -25.6919    6.3679    9.7379 C   0  0  0  0  0  0  0  0  0  0  0  0
  -26.2369    5.7719   10.9843 N   0  3  0  0  0  0  0  0  0  0  0  0
  -27.1026    4.5999   10.6934 C   0  0  0  0  0  0  0  0  0  0  0  0
  -26.9625    6.8105   11.7947 C   0  0  0  0  0  0  0  0  0  0  0  0
  -22.8652    6.4351   11.5414 C   0  0  0  0  0  0  0  0  0  0  0  0
  -23.5921    7.2283   12.6003 C   0  0  0  0  0  0  0  0  0  0  0  0
  -22.4403    5.3277   11.8299 O   0  0  0  0  0  0  0  0  0  0  0  0
  1  7  1  0  0  0  0
  1  9  1  0  0  0  0
  2  8  1  0  0  0  0
  2 14  1  0  0  0  0
  2 15  1  0  0  0  0
  3  4  2  0  0  0  0
  3  8  1  0  0  0  0
  4  5  1  0  0  0  0
  4 21  1  0  0  0  0
  5  6  2  0  0  0  0
  6  7  1  0  0  0  0
  7  8  2  0  0  0  0
  9 10  2  0  0  0  0
  9 14  1  0  0  0  0
 10 11  1  0  0  0  0
 11 12  2  0  0  0  0
 12 13  1  0  0  0  0
 13 14  2  0  0  0  0
 15 16  1  0  0  0  0
 16 17  1  0  0  0  0
 17 18  1  0  0  0  0
 18 19  1  0  0  0  0
 18 20  1  0  0  0  0
 21 22  1  0  0  0  0
 21 23  2  0  0  0  0
M  CHG  1  18   1
M  END
>  <CHROM.1>
-59.60390970,-59.25962698,47.83463646,150.03407208,-176.01854099,-24.19634477
6.94550161,8.27664308,-1.42340716,0.26700121,1.68603687

>  <Name>


>  <RI>
0

>  <Rbt.Current_Directory>
/home/itssahil/PROJECTS/Mol_Feturizer/New_Systems/rnas/1lvj

>  <Rbt.Executable>
rbdock ($Id: //depot/dev/client3/rdock/2013.1/src/exe/rbdock.cxx#4 $)

>  <Rbt.Library>
libRbt.so (2013.1, Build901 2013/11/27)

>  <Rbt.Parameter_File>
/export/apps/rDock/src/rDock_2013.1_src/data/scripts/dock_solv.prm

>  <Rbt.Receptor>
prm/pocket_docking_2.prm

>  <SCORE>
-5.72908

>  <SCORE.INTER>
-24.4232

>  <SCORE.INTER.CONST>
1

>  <SCORE.INTER.POLAR>
0

>  <SCORE.INTER.ROT>
5

>  <SCORE.INTER.SOLV>
12.8781

>  <SCORE.INTER.VDW>
-27.5082

>  <SCORE.INTER.norm>
-1.06188

>  <SCORE.INTRA>
18.1129

>  <SCORE.INTRA.DIHEDRAL>
5.40666

>  <SCORE.INTRA.DIHEDRAL.0>
8.06479

>  <SCORE.INTRA.POLAR>
0

>  <SCORE.INTRA.POLAR.0>
0

>  <SCORE.INTRA.REPUL>
0

>  <SCORE.INTRA.REPUL.0>
0

>  <SCORE.INTRA.SOLV>
5.57492

>  <SCORE.INTRA.SOLV.lig_0>
-29.8054

>  <SCORE.INTRA.VDW>
12.6221

>  <SCORE.INTRA.VDW.0>
2.61447

>  <SCORE.INTRA.norm>
0.787518

>  <SCORE.RESTR>
0.581255

>  <SCORE.RESTR.CAVITY>
0.581255

>  <SCORE.RESTR.norm>
0.0252719

>  <SCORE.SYSTEM>
0

>  <SCORE.SYSTEM.CONST>
0

>  <SCORE.SYSTEM.DIHEDRAL>
0

>  <SCORE.SYSTEM.SOLV>
0

>  <SCORE.SYSTEM.norm>
0

>  <SCORE.heavy>
23

>  <SCORE.norm>
-0.249091

>  <RMSD>
2.661

$$$$

 OpenBabel11021811403D
libRbt.so/2013.1/901 2013/11/27
 23 25  0  0  0  0  0  0  0  0999 V2000
  -22.3113    8.4809    5.9113 S   0  0  0  0  0  0  0  0  0  0  0  0
  -24.8039    8.0010    7.4689 N   0  0  0  0  0  0  0  0  0  0  0  0
  -23.7405    7.2771    9.5083 C   0  0  0  0  0  0  0  0  0  0  0  0
  -22.5607    7.0156   10.2174 C   0  0  0  0  0  0  0  0  0  0  0  0
  -21.3223    7.2081    9.6127 C   0  0  0  0  0  0  0  0  0  0  0  0
  -21.2546    7.6572    8.2984 C   0  0  0  0  0  0  0  0  0  0  0  0
  -22.4206    7.9179    7.5831 C   0  0  0  0  0  0  0  0  0  0  0  0
  -23.6715    7.7301    8.1833 C   0  0  0  0  0  0  0  0  0  0  0  0
  -23.6791    7.4767    5.4256 C   0  0  0  0  0  0  0  0  0  0  0  0
  -23.6586    6.8117    4.1962 C   0  0  0  0  0  0  0  0  0  0  0  0
  -24.7460    6.0214    3.8131 C   0  0  0  0  0  0  0  0  0  0  0  0
  -25.8529    5.9021    4.6597 C   0  0  0  0  0  0  0  0  0  0  0  0
  -25.8672    6.5693    5.8851 C   0  0  0  0  0  0  0  0  0  0  0  0
  -24.7873    7.3515    6.2710 C   0  0  0  0  0  0  0  0  0  0  0  0
  -26.0975    8.2009    8.1680 C   0  0  0  0  0  0  0  0  0  0  0  0
  -26.7867    6.9313    8.7706 C   0  0  0  0  0  0  0  0  0  0  0  0
  -26.3120    6.5947   10.2255 C   0  0  0  0  0  0  0  0  0  0  0  0
  -26.3198    5.1688   10.6407 N   0  3  0  0  0  0  0  0  0  0  0  0
  -27.4214    4.8868   11.5969 C   0  0  0  0  0  0  0  0  0  0  0  0
  -24.9820    4.7736   11.2029 C   0  0  0  0  0  0  0  0  0  0  0  0
  -22.6222    6.5214   11.6346 C   0  0  0  0  0  0  0  0  0  0  0  0
  -23.4399    7.2244   12.6909 C   0  0  0  0  0  0  0  0  0  0  0  0
  -22.0449    5.4884   11.9342 O   0  0  0  0  0  0  0  0  0  0  0  0
  1  7  1  0  0  0  0
  1  9  1  0  0  0  0
  2  8  1  0  0  0  0
  2 14  1  0  0  0  0
  2 15  1  0  0  0  0
  3  4  2  0  0  0  0
  3  8  1  0  0  0  0
  4  5  1  0  0  0  0
  4 21  1  0  0  0  0
  5  6  2  0  0  0  0
  6  7  1  0  0  0  0
  7  8  2  0  0  0  0
  9 10  2  0  0  0  0
  9 14  1  0  0  0  0
 10 11  1  0  0  0  0
 11 12  2  0  0  0  0
 12 13  1  0  0  0  0
 13 14  2  0  0  0  0
 15 16  1  0  0  0  0
 16 17  1  0  0  0  0
 17 18  1  0  0  0  0
 18 19  1  0  0  0  0
 18 20  1  0  0  0  0
 21 22  1  0  0  0  0
 21 23  2  0  0  0  0
M  CHG  1  18   1
M  END
>  <CHROM.1>
-72.87262036,-51.52742072,87.38743782,-150.02976721,12.76278004,-24.14685287
6.88247526,8.39630888,-1.49426035,0.32751115,1.75660382

>  <Name>


>  <RI>
0

>  <Rbt.Current_Directory>
/home/itssahil/PROJECTS/Mol_Feturizer/New_Systems/rnas/1lvj

>  <Rbt.Executable>
rbdock ($Id: //depot/dev/client3/rdock/2013.1/src/exe/rbdock.cxx#4 $)

>  <Rbt.Library>
libRbt.so (2013.1, Build901 2013/11/27)

>  <Rbt.Parameter_File>
/export/apps/rDock/src/rDock_2013.1_src/data/scripts/dock_solv.prm

>  <Rbt.Receptor>
prm/pocket_docking_2.prm

>  <SCORE>
-21.2663

>  <SCORE.INTER>
-27.0225

>  <SCORE.INTER.CONST>
1

>  <SCORE.INTER.POLAR>
-1.5

>  <SCORE.INTER.ROT>
5

>  <SCORE.INTER.SOLV>
18.93

>  <SCORE.INTER.VDW>
-26.2583

>  <SCORE.INTER.norm>
-1.17489

>  <SCORE.INTRA>
4.71586

>  <SCORE.INTRA.DIHEDRAL>
8.76096

>  <SCORE.INTRA.DIHEDRAL.0>
8.06479

>  <SCORE.INTRA.POLAR>
0

>  <SCORE.INTRA.POLAR.0>
0

>  <SCORE.INTRA.REPUL>
0

>  <SCORE.INTRA.REPUL.0>
0

>  <SCORE.INTRA.SOLV>
1.7638

>  <SCORE.INTRA.SOLV.lig_0>
-29.8054

>  <SCORE.INTRA.VDW>
-0.546525

>  <SCORE.INTRA.VDW.0>
2.61447

>  <SCORE.INTRA.norm>
0.205037

>  <SCORE.RESTR>
1.04028

>  <SCORE.RESTR.CAVITY>
1.04028

>  <SCORE.RESTR.norm>
0.0452296

>  <SCORE.SYSTEM>
0

>  <SCORE.SYSTEM.CONST>
0

>  <SCORE.SYSTEM.DIHEDRAL>
0

>  <SCORE.SYSTEM.SOLV>
0

>  <SCORE.SYSTEM.norm>
0

>  <SCORE.heavy>
23

>  <SCORE.norm>
-0.924622

>  <RMSD>
2.740

$$$$

 OpenBabel11021811403D
libRbt.so/2013.1/901 2013/11/27
 23 25  0  0  0  0  0  0  0  0999 V2000
  -22.2315    8.4526    5.8816 S   0  0  0  0  0  0  0  0  0  0  0  0
  -24.7910    7.9311    7.3122 N   0  0  0  0  0  0  0  0  0  0  0  0
  -23.8193    7.1641    9.3814 C   0  0  0  0  0  0  0  0  0  0  0  0
  -22.6723    6.8897   10.1378 C   0  0  0  0  0  0  0  0  0  0  0  0
  -21.4082    7.0990    9.5949 C   0  0  0  0  0  0  0  0  0  0  0  0
  -21.2821    7.5779    8.2955 C   0  0  0  0  0  0  0  0  0  0  0  0
  -22.4151    7.8517    7.5336 C   0  0  0  0  0  0  0  0  0  0  0  0
  -23.6914    7.6471    8.0714 C   0  0  0  0  0  0  0  0  0  0  0  0
  -23.5720    7.4561    5.3113 C   0  0  0  0  0  0  0  0  0  0  0  0
  -23.4929    6.8190    4.0695 C   0  0  0  0  0  0  0  0  0  0  0  0
  -24.5588    6.0347    3.6194 C   0  0  0  0  0  0  0  0  0  0  0  0
  -25.7028    5.8935    4.4115 C   0  0  0  0  0  0  0  0  0  0  0  0
  -25.7755    6.5328    5.6497 C   0  0  0  0  0  0  0  0  0  0  0  0
  -24.7173    7.3088    6.1021 C   0  0  0  0  0  0  0  0  0  0  0  0
  -26.1159    8.1118    7.9556 C   0  0  0  0  0  0  0  0  0  0  0  0
  -26.6813    6.9048    8.7762 C   0  0  0  0  0  0  0  0  0  0  0  0
  -26.3345    6.9709   10.3029 C   0  0  0  0  0  0  0  0  0  0  0  0
  -26.9800    5.9789   11.2001 N   0  3  0  0  0  0  0  0  0  0  0  0
  -26.8623    6.3781   12.6264 C   0  0  0  0  0  0  0  0  0  0  0  0
  -26.4191    4.6042   10.9604 C   0  0  0  0  0  0  0  0  0  0  0  0
  -22.7967    6.3634   11.5392 C   0  0  0  0  0  0  0  0  0  0  0  0
  -23.2424    4.9498   11.8251 C   0  0  0  0  0  0  0  0  0  0  0  0
  -22.4725    7.0746   12.4770 O   0  0  0  0  0  0  0  0  0  0  0  0
  1  7  1  0  0  0  0
  1  9  1  0  0  0  0
  2  8  1  0  0  0  0
  2 14  1  0  0  0  0
  2 15  1  0  0  0  0
  3  4  2  0  0  0  0
  3  8  1  0  0  0  0
  4  5  1  0  0  0  0
  4 21  1  0  0  0  0
  5  6  2  0  0  0  0
  6  7  1  0  0  0  0
  7  8  2  0  0  0  0
  9 10  2  0  0  0  0
  9 14  1  0  0  0  0
 10 11  1  0  0  0  0
 11 12  2  0  0  0  0
 12 13  1  0  0  0  0
 13 14  2  0  0  0  0
 15 16  1  0  0  0  0
 16 17  1  0  0  0  0
 17 18  1  0  0  0  0
 18 19  1  0  0  0  0
 18 20  1  0  0  0  0
 21 22  1  0  0  0  0
 21 23  2  0  0  0  0
M  CHG  1  18   1
M  END
>  <CHROM.1>
-59.50795291,72.27739487,93.39381263,171.68332930,-44.51600313,-24.20928665
6.92917375,8.37095117,-1.39766436,0.25334917,1.69647723

>  <Name>


>  <RI>
0

>  <Rbt.Current_Directory>
/home/itssahil/PROJECTS/Mol_Feturizer/New_Systems/rnas/1lvj

>  <Rbt.Executable>
rbdock ($Id: //depot/dev/client3/rdock/2013.1/src/exe/rbdock.cxx#4 $)

>  <Rbt.Library>
libRbt.so (2013.1, Build901 2013/11/27)

>  <Rbt.Parameter_File>
/export/apps/rDock/src/rDock_2013.1_src/data/scripts/dock_solv.prm

>  <Rbt.Receptor>
prm/pocket_docking_2.prm

>  <SCORE>
-22.4757

>  <SCORE.INTER>
-27.8888

>  <SCORE.INTER.CONST>
1

>  <SCORE.INTER.POLAR>
-1.05359

>  <SCORE.INTER.ROT>
5

>  <SCORE.INTER.SOLV>
17.5276

>  <SCORE.INTER.VDW>
-27.8564

>  <SCORE.INTER.norm>
-1.21256

>  <SCORE.INTRA>
4.18605

>  <SCORE.INTRA.DIHEDRAL>
7.69317

>  <SCORE.INTRA.DIHEDRAL.0>
8.06479

>  <SCORE.INTRA.POLAR>
0

>  <SCORE.INTRA.POLAR.0>
0

>  <SCORE.INTRA.REPUL>
0

>  <SCORE.INTRA.REPUL.0>
0

>  <SCORE.INTRA.SOLV>
0.823551

>  <SCORE.INTRA.SOLV.lig_0>
-29.8054

>  <SCORE.INTRA.VDW>
-0.0723091

>  <SCORE.INTRA.VDW.0>
2.61447

>  <SCORE.INTRA.norm>
0.182002

>  <SCORE.RESTR>
1.22707

>  <SCORE.RESTR.CAVITY>
1.22707

>  <SCORE.RESTR.norm>
0.053351

>  <SCORE.SYSTEM>
0

>  <SCORE.SYSTEM.CONST>
0

>  <SCORE.SYSTEM.DIHEDRAL>
0

>  <SCORE.SYSTEM.SOLV>
0

>  <SCORE.SYSTEM.norm>
0

>  <SCORE.heavy>
23

>  <SCORE.norm>
-0.977202

>  <RMSD>
2.777

$$$$

 OpenBabel11021811403D
libRbt.so/2013.1/901 2013/11/27
 23 25  0  0  0  0  0  0  0  0999 V2000
  -22.3219    8.4975    5.9053 S   0  0  0  0  0  0  0  0  0  0  0  0
  -24.8066    8.0186    7.4758 N   0  0  0  0  0  0  0  0  0  0  0  0
  -23.7326    7.3057    9.5136 C   0  0  0  0  0  0  0  0  0  0  0  0
  -22.5492    7.0497   10.2186 C   0  0  0  0  0  0  0  0  0  0  0  0
  -21.3138    7.2424    9.6076 C   0  0  0  0  0  0  0  0  0  0  0  0
  -21.2529    7.6862    8.2911 C   0  0  0  0  0  0  0  0  0  0  0  0
  -22.4226    7.9413    7.5799 C   0  0  0  0  0  0  0  0  0  0  0  0
  -23.6704    7.7533    8.1864 C   0  0  0  0  0  0  0  0  0  0  0  0
  -23.6895    7.4882    5.4298 C   0  0  0  0  0  0  0  0  0  0  0  0
  -23.6730    6.8180    4.2032 C   0  0  0  0  0  0  0  0  0  0  0  0
  -24.7603    6.0237    3.8282 C   0  0  0  0  0  0  0  0  0  0  0  0
  -25.8632    5.9056    4.6802 C   0  0  0  0  0  0  0  0  0  0  0  0
  -25.8736    6.5779    5.9028 C   0  0  0  0  0  0  0  0  0  0  0  0
  -24.7938    7.3641    6.2806 C   0  0  0  0  0  0  0  0  0  0  0  0
  -26.0975    8.2186    8.1798 C   0  0  0  0  0  0  0  0  0  0  0  0
  -26.7822    6.9498    8.7890 C   0  0  0  0  0  0  0  0  0  0  0  0
  -26.2646    6.5892   10.2234 C   0  0  0  0  0  0  0  0  0  0  0  0
  -26.2991    5.1612   10.6300 N   0  3  0  0  0  0  0  0  0  0  0  0
  -27.4033    4.8951   11.5878 C   0  0  0  0  0  0  0  0  0  0  0  0
  -24.9677    4.7366   11.1860 C   0  0  0  0  0  0  0  0  0  0  0  0
  -22.6033    6.5614   11.6381 C   0  0  0  0  0  0  0  0  0  0  0  0
  -21.5249    5.6809   12.2216 C   0  0  0  0  0  0  0  0  0  0  0  0
  -23.5115    6.9319   12.3647 O   0  0  0  0  0  0  0  0  0  0  0  0
  1  7  1  0  0  0  0
  1  9  1  0  0  0  0
  2  8  1  0  0  0  0
  2 14  1  0  0  0  0
  2 15  1  0  0  0  0
  3  4  2  0  0  0  0
  3  8  1  0  0  0  0
  4  5  1  0  0  0  0
  4 21  1  0  0  0  0
  5  6  2  0  0  0  0
  6  7  1  0  0  0  0
  7  8  2  0  0  0  0
  9 10  2  0  0  0  0
  9 14  1  0  0  0  0
 10 11  1  0  0  0  0
 11 12  2  0  0  0  0
 12 13  1  0  0  0  0
 13 14  2  0  0  0  0
 15 16  1  0  0  0  0
 16 17  1  0  0  0  0
 17 18  1  0  0  0  0
 18 19  1  0  0  0  0
 18 20  1  0  0  0  0
 21 22  1  0  0  0  0
 21 23  2  0  0  0  0
M  CHG  1  18   1
M  END
>  <CHROM.1>
-72.95592214,150.47412403,85.37840720,-151.10236526,14.78646262,-24.12774410
6.89396569,8.39780814,-1.51976614,0.31990750,1.76770659

>  <Name>


>  <RI>
0

>  <Rbt.Current_Directory>
/home/itssahil/PROJECTS/Mol_Feturizer/New_Systems/rnas/1lvj

>  <Rbt.Executable>
rbdock ($Id: //depot/dev/client3/rdock/2013.1/src/exe/rbdock.cxx#4 $)

>  <Rbt.Library>
libRbt.so (2013.1, Build901 2013/11/27)

>  <Rbt.Parameter_File>
/export/apps/rDock/src/rDock_2013.1_src/data/scripts/dock_solv.prm

>  <Rbt.Receptor>
prm/pocket_docking_2.prm

>  <SCORE>
-22.8539

>  <SCORE.INTER>
-26.8905

>  <SCORE.INTER.CONST>
1

>  <SCORE.INTER.POLAR>
-1.49719

>  <SCORE.INTER.ROT>
5

>  <SCORE.INTER.SOLV>
18.9011

>  <SCORE.INTER.VDW>
-26.1701

>  <SCORE.INTER.norm>
-1.16915

>  <SCORE.INTRA>
2.73937

>  <SCORE.INTRA.DIHEDRAL>
3.44599

>  <SCORE.INTRA.DIHEDRAL.0>
8.06479

>  <SCORE.INTRA.POLAR>
0

>  <SCORE.INTRA.POLAR.0>
0

>  <SCORE.INTRA.REPUL>
0

>  <SCORE.INTRA.REPUL.0>
0

>  <SCORE.INTRA.SOLV>
1.97115

>  <SCORE.INTRA.SOLV.lig_0>
-29.8054

>  <SCORE.INTRA.VDW>
0.0308033

>  <SCORE.INTRA.VDW.0>
2.61447

>  <SCORE.INTRA.norm>
0.119103

>  <SCORE.RESTR>
1.29726

>  <SCORE.RESTR.CAVITY>
1.29726

>  <SCORE.RESTR.norm>
0.0564028

>  <SCORE.SYSTEM>
0

>  <SCORE.SYSTEM.CONST>
0

>  <SCORE.SYSTEM.DIHEDRAL>
0

>  <SCORE.SYSTEM.SOLV>
0

>  <SCORE.SYSTEM.norm>
0

>  <SCORE.heavy>
23

>  <SCORE.norm>
-0.993646

>  <RMSD>
2.787

$$$$

 OpenBabel11021811403D
libRbt.so/2013.1/901 2013/11/27
 23 25  0  0  0  0  0  0  0  0999 V2000
  -22.1701    8.3959    5.9973 S   0  0  0  0  0  0  0  0  0  0  0  0
  -24.7428    8.1040    7.4689 N   0  0  0  0  0  0  0  0  0  0  0  0
  -23.8043    7.3230    9.5481 C   0  0  0  0  0  0  0  0  0  0  0  0
  -22.6712    6.9848   10.2996 C   0  0  0  0  0  0  0  0  0  0  0  0
  -21.4020    7.0854    9.7378 C   0  0  0  0  0  0  0  0  0  0  0  0
  -21.2573    7.5185    8.4243 C   0  0  0  0  0  0  0  0  0  0  0  0
  -22.3767    7.8549    7.6672 C   0  0  0  0  0  0  0  0  0  0  0  0
  -23.6577    7.7598    8.2240 C   0  0  0  0  0  0  0  0  0  0  0  0
  -23.5875    7.4864    5.4692 C   0  0  0  0  0  0  0  0  0  0  0  0
  -23.5712    6.8121    4.2447 C   0  0  0  0  0  0  0  0  0  0  0  0
  -24.6976    6.0970    3.8278 C   0  0  0  0  0  0  0  0  0  0  0  0
  -25.8389    6.0623    4.6357 C   0  0  0  0  0  0  0  0  0  0  0  0
  -25.8486    6.7382    5.8563 C   0  0  0  0  0  0  0  0  0  0  0  0
  -24.7304    7.4457    6.2758 C   0  0  0  0  0  0  0  0  0  0  0  0
  -26.0426    8.3994    8.1211 C   0  0  0  0  0  0  0  0  0  0  0  0
  -26.6655    7.2743    9.0132 C   0  0  0  0  0  0  0  0  0  0  0  0
  -26.4385    7.4970   10.5476 C   0  0  0  0  0  0  0  0  0  0  0  0
  -26.9626    6.4656   11.4789 N   0  3  0  0  0  0  0  0  0  0  0  0
  -26.9650    6.9516   12.8830 C   0  0  0  0  0  0  0  0  0  0  0  0
  -26.1907    5.1827   11.3369 C   0  0  0  0  0  0  0  0  0  0  0  0
  -22.8163    6.5071   11.7164 C   0  0  0  0  0  0  0  0  0  0  0  0
  -21.8275    5.5543   12.3433 C   0  0  0  0  0  0  0  0  0  0  0  0
  -23.7240    6.9441   12.4058 O   0  0  0  0  0  0  0  0  0  0  0  0
  1  7  1  0  0  0  0
  1  9  1  0  0  0  0
  2  8  1  0  0  0  0
  2 14  1  0  0  0  0
  2 15  1  0  0  0  0
  3  4  2  0  0  0  0
  3  8  1  0  0  0  0
  4  5  1  0  0  0  0
  4 21  1  0  0  0  0
  5  6  2  0  0  0  0
  6  7  1  0  0  0  0
  7  8  2  0  0  0  0
  9 10  2  0  0  0  0
  9 14  1  0  0  0  0
 10 11  1  0  0  0  0
 11 12  2  0  0  0  0
 12 13  1  0  0  0  0
 13 14  2  0  0  0  0
 15 16  1  0  0  0  0
 16 17  1  0  0  0  0
 17 18  1  0  0  0  0
 18 19  1  0  0  0  0
 18 20  1  0  0  0  0
 21 22  1  0  0  0  0
 21 23  2  0  0  0  0
M  CHG  1  18   1
M  END
>  <CHROM.1>
-57.84397707,150.54469132,100.59684153,-178.50811651,-46.58264083,-24.20557122
7.11744164,8.56368205,-1.41185154,0.10729912,1.66954847

>  <Name>


>  <RI>
0

>  <Rbt.Current_Directory>
/home/itssahil/PROJECTS/Mol_Feturizer/New_Systems/rnas/1lvj

>  <Rbt.Executable>
rbdock ($Id: //depot/dev/client3/rdock/2013.1/src/exe/rbdock.cxx#4 $)

>  <Rbt.Library>
libRbt.so (2013.1, Build901 2013/11/27)

>  <Rbt.Parameter_File>
/export/apps/rDock/src/rDock_2013.1_src/data/scripts/dock_solv.prm

>  <Rbt.Receptor>
prm/pocket_docking_3.prm

>  <SCORE>
-30.0891

>  <SCORE.INTER>
-29.5407

>  <SCORE.INTER.CONST>
1

>  <SCORE.INTER.POLAR>
-1.02901

>  <SCORE.INTER.ROT>
5

>  <SCORE.INTER.SOLV>
16.1308

>  <SCORE.INTER.VDW>
-28.5741

>  <SCORE.INTER.norm>
-1.28438

>  <SCORE.INTRA>
-0.57102

>  <SCORE.INTRA.DIHEDRAL>
0.358842

>  <SCORE.INTRA.DIHEDRAL.0>
8.06479

>  <SCORE.INTRA.POLAR>
0

>  <SCORE.INTRA.POLAR.0>
0

>  <SCORE.INTRA.REPUL>
0

>  <SCORE.INTRA.REPUL.0>
0

>  <SCORE.INTRA.SOLV>
1.2943

>  <SCORE.INTRA.SOLV.lig_0>
-29.8054

>  <SCORE.INTRA.VDW>
-1.39759

>  <SCORE.INTRA.VDW.0>
2.61447

>  <SCORE.INTRA.norm>
-0.024827

>  <SCORE.RESTR>
0.0226233

>  <SCORE.RESTR.CAVITY>
0.0226233

>  <SCORE.RESTR.norm>
0.00098362

>  <SCORE.SYSTEM>
0

>  <SCORE.SYSTEM.CONST>
0

>  <SCORE.SYSTEM.DIHEDRAL>
0

>  <SCORE.SYSTEM.SOLV>
0

>  <SCORE.SYSTEM.norm>
0

>  <SCORE.heavy>
23

>  <SCORE.norm>
-1.30822

>  <RMSD>
3.037

$$$$

 OpenBabel11021811403D
libRbt.so/2013.1/901 2013/11/27
 23 25  0  0  0  0  0  0  0  0999 V2000
  -22.8394    8.3541    6.2205 S   0  0  0  0  0  0  0  0  0  0  0  0
  -25.0608    8.1504    8.1936 N   0  0  0  0  0  0  0  0  0  0  0  0
  -23.7322    7.3801   10.0525 C   0  0  0  0  0  0  0  0  0  0  0  0
  -22.4763    7.0261   10.5629 C   0  0  0  0  0  0  0  0  0  0  0  0
  -21.3476    7.0858    9.7510 C   0  0  0  0  0  0  0  0  0  0  0  0
  -21.4665    7.4938    8.4269 C   0  0  0  0  0  0  0  0  0  0  0  0
  -22.7101    7.8456    7.9083 C   0  0  0  0  0  0  0  0  0  0  0  0
  -23.8513    7.7916    8.7175 C   0  0  0  0  0  0  0  0  0  0  0  0
  -24.3538    7.4718    6.0130 C   0  0  0  0  0  0  0  0  0  0  0  0
  -24.6034    6.7774    4.8257 C   0  0  0  0  0  0  0  0  0  0  0  0
  -25.8062    6.0841    4.6634 C   0  0  0  0  0  0  0  0  0  0  0  0
  -26.7578    6.0909    5.6885 C   0  0  0  0  0  0  0  0  0  0  0  0
  -26.5025    6.7866    6.8707 C   0  0  0  0  0  0  0  0  0  0  0  0
  -25.3074    7.4727    7.0373 C   0  0  0  0  0  0  0  0  0  0  0  0
  -26.1925    8.4887    9.0918 C   0  0  0  0  0  0  0  0  0  0  0  0
  -26.4100    7.5725   10.3420 C   0  0  0  0  0  0  0  0  0  0  0  0
  -26.3999    6.0425   10.0038 C   0  0  0  0  0  0  0  0  0  0  0  0
  -26.5081    5.0857   11.1347 N   0  3  0  0  0  0  0  0  0  0  0  0
  -25.1811    4.5298   11.5055 C   0  0  0  0  0  0  0  0  0  0  0  0
  -27.4961    3.9977   10.8150 C   0  0  0  0  0  0  0  0  0  0  0  0
  -22.3376    6.5752   11.9891 C   0  0  0  0  0  0  0  0  0  0  0  0
  -21.0837    5.9054   12.4967 C   0  0  0  0  0  0  0  0  0  0  0  0
  -23.2372    6.8075   12.7808 O   0  0  0  0  0  0  0  0  0  0  0  0
  1  7  1  0  0  0  0
  1  9  1  0  0  0  0
  2  8  1  0  0  0  0
  2 14  1  0  0  0  0
  2 15  1  0  0  0  0
  3  4  2  0  0  0  0
  3  8  1  0  0  0  0
  4  5  1  0  0  0  0
  4 21  1  0  0  0  0
  5  6  2  0  0  0  0
  6  7  1  0  0  0  0
  7  8  2  0  0  0  0
  9 10  2  0  0  0  0
  9 14  1  0  0  0  0
 10 11  1  0  0  0  0
 11 12  2  0  0  0  0
 12 13  1  0  0  0  0
 13 14  2  0  0  0  0
 15 16  1  0  0  0  0
 16 17  1  0  0  0  0
 17 18  1  0  0  0  0
 18 19  1  0  0  0  0
 18 20  1  0  0  0  0
 21 22  1  0  0  0  0
 21 23  2  0  0  0  0
M  CHG  1  18   1
M  END
>  <CHROM.1>
-42.57938546,166.45363878,-48.60557369,176.03851053,19.67370710,-24.37086715
6.86014127,8.87104538,-1.77840882,0.34773828,1.84994711

>  <Name>


>  <RI>
0

>  <Rbt.Current_Directory>
/home/itssahil/PROJECTS/Mol_Feturizer/New_Systems/rnas/1lvj

>  <Rbt.Executable>
rbdock ($Id: //depot/dev/client3/rdock/2013.1/src/exe/rbdock.cxx#4 $)

>  <Rbt.Library>
libRbt.so (2013.1, Build901 2013/11/27)

>  <Rbt.Parameter_File>
/export/apps/rDock/src/rDock_2013.1_src/data/scripts/dock_solv.prm

>  <Rbt.Receptor>
prm/pocket_docking_2.prm

>  <SCORE>
-27.1956

>  <SCORE.INTER>
-29.3881

>  <SCORE.INTER.CONST>
1

>  <SCORE.INTER.POLAR>
0

>  <SCORE.INTER.ROT>
5

>  <SCORE.INTER.SOLV>
12.8636

>  <SCORE.INTER.VDW>
-30.8132

>  <SCORE.INTER.norm>
-1.27774

>  <SCORE.INTRA>
-0.707033

>  <SCORE.INTRA.DIHEDRAL>
-2.66241

>  <SCORE.INTRA.DIHEDRAL.0>
8.06479

>  <SCORE.INTRA.POLAR>
0

>  <SCORE.INTRA.POLAR.0>
0

>  <SCORE.INTRA.REPUL>
0

>  <SCORE.INTRA.REPUL.0>
0

>  <SCORE.INTRA.SOLV>
1.35012

>  <SCORE.INTRA.SOLV.lig_0>
-29.8054

>  <SCORE.INTRA.VDW>
-0.050888

>  <SCORE.INTRA.VDW.0>
2.61447

>  <SCORE.INTRA.norm>
-0.0307406

>  <SCORE.RESTR>
2.89956

>  <SCORE.RESTR.CAVITY>
2.89956

>  <SCORE.RESTR.norm>
0.126068

>  <SCORE.SYSTEM>
0

>  <SCORE.SYSTEM.CONST>
0

>  <SCORE.SYSTEM.DIHEDRAL>
0

>  <SCORE.SYSTEM.SOLV>
0

>  <SCORE.SYSTEM.norm>
0

>  <SCORE.heavy>
23

>  <SCORE.norm>
-1.18242

>  <RMSD>
3.118

$$$$

 OpenBabel11021811403D
libRbt.so/2013.1/901 2013/11/27
 23 25  0  0  0  0  0  0  0  0999 V2000
  -22.8375    8.3591    6.2133 S   0  0  0  0  0  0  0  0  0  0  0  0
  -25.0650    8.1407    8.1780 N   0  0  0  0  0  0  0  0  0  0  0  0
  -23.7397    7.3714   10.0396 C   0  0  0  0  0  0  0  0  0  0  0  0
  -22.4841    7.0215   10.5536 C   0  0  0  0  0  0  0  0  0  0  0  0
  -21.3529    7.0883    9.7459 C   0  0  0  0  0  0  0  0  0  0  0  0
  -21.4688    7.4991    8.4225 C   0  0  0  0  0  0  0  0  0  0  0  0
  -22.7120    7.8468    7.9003 C   0  0  0  0  0  0  0  0  0  0  0  0
  -23.8558    7.7858    8.7053 C   0  0  0  0  0  0  0  0  0  0  0  0
  -24.3473    7.4707    5.9982 C   0  0  0  0  0  0  0  0  0  0  0  0
  -24.5897    6.7784    4.8082 C   0  0  0  0  0  0  0  0  0  0  0  0
  -25.7889    6.0802    4.6399 C   0  0  0  0  0  0  0  0  0  0  0  0
  -26.7442    6.0802    5.6616 C   0  0  0  0  0  0  0  0  0  0  0  0
  -26.4961    6.7740    6.8465 C   0  0  0  0  0  0  0  0  0  0  0  0
  -25.3046    7.4649    7.0191 C   0  0  0  0  0  0  0  0  0  0  0  0
  -26.2014    8.4718    9.0730 C   0  0  0  0  0  0  0  0  0  0  0  0
  -26.3983    7.5727   10.3390 C   0  0  0  0  0  0  0  0  0  0  0  0
  -26.4260    6.0393   10.0174 C   0  0  0  0  0  0  0  0  0  0  0  0
  -26.5294    5.0968   11.1606 N   0  3  0  0  0  0  0  0  0  0  0  0
  -25.1965    4.5716   11.5545 C   0  0  0  0  0  0  0  0  0  0  0  0
  -27.4929    3.9859   10.8455 C   0  0  0  0  0  0  0  0  0  0  0  0
  -22.3485    6.5676   11.9791 C   0  0  0  0  0  0  0  0  0  0  0  0
  -21.0726    5.9555   12.5046 C   0  0  0  0  0  0  0  0  0  0  0  0
  -23.2720    6.7504   12.7563 O   0  0  0  0  0  0  0  0  0  0  0  0
  1  7  1  0  0  0  0
  1  9  1  0  0  0  0
  2  8  1  0  0  0  0
  2 14  1  0  0  0  0
  2 15  1  0  0  0  0
  3  4  2  0  0  0  0
  3  8  1  0  0  0  0
  4  5  1  0  0  0  0
  4 21  1  0  0  0  0
  5  6  2  0  0  0  0
  6  7  1  0  0  0  0
  7  8  2  0  0  0  0
  9 10  2  0  0  0  0
  9 14  1  0  0  0  0
 10 11  1  0  0  0  0
 11 12  2  0  0  0  0
 12 13  1  0  0  0  0
 13 14  2  0  0  0  0
 15 16  1  0  0  0  0
 16 17  1  0  0  0  0
 17 18  1  0  0  0  0
 18 19  1  0  0  0  0
 18 20  1  0  0  0  0
 21 22  1  0  0  0  0
 21 23  2  0  0  0  0
M  CHG  1  18   1
M  END
>  <CHROM.1>
-41.12064773,169.11285180,-51.31990852,176.53594962,22.59969847,-24.37380952
6.85876352,8.86608492,-1.76387627,0.34684753,1.84700356

>  <Name>


>  <RI>
0

>  <Rbt.Current_Directory>
/home/itssahil/PROJECTS/Mol_Feturizer/New_Systems/rnas/1lvj

>  <Rbt.Executable>
rbdock ($Id: //depot/dev/client3/rdock/2013.1/src/exe/rbdock.cxx#4 $)

>  <Rbt.Library>
libRbt.so (2013.1, Build901 2013/11/27)

>  <Rbt.Parameter_File>
/export/apps/rDock/src/rDock_2013.1_src/data/scripts/dock_solv.prm

>  <Rbt.Receptor>
prm/pocket_docking_2.prm

>  <SCORE>
-27.0274

>  <SCORE.INTER>
-29.226

>  <SCORE.INTER.CONST>
1

>  <SCORE.INTER.POLAR>
0

>  <SCORE.INTER.ROT>
5

>  <SCORE.INTER.SOLV>
12.8441

>  <SCORE.INTER.VDW>
-30.6987

>  <SCORE.INTER.norm>
-1.2707

>  <SCORE.INTRA>
-0.671646

>  <SCORE.INTRA.DIHEDRAL>
-3.30539

>  <SCORE.INTRA.DIHEDRAL.0>
8.06479

>  <SCORE.INTRA.POLAR>
0

>  <SCORE.INTRA.POLAR.0>
0

>  <SCORE.INTRA.REPUL>
0

>  <SCORE.INTRA.REPUL.0>
0

>  <SCORE.INTRA.SOLV>
1.33085

>  <SCORE.INTRA.SOLV.lig_0>
-29.8054

>  <SCORE.INTRA.VDW>
0.315624

>  <SCORE.INTRA.VDW.0>
2.61447

>  <SCORE.INTRA.norm>
-0.029202

>  <SCORE.RESTR>
2.87028

>  <SCORE.RESTR.CAVITY>
2.87028

>  <SCORE.RESTR.norm>
0.124795

>  <SCORE.SYSTEM>
0

>  <SCORE.SYSTEM.CONST>
0

>  <SCORE.SYSTEM.DIHEDRAL>
0

>  <SCORE.SYSTEM.SOLV>
0

>  <SCORE.SYSTEM.norm>
0

>  <SCORE.heavy>
23

>  <SCORE.norm>
-1.1751

>  <RMSD>
3.119

$$$$

 OpenBabel11021811403D
libRbt.so/2013.1/901 2013/11/27
 23 25  0  0  0  0  0  0  0  0999 V2000
  -22.8488    8.3697    6.2286 S   0  0  0  0  0  0  0  0  0  0  0  0
  -25.0603    8.1583    8.2120 N   0  0  0  0  0  0  0  0  0  0  0  0
  -23.7214    7.3864   10.0629 C   0  0  0  0  0  0  0  0  0  0  0  0
  -22.4625    7.0334   10.5665 C   0  0  0  0  0  0  0  0  0  0  0  0
  -21.3379    7.0966    9.7493 C   0  0  0  0  0  0  0  0  0  0  0  0
  -21.4639    7.5071    8.4267 C   0  0  0  0  0  0  0  0  0  0  0  0
  -22.7105    7.8579    7.9147 C   0  0  0  0  0  0  0  0  0  0  0  0
  -23.8477    7.8005    8.7294 C   0  0  0  0  0  0  0  0  0  0  0  0
  -24.3627    7.4853    6.0267 C   0  0  0  0  0  0  0  0  0  0  0  0
  -24.6170    6.7931    4.8392 C   0  0  0  0  0  0  0  0  0  0  0  0
  -25.8195    6.0980    4.6813 C   0  0  0  0  0  0  0  0  0  0  0  0
  -26.7661    6.1012    5.7110 C   0  0  0  0  0  0  0  0  0  0  0  0
  -26.5062    6.7949    6.8934 C   0  0  0  0  0  0  0  0  0  0  0  0
  -25.3114    7.4826    7.0556 C   0  0  0  0  0  0  0  0  0  0  0  0
  -26.1882    8.4930    9.1164 C   0  0  0  0  0  0  0  0  0  0  0  0
  -26.3939    7.5779   10.3695 C   0  0  0  0  0  0  0  0  0  0  0  0
  -26.4186    6.0488   10.0284 C   0  0  0  0  0  0  0  0  0  0  0  0
  -26.5019    5.0911   11.1606 N   0  3  0  0  0  0  0  0  0  0  0  0
  -25.1659    4.5410   11.5070 C   0  0  0  0  0  0  0  0  0  0  0  0
  -27.4907    3.9988   10.8585 C   0  0  0  0  0  0  0  0  0  0  0  0
  -22.3162    6.5798   11.9911 C   0  0  0  0  0  0  0  0  0  0  0  0
  -21.0549    5.9201   12.4937 C   0  0  0  0  0  0  0  0  0  0  0  0
  -23.2160    6.8015   12.7856 O   0  0  0  0  0  0  0  0  0  0  0  0
  1  7  1  0  0  0  0
  1  9  1  0  0  0  0
  2  8  1  0  0  0  0
  2 14  1  0  0  0  0
  2 15  1  0  0  0  0
  3  4  2  0  0  0  0
  3  8  1  0  0  0  0
  4  5  1  0  0  0  0
  4 21  1  0  0  0  0
  5  6  2  0  0  0  0
  6  7  1  0  0  0  0
  7  8  2  0  0  0  0
  9 10  2  0  0  0  0
  9 14  1  0  0  0  0
 10 11  1  0  0  0  0
 11 12  2  0  0  0  0
 12 13  1  0  0  0  0
 13 14  2  0  0  0  0
 15 16  1  0  0  0  0
 16 17  1  0  0  0  0
 17 18  1  0  0  0  0
 18 19  1  0  0  0  0
 18 20  1  0  0  0  0
 21 22  1  0  0  0  0
 21 23  2  0  0  0  0
M  CHG  1  18   1
M  END
>  <CHROM.1>
-42.29112937,166.91103030,-50.21508105,175.31456001,21.14575447,-24.36776686
6.86908397,8.88473523,-1.78104522,0.34643102,1.85263201

>  <Name>


>  <RI>
0

>  <Rbt.Current_Directory>
/home/itssahil/PROJECTS/Mol_Feturizer/New_Systems/rnas/1lvj

>  <Rbt.Executable>
rbdock ($Id: //depot/dev/client3/rdock/2013.1/src/exe/rbdock.cxx#4 $)

>  <Rbt.Library>
libRbt.so (2013.1, Build901 2013/11/27)

>  <Rbt.Parameter_File>
/export/apps/rDock/src/rDock_2013.1_src/data/scripts/dock_solv.prm

>  <Rbt.Receptor>
prm/pocket_docking_2.prm

>  <SCORE>
-27.487

>  <SCORE.INTER>
-29.5759

>  <SCORE.INTER.CONST>
1

>  <SCORE.INTER.POLAR>
0

>  <SCORE.INTER.ROT>
5

>  <SCORE.INTER.SOLV>
12.8016

>  <SCORE.INTER.VDW>
-30.9178

>  <SCORE.INTER.norm>
-1.28591

>  <SCORE.INTRA>
-0.872578

>  <SCORE.INTRA.DIHEDRAL>
-2.91185

>  <SCORE.INTRA.DIHEDRAL.0>
8.06479

>  <SCORE.INTRA.POLAR>
0

>  <SCORE.INTRA.POLAR.0>
0

>  <SCORE.INTRA.REPUL>
0

>  <SCORE.INTRA.REPUL.0>
0

>  <SCORE.INTRA.SOLV>
1.32845

>  <SCORE.INTRA.SOLV.lig_0>
-29.8054

>  <SCORE.INTRA.VDW>
-0.080876

>  <SCORE.INTRA.VDW.0>
2.61447

>  <SCORE.INTRA.norm>
-0.0379382

>  <SCORE.RESTR>
2.96144

>  <SCORE.RESTR.CAVITY>
2.96144

>  <SCORE.RESTR.norm>
0.128758

>  <SCORE.SYSTEM>
0

>  <SCORE.SYSTEM.CONST>
0

>  <SCORE.SYSTEM.DIHEDRAL>
0

>  <SCORE.SYSTEM.SOLV>
0

>  <SCORE.SYSTEM.norm>
0

>  <SCORE.heavy>
23

>  <SCORE.norm>
-1.19509

>  <RMSD>
3.136

$$$$

 OpenBabel11021811403D
libRbt.so/2013.1/901 2013/11/27
 23 25  0  0  0  0  0  0  0  0999 V2000
  -22.8570    8.3501    6.2238 S   0  0  0  0  0  0  0  0  0  0  0  0
  -25.0705    8.1449    8.2056 N   0  0  0  0  0  0  0  0  0  0  0  0
  -23.7331    7.3809   10.0609 C   0  0  0  0  0  0  0  0  0  0  0  0
  -22.4745    7.0306   10.5672 C   0  0  0  0  0  0  0  0  0  0  0  0
  -21.3491    7.0914    9.7509 C   0  0  0  0  0  0  0  0  0  0  0  0
  -21.4739    7.4968    8.4266 C   0  0  0  0  0  0  0  0  0  0  0  0
  -22.7202    7.8449    7.9120 C   0  0  0  0  0  0  0  0  0  0  0  0
  -23.8582    7.7897    8.7256 C   0  0  0  0  0  0  0  0  0  0  0  0
  -24.3701    7.4640    6.0236 C   0  0  0  0  0  0  0  0  0  0  0  0
  -24.6227    6.7670    4.8385 C   0  0  0  0  0  0  0  0  0  0  0  0
  -25.8245    6.0706    4.6820 C   0  0  0  0  0  0  0  0  0  0  0  0
  -26.7723    6.0771    5.7106 C   0  0  0  0  0  0  0  0  0  0  0  0
  -26.5141    6.7755    6.8907 C   0  0  0  0  0  0  0  0  0  0  0  0
  -25.3200    7.4645    7.0515 C   0  0  0  0  0  0  0  0  0  0  0  0
  -26.1996    8.4822    9.1075 C   0  0  0  0  0  0  0  0  0  0  0  0
  -26.4018    7.5760   10.3676 C   0  0  0  0  0  0  0  0  0  0  0  0
  -26.4331    6.0447   10.0366 C   0  0  0  0  0  0  0  0  0  0  0  0
  -26.5227    5.0950   11.1750 N   0  3  0  0  0  0  0  0  0  0  0  0
  -25.1849    4.5700   11.5519 C   0  0  0  0  0  0  0  0  0  0  0  0
  -27.4873    3.9840   10.8630 C   0  0  0  0  0  0  0  0  0  0  0  0
  -22.3294    6.5825   11.9936 C   0  0  0  0  0  0  0  0  0  0  0  0
  -21.0796    5.8990   12.4929 C   0  0  0  0  0  0  0  0  0  0  0  0
  -23.2195    6.8282   12.7920 O   0  0  0  0  0  0  0  0  0  0  0  0
  1  7  1  0  0  0  0
  1  9  1  0  0  0  0
  2  8  1  0  0  0  0
  2 14  1  0  0  0  0
  2 15  1  0  0  0  0
  3  4  2  0  0  0  0
  3  8  1  0  0  0  0
  4  5  1  0  0  0  0
  4 21  1  0  0  0  0
  5  6  2  0  0  0  0
  6  7  1  0  0  0  0
  7  8  2  0  0  0  0
  9 10  2  0  0  0  0
  9 14  1  0  0  0  0
 10 11  1  0  0  0  0
 11 12  2  0  0  0  0
 12 13  1  0  0  0  0
 13 14  2  0  0  0  0
 15 16  1  0  0  0  0
 16 17  1  0  0  0  0
 17 18  1  0  0  0  0
 18 19  1  0  0  0  0
 18 20  1  0  0  0  0
 21 22  1  0  0  0  0
 21 23  2  0  0  0  0
M  CHG  1  18   1
M  END
>  <CHROM.1>
-42.00177820,165.58064409,-50.70659106,175.71070146,22.73119124,-24.37803705
6.86003184,8.88651003,-1.77751992,0.34634571,1.84760516

>  <Name>


>  <RI>
0

>  <Rbt.Current_Directory>
/home/itssahil/PROJECTS/Mol_Feturizer/New_Systems/rnas/1lvj

>  <Rbt.Executable>
rbdock ($Id: //depot/dev/client3/rdock/2013.1/src/exe/rbdock.cxx#4 $)

>  <Rbt.Library>
libRbt.so (2013.1, Build901 2013/11/27)

>  <Rbt.Parameter_File>
/export/apps/rDock/src/rDock_2013.1_src/data/scripts/dock_solv.prm

>  <Rbt.Receptor>
prm/pocket_docking_2.prm

>  <SCORE>
-27.3307

>  <SCORE.INTER>
-29.4292

>  <SCORE.INTER.CONST>
1

>  <SCORE.INTER.POLAR>
0

>  <SCORE.INTER.ROT>
5

>  <SCORE.INTER.SOLV>
12.7757

>  <SCORE.INTER.VDW>
-30.8114

>  <SCORE.INTER.norm>
-1.27953

>  <SCORE.INTRA>
-0.837002

>  <SCORE.INTRA.DIHEDRAL>
-2.92258

>  <SCORE.INTRA.DIHEDRAL.0>
8.06479

>  <SCORE.INTRA.POLAR>
0

>  <SCORE.INTRA.POLAR.0>
0

>  <SCORE.INTRA.REPUL>
0

>  <SCORE.INTRA.REPUL.0>
0

>  <SCORE.INTRA.SOLV>
1.29098

>  <SCORE.INTRA.SOLV.lig_0>
-29.8054

>  <SCORE.INTRA.VDW>
-0.0212029

>  <SCORE.INTRA.VDW.0>
2.61447

>  <SCORE.INTRA.norm>
-0.0363914

>  <SCORE.RESTR>
2.93554

>  <SCORE.RESTR.CAVITY>
2.93554

>  <SCORE.RESTR.norm>
0.127632

>  <SCORE.SYSTEM>
0

>  <SCORE.SYSTEM.CONST>
0

>  <SCORE.SYSTEM.DIHEDRAL>
0

>  <SCORE.SYSTEM.SOLV>
0

>  <SCORE.SYSTEM.norm>
0

>  <SCORE.heavy>
23

>  <SCORE.norm>
-1.18829

>  <RMSD>
3.138

$$$$

 OpenBabel11021811403D
libRbt.so/2013.1/901 2013/11/27
 23 25  0  0  0  0  0  0  0  0999 V2000
  -23.0407    8.4228    6.1855 S   0  0  0  0  0  0  0  0  0  0  0  0
  -25.1442    8.1218    8.2721 N   0  0  0  0  0  0  0  0  0  0  0  0
  -23.6899    7.3925   10.0517 C   0  0  0  0  0  0  0  0  0  0  0  0
  -22.3959    7.0843   10.4919 C   0  0  0  0  0  0  0  0  0  0  0  0
  -21.3153    7.1923    9.6217 C   0  0  0  0  0  0  0  0  0  0  0  0
  -21.5202    7.6032    8.3091 C   0  0  0  0  0  0  0  0  0  0  0  0
  -22.8022    7.9098    7.8600 C   0  0  0  0  0  0  0  0  0  0  0  0
  -23.8957    7.8070    8.7282 C   0  0  0  0  0  0  0  0  0  0  0  0
  -24.5291    7.4839    6.0518 C   0  0  0  0  0  0  0  0  0  0  0  0
  -24.8150    6.7874    4.8739 C   0  0  0  0  0  0  0  0  0  0  0  0
  -25.9973    6.0491    4.7702 C   0  0  0  0  0  0  0  0  0  0  0  0
  -26.8925    6.0131    5.8443 C   0  0  0  0  0  0  0  0  0  0  0  0
  -26.6013    6.7112    7.0169 C   0  0  0  0  0  0  0  0  0  0  0  0
  -25.4261    7.4419    7.1252 C   0  0  0  0  0  0  0  0  0  0  0  0
  -26.2386    8.4109    9.2318 C   0  0  0  0  0  0  0  0  0  0  0  0
  -26.4739    7.3731   10.3796 C   0  0  0  0  0  0  0  0  0  0  0  0
  -26.4460    5.8847    9.8906 C   0  0  0  0  0  0  0  0  0  0  0  0
  -26.2706    4.8251   10.9165 N   0  3  0  0  0  0  0  0  0  0  0  0
  -27.2813    4.9436   11.9991 C   0  0  0  0  0  0  0  0  0  0  0  0
  -24.8689    4.8426   11.4615 C   0  0  0  0  0  0  0  0  0  0  0  0
  -22.1642    6.6307   11.9050 C   0  0  0  0  0  0  0  0  0  0  0  0
  -23.0600    7.0641   13.0401 C   0  0  0  0  0  0  0  0  0  0  0  0
  -21.2633    5.8413   12.1406 O   0  0  0  0  0  0  0  0  0  0  0  0
  1  7  1  0  0  0  0
  1  9  1  0  0  0  0
  2  8  1  0  0  0  0
  2 14  1  0  0  0  0
  2 15  1  0  0  0  0
  3  4  2  0  0  0  0
  3  8  1  0  0  0  0
  4  5  1  0  0  0  0
  4 21  1  0  0  0  0
  5  6  2  0  0  0  0
  6  7  1  0  0  0  0
  7  8  2  0  0  0  0
  9 10  2  0  0  0  0
  9 14  1  0  0  0  0
 10 11  1  0  0  0  0
 11 12  2  0  0  0  0
 12 13  1  0  0  0  0
 13 14  2  0  0  0  0
 15 16  1  0  0  0  0
 16 17  1  0  0  0  0
 17 18  1  0  0  0  0
 18 19  1  0  0  0  0
 18 20  1  0  0  0  0
 21 22  1  0  0  0  0
 21 23  2  0  0  0  0
M  CHG  1  18   1
M  END
>  <CHROM.1>
-50.47105138,-28.81540403,-44.56509236,162.98694975,173.91424802,-24.39010122
6.90299862,8.91183539,-1.79951915,0.31393557,1.83390622

>  <Name>


>  <RI>
0

>  <Rbt.Current_Directory>
/home/itssahil/PROJECTS/Mol_Feturizer/New_Systems/rnas/1lvj

>  <Rbt.Executable>
rbdock ($Id: //depot/dev/client3/rdock/2013.1/src/exe/rbdock.cxx#4 $)

>  <Rbt.Library>
libRbt.so (2013.1, Build901 2013/11/27)

>  <Rbt.Parameter_File>
/export/apps/rDock/src/rDock_2013.1_src/data/scripts/dock_solv.prm

>  <Rbt.Receptor>
prm/pocket_docking_2.prm

>  <SCORE>
-25.6754

>  <SCORE.INTER>
-27.7481

>  <SCORE.INTER.CONST>
1

>  <SCORE.INTER.POLAR>
-0.387868

>  <SCORE.INTER.ROT>
5

>  <SCORE.INTER.SOLV>
18.09

>  <SCORE.INTER.VDW>
-30.1691

>  <SCORE.INTER.norm>
-1.20644

>  <SCORE.INTRA>
-0.402458

>  <SCORE.INTRA.DIHEDRAL>
-2.00073

>  <SCORE.INTRA.DIHEDRAL.0>
8.06479

>  <SCORE.INTRA.POLAR>
0

>  <SCORE.INTRA.POLAR.0>
0

>  <SCORE.INTRA.REPUL>
0

>  <SCORE.INTRA.REPUL.0>
0

>  <SCORE.INTRA.SOLV>
-0.168714

>  <SCORE.INTRA.SOLV.lig_0>
-29.8054

>  <SCORE.INTRA.VDW>
0.682263

>  <SCORE.INTRA.VDW.0>
2.61447

>  <SCORE.INTRA.norm>
-0.0174982

>  <SCORE.RESTR>
2.47511

>  <SCORE.RESTR.CAVITY>
2.47511

>  <SCORE.RESTR.norm>
0.107613

>  <SCORE.SYSTEM>
0

>  <SCORE.SYSTEM.CONST>
0

>  <SCORE.SYSTEM.DIHEDRAL>
0

>  <SCORE.SYSTEM.SOLV>
0

>  <SCORE.SYSTEM.norm>
0

>  <SCORE.heavy>
23

>  <SCORE.norm>
-1.11632

>  <RMSD>
3.251

$$$$

 OpenBabel11021811403D
libRbt.so/2013.1/901 2013/11/27
 23 25  0  0  0  0  0  0  0  0999 V2000
  -23.1477    8.4616    6.2203 S   0  0  0  0  0  0  0  0  0  0  0  0
  -25.2019    8.1124    8.3481 N   0  0  0  0  0  0  0  0  0  0  0  0
  -23.7007    7.3818   10.0879 C   0  0  0  0  0  0  0  0  0  0  0  0
  -22.3939    7.0846   10.4967 C   0  0  0  0  0  0  0  0  0  0  0  0
  -21.3338    7.2152    9.6048 C   0  0  0  0  0  0  0  0  0  0  0  0
  -21.5719    7.6378    8.3015 C   0  0  0  0  0  0  0  0  0  0  0  0
  -22.8669    7.9334    7.8834 C   0  0  0  0  0  0  0  0  0  0  0  0
  -23.9400    7.8079    8.7738 C   0  0  0  0  0  0  0  0  0  0  0  0
  -24.6273    7.5060    6.1082 C   0  0  0  0  0  0  0  0  0  0  0  0
  -24.9302    6.8189    4.9291 C   0  0  0  0  0  0  0  0  0  0  0  0
  -26.1056    6.0673    4.8427 C   0  0  0  0  0  0  0  0  0  0  0  0
  -26.9768    6.0088    5.9353 C   0  0  0  0  0  0  0  0  0  0  0  0
  -26.6687    6.6976    7.1090 C   0  0  0  0  0  0  0  0  0  0  0  0
  -25.5003    7.4415    7.2001 C   0  0  0  0  0  0  0  0  0  0  0  0
  -26.2786    8.3777    9.3342 C   0  0  0  0  0  0  0  0  0  0  0  0
  -26.5034    7.3047   10.4514 C   0  0  0  0  0  0  0  0  0  0  0  0
  -26.4691    5.8317    9.9180 C   0  0  0  0  0  0  0  0  0  0  0  0
  -26.2842    4.7430   10.9112 N   0  3  0  0  0  0  0  0  0  0  0  0
  -27.3660    4.7464   11.9296 C   0  0  0  0  0  0  0  0  0  0  0  0
  -24.9237    4.8309   11.5462 C   0  0  0  0  0  0  0  0  0  0  0  0
  -22.1262    6.6187   11.8995 C   0  0  0  0  0  0  0  0  0  0  0  0
  -22.9811    7.0574   13.0637 C   0  0  0  0  0  0  0  0  0  0  0  0
  -21.2302    5.8150   12.1029 O   0  0  0  0  0  0  0  0  0  0  0  0
  1  7  1  0  0  0  0
  1  9  1  0  0  0  0
  2  8  1  0  0  0  0
  2 14  1  0  0  0  0
  2 15  1  0  0  0  0
  3  4  2  0  0  0  0
  3  8  1  0  0  0  0
  4  5  1  0  0  0  0
  4 21  1  0  0  0  0
  5  6  2  0  0  0  0
  6  7  1  0  0  0  0
  7  8  2  0  0  0  0
  9 10  2  0  0  0  0
  9 14  1  0  0  0  0
 10 11  1  0  0  0  0
 11 12  2  0  0  0  0
 12 13  1  0  0  0  0
 13 14  2  0  0  0  0
 15 16  1  0  0  0  0
 16 17  1  0  0  0  0
 17 18  1  0  0  0  0
 18 19  1  0  0  0  0
 18 20  1  0  0  0  0
 21 22  1  0  0  0  0
 21 23  2  0  0  0  0
M  CHG  1  18   1
M  END
>  <CHROM.1>
-52.16291446,-30.43167454,-43.54221534,163.01706449,179.22829790,-24.43551763
6.88926023,8.94683190,-1.82928241,0.32825616,1.85579854

>  <Name>


>  <RI>
0

>  <Rbt.Current_Directory>
/home/itssahil/PROJECTS/Mol_Feturizer/New_Systems/rnas/1lvj

>  <Rbt.Executable>
rbdock ($Id: //depot/dev/client3/rdock/2013.1/src/exe/rbdock.cxx#4 $)

>  <Rbt.Library>
libRbt.so (2013.1, Build901 2013/11/27)

>  <Rbt.Parameter_File>
/export/apps/rDock/src/rDock_2013.1_src/data/scripts/dock_solv.prm

>  <Rbt.Receptor>
prm/pocket_docking_2.prm

>  <SCORE>
-26.7779

>  <SCORE.INTER>
-28.8175

>  <SCORE.INTER.CONST>
1

>  <SCORE.INTER.POLAR>
-0.558482

>  <SCORE.INTER.ROT>
5

>  <SCORE.INTER.SOLV>
18.6776

>  <SCORE.INTER.VDW>
-30.5093

>  <SCORE.INTER.norm>
-1.25293

>  <SCORE.INTRA>
-0.688883

>  <SCORE.INTRA.DIHEDRAL>
-1.78039

>  <SCORE.INTRA.DIHEDRAL.0>
8.06479

>  <SCORE.INTRA.POLAR>
0

>  <SCORE.INTRA.POLAR.0>
0

>  <SCORE.INTRA.REPUL>
0

>  <SCORE.INTRA.REPUL.0>
0

>  <SCORE.INTRA.SOLV>
-0.184461

>  <SCORE.INTRA.SOLV.lig_0>
-29.8054

>  <SCORE.INTRA.VDW>
0.29354

>  <SCORE.INTRA.VDW.0>
2.61447

>  <SCORE.INTRA.norm>
-0.0299514

>  <SCORE.RESTR>
2.72845

>  <SCORE.RESTR.CAVITY>
2.72845

>  <SCORE.RESTR.norm>
0.118628

>  <SCORE.SYSTEM>
0

>  <SCORE.SYSTEM.CONST>
0

>  <SCORE.SYSTEM.DIHEDRAL>
0

>  <SCORE.SYSTEM.SOLV>
0

>  <SCORE.SYSTEM.norm>
0

>  <SCORE.heavy>
23

>  <SCORE.norm>
-1.16426

>  <RMSD>
3.287

$$$$

 OpenBabel11021811403D
libRbt.so/2013.1/901 2013/11/27
 23 25  0  0  0  0  0  0  0  0999 V2000
  -23.1835    8.3833    6.2060 S   0  0  0  0  0  0  0  0  0  0  0  0
  -25.2243    8.1191    8.3588 N   0  0  0  0  0  0  0  0  0  0  0  0
  -23.7208    7.4000   10.1014 C   0  0  0  0  0  0  0  0  0  0  0  0
  -22.4160    7.0881   10.5054 C   0  0  0  0  0  0  0  0  0  0  0  0
  -21.3618    7.1795    9.6017 C   0  0  0  0  0  0  0  0  0  0  0  0
  -21.6041    7.5772    8.2914 C   0  0  0  0  0  0  0  0  0  0  0  0
  -22.8972    7.8872    7.8780 C   0  0  0  0  0  0  0  0  0  0  0  0
  -23.9643    7.8011    8.7802 C   0  0  0  0  0  0  0  0  0  0  0  0
  -24.6811    7.4527    6.1281 C   0  0  0  0  0  0  0  0  0  0  0  0
  -25.0071    6.7452    4.9674 C   0  0  0  0  0  0  0  0  0  0  0  0
  -26.1966    6.0135    4.9080 C   0  0  0  0  0  0  0  0  0  0  0  0
  -27.0588    5.9952    6.0092 C   0  0  0  0  0  0  0  0  0  0  0  0
  -26.7277    6.7042    7.1644 C   0  0  0  0  0  0  0  0  0  0  0  0
  -25.5452    7.4284    7.2288 C   0  0  0  0  0  0  0  0  0  0  0  0
  -26.2870    8.4259    9.3480 C   0  0  0  0  0  0  0  0  0  0  0  0
  -26.5397    7.3693   10.4748 C   0  0  0  0  0  0  0  0  0  0  0  0
  -26.1365    5.9116   10.0653 C   0  0  0  0  0  0  0  0  0  0  0  0
  -26.2518    4.8489   11.0965 N   0  3  0  0  0  0  0  0  0  0  0  0
  -27.5741    4.1740   11.0364 C   0  0  0  0  0  0  0  0  0  0  0  0
  -25.9753    5.4071   12.4654 C   0  0  0  0  0  0  0  0  0  0  0  0
  -22.1441    6.6487   11.9159 C   0  0  0  0  0  0  0  0  0  0  0  0
  -23.0505    7.0315   13.0606 C   0  0  0  0  0  0  0  0  0  0  0  0
  -21.1979    5.9111   12.1415 O   0  0  0  0  0  0  0  0  0  0  0  0
  1  7  1  0  0  0  0
  1  9  1  0  0  0  0
  2  8  1  0  0  0  0
  2 14  1  0  0  0  0
  2 15  1  0  0  0  0
  3  4  2  0  0  0  0
  3  8  1  0  0  0  0
  4  5  1  0  0  0  0
  4 21  1  0  0  0  0
  5  6  2  0  0  0  0
  6  7  1  0  0  0  0
  7  8  2  0  0  0  0
  9 10  2  0  0  0  0
  9 14  1  0  0  0  0
 10 11  1  0  0  0  0
 11 12  2  0  0  0  0
 12 13  1  0  0  0  0
 13 14  2  0  0  0  0
 15 16  1  0  0  0  0
 16 17  1  0  0  0  0
 17 18  1  0  0  0  0
 18 19  1  0  0  0  0
 18 20  1  0  0  0  0
 21 22  1  0  0  0  0
 21 23  2  0  0  0  0
M  CHG  1  18   1
M  END
>  <CHROM.1>
-53.30853910,-25.00992807,-26.20075092,175.98577831,-147.64870123,-24.50594022
6.88768464,8.97824924,-1.81587501,0.33588715,1.83225066

>  <Name>


>  <RI>
0

>  <Rbt.Current_Directory>
/home/itssahil/PROJECTS/Mol_Feturizer/New_Systems/rnas/1lvj

>  <Rbt.Executable>
rbdock ($Id: //depot/dev/client3/rdock/2013.1/src/exe/rbdock.cxx#4 $)

>  <Rbt.Library>
libRbt.so (2013.1, Build901 2013/11/27)

>  <Rbt.Parameter_File>
/export/apps/rDock/src/rDock_2013.1_src/data/scripts/dock_solv.prm

>  <Rbt.Receptor>
prm/pocket_docking_2.prm

>  <SCORE>
-21.6849

>  <SCORE.INTER>
-27.5676

>  <SCORE.INTER.CONST>
1

>  <SCORE.INTER.POLAR>
0

>  <SCORE.INTER.ROT>
5

>  <SCORE.INTER.SOLV>
16.8312

>  <SCORE.INTER.VDW>
-30.9221

>  <SCORE.INTER.norm>
-1.19859

>  <SCORE.INTRA>
2.88519

>  <SCORE.INTRA.DIHEDRAL>
0.36551

>  <SCORE.INTRA.DIHEDRAL.0>
8.06479

>  <SCORE.INTRA.POLAR>
0

>  <SCORE.INTRA.POLAR.0>
0

>  <SCORE.INTRA.REPUL>
0

>  <SCORE.INTRA.REPUL.0>
0

>  <SCORE.INTRA.SOLV>
0.252314

>  <SCORE.INTRA.SOLV.lig_0>
-29.8054

>  <SCORE.INTRA.VDW>
2.57628

>  <SCORE.INTRA.VDW.0>
2.61447

>  <SCORE.INTRA.norm>
0.125443

>  <SCORE.RESTR>
2.99749

>  <SCORE.RESTR.CAVITY>
2.99749

>  <SCORE.RESTR.norm>
0.130326

>  <SCORE.SYSTEM>
0

>  <SCORE.SYSTEM.CONST>
0

>  <SCORE.SYSTEM.DIHEDRAL>
0

>  <SCORE.SYSTEM.SOLV>
0

>  <SCORE.SYSTEM.norm>
0

>  <SCORE.heavy>
23

>  <SCORE.norm>
-0.942823

>  <RMSD>
3.296

$$$$

 OpenBabel11021811403D
libRbt.so/2013.1/901 2013/11/27
 23 25  0  0  0  0  0  0  0  0999 V2000
  -23.3954    8.4761    6.3282 S   0  0  0  0  0  0  0  0  0  0  0  0
  -25.4406    7.5430    8.2816 N   0  0  0  0  0  0  0  0  0  0  0  0
  -23.9027    6.7835    9.9762 C   0  0  0  0  0  0  0  0  0  0  0  0
  -22.5795    6.6140   10.4048 C   0  0  0  0  0  0  0  0  0  0  0  0
  -21.5230    7.0172    9.5938 C   0  0  0  0  0  0  0  0  0  0  0  0
  -21.7804    7.5864    8.3514 C   0  0  0  0  0  0  0  0  0  0  0  0
  -23.0914    7.7574    7.9141 C   0  0  0  0  0  0  0  0  0  0  0  0
  -24.1614    7.3576    8.7236 C   0  0  0  0  0  0  0  0  0  0  0  0
  -24.7181    7.3515    6.0108 C   0  0  0  0  0  0  0  0  0  0  0  0
  -24.8836    6.8065    4.7342 C   0  0  0  0  0  0  0  0  0  0  0  0
  -25.9354    5.9201    4.4857 C   0  0  0  0  0  0  0  0  0  0  0  0
  -26.8213    5.5846    5.5147 C   0  0  0  0  0  0  0  0  0  0  0  0
  -26.6509    6.1328    6.7864 C   0  0  0  0  0  0  0  0  0  0  0  0
  -25.6050    7.0100    7.0382 C   0  0  0  0  0  0  0  0  0  0  0  0
  -26.5733    7.5118    9.2398 C   0  0  0  0  0  0  0  0  0  0  0  0
  -26.2181    7.4722   10.7636 C   0  0  0  0  0  0  0  0  0  0  0  0
  -26.8744    6.2712   11.5265 C   0  0  0  0  0  0  0  0  0  0  0  0
  -26.5500    4.8987   11.0610 N   0  3  0  0  0  0  0  0  0  0  0  0
  -27.6293    3.9378   11.4067 C   0  0  0  0  0  0  0  0  0  0  0  0
  -25.2186    4.4565   11.6030 C   0  0  0  0  0  0  0  0  0  0  0  0
  -22.2896    5.9920   11.7411 C   0  0  0  0  0  0  0  0  0  0  0  0
  -20.9551    5.3605   12.0556 C   0  0  0  0  0  0  0  0  0  0  0  0
  -23.1317    6.0481   12.6231 O   0  0  0  0  0  0  0  0  0  0  0  0
  1  7  1  0  0  0  0
  1  9  1  0  0  0  0
  2  8  1  0  0  0  0
  2 14  1  0  0  0  0
  2 15  1  0  0  0  0
  3  4  2  0  0  0  0
  3  8  1  0  0  0  0
  4  5  1  0  0  0  0
  4 21  1  0  0  0  0
  5  6  2  0  0  0  0
  6  7  1  0  0  0  0
  7  8  2  0  0  0  0
  9 10  2  0  0  0  0
  9 14  1  0  0  0  0
 10 11  1  0  0  0  0
 11 12  2  0  0  0  0
 12 13  1  0  0  0  0
 13 14  2  0  0  0  0
 15 16  1  0  0  0  0
 16 17  1  0  0  0  0
 17 18  1  0  0  0  0
 18 19  1  0  0  0  0
 18 20  1  0  0  0  0
 21 22  1  0  0  0  0
 21 23  2  0  0  0  0
M  CHG  1  18   1
M  END
>  <CHROM.1>
8.73238724,158.62806544,-125.02890202,59.10495279,-34.42505747,-24.56972437
6.58023301,8.92197107,-1.73455654,0.30880111,1.86950697

>  <Name>


>  <RI>
0

>  <Rbt.Current_Directory>
/home/itssahil/PROJECTS/Mol_Feturizer/New_Systems/rnas/1lvj

>  <Rbt.Executable>
rbdock ($Id: //depot/dev/client3/rdock/2013.1/src/exe/rbdock.cxx#4 $)

>  <Rbt.Library>
libRbt.so (2013.1, Build901 2013/11/27)

>  <Rbt.Parameter_File>
/export/apps/rDock/src/rDock_2013.1_src/data/scripts/dock_solv.prm

>  <Rbt.Receptor>
prm/pocket_docking_2.prm

>  <SCORE>
-24.582

>  <SCORE.INTER>
-37.0009

>  <SCORE.INTER.CONST>
1

>  <SCORE.INTER.POLAR>
-1.35369

>  <SCORE.INTER.ROT>
5

>  <SCORE.INTER.SOLV>
14.6735

>  <SCORE.INTER.VDW>
-31.9795

>  <SCORE.INTER.norm>
-1.60873

>  <SCORE.INTRA>
9.30602

>  <SCORE.INTRA.DIHEDRAL>
2.25186

>  <SCORE.INTRA.DIHEDRAL.0>
8.06479

>  <SCORE.INTRA.POLAR>
0

>  <SCORE.INTRA.POLAR.0>
0

>  <SCORE.INTRA.REPUL>
0

>  <SCORE.INTRA.REPUL.0>
0

>  <SCORE.INTRA.SOLV>
5.85433

>  <SCORE.INTRA.SOLV.lig_0>
-29.8054

>  <SCORE.INTRA.VDW>
5.25292

>  <SCORE.INTRA.VDW.0>
2.61447

>  <SCORE.INTRA.norm>
0.40461

>  <SCORE.RESTR>
3.11287

>  <SCORE.RESTR.CAVITY>
3.11287

>  <SCORE.RESTR.norm>
0.135342

>  <SCORE.SYSTEM>
0

>  <SCORE.SYSTEM.CONST>
0

>  <SCORE.SYSTEM.DIHEDRAL>
0

>  <SCORE.SYSTEM.SOLV>
0

>  <SCORE.SYSTEM.norm>
0

>  <SCORE.heavy>
23

>  <SCORE.norm>
-1.06878

>  <RMSD>
3.316

$$$$

 OpenBabel11021811403D
libRbt.so/2013.1/901 2013/11/27
 23 25  0  0  0  0  0  0  0  0999 V2000
  -23.2895    8.4893    6.0896 S   0  0  0  0  0  0  0  0  0  0  0  0
  -25.2229    8.1242    8.3252 N   0  0  0  0  0  0  0  0  0  0  0  0
  -23.6192    7.4406    9.9911 C   0  0  0  0  0  0  0  0  0  0  0  0
  -22.2874    7.1725   10.3339 C   0  0  0  0  0  0  0  0  0  0  0  0
  -21.2779    7.3136    9.3865 C   0  0  0  0  0  0  0  0  0  0  0  0
  -21.5918    7.7176    8.0935 C   0  0  0  0  0  0  0  0  0  0  0  0
  -22.9123    7.9843    7.7409 C   0  0  0  0  0  0  0  0  0  0  0  0
  -23.9349    7.8481    8.6873 C   0  0  0  0  0  0  0  0  0  0  0  0
  -24.7542    7.5049    6.0643 C   0  0  0  0  0  0  0  0  0  0  0  0
  -25.1047    6.7997    4.9094 C   0  0  0  0  0  0  0  0  0  0  0  0
  -26.2682    6.0252    4.8918 C   0  0  0  0  0  0  0  0  0  0  0  0
  -27.0800    5.9619    6.0290 C   0  0  0  0  0  0  0  0  0  0  0  0
  -26.7246    6.6690    7.1783 C   0  0  0  0  0  0  0  0  0  0  0  0
  -25.5677    7.4356    7.2010 C   0  0  0  0  0  0  0  0  0  0  0  0
  -26.2517    8.3797    9.3637 C   0  0  0  0  0  0  0  0  0  0  0  0
  -26.4209    7.2978   10.4821 C   0  0  0  0  0  0  0  0  0  0  0  0
  -26.4375    5.8302    9.9334 C   0  0  0  0  0  0  0  0  0  0  0  0
  -26.3486    4.7240   10.9204 N   0  3  0  0  0  0  0  0  0  0  0  0
  -27.5426    4.6862   11.8039 C   0  0  0  0  0  0  0  0  0  0  0  0
  -25.0743    4.8229   11.7132 C   0  0  0  0  0  0  0  0  0  0  0  0
  -21.9381    6.7267   11.7252 C   0  0  0  0  0  0  0  0  0  0  0  0
  -22.8356    7.0128   12.9047 C   0  0  0  0  0  0  0  0  0  0  0  0
  -20.9305    6.0616   11.9057 O   0  0  0  0  0  0  0  0  0  0  0  0
  1  7  1  0  0  0  0
  1  9  1  0  0  0  0
  2  8  1  0  0  0  0
  2 14  1  0  0  0  0
  2 15  1  0  0  0  0
  3  4  2  0  0  0  0
  3  8  1  0  0  0  0
  4  5  1  0  0  0  0
  4 21  1  0  0  0  0
  5  6  2  0  0  0  0
  6  7  1  0  0  0  0
  7  8  2  0  0  0  0
  9 10  2  0  0  0  0
  9 14  1  0  0  0  0
 10 11  1  0  0  0  0
 11 12  2  0  0  0  0
 12 13  1  0  0  0  0
 13 14  2  0  0  0  0
 15 16  1  0  0  0  0
 16 17  1  0  0  0  0
 17 18  1  0  0  0  0
 18 19  1  0  0  0  0
 18 20  1  0  0  0  0
 21 22  1  0  0  0  0
 21 23  2  0  0  0  0
M  CHG  1  18   1
M  END
>  <CHROM.1>
-53.59939137,-22.42993148,-44.66705382,169.30061760,-174.83197707,-24.45353438
6.91249330,8.88615968,-1.87393782,0.33479039,1.86297723

>  <Name>


>  <RI>
0

>  <Rbt.Current_Directory>
/home/itssahil/PROJECTS/Mol_Feturizer/New_Systems/rnas/1lvj

>  <Rbt.Executable>
rbdock ($Id: //depot/dev/client3/rdock/2013.1/src/exe/rbdock.cxx#4 $)

>  <Rbt.Library>
libRbt.so (2013.1, Build901 2013/11/27)

>  <Rbt.Parameter_File>
/export/apps/rDock/src/rDock_2013.1_src/data/scripts/dock_solv.prm

>  <Rbt.Receptor>
prm/pocket_docking_3.prm

>  <SCORE>
-30.3901

>  <SCORE.INTER>
-28.6805

>  <SCORE.INTER.CONST>
1

>  <SCORE.INTER.POLAR>
-0.623306

>  <SCORE.INTER.ROT>
5

>  <SCORE.INTER.SOLV>
19.0773

>  <SCORE.INTER.VDW>
-30.3351

>  <SCORE.INTER.norm>
-1.24698

>  <SCORE.INTRA>
-1.92987

>  <SCORE.INTRA.DIHEDRAL>
-4.01915

>  <SCORE.INTRA.DIHEDRAL.0>
8.06479

>  <SCORE.INTRA.POLAR>
0

>  <SCORE.INTRA.POLAR.0>
0

>  <SCORE.INTRA.REPUL>
0

>  <SCORE.INTRA.REPUL.0>
0

>  <SCORE.INTRA.SOLV>
-0.285261

>  <SCORE.INTRA.SOLV.lig_0>
-29.8054

>  <SCORE.INTRA.VDW>
0.22234

>  <SCORE.INTRA.VDW.0>
2.61447

>  <SCORE.INTRA.norm>
-0.0839072

>  <SCORE.RESTR>
0.220253

>  <SCORE.RESTR.CAVITY>
0.220253

>  <SCORE.RESTR.norm>
0.00957623

>  <SCORE.SYSTEM>
0

>  <SCORE.SYSTEM.CONST>
0

>  <SCORE.SYSTEM.DIHEDRAL>
0

>  <SCORE.SYSTEM.SOLV>
0

>  <SCORE.SYSTEM.norm>
0

>  <SCORE.heavy>
23

>  <SCORE.norm>
-1.32131

>  <RMSD>
3.326

$$$$

 OpenBabel11021811403D
libRbt.so/2013.1/901 2013/11/27
 23 25  0  0  0  0  0  0  0  0999 V2000
  -23.1520    8.3931    6.2147 S   0  0  0  0  0  0  0  0  0  0  0  0
  -25.2312    8.0889    8.3250 N   0  0  0  0  0  0  0  0  0  0  0  0
  -23.7552    7.3643   10.0886 C   0  0  0  0  0  0  0  0  0  0  0  0
  -22.4557    7.0593   10.5145 C   0  0  0  0  0  0  0  0  0  0  0  0
  -21.3852    7.1691    9.6321 C   0  0  0  0  0  0  0  0  0  0  0  0
  -21.6058    7.5786    8.3216 C   0  0  0  0  0  0  0  0  0  0  0  0
  -22.8935    7.8818    7.8867 C   0  0  0  0  0  0  0  0  0  0  0  0
  -23.9769    7.7772    8.7673 C   0  0  0  0  0  0  0  0  0  0  0  0
  -24.6397    7.4506    6.0984 C   0  0  0  0  0  0  0  0  0  0  0  0
  -24.9372    6.7526    4.9243 C   0  0  0  0  0  0  0  0  0  0  0  0
  -26.1189    6.0115    4.8345 C   0  0  0  0  0  0  0  0  0  0  0  0
  -27.0018    5.9743    5.9187 C   0  0  0  0  0  0  0  0  0  0  0  0
  -26.6991    6.6739    7.0873 C   0  0  0  0  0  0  0  0  0  0  0  0
  -25.5244    7.4074    7.1819 C   0  0  0  0  0  0  0  0  0  0  0  0
  -26.3153    8.3762    9.2967 C   0  0  0  0  0  0  0  0  0  0  0  0
  -26.4852    7.3796   10.4917 C   0  0  0  0  0  0  0  0  0  0  0  0
  -26.2331    5.8841   10.0979 C   0  0  0  0  0  0  0  0  0  0  0  0
  -26.2811    4.8685   11.1805 N   0  3  0  0  0  0  0  0  0  0  0  0
  -27.6059    4.1986   11.2393 C   0  0  0  0  0  0  0  0  0  0  0  0
  -25.9117    5.4851   12.5017 C   0  0  0  0  0  0  0  0  0  0  0  0
  -22.2070    6.6073   11.9253 C   0  0  0  0  0  0  0  0  0  0  0  0
  -20.9139    5.9455   12.3358 C   0  0  0  0  0  0  0  0  0  0  0  0
  -23.0461    6.8322   12.7829 O   0  0  0  0  0  0  0  0  0  0  0  0
  1  7  1  0  0  0  0
  1  9  1  0  0  0  0
  2  8  1  0  0  0  0
  2 14  1  0  0  0  0
  2 15  1  0  0  0  0
  3  4  2  0  0  0  0
  3  8  1  0  0  0  0
  4  5  1  0  0  0  0
  4 21  1  0  0  0  0
  5  6  2  0  0  0  0
  6  7  1  0  0  0  0
  7  8  2  0  0  0  0
  9 10  2  0  0  0  0
  9 14  1  0  0  0  0
 10 11  1  0  0  0  0
 11 12  2  0  0  0  0
 12 13  1  0  0  0  0
 13 14  2  0  0  0  0
 15 16  1  0  0  0  0
 16 17  1  0  0  0  0
 17 18  1  0  0  0  0
 18 19  1  0  0  0  0
 18 20  1  0  0  0  0
 21 22  1  0  0  0  0
 21 23  2  0  0  0  0
M  CHG  1  18   1
M  END
>  <CHROM.1>
-47.25759560,164.40561971,-37.39361140,176.03644691,-142.56954994,-24.49318893
6.87712081,8.97872922,-1.79677281,0.32505114,1.83173913

>  <Name>


>  <RI>
0

>  <Rbt.Current_Directory>
/home/itssahil/PROJECTS/Mol_Feturizer/New_Systems/rnas/1lvj

>  <Rbt.Executable>
rbdock ($Id: //depot/dev/client3/rdock/2013.1/src/exe/rbdock.cxx#4 $)

>  <Rbt.Library>
libRbt.so (2013.1, Build901 2013/11/27)

>  <Rbt.Parameter_File>
/export/apps/rDock/src/rDock_2013.1_src/data/scripts/dock_solv.prm

>  <Rbt.Receptor>
prm/pocket_docking_2.prm

>  <SCORE>
-21.9527

>  <SCORE.INTER>
-27.8367

>  <SCORE.INTER.CONST>
1

>  <SCORE.INTER.POLAR>
0

>  <SCORE.INTER.ROT>
5

>  <SCORE.INTER.SOLV>
16.2576

>  <SCORE.INTER.VDW>
-30.9103

>  <SCORE.INTER.norm>
-1.21029

>  <SCORE.INTRA>
2.74217

>  <SCORE.INTRA.DIHEDRAL>
-1.92286

>  <SCORE.INTRA.DIHEDRAL.0>
8.06479

>  <SCORE.INTRA.POLAR>
0

>  <SCORE.INTRA.POLAR.0>
0

>  <SCORE.INTRA.REPUL>
0

>  <SCORE.INTRA.REPUL.0>
0

>  <SCORE.INTRA.SOLV>
0.527212

>  <SCORE.INTRA.SOLV.lig_0>
-29.8054

>  <SCORE.INTRA.VDW>
3.43999

>  <SCORE.INTRA.VDW.0>
2.61447

>  <SCORE.INTRA.norm>
0.119225

>  <SCORE.RESTR>
3.14179

>  <SCORE.RESTR.CAVITY>
3.14179

>  <SCORE.RESTR.norm>
0.136599

>  <SCORE.SYSTEM>
0

>  <SCORE.SYSTEM.CONST>
0

>  <SCORE.SYSTEM.DIHEDRAL>
0

>  <SCORE.SYSTEM.SOLV>
0

>  <SCORE.SYSTEM.norm>
0

>  <SCORE.heavy>
23

>  <SCORE.norm>
-0.954466

>  <RMSD>
3.339

$$$$

 OpenBabel11021811403D
libRbt.so/2013.1/901 2013/11/27
 23 25  0  0  0  0  0  0  0  0999 V2000
  -23.2403    8.3751    6.0068 S   0  0  0  0  0  0  0  0  0  0  0  0
  -25.2131    8.1428    8.2256 N   0  0  0  0  0  0  0  0  0  0  0  0
  -23.6468    7.5087    9.9456 C   0  0  0  0  0  0  0  0  0  0  0  0
  -22.3251    7.2345   10.3212 C   0  0  0  0  0  0  0  0  0  0  0  0
  -21.2991    7.3162    9.3846 C   0  0  0  0  0  0  0  0  0  0  0  0
  -21.5864    7.6667    8.0699 C   0  0  0  0  0  0  0  0  0  0  0  0
  -22.8967    7.9389    7.6848 C   0  0  0  0  0  0  0  0  0  0  0  0
  -23.9357    7.8622    8.6200 C   0  0  0  0  0  0  0  0  0  0  0  0
  -24.7210    7.4147    6.0024 C   0  0  0  0  0  0  0  0  0  0  0  0
  -25.0661    6.6640    4.8747 C   0  0  0  0  0  0  0  0  0  0  0  0
  -26.2422    5.9086    4.8734 C   0  0  0  0  0  0  0  0  0  0  0  0
  -27.0720    5.9100    5.9993 C   0  0  0  0  0  0  0  0  0  0  0  0
  -26.7220    6.6621    7.1213 C   0  0  0  0  0  0  0  0  0  0  0  0
  -25.5526    7.4100    7.1280 C   0  0  0  0  0  0  0  0  0  0  0  0
  -26.2530    8.4616    9.2351 C   0  0  0  0  0  0  0  0  0  0  0  0
  -26.1925    7.6839   10.5921 C   0  0  0  0  0  0  0  0  0  0  0  0
  -26.2606    6.1276   10.4231 C   0  0  0  0  0  0  0  0  0  0  0  0
  -27.1405    5.3712   11.3502 N   0  3  0  0  0  0  0  0  0  0  0  0
  -26.8180    5.6682   12.7698 C   0  0  0  0  0  0  0  0  0  0  0  0
  -27.0707    3.8967   11.0618 C   0  0  0  0  0  0  0  0  0  0  0  0
  -22.0044    6.8461   11.7364 C   0  0  0  0  0  0  0  0  0  0  0  0
  -23.0469    6.8731   12.8278 C   0  0  0  0  0  0  0  0  0  0  0  0
  -20.8859    6.4388   12.0069 O   0  0  0  0  0  0  0  0  0  0  0  0
  1  7  1  0  0  0  0
  1  9  1  0  0  0  0
  2  8  1  0  0  0  0
  2 14  1  0  0  0  0
  2 15  1  0  0  0  0
  3  4  2  0  0  0  0
  3  8  1  0  0  0  0
  4  5  1  0  0  0  0
  4 21  1  0  0  0  0
  5  6  2  0  0  0  0
  6  7  1  0  0  0  0
  7  8  2  0  0  0  0
  9 10  2  0  0  0  0
  9 14  1  0  0  0  0
 10 11  1  0  0  0  0
 11 12  2  0  0  0  0
 12 13  1  0  0  0  0
 13 14  2  0  0  0  0
 15 16  1  0  0  0  0
 16 17  1  0  0  0  0
 17 18  1  0  0  0  0
 18 19  1  0  0  0  0
 18 20  1  0  0  0  0
 21 22  1  0  0  0  0
 21 23  2  0  0  0  0
M  CHG  1  18   1
M  END
>  <CHROM.1>
-36.56322618,-6.39009943,-57.55514232,-136.20359656,65.66520239,-24.53661510
6.97229995,8.91259584,-1.70004900,0.31930954,1.77800938

>  <Name>


>  <RI>
0

>  <Rbt.Current_Directory>
/home/itssahil/PROJECTS/Mol_Feturizer/New_Systems/rnas/1lvj

>  <Rbt.Executable>
rbdock ($Id: //depot/dev/client3/rdock/2013.1/src/exe/rbdock.cxx#4 $)

>  <Rbt.Library>
libRbt.so (2013.1, Build901 2013/11/27)

>  <Rbt.Parameter_File>
/export/apps/rDock/src/rDock_2013.1_src/data/scripts/dock_solv.prm

>  <Rbt.Receptor>
prm/pocket_docking_3.prm

>  <SCORE>
-29.0946

>  <SCORE.INTER>
-31.4043

>  <SCORE.INTER.CONST>
1

>  <SCORE.INTER.POLAR>
-0.961048

>  <SCORE.INTER.ROT>
5

>  <SCORE.INTER.SOLV>
15.7764

>  <SCORE.INTER.VDW>
-29.9249

>  <SCORE.INTER.norm>
-1.36541

>  <SCORE.INTRA>
2.16353

>  <SCORE.INTRA.DIHEDRAL>
-1.69752

>  <SCORE.INTRA.DIHEDRAL.0>
8.06479

>  <SCORE.INTRA.POLAR>
0

>  <SCORE.INTRA.POLAR.0>
0

>  <SCORE.INTRA.REPUL>
0

>  <SCORE.INTRA.REPUL.0>
0

>  <SCORE.INTRA.SOLV>
0.758339

>  <SCORE.INTRA.SOLV.lig_0>
-29.8054

>  <SCORE.INTRA.VDW>
2.63313

>  <SCORE.INTRA.VDW.0>
2.61447

>  <SCORE.INTRA.norm>
0.0940667

>  <SCORE.RESTR>
0.146222

>  <SCORE.RESTR.CAVITY>
0.146222

>  <SCORE.RESTR.norm>
0.00635747

>  <SCORE.SYSTEM>
0

>  <SCORE.SYSTEM.CONST>
0

>  <SCORE.SYSTEM.DIHEDRAL>
0

>  <SCORE.SYSTEM.SOLV>
0

>  <SCORE.SYSTEM.norm>
0

>  <SCORE.heavy>
23

>  <SCORE.norm>
-1.26498

>  <RMSD>
3.352

$$$$

 OpenBabel11021811403D
libRbt.so/2013.1/901 2013/11/27
 23 25  0  0  0  0  0  0  0  0999 V2000
  -23.6108    8.4992    6.1659 S   0  0  0  0  0  0  0  0  0  0  0  0
  -25.4774    7.5895    8.3007 N   0  0  0  0  0  0  0  0  0  0  0  0
  -23.7962    6.9068    9.8888 C   0  0  0  0  0  0  0  0  0  0  0  0
  -22.4404    6.7726   10.2157 C   0  0  0  0  0  0  0  0  0  0  0  0
  -21.4591    7.1696    9.3125 C   0  0  0  0  0  0  0  0  0  0  0  0
  -21.8245    7.6973    8.0789 C   0  0  0  0  0  0  0  0  0  0  0  0
  -23.1689    7.8330    7.7422 C   0  0  0  0  0  0  0  0  0  0  0  0
  -24.1639    7.4391    8.6450 C   0  0  0  0  0  0  0  0  0  0  0  0
  -24.9323    7.3433    5.9861 C   0  0  0  0  0  0  0  0  0  0  0  0
  -25.1873    6.7581    4.7425 C   0  0  0  0  0  0  0  0  0  0  0  0
  -26.2381    5.8469    4.6032 C   0  0  0  0  0  0  0  0  0  0  0  0
  -27.0336    5.5270    5.7082 C   0  0  0  0  0  0  0  0  0  0  0  0
  -26.7741    6.1153    6.9466 C   0  0  0  0  0  0  0  0  0  0  0  0
  -25.7288    7.0173    7.0898 C   0  0  0  0  0  0  0  0  0  0  0  0
  -26.5302    7.5674    9.3463 C   0  0  0  0  0  0  0  0  0  0  0  0
  -26.0641    7.3460   10.8240 C   0  0  0  0  0  0  0  0  0  0  0  0
  -26.8439    6.2034   11.5599 C   0  0  0  0  0  0  0  0  0  0  0  0
  -26.6231    4.8093   11.0976 N   0  3  0  0  0  0  0  0  0  0  0  0
  -27.8034    3.9508   11.3756 C   0  0  0  0  0  0  0  0  0  0  0  0
  -25.3691    4.2426   11.7044 C   0  0  0  0  0  0  0  0  0  0  0  0
  -22.0342    6.1954   11.5418 C   0  0  0  0  0  0  0  0  0  0  0  0
  -22.9299    6.2722   12.7544 C   0  0  0  0  0  0  0  0  0  0  0  0
  -20.9765    5.5930   11.6340 O   0  0  0  0  0  0  0  0  0  0  0  0
  1  7  1  0  0  0  0
  1  9  1  0  0  0  0
  2  8  1  0  0  0  0
  2 14  1  0  0  0  0
  2 15  1  0  0  0  0
  3  4  2  0  0  0  0
  3  8  1  0  0  0  0
  4  5  1  0  0  0  0
  4 21  1  0  0  0  0
  5  6  2  0  0  0  0
  6  7  1  0  0  0  0
  7  8  2  0  0  0  0
  9 10  2  0  0  0  0
  9 14  1  0  0  0  0
 10 11  1  0  0  0  0
 11 12  2  0  0  0  0
 12 13  1  0  0  0  0
 13 14  2  0  0  0  0
 15 16  1  0  0  0  0
 16 17  1  0  0  0  0
 17 18  1  0  0  0  0
 18 19  1  0  0  0  0
 18 20  1  0  0  0  0
 21 22  1  0  0  0  0
 21 23  2  0  0  0  0
M  CHG  1  18   1
M  END
>  <CHROM.1>
-0.88325034,-25.99675904,-128.95863512,68.19689331,-33.07443173,-24.61938451
6.61138434,8.87528631,-1.75924105,0.33300464,1.87804154

>  <Name>


>  <RI>
0

>  <Rbt.Current_Directory>
/home/itssahil/PROJECTS/Mol_Feturizer/New_Systems/rnas/1lvj

>  <Rbt.Executable>
rbdock ($Id: //depot/dev/client3/rdock/2013.1/src/exe/rbdock.cxx#4 $)

>  <Rbt.Library>
libRbt.so (2013.1, Build901 2013/11/27)

>  <Rbt.Parameter_File>
/export/apps/rDock/src/rDock_2013.1_src/data/scripts/dock_solv.prm

>  <Rbt.Receptor>
prm/pocket_docking_3.prm

>  <SCORE>
-26.2897

>  <SCORE.INTER>
-36.8403

>  <SCORE.INTER.CONST>
1

>  <SCORE.INTER.POLAR>
-1.47909

>  <SCORE.INTER.ROT>
5

>  <SCORE.INTER.SOLV>
15.3852

>  <SCORE.INTER.VDW>
-31.6916

>  <SCORE.INTER.norm>
-1.60175

>  <SCORE.INTRA>
10.5211

>  <SCORE.INTRA.DIHEDRAL>
3.56867

>  <SCORE.INTRA.DIHEDRAL.0>
8.06479

>  <SCORE.INTRA.POLAR>
0

>  <SCORE.INTRA.POLAR.0>
0

>  <SCORE.INTRA.REPUL>
0

>  <SCORE.INTRA.REPUL.0>
0

>  <SCORE.INTRA.SOLV>
4.77574

>  <SCORE.INTRA.SOLV.lig_0>
-29.8054

>  <SCORE.INTRA.VDW>
6.34886

>  <SCORE.INTRA.VDW.0>
2.61447

>  <SCORE.INTRA.norm>
0.457438

>  <SCORE.RESTR>
0.0295326

>  <SCORE.RESTR.CAVITY>
0.0295326

>  <SCORE.RESTR.norm>
0.00128403

>  <SCORE.SYSTEM>
0

>  <SCORE.SYSTEM.CONST>
0

>  <SCORE.SYSTEM.DIHEDRAL>
0

>  <SCORE.SYSTEM.SOLV>
0

>  <SCORE.SYSTEM.norm>
0

>  <SCORE.heavy>
23

>  <SCORE.norm>
-1.14303

>  <RMSD>
3.353

$$$$

 OpenBabel11021811403D
libRbt.so/2013.1/901 2013/11/27
 23 25  0  0  0  0  0  0  0  0999 V2000
  -23.2055    8.4568    6.2459 S   0  0  0  0  0  0  0  0  0  0  0  0
  -25.2459    8.0383    8.3744 N   0  0  0  0  0  0  0  0  0  0  0  0
  -23.7275    7.2976   10.0948 C   0  0  0  0  0  0  0  0  0  0  0  0
  -22.4149    7.0121   10.4933 C   0  0  0  0  0  0  0  0  0  0  0  0
  -21.3603    7.1747    9.6000 C   0  0  0  0  0  0  0  0  0  0  0  0
  -21.6097    7.6178    8.3057 C   0  0  0  0  0  0  0  0  0  0  0  0
  -22.9105    7.9021    7.8980 C   0  0  0  0  0  0  0  0  0  0  0  0
  -23.9781    7.7445    8.7898 C   0  0  0  0  0  0  0  0  0  0  0  0
  -24.6715    7.4820    6.1216 C   0  0  0  0  0  0  0  0  0  0  0  0
  -24.9690    6.8124    4.9310 C   0  0  0  0  0  0  0  0  0  0  0  0
  -26.1336    6.0454    4.8350 C   0  0  0  0  0  0  0  0  0  0  0  0
  -26.9995    5.9539    5.9296 C   0  0  0  0  0  0  0  0  0  0  0  0
  -26.6969    6.6254    7.1147 C   0  0  0  0  0  0  0  0  0  0  0  0
  -25.5391    7.3845    7.2153 C   0  0  0  0  0  0  0  0  0  0  0  0
  -26.3225    8.2695    9.3693 C   0  0  0  0  0  0  0  0  0  0  0  0
  -26.4283    7.2537   10.5554 C   0  0  0  0  0  0  0  0  0  0  0  0
  -26.4981    5.7584   10.0923 C   0  0  0  0  0  0  0  0  0  0  0  0
  -26.3722    4.7074   11.1341 N   0  3  0  0  0  0  0  0  0  0  0  0
  -27.2181    5.0105   12.3173 C   0  0  0  0  0  0  0  0  0  0  0  0
  -24.9311    4.5117   11.5174 C   0  0  0  0  0  0  0  0  0  0  0  0
  -22.1349    6.5242   11.8861 C   0  0  0  0  0  0  0  0  0  0  0  0
  -23.0482    6.8465   13.0440 C   0  0  0  0  0  0  0  0  0  0  0  0
  -21.1755    5.7959   12.0841 O   0  0  0  0  0  0  0  0  0  0  0  0
  1  7  1  0  0  0  0
  1  9  1  0  0  0  0
  2  8  1  0  0  0  0
  2 14  1  0  0  0  0
  2 15  1  0  0  0  0
  3  4  2  0  0  0  0
  3  8  1  0  0  0  0
  4  5  1  0  0  0  0
  4 21  1  0  0  0  0
  5  6  2  0  0  0  0
  6  7  1  0  0  0  0
  7  8  2  0  0  0  0
  9 10  2  0  0  0  0
  9 14  1  0  0  0  0
 10 11  1  0  0  0  0
 11 12  2  0  0  0  0
 12 13  1  0  0  0  0
 13 14  2  0  0  0  0
 15 16  1  0  0  0  0
 16 17  1  0  0  0  0
 17 18  1  0  0  0  0
 18 19  1  0  0  0  0
 18 20  1  0  0  0  0
 21 22  1  0  0  0  0
 21 23  2  0  0  0  0
M  CHG  1  18   1
M  END
>  <CHROM.1>
-45.77144684,-25.89406383,-52.57215514,170.03524011,165.77461060,-24.45726278
6.83639934,8.99062927,-1.79077486,0.31239312,1.85933287

>  <Name>


>  <RI>
0

>  <Rbt.Current_Directory>
/home/itssahil/PROJECTS/Mol_Feturizer/New_Systems/rnas/1lvj

>  <Rbt.Executable>
rbdock ($Id: //depot/dev/client3/rdock/2013.1/src/exe/rbdock.cxx#4 $)

>  <Rbt.Library>
libRbt.so (2013.1, Build901 2013/11/27)

>  <Rbt.Parameter_File>
/export/apps/rDock/src/rDock_2013.1_src/data/scripts/dock_solv.prm

>  <Rbt.Receptor>
prm/pocket_docking_2.prm

>  <SCORE>
-25.5133

>  <SCORE.INTER>
-27.2966

>  <SCORE.INTER.CONST>
1

>  <SCORE.INTER.POLAR>
0

>  <SCORE.INTER.ROT>
5

>  <SCORE.INTER.SOLV>
16.6217

>  <SCORE.INTER.VDW>
-30.6716

>  <SCORE.INTER.norm>
-1.18681

>  <SCORE.INTRA>
-0.867905

>  <SCORE.INTRA.DIHEDRAL>
-3.19179

>  <SCORE.INTRA.DIHEDRAL.0>
8.06479

>  <SCORE.INTRA.POLAR>
0

>  <SCORE.INTRA.POLAR.0>
0

>  <SCORE.INTRA.REPUL>
0

>  <SCORE.INTRA.REPUL.0>
0

>  <SCORE.INTRA.SOLV>
-0.234301

>  <SCORE.INTRA.SOLV.lig_0>
-29.8054

>  <SCORE.INTRA.VDW>
0.845142

>  <SCORE.INTRA.VDW.0>
2.61447

>  <SCORE.INTRA.norm>
-0.037735

>  <SCORE.RESTR>
2.65113

>  <SCORE.RESTR.CAVITY>
2.65113

>  <SCORE.RESTR.norm>
0.115267

>  <SCORE.SYSTEM>
0

>  <SCORE.SYSTEM.CONST>
0

>  <SCORE.SYSTEM.DIHEDRAL>
0

>  <SCORE.SYSTEM.SOLV>
0

>  <SCORE.SYSTEM.norm>
0

>  <SCORE.heavy>
23

>  <SCORE.norm>
-1.10928

>  <RMSD>
3.354

$$$$

 OpenBabel11021811403D
libRbt.so/2013.1/901 2013/11/27
 23 25  0  0  0  0  0  0  0  0999 V2000
  -23.7065    8.5512    6.3737 S   0  0  0  0  0  0  0  0  0  0  0  0
  -25.4027    7.7045    8.6705 N   0  0  0  0  0  0  0  0  0  0  0  0
  -23.6036    7.0757   10.1476 C   0  0  0  0  0  0  0  0  0  0  0  0
  -22.2264    6.9549   10.3754 C   0  0  0  0  0  0  0  0  0  0  0  0
  -21.3177    7.3257    9.3888 C   0  0  0  0  0  0  0  0  0  0  0  0
  -21.7775    7.8137    8.1705 C   0  0  0  0  0  0  0  0  0  0  0  0
  -23.1440    7.9357    7.9322 C   0  0  0  0  0  0  0  0  0  0  0  0
  -24.0664    7.5680    8.9192 C   0  0  0  0  0  0  0  0  0  0  0  0
  -25.0324    7.3872    6.3301 C   0  0  0  0  0  0  0  0  0  0  0  0
  -25.3776    6.7628    5.1280 C   0  0  0  0  0  0  0  0  0  0  0  0
  -26.4316    5.8452    5.0968 C   0  0  0  0  0  0  0  0  0  0  0  0
  -27.1402    5.5583    6.2681 C   0  0  0  0  0  0  0  0  0  0  0  0
  -26.7909    6.1857    7.4644 C   0  0  0  0  0  0  0  0  0  0  0  0
  -25.7419    7.0941    7.5003 C   0  0  0  0  0  0  0  0  0  0  0  0
  -26.3737    7.7127    9.7926 C   0  0  0  0  0  0  0  0  0  0  0  0
  -26.1994    6.6156   10.8953 C   0  0  0  0  0  0  0  0  0  0  0  0
  -26.7172    5.2030   10.4576 C   0  0  0  0  0  0  0  0  0  0  0  0
  -27.8816    4.6391   11.1869 N   0  3  0  0  0  0  0  0  0  0  0  0
  -27.5426    4.3360   12.6014 C   0  0  0  0  0  0  0  0  0  0  0  0
  -28.4180    3.4288   10.4731 C   0  0  0  0  0  0  0  0  0  0  0  0
  -21.7188    6.4205   11.6843 C   0  0  0  0  0  0  0  0  0  0  0  0
  -22.6458    5.8324   12.7204 C   0  0  0  0  0  0  0  0  0  0  0  0
  -20.5171    6.4032   11.8986 O   0  0  0  0  0  0  0  0  0  0  0  0
  1  7  1  0  0  0  0
  1  9  1  0  0  0  0
  2  8  1  0  0  0  0
  2 14  1  0  0  0  0
  2 15  1  0  0  0  0
  3  4  2  0  0  0  0
  3  8  1  0  0  0  0
  4  5  1  0  0  0  0
  4 21  1  0  0  0  0
  5  6  2  0  0  0  0
  6  7  1  0  0  0  0
  7  8  2  0  0  0  0
  9 10  2  0  0  0  0
  9 14  1  0  0  0  0
 10 11  1  0  0  0  0
 11 12  2  0  0  0  0
 12 13  1  0  0  0  0
 13 14  2  0  0  0  0
 15 16  1  0  0  0  0
 16 17  1  0  0  0  0
 17 18  1  0  0  0  0
 18 19  1  0  0  0  0
 18 20  1  0  0  0  0
 21 22  1  0  0  0  0
 21 23  2  0  0  0  0
M  CHG  1  18   1
M  END
>  <CHROM.1>
-45.76986205,8.07081703,-77.14637854,-114.72592664,53.37143468,-24.75754969
6.59701401,9.05519123,0.60903527,-0.37642837,-1.23302152

>  <Name>


>  <RI>
0

>  <Rbt.Current_Directory>
/home/itssahil/PROJECTS/Mol_Feturizer/New_Systems/rnas/1lvj

>  <Rbt.Executable>
rbdock ($Id: //depot/dev/client3/rdock/2013.1/src/exe/rbdock.cxx#4 $)

>  <Rbt.Library>
libRbt.so (2013.1, Build901 2013/11/27)

>  <Rbt.Parameter_File>
/export/apps/rDock/src/rDock_2013.1_src/data/scripts/dock_solv.prm

>  <Rbt.Receptor>
prm/pocket_docking_4.prm

>  <SCORE>
-26.1349

>  <SCORE.INTER>
-26.3228

>  <SCORE.INTER.CONST>
1

>  <SCORE.INTER.POLAR>
-0.714264

>  <SCORE.INTER.ROT>
5

>  <SCORE.INTER.SOLV>
15.8585

>  <SCORE.INTER.VDW>
-27.3872

>  <SCORE.INTER.norm>
-1.14447

>  <SCORE.INTRA>
0.187926

>  <SCORE.INTRA.DIHEDRAL>
-0.283043

>  <SCORE.INTRA.DIHEDRAL.0>
8.06479

>  <SCORE.INTRA.POLAR>
0

>  <SCORE.INTRA.POLAR.0>
0

>  <SCORE.INTRA.REPUL>
0

>  <SCORE.INTRA.REPUL.0>
0

>  <SCORE.INTRA.SOLV>
1.18666

>  <SCORE.INTRA.SOLV.lig_0>
-29.8054

>  <SCORE.INTRA.VDW>
-0.263884

>  <SCORE.INTRA.VDW.0>
2.61447

>  <SCORE.INTRA.norm>
0.00817071

>  <SCORE.RESTR>
0

>  <SCORE.RESTR.CAVITY>
0

>  <SCORE.RESTR.norm>
0

>  <SCORE.SYSTEM>
0

>  <SCORE.SYSTEM.CONST>
0

>  <SCORE.SYSTEM.DIHEDRAL>
0

>  <SCORE.SYSTEM.SOLV>
0

>  <SCORE.SYSTEM.norm>
0

>  <SCORE.heavy>
23

>  <SCORE.norm>
-1.1363

>  <RMSD>
3.392

$$$$

 OpenBabel11021811403D
libRbt.so/2013.1/901 2013/11/27
 23 25  0  0  0  0  0  0  0  0999 V2000
  -23.3680    7.4285    4.7266 S   0  0  0  0  0  0  0  0  0  0  0  0
  -25.0958    8.1876    7.0305 N   0  0  0  0  0  0  0  0  0  0  0  0
  -23.4850    7.7352    8.7667 C   0  0  0  0  0  0  0  0  0  0  0  0
  -22.1982    7.3145    9.1278 C   0  0  0  0  0  0  0  0  0  0  0  0
  -21.2827    6.9403    8.1489 C   0  0  0  0  0  0  0  0  0  0  0  0
  -21.6469    6.9795    6.8074 C   0  0  0  0  0  0  0  0  0  0  0  0
  -22.9239    7.3936    6.4370 C   0  0  0  0  0  0  0  0  0  0  0  0
  -23.8514    7.7746    7.4140 C   0  0  0  0  0  0  0  0  0  0  0  0
  -24.9849    6.8139    5.0771 C   0  0  0  0  0  0  0  0  0  0  0  0
  -25.5772    5.8748    4.2276 C   0  0  0  0  0  0  0  0  0  0  0  0
  -26.8599    5.3944    4.5060 C   0  0  0  0  0  0  0  0  0  0  0  0
  -27.5483    5.8582    5.6318 C   0  0  0  0  0  0  0  0  0  0  0  0
  -26.9516    6.7962    6.4751 C   0  0  0  0  0  0  0  0  0  0  0  0
  -25.6762    7.2723    6.2044 C   0  0  0  0  0  0  0  0  0  0  0  0
  -25.9471    8.9618    7.9676 C   0  0  0  0  0  0  0  0  0  0  0  0
  -26.0281    8.4521    9.4452 C   0  0  0  0  0  0  0  0  0  0  0  0
  -26.3765    6.9288    9.5618 C   0  0  0  0  0  0  0  0  0  0  0  0
  -26.2638    6.2963   10.9008 N   0  3  0  0  0  0  0  0  0  0  0  0
  -26.7298    4.8856   10.8769 C   0  0  0  0  0  0  0  0  0  0  0  0
  -26.9993    7.1063   11.9327 C   0  0  0  0  0  0  0  0  0  0  0  0
  -21.7970    7.2596   10.5744 C   0  0  0  0  0  0  0  0  0  0  0  0
  -20.9879    6.1157   11.1361 C   0  0  0  0  0  0  0  0  0  0  0  0
  -22.0784    8.1925   11.3097 O   0  0  0  0  0  0  0  0  0  0  0  0
  1  7  1  0  0  0  0
  1  9  1  0  0  0  0
  2  8  1  0  0  0  0
  2 14  1  0  0  0  0
  2 15  1  0  0  0  0
  3  4  2  0  0  0  0
  3  8  1  0  0  0  0
  4  5  1  0  0  0  0
  4 21  1  0  0  0  0
  5  6  2  0  0  0  0
  6  7  1  0  0  0  0
  7  8  2  0  0  0  0
  9 10  2  0  0  0  0
  9 14  1  0  0  0  0
 10 11  1  0  0  0  0
 11 12  2  0  0  0  0
 12 13  1  0  0  0  0
 13 14  2  0  0  0  0
 15 16  1  0  0  0  0
 16 17  1  0  0  0  0
 17 18  1  0  0  0  0
 18 19  1  0  0  0  0
 18 20  1  0  0  0  0
 21 22  1  0  0  0  0
 21 23  2  0  0  0  0
M  CHG  1  18   1
M  END
>  <CHROM.1>
-44.81572450,138.49958067,-50.95337474,170.38618379,-64.65832086,-24.50732047
7.06021754,7.94697812,-1.87950783,0.15095703,1.55985979

>  <Name>


>  <RI>
0

>  <Rbt.Current_Directory>
/home/itssahil/PROJECTS/Mol_Feturizer/New_Systems/rnas/1lvj

>  <Rbt.Executable>
rbdock ($Id: //depot/dev/client3/rdock/2013.1/src/exe/rbdock.cxx#4 $)

>  <Rbt.Library>
libRbt.so (2013.1, Build901 2013/11/27)

>  <Rbt.Parameter_File>
/export/apps/rDock/src/rDock_2013.1_src/data/scripts/dock_solv.prm

>  <Rbt.Receptor>
prm/blind_docking_100.prm

>  <SCORE>
-11.5664

>  <SCORE.INTER>
-16.7495

>  <SCORE.INTER.CONST>
1

>  <SCORE.INTER.POLAR>
-0.200413

>  <SCORE.INTER.ROT>
5

>  <SCORE.INTER.SOLV>
14.8566

>  <SCORE.INTER.VDW>
-22.3838

>  <SCORE.INTER.norm>
-0.728239

>  <SCORE.INTRA>
1.19438

>  <SCORE.INTRA.DIHEDRAL>
-0.312694

>  <SCORE.INTRA.DIHEDRAL.0>
8.06479

>  <SCORE.INTRA.POLAR>
0

>  <SCORE.INTRA.POLAR.0>
0

>  <SCORE.INTRA.REPUL>
0

>  <SCORE.INTRA.REPUL.0>
0

>  <SCORE.INTRA.SOLV>
2.30018

>  <SCORE.INTRA.SOLV.lig_0>
-29.8054

>  <SCORE.INTRA.VDW>
0.200632

>  <SCORE.INTRA.VDW.0>
2.61447

>  <SCORE.INTRA.norm>
0.0519294

>  <SCORE.RESTR>
3.98869

>  <SCORE.RESTR.CAVITY>
3.98869

>  <SCORE.RESTR.norm>
0.173421

>  <SCORE.SYSTEM>
0

>  <SCORE.SYSTEM.CONST>
0

>  <SCORE.SYSTEM.DIHEDRAL>
0

>  <SCORE.SYSTEM.SOLV>
0

>  <SCORE.SYSTEM.norm>
0

>  <SCORE.heavy>
23

>  <SCORE.norm>
-0.502889

>  <RMSD>
3.393

$$$$

 OpenBabel11021811403D
libRbt.so/2013.1/901 2013/11/27
 23 25  0  0  0  0  0  0  0  0999 V2000
  -23.1372    8.4325    6.5038 S   0  0  0  0  0  0  0  0  0  0  0  0
  -25.1888    8.1394    8.6425 N   0  0  0  0  0  0  0  0  0  0  0  0
  -23.7069    7.3235   10.3607 C   0  0  0  0  0  0  0  0  0  0  0  0
  -22.4107    6.9671   10.7555 C   0  0  0  0  0  0  0  0  0  0  0  0
  -21.3524    7.0660    9.8573 C   0  0  0  0  0  0  0  0  0  0  0  0
  -21.5821    7.5158    8.5617 C   0  0  0  0  0  0  0  0  0  0  0  0
  -22.8666    7.8704    8.1575 C   0  0  0  0  0  0  0  0  0  0  0  0
  -23.9377    7.7772    9.0543 C   0  0  0  0  0  0  0  0  0  0  0  0
  -24.6558    7.5405    6.3903 C   0  0  0  0  0  0  0  0  0  0  0  0
  -24.9954    6.8827    5.2044 C   0  0  0  0  0  0  0  0  0  0  0  0
  -26.2014    6.1816    5.1170 C   0  0  0  0  0  0  0  0  0  0  0  0
  -27.0665    6.1441    6.2154 C   0  0  0  0  0  0  0  0  0  0  0  0
  -26.7218    6.8036    7.3958 C   0  0  0  0  0  0  0  0  0  0  0  0
  -25.5230    7.4972    7.4879 C   0  0  0  0  0  0  0  0  0  0  0  0
  -26.2466    8.4354    9.6403 C   0  0  0  0  0  0  0  0  0  0  0  0
  -26.4093    7.4288   10.8278 C   0  0  0  0  0  0  0  0  0  0  0  0
  -26.4523    5.9297   10.3738 C   0  0  0  0  0  0  0  0  0  0  0  0
  -26.6325    4.8959   11.4249 N   0  3  0  0  0  0  0  0  0  0  0  0
  -25.3426    4.2482   11.7773 C   0  0  0  0  0  0  0  0  0  0  0  0
  -27.6638    3.8858   11.0028 C   0  0  0  0  0  0  0  0  0  0  0  0
  -22.1526    6.4713   12.1498 C   0  0  0  0  0  0  0  0  0  0  0  0
  -20.7761    6.0526   12.6067 C   0  0  0  0  0  0  0  0  0  0  0  0
  -23.0655    6.4603   12.9601 O   0  0  0  0  0  0  0  0  0  0  0  0
  1  7  1  0  0  0  0
  1  9  1  0  0  0  0
  2  8  1  0  0  0  0
  2 14  1  0  0  0  0
  2 15  1  0  0  0  0
  3  4  2  0  0  0  0
  3  8  1  0  0  0  0
  4  5  1  0  0  0  0
  4 21  1  0  0  0  0
  5  6  2  0  0  0  0
  6  7  1  0  0  0  0
  7  8  2  0  0  0  0
  9 10  2  0  0  0  0
  9 14  1  0  0  0  0
 10 11  1  0  0  0  0
 11 12  2  0  0  0  0
 12 13  1  0  0  0  0
 13 14  2  0  0  0  0
 15 16  1  0  0  0  0
 16 17  1  0  0  0  0
 17 18  1  0  0  0  0
 18 19  1  0  0  0  0
 18 20  1  0  0  0  0
 21 22  1  0  0  0  0
 21 23  2  0  0  0  0
M  CHG  1  18   1
M  END
>  <CHROM.1>
-46.10454598,178.82671482,-47.85707164,-178.78195816,19.15917752,-24.48309014
6.82347157,9.18800940,-1.88592328,0.34669632,1.91279927

>  <Name>


>  <RI>
0

>  <Rbt.Current_Directory>
/home/itssahil/PROJECTS/Mol_Feturizer/New_Systems/rnas/1lvj

>  <Rbt.Executable>
rbdock ($Id: //depot/dev/client3/rdock/2013.1/src/exe/rbdock.cxx#4 $)

>  <Rbt.Library>
libRbt.so (2013.1, Build901 2013/11/27)

>  <Rbt.Parameter_File>
/export/apps/rDock/src/rDock_2013.1_src/data/scripts/dock_solv.prm

>  <Rbt.Receptor>
prm/pocket_docking_4.prm

>  <SCORE>
-32.8207

>  <SCORE.INTER>
-30.8533

>  <SCORE.INTER.CONST>
1

>  <SCORE.INTER.POLAR>
0

>  <SCORE.INTER.ROT>
5

>  <SCORE.INTER.SOLV>
11.9263

>  <SCORE.INTER.VDW>
-31.4776

>  <SCORE.INTER.norm>
-1.34145

>  <SCORE.INTRA>
-1.96741

>  <SCORE.INTRA.DIHEDRAL>
-3.63631

>  <SCORE.INTRA.DIHEDRAL.0>
8.06479

>  <SCORE.INTRA.POLAR>
0

>  <SCORE.INTRA.POLAR.0>
0

>  <SCORE.INTRA.REPUL>
0

>  <SCORE.INTRA.REPUL.0>
0

>  <SCORE.INTRA.SOLV>
1.2027

>  <SCORE.INTRA.SOLV.lig_0>
-29.8054

>  <SCORE.INTRA.VDW>
-0.750605

>  <SCORE.INTRA.VDW.0>
2.61447

>  <SCORE.INTRA.norm>
-0.0855395

>  <SCORE.RESTR>
0

>  <SCORE.RESTR.CAVITY>
0

>  <SCORE.RESTR.norm>
0

>  <SCORE.SYSTEM>
0

>  <SCORE.SYSTEM.CONST>
0

>  <SCORE.SYSTEM.DIHEDRAL>
0

>  <SCORE.SYSTEM.SOLV>
0

>  <SCORE.SYSTEM.norm>
0

>  <SCORE.heavy>
23

>  <SCORE.norm>
-1.42699

>  <RMSD>
3.408

$$$$

 OpenBabel11021811403D
libRbt.so/2013.1/901 2013/11/27
 23 25  0  0  0  0  0  0  0  0999 V2000
  -23.1085    8.5449    6.2326 S   0  0  0  0  0  0  0  0  0  0  0  0
  -25.2168    7.7480    8.1792 N   0  0  0  0  0  0  0  0  0  0  0  0
  -23.7340    7.0069    9.9303 C   0  0  0  0  0  0  0  0  0  0  0  0
  -22.4248    6.8138   10.3904 C   0  0  0  0  0  0  0  0  0  0  0  0
  -21.3417    7.1542    9.5856 C   0  0  0  0  0  0  0  0  0  0  0  0
  -21.5588    7.6837    8.3182 C   0  0  0  0  0  0  0  0  0  0  0  0
  -22.8557    7.8776    7.8496 C   0  0  0  0  0  0  0  0  0  0  0  0
  -23.9521    7.5410    8.6525 C   0  0  0  0  0  0  0  0  0  0  0  0
  -24.4592    7.4495    5.9315 C   0  0  0  0  0  0  0  0  0  0  0  0
  -24.6181    6.8621    4.6730 C   0  0  0  0  0  0  0  0  0  0  0  0
  -25.6920    5.9990    4.4372 C   0  0  0  0  0  0  0  0  0  0  0  0
  -26.6065    5.7294    5.4606 C   0  0  0  0  0  0  0  0  0  0  0  0
  -26.4424    6.3197    6.7142 C   0  0  0  0  0  0  0  0  0  0  0  0
  -25.3748    7.1738    6.9535 C   0  0  0  0  0  0  0  0  0  0  0  0
  -26.3671    7.7870    9.1158 C   0  0  0  0  0  0  0  0  0  0  0  0
  -26.6246    6.5101    9.9836 C   0  0  0  0  0  0  0  0  0  0  0  0
  -26.1697    6.6666   11.4748 C   0  0  0  0  0  0  0  0  0  0  0  0
  -26.0822    5.4361   12.3018 N   0  3  0  0  0  0  0  0  0  0  0  0
  -25.0851    4.4814   11.7523 C   0  0  0  0  0  0  0  0  0  0  0  0
  -27.4370    4.7999   12.4496 C   0  0  0  0  0  0  0  0  0  0  0  0
  -22.1786    6.2341   11.7542 C   0  0  0  0  0  0  0  0  0  0  0  0
  -22.5255    6.9861   13.0163 C   0  0  0  0  0  0  0  0  0  0  0  0
  -21.7410    5.0988   11.8523 O   0  0  0  0  0  0  0  0  0  0  0  0
  1  7  1  0  0  0  0
  1  9  1  0  0  0  0
  2  8  1  0  0  0  0
  2 14  1  0  0  0  0
  2 15  1  0  0  0  0
  3  4  2  0  0  0  0
  3  8  1  0  0  0  0
  4  5  1  0  0  0  0
  4 21  1  0  0  0  0
  5  6  2  0  0  0  0
  6  7  1  0  0  0  0
  7  8  2  0  0  0  0
  9 10  2  0  0  0  0
  9 14  1  0  0  0  0
 10 11  1  0  0  0  0
 11 12  2  0  0  0  0
 12 13  1  0  0  0  0
 13 14  2  0  0  0  0
 15 16  1  0  0  0  0
 16 17  1  0  0  0  0
 17 18  1  0  0  0  0
 18 19  1  0  0  0  0
 18 20  1  0  0  0  0
 21 22  1  0  0  0  0
 21 23  2  0  0  0  0
M  CHG  1  18   1
M  END
>  <CHROM.1>
-59.29654580,-67.89108659,103.93852545,-166.52023671,-178.36978248,-24.37391068
6.75126774,8.96745470,-1.63176687,0.28867822,1.81723024

>  <Name>


>  <RI>
0

>  <Rbt.Current_Directory>
/home/itssahil/PROJECTS/Mol_Feturizer/New_Systems/rnas/1lvj

>  <Rbt.Executable>
rbdock ($Id: //depot/dev/client3/rdock/2013.1/src/exe/rbdock.cxx#4 $)

>  <Rbt.Library>
libRbt.so (2013.1, Build901 2013/11/27)

>  <Rbt.Parameter_File>
/export/apps/rDock/src/rDock_2013.1_src/data/scripts/dock_solv.prm

>  <Rbt.Receptor>
prm/pocket_docking_2.prm

>  <SCORE>
-18.2212

>  <SCORE.INTER>
-23.4778

>  <SCORE.INTER.CONST>
1

>  <SCORE.INTER.POLAR>
0

>  <SCORE.INTER.ROT>
5

>  <SCORE.INTER.SOLV>
11.2624

>  <SCORE.INTER.VDW>
-26.3393

>  <SCORE.INTER.norm>
-1.02077

>  <SCORE.INTRA>
3.18568

>  <SCORE.INTRA.DIHEDRAL>
8.8276

>  <SCORE.INTRA.DIHEDRAL.0>
8.06479

>  <SCORE.INTRA.POLAR>
0

>  <SCORE.INTRA.POLAR.0>
0

>  <SCORE.INTRA.REPUL>
0

>  <SCORE.INTRA.REPUL.0>
0

>  <SCORE.INTRA.SOLV>
1.06977

>  <SCORE.INTRA.SOLV.lig_0>
-29.8054

>  <SCORE.INTRA.VDW>
-1.76301

>  <SCORE.INTRA.VDW.0>
2.61447

>  <SCORE.INTRA.norm>
0.138508

>  <SCORE.RESTR>
2.07093

>  <SCORE.RESTR.CAVITY>
2.07093

>  <SCORE.RESTR.norm>
0.0900404

>  <SCORE.SYSTEM>
0

>  <SCORE.SYSTEM.CONST>
0

>  <SCORE.SYSTEM.DIHEDRAL>
0

>  <SCORE.SYSTEM.SOLV>
0

>  <SCORE.SYSTEM.norm>
0

>  <SCORE.heavy>
23

>  <SCORE.norm>
-0.792227

>  <RMSD>
3.431

$$$$

 OpenBabel11021811403D
libRbt.so/2013.1/901 2013/11/27
 23 25  0  0  0  0  0  0  0  0999 V2000
  -22.9254    8.3498    6.9053 S   0  0  0  0  0  0  0  0  0  0  0  0
  -25.1215    8.1017    8.9014 N   0  0  0  0  0  0  0  0  0  0  0  0
  -23.8031    7.1246   10.6680 C   0  0  0  0  0  0  0  0  0  0  0  0
  -22.5584    6.6707   11.1240 C   0  0  0  0  0  0  0  0  0  0  0  0
  -21.4417    6.7383   10.2965 C   0  0  0  0  0  0  0  0  0  0  0  0
  -21.5616    7.2537    9.0105 C   0  0  0  0  0  0  0  0  0  0  0  0
  -22.7942    7.7054    8.5458 C   0  0  0  0  0  0  0  0  0  0  0  0
  -23.9232    7.6443    9.3715 C   0  0  0  0  0  0  0  0  0  0  0  0
  -24.4855    7.5616    6.6611 C   0  0  0  0  0  0  0  0  0  0  0  0
  -24.7893    6.9751    5.4291 C   0  0  0  0  0  0  0  0  0  0  0  0
  -26.0280    6.3562    5.2382 C   0  0  0  0  0  0  0  0  0  0  0  0
  -26.9611    6.3296    6.2798 C   0  0  0  0  0  0  0  0  0  0  0  0
  -26.6517    6.9176    7.5068 C   0  0  0  0  0  0  0  0  0  0  0  0
  -25.4210    7.5292    7.7016 C   0  0  0  0  0  0  0  0  0  0  0  0
  -26.2199    8.4239    9.8458 C   0  0  0  0  0  0  0  0  0  0  0  0
  -26.5095    7.3888   10.9836 C   0  0  0  0  0  0  0  0  0  0  0  0
  -26.5243    5.9028   10.4866 C   0  0  0  0  0  0  0  0  0  0  0  0
  -26.7867    4.8420   11.4924 N   0  3  0  0  0  0  0  0  0  0  0  0
  -25.5470    4.0974   11.8334 C   0  0  0  0  0  0  0  0  0  0  0  0
  -27.8754    3.9195   11.0173 C   0  0  0  0  0  0  0  0  0  0  0  0
  -22.4192    6.1036   12.5081 C   0  0  0  0  0  0  0  0  0  0  0  0
  -21.1295    5.4868   12.9926 C   0  0  0  0  0  0  0  0  0  0  0  0
  -23.3530    6.1943   13.2892 O   0  0  0  0  0  0  0  0  0  0  0  0
  1  7  1  0  0  0  0
  1  9  1  0  0  0  0
  2  8  1  0  0  0  0
  2 14  1  0  0  0  0
  2 15  1  0  0  0  0
  3  4  2  0  0  0  0
  3  8  1  0  0  0  0
  4  5  1  0  0  0  0
  4 21  1  0  0  0  0
  5  6  2  0  0  0  0
  6  7  1  0  0  0  0
  7  8  2  0  0  0  0
  9 10  2  0  0  0  0
  9 14  1  0  0  0  0
 10 11  1  0  0  0  0
 11 12  2  0  0  0  0
 12 13  1  0  0  0  0
 13 14  2  0  0  0  0
 15 16  1  0  0  0  0
 16 17  1  0  0  0  0
 17 18  1  0  0  0  0
 18 19  1  0  0  0  0
 18 20  1  0  0  0  0
 21 22  1  0  0  0  0
 21 23  2  0  0  0  0
M  CHG  1  18   1
M  END
>  <CHROM.1>
-45.55836907,174.19775608,-44.48766216,179.81715178,14.15625687,-24.50862247
6.72139714,9.43742467,-1.80051887,0.30747942,1.93197116

>  <Name>


>  <RI>
0

>  <Rbt.Current_Directory>
/home/itssahil/PROJECTS/Mol_Feturizer/New_Systems/rnas/1lvj

>  <Rbt.Executable>
rbdock ($Id: //depot/dev/client3/rdock/2013.1/src/exe/rbdock.cxx#4 $)

>  <Rbt.Library>
libRbt.so (2013.1, Build901 2013/11/27)

>  <Rbt.Parameter_File>
/export/apps/rDock/src/rDock_2013.1_src/data/scripts/dock_solv.prm

>  <Rbt.Receptor>
prm/pocket_docking_3.prm

>  <SCORE>
-31.051

>  <SCORE.INTER>
-30.3039

>  <SCORE.INTER.CONST>
1

>  <SCORE.INTER.POLAR>
0

>  <SCORE.INTER.ROT>
5

>  <SCORE.INTER.SOLV>
11.0706

>  <SCORE.INTER.VDW>
-30.8262

>  <SCORE.INTER.norm>
-1.31756

>  <SCORE.INTRA>
-1.22226

>  <SCORE.INTRA.DIHEDRAL>
-2.7794

>  <SCORE.INTRA.DIHEDRAL.0>
8.06479

>  <SCORE.INTRA.POLAR>
0

>  <SCORE.INTRA.POLAR.0>
0

>  <SCORE.INTRA.REPUL>
0

>  <SCORE.INTRA.REPUL.0>
0

>  <SCORE.INTRA.SOLV>
1.28487

>  <SCORE.INTRA.SOLV.lig_0>
-29.8054

>  <SCORE.INTRA.VDW>
-0.474993

>  <SCORE.INTRA.VDW.0>
2.61447

>  <SCORE.INTRA.norm>
-0.0531417

>  <SCORE.RESTR>
0.475226

>  <SCORE.RESTR.CAVITY>
0.475226

>  <SCORE.RESTR.norm>
0.020662

>  <SCORE.SYSTEM>
0

>  <SCORE.SYSTEM.CONST>
0

>  <SCORE.SYSTEM.DIHEDRAL>
0

>  <SCORE.SYSTEM.SOLV>
0

>  <SCORE.SYSTEM.norm>
0

>  <SCORE.heavy>
23

>  <SCORE.norm>
-1.35004

>  <RMSD>
3.445

$$$$

 OpenBabel11021811403D
libRbt.so/2013.1/901 2013/11/27
 23 25  0  0  0  0  0  0  0  0999 V2000
  -23.1189    8.5395    6.1901 S   0  0  0  0  0  0  0  0  0  0  0  0
  -25.2132    7.7551    8.1568 N   0  0  0  0  0  0  0  0  0  0  0  0
  -23.7180    7.0349    9.9060 C   0  0  0  0  0  0  0  0  0  0  0  0
  -22.4055    6.8500   10.3601 C   0  0  0  0  0  0  0  0  0  0  0  0
  -21.3283    7.1858    9.5457 C   0  0  0  0  0  0  0  0  0  0  0  0
  -21.5544    7.7026    8.2747 C   0  0  0  0  0  0  0  0  0  0  0  0
  -22.8546    7.8883    7.8119 C   0  0  0  0  0  0  0  0  0  0  0  0
  -23.9452    7.5562    8.6245 C   0  0  0  0  0  0  0  0  0  0  0  0
  -24.4681    7.4374    5.9076 C   0  0  0  0  0  0  0  0  0  0  0  0
  -24.6328    6.8376    4.6557 C   0  0  0  0  0  0  0  0  0  0  0  0
  -25.7056    5.9692    4.4345 C   0  0  0  0  0  0  0  0  0  0  0  0
  -26.6133    5.7068    5.4658 C   0  0  0  0  0  0  0  0  0  0  0  0
  -26.4434    6.3095    6.7128 C   0  0  0  0  0  0  0  0  0  0  0  0
  -25.3768    7.1689    6.9375 C   0  0  0  0  0  0  0  0  0  0  0  0
  -26.3581    7.7998    9.0998 C   0  0  0  0  0  0  0  0  0  0  0  0
  -26.6190    6.5230    9.9667 C   0  0  0  0  0  0  0  0  0  0  0  0
  -26.1117    6.6567   11.4432 C   0  0  0  0  0  0  0  0  0  0  0  0
  -26.0994    5.4308   12.2817 N   0  3  0  0  0  0  0  0  0  0  0  0
  -25.2094    4.3885   11.7080 C   0  0  0  0  0  0  0  0  0  0  0  0
  -27.4974    4.9155   12.4867 C   0  0  0  0  0  0  0  0  0  0  0  0
  -22.1496    6.2840   11.7279 C   0  0  0  0  0  0  0  0  0  0  0  0
  -20.8001    5.7374   12.1264 C   0  0  0  0  0  0  0  0  0  0  0  0
  -23.0366    6.3184   12.5658 O   0  0  0  0  0  0  0  0  0  0  0  0
  1  7  1  0  0  0  0
  1  9  1  0  0  0  0
  2  8  1  0  0  0  0
  2 14  1  0  0  0  0
  2 15  1  0  0  0  0
  3  4  2  0  0  0  0
  3  8  1  0  0  0  0
  4  5  1  0  0  0  0
  4 21  1  0  0  0  0
  5  6  2  0  0  0  0
  6  7  1  0  0  0  0
  7  8  2  0  0  0  0
  9 10  2  0  0  0  0
  9 14  1  0  0  0  0
 10 11  1  0  0  0  0
 11 12  2  0  0  0  0
 12 13  1  0  0  0  0
 13 14  2  0  0  0  0
 15 16  1  0  0  0  0
 16 17  1  0  0  0  0
 17 18  1  0  0  0  0
 18 19  1  0  0  0  0
 18 20  1  0  0  0  0
 21 22  1  0  0  0  0
 21 23  2  0  0  0  0
M  CHG  1  18   1
M  END
>  <CHROM.1>
-60.13428658,163.88673065,102.01626665,-169.84199831,-179.02830068,-24.36327296
6.75787089,8.94141728,-1.63838166,0.27040445,1.81833457

>  <Name>


>  <RI>
0

>  <Rbt.Current_Directory>
/home/itssahil/PROJECTS/Mol_Feturizer/New_Systems/rnas/1lvj

>  <Rbt.Executable>
rbdock ($Id: //depot/dev/client3/rdock/2013.1/src/exe/rbdock.cxx#4 $)

>  <Rbt.Library>
libRbt.so (2013.1, Build901 2013/11/27)

>  <Rbt.Parameter_File>
/export/apps/rDock/src/rDock_2013.1_src/data/scripts/dock_solv.prm

>  <Rbt.Receptor>
prm/pocket_docking_2.prm

>  <SCORE>
-21.3161

>  <SCORE.INTER>
-23.5637

>  <SCORE.INTER.CONST>
1

>  <SCORE.INTER.POLAR>
0

>  <SCORE.INTER.ROT>
5

>  <SCORE.INTER.SOLV>
11.237

>  <SCORE.INTER.VDW>
-26.3881

>  <SCORE.INTER.norm>
-1.02451

>  <SCORE.INTRA>
-0.376965

>  <SCORE.INTRA.DIHEDRAL>
-1.71703

>  <SCORE.INTRA.DIHEDRAL.0>
8.06479

>  <SCORE.INTRA.POLAR>
0

>  <SCORE.INTRA.POLAR.0>
0

>  <SCORE.INTRA.REPUL>
0

>  <SCORE.INTRA.REPUL.0>
0

>  <SCORE.INTRA.SOLV>
1.54395

>  <SCORE.INTRA.SOLV.lig_0>
-29.8054

>  <SCORE.INTRA.VDW>
-0.290427

>  <SCORE.INTRA.VDW.0>
2.61447

>  <SCORE.INTRA.norm>
-0.0163898

>  <SCORE.RESTR>
2.62455

>  <SCORE.RESTR.CAVITY>
2.62455

>  <SCORE.RESTR.norm>
0.114111

>  <SCORE.SYSTEM>
0

>  <SCORE.SYSTEM.CONST>
0

>  <SCORE.SYSTEM.DIHEDRAL>
0

>  <SCORE.SYSTEM.SOLV>
0

>  <SCORE.SYSTEM.norm>
0

>  <SCORE.heavy>
23

>  <SCORE.norm>
-0.926787

>  <RMSD>
3.454

$$$$

 OpenBabel11021811403D
libRbt.so/2013.1/901 2013/11/27
 23 25  0  0  0  0  0  0  0  0999 V2000
  -23.4111    8.4625    6.4007 S   0  0  0  0  0  0  0  0  0  0  0  0
  -25.4871    7.4283    8.2689 N   0  0  0  0  0  0  0  0  0  0  0  0
  -23.9769    6.6056    9.9591 C   0  0  0  0  0  0  0  0  0  0  0  0
  -22.6612    6.4270   10.4065 C   0  0  0  0  0  0  0  0  0  0  0  0
  -21.5922    6.8737    9.6358 C   0  0  0  0  0  0  0  0  0  0  0  0
  -21.8295    7.4956    8.4149 C   0  0  0  0  0  0  0  0  0  0  0  0
  -23.1328    7.6762    7.9590 C   0  0  0  0  0  0  0  0  0  0  0  0
  -24.2154    7.2330    8.7281 C   0  0  0  0  0  0  0  0  0  0  0  0
  -24.7178    7.3433    6.0070 C   0  0  0  0  0  0  0  0  0  0  0  0
  -24.8533    6.8544    4.7044 C   0  0  0  0  0  0  0  0  0  0  0  0
  -25.8926    5.9722    4.3956 C   0  0  0  0  0  0  0  0  0  0  0  0
  -26.7961    5.5848    5.3906 C   0  0  0  0  0  0  0  0  0  0  0  0
  -26.6555    6.0771    6.6886 C   0  0  0  0  0  0  0  0  0  0  0  0
  -25.6222    6.9500    7.0001 C   0  0  0  0  0  0  0  0  0  0  0  0
  -26.6383    7.3462    9.2017 C   0  0  0  0  0  0  0  0  0  0  0  0
  -26.4251    7.9020   10.6492 C   0  0  0  0  0  0  0  0  0  0  0  0
  -26.1799    6.7825   11.7178 C   0  0  0  0  0  0  0  0  0  0  0  0
  -27.0847    5.6048   11.7026 N   0  3  0  0  0  0  0  0  0  0  0  0
  -27.5873    5.2874   13.0643 C   0  0  0  0  0  0  0  0  0  0  0  0
  -26.4028    4.4214   11.0728 C   0  0  0  0  0  0  0  0  0  0  0  0
  -22.3929    5.7484   11.7195 C   0  0  0  0  0  0  0  0  0  0  0  0
  -21.1234    5.9911   12.4994 C   0  0  0  0  0  0  0  0  0  0  0  0
  -23.2474    5.0245   12.2052 O   0  0  0  0  0  0  0  0  0  0  0  0
  1  7  1  0  0  0  0
  1  9  1  0  0  0  0
  2  8  1  0  0  0  0
  2 14  1  0  0  0  0
  2 15  1  0  0  0  0
  3  4  2  0  0  0  0
  3  8  1  0  0  0  0
  4  5  1  0  0  0  0
  4 21  1  0  0  0  0
  5  6  2  0  0  0  0
  6  7  1  0  0  0  0
  7  8  2  0  0  0  0
  9 10  2  0  0  0  0
  9 14  1  0  0  0  0
 10 11  1  0  0  0  0
 11 12  2  0  0  0  0
 12 13  1  0  0  0  0
 13 14  2  0  0  0  0
 15 16  1  0  0  0  0
 16 17  1  0  0  0  0
 17 18  1  0  0  0  0
 18 19  1  0  0  0  0
 18 20  1  0  0  0  0
 21 22  1  0  0  0  0
 21 23  2  0  0  0  0
M  CHG  1  18   1
M  END
>  <CHROM.1>
36.75977316,-155.60418411,-101.67361179,-46.52285422,-12.33121102,-24.66311932
6.63898113,9.00204823,-1.62357774,0.20282685,1.79499012

>  <Name>


>  <RI>
0

>  <Rbt.Current_Directory>
/home/itssahil/PROJECTS/Mol_Feturizer/New_Systems/rnas/1lvj

>  <Rbt.Executable>
rbdock ($Id: //depot/dev/client3/rdock/2013.1/src/exe/rbdock.cxx#4 $)

>  <Rbt.Library>
libRbt.so (2013.1, Build901 2013/11/27)

>  <Rbt.Parameter_File>
/export/apps/rDock/src/rDock_2013.1_src/data/scripts/dock_solv.prm

>  <Rbt.Receptor>
prm/pocket_docking_2.prm

>  <SCORE>
-28.3967

>  <SCORE.INTER>
-33.8232

>  <SCORE.INTER.CONST>
1

>  <SCORE.INTER.POLAR>
-1.1619

>  <SCORE.INTER.ROT>
5

>  <SCORE.INTER.SOLV>
14.4146

>  <SCORE.INTER.VDW>
-30.4141

>  <SCORE.INTER.norm>
-1.47058

>  <SCORE.INTRA>
1.81836

>  <SCORE.INTRA.DIHEDRAL>
2.3947

>  <SCORE.INTRA.DIHEDRAL.0>
8.06479

>  <SCORE.INTRA.POLAR>
0

>  <SCORE.INTRA.POLAR.0>
0

>  <SCORE.INTRA.REPUL>
0

>  <SCORE.INTRA.REPUL.0>
0

>  <SCORE.INTRA.SOLV>
2.99246

>  <SCORE.INTRA.SOLV.lig_0>
-29.8054

>  <SCORE.INTRA.VDW>
-0.875223

>  <SCORE.INTRA.VDW.0>
2.61447

>  <SCORE.INTRA.norm>
0.079059

>  <SCORE.RESTR>
3.60823

>  <SCORE.RESTR.CAVITY>
3.60823

>  <SCORE.RESTR.norm>
0.156879

>  <SCORE.SYSTEM>
0

>  <SCORE.SYSTEM.CONST>
0

>  <SCORE.SYSTEM.DIHEDRAL>
0

>  <SCORE.SYSTEM.SOLV>
0

>  <SCORE.SYSTEM.norm>
0

>  <SCORE.heavy>
23

>  <SCORE.norm>
-1.23464

>  <RMSD>
3.461

$$$$

 OpenBabel11021811403D
libRbt.so/2013.1/901 2013/11/27
 23 25  0  0  0  0  0  0  0  0999 V2000
  -23.1016    8.3902    6.4886 S   0  0  0  0  0  0  0  0  0  0  0  0
  -25.1408    8.2385    8.6538 N   0  0  0  0  0  0  0  0  0  0  0  0
  -23.6665    7.4479   10.3903 C   0  0  0  0  0  0  0  0  0  0  0  0
  -22.3772    7.0702   10.7880 C   0  0  0  0  0  0  0  0  0  0  0  0
  -21.3249    7.1042    9.8780 C   0  0  0  0  0  0  0  0  0  0  0  0
  -21.5539    7.5099    8.5678 C   0  0  0  0  0  0  0  0  0  0  0  0
  -22.8317    7.8851    8.1607 C   0  0  0  0  0  0  0  0  0  0  0  0
  -23.8966    7.8571    9.0692 C   0  0  0  0  0  0  0  0  0  0  0  0
  -24.6458    7.5381    6.4223 C   0  0  0  0  0  0  0  0  0  0  0  0
  -25.0146    6.8448    5.2658 C   0  0  0  0  0  0  0  0  0  0  0  0
  -26.2407    6.1754    5.2156 C   0  0  0  0  0  0  0  0  0  0  0  0
  -27.0962    6.2051    6.3217 C   0  0  0  0  0  0  0  0  0  0  0  0
  -26.7222    6.8996    7.4727 C   0  0  0  0  0  0  0  0  0  0  0  0
  -25.5036    7.5619    7.5279 C   0  0  0  0  0  0  0  0  0  0  0  0
  -26.1805    8.6028    9.6480 C   0  0  0  0  0  0  0  0  0  0  0  0
  -26.3027    7.6959   10.9179 C   0  0  0  0  0  0  0  0  0  0  0  0
  -26.3744    6.1659   10.5876 C   0  0  0  0  0  0  0  0  0  0  0  0
  -27.2054    5.3082   11.4706 N   0  3  0  0  0  0  0  0  0  0  0  0
  -26.8063    5.4464   12.8951 C   0  0  0  0  0  0  0  0  0  0  0  0
  -27.1552    3.8752   11.0166 C   0  0  0  0  0  0  0  0  0  0  0  0
  -22.1201    6.6216   12.1984 C   0  0  0  0  0  0  0  0  0  0  0  0
  -23.2261    6.5308   13.2218 C   0  0  0  0  0  0  0  0  0  0  0  0
  -20.9982    6.2614   12.5172 O   0  0  0  0  0  0  0  0  0  0  0  0
  1  7  1  0  0  0  0
  1  9  1  0  0  0  0
  2  8  1  0  0  0  0
  2 14  1  0  0  0  0
  2 15  1  0  0  0  0
  3  4  2  0  0  0  0
  3  8  1  0  0  0  0
  4  5  1  0  0  0  0
  4 21  1  0  0  0  0
  5  6  2  0  0  0  0
  6  7  1  0  0  0  0
  7  8  2  0  0  0  0
  9 10  2  0  0  0  0
  9 14  1  0  0  0  0
 10 11  1  0  0  0  0
 11 12  2  0  0  0  0
 12 13  1  0  0  0  0
 13 14  2  0  0  0  0
 15 16  1  0  0  0  0
 16 17  1  0  0  0  0
 17 18  1  0  0  0  0
 18 19  1  0  0  0  0
 18 20  1  0  0  0  0
 21 22  1  0  0  0  0
 21 23  2  0  0  0  0
M  CHG  1  18   1
M  END
>  <CHROM.1>
-42.54637816,1.35332126,-49.47098178,-146.27585798,65.16782850,-24.54365053
6.96324116,9.28034830,-1.73339285,0.29128134,1.82310446

>  <Name>


>  <RI>
0

>  <Rbt.Current_Directory>
/home/itssahil/PROJECTS/Mol_Feturizer/New_Systems/rnas/1lvj

>  <Rbt.Executable>
rbdock ($Id: //depot/dev/client3/rdock/2013.1/src/exe/rbdock.cxx#4 $)

>  <Rbt.Library>
libRbt.so (2013.1, Build901 2013/11/27)

>  <Rbt.Parameter_File>
/export/apps/rDock/src/rDock_2013.1_src/data/scripts/dock_solv.prm

>  <Rbt.Receptor>
prm/pocket_docking_4.prm

>  <SCORE>
-30.9474

>  <SCORE.INTER>
-30.8335

>  <SCORE.INTER.CONST>
1

>  <SCORE.INTER.POLAR>
-0.741515

>  <SCORE.INTER.ROT>
5

>  <SCORE.INTER.SOLV>
14.3882

>  <SCORE.INTER.VDW>
-29.8133

>  <SCORE.INTER.norm>
-1.34058

>  <SCORE.INTRA>
-0.113993

>  <SCORE.INTRA.DIHEDRAL>
-3.164

>  <SCORE.INTRA.DIHEDRAL.0>
8.06479

>  <SCORE.INTRA.POLAR>
0

>  <SCORE.INTRA.POLAR.0>
0

>  <SCORE.INTRA.REPUL>
0

>  <SCORE.INTRA.REPUL.0>
0

>  <SCORE.INTRA.SOLV>
0.653113

>  <SCORE.INTRA.SOLV.lig_0>
-29.8054

>  <SCORE.INTRA.VDW>
1.14145

>  <SCORE.INTRA.VDW.0>
2.61447

>  <SCORE.INTRA.norm>
-0.00495622

>  <SCORE.RESTR>
0

>  <SCORE.RESTR.CAVITY>
0

>  <SCORE.RESTR.norm>
0

>  <SCORE.SYSTEM>
0

>  <SCORE.SYSTEM.CONST>
0

>  <SCORE.SYSTEM.DIHEDRAL>
0

>  <SCORE.SYSTEM.SOLV>
0

>  <SCORE.SYSTEM.norm>
0

>  <SCORE.heavy>
23

>  <SCORE.norm>
-1.34554

>  <RMSD>
3.470

$$$$

 OpenBabel11021811403D
libRbt.so/2013.1/901 2013/11/27
 23 25  0  0  0  0  0  0  0  0999 V2000
  -23.3992    8.5388    6.3324 S   0  0  0  0  0  0  0  0  0  0  0  0
  -25.3214    7.9783    8.5370 N   0  0  0  0  0  0  0  0  0  0  0  0
  -23.6966    7.2587   10.1669 C   0  0  0  0  0  0  0  0  0  0  0  0
  -22.3565    7.0192   10.4985 C   0  0  0  0  0  0  0  0  0  0  0  0
  -21.3514    7.2499    9.5641 C   0  0  0  0  0  0  0  0  0  0  0  0
  -21.6777    7.7154    8.2950 C   0  0  0  0  0  0  0  0  0  0  0  0
  -23.0064    7.9544    7.9536 C   0  0  0  0  0  0  0  0  0  0  0  0
  -24.0249    7.7282    8.8872 C   0  0  0  0  0  0  0  0  0  0  0  0
  -24.8276    7.5058    6.2462 C   0  0  0  0  0  0  0  0  0  0  0  0
  -25.1511    6.8553    5.0518 C   0  0  0  0  0  0  0  0  0  0  0  0
  -26.2860    6.0421    4.9863 C   0  0  0  0  0  0  0  0  0  0  0  0
  -27.0966    5.8853    6.1153 C   0  0  0  0  0  0  0  0  0  0  0  0
  -26.7684    6.5380    7.3041 C   0  0  0  0  0  0  0  0  0  0  0  0
  -25.6397    7.3429    7.3743 C   0  0  0  0  0  0  0  0  0  0  0  0
  -26.3601    8.1375    9.5848 C   0  0  0  0  0  0  0  0  0  0  0  0
  -26.4473    7.0213   10.6786 C   0  0  0  0  0  0  0  0  0  0  0  0
  -26.3447    5.5694   10.0984 C   0  0  0  0  0  0  0  0  0  0  0  0
  -25.9047    4.4890   11.0177 N   0  3  0  0  0  0  0  0  0  0  0  0
  -27.0264    4.0034   11.8624 C   0  0  0  0  0  0  0  0  0  0  0  0
  -24.7391    4.9453   11.8514 C   0  0  0  0  0  0  0  0  0  0  0  0
  -21.9934    6.5077   11.8634 C   0  0  0  0  0  0  0  0  0  0  0  0
  -20.8195    5.5848   12.0843 C   0  0  0  0  0  0  0  0  0  0  0  0
  -22.6247    6.8926   12.8347 O   0  0  0  0  0  0  0  0  0  0  0  0
  1  7  1  0  0  0  0
  1  9  1  0  0  0  0
  2  8  1  0  0  0  0
  2 14  1  0  0  0  0
  2 15  1  0  0  0  0
  3  4  2  0  0  0  0
  3  8  1  0  0  0  0
  4  5  1  0  0  0  0
  4 21  1  0  0  0  0
  5  6  2  0  0  0  0
  6  7  1  0  0  0  0
  7  8  2  0  0  0  0
  9 10  2  0  0  0  0
  9 14  1  0  0  0  0
 10 11  1  0  0  0  0
 11 12  2  0  0  0  0
 12 13  1  0  0  0  0
 13 14  2  0  0  0  0
 15 16  1  0  0  0  0
 16 17  1  0  0  0  0
 17 18  1  0  0  0  0
 18 19  1  0  0  0  0
 18 20  1  0  0  0  0
 21 22  1  0  0  0  0
 21 23  2  0  0  0  0
M  CHG  1  18   1
M  END
>  <CHROM.1>
-50.80010580,147.21982172,-43.89493783,157.36554843,-158.89097355,-24.43118908
6.77881945,9.04418568,-1.93072444,0.36904017,1.93578961

>  <Name>


>  <RI>
0

>  <Rbt.Current_Directory>
/home/itssahil/PROJECTS/Mol_Feturizer/New_Systems/rnas/1lvj

>  <Rbt.Executable>
rbdock ($Id: //depot/dev/client3/rdock/2013.1/src/exe/rbdock.cxx#4 $)

>  <Rbt.Library>
libRbt.so (2013.1, Build901 2013/11/27)

>  <Rbt.Parameter_File>
/export/apps/rDock/src/rDock_2013.1_src/data/scripts/dock_solv.prm

>  <Rbt.Receptor>
prm/pocket_docking_2.prm

>  <SCORE>
-28.3231

>  <SCORE.INTER>
-33.3512

>  <SCORE.INTER.CONST>
1

>  <SCORE.INTER.POLAR>
-1.49949

>  <SCORE.INTER.ROT>
5

>  <SCORE.INTER.SOLV>
20.8114

>  <SCORE.INTER.VDW>
-31.1063

>  <SCORE.INTER.norm>
-1.45005

>  <SCORE.INTRA>
1.74639

>  <SCORE.INTRA.DIHEDRAL>
0.263148

>  <SCORE.INTRA.DIHEDRAL.0>
8.06479

>  <SCORE.INTRA.POLAR>
0

>  <SCORE.INTRA.POLAR.0>
0

>  <SCORE.INTRA.REPUL>
0

>  <SCORE.INTRA.REPUL.0>
0

>  <SCORE.INTRA.SOLV>
0.215621

>  <SCORE.INTRA.SOLV.lig_0>
-29.8054

>  <SCORE.INTRA.VDW>
1.50701

>  <SCORE.INTRA.VDW.0>
2.61447

>  <SCORE.INTRA.norm>
0.0759302

>  <SCORE.RESTR>
3.28171

>  <SCORE.RESTR.CAVITY>
3.28171

>  <SCORE.RESTR.norm>
0.142683

>  <SCORE.SYSTEM>
0

>  <SCORE.SYSTEM.CONST>
0

>  <SCORE.SYSTEM.DIHEDRAL>
0

>  <SCORE.SYSTEM.SOLV>
0

>  <SCORE.SYSTEM.norm>
0

>  <SCORE.heavy>
23

>  <SCORE.norm>
-1.23144

>  <RMSD>
3.478

$$$$

 OpenBabel11021811403D
libRbt.so/2013.1/901 2013/11/27
 23 25  0  0  0  0  0  0  0  0999 V2000
  -23.6410    8.5514    6.1580 S   0  0  0  0  0  0  0  0  0  0  0  0
  -25.3031    7.8563    8.5294 N   0  0  0  0  0  0  0  0  0  0  0  0
  -23.4853    7.2603    9.9971 C   0  0  0  0  0  0  0  0  0  0  0  0
  -22.1062    7.1199   10.2012 C   0  0  0  0  0  0  0  0  0  0  0  0
  -21.2122    7.4215    9.1784 C   0  0  0  0  0  0  0  0  0  0  0  0
  -21.6885    7.8595    7.9475 C   0  0  0  0  0  0  0  0  0  0  0  0
  -23.0572    8.0003    7.7326 C   0  0  0  0  0  0  0  0  0  0  0  0
  -23.9648    7.7022    8.7560 C   0  0  0  0  0  0  0  0  0  0  0  0
  -24.9922    7.4167    6.2002 C   0  0  0  0  0  0  0  0  0  0  0  0
  -25.3775    6.7421    5.0380 C   0  0  0  0  0  0  0  0  0  0  0  0
  -26.4513    5.8480    5.0746 C   0  0  0  0  0  0  0  0  0  0  0  0
  -27.1394    5.6346    6.2734 C   0  0  0  0  0  0  0  0  0  0  0  0
  -26.7501    6.3119    7.4296 C   0  0  0  0  0  0  0  0  0  0  0  0
  -25.6815    7.1972    7.3983 C   0  0  0  0  0  0  0  0  0  0  0  0
  -26.2484    7.9412    9.6702 C   0  0  0  0  0  0  0  0  0  0  0  0
  -26.0809    6.8878   10.8157 C   0  0  0  0  0  0  0  0  0  0  0  0
  -26.6976    5.4889   10.4723 C   0  0  0  0  0  0  0  0  0  0  0  0
  -27.2482    4.6843   11.5928 N   0  3  0  0  0  0  0  0  0  0  0  0
  -28.0607    3.5441   11.0955 C   0  0  0  0  0  0  0  0  0  0  0  0
  -28.0325    5.5557   12.5349 C   0  0  0  0  0  0  0  0  0  0  0  0
  -21.5810    6.6389   11.5238 C   0  0  0  0  0  0  0  0  0  0  0  0
  -22.4949    6.1027   12.5989 C   0  0  0  0  0  0  0  0  0  0  0  0
  -20.3762    6.6223   11.7195 O   0  0  0  0  0  0  0  0  0  0  0  0
  1  7  1  0  0  0  0
  1  9  1  0  0  0  0
  2  8  1  0  0  0  0
  2 14  1  0  0  0  0
  2 15  1  0  0  0  0
  3  4  2  0  0  0  0
  3  8  1  0  0  0  0
  4  5  1  0  0  0  0
  4 21  1  0  0  0  0
  5  6  2  0  0  0  0
  6  7  1  0  0  0  0
  7  8  2  0  0  0  0
  9 10  2  0  0  0  0
  9 14  1  0  0  0  0
 10 11  1  0  0  0  0
 11 12  2  0  0  0  0
 12 13  1  0  0  0  0
 13 14  2  0  0  0  0
 15 16  1  0  0  0  0
 16 17  1  0  0  0  0
 17 18  1  0  0  0  0
 18 19  1  0  0  0  0
 18 20  1  0  0  0  0
 21 22  1  0  0  0  0
 21 23  2  0  0  0  0
M  CHG  1  18   1
M  END
>  <CHROM.1>
-46.29198258,9.05981700,-79.37841297,-148.41571885,-72.81812412,-24.66079702
6.76705229,8.98862208,1.19571513,-0.33669519,-1.28667145

>  <Name>


>  <RI>
0

>  <Rbt.Current_Directory>
/home/itssahil/PROJECTS/Mol_Feturizer/New_Systems/rnas/1lvj

>  <Rbt.Executable>
rbdock ($Id: //depot/dev/client3/rdock/2013.1/src/exe/rbdock.cxx#4 $)

>  <Rbt.Library>
libRbt.so (2013.1, Build901 2013/11/27)

>  <Rbt.Parameter_File>
/export/apps/rDock/src/rDock_2013.1_src/data/scripts/dock_solv.prm

>  <Rbt.Receptor>
prm/pocket_docking_3.prm

>  <SCORE>
-23.0629

>  <SCORE.INTER>
-24.3713

>  <SCORE.INTER.CONST>
1

>  <SCORE.INTER.POLAR>
0

>  <SCORE.INTER.ROT>
5

>  <SCORE.INTER.SOLV>
12.0407

>  <SCORE.INTER.VDW>
-27.1945

>  <SCORE.INTER.norm>
-1.05962

>  <SCORE.INTRA>
0.299087

>  <SCORE.INTRA.DIHEDRAL>
-2.09732

>  <SCORE.INTRA.DIHEDRAL.0>
8.06479

>  <SCORE.INTRA.POLAR>
0

>  <SCORE.INTRA.POLAR.0>
0

>  <SCORE.INTRA.REPUL>
0

>  <SCORE.INTRA.REPUL.0>
0

>  <SCORE.INTRA.SOLV>
0.206765

>  <SCORE.INTRA.SOLV.lig_0>
-29.8054

>  <SCORE.INTRA.VDW>
1.24436

>  <SCORE.INTRA.VDW.0>
2.61447

>  <SCORE.INTRA.norm>
0.0130038

>  <SCORE.RESTR>
1.00937

>  <SCORE.RESTR.CAVITY>
1.00937

>  <SCORE.RESTR.norm>
0.0438856

>  <SCORE.SYSTEM>
0

>  <SCORE.SYSTEM.CONST>
0

>  <SCORE.SYSTEM.DIHEDRAL>
0

>  <SCORE.SYSTEM.SOLV>
0

>  <SCORE.SYSTEM.norm>
0

>  <SCORE.heavy>
23

>  <SCORE.norm>
-1.00273

>  <RMSD>
3.482

$$$$

 OpenBabel11021811403D
libRbt.so/2013.1/901 2013/11/27
 23 25  0  0  0  0  0  0  0  0999 V2000
  -22.5141    8.4169    6.2803 S   0  0  0  0  0  0  0  0  0  0  0  0
  -24.8524    8.2568    8.1177 N   0  0  0  0  0  0  0  0  0  0  0  0
  -23.6520    7.4598   10.0511 C   0  0  0  0  0  0  0  0  0  0  0  0
  -22.4359    7.0808   10.6347 C   0  0  0  0  0  0  0  0  0  0  0  0
  -21.2601    7.1183    9.8914 C   0  0  0  0  0  0  0  0  0  0  0  0
  -21.2920    7.5289    8.5632 C   0  0  0  0  0  0  0  0  0  0  0  0
  -22.4954    7.9055    7.9721 C   0  0  0  0  0  0  0  0  0  0  0  0
  -23.6834    7.8739    8.7120 C   0  0  0  0  0  0  0  0  0  0  0  0
  -24.0306    7.5649    5.9820 C   0  0  0  0  0  0  0  0  0  0  0  0
  -24.2230    6.8760    4.7809 C   0  0  0  0  0  0  0  0  0  0  0  0
  -25.4275    6.2066    4.5465 C   0  0  0  0  0  0  0  0  0  0  0  0
  -26.4380    6.2320    5.5133 C   0  0  0  0  0  0  0  0  0  0  0  0
  -26.2397    6.9222    6.7096 C   0  0  0  0  0  0  0  0  0  0  0  0
  -25.0433    7.5844    6.9479 C   0  0  0  0  0  0  0  0  0  0  0  0
  -26.0285    8.6173    8.9476 C   0  0  0  0  0  0  0  0  0  0  0  0
  -26.7169    7.4628    9.7497 C   0  0  0  0  0  0  0  0  0  0  0  0
  -26.5692    7.6076   11.3029 C   0  0  0  0  0  0  0  0  0  0  0  0
  -27.2266    6.5851   12.1563 N   0  3  0  0  0  0  0  0  0  0  0  0
  -27.4275    7.0812   13.5423 C   0  0  0  0  0  0  0  0  0  0  0  0
  -26.4491    5.2979   12.1346 C   0  0  0  0  0  0  0  0  0  0  0  0
  -22.3911    6.6268   12.0659 C   0  0  0  0  0  0  0  0  0  0  0  0
  -23.5752    6.7793   12.9897 C   0  0  0  0  0  0  0  0  0  0  0  0
  -21.3925    6.0633   12.4845 O   0  0  0  0  0  0  0  0  0  0  0  0
  1  7  1  0  0  0  0
  1  9  1  0  0  0  0
  2  8  1  0  0  0  0
  2 14  1  0  0  0  0
  2 15  1  0  0  0  0
  3  4  2  0  0  0  0
  3  8  1  0  0  0  0
  4  5  1  0  0  0  0
  4 21  1  0  0  0  0
  5  6  2  0  0  0  0
  6  7  1  0  0  0  0
  7  8  2  0  0  0  0
  9 10  2  0  0  0  0
  9 14  1  0  0  0  0
 10 11  1  0  0  0  0
 11 12  2  0  0  0  0
 12 13  1  0  0  0  0
 13 14  2  0  0  0  0
 15 16  1  0  0  0  0
 16 17  1  0  0  0  0
 17 18  1  0  0  0  0
 18 19  1  0  0  0  0
 18 20  1  0  0  0  0
 21 22  1  0  0  0  0
 21 23  2  0  0  0  0
M  CHG  1  18   1
M  END
>  <CHROM.1>
-68.43990332,-10.57027356,113.11605233,178.03608292,-39.69785045,-24.35531385
7.22814674,9.09751281,-1.42628949,0.07975103,1.67641561

>  <Name>


>  <RI>
0

>  <Rbt.Current_Directory>
/home/itssahil/PROJECTS/Mol_Feturizer/New_Systems/rnas/1lvj

>  <Rbt.Executable>
rbdock ($Id: //depot/dev/client3/rdock/2013.1/src/exe/rbdock.cxx#4 $)

>  <Rbt.Library>
libRbt.so (2013.1, Build901 2013/11/27)

>  <Rbt.Parameter_File>
/export/apps/rDock/src/rDock_2013.1_src/data/scripts/dock_solv.prm

>  <Rbt.Receptor>
prm/pocket_docking_4.prm

>  <SCORE>
-29.3472

>  <SCORE.INTER>
-26.6841

>  <SCORE.INTER.CONST>
1

>  <SCORE.INTER.POLAR>
-0.936248

>  <SCORE.INTER.ROT>
5

>  <SCORE.INTER.SOLV>
14.3782

>  <SCORE.INTER.VDW>
-26.3946

>  <SCORE.INTER.norm>
-1.16018

>  <SCORE.INTRA>
-2.6662

>  <SCORE.INTRA.DIHEDRAL>
-1.10619

>  <SCORE.INTRA.DIHEDRAL.0>
8.06479

>  <SCORE.INTRA.POLAR>
0

>  <SCORE.INTRA.POLAR.0>
0

>  <SCORE.INTRA.REPUL>
0

>  <SCORE.INTRA.REPUL.0>
0

>  <SCORE.INTRA.SOLV>
0.634009

>  <SCORE.INTRA.SOLV.lig_0>
-29.8054

>  <SCORE.INTRA.VDW>
-2.43011

>  <SCORE.INTRA.VDW.0>
2.61447

>  <SCORE.INTRA.norm>
-0.115922

>  <SCORE.RESTR>
0.00313319

>  <SCORE.RESTR.CAVITY>
0.00313319

>  <SCORE.RESTR.norm>
0.000136225

>  <SCORE.SYSTEM>
0

>  <SCORE.SYSTEM.CONST>
0

>  <SCORE.SYSTEM.DIHEDRAL>
0

>  <SCORE.SYSTEM.SOLV>
0

>  <SCORE.SYSTEM.norm>
0

>  <SCORE.heavy>
23

>  <SCORE.norm>
-1.27596

>  <RMSD>
3.487

$$$$

 OpenBabel11021811403D
libRbt.so/2013.1/901 2013/11/27
 23 25  0  0  0  0  0  0  0  0999 V2000
  -23.4343    8.5743    6.2162 S   0  0  0  0  0  0  0  0  0  0  0  0
  -25.3677    7.5793    8.2512 N   0  0  0  0  0  0  0  0  0  0  0  0
  -23.7391    6.8827    9.8872 C   0  0  0  0  0  0  0  0  0  0  0  0
  -22.3951    6.7619   10.2644 C   0  0  0  0  0  0  0  0  0  0  0  0
  -21.3859    7.1981    9.4113 C   0  0  0  0  0  0  0  0  0  0  0  0
  -21.7114    7.7518    8.1779 C   0  0  0  0  0  0  0  0  0  0  0  0
  -23.0436    7.8745    7.7915 C   0  0  0  0  0  0  0  0  0  0  0  0
  -24.0665    7.4413    8.6436 C   0  0  0  0  0  0  0  0  0  0  0  0
  -24.7277    7.4023    5.9547 C   0  0  0  0  0  0  0  0  0  0  0  0
  -24.9234    6.8456    4.6874 C   0  0  0  0  0  0  0  0  0  0  0  0
  -25.9521    5.9215    4.4833 C   0  0  0  0  0  0  0  0  0  0  0  0
  -26.7850    5.5601    5.5473 C   0  0  0  0  0  0  0  0  0  0  0  0
  -26.5846    6.1202    6.8095 C   0  0  0  0  0  0  0  0  0  0  0  0
  -25.5614    7.0349    7.0171 C   0  0  0  0  0  0  0  0  0  0  0  0
  -26.4604    7.5130    9.2531 C   0  0  0  0  0  0  0  0  0  0  0  0
  -26.5366    6.2270   10.1420 C   0  0  0  0  0  0  0  0  0  0  0  0
  -27.0023    6.5104   11.6110 C   0  0  0  0  0  0  0  0  0  0  0  0
  -27.0595    5.3611   12.5500 N   0  3  0  0  0  0  0  0  0  0  0  0
  -25.7051    4.9831   13.0299 C   0  0  0  0  0  0  0  0  0  0  0  0
  -27.7697    4.1957   11.9179 C   0  0  0  0  0  0  0  0  0  0  0  0
  -22.0316    6.1571   11.5905 C   0  0  0  0  0  0  0  0  0  0  0  0
  -22.6975    4.9045   12.1065 C   0  0  0  0  0  0  0  0  0  0  0  0
  -21.1309    6.6532   12.2483 O   0  0  0  0  0  0  0  0  0  0  0  0
  1  7  1  0  0  0  0
  1  9  1  0  0  0  0
  2  8  1  0  0  0  0
  2 14  1  0  0  0  0
  2 15  1  0  0  0  0
  3  4  2  0  0  0  0
  3  8  1  0  0  0  0
  4  5  1  0  0  0  0
  4 21  1  0  0  0  0
  5  6  2  0  0  0  0
  6  7  1  0  0  0  0
  7  8  2  0  0  0  0
  9 10  2  0  0  0  0
  9 14  1  0  0  0  0
 10 11  1  0  0  0  0
 11 12  2  0  0  0  0
 12 13  1  0  0  0  0
 13 14  2  0  0  0  0
 15 16  1  0  0  0  0
 16 17  1  0  0  0  0
 17 18  1  0  0  0  0
 18 19  1  0  0  0  0
 18 20  1  0  0  0  0
 21 22  1  0  0  0  0
 21 23  2  0  0  0  0
M  CHG  1  18   1
M  END
>  <CHROM.1>
-56.08749562,44.06023993,144.19902044,-177.81149053,-162.93040242,-24.58194121
6.65440214,8.99572444,-1.55368998,0.29148738,1.82935892

>  <Name>


>  <RI>
0

>  <Rbt.Current_Directory>
/home/itssahil/PROJECTS/Mol_Feturizer/New_Systems/rnas/1lvj

>  <Rbt.Executable>
rbdock ($Id: //depot/dev/client3/rdock/2013.1/src/exe/rbdock.cxx#4 $)

>  <Rbt.Library>
libRbt.so (2013.1, Build901 2013/11/27)

>  <Rbt.Parameter_File>
/export/apps/rDock/src/rDock_2013.1_src/data/scripts/dock_solv.prm

>  <Rbt.Receptor>
prm/pocket_docking_2.prm

>  <SCORE>
-19.5792

>  <SCORE.INTER>
-24.482

>  <SCORE.INTER.CONST>
1

>  <SCORE.INTER.POLAR>
0

>  <SCORE.INTER.ROT>
5

>  <SCORE.INTER.SOLV>
10.9622

>  <SCORE.INTER.VDW>
-26.9088

>  <SCORE.INTER.norm>
-1.06444

>  <SCORE.INTRA>
1.00605

>  <SCORE.INTRA.DIHEDRAL>
2.4562

>  <SCORE.INTRA.DIHEDRAL.0>
8.06479

>  <SCORE.INTRA.POLAR>
0

>  <SCORE.INTRA.POLAR.0>
0

>  <SCORE.INTRA.REPUL>
0

>  <SCORE.INTRA.REPUL.0>
0

>  <SCORE.INTRA.SOLV>
-0.535345

>  <SCORE.INTRA.SOLV.lig_0>
-29.8054

>  <SCORE.INTRA.VDW>
0.0456247

>  <SCORE.INTRA.VDW.0>
2.61447

>  <SCORE.INTRA.norm>
0.0437414

>  <SCORE.RESTR>
3.89674

>  <SCORE.RESTR.CAVITY>
3.89674

>  <SCORE.RESTR.norm>
0.169424

>  <SCORE.SYSTEM>
0

>  <SCORE.SYSTEM.CONST>
0

>  <SCORE.SYSTEM.DIHEDRAL>
0

>  <SCORE.SYSTEM.SOLV>
0

>  <SCORE.SYSTEM.norm>
0

>  <SCORE.heavy>
23

>  <SCORE.norm>
-0.851272

>  <RMSD>
3.491

$$$$

 OpenBabel11021811403D
libRbt.so/2013.1/901 2013/11/27
 23 25  0  0  0  0  0  0  0  0999 V2000
  -23.5186    7.3614    4.5979 S   0  0  0  0  0  0  0  0  0  0  0  0
  -25.1169    8.0760    7.0071 N   0  0  0  0  0  0  0  0  0  0  0  0
  -23.3971    7.6400    8.6399 C   0  0  0  0  0  0  0  0  0  0  0  0
  -22.0841    7.2391    8.9199 C   0  0  0  0  0  0  0  0  0  0  0  0
  -21.2231    6.8870    7.8849 C   0  0  0  0  0  0  0  0  0  0  0  0
  -21.6681    6.9286    6.5681 C   0  0  0  0  0  0  0  0  0  0  0  0
  -22.9717    7.3231    6.2782 C   0  0  0  0  0  0  0  0  0  0  0  0
  -23.8450    7.6819    7.3120 C   0  0  0  0  0  0  0  0  0  0  0  0
  -25.1009    6.7170    5.0403 C   0  0  0  0  0  0  0  0  0  0  0  0
  -25.7275    5.7734    4.2210 C   0  0  0  0  0  0  0  0  0  0  0  0
  -26.9829    5.2693    4.5724 C   0  0  0  0  0  0  0  0  0  0  0  0
  -27.6099    5.7140    5.7409 C   0  0  0  0  0  0  0  0  0  0  0  0
  -26.9793    6.6566    6.5538 C   0  0  0  0  0  0  0  0  0  0  0  0
  -25.7306    7.1562    6.2105 C   0  0  0  0  0  0  0  0  0  0  0  0
  -25.9231    8.8294    7.9994 C   0  0  0  0  0  0  0  0  0  0  0  0
  -25.4762    8.7410    9.4968 C   0  0  0  0  0  0  0  0  0  0  0  0
  -26.6097    8.2449   10.4582 C   0  0  0  0  0  0  0  0  0  0  0  0
  -26.7200    6.7833   10.6978 N   0  3  0  0  0  0  0  0  0  0  0  0
  -26.8827    6.4800   12.1432 C   0  0  0  0  0  0  0  0  0  0  0  0
  -25.5408    6.0596   10.1081 C   0  0  0  0  0  0  0  0  0  0  0  0
  -21.5957    7.1817   10.3393 C   0  0  0  0  0  0  0  0  0  0  0  0
  -22.5359    7.3089   11.5134 C   0  0  0  0  0  0  0  0  0  0  0  0
  -20.4141    6.9666   10.5578 O   0  0  0  0  0  0  0  0  0  0  0  0
  1  7  1  0  0  0  0
  1  9  1  0  0  0  0
  2  8  1  0  0  0  0
  2 14  1  0  0  0  0
  2 15  1  0  0  0  0
  3  4  2  0  0  0  0
  3  8  1  0  0  0  0
  4  5  1  0  0  0  0
  4 21  1  0  0  0  0
  5  6  2  0  0  0  0
  6  7  1  0  0  0  0
  7  8  2  0  0  0  0
  9 10  2  0  0  0  0
  9 14  1  0  0  0  0
 10 11  1  0  0  0  0
 11 12  2  0  0  0  0
 12 13  1  0  0  0  0
 13 14  2  0  0  0  0
 15 16  1  0  0  0  0
 16 17  1  0  0  0  0
 17 18  1  0  0  0  0
 18 19  1  0  0  0  0
 18 20  1  0  0  0  0
 21 22  1  0  0  0  0
 21 23  2  0  0  0  0
M  CHG  1  18   1
M  END
>  <CHROM.1>
-19.51217071,10.94710607,-124.37400814,90.27261621,-106.19983372,-24.47004135
7.10552003,7.87639957,-1.90015886,0.08262168,1.48524324

>  <Name>


>  <RI>
0

>  <Rbt.Current_Directory>
/home/itssahil/PROJECTS/Mol_Feturizer/New_Systems/rnas/1lvj

>  <Rbt.Executable>
rbdock ($Id: //depot/dev/client3/rdock/2013.1/src/exe/rbdock.cxx#4 $)

>  <Rbt.Library>
libRbt.so (2013.1, Build901 2013/11/27)

>  <Rbt.Parameter_File>
/export/apps/rDock/src/rDock_2013.1_src/data/scripts/dock_solv.prm

>  <Rbt.Receptor>
prm/blind_docking_100.prm

>  <SCORE>
0.804817

>  <SCORE.INTER>
-16.832

>  <SCORE.INTER.CONST>
1

>  <SCORE.INTER.POLAR>
-1.21601

>  <SCORE.INTER.ROT>
5

>  <SCORE.INTER.SOLV>
21.2325

>  <SCORE.INTER.VDW>
-21.1788

>  <SCORE.INTER.norm>
-0.731825

>  <SCORE.INTRA>
14.8263

>  <SCORE.INTRA.DIHEDRAL>
5.87044

>  <SCORE.INTRA.DIHEDRAL.0>
8.06479

>  <SCORE.INTRA.POLAR>
0

>  <SCORE.INTRA.POLAR.0>
0

>  <SCORE.INTRA.REPUL>
0

>  <SCORE.INTRA.REPUL.0>
0

>  <SCORE.INTRA.SOLV>
1.29276

>  <SCORE.INTRA.SOLV.lig_0>
-29.8054

>  <SCORE.INTRA.VDW>
11.2447

>  <SCORE.INTRA.VDW.0>
2.61447

>  <SCORE.INTRA.norm>
0.644624

>  <SCORE.RESTR>
2.81046

>  <SCORE.RESTR.CAVITY>
2.81046

>  <SCORE.RESTR.norm>
0.122194

>  <SCORE.SYSTEM>
0

>  <SCORE.SYSTEM.CONST>
0

>  <SCORE.SYSTEM.DIHEDRAL>
0

>  <SCORE.SYSTEM.SOLV>
0

>  <SCORE.SYSTEM.norm>
0

>  <SCORE.heavy>
23

>  <SCORE.norm>
0.0349921

>  <RMSD>
3.510

$$$$

 OpenBabel11021811403D
libRbt.so/2013.1/901 2013/11/27
 23 25  0  0  0  0  0  0  0  0999 V2000
  -23.3418    8.5309    6.1346 S   0  0  0  0  0  0  0  0  0  0  0  0
  -25.3246    7.7227    8.2046 N   0  0  0  0  0  0  0  0  0  0  0  0
  -23.7342    7.0477    9.8865 C   0  0  0  0  0  0  0  0  0  0  0  0
  -22.3982    6.8928   10.2793 C   0  0  0  0  0  0  0  0  0  0  0  0
  -21.3676    7.2426    9.4121 C   0  0  0  0  0  0  0  0  0  0  0  0
  -21.6640    7.7436    8.1491 C   0  0  0  0  0  0  0  0  0  0  0  0
  -22.9881    7.8994    7.7471 C   0  0  0  0  0  0  0  0  0  0  0  0
  -24.0322    7.5530    8.6131 C   0  0  0  0  0  0  0  0  0  0  0  0
  -24.6804    7.3999    5.9251 C   0  0  0  0  0  0  0  0  0  0  0  0
  -24.8920    6.7859    4.6872 C   0  0  0  0  0  0  0  0  0  0  0  0
  -25.9563    5.8946    4.5240 C   0  0  0  0  0  0  0  0  0  0  0  0
  -26.8087    5.6233    5.5993 C   0  0  0  0  0  0  0  0  0  0  0  0
  -26.5923    6.2402    6.8320 C   0  0  0  0  0  0  0  0  0  0  0  0
  -25.5338    7.1225    6.9991 C   0  0  0  0  0  0  0  0  0  0  0  0
  -26.4243    7.7530    9.2004 C   0  0  0  0  0  0  0  0  0  0  0  0
  -26.6109    6.4834   10.0966 C   0  0  0  0  0  0  0  0  0  0  0  0
  -26.0201    6.6451   11.5388 C   0  0  0  0  0  0  0  0  0  0  0  0
  -26.1576    5.4985   12.4728 N   0  3  0  0  0  0  0  0  0  0  0  0
  -25.5237    4.2716   11.9247 C   0  0  0  0  0  0  0  0  0  0  0  0
  -27.6028    5.2688   12.8201 C   0  0  0  0  0  0  0  0  0  0  0  0
  -22.0665    6.3441   11.6378 C   0  0  0  0  0  0  0  0  0  0  0  0
  -22.4678    4.9503   12.0560 C   0  0  0  0  0  0  0  0  0  0  0  0
  -21.4017    7.0169   12.4094 O   0  0  0  0  0  0  0  0  0  0  0  0
  1  7  1  0  0  0  0
  1  9  1  0  0  0  0
  2  8  1  0  0  0  0
  2 14  1  0  0  0  0
  2 15  1  0  0  0  0
  3  4  2  0  0  0  0
  3  8  1  0  0  0  0
  4  5  1  0  0  0  0
  4 21  1  0  0  0  0
  5  6  2  0  0  0  0
  6  7  1  0  0  0  0
  7  8  2  0  0  0  0
  9 10  2  0  0  0  0
  9 14  1  0  0  0  0
 10 11  1  0  0  0  0
 11 12  2  0  0  0  0
 12 13  1  0  0  0  0
 13 14  2  0  0  0  0
 15 16  1  0  0  0  0
 16 17  1  0  0  0  0
 17 18  1  0  0  0  0
 18 19  1  0  0  0  0
 18 20  1  0  0  0  0
 21 22  1  0  0  0  0
 21 23  2  0  0  0  0
M  CHG  1  18   1
M  END
>  <CHROM.1>
-59.66166026,62.29515082,101.21539360,179.44746515,178.21755587,-24.46554543
6.75766352,8.97259677,-1.64029036,0.29491040,1.81355889

>  <Name>


>  <RI>
0

>  <Rbt.Current_Directory>
/home/itssahil/PROJECTS/Mol_Feturizer/New_Systems/rnas/1lvj

>  <Rbt.Executable>
rbdock ($Id: //depot/dev/client3/rdock/2013.1/src/exe/rbdock.cxx#4 $)

>  <Rbt.Library>
libRbt.so (2013.1, Build901 2013/11/27)

>  <Rbt.Parameter_File>
/export/apps/rDock/src/rDock_2013.1_src/data/scripts/dock_solv.prm

>  <Rbt.Receptor>
prm/pocket_docking_2.prm

>  <SCORE>
-18.982

>  <SCORE.INTER>
-25.3351

>  <SCORE.INTER.CONST>
1

>  <SCORE.INTER.POLAR>
0

>  <SCORE.INTER.ROT>
5

>  <SCORE.INTER.SOLV>
11.2662

>  <SCORE.INTER.VDW>
-27.5788

>  <SCORE.INTER.norm>
-1.10152

>  <SCORE.INTRA>
3.49073

>  <SCORE.INTRA.DIHEDRAL>
6.38821

>  <SCORE.INTRA.DIHEDRAL.0>
8.06479

>  <SCORE.INTRA.POLAR>
0

>  <SCORE.INTRA.POLAR.0>
0

>  <SCORE.INTRA.REPUL>
0

>  <SCORE.INTRA.REPUL.0>
0

>  <SCORE.INTRA.SOLV>
0.610878

>  <SCORE.INTRA.SOLV.lig_0>
-29.8054

>  <SCORE.INTRA.VDW>
-0.00881244

>  <SCORE.INTRA.VDW.0>
2.61447

>  <SCORE.INTRA.norm>
0.151771

>  <SCORE.RESTR>
2.86238

>  <SCORE.RESTR.CAVITY>
2.86238

>  <SCORE.RESTR.norm>
0.124451

>  <SCORE.SYSTEM>
0

>  <SCORE.SYSTEM.CONST>
0

>  <SCORE.SYSTEM.DIHEDRAL>
0

>  <SCORE.SYSTEM.SOLV>
0

>  <SCORE.SYSTEM.norm>
0

>  <SCORE.heavy>
23

>  <SCORE.norm>
-0.825303

>  <RMSD>
3.526

$$$$

 OpenBabel11021811403D
libRbt.so/2013.1/901 2013/11/27
 23 25  0  0  0  0  0  0  0  0999 V2000
  -23.0612    8.3908    6.8076 S   0  0  0  0  0  0  0  0  0  0  0  0
  -25.1837    8.0573    8.8699 N   0  0  0  0  0  0  0  0  0  0  0  0
  -23.7834    7.0905   10.5782 C   0  0  0  0  0  0  0  0  0  0  0  0
  -22.5132    6.6631   10.9869 C   0  0  0  0  0  0  0  0  0  0  0  0
  -21.4263    6.7714   10.1247 C   0  0  0  0  0  0  0  0  0  0  0  0
  -21.6015    7.3015    8.8511 C   0  0  0  0  0  0  0  0  0  0  0  0
  -22.8599    7.7272    8.4333 C   0  0  0  0  0  0  0  0  0  0  0  0
  -23.9593    7.6250    9.2941 C   0  0  0  0  0  0  0  0  0  0  0  0
  -24.6077    7.5654    6.6025 C   0  0  0  0  0  0  0  0  0  0  0  0
  -24.9365    6.9885    5.3723 C   0  0  0  0  0  0  0  0  0  0  0  0
  -26.1644    6.3401    5.2125 C   0  0  0  0  0  0  0  0  0  0  0  0
  -27.0619    6.2744    6.2833 C   0  0  0  0  0  0  0  0  0  0  0  0
  -26.7278    6.8531    7.5082 C   0  0  0  0  0  0  0  0  0  0  0  0
  -25.5075    7.4940    7.6720 C   0  0  0  0  0  0  0  0  0  0  0  0
  -26.2585    8.3374    9.8541 C   0  0  0  0  0  0  0  0  0  0  0  0
  -26.5111    7.2600   10.9610 C   0  0  0  0  0  0  0  0  0  0  0  0
  -26.5117    5.7916   10.4141 C   0  0  0  0  0  0  0  0  0  0  0  0
  -26.6422    4.6887   11.4003 N   0  3  0  0  0  0  0  0  0  0  0  0
  -27.8466    4.8613   12.2530 C   0  0  0  0  0  0  0  0  0  0  0  0
  -25.3909    4.5654   12.2255 C   0  0  0  0  0  0  0  0  0  0  0  0
  -22.3142    6.0805   12.3572 C   0  0  0  0  0  0  0  0  0  0  0  0
  -21.8817    4.6488   12.5613 C   0  0  0  0  0  0  0  0  0  0  0  0
  -22.4462    6.7963   13.3372 O   0  0  0  0  0  0  0  0  0  0  0  0
  1  7  1  0  0  0  0
  1  9  1  0  0  0  0
  2  8  1  0  0  0  0
  2 14  1  0  0  0  0
  2 15  1  0  0  0  0
  3  4  2  0  0  0  0
  3  8  1  0  0  0  0
  4  5  1  0  0  0  0
  4 21  1  0  0  0  0
  5  6  2  0  0  0  0
  6  7  1  0  0  0  0
  7  8  2  0  0  0  0
  9 10  2  0  0  0  0
  9 14  1  0  0  0  0
 10 11  1  0  0  0  0
 11 12  2  0  0  0  0
 12 13  1  0  0  0  0
 13 14  2  0  0  0  0
 15 16  1  0  0  0  0
 16 17  1  0  0  0  0
 17 18  1  0  0  0  0
 18 19  1  0  0  0  0
 18 20  1  0  0  0  0
 21 22  1  0  0  0  0
 21 23  2  0  0  0  0
M  CHG  1  18   1
M  END
>  <CHROM.1>
-47.24972677,116.03922835,-43.75529203,175.55938383,174.46211954,-24.52437200
6.74897254,9.43116368,-1.75967942,0.24893068,1.91117863

>  <Name>


>  <RI>
0

>  <Rbt.Current_Directory>
/home/itssahil/PROJECTS/Mol_Feturizer/New_Systems/rnas/1lvj

>  <Rbt.Executable>
rbdock ($Id: //depot/dev/client3/rdock/2013.1/src/exe/rbdock.cxx#4 $)

>  <Rbt.Library>
libRbt.so (2013.1, Build901 2013/11/27)

>  <Rbt.Parameter_File>
/export/apps/rDock/src/rDock_2013.1_src/data/scripts/dock_solv.prm

>  <Rbt.Receptor>
prm/pocket_docking_3.prm

>  <SCORE>
-26.2388

>  <SCORE.INTER>
-28.5254

>  <SCORE.INTER.CONST>
1

>  <SCORE.INTER.POLAR>
0

>  <SCORE.INTER.ROT>
5

>  <SCORE.INTER.SOLV>
14.3392

>  <SCORE.INTER.VDW>
-30.73

>  <SCORE.INTER.norm>
-1.24024

>  <SCORE.INTRA>
2.06221

>  <SCORE.INTRA.DIHEDRAL>
4.58667

>  <SCORE.INTRA.DIHEDRAL.0>
8.06479

>  <SCORE.INTRA.POLAR>
0

>  <SCORE.INTRA.POLAR.0>
0

>  <SCORE.INTRA.REPUL>
0

>  <SCORE.INTRA.REPUL.0>
0

>  <SCORE.INTRA.SOLV>
-0.222868

>  <SCORE.INTRA.SOLV.lig_0>
-29.8054

>  <SCORE.INTRA.VDW>
-0.119696

>  <SCORE.INTRA.VDW.0>
2.61447

>  <SCORE.INTRA.norm>
0.0896611

>  <SCORE.RESTR>
0.224396

>  <SCORE.RESTR.CAVITY>
0.224396

>  <SCORE.RESTR.norm>
0.00975637

>  <SCORE.SYSTEM>
0

>  <SCORE.SYSTEM.CONST>
0

>  <SCORE.SYSTEM.DIHEDRAL>
0

>  <SCORE.SYSTEM.SOLV>
0

>  <SCORE.SYSTEM.norm>
0

>  <SCORE.heavy>
23

>  <SCORE.norm>
-1.14082

>  <RMSD>
3.555

$$$$

 OpenBabel11021811403D
libRbt.so/2013.1/901 2013/11/27
 23 25  0  0  0  0  0  0  0  0999 V2000
  -23.3577    8.5321    6.1696 S   0  0  0  0  0  0  0  0  0  0  0  0
  -25.3309    7.7469    8.2574 N   0  0  0  0  0  0  0  0  0  0  0  0
  -23.7331    7.0603    9.9277 C   0  0  0  0  0  0  0  0  0  0  0  0
  -22.3955    6.8936   10.3098 C   0  0  0  0  0  0  0  0  0  0  0  0
  -21.3688    7.2320    9.4334 C   0  0  0  0  0  0  0  0  0  0  0  0
  -21.6708    7.7331    8.1719 C   0  0  0  0  0  0  0  0  0  0  0  0
  -22.9967    7.9006    7.7804 C   0  0  0  0  0  0  0  0  0  0  0  0
  -24.0368    7.5659    8.6557 C   0  0  0  0  0  0  0  0  0  0  0  0
  -24.7086    7.4133    5.9735 C   0  0  0  0  0  0  0  0  0  0  0  0
  -24.9361    6.7988    4.7386 C   0  0  0  0  0  0  0  0  0  0  0  0
  -26.0100    5.9172    4.5861 C   0  0  0  0  0  0  0  0  0  0  0  0
  -26.8561    5.6562    5.6689 C   0  0  0  0  0  0  0  0  0  0  0  0
  -26.6238    6.2736    6.8985 C   0  0  0  0  0  0  0  0  0  0  0  0
  -25.5557    7.1462    7.0550 C   0  0  0  0  0  0  0  0  0  0  0  0
  -26.4221    7.7897    9.2623 C   0  0  0  0  0  0  0  0  0  0  0  0
  -26.6258    6.5162   10.1492 C   0  0  0  0  0  0  0  0  0  0  0  0
  -26.0391    6.6621   11.5948 C   0  0  0  0  0  0  0  0  0  0  0  0
  -26.1275    5.4854   12.4968 N   0  3  0  0  0  0  0  0  0  0  0  0
  -25.4927    4.2866   11.8905 C   0  0  0  0  0  0  0  0  0  0  0  0
  -27.5566    5.2210   12.8837 C   0  0  0  0  0  0  0  0  0  0  0  0
  -22.0578    6.3446   11.6667 C   0  0  0  0  0  0  0  0  0  0  0  0
  -22.4219    4.9369   12.0720 C   0  0  0  0  0  0  0  0  0  0  0  0
  -21.4180    7.0305   12.4480 O   0  0  0  0  0  0  0  0  0  0  0  0
  1  7  1  0  0  0  0
  1  9  1  0  0  0  0
  2  8  1  0  0  0  0
  2 14  1  0  0  0  0
  2 15  1  0  0  0  0
  3  4  2  0  0  0  0
  3  8  1  0  0  0  0
  4  5  1  0  0  0  0
  4 21  1  0  0  0  0
  5  6  2  0  0  0  0
  6  7  1  0  0  0  0
  7  8  2  0  0  0  0
  9 10  2  0  0  0  0
  9 14  1  0  0  0  0
 10 11  1  0  0  0  0
 11 12  2  0  0  0  0
 12 13  1  0  0  0  0
 13 14  2  0  0  0  0
 15 16  1  0  0  0  0
 16 17  1  0  0  0  0
 17 18  1  0  0  0  0
 18 19  1  0  0  0  0
 18 20  1  0  0  0  0
 21 22  1  0  0  0  0
 21 23  2  0  0  0  0
M  CHG  1  18   1
M  END
>  <CHROM.1>
-60.47716852,64.70686049,102.05166606,-177.33322464,175.92262882,-24.47162758
6.76604099,9.01273408,-1.65180204,0.29091540,1.81920980

>  <Name>


>  <RI>
0

>  <Rbt.Current_Directory>
/home/itssahil/PROJECTS/Mol_Feturizer/New_Systems/rnas/1lvj

>  <Rbt.Executable>
rbdock ($Id: //depot/dev/client3/rdock/2013.1/src/exe/rbdock.cxx#4 $)

>  <Rbt.Library>
libRbt.so (2013.1, Build901 2013/11/27)

>  <Rbt.Parameter_File>
/export/apps/rDock/src/rDock_2013.1_src/data/scripts/dock_solv.prm

>  <Rbt.Receptor>
prm/pocket_docking_2.prm

>  <SCORE>
-19.4

>  <SCORE.INTER>
-25.8687

>  <SCORE.INTER.CONST>
1

>  <SCORE.INTER.POLAR>
0

>  <SCORE.INTER.ROT>
5

>  <SCORE.INTER.SOLV>
11.1775

>  <SCORE.INTER.VDW>
-27.905

>  <SCORE.INTER.norm>
-1.12473

>  <SCORE.INTRA>
3.53164

>  <SCORE.INTRA.DIHEDRAL>
6.98635

>  <SCORE.INTRA.DIHEDRAL.0>
8.06479

>  <SCORE.INTRA.POLAR>
0

>  <SCORE.INTRA.POLAR.0>
0

>  <SCORE.INTRA.REPUL>
0

>  <SCORE.INTRA.REPUL.0>
0

>  <SCORE.INTRA.SOLV>
0.70045

>  <SCORE.INTRA.SOLV.lig_0>
-29.8054

>  <SCORE.INTRA.VDW>
-0.311758

>  <SCORE.INTRA.VDW.0>
2.61447

>  <SCORE.INTRA.norm>
0.15355

>  <SCORE.RESTR>
2.93701

>  <SCORE.RESTR.CAVITY>
2.93701

>  <SCORE.RESTR.norm>
0.127696

>  <SCORE.SYSTEM>
0

>  <SCORE.SYSTEM.CONST>
0

>  <SCORE.SYSTEM.DIHEDRAL>
0

>  <SCORE.SYSTEM.SOLV>
0

>  <SCORE.SYSTEM.norm>
0

>  <SCORE.heavy>
23

>  <SCORE.norm>
-0.84348

>  <RMSD>
3.559

$$$$

 OpenBabel11021811403D
libRbt.so/2013.1/901 2013/11/27
 23 25  0  0  0  0  0  0  0  0999 V2000
  -23.2727    8.4586    6.5497 S   0  0  0  0  0  0  0  0  0  0  0  0
  -25.4149    7.6116    8.4372 N   0  0  0  0  0  0  0  0  0  0  0  0
  -23.9646    6.7368   10.1534 C   0  0  0  0  0  0  0  0  0  0  0  0
  -22.6642    6.4844   10.6098 C   0  0  0  0  0  0  0  0  0  0  0  0
  -21.5669    6.8399    9.8313 C   0  0  0  0  0  0  0  0  0  0  0  0
  -21.7610    7.4437    8.5937 C   0  0  0  0  0  0  0  0  0  0  0  0
  -23.0490    7.6970    8.1289 C   0  0  0  0  0  0  0  0  0  0  0  0
  -24.1595    7.3458    8.9057 C   0  0  0  0  0  0  0  0  0  0  0  0
  -24.6491    7.4172    6.1810 C   0  0  0  0  0  0  0  0  0  0  0  0
  -24.8141    6.9042    4.8911 C   0  0  0  0  0  0  0  0  0  0  0  0
  -25.9083    6.0839    4.6019 C   0  0  0  0  0  0  0  0  0  0  0  0
  -26.8369    5.7826    5.6036 C   0  0  0  0  0  0  0  0  0  0  0  0
  -26.6666    6.2986    6.8887 C   0  0  0  0  0  0  0  0  0  0  0  0
  -25.5789    7.1100    7.1808 C   0  0  0  0  0  0  0  0  0  0  0  0
  -26.5706    7.6294    9.3679 C   0  0  0  0  0  0  0  0  0  0  0  0
  -26.3695    8.3515   10.7419 C   0  0  0  0  0  0  0  0  0  0  0  0
  -26.0823    7.3682   11.9277 C   0  0  0  0  0  0  0  0  0  0  0  0
  -26.9676    6.1844   12.0715 N   0  3  0  0  0  0  0  0  0  0  0  0
  -27.1778    5.8329   13.4997 C   0  0  0  0  0  0  0  0  0  0  0  0
  -26.4271    5.0206   11.2871 C   0  0  0  0  0  0  0  0  0  0  0  0
  -22.4430    5.8244   11.9410 C   0  0  0  0  0  0  0  0  0  0  0  0
  -22.9061    4.4152   12.2206 C   0  0  0  0  0  0  0  0  0  0  0  0
  -21.8187    6.4168   12.8067 O   0  0  0  0  0  0  0  0  0  0  0  0
  1  7  1  0  0  0  0
  1  9  1  0  0  0  0
  2  8  1  0  0  0  0
  2 14  1  0  0  0  0
  2 15  1  0  0  0  0
  3  4  2  0  0  0  0
  3  8  1  0  0  0  0
  4  5  1  0  0  0  0
  4 21  1  0  0  0  0
  5  6  2  0  0  0  0
  6  7  1  0  0  0  0
  7  8  2  0  0  0  0
  9 10  2  0  0  0  0
  9 14  1  0  0  0  0
 10 11  1  0  0  0  0
 11 12  2  0  0  0  0
 12 13  1  0  0  0  0
 13 14  2  0  0  0  0
 15 16  1  0  0  0  0
 16 17  1  0  0  0  0
 17 18  1  0  0  0  0
 18 19  1  0  0  0  0
 18 20  1  0  0  0  0
 21 22  1  0  0  0  0
 21 23  2  0  0  0  0
M  CHG  1  18   1
M  END
>  <CHROM.1>
43.42055501,63.82212382,-100.06722582,-47.94094884,-25.62007781,-24.61595895
6.82100897,9.20379681,-1.62659180,0.11355736,1.75396578

>  <Name>


>  <RI>
0

>  <Rbt.Current_Directory>
/home/itssahil/PROJECTS/Mol_Feturizer/New_Systems/rnas/1lvj

>  <Rbt.Executable>
rbdock ($Id: //depot/dev/client3/rdock/2013.1/src/exe/rbdock.cxx#4 $)

>  <Rbt.Library>
libRbt.so (2013.1, Build901 2013/11/27)

>  <Rbt.Parameter_File>
/export/apps/rDock/src/rDock_2013.1_src/data/scripts/dock_solv.prm

>  <Rbt.Receptor>
prm/pocket_docking_3.prm

>  <SCORE>
-32.7971

>  <SCORE.INTER>
-36.7799

>  <SCORE.INTER.CONST>
1

>  <SCORE.INTER.POLAR>
-1.1619

>  <SCORE.INTER.ROT>
5

>  <SCORE.INTER.SOLV>
13.2702

>  <SCORE.INTER.VDW>
-32.0037

>  <SCORE.INTER.norm>
-1.59912

>  <SCORE.INTRA>
3.60727

>  <SCORE.INTRA.DIHEDRAL>
8.93617

>  <SCORE.INTRA.DIHEDRAL.0>
8.06479

>  <SCORE.INTRA.POLAR>
0

>  <SCORE.INTRA.POLAR.0>
0

>  <SCORE.INTRA.REPUL>
0

>  <SCORE.INTRA.REPUL.0>
0

>  <SCORE.INTRA.SOLV>
2.37057

>  <SCORE.INTRA.SOLV.lig_0>
-29.8054

>  <SCORE.INTRA.VDW>
-2.0461

>  <SCORE.INTRA.VDW.0>
2.61447

>  <SCORE.INTRA.norm>
0.156838

>  <SCORE.RESTR>
0.37553

>  <SCORE.RESTR.CAVITY>
0.37553

>  <SCORE.RESTR.norm>
0.0163274

>  <SCORE.SYSTEM>
0

>  <SCORE.SYSTEM.CONST>
0

>  <SCORE.SYSTEM.DIHEDRAL>
0

>  <SCORE.SYSTEM.SOLV>
0

>  <SCORE.SYSTEM.norm>
0

>  <SCORE.heavy>
23

>  <SCORE.norm>
-1.42596

>  <RMSD>
3.571

$$$$

 OpenBabel11021811403D
libRbt.so/2013.1/901 2013/11/27
 23 25  0  0  0  0  0  0  0  0999 V2000
  -23.4994    8.4756    6.2747 S   0  0  0  0  0  0  0  0  0  0  0  0
  -25.4656    7.5974    8.3319 N   0  0  0  0  0  0  0  0  0  0  0  0
  -23.8619    6.8552    9.9724 C   0  0  0  0  0  0  0  0  0  0  0  0
  -22.5229    6.6815   10.3465 C   0  0  0  0  0  0  0  0  0  0  0  0
  -21.4992    7.0600    9.4832 C   0  0  0  0  0  0  0  0  0  0  0  0
  -21.8055    7.6085    8.2426 C   0  0  0  0  0  0  0  0  0  0  0  0
  -23.1328    7.7835    7.8592 C   0  0  0  0  0  0  0  0  0  0  0  0
  -24.1700    7.4085    8.7216 C   0  0  0  0  0  0  0  0  0  0  0  0
  -24.8439    7.3575    6.0360 C   0  0  0  0  0  0  0  0  0  0  0  0
  -25.0691    6.7906    4.7782 C   0  0  0  0  0  0  0  0  0  0  0  0
  -26.1381    5.9094    4.5921 C   0  0  0  0  0  0  0  0  0  0  0  0
  -26.9814    5.6011    5.6646 C   0  0  0  0  0  0  0  0  0  0  0  0
  -26.7513    6.1711    6.9172 C   0  0  0  0  0  0  0  0  0  0  0  0
  -25.6882    7.0431    7.1070 C   0  0  0  0  0  0  0  0  0  0  0  0
  -26.5558    7.5942    9.3386 C   0  0  0  0  0  0  0  0  0  0  0  0
  -26.2836    8.3397   10.6877 C   0  0  0  0  0  0  0  0  0  0  0  0
  -26.0300    7.3732   11.8947 C   0  0  0  0  0  0  0  0  0  0  0  0
  -26.9189    6.1911   12.0300 N   0  3  0  0  0  0  0  0  0  0  0  0
  -27.1138    5.8176   13.4548 C   0  0  0  0  0  0  0  0  0  0  0  0
  -26.3930    5.0377   11.2207 C   0  0  0  0  0  0  0  0  0  0  0  0
  -22.1805    6.0816   11.6805 C   0  0  0  0  0  0  0  0  0  0  0  0
  -23.2399    5.5324   12.6049 C   0  0  0  0  0  0  0  0  0  0  0  0
  -21.0090    5.9775   12.0074 O   0  0  0  0  0  0  0  0  0  0  0  0
  1  7  1  0  0  0  0
  1  9  1  0  0  0  0
  2  8  1  0  0  0  0
  2 14  1  0  0  0  0
  2 15  1  0  0  0  0
  3  4  2  0  0  0  0
  3  8  1  0  0  0  0
  4  5  1  0  0  0  0
  4 21  1  0  0  0  0
  5  6  2  0  0  0  0
  6  7  1  0  0  0  0
  7  8  2  0  0  0  0
  9 10  2  0  0  0  0
  9 14  1  0  0  0  0
 10 11  1  0  0  0  0
 11 12  2  0  0  0  0
 12 13  1  0  0  0  0
 13 14  2  0  0  0  0
 15 16  1  0  0  0  0
 16 17  1  0  0  0  0
 17 18  1  0  0  0  0
 18 19  1  0  0  0  0
 18 20  1  0  0  0  0
 21 22  1  0  0  0  0
 21 23  2  0  0  0  0
M  CHG  1  18   1
M  END
>  <CHROM.1>
41.70393716,5.69130088,-105.87432495,-43.48087792,-28.50220921,-24.62597770
6.86428112,9.05879401,-1.66210257,0.14100539,1.73040363

>  <Name>


>  <RI>
0

>  <Rbt.Current_Directory>
/home/itssahil/PROJECTS/Mol_Feturizer/New_Systems/rnas/1lvj

>  <Rbt.Executable>
rbdock ($Id: //depot/dev/client3/rdock/2013.1/src/exe/rbdock.cxx#4 $)

>  <Rbt.Library>
libRbt.so (2013.1, Build901 2013/11/27)

>  <Rbt.Parameter_File>
/export/apps/rDock/src/rDock_2013.1_src/data/scripts/dock_solv.prm

>  <Rbt.Receptor>
prm/pocket_docking_3.prm

>  <SCORE>
-35.655

>  <SCORE.INTER>
-35.7013

>  <SCORE.INTER.CONST>
1

>  <SCORE.INTER.POLAR>
-1.15179

>  <SCORE.INTER.ROT>
5

>  <SCORE.INTER.SOLV>
13.5097

>  <SCORE.INTER.VDW>
-31.3981

>  <SCORE.INTER.norm>
-1.55223

>  <SCORE.INTRA>
-0.117021

>  <SCORE.INTRA.DIHEDRAL>
-0.157307

>  <SCORE.INTRA.DIHEDRAL.0>
8.06479

>  <SCORE.INTRA.POLAR>
0

>  <SCORE.INTRA.POLAR.0>
0

>  <SCORE.INTRA.REPUL>
0

>  <SCORE.INTRA.REPUL.0>
0

>  <SCORE.INTRA.SOLV>
2.35119

>  <SCORE.INTRA.SOLV.lig_0>
-29.8054

>  <SCORE.INTRA.VDW>
-1.21396

>  <SCORE.INTRA.VDW.0>
2.61447

>  <SCORE.INTRA.norm>
-0.00508788

>  <SCORE.RESTR>
0.163273

>  <SCORE.RESTR.CAVITY>
0.163273

>  <SCORE.RESTR.norm>
0.00709883

>  <SCORE.SYSTEM>
0

>  <SCORE.SYSTEM.CONST>
0

>  <SCORE.SYSTEM.DIHEDRAL>
0

>  <SCORE.SYSTEM.SOLV>
0

>  <SCORE.SYSTEM.norm>
0

>  <SCORE.heavy>
23

>  <SCORE.norm>
-1.55022

>  <RMSD>
3.590

$$$$

 OpenBabel11021811403D
libRbt.so/2013.1/901 2013/11/27
 23 25  0  0  0  0  0  0  0  0999 V2000
  -23.4263    8.4732    6.4932 S   0  0  0  0  0  0  0  0  0  0  0  0
  -25.4529    7.5980    8.4922 N   0  0  0  0  0  0  0  0  0  0  0  0
  -23.8999    6.7804   10.1456 C   0  0  0  0  0  0  0  0  0  0  0  0
  -22.5730    6.5656   10.5411 C   0  0  0  0  0  0  0  0  0  0  0  0
  -21.5239    6.9380    9.7061 C   0  0  0  0  0  0  0  0  0  0  0  0
  -21.7926    7.5213    8.4727 C   0  0  0  0  0  0  0  0  0  0  0  0
  -23.1075    7.7372    8.0682 C   0  0  0  0  0  0  0  0  0  0  0  0
  -24.1701    7.3687    8.9020 C   0  0  0  0  0  0  0  0  0  0  0  0
  -24.7924    7.3940    6.2037 C   0  0  0  0  0  0  0  0  0  0  0  0
  -25.0067    6.8609    4.9293 C   0  0  0  0  0  0  0  0  0  0  0  0
  -26.0927    6.0105    4.7030 C   0  0  0  0  0  0  0  0  0  0  0  0
  -26.9640    5.6993    5.7520 C   0  0  0  0  0  0  0  0  0  0  0  0
  -26.7447    6.2354    7.0214 C   0  0  0  0  0  0  0  0  0  0  0  0
  -25.6648    7.0767    7.2510 C   0  0  0  0  0  0  0  0  0  0  0  0
  -26.5624    7.5992    9.4777 C   0  0  0  0  0  0  0  0  0  0  0  0
  -26.2464    8.1524   10.9074 C   0  0  0  0  0  0  0  0  0  0  0  0
  -27.0619    7.4466   12.0440 C   0  0  0  0  0  0  0  0  0  0  0  0
  -27.3771    6.0052   11.8734 N   0  3  0  0  0  0  0  0  0  0  0  0
  -28.1838    5.4869   13.0083 C   0  0  0  0  0  0  0  0  0  0  0  0
  -26.1173    5.2073   11.6777 C   0  0  0  0  0  0  0  0  0  0  0  0
  -22.2713    5.9280   11.8673 C   0  0  0  0  0  0  0  0  0  0  0  0
  -22.4390    4.4456   12.0975 C   0  0  0  0  0  0  0  0  0  0  0  0
  -21.8203    6.6123   12.7720 O   0  0  0  0  0  0  0  0  0  0  0  0
  1  7  1  0  0  0  0
  1  9  1  0  0  0  0
  2  8  1  0  0  0  0
  2 14  1  0  0  0  0
  2 15  1  0  0  0  0
  3  4  2  0  0  0  0
  3  8  1  0  0  0  0
  4  5  1  0  0  0  0
  4 21  1  0  0  0  0
  5  6  2  0  0  0  0
  6  7  1  0  0  0  0
  7  8  2  0  0  0  0
  9 10  2  0  0  0  0
  9 14  1  0  0  0  0
 10 11  1  0  0  0  0
 11 12  2  0  0  0  0
 12 13  1  0  0  0  0
 13 14  2  0  0  0  0
 15 16  1  0  0  0  0
 16 17  1  0  0  0  0
 17 18  1  0  0  0  0
 18 19  1  0  0  0  0
 18 20  1  0  0  0  0
 21 22  1  0  0  0  0
 21 23  2  0  0  0  0
M  CHG  1  18   1
M  END
>  <CHROM.1>
34.53864738,75.89478999,-147.54834711,33.72503376,-58.43116227,-24.71860408
6.81507964,9.19742303,-1.59031120,0.11611455,1.75438430

>  <Name>


>  <RI>
0

>  <Rbt.Current_Directory>
/home/itssahil/PROJECTS/Mol_Feturizer/New_Systems/rnas/1lvj

>  <Rbt.Executable>
rbdock ($Id: //depot/dev/client3/rdock/2013.1/src/exe/rbdock.cxx#4 $)

>  <Rbt.Library>
libRbt.so (2013.1, Build901 2013/11/27)

>  <Rbt.Parameter_File>
/export/apps/rDock/src/rDock_2013.1_src/data/scripts/dock_solv.prm

>  <Rbt.Receptor>
prm/pocket_docking_3.prm

>  <SCORE>
-31.0142

>  <SCORE.INTER>
-36.504

>  <SCORE.INTER.CONST>
1

>  <SCORE.INTER.POLAR>
-1.1455

>  <SCORE.INTER.ROT>
5

>  <SCORE.INTER.SOLV>
14.4625

>  <SCORE.INTER.VDW>
-32.2718

>  <SCORE.INTER.norm>
-1.58713

>  <SCORE.INTRA>
4.91906

>  <SCORE.INTRA.DIHEDRAL>
9.60558

>  <SCORE.INTRA.DIHEDRAL.0>
8.06479

>  <SCORE.INTRA.POLAR>
0

>  <SCORE.INTRA.POLAR.0>
0

>  <SCORE.INTRA.REPUL>
0

>  <SCORE.INTRA.REPUL.0>
0

>  <SCORE.INTRA.SOLV>
2.389

>  <SCORE.INTRA.SOLV.lig_0>
-29.8054

>  <SCORE.INTRA.VDW>
-1.07823

>  <SCORE.INTRA.VDW.0>
2.61447

>  <SCORE.INTRA.norm>
0.213872

>  <SCORE.RESTR>
0.57078

>  <SCORE.RESTR.CAVITY>
0.57078

>  <SCORE.RESTR.norm>
0.0248165

>  <SCORE.SYSTEM>
0

>  <SCORE.SYSTEM.CONST>
0

>  <SCORE.SYSTEM.DIHEDRAL>
0

>  <SCORE.SYSTEM.SOLV>
0

>  <SCORE.SYSTEM.norm>
0

>  <SCORE.heavy>
23

>  <SCORE.norm>
-1.34844

>  <RMSD>
3.606

$$$$

 OpenBabel11021811403D
libRbt.so/2013.1/901 2013/11/27
 23 25  0  0  0  0  0  0  0  0999 V2000
  -23.5171    8.4484    6.1959 S   0  0  0  0  0  0  0  0  0  0  0  0
  -25.4829    7.6015    8.2665 N   0  0  0  0  0  0  0  0  0  0  0  0
  -23.8791    6.8718    9.9125 C   0  0  0  0  0  0  0  0  0  0  0  0
  -22.5400    6.6972   10.2862 C   0  0  0  0  0  0  0  0  0  0  0  0
  -21.5165    7.0618    9.4167 C   0  0  0  0  0  0  0  0  0  0  0  0
  -21.8230    7.5972    8.1705 C   0  0  0  0  0  0  0  0  0  0  0  0
  -23.1503    7.7730    7.7875 C   0  0  0  0  0  0  0  0  0  0  0  0
  -24.1873    7.4120    8.6560 C   0  0  0  0  0  0  0  0  0  0  0  0
  -24.8664    7.3329    5.9724 C   0  0  0  0  0  0  0  0  0  0  0  0
  -25.0962    6.7525    4.7215 C   0  0  0  0  0  0  0  0  0  0  0  0
  -26.1689    5.8735    4.5475 C   0  0  0  0  0  0  0  0  0  0  0  0
  -27.0114    5.5808    5.6250 C   0  0  0  0  0  0  0  0  0  0  0  0
  -26.7768    6.1641    6.8706 C   0  0  0  0  0  0  0  0  0  0  0  0
  -25.7099    7.0341    7.0484 C   0  0  0  0  0  0  0  0  0  0  0  0
  -26.5713    7.6141    9.2751 C   0  0  0  0  0  0  0  0  0  0  0  0
  -26.3054    8.4003   10.6022 C   0  0  0  0  0  0  0  0  0  0  0  0
  -26.0286    7.4714   11.8333 C   0  0  0  0  0  0  0  0  0  0  0  0
  -26.9133    6.2932   12.0207 N   0  3  0  0  0  0  0  0  0  0  0  0
  -27.0973    5.9749   13.4603 C   0  0  0  0  0  0  0  0  0  0  0  0
  -26.3899    5.1105   11.2531 C   0  0  0  0  0  0  0  0  0  0  0  0
  -22.1975    6.1113   11.6263 C   0  0  0  0  0  0  0  0  0  0  0  0
  -20.7713    5.9982   12.1076 C   0  0  0  0  0  0  0  0  0  0  0  0
  -23.0966    5.7695   12.3780 O   0  0  0  0  0  0  0  0  0  0  0  0
  1  7  1  0  0  0  0
  1  9  1  0  0  0  0
  2  8  1  0  0  0  0
  2 14  1  0  0  0  0
  2 15  1  0  0  0  0
  3  4  2  0  0  0  0
  3  8  1  0  0  0  0
  4  5  1  0  0  0  0
  4 21  1  0  0  0  0
  5  6  2  0  0  0  0
  6  7  1  0  0  0  0
  7  8  2  0  0  0  0
  9 10  2  0  0  0  0
  9 14  1  0  0  0  0
 10 11  1  0  0  0  0
 11 12  2  0  0  0  0
 12 13  1  0  0  0  0
 13 14  2  0  0  0  0
 15 16  1  0  0  0  0
 16 17  1  0  0  0  0
 17 18  1  0  0  0  0
 18 19  1  0  0  0  0
 18 20  1  0  0  0  0
 21 22  1  0  0  0  0
 21 23  2  0  0  0  0
M  CHG  1  18   1
M  END
>  <CHROM.1>
43.00728377,-175.51568760,-105.47410410,-44.69088358,-27.70046134,-24.62822047
6.89229440,9.00679659,-1.68394258,0.12551278,1.70966748

>  <Name>


>  <RI>
0

>  <Rbt.Current_Directory>
/home/itssahil/PROJECTS/Mol_Feturizer/New_Systems/rnas/1lvj

>  <Rbt.Executable>
rbdock ($Id: //depot/dev/client3/rdock/2013.1/src/exe/rbdock.cxx#4 $)

>  <Rbt.Library>
libRbt.so (2013.1, Build901 2013/11/27)

>  <Rbt.Parameter_File>
/export/apps/rDock/src/rDock_2013.1_src/data/scripts/dock_solv.prm

>  <Rbt.Receptor>
prm/pocket_docking_3.prm

>  <SCORE>
-35.5166

>  <SCORE.INTER>
-35.5758

>  <SCORE.INTER.CONST>
1

>  <SCORE.INTER.POLAR>
-1.15896

>  <SCORE.INTER.ROT>
5

>  <SCORE.INTER.SOLV>
13.6275

>  <SCORE.INTER.VDW>
-31.3299

>  <SCORE.INTER.norm>
-1.54678

>  <SCORE.INTRA>
-0.342428

>  <SCORE.INTRA.DIHEDRAL>
-0.305608

>  <SCORE.INTRA.DIHEDRAL.0>
8.06479

>  <SCORE.INTRA.POLAR>
0

>  <SCORE.INTRA.POLAR.0>
0

>  <SCORE.INTRA.REPUL>
0

>  <SCORE.INTRA.REPUL.0>
0

>  <SCORE.INTRA.SOLV>
2.733

>  <SCORE.INTRA.SOLV.lig_0>
-29.8054

>  <SCORE.INTRA.VDW>
-1.55612

>  <SCORE.INTRA.VDW.0>
2.61447

>  <SCORE.INTRA.norm>
-0.0148882

>  <SCORE.RESTR>
0.401656

>  <SCORE.RESTR.CAVITY>
0.401656

>  <SCORE.RESTR.norm>
0.0174633

>  <SCORE.SYSTEM>
0

>  <SCORE.SYSTEM.CONST>
0

>  <SCORE.SYSTEM.DIHEDRAL>
0

>  <SCORE.SYSTEM.SOLV>
0

>  <SCORE.SYSTEM.norm>
0

>  <SCORE.heavy>
23

>  <SCORE.norm>
-1.5442

>  <RMSD>
3.650

$$$$

 OpenBabel11021811403D
libRbt.so/2013.1/901 2013/11/27
 23 25  0  0  0  0  0  0  0  0999 V2000
  -23.4092    8.4812    6.4881 S   0  0  0  0  0  0  0  0  0  0  0  0
  -25.4342    7.6054    8.4885 N   0  0  0  0  0  0  0  0  0  0  0  0
  -23.8799    6.7853   10.1395 C   0  0  0  0  0  0  0  0  0  0  0  0
  -22.5527    6.5693   10.5332 C   0  0  0  0  0  0  0  0  0  0  0  0
  -21.5043    6.9418    9.6975 C   0  0  0  0  0  0  0  0  0  0  0  0
  -21.7740    7.5264    8.4649 C   0  0  0  0  0  0  0  0  0  0  0  0
  -23.0892    7.7435    8.0621 C   0  0  0  0  0  0  0  0  0  0  0  0
  -24.1511    7.3749    8.8967 C   0  0  0  0  0  0  0  0  0  0  0  0
  -24.7764    7.4031    6.1991 C   0  0  0  0  0  0  0  0  0  0  0  0
  -24.9924    6.8713    4.9244 C   0  0  0  0  0  0  0  0  0  0  0  0
  -26.0792    6.0219    4.6985 C   0  0  0  0  0  0  0  0  0  0  0  0
  -26.9495    5.7102    5.7482 C   0  0  0  0  0  0  0  0  0  0  0  0
  -26.7285    6.2450    7.0179 C   0  0  0  0  0  0  0  0  0  0  0  0
  -25.6478    7.0854    7.2471 C   0  0  0  0  0  0  0  0  0  0  0  0
  -26.5426    7.6064    9.4752 C   0  0  0  0  0  0  0  0  0  0  0  0
  -26.2228    8.1517   10.9071 C   0  0  0  0  0  0  0  0  0  0  0  0
  -27.0648    7.4678   12.0379 C   0  0  0  0  0  0  0  0  0  0  0  0
  -27.3633    6.0199   11.8953 N   0  3  0  0  0  0  0  0  0  0  0  0
  -28.1818    5.5191   13.0297 C   0  0  0  0  0  0  0  0  0  0  0  0
  -26.0930    5.2305   11.7363 C   0  0  0  0  0  0  0  0  0  0  0  0
  -22.2499    5.9302   11.8585 C   0  0  0  0  0  0  0  0  0  0  0  0
  -21.9055    6.7482   13.0796 C   0  0  0  0  0  0  0  0  0  0  0  0
  -22.3415    4.7185   11.9740 O   0  0  0  0  0  0  0  0  0  0  0  0
  1  7  1  0  0  0  0
  1  9  1  0  0  0  0
  2  8  1  0  0  0  0
  2 14  1  0  0  0  0
  2 15  1  0  0  0  0
  3  4  2  0  0  0  0
  3  8  1  0  0  0  0
  4  5  1  0  0  0  0
  4 21  1  0  0  0  0
  5  6  2  0  0  0  0
  6  7  1  0  0  0  0
  7  8  2  0  0  0  0
  9 10  2  0  0  0  0
  9 14  1  0  0  0  0
 10 11  1  0  0  0  0
 11 12  2  0  0  0  0
 12 13  1  0  0  0  0
 13 14  2  0  0  0  0
 15 16  1  0  0  0  0
 16 17  1  0  0  0  0
 17 18  1  0  0  0  0
 18 19  1  0  0  0  0
 18 20  1  0  0  0  0
 21 22  1  0  0  0  0
 21 23  2  0  0  0  0
M  CHG  1  18   1
M  END
>  <CHROM.1>
34.25386474,-97.29227395,-148.93544395,36.45989640,-59.24039651,-24.70472462
6.83723810,9.20425365,-1.58842554,0.11973638,1.74240566

>  <Name>


>  <RI>
0

>  <Rbt.Current_Directory>
/home/itssahil/PROJECTS/Mol_Feturizer/New_Systems/rnas/1lvj

>  <Rbt.Executable>
rbdock ($Id: //depot/dev/client3/rdock/2013.1/src/exe/rbdock.cxx#4 $)

>  <Rbt.Library>
libRbt.so (2013.1, Build901 2013/11/27)

>  <Rbt.Parameter_File>
/export/apps/rDock/src/rDock_2013.1_src/data/scripts/dock_solv.prm

>  <Rbt.Receptor>
prm/pocket_docking_3.prm

>  <SCORE>
-30.1008

>  <SCORE.INTER>
-35.5191

>  <SCORE.INTER.CONST>
1

>  <SCORE.INTER.POLAR>
-1.10611

>  <SCORE.INTER.ROT>
5

>  <SCORE.INTER.SOLV>
14.3987

>  <SCORE.INTER.VDW>
-31.7253

>  <SCORE.INTER.norm>
-1.54431

>  <SCORE.INTRA>
4.90205

>  <SCORE.INTRA.DIHEDRAL>
9.66694

>  <SCORE.INTRA.DIHEDRAL.0>
8.06479

>  <SCORE.INTRA.POLAR>
0

>  <SCORE.INTRA.POLAR.0>
0

>  <SCORE.INTRA.REPUL>
0

>  <SCORE.INTRA.REPUL.0>
0

>  <SCORE.INTRA.SOLV>
2.41243

>  <SCORE.INTRA.SOLV.lig_0>
-29.8054

>  <SCORE.INTRA.VDW>
-1.13763

>  <SCORE.INTRA.VDW.0>
2.61447

>  <SCORE.INTRA.norm>
0.213133

>  <SCORE.RESTR>
0.516288

>  <SCORE.RESTR.CAVITY>
0.516288

>  <SCORE.RESTR.norm>
0.0224473

>  <SCORE.SYSTEM>
0

>  <SCORE.SYSTEM.CONST>
0

>  <SCORE.SYSTEM.DIHEDRAL>
0

>  <SCORE.SYSTEM.SOLV>
0

>  <SCORE.SYSTEM.norm>
0

>  <SCORE.heavy>
23

>  <SCORE.norm>
-1.30873

>  <RMSD>
3.653

$$$$

 OpenBabel11021811403D
libRbt.so/2013.1/901 2013/11/27
 23 25  0  0  0  0  0  0  0  0999 V2000
  -23.3648    8.5140    6.1031 S   0  0  0  0  0  0  0  0  0  0  0  0
  -25.3299    7.7442    8.2043 N   0  0  0  0  0  0  0  0  0  0  0  0
  -23.7257    7.0626    9.8704 C   0  0  0  0  0  0  0  0  0  0  0  0
  -22.3866    6.8948   10.2471 C   0  0  0  0  0  0  0  0  0  0  0  0
  -21.3634    7.2262    9.3641 C   0  0  0  0  0  0  0  0  0  0  0  0
  -21.6702    7.7215    8.1015 C   0  0  0  0  0  0  0  0  0  0  0  0
  -22.9975    7.8901    7.7154 C   0  0  0  0  0  0  0  0  0  0  0  0
  -24.0343    7.5623    8.5973 C   0  0  0  0  0  0  0  0  0  0  0  0
  -24.7192    7.3974    5.9191 C   0  0  0  0  0  0  0  0  0  0  0  0
  -24.9539    6.7771    4.6886 C   0  0  0  0  0  0  0  0  0  0  0  0
  -26.0306    5.8972    4.5458 C   0  0  0  0  0  0  0  0  0  0  0  0
  -26.8721    5.6438    5.6339 C   0  0  0  0  0  0  0  0  0  0  0  0
  -26.6325    6.2670    6.8591 C   0  0  0  0  0  0  0  0  0  0  0  0
  -25.5617    7.1379    7.0061 C   0  0  0  0  0  0  0  0  0  0  0  0
  -26.4161    7.7947    9.2140 C   0  0  0  0  0  0  0  0  0  0  0  0
  -26.5857    6.5464   10.1429 C   0  0  0  0  0  0  0  0  0  0  0  0
  -26.7491    6.9131   11.6576 C   0  0  0  0  0  0  0  0  0  0  0  0
  -27.5404    5.9887   12.5092 N   0  3  0  0  0  0  0  0  0  0  0  0
  -27.6549    6.4955   13.9012 C   0  0  0  0  0  0  0  0  0  0  0  0
  -26.9582    4.6026   12.4692 C   0  0  0  0  0  0  0  0  0  0  0  0
  -22.0438    6.3520   11.6052 C   0  0  0  0  0  0  0  0  0  0  0  0
  -23.0975    5.7983   12.5334 C   0  0  0  0  0  0  0  0  0  0  0  0
  -20.8743    6.2990   11.9512 O   0  0  0  0  0  0  0  0  0  0  0  0
  1  7  1  0  0  0  0
  1  9  1  0  0  0  0
  2  8  1  0  0  0  0
  2 14  1  0  0  0  0
  2 15  1  0  0  0  0
  3  4  2  0  0  0  0
  3  8  1  0  0  0  0
  4  5  1  0  0  0  0
  4 21  1  0  0  0  0
  5  6  2  0  0  0  0
  6  7  1  0  0  0  0
  7  8  2  0  0  0  0
  9 10  2  0  0  0  0
  9 14  1  0  0  0  0
 10 11  1  0  0  0  0
 11 12  2  0  0  0  0
 12 13  1  0  0  0  0
 13 14  2  0  0  0  0
 15 16  1  0  0  0  0
 16 17  1  0  0  0  0
 17 18  1  0  0  0  0
 18 19  1  0  0  0  0
 18 20  1  0  0  0  0
 21 22  1  0  0  0  0
 21 23  2  0  0  0  0
M  CHG  1  18   1
M  END
>  <CHROM.1>
-58.35304382,8.37683195,133.35591623,150.83903545,-57.64506757,-24.64774815
6.87130249,9.04397421,-1.43352088,0.18087905,1.72579189

>  <Name>


>  <RI>
0

>  <Rbt.Current_Directory>
/home/itssahil/PROJECTS/Mol_Feturizer/New_Systems/rnas/1lvj

>  <Rbt.Executable>
rbdock ($Id: //depot/dev/client3/rdock/2013.1/src/exe/rbdock.cxx#4 $)

>  <Rbt.Library>
libRbt.so (2013.1, Build901 2013/11/27)

>  <Rbt.Parameter_File>
/export/apps/rDock/src/rDock_2013.1_src/data/scripts/dock_solv.prm

>  <Rbt.Receptor>
prm/pocket_docking_3.prm

>  <SCORE>
-26.0662

>  <SCORE.INTER>
-25.6116

>  <SCORE.INTER.CONST>
1

>  <SCORE.INTER.POLAR>
-0.273429

>  <SCORE.INTER.ROT>
5

>  <SCORE.INTER.SOLV>
13.5918

>  <SCORE.INTER.VDW>
-27.6269

>  <SCORE.INTER.norm>
-1.11355

>  <SCORE.INTRA>
-1.18412

>  <SCORE.INTRA.DIHEDRAL>
0.0821105

>  <SCORE.INTRA.DIHEDRAL.0>
8.06479

>  <SCORE.INTRA.POLAR>
0

>  <SCORE.INTRA.POLAR.0>
0

>  <SCORE.INTRA.REPUL>
0

>  <SCORE.INTRA.REPUL.0>
0

>  <SCORE.INTRA.SOLV>
0.513791

>  <SCORE.INTRA.SOLV.lig_0>
-29.8054

>  <SCORE.INTRA.VDW>
-1.48207

>  <SCORE.INTRA.VDW.0>
2.61447

>  <SCORE.INTRA.norm>
-0.0514833

>  <SCORE.RESTR>
0.729587

>  <SCORE.RESTR.CAVITY>
0.729587

>  <SCORE.RESTR.norm>
0.0317212

>  <SCORE.SYSTEM>
0

>  <SCORE.SYSTEM.CONST>
0

>  <SCORE.SYSTEM.DIHEDRAL>
0

>  <SCORE.SYSTEM.SOLV>
0

>  <SCORE.SYSTEM.norm>
0

>  <SCORE.heavy>
23

>  <SCORE.norm>
-1.13331

>  <RMSD>
3.653

$$$$

 OpenBabel11021811403D
libRbt.so/2013.1/901 2013/11/27
 23 25  0  0  0  0  0  0  0  0999 V2000
  -22.4482    8.3460    6.1396 S   0  0  0  0  0  0  0  0  0  0  0  0
  -24.8425    8.2587    7.9086 N   0  0  0  0  0  0  0  0  0  0  0  0
  -23.7125    7.4863    9.8937 C   0  0  0  0  0  0  0  0  0  0  0  0
  -22.5201    7.1025   10.5215 C   0  0  0  0  0  0  0  0  0  0  0  0
  -21.3222    7.1073    9.8134 C   0  0  0  0  0  0  0  0  0  0  0  0
  -21.3083    7.4898    8.4765 C   0  0  0  0  0  0  0  0  0  0  0  0
  -22.4877    7.8707    7.8416 C   0  0  0  0  0  0  0  0  0  0  0  0
  -23.6977    7.8720    8.5458 C   0  0  0  0  0  0  0  0  0  0  0  0
  -23.9678    7.5095    5.8137 C   0  0  0  0  0  0  0  0  0  0  0  0
  -24.1344    6.7978    4.6221 C   0  0  0  0  0  0  0  0  0  0  0  0
  -25.3413    6.1409    4.3655 C   0  0  0  0  0  0  0  0  0  0  0  0
  -26.3797    6.2014    5.3006 C   0  0  0  0  0  0  0  0  0  0  0  0
  -26.2069    6.9142    6.4876 C   0  0  0  0  0  0  0  0  0  0  0  0
  -25.0084    7.5642    6.7479 C   0  0  0  0  0  0  0  0  0  0  0  0
  -26.0374    8.6536    8.6949 C   0  0  0  0  0  0  0  0  0  0  0  0
  -26.5271    7.6572    9.7982 C   0  0  0  0  0  0  0  0  0  0  0  0
  -26.8443    8.3492   11.1678 C   0  0  0  0  0  0  0  0  0  0  0  0
  -26.5708    7.5800   12.4085 N   0  3  0  0  0  0  0  0  0  0  0  0
  -27.5683    6.4971   12.6080 C   0  0  0  0  0  0  0  0  0  0  0  0
  -26.5039    8.4989   13.5973 C   0  0  0  0  0  0  0  0  0  0  0  0
  -22.5249    6.6787   11.9626 C   0  0  0  0  0  0  0  0  0  0  0  0
  -21.2595    6.2783   12.6816 C   0  0  0  0  0  0  0  0  0  0  0  0
  -23.5692    6.7140   12.5938 O   0  0  0  0  0  0  0  0  0  0  0  0
  1  7  1  0  0  0  0
  1  9  1  0  0  0  0
  2  8  1  0  0  0  0
  2 14  1  0  0  0  0
  2 15  1  0  0  0  0
  3  4  2  0  0  0  0
  3  8  1  0  0  0  0
  4  5  1  0  0  0  0
  4 21  1  0  0  0  0
  5  6  2  0  0  0  0
  6  7  1  0  0  0  0
  7  8  2  0  0  0  0
  9 10  2  0  0  0  0
  9 14  1  0  0  0  0
 10 11  1  0  0  0  0
 11 12  2  0  0  0  0
 12 13  1  0  0  0  0
 13 14  2  0  0  0  0
 15 16  1  0  0  0  0
 16 17  1  0  0  0  0
 17 18  1  0  0  0  0
 18 19  1  0  0  0  0
 18 20  1  0  0  0  0
 21 22  1  0  0  0  0
 21 23  2  0  0  0  0
M  CHG  1  18   1
M  END
>  <CHROM.1>
-51.75285363,-179.05201395,133.51180953,-146.32012113,46.79259953,-24.32541400
7.42730494,9.01236328,-1.43940721,-0.03424106,1.57671158

>  <Name>


>  <RI>
0

>  <Rbt.Current_Directory>
/home/itssahil/PROJECTS/Mol_Feturizer/New_Systems/rnas/1lvj

>  <Rbt.Executable>
rbdock ($Id: //depot/dev/client3/rdock/2013.1/src/exe/rbdock.cxx#4 $)

>  <Rbt.Library>
libRbt.so (2013.1, Build901 2013/11/27)

>  <Rbt.Parameter_File>
/export/apps/rDock/src/rDock_2013.1_src/data/scripts/dock_solv.prm

>  <Rbt.Receptor>
prm/pocket_docking_4.prm

>  <SCORE>
-29.496

>  <SCORE.INTER>
-25.9958

>  <SCORE.INTER.CONST>
1

>  <SCORE.INTER.POLAR>
0

>  <SCORE.INTER.ROT>
5

>  <SCORE.INTER.SOLV>
11.2625

>  <SCORE.INTER.VDW>
-28.018

>  <SCORE.INTER.norm>
-1.13025

>  <SCORE.INTRA>
-3.50101

>  <SCORE.INTRA.DIHEDRAL>
1.3071

>  <SCORE.INTRA.DIHEDRAL.0>
8.06479

>  <SCORE.INTRA.POLAR>
-1.5

>  <SCORE.INTRA.POLAR.0>
0

>  <SCORE.INTRA.REPUL>
0

>  <SCORE.INTRA.REPUL.0>
0

>  <SCORE.INTRA.SOLV>
5.39678

>  <SCORE.INTRA.SOLV.lig_0>
-29.8054

>  <SCORE.INTRA.VDW>
-1.75295

>  <SCORE.INTRA.VDW.0>
2.61447

>  <SCORE.INTRA.norm>
-0.152218

>  <SCORE.RESTR>
0.00076932

>  <SCORE.RESTR.CAVITY>
0.00076932

>  <SCORE.RESTR.norm>
3.34487e-05

>  <SCORE.SYSTEM>
0

>  <SCORE.SYSTEM.CONST>
0

>  <SCORE.SYSTEM.DIHEDRAL>
0

>  <SCORE.SYSTEM.SOLV>
0

>  <SCORE.SYSTEM.norm>
0

>  <SCORE.heavy>
23

>  <SCORE.norm>
-1.28244

>  <RMSD>
3.679

$$$$

 OpenBabel11021811403D
libRbt.so/2013.1/901 2013/11/27
 23 25  0  0  0  0  0  0  0  0999 V2000
  -23.6684    8.5942    6.3131 S   0  0  0  0  0  0  0  0  0  0  0  0
  -25.4450    7.6478    8.5079 N   0  0  0  0  0  0  0  0  0  0  0  0
  -23.6993    6.9565   10.0207 C   0  0  0  0  0  0  0  0  0  0  0  0
  -22.3310    6.8267   10.2929 C   0  0  0  0  0  0  0  0  0  0  0  0
  -21.3879    7.2404    9.3570 C   0  0  0  0  0  0  0  0  0  0  0  0
  -21.8042    7.7805    8.1451 C   0  0  0  0  0  0  0  0  0  0  0  0
  -23.1615    7.9120    7.8628 C   0  0  0  0  0  0  0  0  0  0  0  0
  -24.1183    7.5013    8.7988 C   0  0  0  0  0  0  0  0  0  0  0  0
  -24.9894    7.4325    6.1710 C   0  0  0  0  0  0  0  0  0  0  0  0
  -25.2895    6.8606    4.9312 C   0  0  0  0  0  0  0  0  0  0  0  0
  -26.3397    5.9447    4.8219 C   0  0  0  0  0  0  0  0  0  0  0  0
  -27.0897    5.6068    5.9532 C   0  0  0  0  0  0  0  0  0  0  0  0
  -26.7853    6.1820    7.1875 C   0  0  0  0  0  0  0  0  0  0  0  0
  -25.7403    7.0885    7.3008 C   0  0  0  0  0  0  0  0  0  0  0  0
  -26.4560    7.6068    9.5933 C   0  0  0  0  0  0  0  0  0  0  0  0
  -26.4673    6.3386   10.5106 C   0  0  0  0  0  0  0  0  0  0  0  0
  -27.1697    6.5733   11.8915 C   0  0  0  0  0  0  0  0  0  0  0  0
  -27.2840    5.4139   12.8127 N   0  3  0  0  0  0  0  0  0  0  0  0
  -25.9529    4.9838   13.3134 C   0  0  0  0  0  0  0  0  0  0  0  0
  -28.0203    4.2820   12.1505 C   0  0  0  0  0  0  0  0  0  0  0  0
  -21.8700    6.2363   11.5950 C   0  0  0  0  0  0  0  0  0  0  0  0
  -22.7245    5.2721   12.3818 C   0  0  0  0  0  0  0  0  0  0  0  0
  -20.7492    6.4923   12.0052 O   0  0  0  0  0  0  0  0  0  0  0  0
  1  7  1  0  0  0  0
  1  9  1  0  0  0  0
  2  8  1  0  0  0  0
  2 14  1  0  0  0  0
  2 15  1  0  0  0  0
  3  4  2  0  0  0  0
  3  8  1  0  0  0  0
  4  5  1  0  0  0  0
  4 21  1  0  0  0  0
  5  6  2  0  0  0  0
  6  7  1  0  0  0  0
  7  8  2  0  0  0  0
  9 10  2  0  0  0  0
  9 14  1  0  0  0  0
 10 11  1  0  0  0  0
 11 12  2  0  0  0  0
 12 13  1  0  0  0  0
 13 14  2  0  0  0  0
 15 16  1  0  0  0  0
 16 17  1  0  0  0  0
 17 18  1  0  0  0  0
 18 19  1  0  0  0  0
 18 20  1  0  0  0  0
 21 22  1  0  0  0  0
 21 23  2  0  0  0  0
M  CHG  1  18   1
M  END
>  <CHROM.1>
-55.65304416,25.86169635,159.42078955,177.46764037,-172.71420920,-24.69431018
6.70975269,9.17906658,-1.53260658,0.25406515,1.83495525

>  <Name>


>  <RI>
0

>  <Rbt.Current_Directory>
/home/itssahil/PROJECTS/Mol_Feturizer/New_Systems/rnas/1lvj

>  <Rbt.Executable>
rbdock ($Id: //depot/dev/client3/rdock/2013.1/src/exe/rbdock.cxx#4 $)

>  <Rbt.Library>
libRbt.so (2013.1, Build901 2013/11/27)

>  <Rbt.Parameter_File>
/export/apps/rDock/src/rDock_2013.1_src/data/scripts/dock_solv.prm

>  <Rbt.Receptor>
prm/pocket_docking_3.prm

>  <SCORE>
-29.0269

>  <SCORE.INTER>
-26.5721

>  <SCORE.INTER.CONST>
1

>  <SCORE.INTER.POLAR>
0

>  <SCORE.INTER.ROT>
5

>  <SCORE.INTER.SOLV>
10.6796

>  <SCORE.INTER.VDW>
-28.208

>  <SCORE.INTER.norm>
-1.15531

>  <SCORE.INTRA>
-2.68688

>  <SCORE.INTRA.DIHEDRAL>
-3.79677

>  <SCORE.INTRA.DIHEDRAL.0>
8.06479

>  <SCORE.INTRA.POLAR>
0

>  <SCORE.INTRA.POLAR.0>
0

>  <SCORE.INTRA.REPUL>
0

>  <SCORE.INTRA.REPUL.0>
0

>  <SCORE.INTRA.SOLV>
-0.597824

>  <SCORE.INTRA.SOLV.lig_0>
-29.8054

>  <SCORE.INTRA.VDW>
-0.489588

>  <SCORE.INTRA.VDW.0>
2.61447

>  <SCORE.INTRA.norm>
-0.116821

>  <SCORE.RESTR>
0.232155

>  <SCORE.RESTR.CAVITY>
0.232155

>  <SCORE.RESTR.norm>
0.0100937

>  <SCORE.SYSTEM>
0

>  <SCORE.SYSTEM.CONST>
0

>  <SCORE.SYSTEM.DIHEDRAL>
0

>  <SCORE.SYSTEM.SOLV>
0

>  <SCORE.SYSTEM.norm>
0

>  <SCORE.heavy>
23

>  <SCORE.norm>
-1.26204

>  <RMSD>
3.713

$$$$

 OpenBabel11021811403D
libRbt.so/2013.1/901 2013/11/27
 23 25  0  0  0  0  0  0  0  0999 V2000
  -23.3894    8.5363    6.2371 S   0  0  0  0  0  0  0  0  0  0  0  0
  -25.3516    7.7131    8.3208 N   0  0  0  0  0  0  0  0  0  0  0  0
  -23.7448    7.0045    9.9731 C   0  0  0  0  0  0  0  0  0  0  0  0
  -22.4051    6.8352   10.3468 C   0  0  0  0  0  0  0  0  0  0  0  0
  -21.3831    7.1900    9.4715 C   0  0  0  0  0  0  0  0  0  0  0  0
  -21.6918    7.7102    8.2193 C   0  0  0  0  0  0  0  0  0  0  0  0
  -23.0198    7.8804    7.8362 C   0  0  0  0  0  0  0  0  0  0  0  0
  -24.0553    7.5292    8.7106 C   0  0  0  0  0  0  0  0  0  0  0  0
  -24.7383    7.4173    6.0292 C   0  0  0  0  0  0  0  0  0  0  0  0
  -24.9696    6.8217    4.7858 C   0  0  0  0  0  0  0  0  0  0  0  0
  -26.0419    5.9399    4.6240 C   0  0  0  0  0  0  0  0  0  0  0  0
  -26.8826    5.6597    5.7061 C   0  0  0  0  0  0  0  0  0  0  0  0
  -26.6465    6.2582    6.9443 C   0  0  0  0  0  0  0  0  0  0  0  0
  -25.5800    7.1310    7.1100 C   0  0  0  0  0  0  0  0  0  0  0  0
  -26.4384    7.7372    9.3308 C   0  0  0  0  0  0  0  0  0  0  0  0
  -26.5895    6.4770   10.2469 C   0  0  0  0  0  0  0  0  0  0  0  0
  -25.9363    6.6511   11.6605 C   0  0  0  0  0  0  0  0  0  0  0  0
  -26.0046    5.5011   12.5979 N   0  3  0  0  0  0  0  0  0  0  0  0
  -25.1413    5.7173   13.7876 C   0  0  0  0  0  0  0  0  0  0  0  0
  -25.6624    4.2194   11.8893 C   0  0  0  0  0  0  0  0  0  0  0  0
  -22.0601    6.2658   11.6934 C   0  0  0  0  0  0  0  0  0  0  0  0
  -22.5049    4.8862   12.1149 C   0  0  0  0  0  0  0  0  0  0  0  0
  -21.3496    6.9073   12.4508 O   0  0  0  0  0  0  0  0  0  0  0  0
  1  7  1  0  0  0  0
  1  9  1  0  0  0  0
  2  8  1  0  0  0  0
  2 14  1  0  0  0  0
  2 15  1  0  0  0  0
  3  4  2  0  0  0  0
  3  8  1  0  0  0  0
  4  5  1  0  0  0  0
  4 21  1  0  0  0  0
  5  6  2  0  0  0  0
  6  7  1  0  0  0  0
  7  8  2  0  0  0  0
  9 10  2  0  0  0  0
  9 14  1  0  0  0  0
 10 11  1  0  0  0  0
 11 12  2  0  0  0  0
 12 13  1  0  0  0  0
 13 14  2  0  0  0  0
 15 16  1  0  0  0  0
 16 17  1  0  0  0  0
 17 18  1  0  0  0  0
 18 19  1  0  0  0  0
 18 20  1  0  0  0  0
 21 22  1  0  0  0  0
 21 23  2  0  0  0  0
M  CHG  1  18   1
M  END
>  <CHROM.1>
-57.51347175,60.23132658,99.08827661,-178.95002137,-70.36910094,-24.37683042
6.76070157,9.10080797,-1.74453832,0.30398063,1.82805941

>  <Name>


>  <RI>
0

>  <Rbt.Current_Directory>
/home/itssahil/PROJECTS/Mol_Feturizer/New_Systems/rnas/1lvj

>  <Rbt.Executable>
rbdock ($Id: //depot/dev/client3/rdock/2013.1/src/exe/rbdock.cxx#4 $)

>  <Rbt.Library>
libRbt.so (2013.1, Build901 2013/11/27)

>  <Rbt.Parameter_File>
/export/apps/rDock/src/rDock_2013.1_src/data/scripts/dock_solv.prm

>  <Rbt.Receptor>
prm/pocket_docking_2.prm

>  <SCORE>
-19.3946

>  <SCORE.INTER>
-26.2443

>  <SCORE.INTER.CONST>
1

>  <SCORE.INTER.POLAR>
0

>  <SCORE.INTER.ROT>
5

>  <SCORE.INTER.SOLV>
11.0448

>  <SCORE.INTER.VDW>
-28.1111

>  <SCORE.INTER.norm>
-1.14106

>  <SCORE.INTRA>
4.2389

>  <SCORE.INTRA.DIHEDRAL>
6.10635

>  <SCORE.INTRA.DIHEDRAL.0>
8.06479

>  <SCORE.INTRA.POLAR>
0

>  <SCORE.INTRA.POLAR.0>
0

>  <SCORE.INTRA.REPUL>
0

>  <SCORE.INTRA.REPUL.0>
0

>  <SCORE.INTRA.SOLV>
0.474034

>  <SCORE.INTRA.SOLV.lig_0>
-29.8054

>  <SCORE.INTRA.VDW>
0.94871

>  <SCORE.INTRA.VDW.0>
2.61447

>  <SCORE.INTRA.norm>
0.1843

>  <SCORE.RESTR>
2.61079

>  <SCORE.RESTR.CAVITY>
2.61079

>  <SCORE.RESTR.norm>
0.113512

>  <SCORE.SYSTEM>
0

>  <SCORE.SYSTEM.CONST>
0

>  <SCORE.SYSTEM.DIHEDRAL>
0

>  <SCORE.SYSTEM.SOLV>
0

>  <SCORE.SYSTEM.norm>
0

>  <SCORE.heavy>
23

>  <SCORE.norm>
-0.843244

>  <RMSD>
3.717

$$$$

 OpenBabel11021811403D
libRbt.so/2013.1/901 2013/11/27
 23 25  0  0  0  0  0  0  0  0999 V2000
  -23.4241    8.4747    6.5011 S   0  0  0  0  0  0  0  0  0  0  0  0
  -25.4656    7.5575    8.4659 N   0  0  0  0  0  0  0  0  0  0  0  0
  -23.9247    6.7151   10.1182 C   0  0  0  0  0  0  0  0  0  0  0  0
  -22.6007    6.4973   10.5216 C   0  0  0  0  0  0  0  0  0  0  0  0
  -21.5454    6.8879    9.7029 C   0  0  0  0  0  0  0  0  0  0  0  0
  -21.8050    7.4924    8.4778 C   0  0  0  0  0  0  0  0  0  0  0  0
  -23.1170    7.7116    8.0655 C   0  0  0  0  0  0  0  0  0  0  0  0
  -24.1857    7.3249    8.8830 C   0  0  0  0  0  0  0  0  0  0  0  0
  -24.7841    7.3967    6.1801 C   0  0  0  0  0  0  0  0  0  0  0  0
  -24.9853    6.8859    4.8944 C   0  0  0  0  0  0  0  0  0  0  0  0
  -26.0665    6.0364    4.6432 C   0  0  0  0  0  0  0  0  0  0  0  0
  -26.9461    5.7037    5.6786 C   0  0  0  0  0  0  0  0  0  0  0  0
  -26.7399    6.2176    6.9594 C   0  0  0  0  0  0  0  0  0  0  0  0
  -25.6648    7.0579    7.2137 C   0  0  0  0  0  0  0  0  0  0  0  0
  -26.5838    7.5376    9.4412 C   0  0  0  0  0  0  0  0  0  0  0  0
  -26.3075    8.1469   10.8563 C   0  0  0  0  0  0  0  0  0  0  0  0
  -27.1509    7.4825   11.9975 C   0  0  0  0  0  0  0  0  0  0  0  0
  -26.6718    6.1874   12.5443 N   0  3  0  0  0  0  0  0  0  0  0  0
  -25.3399    6.3281   13.1876 C   0  0  0  0  0  0  0  0  0  0  0  0
  -26.6621    5.1315   11.4732 C   0  0  0  0  0  0  0  0  0  0  0  0
  -22.3088    5.8369   11.8388 C   0  0  0  0  0  0  0  0  0  0  0  0
  -21.8818    6.6278   13.0516 C   0  0  0  0  0  0  0  0  0  0  0  0
  -22.4772    4.6336   11.9558 O   0  0  0  0  0  0  0  0  0  0  0  0
  1  7  1  0  0  0  0
  1  9  1  0  0  0  0
  2  8  1  0  0  0  0
  2 14  1  0  0  0  0
  2 15  1  0  0  0  0
  3  4  2  0  0  0  0
  3  8  1  0  0  0  0
  4  5  1  0  0  0  0
  4 21  1  0  0  0  0
  5  6  2  0  0  0  0
  6  7  1  0  0  0  0
  7  8  2  0  0  0  0
  9 10  2  0  0  0  0
  9 14  1  0  0  0  0
 10 11  1  0  0  0  0
 11 12  2  0  0  0  0
 12 13  1  0  0  0  0
 13 14  2  0  0  0  0
 15 16  1  0  0  0  0
 16 17  1  0  0  0  0
 17 18  1  0  0  0  0
 18 19  1  0  0  0  0
 18 20  1  0  0  0  0
 21 22  1  0  0  0  0
 21 23  2  0  0  0  0
M  CHG  1  18   1
M  END
>  <CHROM.1>
38.19963763,-101.83326069,-150.19940657,80.46336367,-177.26693574,-24.59782761
6.84529572,9.21465675,-1.71398262,0.08825900,1.72532086

>  <Name>


>  <RI>
0

>  <Rbt.Current_Directory>
/home/itssahil/PROJECTS/Mol_Feturizer/New_Systems/rnas/1lvj

>  <Rbt.Executable>
rbdock ($Id: //depot/dev/client3/rdock/2013.1/src/exe/rbdock.cxx#4 $)

>  <Rbt.Library>
libRbt.so (2013.1, Build901 2013/11/27)

>  <Rbt.Parameter_File>
/export/apps/rDock/src/rDock_2013.1_src/data/scripts/dock_solv.prm

>  <Rbt.Receptor>
prm/pocket_docking_3.prm

>  <SCORE>
-27.9871

>  <SCORE.INTER>
-30.8401

>  <SCORE.INTER.CONST>
1

>  <SCORE.INTER.POLAR>
0

>  <SCORE.INTER.ROT>
5

>  <SCORE.INTER.SOLV>
10.4581

>  <SCORE.INTER.VDW>
-30.9794

>  <SCORE.INTER.norm>
-1.34087

>  <SCORE.INTRA>
2.73713

>  <SCORE.INTRA.DIHEDRAL>
8.57311

>  <SCORE.INTRA.DIHEDRAL.0>
8.06479

>  <SCORE.INTRA.POLAR>
0

>  <SCORE.INTRA.POLAR.0>
0

>  <SCORE.INTRA.REPUL>
0

>  <SCORE.INTRA.REPUL.0>
0

>  <SCORE.INTRA.SOLV>
-0.0856706

>  <SCORE.INTRA.SOLV.lig_0>
-29.8054

>  <SCORE.INTRA.VDW>
-1.50659

>  <SCORE.INTRA.VDW.0>
2.61447

>  <SCORE.INTRA.norm>
0.119006

>  <SCORE.RESTR>
0.115875

>  <SCORE.RESTR.CAVITY>
0.115875

>  <SCORE.RESTR.norm>
0.00503803

>  <SCORE.SYSTEM>
0

>  <SCORE.SYSTEM.CONST>
0

>  <SCORE.SYSTEM.DIHEDRAL>
0

>  <SCORE.SYSTEM.SOLV>
0

>  <SCORE.SYSTEM.norm>
0

>  <SCORE.heavy>
23

>  <SCORE.norm>
-1.21683

>  <RMSD>
3.720

$$$$

 OpenBabel11021811403D
libRbt.so/2013.1/901 2013/11/27
 23 25  0  0  0  0  0  0  0  0999 V2000
  -23.4817    8.5098    6.1348 S   0  0  0  0  0  0  0  0  0  0  0  0
  -25.3933    7.6785    8.2618 N   0  0  0  0  0  0  0  0  0  0  0  0
  -23.7466    6.9974    9.8861 C   0  0  0  0  0  0  0  0  0  0  0  0
  -22.3980    6.8449   10.2343 C   0  0  0  0  0  0  0  0  0  0  0  0
  -21.3974    7.2052    9.3368 C   0  0  0  0  0  0  0  0  0  0  0  0
  -21.7364    7.7143    8.0879 C   0  0  0  0  0  0  0  0  0  0  0  0
  -23.0735    7.8679    7.7302 C   0  0  0  0  0  0  0  0  0  0  0  0
  -24.0876    7.5110    8.6269 C   0  0  0  0  0  0  0  0  0  0  0  0
  -24.8221    7.3751    5.9603 C   0  0  0  0  0  0  0  0  0  0  0  0
  -25.0714    6.7694    4.7253 C   0  0  0  0  0  0  0  0  0  0  0  0
  -26.1372    5.8751    4.5900 C   0  0  0  0  0  0  0  0  0  0  0  0
  -26.9532    5.5926    5.6903 C   0  0  0  0  0  0  0  0  0  0  0  0
  -26.6993    6.2012    6.9199 C   0  0  0  0  0  0  0  0  0  0  0  0
  -25.6392    7.0864    7.0593 C   0  0  0  0  0  0  0  0  0  0  0  0
  -26.4602    7.6971    9.2930 C   0  0  0  0  0  0  0  0  0  0  0  0
  -26.5798    6.4409   10.2190 C   0  0  0  0  0  0  0  0  0  0  0  0
  -25.9293    6.6416   11.6303 C   0  0  0  0  0  0  0  0  0  0  0  0
  -25.9876    5.5048   12.5843 N   0  3  0  0  0  0  0  0  0  0  0  0
  -25.1218    5.7432   13.7680 C   0  0  0  0  0  0  0  0  0  0  0  0
  -25.6399    4.2151   11.8931 C   0  0  0  0  0  0  0  0  0  0  0  0
  -22.0204    6.2875   11.5771 C   0  0  0  0  0  0  0  0  0  0  0  0
  -22.4705    4.9195   12.0294 C   0  0  0  0  0  0  0  0  0  0  0  0
  -21.2790    6.9287   12.3047 O   0  0  0  0  0  0  0  0  0  0  0  0
  1  7  1  0  0  0  0
  1  9  1  0  0  0  0
  2  8  1  0  0  0  0
  2 14  1  0  0  0  0
  2 15  1  0  0  0  0
  3  4  2  0  0  0  0
  3  8  1  0  0  0  0
  4  5  1  0  0  0  0
  4 21  1  0  0  0  0
  5  6  2  0  0  0  0
  6  7  1  0  0  0  0
  7  8  2  0  0  0  0
  9 10  2  0  0  0  0
  9 14  1  0  0  0  0
 10 11  1  0  0  0  0
 11 12  2  0  0  0  0
 12 13  1  0  0  0  0
 13 14  2  0  0  0  0
 15 16  1  0  0  0  0
 16 17  1  0  0  0  0
 17 18  1  0  0  0  0
 18 19  1  0  0  0  0
 18 20  1  0  0  0  0
 21 22  1  0  0  0  0
 21 23  2  0  0  0  0
M  CHG  1  18   1
M  END
>  <CHROM.1>
-57.53751023,58.67835958,100.40217601,-179.88903242,-70.65715000,-24.40194955
6.74442104,9.03264222,-1.75860820,0.30535191,1.82472089

>  <Name>


>  <RI>
0

>  <Rbt.Current_Directory>
/home/itssahil/PROJECTS/Mol_Feturizer/New_Systems/rnas/1lvj

>  <Rbt.Executable>
rbdock ($Id: //depot/dev/client3/rdock/2013.1/src/exe/rbdock.cxx#4 $)

>  <Rbt.Library>
libRbt.so (2013.1, Build901 2013/11/27)

>  <Rbt.Parameter_File>
/export/apps/rDock/src/rDock_2013.1_src/data/scripts/dock_solv.prm

>  <Rbt.Receptor>
prm/pocket_docking_2.prm

>  <SCORE>
-19.8309

>  <SCORE.INTER>
-26.2783

>  <SCORE.INTER.CONST>
1

>  <SCORE.INTER.POLAR>
0

>  <SCORE.INTER.ROT>
5

>  <SCORE.INTER.SOLV>
11.2188

>  <SCORE.INTER.VDW>
-28.1918

>  <SCORE.INTER.norm>
-1.14253

>  <SCORE.INTRA>
3.75085

>  <SCORE.INTRA.DIHEDRAL>
5.97109

>  <SCORE.INTRA.DIHEDRAL.0>
8.06479

>  <SCORE.INTRA.POLAR>
0

>  <SCORE.INTRA.POLAR.0>
0

>  <SCORE.INTRA.REPUL>
0

>  <SCORE.INTRA.REPUL.0>
0

>  <SCORE.INTRA.SOLV>
0.444761

>  <SCORE.INTRA.SOLV.lig_0>
-29.8054

>  <SCORE.INTRA.VDW>
0.542927

>  <SCORE.INTRA.VDW.0>
2.61447

>  <SCORE.INTRA.norm>
0.163081

>  <SCORE.RESTR>
2.69651

>  <SCORE.RESTR.CAVITY>
2.69651

>  <SCORE.RESTR.norm>
0.11724

>  <SCORE.SYSTEM>
0

>  <SCORE.SYSTEM.CONST>
0

>  <SCORE.SYSTEM.DIHEDRAL>
0

>  <SCORE.SYSTEM.SOLV>
0

>  <SCORE.SYSTEM.norm>
0

>  <SCORE.heavy>
23

>  <SCORE.norm>
-0.862213

>  <RMSD>
3.724

$$$$

 OpenBabel11021811403D
libRbt.so/2013.1/901 2013/11/27
 23 25  0  0  0  0  0  0  0  0999 V2000
  -23.4164    8.4775    6.4907 S   0  0  0  0  0  0  0  0  0  0  0  0
  -25.4596    7.5754    8.4607 N   0  0  0  0  0  0  0  0  0  0  0  0
  -23.9201    6.7445   10.1202 C   0  0  0  0  0  0  0  0  0  0  0  0
  -22.5965    6.5292   10.5261 C   0  0  0  0  0  0  0  0  0  0  0  0
  -21.5405    6.9134    9.7052 C   0  0  0  0  0  0  0  0  0  0  0  0
  -21.7991    7.5091    8.4756 C   0  0  0  0  0  0  0  0  0  0  0  0
  -23.1107    7.7257    8.0608 C   0  0  0  0  0  0  0  0  0  0  0  0
  -24.1801    7.3453    8.8804 C   0  0  0  0  0  0  0  0  0  0  0  0
  -24.7766    7.3976    6.1766 C   0  0  0  0  0  0  0  0  0  0  0  0
  -24.9772    6.8776    4.8946 C   0  0  0  0  0  0  0  0  0  0  0  0
  -26.0586    6.0267    4.6489 C   0  0  0  0  0  0  0  0  0  0  0  0
  -26.9389    5.7018    5.6861 C   0  0  0  0  0  0  0  0  0  0  0  0
  -26.7334    6.2250    6.9632 C   0  0  0  0  0  0  0  0  0  0  0  0
  -25.6581    7.0668    7.2121 C   0  0  0  0  0  0  0  0  0  0  0  0
  -26.5784    7.5630    9.4355 C   0  0  0  0  0  0  0  0  0  0  0  0
  -26.3777    8.3682   10.7626 C   0  0  0  0  0  0  0  0  0  0  0  0
  -27.4505    8.0440   11.8577 C   0  0  0  0  0  0  0  0  0  0  0  0
  -27.2330    6.8410   12.7012 N   0  3  0  0  0  0  0  0  0  0  0  0
  -26.8643    5.6597   11.8789 C   0  0  0  0  0  0  0  0  0  0  0  0
  -28.4404    6.5678   13.5553 C   0  0  0  0  0  0  0  0  0  0  0  0
  -22.3056    5.8784   11.8483 C   0  0  0  0  0  0  0  0  0  0  0  0
  -23.3866    5.2152   12.6671 C   0  0  0  0  0  0  0  0  0  0  0  0
  -21.1542    5.8279   12.2506 O   0  0  0  0  0  0  0  0  0  0  0  0
  1  7  1  0  0  0  0
  1  9  1  0  0  0  0
  2  8  1  0  0  0  0
  2 14  1  0  0  0  0
  2 15  1  0  0  0  0
  3  4  2  0  0  0  0
  3  8  1  0  0  0  0
  4  5  1  0  0  0  0
  4 21  1  0  0  0  0
  5  6  2  0  0  0  0
  6  7  1  0  0  0  0
  7  8  2  0  0  0  0
  9 10  2  0  0  0  0
  9 14  1  0  0  0  0
 10 11  1  0  0  0  0
 11 12  2  0  0  0  0
 12 13  1  0  0  0  0
 13 14  2  0  0  0  0
 15 16  1  0  0  0  0
 16 17  1  0  0  0  0
 17 18  1  0  0  0  0
 18 19  1  0  0  0  0
 18 20  1  0  0  0  0
 21 22  1  0  0  0  0
 21 23  2  0  0  0  0
M  CHG  1  18   1
M  END
>  <CHROM.1>
47.12840612,11.15794458,-166.98719479,82.84058946,72.96572845,-24.78691685
6.94792699,9.24335051,-1.46876212,-0.01196767,1.68521162

>  <Name>


>  <RI>
0

>  <Rbt.Current_Directory>
/home/itssahil/PROJECTS/Mol_Feturizer/New_Systems/rnas/1lvj

>  <Rbt.Executable>
rbdock ($Id: //depot/dev/client3/rdock/2013.1/src/exe/rbdock.cxx#4 $)

>  <Rbt.Library>
libRbt.so (2013.1, Build901 2013/11/27)

>  <Rbt.Parameter_File>
/export/apps/rDock/src/rDock_2013.1_src/data/scripts/dock_solv.prm

>  <Rbt.Receptor>
prm/pocket_docking_4.prm

>  <SCORE>
-33.7169

>  <SCORE.INTER>
-31.4614

>  <SCORE.INTER.CONST>
1

>  <SCORE.INTER.POLAR>
0

>  <SCORE.INTER.ROT>
5

>  <SCORE.INTER.SOLV>
10.4321

>  <SCORE.INTER.VDW>
-31.385

>  <SCORE.INTER.norm>
-1.36789

>  <SCORE.INTRA>
-2.26668

>  <SCORE.INTRA.DIHEDRAL>
-4.80315

>  <SCORE.INTRA.DIHEDRAL.0>
8.06479

>  <SCORE.INTRA.POLAR>
0

>  <SCORE.INTRA.POLAR.0>
0

>  <SCORE.INTRA.REPUL>
0

>  <SCORE.INTRA.REPUL.0>
0

>  <SCORE.INTRA.SOLV>
1.42214

>  <SCORE.INTRA.SOLV.lig_0>
-29.8054

>  <SCORE.INTRA.VDW>
-0.576178

>  <SCORE.INTRA.VDW.0>
2.61447

>  <SCORE.INTRA.norm>
-0.0985513

>  <SCORE.RESTR>
0.0111653

>  <SCORE.RESTR.CAVITY>
0.0111653

>  <SCORE.RESTR.norm>
0.00048545

>  <SCORE.SYSTEM>
0

>  <SCORE.SYSTEM.CONST>
0

>  <SCORE.SYSTEM.DIHEDRAL>
0

>  <SCORE.SYSTEM.SOLV>
0

>  <SCORE.SYSTEM.norm>
0

>  <SCORE.heavy>
23

>  <SCORE.norm>
-1.46595

>  <RMSD>
3.729

$$$$

 OpenBabel11021811403D
libRbt.so/2013.1/901 2013/11/27
 23 25  0  0  0  0  0  0  0  0999 V2000
  -23.2878    8.5201    6.3236 S   0  0  0  0  0  0  0  0  0  0  0  0
  -25.3303    7.7380    8.3449 N   0  0  0  0  0  0  0  0  0  0  0  0
  -23.7912    6.9777   10.0381 C   0  0  0  0  0  0  0  0  0  0  0  0
  -22.4678    6.7707   10.4491 C   0  0  0  0  0  0  0  0  0  0  0  0
  -21.4120    7.1029    9.6057 C   0  0  0  0  0  0  0  0  0  0  0  0
  -21.6705    7.6381    8.3485 C   0  0  0  0  0  0  0  0  0  0  0  0
  -22.9819    7.8458    7.9285 C   0  0  0  0  0  0  0  0  0  0  0  0
  -24.0511    7.5175    8.7706 C   0  0  0  0  0  0  0  0  0  0  0  0
  -24.6592    7.4386    6.0700 C   0  0  0  0  0  0  0  0  0  0  0  0
  -24.8703    6.8564    4.8168 C   0  0  0  0  0  0  0  0  0  0  0  0
  -25.9605    6.0044    4.6187 C   0  0  0  0  0  0  0  0  0  0  0  0
  -26.8392    5.7406    5.6745 C   0  0  0  0  0  0  0  0  0  0  0  0
  -26.6231    6.3258    6.9227 C   0  0  0  0  0  0  0  0  0  0  0  0
  -25.5391    7.1689    7.1244 C   0  0  0  0  0  0  0  0  0  0  0  0
  -26.4449    7.7855    9.3235 C   0  0  0  0  0  0  0  0  0  0  0  0
  -26.6440    6.5322   10.2398 C   0  0  0  0  0  0  0  0  0  0  0  0
  -26.0631    6.7159   11.6834 C   0  0  0  0  0  0  0  0  0  0  0  0
  -25.9436    5.5067   12.5375 N   0  3  0  0  0  0  0  0  0  0  0  0
  -25.0565    5.7505   13.7042 C   0  0  0  0  0  0  0  0  0  0  0  0
  -25.4814    4.3283   11.7253 C   0  0  0  0  0  0  0  0  0  0  0  0
  -22.1771    6.1848   11.8013 C   0  0  0  0  0  0  0  0  0  0  0  0
  -21.6894    7.0326   12.9511 C   0  0  0  0  0  0  0  0  0  0  0  0
  -22.3960    5.0005   12.0006 O   0  0  0  0  0  0  0  0  0  0  0  0
  1  7  1  0  0  0  0
  1  9  1  0  0  0  0
  2  8  1  0  0  0  0
  2 14  1  0  0  0  0
  2 15  1  0  0  0  0
  3  4  2  0  0  0  0
  3  8  1  0  0  0  0
  4  5  1  0  0  0  0
  4 21  1  0  0  0  0
  5  6  2  0  0  0  0
  6  7  1  0  0  0  0
  7  8  2  0  0  0  0
  9 10  2  0  0  0  0
  9 14  1  0  0  0  0
 10 11  1  0  0  0  0
 11 12  2  0  0  0  0
 12 13  1  0  0  0  0
 13 14  2  0  0  0  0
 15 16  1  0  0  0  0
 16 17  1  0  0  0  0
 17 18  1  0  0  0  0
 18 19  1  0  0  0  0
 18 20  1  0  0  0  0
 21 22  1  0  0  0  0
 21 23  2  0  0  0  0
M  CHG  1  18   1
M  END
>  <CHROM.1>
-56.73548237,-104.11066658,100.67997261,-167.57289754,-75.57653200,-24.36552648
6.77669766,9.14032134,-1.74847694,0.29033231,1.81663005

>  <Name>


>  <RI>
0

>  <Rbt.Current_Directory>
/home/itssahil/PROJECTS/Mol_Feturizer/New_Systems/rnas/1lvj

>  <Rbt.Executable>
rbdock ($Id: //depot/dev/client3/rdock/2013.1/src/exe/rbdock.cxx#4 $)

>  <Rbt.Library>
libRbt.so (2013.1, Build901 2013/11/27)

>  <Rbt.Parameter_File>
/export/apps/rDock/src/rDock_2013.1_src/data/scripts/dock_solv.prm

>  <Rbt.Receptor>
prm/pocket_docking_2.prm

>  <SCORE>
-18.1731

>  <SCORE.INTER>
-25.1652

>  <SCORE.INTER.CONST>
1

>  <SCORE.INTER.POLAR>
0

>  <SCORE.INTER.ROT>
5

>  <SCORE.INTER.SOLV>
10.9766

>  <SCORE.INTER.VDW>
-27.369

>  <SCORE.INTER.norm>
-1.09414

>  <SCORE.INTRA>
4.8702

>  <SCORE.INTRA.DIHEDRAL>
9.75328

>  <SCORE.INTRA.DIHEDRAL.0>
8.06479

>  <SCORE.INTRA.POLAR>
0

>  <SCORE.INTRA.POLAR.0>
0

>  <SCORE.INTRA.REPUL>
0

>  <SCORE.INTRA.REPUL.0>
0

>  <SCORE.INTRA.SOLV>
0.884163

>  <SCORE.INTRA.SOLV.lig_0>
-29.8054

>  <SCORE.INTRA.VDW>
-0.448518

>  <SCORE.INTRA.VDW.0>
2.61447

>  <SCORE.INTRA.norm>
0.211748

>  <SCORE.RESTR>
2.12191

>  <SCORE.RESTR.CAVITY>
2.12191

>  <SCORE.RESTR.norm>
0.092257

>  <SCORE.SYSTEM>
0

>  <SCORE.SYSTEM.CONST>
0

>  <SCORE.SYSTEM.DIHEDRAL>
0

>  <SCORE.SYSTEM.SOLV>
0

>  <SCORE.SYSTEM.norm>
0

>  <SCORE.heavy>
23

>  <SCORE.norm>
-0.790136

>  <RMSD>
3.730

$$$$

 OpenBabel11021811403D
libRbt.so/2013.1/901 2013/11/27
 23 25  0  0  0  0  0  0  0  0999 V2000
  -23.4453    8.4891    6.4878 S   0  0  0  0  0  0  0  0  0  0  0  0
  -25.4849    7.5685    8.4529 N   0  0  0  0  0  0  0  0  0  0  0  0
  -23.9423    6.7332   10.1072 C   0  0  0  0  0  0  0  0  0  0  0  0
  -22.6178    6.5200   10.5115 C   0  0  0  0  0  0  0  0  0  0  0  0
  -21.5633    6.9126    9.6927 C   0  0  0  0  0  0  0  0  0  0  0  0
  -21.8242    7.5146    8.4666 C   0  0  0  0  0  0  0  0  0  0  0  0
  -23.1366    7.7291    8.0534 C   0  0  0  0  0  0  0  0  0  0  0  0
  -24.2045    7.3404    8.8710 C   0  0  0  0  0  0  0  0  0  0  0  0
  -24.8019    7.4064    6.1677 C   0  0  0  0  0  0  0  0  0  0  0  0
  -25.0009    6.8932    4.8827 C   0  0  0  0  0  0  0  0  0  0  0  0
  -26.0794    6.0401    4.6322 C   0  0  0  0  0  0  0  0  0  0  0  0
  -26.9584    5.7061    5.6677 C   0  0  0  0  0  0  0  0  0  0  0  0
  -26.7544    6.2225    6.9478 C   0  0  0  0  0  0  0  0  0  0  0  0
  -25.6820    7.0665    7.2014 C   0  0  0  0  0  0  0  0  0  0  0  0
  -26.6035    7.5466    9.4278 C   0  0  0  0  0  0  0  0  0  0  0  0
  -26.4202    8.3752   10.7430 C   0  0  0  0  0  0  0  0  0  0  0  0
  -26.1979    7.4868   12.0145 C   0  0  0  0  0  0  0  0  0  0  0  0
  -27.1141    6.3362   12.2204 N   0  3  0  0  0  0  0  0  0  0  0  0
  -27.4791    6.1812   13.6523 C   0  0  0  0  0  0  0  0  0  0  0  0
  -26.5149    5.0754   11.6607 C   0  0  0  0  0  0  0  0  0  0  0  0
  -22.3244    5.8625   11.8298 C   0  0  0  0  0  0  0  0  0  0  0  0
  -20.9122    5.6216   12.3055 C   0  0  0  0  0  0  0  0  0  0  0  0
  -23.2487    5.5657   12.5699 O   0  0  0  0  0  0  0  0  0  0  0  0
  1  7  1  0  0  0  0
  1  9  1  0  0  0  0
  2  8  1  0  0  0  0
  2 14  1  0  0  0  0
  2 15  1  0  0  0  0
  3  4  2  0  0  0  0
  3  8  1  0  0  0  0
  4  5  1  0  0  0  0
  4 21  1  0  0  0  0
  5  6  2  0  0  0  0
  6  7  1  0  0  0  0
  7  8  2  0  0  0  0
  9 10  2  0  0  0  0
  9 14  1  0  0  0  0
 10 11  1  0  0  0  0
 11 12  2  0  0  0  0
 12 13  1  0  0  0  0
 13 14  2  0  0  0  0
 15 16  1  0  0  0  0
 16 17  1  0  0  0  0
 17 18  1  0  0  0  0
 18 19  1  0  0  0  0
 18 20  1  0  0  0  0
 21 22  1  0  0  0  0
 21 23  2  0  0  0  0
M  CHG  1  18   1
M  END
>  <CHROM.1>
48.68646821,-179.65784249,-108.04621254,-47.32012796,-20.57165270,-24.67935969
6.86281692,9.20960227,-1.62161889,0.06537216,1.72770824

>  <Name>


>  <RI>
0

>  <Rbt.Current_Directory>
/home/itssahil/PROJECTS/Mol_Feturizer/New_Systems/rnas/1lvj

>  <Rbt.Executable>
rbdock ($Id: //depot/dev/client3/rdock/2013.1/src/exe/rbdock.cxx#4 $)

>  <Rbt.Library>
libRbt.so (2013.1, Build901 2013/11/27)

>  <Rbt.Parameter_File>
/export/apps/rDock/src/rDock_2013.1_src/data/scripts/dock_solv.prm

>  <Rbt.Receptor>
prm/pocket_docking_6.prm

>  <SCORE>
-37.0433

>  <SCORE.INTER>
-35.94

>  <SCORE.INTER.CONST>
1

>  <SCORE.INTER.POLAR>
-1.15769

>  <SCORE.INTER.ROT>
5

>  <SCORE.INTER.SOLV>
13.2807

>  <SCORE.INTER.VDW>
-31.4613

>  <SCORE.INTER.norm>
-1.56261

>  <SCORE.INTRA>
-1.10322

>  <SCORE.INTRA.DIHEDRAL>
0.255986

>  <SCORE.INTRA.DIHEDRAL.0>
8.06479

>  <SCORE.INTRA.POLAR>
0

>  <SCORE.INTRA.POLAR.0>
0

>  <SCORE.INTRA.REPUL>
0

>  <SCORE.INTRA.REPUL.0>
0

>  <SCORE.INTRA.SOLV>
2.7255

>  <SCORE.INTRA.SOLV.lig_0>
-29.8054

>  <SCORE.INTRA.VDW>
-2.59396

>  <SCORE.INTRA.VDW.0>
2.61447

>  <SCORE.INTRA.norm>
-0.047966

>  <SCORE.RESTR>
0

>  <SCORE.RESTR.CAVITY>
0

>  <SCORE.RESTR.norm>
0

>  <SCORE.SYSTEM>
0

>  <SCORE.SYSTEM.CONST>
0

>  <SCORE.SYSTEM.DIHEDRAL>
0

>  <SCORE.SYSTEM.SOLV>
0

>  <SCORE.SYSTEM.norm>
0

>  <SCORE.heavy>
23

>  <SCORE.norm>
-1.61058

>  <RMSD>
3.735

$$$$

 OpenBabel11021811403D
libRbt.so/2013.1/901 2013/11/27
 23 25  0  0  0  0  0  0  0  0999 V2000
  -23.7370    8.6035    6.2710 S   0  0  0  0  0  0  0  0  0  0  0  0
  -25.3970    7.6975    8.5716 N   0  0  0  0  0  0  0  0  0  0  0  0
  -23.5750    7.0323   10.0040 C   0  0  0  0  0  0  0  0  0  0  0  0
  -22.1944    6.9066   10.2071 C   0  0  0  0  0  0  0  0  0  0  0  0
  -21.3013    7.3029    9.2163 C   0  0  0  0  0  0  0  0  0  0  0  0
  -21.7801    7.8215    8.0181 C   0  0  0  0  0  0  0  0  0  0  0  0
  -23.1502    7.9488    7.8043 C   0  0  0  0  0  0  0  0  0  0  0  0
  -24.0570    7.5555    8.7959 C   0  0  0  0  0  0  0  0  0  0  0  0
  -25.0633    7.4402    6.2185 C   0  0  0  0  0  0  0  0  0  0  0  0
  -25.4271    6.8464    5.0063 C   0  0  0  0  0  0  0  0  0  0  0  0
  -26.4813    5.9293    4.9682 C   0  0  0  0  0  0  0  0  0  0  0  0
  -27.1714    5.6122    6.1427 C   0  0  0  0  0  0  0  0  0  0  0  0
  -26.8036    6.2092    7.3490 C   0  0  0  0  0  0  0  0  0  0  0  0
  -25.7544    7.1169    7.3917 C   0  0  0  0  0  0  0  0  0  0  0  0
  -26.3504    7.6766    9.7086 C   0  0  0  0  0  0  0  0  0  0  0  0
  -26.2376    6.4811   10.7127 C   0  0  0  0  0  0  0  0  0  0  0  0
  -27.3260    6.5076   11.8395 C   0  0  0  0  0  0  0  0  0  0  0  0
  -27.5789    5.2474   12.5836 N   0  3  0  0  0  0  0  0  0  0  0  0
  -27.7892    4.1031   11.6596 C   0  0  0  0  0  0  0  0  0  0  0  0
  -28.7344    5.4149   13.5317 C   0  0  0  0  0  0  0  0  0  0  0  0
  -21.6663    6.3393   11.4939 C   0  0  0  0  0  0  0  0  0  0  0  0
  -22.5563    5.6068   12.4687 C   0  0  0  0  0  0  0  0  0  0  0  0
  -20.4726    6.4166   11.7373 O   0  0  0  0  0  0  0  0  0  0  0  0
  1  7  1  0  0  0  0
  1  9  1  0  0  0  0
  2  8  1  0  0  0  0
  2 14  1  0  0  0  0
  2 15  1  0  0  0  0
  3  4  2  0  0  0  0
  3  8  1  0  0  0  0
  4  5  1  0  0  0  0
  4 21  1  0  0  0  0
  5  6  2  0  0  0  0
  6  7  1  0  0  0  0
  7  8  2  0  0  0  0
  9 10  2  0  0  0  0
  9 14  1  0  0  0  0
 10 11  1  0  0  0  0
 11 12  2  0  0  0  0
 12 13  1  0  0  0  0
 13 14  2  0  0  0  0
 15 16  1  0  0  0  0
 16 17  1  0  0  0  0
 17 18  1  0  0  0  0
 18 19  1  0  0  0  0
 18 20  1  0  0  0  0
 21 22  1  0  0  0  0
 21 23  2  0  0  0  0
M  CHG  1  18   1
M  END
>  <CHROM.1>
-50.93640561,14.05815680,-177.28395139,161.91232932,70.15651765,-24.79031640
6.75187879,9.16372409,1.19450170,-0.22742733,-1.32760749

>  <Name>


>  <RI>
0

>  <Rbt.Current_Directory>
/home/itssahil/PROJECTS/Mol_Feturizer/New_Systems/rnas/1lvj

>  <Rbt.Executable>
rbdock ($Id: //depot/dev/client3/rdock/2013.1/src/exe/rbdock.cxx#4 $)

>  <Rbt.Library>
libRbt.so (2013.1, Build901 2013/11/27)

>  <Rbt.Parameter_File>
/export/apps/rDock/src/rDock_2013.1_src/data/scripts/dock_solv.prm

>  <Rbt.Receptor>
prm/pocket_docking_3.prm

>  <SCORE>
-25.1167

>  <SCORE.INTER>
-24.1386

>  <SCORE.INTER.CONST>
1

>  <SCORE.INTER.POLAR>
0

>  <SCORE.INTER.ROT>
5

>  <SCORE.INTER.SOLV>
11.0372

>  <SCORE.INTER.VDW>
-26.7048

>  <SCORE.INTER.norm>
-1.04951

>  <SCORE.INTRA>
-2.60553

>  <SCORE.INTRA.DIHEDRAL>
-5.36596

>  <SCORE.INTRA.DIHEDRAL.0>
8.06479

>  <SCORE.INTRA.POLAR>
0

>  <SCORE.INTRA.POLAR.0>
0

>  <SCORE.INTRA.REPUL>
0

>  <SCORE.INTRA.REPUL.0>
0

>  <SCORE.INTRA.SOLV>
0.185815

>  <SCORE.INTRA.SOLV.lig_0>
-29.8054

>  <SCORE.INTRA.VDW>
-0.0154562

>  <SCORE.INTRA.VDW.0>
2.61447

>  <SCORE.INTRA.norm>
-0.113284

>  <SCORE.RESTR>
1.62744

>  <SCORE.RESTR.CAVITY>
1.62744

>  <SCORE.RESTR.norm>
0.0707584

>  <SCORE.SYSTEM>
0

>  <SCORE.SYSTEM.CONST>
0

>  <SCORE.SYSTEM.DIHEDRAL>
0

>  <SCORE.SYSTEM.SOLV>
0

>  <SCORE.SYSTEM.norm>
0

>  <SCORE.heavy>
23

>  <SCORE.norm>
-1.09203

>  <RMSD>
3.740

$$$$

 OpenBabel11021811403D
libRbt.so/2013.1/901 2013/11/27
 23 25  0  0  0  0  0  0  0  0999 V2000
  -23.2319    8.4685    5.9904 S   0  0  0  0  0  0  0  0  0  0  0  0
  -25.2321    7.9580    8.1370 N   0  0  0  0  0  0  0  0  0  0  0  0
  -23.6647    7.3060    9.8494 C   0  0  0  0  0  0  0  0  0  0  0  0
  -22.3362    7.0904   10.2391 C   0  0  0  0  0  0  0  0  0  0  0  0
  -21.2981    7.3018    9.3368 C   0  0  0  0  0  0  0  0  0  0  0  0
  -21.5797    7.7241    8.0421 C   0  0  0  0  0  0  0  0  0  0  0  0
  -22.8964    7.9391    7.6430 C   0  0  0  0  0  0  0  0  0  0  0  0
  -23.9478    7.7320    8.5440 C   0  0  0  0  0  0  0  0  0  0  0  0
  -24.6468    7.4190    5.8827 C   0  0  0  0  0  0  0  0  0  0  0  0
  -24.9185    6.7283    4.6980 C   0  0  0  0  0  0  0  0  0  0  0  0
  -26.0429    5.9021    4.6152 C   0  0  0  0  0  0  0  0  0  0  0  0
  -26.8948    5.7726    5.7170 C   0  0  0  0  0  0  0  0  0  0  0  0
  -26.6181    6.4654    6.8961 C   0  0  0  0  0  0  0  0  0  0  0  0
  -25.5001    7.2834    6.9837 C   0  0  0  0  0  0  0  0  0  0  0  0
  -26.3116    8.1394    9.1390 C   0  0  0  0  0  0  0  0  0  0  0  0
  -26.5697    6.9573   10.1319 C   0  0  0  0  0  0  0  0  0  0  0  0
  -26.4364    7.3671   11.6384 C   0  0  0  0  0  0  0  0  0  0  0  0
  -26.8310    6.3666   12.6626 N   0  3  0  0  0  0  0  0  0  0  0  0
  -26.5367    6.8497   14.0365 C   0  0  0  0  0  0  0  0  0  0  0  0
  -26.1756    5.0410   12.3881 C   0  0  0  0  0  0  0  0  0  0  0  0
  -22.0211    6.6255   11.6323 C   0  0  0  0  0  0  0  0  0  0  0  0
  -23.0691    6.5885   12.7181 C   0  0  0  0  0  0  0  0  0  0  0  0
  -20.9025    6.2077   11.8856 O   0  0  0  0  0  0  0  0  0  0  0  0
  1  7  1  0  0  0  0
  1  9  1  0  0  0  0
  2  8  1  0  0  0  0
  2 14  1  0  0  0  0
  2 15  1  0  0  0  0
  3  4  2  0  0  0  0
  3  8  1  0  0  0  0
  4  5  1  0  0  0  0
  4 21  1  0  0  0  0
  5  6  2  0  0  0  0
  6  7  1  0  0  0  0
  7  8  2  0  0  0  0
  9 10  2  0  0  0  0
  9 14  1  0  0  0  0
 10 11  1  0  0  0  0
 11 12  2  0  0  0  0
 12 13  1  0  0  0  0
 13 14  2  0  0  0  0
 15 16  1  0  0  0  0
 16 17  1  0  0  0  0
 17 18  1  0  0  0  0
 18 19  1  0  0  0  0
 18 20  1  0  0  0  0
 21 22  1  0  0  0  0
 21 23  2  0  0  0  0
M  CHG  1  18   1
M  END
>  <CHROM.1>
-59.68473225,-10.09699287,122.41615895,172.32986678,-65.11879244,-24.46875352
7.06849318,9.03886661,-1.57424555,0.15665719,1.68250850

>  <Name>


>  <RI>
0

>  <Rbt.Current_Directory>
/home/itssahil/PROJECTS/Mol_Feturizer/New_Systems/rnas/1lvj

>  <Rbt.Executable>
rbdock ($Id: //depot/dev/client3/rdock/2013.1/src/exe/rbdock.cxx#4 $)

>  <Rbt.Library>
libRbt.so (2013.1, Build901 2013/11/27)

>  <Rbt.Parameter_File>
/export/apps/rDock/src/rDock_2013.1_src/data/scripts/dock_solv.prm

>  <Rbt.Receptor>
prm/pocket_docking_3.prm

>  <SCORE>
-25.9814

>  <SCORE.INTER>
-24.7177

>  <SCORE.INTER.CONST>
1

>  <SCORE.INTER.POLAR>
0

>  <SCORE.INTER.ROT>
5

>  <SCORE.INTER.SOLV>
12.0868

>  <SCORE.INTER.VDW>
-27.4407

>  <SCORE.INTER.norm>
-1.07468

>  <SCORE.INTRA>
-1.70895

>  <SCORE.INTRA.DIHEDRAL>
-1.30023

>  <SCORE.INTRA.DIHEDRAL.0>
8.06479

>  <SCORE.INTRA.POLAR>
0

>  <SCORE.INTRA.POLAR.0>
0

>  <SCORE.INTRA.REPUL>
0

>  <SCORE.INTRA.REPUL.0>
0

>  <SCORE.INTRA.SOLV>
0.293586

>  <SCORE.INTRA.SOLV.lig_0>
-29.8054

>  <SCORE.INTRA.VDW>
-1.20563

>  <SCORE.INTRA.VDW.0>
2.61447

>  <SCORE.INTRA.norm>
-0.0743021

>  <SCORE.RESTR>
0.44527

>  <SCORE.RESTR.CAVITY>
0.44527

>  <SCORE.RESTR.norm>
0.0193596

>  <SCORE.SYSTEM>
0

>  <SCORE.SYSTEM.CONST>
0

>  <SCORE.SYSTEM.DIHEDRAL>
0

>  <SCORE.SYSTEM.SOLV>
0

>  <SCORE.SYSTEM.norm>
0

>  <SCORE.heavy>
23

>  <SCORE.norm>
-1.12962

>  <RMSD>
3.744

$$$$

 OpenBabel11021811403D
libRbt.so/2013.1/901 2013/11/27
 23 25  0  0  0  0  0  0  0  0999 V2000
  -23.5424    8.5439    6.1888 S   0  0  0  0  0  0  0  0  0  0  0  0
  -25.4278    7.6535    8.3152 N   0  0  0  0  0  0  0  0  0  0  0  0
  -23.7609    6.9784    9.9213 C   0  0  0  0  0  0  0  0  0  0  0  0
  -22.4080    6.8435   10.2599 C   0  0  0  0  0  0  0  0  0  0  0  0
  -21.4186    7.2319    9.3616 C   0  0  0  0  0  0  0  0  0  0  0  0
  -21.7731    7.7517    8.1215 C   0  0  0  0  0  0  0  0  0  0  0  0
  -23.1145    7.8879    7.7732 C   0  0  0  0  0  0  0  0  0  0  0  0
  -24.1175    7.5027    8.6708 C   0  0  0  0  0  0  0  0  0  0  0  0
  -24.8651    7.3897    6.0068 C   0  0  0  0  0  0  0  0  0  0  0  0
  -25.1116    6.7962    4.7653 C   0  0  0  0  0  0  0  0  0  0  0  0
  -26.1633    5.8864    4.6242 C   0  0  0  0  0  0  0  0  0  0  0  0
  -26.9683    5.5761    5.7251 C   0  0  0  0  0  0  0  0  0  0  0  0
  -26.7172    6.1727    6.9613 C   0  0  0  0  0  0  0  0  0  0  0  0
  -25.6710    7.0733    7.1064 C   0  0  0  0  0  0  0  0  0  0  0  0
  -26.4890    7.6412    9.3525 C   0  0  0  0  0  0  0  0  0  0  0  0
  -26.5322    6.4072   10.3145 C   0  0  0  0  0  0  0  0  0  0  0  0
  -26.9782    6.7679   11.7726 C   0  0  0  0  0  0  0  0  0  0  0  0
  -26.9614    5.6832   12.7870 N   0  3  0  0  0  0  0  0  0  0  0  0
  -28.0461    4.6968   12.5464 C   0  0  0  0  0  0  0  0  0  0  0  0
  -27.0301    6.2560   14.1760 C   0  0  0  0  0  0  0  0  0  0  0  0
  -22.0136    6.2749   11.5931 C   0  0  0  0  0  0  0  0  0  0  0  0
  -22.9690    5.4552   12.4261 C   0  0  0  0  0  0  0  0  0  0  0  0
  -20.8703    6.4253   11.9938 O   0  0  0  0  0  0  0  0  0  0  0  0
  1  7  1  0  0  0  0
  1  9  1  0  0  0  0
  2  8  1  0  0  0  0
  2 14  1  0  0  0  0
  2 15  1  0  0  0  0
  3  4  2  0  0  0  0
  3  8  1  0  0  0  0
  4  5  1  0  0  0  0
  4 21  1  0  0  0  0
  5  6  2  0  0  0  0
  6  7  1  0  0  0  0
  7  8  2  0  0  0  0
  9 10  2  0  0  0  0
  9 14  1  0  0  0  0
 10 11  1  0  0  0  0
 11 12  2  0  0  0  0
 12 13  1  0  0  0  0
 13 14  2  0  0  0  0
 15 16  1  0  0  0  0
 16 17  1  0  0  0  0
 17 18  1  0  0  0  0
 18 19  1  0  0  0  0
 18 20  1  0  0  0  0
 21 22  1  0  0  0  0
 21 23  2  0  0  0  0
M  CHG  1  18   1
M  END
>  <CHROM.1>
-54.20806168,19.06453432,145.21577282,-175.86705476,48.77476028,-24.70580265
6.80249214,9.13073561,-1.46014575,0.21070321,1.74664857

>  <Name>


>  <RI>
0

>  <Rbt.Current_Directory>
/home/itssahil/PROJECTS/Mol_Feturizer/New_Systems/rnas/1lvj

>  <Rbt.Executable>
rbdock ($Id: //depot/dev/client3/rdock/2013.1/src/exe/rbdock.cxx#4 $)

>  <Rbt.Library>
libRbt.so (2013.1, Build901 2013/11/27)

>  <Rbt.Parameter_File>
/export/apps/rDock/src/rDock_2013.1_src/data/scripts/dock_solv.prm

>  <Rbt.Receptor>
prm/pocket_docking_3.prm

>  <SCORE>
-27.5585

>  <SCORE.INTER>
-26.1474

>  <SCORE.INTER.CONST>
1

>  <SCORE.INTER.POLAR>
0

>  <SCORE.INTER.ROT>
5

>  <SCORE.INTER.SOLV>
10.7484

>  <SCORE.INTER.VDW>
-27.9477

>  <SCORE.INTER.norm>
-1.13684

>  <SCORE.INTRA>
-2.02729

>  <SCORE.INTRA.DIHEDRAL>
-2.40645

>  <SCORE.INTRA.DIHEDRAL.0>
8.06479

>  <SCORE.INTRA.POLAR>
0

>  <SCORE.INTRA.POLAR.0>
0

>  <SCORE.INTRA.REPUL>
0

>  <SCORE.INTRA.REPUL.0>
0

>  <SCORE.INTRA.SOLV>
1.95943

>  <SCORE.INTRA.SOLV.lig_0>
-29.8054

>  <SCORE.INTRA.VDW>
-1.80378

>  <SCORE.INTRA.VDW.0>
2.61447

>  <SCORE.INTRA.norm>
-0.0881429

>  <SCORE.RESTR>
0.616217

>  <SCORE.RESTR.CAVITY>
0.616217

>  <SCORE.RESTR.norm>
0.026792

>  <SCORE.SYSTEM>
0

>  <SCORE.SYSTEM.CONST>
0

>  <SCORE.SYSTEM.DIHEDRAL>
0

>  <SCORE.SYSTEM.SOLV>
0

>  <SCORE.SYSTEM.norm>
0

>  <SCORE.heavy>
23

>  <SCORE.norm>
-1.19819

>  <RMSD>
3.744

$$$$

 OpenBabel11021811403D
libRbt.so/2013.1/901 2013/11/27
 23 25  0  0  0  0  0  0  0  0999 V2000
  -23.4128    8.4781    6.4519 S   0  0  0  0  0  0  0  0  0  0  0  0
  -25.4503    7.5972    8.4375 N   0  0  0  0  0  0  0  0  0  0  0  0
  -23.9059    6.7910   10.1044 C   0  0  0  0  0  0  0  0  0  0  0  0
  -22.5810    6.5836   10.5104 C   0  0  0  0  0  0  0  0  0  0  0  0
  -21.5274    6.9593    9.6826 C   0  0  0  0  0  0  0  0  0  0  0  0
  -21.7896    7.5386    8.4459 C   0  0  0  0  0  0  0  0  0  0  0  0
  -23.1024    7.7472    8.0310 C   0  0  0  0  0  0  0  0  0  0  0  0
  -24.1695    7.3752    8.8575 C   0  0  0  0  0  0  0  0  0  0  0  0
  -24.7714    7.3915    6.1545 C   0  0  0  0  0  0  0  0  0  0  0  0
  -24.9734    6.8546    4.8797 C   0  0  0  0  0  0  0  0  0  0  0  0
  -26.0535    5.9984    4.6471 C   0  0  0  0  0  0  0  0  0  0  0  0
  -26.9311    5.6851    5.6901 C   0  0  0  0  0  0  0  0  0  0  0  0
  -26.7242    6.2251    6.9600 C   0  0  0  0  0  0  0  0  0  0  0  0
  -25.6502    7.0722    7.1959 C   0  0  0  0  0  0  0  0  0  0  0  0
  -26.5672    7.5952    9.4145 C   0  0  0  0  0  0  0  0  0  0  0  0
  -26.3394    8.3611   10.7604 C   0  0  0  0  0  0  0  0  0  0  0  0
  -27.3812    7.9935   11.8717 C   0  0  0  0  0  0  0  0  0  0  0  0
  -27.1219    6.7782   12.6850 N   0  3  0  0  0  0  0  0  0  0  0  0
  -26.8044    5.6073   11.8272 C   0  0  0  0  0  0  0  0  0  0  0  0
  -28.2809    6.4970   13.6013 C   0  0  0  0  0  0  0  0  0  0  0  0
  -22.2862    5.9504   11.8403 C   0  0  0  0  0  0  0  0  0  0  0  0
  -20.8735    5.7298   12.3244 C   0  0  0  0  0  0  0  0  0  0  0  0
  -23.2103    5.6578   12.5823 O   0  0  0  0  0  0  0  0  0  0  0  0
  1  7  1  0  0  0  0
  1  9  1  0  0  0  0
  2  8  1  0  0  0  0
  2 14  1  0  0  0  0
  2 15  1  0  0  0  0
  3  4  2  0  0  0  0
  3  8  1  0  0  0  0
  4  5  1  0  0  0  0
  4 21  1  0  0  0  0
  5  6  2  0  0  0  0
  6  7  1  0  0  0  0
  7  8  2  0  0  0  0
  9 10  2  0  0  0  0
  9 14  1  0  0  0  0
 10 11  1  0  0  0  0
 11 12  2  0  0  0  0
 12 13  1  0  0  0  0
 13 14  2  0  0  0  0
 15 16  1  0  0  0  0
 16 17  1  0  0  0  0
 17 18  1  0  0  0  0
 18 19  1  0  0  0  0
 18 20  1  0  0  0  0
 21 22  1  0  0  0  0
 21 23  2  0  0  0  0
M  CHG  1  18   1
M  END
>  <CHROM.1>
44.28909057,-179.00113223,-164.34280627,83.70629087,70.58851996,-24.74591613
6.96321552,9.22994586,-1.50363138,0.00400169,1.67818717

>  <Name>


>  <RI>
0

>  <Rbt.Current_Directory>
/home/itssahil/PROJECTS/Mol_Feturizer/New_Systems/rnas/1lvj

>  <Rbt.Executable>
rbdock ($Id: //depot/dev/client3/rdock/2013.1/src/exe/rbdock.cxx#4 $)

>  <Rbt.Library>
libRbt.so (2013.1, Build901 2013/11/27)

>  <Rbt.Parameter_File>
/export/apps/rDock/src/rDock_2013.1_src/data/scripts/dock_solv.prm

>  <Rbt.Receptor>
prm/pocket_docking_4.prm

>  <SCORE>
-33.7848

>  <SCORE.INTER>
-31.5383

>  <SCORE.INTER.CONST>
1

>  <SCORE.INTER.POLAR>
0

>  <SCORE.INTER.ROT>
5

>  <SCORE.INTER.SOLV>
10.3964

>  <SCORE.INTER.VDW>
-31.4243

>  <SCORE.INTER.norm>
-1.37123

>  <SCORE.INTRA>
-2.24774

>  <SCORE.INTRA.DIHEDRAL>
-4.86844

>  <SCORE.INTRA.DIHEDRAL.0>
8.06479

>  <SCORE.INTRA.POLAR>
0

>  <SCORE.INTRA.POLAR.0>
0

>  <SCORE.INTRA.REPUL>
0

>  <SCORE.INTRA.REPUL.0>
0

>  <SCORE.INTRA.SOLV>
1.40365

>  <SCORE.INTRA.SOLV.lig_0>
-29.8054

>  <SCORE.INTRA.VDW>
-0.515341

>  <SCORE.INTRA.VDW.0>
2.61447

>  <SCORE.INTRA.norm>
-0.0977277

>  <SCORE.RESTR>
0.00129089

>  <SCORE.RESTR.CAVITY>
0.00129089

>  <SCORE.RESTR.norm>
5.61255e-05

>  <SCORE.SYSTEM>
0

>  <SCORE.SYSTEM.CONST>
0

>  <SCORE.SYSTEM.DIHEDRAL>
0

>  <SCORE.SYSTEM.SOLV>
0

>  <SCORE.SYSTEM.norm>
0

>  <SCORE.heavy>
23

>  <SCORE.norm>
-1.4689

>  <RMSD>
3.783

$$$$

 OpenBabel11021811403D
libRbt.so/2013.1/901 2013/11/27
 23 25  0  0  0  0  0  0  0  0999 V2000
  -23.7115    8.6385    6.4296 S   0  0  0  0  0  0  0  0  0  0  0  0
  -25.4732    7.3896    8.4803 N   0  0  0  0  0  0  0  0  0  0  0  0
  -23.7219    6.6772    9.9769 C   0  0  0  0  0  0  0  0  0  0  0  0
  -22.3548    6.6100   10.2763 C   0  0  0  0  0  0  0  0  0  0  0  0
  -21.4192    7.1644    9.4080 C   0  0  0  0  0  0  0  0  0  0  0  0
  -21.8415    7.7834    8.2366 C   0  0  0  0  0  0  0  0  0  0  0  0
  -23.1975    7.8538    7.9276 C   0  0  0  0  0  0  0  0  0  0  0  0
  -24.1469    7.3016    8.7957 C   0  0  0  0  0  0  0  0  0  0  0  0
  -24.9500    7.4132    6.1478 C   0  0  0  0  0  0  0  0  0  0  0  0
  -25.1830    6.9367    4.8544 C   0  0  0  0  0  0  0  0  0  0  0  0
  -26.1683    5.9699    4.6348 C   0  0  0  0  0  0  0  0  0  0  0  0
  -26.9208    5.4856    5.7097 C   0  0  0  0  0  0  0  0  0  0  0  0
  -26.6836    5.9661    6.9981 C   0  0  0  0  0  0  0  0  0  0  0  0
  -25.7030    6.9229    7.2208 C   0  0  0  0  0  0  0  0  0  0  0  0
  -26.5045    7.1880    9.5281 C   0  0  0  0  0  0  0  0  0  0  0  0
  -26.6752    5.7379   10.0920 C   0  0  0  0  0  0  0  0  0  0  0  0
  -25.9324    5.5055   11.4519 C   0  0  0  0  0  0  0  0  0  0  0  0
  -26.7317    5.6043   12.6998 N   0  3  0  0  0  0  0  0  0  0  0  0
  -27.9563    4.7659   12.6290 C   0  0  0  0  0  0  0  0  0  0  0  0
  -27.0588    7.0398   13.0068 C   0  0  0  0  0  0  0  0  0  0  0  0
  -21.8868    5.9358   11.5344 C   0  0  0  0  0  0  0  0  0  0  0  0
  -20.4464    5.9920   11.9824 C   0  0  0  0  0  0  0  0  0  0  0  0
  -22.7001    5.3749   12.2514 O   0  0  0  0  0  0  0  0  0  0  0  0
  1  7  1  0  0  0  0
  1  9  1  0  0  0  0
  2  8  1  0  0  0  0
  2 14  1  0  0  0  0
  2 15  1  0  0  0  0
  3  4  2  0  0  0  0
  3  8  1  0  0  0  0
  4  5  1  0  0  0  0
  4 21  1  0  0  0  0
  5  6  2  0  0  0  0
  6  7  1  0  0  0  0
  7  8  2  0  0  0  0
  9 10  2  0  0  0  0
  9 14  1  0  0  0  0
 10 11  1  0  0  0  0
 11 12  2  0  0  0  0
 12 13  1  0  0  0  0
 13 14  2  0  0  0  0
 15 16  1  0  0  0  0
 16 17  1  0  0  0  0
 17 18  1  0  0  0  0
 18 19  1  0  0  0  0
 18 20  1  0  0  0  0
 21 22  1  0  0  0  0
 21 23  2  0  0  0  0
M  CHG  1  18   1
M  END
>  <CHROM.1>
-69.74733294,-172.13565906,98.58679902,98.12360127,171.00853036,-24.65036001
6.65710484,9.11798164,-1.61008795,0.20488185,1.79823154

>  <Name>


>  <RI>
0

>  <Rbt.Current_Directory>
/home/itssahil/PROJECTS/Mol_Feturizer/New_Systems/rnas/1lvj

>  <Rbt.Executable>
rbdock ($Id: //depot/dev/client3/rdock/2013.1/src/exe/rbdock.cxx#4 $)

>  <Rbt.Library>
libRbt.so (2013.1, Build901 2013/11/27)

>  <Rbt.Parameter_File>
/export/apps/rDock/src/rDock_2013.1_src/data/scripts/dock_solv.prm

>  <Rbt.Receptor>
prm/pocket_docking_3.prm

>  <SCORE>
-21.0084

>  <SCORE.INTER>
-21.6476

>  <SCORE.INTER.CONST>
1

>  <SCORE.INTER.POLAR>
0

>  <SCORE.INTER.ROT>
5

>  <SCORE.INTER.SOLV>
10.7969

>  <SCORE.INTER.VDW>
-24.964

>  <SCORE.INTER.norm>
-0.941198

>  <SCORE.INTRA>
0.151959

>  <SCORE.INTRA.DIHEDRAL>
0.450511

>  <SCORE.INTRA.DIHEDRAL.0>
8.06479

>  <SCORE.INTRA.POLAR>
0

>  <SCORE.INTRA.POLAR.0>
0

>  <SCORE.INTRA.REPUL>
0

>  <SCORE.INTRA.REPUL.0>
0

>  <SCORE.INTRA.SOLV>
-0.0144498

>  <SCORE.INTRA.SOLV.lig_0>
-29.8054

>  <SCORE.INTRA.VDW>
-0.066072

>  <SCORE.INTRA.VDW.0>
2.61447

>  <SCORE.INTRA.norm>
0.0066069

>  <SCORE.RESTR>
0.487164

>  <SCORE.RESTR.CAVITY>
0.487164

>  <SCORE.RESTR.norm>
0.0211811

>  <SCORE.SYSTEM>
0

>  <SCORE.SYSTEM.CONST>
0

>  <SCORE.SYSTEM.DIHEDRAL>
0

>  <SCORE.SYSTEM.SOLV>
0

>  <SCORE.SYSTEM.norm>
0

>  <SCORE.heavy>
23

>  <SCORE.norm>
-0.91341

>  <RMSD>
3.786

$$$$

 OpenBabel11021811403D
libRbt.so/2013.1/901 2013/11/27
 23 25  0  0  0  0  0  0  0  0999 V2000
  -23.6105    8.5696    6.3114 S   0  0  0  0  0  0  0  0  0  0  0  0
  -25.4329    7.6373    8.4744 N   0  0  0  0  0  0  0  0  0  0  0  0
  -23.7196    6.9410   10.0216 C   0  0  0  0  0  0  0  0  0  0  0  0
  -22.3573    6.8050   10.3199 C   0  0  0  0  0  0  0  0  0  0  0  0
  -21.3947    7.2118    9.4009 C   0  0  0  0  0  0  0  0  0  0  0  0
  -21.7854    7.7511    8.1801 C   0  0  0  0  0  0  0  0  0  0  0  0
  -23.1364    7.8886    7.8719 C   0  0  0  0  0  0  0  0  0  0  0  0
  -24.1127    7.4849    8.7906 C   0  0  0  0  0  0  0  0  0  0  0  0
  -24.9344    7.4141    6.1470 C   0  0  0  0  0  0  0  0  0  0  0  0
  -25.2139    6.8406    4.9031 C   0  0  0  0  0  0  0  0  0  0  0  0
  -26.2664    5.9297    4.7762 C   0  0  0  0  0  0  0  0  0  0  0  0
  -27.0393    5.5983    5.8938 C   0  0  0  0  0  0  0  0  0  0  0  0
  -26.7554    6.1749    7.1323 C   0  0  0  0  0  0  0  0  0  0  0  0
  -25.7082    7.0765    7.2633 C   0  0  0  0  0  0  0  0  0  0  0  0
  -26.4645    7.6039    9.5406 C   0  0  0  0  0  0  0  0  0  0  0  0
  -26.4606    6.3663   10.4989 C   0  0  0  0  0  0  0  0  0  0  0  0
  -27.1035    6.6581   11.8978 C   0  0  0  0  0  0  0  0  0  0  0  0
  -27.1060    5.5601   12.8980 N   0  3  0  0  0  0  0  0  0  0  0  0
  -25.7242    5.1551   13.2643 C   0  0  0  0  0  0  0  0  0  0  0  0
  -27.9132    4.3927   12.4006 C   0  0  0  0  0  0  0  0  0  0  0  0
  -21.9240    6.2155   11.6318 C   0  0  0  0  0  0  0  0  0  0  0  0
  -20.4681    6.0084   11.9724 C   0  0  0  0  0  0  0  0  0  0  0  0
  -22.7650    5.9491   12.4756 O   0  0  0  0  0  0  0  0  0  0  0  0
  1  7  1  0  0  0  0
  1  9  1  0  0  0  0
  2  8  1  0  0  0  0
  2 14  1  0  0  0  0
  2 15  1  0  0  0  0
  3  4  2  0  0  0  0
  3  8  1  0  0  0  0
  4  5  1  0  0  0  0
  4 21  1  0  0  0  0
  5  6  2  0  0  0  0
  6  7  1  0  0  0  0
  7  8  2  0  0  0  0
  9 10  2  0  0  0  0
  9 14  1  0  0  0  0
 10 11  1  0  0  0  0
 11 12  2  0  0  0  0
 12 13  1  0  0  0  0
 13 14  2  0  0  0  0
 15 16  1  0  0  0  0
 16 17  1  0  0  0  0
 17 18  1  0  0  0  0
 18 19  1  0  0  0  0
 18 20  1  0  0  0  0
 21 22  1  0  0  0  0
 21 23  2  0  0  0  0
M  CHG  1  18   1
M  END
>  <CHROM.1>
-53.12169454,177.87817514,155.16473202,-177.92433058,-177.64713821,-24.64622128
6.72960033,9.18824893,-1.57020036,0.23031642,1.81311825

>  <Name>


>  <RI>
0

>  <Rbt.Current_Directory>
/home/itssahil/PROJECTS/Mol_Feturizer/New_Systems/rnas/1lvj

>  <Rbt.Executable>
rbdock ($Id: //depot/dev/client3/rdock/2013.1/src/exe/rbdock.cxx#4 $)

>  <Rbt.Library>
libRbt.so (2013.1, Build901 2013/11/27)

>  <Rbt.Parameter_File>
/export/apps/rDock/src/rDock_2013.1_src/data/scripts/dock_solv.prm

>  <Rbt.Receptor>
prm/pocket_docking_3.prm

>  <SCORE>
-29.6137

>  <SCORE.INTER>
-27.1278

>  <SCORE.INTER.CONST>
1

>  <SCORE.INTER.POLAR>
0

>  <SCORE.INTER.ROT>
5

>  <SCORE.INTER.SOLV>
10.503

>  <SCORE.INTER.VDW>
-28.5195

>  <SCORE.INTER.norm>
-1.17947

>  <SCORE.INTRA>
-2.91736

>  <SCORE.INTRA.DIHEDRAL>
-5.31712

>  <SCORE.INTRA.DIHEDRAL.0>
8.06479

>  <SCORE.INTRA.POLAR>
0

>  <SCORE.INTRA.POLAR.0>
0

>  <SCORE.INTRA.REPUL>
0

>  <SCORE.INTRA.REPUL.0>
0

>  <SCORE.INTRA.SOLV>
-0.314564

>  <SCORE.INTRA.SOLV.lig_0>
-29.8054

>  <SCORE.INTRA.VDW>
-0.101518

>  <SCORE.INTRA.VDW.0>
2.61447

>  <SCORE.INTRA.norm>
-0.126842

>  <SCORE.RESTR>
0.431435

>  <SCORE.RESTR.CAVITY>
0.431435

>  <SCORE.RESTR.norm>
0.018758

>  <SCORE.SYSTEM>
0

>  <SCORE.SYSTEM.CONST>
0

>  <SCORE.SYSTEM.DIHEDRAL>
0

>  <SCORE.SYSTEM.SOLV>
0

>  <SCORE.SYSTEM.norm>
0

>  <SCORE.heavy>
23

>  <SCORE.norm>
-1.28755

>  <RMSD>
3.789

$$$$

 OpenBabel11021811403D
libRbt.so/2013.1/901 2013/11/27
 23 25  0  0  0  0  0  0  0  0999 V2000
  -23.4235    8.4866    6.4759 S   0  0  0  0  0  0  0  0  0  0  0  0
  -25.4704    7.5800    8.4399 N   0  0  0  0  0  0  0  0  0  0  0  0
  -23.9340    6.7495   10.1024 C   0  0  0  0  0  0  0  0  0  0  0  0
  -22.6111    6.5354   10.5113 C   0  0  0  0  0  0  0  0  0  0  0  0
  -21.5536    6.9217    9.6935 C   0  0  0  0  0  0  0  0  0  0  0  0
  -21.8098    7.5183    8.4638 C   0  0  0  0  0  0  0  0  0  0  0  0
  -23.1207    7.7336    8.0460 C   0  0  0  0  0  0  0  0  0  0  0  0
  -24.1917    7.3512    8.8625 C   0  0  0  0  0  0  0  0  0  0  0  0
  -24.7816    7.4054    6.1574 C   0  0  0  0  0  0  0  0  0  0  0  0
  -24.9783    6.8863    4.8743 C   0  0  0  0  0  0  0  0  0  0  0  0
  -26.0580    6.0343    4.6251 C   0  0  0  0  0  0  0  0  0  0  0  0
  -26.9405    5.7074    5.6598 C   0  0  0  0  0  0  0  0  0  0  0  0
  -26.7388    6.2296    6.9379 C   0  0  0  0  0  0  0  0  0  0  0  0
  -25.6652    7.0724    7.1903 C   0  0  0  0  0  0  0  0  0  0  0  0
  -26.5916    7.5653    9.4119 C   0  0  0  0  0  0  0  0  0  0  0  0
  -26.3901    8.3586   10.7460 C   0  0  0  0  0  0  0  0  0  0  0  0
  -26.1879    7.4361   11.9963 C   0  0  0  0  0  0  0  0  0  0  0  0
  -27.2370    6.4248   12.2838 N   0  3  0  0  0  0  0  0  0  0  0  0
  -28.2781    6.9653   13.1957 C   0  0  0  0  0  0  0  0  0  0  0  0
  -26.6226    5.1644   12.8279 C   0  0  0  0  0  0  0  0  0  0  0  0
  -22.3228    5.8836   11.8336 C   0  0  0  0  0  0  0  0  0  0  0  0
  -20.9124    5.6401   12.3134 C   0  0  0  0  0  0  0  0  0  0  0  0
  -23.2496    5.5941   12.5734 O   0  0  0  0  0  0  0  0  0  0  0  0
  1  7  1  0  0  0  0
  1  9  1  0  0  0  0
  2  8  1  0  0  0  0
  2 14  1  0  0  0  0
  2 15  1  0  0  0  0
  3  4  2  0  0  0  0
  3  8  1  0  0  0  0
  4  5  1  0  0  0  0
  4 21  1  0  0  0  0
  5  6  2  0  0  0  0
  6  7  1  0  0  0  0
  7  8  2  0  0  0  0
  9 10  2  0  0  0  0
  9 14  1  0  0  0  0
 10 11  1  0  0  0  0
 11 12  2  0  0  0  0
 12 13  1  0  0  0  0
 13 14  2  0  0  0  0
 15 16  1  0  0  0  0
 16 17  1  0  0  0  0
 17 18  1  0  0  0  0
 18 19  1  0  0  0  0
 18 20  1  0  0  0  0
 21 22  1  0  0  0  0
 21 23  2  0  0  0  0
M  CHG  1  18   1
M  END
>  <CHROM.1>
46.58403233,-179.75149314,-107.78654443,-55.85491034,28.91324855,-24.71336027
6.90913666,9.23877767,-1.55557319,0.02273370,1.70790418

>  <Name>


>  <RI>
0

>  <Rbt.Current_Directory>
/home/itssahil/PROJECTS/Mol_Feturizer/New_Systems/rnas/1lvj

>  <Rbt.Executable>
rbdock ($Id: //depot/dev/client3/rdock/2013.1/src/exe/rbdock.cxx#4 $)

>  <Rbt.Library>
libRbt.so (2013.1, Build901 2013/11/27)

>  <Rbt.Parameter_File>
/export/apps/rDock/src/rDock_2013.1_src/data/scripts/dock_solv.prm

>  <Rbt.Receptor>
prm/pocket_docking_4.prm

>  <SCORE>
-37.025

>  <SCORE.INTER>
-35.7771

>  <SCORE.INTER.CONST>
1

>  <SCORE.INTER.POLAR>
-1.1619

>  <SCORE.INTER.ROT>
5

>  <SCORE.INTER.SOLV>
12.8555

>  <SCORE.INTER.VDW>
-31.1969

>  <SCORE.INTER.norm>
-1.55552

>  <SCORE.INTRA>
-1.24923

>  <SCORE.INTRA.DIHEDRAL>
-0.743214

>  <SCORE.INTRA.DIHEDRAL.0>
8.06479

>  <SCORE.INTRA.POLAR>
0

>  <SCORE.INTRA.POLAR.0>
0

>  <SCORE.INTRA.REPUL>
0

>  <SCORE.INTRA.REPUL.0>
0

>  <SCORE.INTRA.SOLV>
2.93542

>  <SCORE.INTRA.SOLV.lig_0>
-29.8054

>  <SCORE.INTRA.VDW>
-2.34533

>  <SCORE.INTRA.VDW.0>
2.61447

>  <SCORE.INTRA.norm>
-0.0543142

>  <SCORE.RESTR>
0.00126558

>  <SCORE.RESTR.CAVITY>
0.00126558

>  <SCORE.RESTR.norm>
5.50252e-05

>  <SCORE.SYSTEM>
0

>  <SCORE.SYSTEM.CONST>
0

>  <SCORE.SYSTEM.DIHEDRAL>
0

>  <SCORE.SYSTEM.SOLV>
0

>  <SCORE.SYSTEM.norm>
0

>  <SCORE.heavy>
23

>  <SCORE.norm>
-1.60978

>  <RMSD>
3.801

$$$$

 OpenBabel11021811403D
libRbt.so/2013.1/901 2013/11/27
 23 25  0  0  0  0  0  0  0  0999 V2000
  -23.7382    8.6197    6.6613 S   0  0  0  0  0  0  0  0  0  0  0  0
  -25.4893    7.4321    8.7571 N   0  0  0  0  0  0  0  0  0  0  0  0
  -23.7263    6.6624   10.2108 C   0  0  0  0  0  0  0  0  0  0  0  0
  -22.3552    6.5496   10.4763 C   0  0  0  0  0  0  0  0  0  0  0  0
  -21.4234    7.0716    9.5842 C   0  0  0  0  0  0  0  0  0  0  0  0
  -21.8536    7.7036    8.4226 C   0  0  0  0  0  0  0  0  0  0  0  0
  -23.2138    7.8192    8.1473 C   0  0  0  0  0  0  0  0  0  0  0  0
  -24.1594    7.2999    9.0396 C   0  0  0  0  0  0  0  0  0  0  0  0
  -25.0239    7.4365    6.4122 C   0  0  0  0  0  0  0  0  0  0  0  0
  -25.3048    6.9670    5.1258 C   0  0  0  0  0  0  0  0  0  0  0  0
  -26.3272    6.0337    4.9322 C   0  0  0  0  0  0  0  0  0  0  0  0
  -27.0685    5.5758    6.0263 C   0  0  0  0  0  0  0  0  0  0  0  0
  -26.7834    6.0490    7.3076 C   0  0  0  0  0  0  0  0  0  0  0  0
  -25.7660    6.9725    7.5044 C   0  0  0  0  0  0  0  0  0  0  0  0
  -26.5005    7.2661    9.8305 C   0  0  0  0  0  0  0  0  0  0  0  0
  -26.4237    5.9584   10.6873 C   0  0  0  0  0  0  0  0  0  0  0  0
  -27.0524    6.1095   12.1145 C   0  0  0  0  0  0  0  0  0  0  0  0
  -28.4285    5.5899   12.3203 N   0  3  0  0  0  0  0  0  0  0  0  0
  -29.0308    6.1248   13.5687 C   0  0  0  0  0  0  0  0  0  0  0  0
  -28.4350    4.0860   12.3009 C   0  0  0  0  0  0  0  0  0  0  0  0
  -21.8789    5.8610   11.7234 C   0  0  0  0  0  0  0  0  0  0  0  0
  -22.8238    5.1164   12.6352 C   0  0  0  0  0  0  0  0  0  0  0  0
  -20.6860    5.8480   11.9821 O   0  0  0  0  0  0  0  0  0  0  0  0
  1  7  1  0  0  0  0
  1  9  1  0  0  0  0
  2  8  1  0  0  0  0
  2 14  1  0  0  0  0
  2 15  1  0  0  0  0
  3  4  2  0  0  0  0
  3  8  1  0  0  0  0
  4  5  1  0  0  0  0
  4 21  1  0  0  0  0
  5  6  2  0  0  0  0
  6  7  1  0  0  0  0
  7  8  2  0  0  0  0
  9 10  2  0  0  0  0
  9 14  1  0  0  0  0
 10 11  1  0  0  0  0
 11 12  2  0  0  0  0
 12 13  1  0  0  0  0
 13 14  2  0  0  0  0
 15 16  1  0  0  0  0
 16 17  1  0  0  0  0
 17 18  1  0  0  0  0
 18 19  1  0  0  0  0
 18 20  1  0  0  0  0
 21 22  1  0  0  0  0
 21 23  2  0  0  0  0
M  CHG  1  18   1
M  END
>  <CHROM.1>
-52.22831273,8.08210818,155.00192420,99.76150714,-44.16052893,-24.92287583
6.60612160,9.34726760,1.12804788,-0.16196978,-1.32026010

>  <Name>


>  <RI>
0

>  <Rbt.Current_Directory>
/home/itssahil/PROJECTS/Mol_Feturizer/New_Systems/rnas/1lvj

>  <Rbt.Executable>
rbdock ($Id: //depot/dev/client3/rdock/2013.1/src/exe/rbdock.cxx#4 $)

>  <Rbt.Library>
libRbt.so (2013.1, Build901 2013/11/27)

>  <Rbt.Parameter_File>
/export/apps/rDock/src/rDock_2013.1_src/data/scripts/dock_solv.prm

>  <Rbt.Receptor>
prm/pocket_docking_5.prm

>  <SCORE>
-29.6032

>  <SCORE.INTER>
-28.8839

>  <SCORE.INTER.CONST>
1

>  <SCORE.INTER.POLAR>
-1.15736

>  <SCORE.INTER.ROT>
5

>  <SCORE.INTER.SOLV>
15.3724

>  <SCORE.INTER.VDW>
-27.4555

>  <SCORE.INTER.norm>
-1.25582

>  <SCORE.INTRA>
-0.719252

>  <SCORE.INTRA.DIHEDRAL>
-0.578945

>  <SCORE.INTRA.DIHEDRAL.0>
8.06479

>  <SCORE.INTRA.POLAR>
0

>  <SCORE.INTRA.POLAR.0>
0

>  <SCORE.INTRA.REPUL>
0

>  <SCORE.INTRA.REPUL.0>
0

>  <SCORE.INTRA.SOLV>
1.397

>  <SCORE.INTRA.SOLV.lig_0>
-29.8054

>  <SCORE.INTRA.VDW>
-1.12828

>  <SCORE.INTRA.VDW.0>
2.61447

>  <SCORE.INTRA.norm>
-0.0312718

>  <SCORE.RESTR>
0

>  <SCORE.RESTR.CAVITY>
0

>  <SCORE.RESTR.norm>
0

>  <SCORE.SYSTEM>
0

>  <SCORE.SYSTEM.CONST>
0

>  <SCORE.SYSTEM.DIHEDRAL>
0

>  <SCORE.SYSTEM.SOLV>
0

>  <SCORE.SYSTEM.norm>
0

>  <SCORE.heavy>
23

>  <SCORE.norm>
-1.28709

>  <RMSD>
3.803

$$$$

 OpenBabel11021811403D
libRbt.so/2013.1/901 2013/11/27
 23 25  0  0  0  0  0  0  0  0999 V2000
  -23.6258    8.5762    6.3397 S   0  0  0  0  0  0  0  0  0  0  0  0
  -25.4422    7.6394    8.5059 N   0  0  0  0  0  0  0  0  0  0  0  0
  -23.7246    6.9341   10.0442 C   0  0  0  0  0  0  0  0  0  0  0  0
  -22.3616    6.7944   10.3370 C   0  0  0  0  0  0  0  0  0  0  0  0
  -21.4015    7.2028    9.4162 C   0  0  0  0  0  0  0  0  0  0  0  0
  -21.7955    7.7473    8.1988 C   0  0  0  0  0  0  0  0  0  0  0  0
  -23.1474    7.8885    7.8960 C   0  0  0  0  0  0  0  0  0  0  0  0
  -24.1212    7.4834    8.8167 C   0  0  0  0  0  0  0  0  0  0  0  0
  -24.9526    7.4239    6.1759 C   0  0  0  0  0  0  0  0  0  0  0  0
  -25.2376    6.8556    4.9309 C   0  0  0  0  0  0  0  0  0  0  0  0
  -26.2924    5.9472    4.8044 C   0  0  0  0  0  0  0  0  0  0  0  0
  -27.0618    5.6131    5.9236 C   0  0  0  0  0  0  0  0  0  0  0  0
  -26.7724    6.1846    7.1632 C   0  0  0  0  0  0  0  0  0  0  0  0
  -25.7229    7.0837    7.2936 C   0  0  0  0  0  0  0  0  0  0  0  0
  -26.4700    7.6041    9.5757 C   0  0  0  0  0  0  0  0  0  0  0  0
  -26.4696    6.3595   10.5249 C   0  0  0  0  0  0  0  0  0  0  0  0
  -27.1082    6.6439   11.9272 C   0  0  0  0  0  0  0  0  0  0  0  0
  -27.1233    5.5353   12.9155 N   0  3  0  0  0  0  0  0  0  0  0  0
  -25.7472    5.1517   13.3236 C   0  0  0  0  0  0  0  0  0  0  0  0
  -27.8917    4.3586   12.3796 C   0  0  0  0  0  0  0  0  0  0  0  0
  -21.9247    6.1992   11.6452 C   0  0  0  0  0  0  0  0  0  0  0  0
  -20.4669    6.0269   11.9971 C   0  0  0  0  0  0  0  0  0  0  0  0
  -22.7659    5.8989   12.4773 O   0  0  0  0  0  0  0  0  0  0  0  0
  1  7  1  0  0  0  0
  1  9  1  0  0  0  0
  2  8  1  0  0  0  0
  2 14  1  0  0  0  0
  2 15  1  0  0  0  0
  3  4  2  0  0  0  0
  3  8  1  0  0  0  0
  4  5  1  0  0  0  0
  4 21  1  0  0  0  0
  5  6  2  0  0  0  0
  6  7  1  0  0  0  0
  7  8  2  0  0  0  0
  9 10  2  0  0  0  0
  9 14  1  0  0  0  0
 10 11  1  0  0  0  0
 11 12  2  0  0  0  0
 12 13  1  0  0  0  0
 13 14  2  0  0  0  0
 15 16  1  0  0  0  0
 16 17  1  0  0  0  0
 17 18  1  0  0  0  0
 18 19  1  0  0  0  0
 18 20  1  0  0  0  0
 21 22  1  0  0  0  0
 21 23  2  0  0  0  0
M  CHG  1  18   1
M  END
>  <CHROM.1>
-53.42075862,179.78045129,155.27973399,-178.40829935,-175.03343711,-24.65642424
6.72599228,9.21199154,-1.57322723,0.23022850,1.81825816

>  <Name>


>  <RI>
0

>  <Rbt.Current_Directory>
/home/itssahil/PROJECTS/Mol_Feturizer/New_Systems/rnas/1lvj

>  <Rbt.Executable>
rbdock ($Id: //depot/dev/client3/rdock/2013.1/src/exe/rbdock.cxx#4 $)

>  <Rbt.Library>
libRbt.so (2013.1, Build901 2013/11/27)

>  <Rbt.Parameter_File>
/export/apps/rDock/src/rDock_2013.1_src/data/scripts/dock_solv.prm

>  <Rbt.Receptor>
prm/pocket_docking_3.prm

>  <SCORE>
-29.582

>  <SCORE.INTER>
-27.0523

>  <SCORE.INTER.CONST>
1

>  <SCORE.INTER.POLAR>
0

>  <SCORE.INTER.ROT>
5

>  <SCORE.INTER.SOLV>
10.4632

>  <SCORE.INTER.VDW>
-28.4559

>  <SCORE.INTER.norm>
-1.17619

>  <SCORE.INTRA>
-2.96534

>  <SCORE.INTRA.DIHEDRAL>
-5.36685

>  <SCORE.INTRA.DIHEDRAL.0>
8.06479

>  <SCORE.INTRA.POLAR>
0

>  <SCORE.INTRA.POLAR.0>
0

>  <SCORE.INTRA.REPUL>
0

>  <SCORE.INTRA.REPUL.0>
0

>  <SCORE.INTRA.SOLV>
-0.319609

>  <SCORE.INTRA.SOLV.lig_0>
-29.8054

>  <SCORE.INTRA.VDW>
-0.122106

>  <SCORE.INTRA.VDW.0>
2.61447

>  <SCORE.INTRA.norm>
-0.128928

>  <SCORE.RESTR>
0.435551

>  <SCORE.RESTR.CAVITY>
0.435551

>  <SCORE.RESTR.norm>
0.018937

>  <SCORE.SYSTEM>
0

>  <SCORE.SYSTEM.CONST>
0

>  <SCORE.SYSTEM.DIHEDRAL>
0

>  <SCORE.SYSTEM.SOLV>
0

>  <SCORE.SYSTEM.norm>
0

>  <SCORE.heavy>
23

>  <SCORE.norm>
-1.28618

>  <RMSD>
3.806

$$$$

 OpenBabel11021811403D
libRbt.so/2013.1/901 2013/11/27
 23 25  0  0  0  0  0  0  0  0999 V2000
  -23.4955    8.5342    6.1463 S   0  0  0  0  0  0  0  0  0  0  0  0
  -25.3945    7.6743    8.2732 N   0  0  0  0  0  0  0  0  0  0  0  0
  -23.7379    6.9982    9.8896 C   0  0  0  0  0  0  0  0  0  0  0  0
  -22.3872    6.8554   10.2336 C   0  0  0  0  0  0  0  0  0  0  0  0
  -21.3921    7.2294    9.3357 C   0  0  0  0  0  0  0  0  0  0  0  0
  -21.7385    7.7426    8.0906 C   0  0  0  0  0  0  0  0  0  0  0  0
  -23.0777    7.8867    7.7370 C   0  0  0  0  0  0  0  0  0  0  0  0
  -24.0865    7.5160    8.6342 C   0  0  0  0  0  0  0  0  0  0  0  0
  -24.8266    7.3889    5.9686 C   0  0  0  0  0  0  0  0  0  0  0  0
  -25.0737    6.7882    4.7308 C   0  0  0  0  0  0  0  0  0  0  0  0
  -26.1320    5.8855    4.5931 C   0  0  0  0  0  0  0  0  0  0  0  0
  -26.9429    5.5897    5.6937 C   0  0  0  0  0  0  0  0  0  0  0  0
  -26.6911    6.1935    6.9262 C   0  0  0  0  0  0  0  0  0  0  0  0
  -25.6384    7.0870    7.0680 C   0  0  0  0  0  0  0  0  0  0  0  0
  -26.4590    7.6779    9.3072 C   0  0  0  0  0  0  0  0  0  0  0  0
  -26.5800    6.4060   10.2113 C   0  0  0  0  0  0  0  0  0  0  0  0
  -26.4093    6.7079   11.7394 C   0  0  0  0  0  0  0  0  0  0  0  0
  -26.4030    5.5534   12.6737 N   0  3  0  0  0  0  0  0  0  0  0  0
  -27.7010    4.8306   12.6538 C   0  0  0  0  0  0  0  0  0  0  0  0
  -26.0369    5.9985   14.0629 C   0  0  0  0  0  0  0  0  0  0  0  0
  -22.0015    6.2937   11.5723 C   0  0  0  0  0  0  0  0  0  0  0  0
  -20.5657    5.9935   11.9289 C   0  0  0  0  0  0  0  0  0  0  0  0
  -22.8614    6.1285   12.4228 O   0  0  0  0  0  0  0  0  0  0  0  0
  1  7  1  0  0  0  0
  1  9  1  0  0  0  0
  2  8  1  0  0  0  0
  2 14  1  0  0  0  0
  2 15  1  0  0  0  0
  3  4  2  0  0  0  0
  3  8  1  0  0  0  0
  4  5  1  0  0  0  0
  4 21  1  0  0  0  0
  5  6  2  0  0  0  0
  6  7  1  0  0  0  0
  7  8  2  0  0  0  0
  9 10  2  0  0  0  0
  9 14  1  0  0  0  0
 10 11  1  0  0  0  0
 11 12  2  0  0  0  0
 12 13  1  0  0  0  0
 13 14  2  0  0  0  0
 15 16  1  0  0  0  0
 16 17  1  0  0  0  0
 17 18  1  0  0  0  0
 18 19  1  0  0  0  0
 18 20  1  0  0  0  0
 21 22  1  0  0  0  0
 21 23  2  0  0  0  0
M  CHG  1  18   1
M  END
>  <CHROM.1>
-58.47968828,173.71525647,120.97539408,-175.41247877,56.79349500,-24.56210102
6.80283933,9.09299801,-1.59146689,0.22234947,1.76326007

>  <Name>


>  <RI>
0

>  <Rbt.Current_Directory>
/home/itssahil/PROJECTS/Mol_Feturizer/New_Systems/rnas/1lvj

>  <Rbt.Executable>
rbdock ($Id: //depot/dev/client3/rdock/2013.1/src/exe/rbdock.cxx#4 $)

>  <Rbt.Library>
libRbt.so (2013.1, Build901 2013/11/27)

>  <Rbt.Parameter_File>
/export/apps/rDock/src/rDock_2013.1_src/data/scripts/dock_solv.prm

>  <Rbt.Receptor>
prm/pocket_docking_3.prm

>  <SCORE>
-26.312

>  <SCORE.INTER>
-25.1597

>  <SCORE.INTER.CONST>
1

>  <SCORE.INTER.POLAR>
0

>  <SCORE.INTER.ROT>
5

>  <SCORE.INTER.SOLV>
10.6558

>  <SCORE.INTER.VDW>
-27.2584

>  <SCORE.INTER.norm>
-1.0939

>  <SCORE.INTRA>
-1.54344

>  <SCORE.INTRA.DIHEDRAL>
-1.72186

>  <SCORE.INTRA.DIHEDRAL.0>
8.06479

>  <SCORE.INTRA.POLAR>
0

>  <SCORE.INTRA.POLAR.0>
0

>  <SCORE.INTRA.REPUL>
0

>  <SCORE.INTRA.REPUL.0>
0

>  <SCORE.INTRA.SOLV>
2.13461

>  <SCORE.INTRA.SOLV.lig_0>
-29.8054

>  <SCORE.INTRA.VDW>
-1.74981

>  <SCORE.INTRA.VDW.0>
2.61447

>  <SCORE.INTRA.norm>
-0.0671059

>  <SCORE.RESTR>
0.391103

>  <SCORE.RESTR.CAVITY>
0.391103

>  <SCORE.RESTR.norm>
0.0170045

>  <SCORE.SYSTEM>
0

>  <SCORE.SYSTEM.CONST>
0

>  <SCORE.SYSTEM.DIHEDRAL>
0

>  <SCORE.SYSTEM.SOLV>
0

>  <SCORE.SYSTEM.norm>
0

>  <SCORE.heavy>
23

>  <SCORE.norm>
-1.144

>  <RMSD>
3.806

$$$$

 OpenBabel11021811403D
libRbt.so/2013.1/901 2013/11/27
 23 25  0  0  0  0  0  0  0  0999 V2000
  -23.3591    8.4788    6.0817 S   0  0  0  0  0  0  0  0  0  0  0  0
  -25.2996    7.9748    8.2839 N   0  0  0  0  0  0  0  0  0  0  0  0
  -23.6874    7.3091    9.9488 C   0  0  0  0  0  0  0  0  0  0  0  0
  -22.3496    7.0847   10.2995 C   0  0  0  0  0  0  0  0  0  0  0  0
  -21.3367    7.2922    9.3681 C   0  0  0  0  0  0  0  0  0  0  0  0
  -21.6529    7.7195    8.0831 C   0  0  0  0  0  0  0  0  0  0  0  0
  -22.9792    7.9432    7.7227 C   0  0  0  0  0  0  0  0  0  0  0  0
  -24.0055    7.7401    8.6531 C   0  0  0  0  0  0  0  0  0  0  0  0
  -24.7828    7.4380    6.0123 C   0  0  0  0  0  0  0  0  0  0  0  0
  -25.0927    6.7520    4.8344 C   0  0  0  0  0  0  0  0  0  0  0  0
  -26.2239    5.9326    4.7821 C   0  0  0  0  0  0  0  0  0  0  0  0
  -27.0444    5.8054    5.9077 C   0  0  0  0  0  0  0  0  0  0  0  0
  -26.7297    6.4936    7.0800 C   0  0  0  0  0  0  0  0  0  0  0  0
  -25.6047    7.3047    7.1371 C   0  0  0  0  0  0  0  0  0  0  0  0
  -26.3486    8.1600    9.3170 C   0  0  0  0  0  0  0  0  0  0  0  0
  -26.4789    7.0467   10.4095 C   0  0  0  0  0  0  0  0  0  0  0  0
  -27.0639    7.5689   11.7661 C   0  0  0  0  0  0  0  0  0  0  0  0
  -27.0928    6.6257   12.9130 N   0  3  0  0  0  0  0  0  0  0  0  0
  -25.7211    6.2564   13.3481 C   0  0  0  0  0  0  0  0  0  0  0  0
  -27.9151    5.4114   12.5793 C   0  0  0  0  0  0  0  0  0  0  0  0
  -21.9973    6.6144   11.6819 C   0  0  0  0  0  0  0  0  0  0  0  0
  -20.6571    5.9958   11.9978 C   0  0  0  0  0  0  0  0  0  0  0  0
  -22.7897    6.7888   12.5940 O   0  0  0  0  0  0  0  0  0  0  0  0
  1  7  1  0  0  0  0
  1  9  1  0  0  0  0
  2  8  1  0  0  0  0
  2 14  1  0  0  0  0
  2 15  1  0  0  0  0
  3  4  2  0  0  0  0
  3  8  1  0  0  0  0
  4  5  1  0  0  0  0
  4 21  1  0  0  0  0
  5  6  2  0  0  0  0
  6  7  1  0  0  0  0
  7  8  2  0  0  0  0
  9 10  2  0  0  0  0
  9 14  1  0  0  0  0
 10 11  1  0  0  0  0
 11 12  2  0  0  0  0
 12 13  1  0  0  0  0
 13 14  2  0  0  0  0
 15 16  1  0  0  0  0
 16 17  1  0  0  0  0
 17 18  1  0  0  0  0
 18 19  1  0  0  0  0
 18 20  1  0  0  0  0
 21 22  1  0  0  0  0
 21 23  2  0  0  0  0
M  CHG  1  18   1
M  END
>  <CHROM.1>
-53.14787073,162.51749375,152.88735332,-173.62529767,-174.68573363,-24.58643073
7.09373341,9.12699165,-1.56017470,0.13401318,1.68711451

>  <Name>


>  <RI>
0

>  <Rbt.Current_Directory>
/home/itssahil/PROJECTS/Mol_Feturizer/New_Systems/rnas/1lvj

>  <Rbt.Executable>
rbdock ($Id: //depot/dev/client3/rdock/2013.1/src/exe/rbdock.cxx#4 $)

>  <Rbt.Library>
libRbt.so (2013.1, Build901 2013/11/27)

>  <Rbt.Parameter_File>
/export/apps/rDock/src/rDock_2013.1_src/data/scripts/dock_solv.prm

>  <Rbt.Receptor>
prm/pocket_docking_3.prm

>  <SCORE>
-29.3346

>  <SCORE.INTER>
-27.6132

>  <SCORE.INTER.CONST>
1

>  <SCORE.INTER.POLAR>
0

>  <SCORE.INTER.ROT>
5

>  <SCORE.INTER.SOLV>
10.8739

>  <SCORE.INTER.VDW>
-28.9667

>  <SCORE.INTER.norm>
-1.20057

>  <SCORE.INTRA>
-2.11878

>  <SCORE.INTRA.DIHEDRAL>
-3.51817

>  <SCORE.INTRA.DIHEDRAL.0>
8.06479

>  <SCORE.INTRA.POLAR>
0

>  <SCORE.INTRA.POLAR.0>
0

>  <SCORE.INTRA.REPUL>
0

>  <SCORE.INTRA.REPUL.0>
0

>  <SCORE.INTRA.SOLV>
-0.295785

>  <SCORE.INTRA.SOLV.lig_0>
-29.8054

>  <SCORE.INTRA.VDW>
-0.211796

>  <SCORE.INTRA.VDW.0>
2.61447

>  <SCORE.INTRA.norm>
-0.0921207

>  <SCORE.RESTR>
0.397326

>  <SCORE.RESTR.CAVITY>
0.397326

>  <SCORE.RESTR.norm>
0.017275

>  <SCORE.SYSTEM>
0

>  <SCORE.SYSTEM.CONST>
0

>  <SCORE.SYSTEM.DIHEDRAL>
0

>  <SCORE.SYSTEM.SOLV>
0

>  <SCORE.SYSTEM.norm>
0

>  <SCORE.heavy>
23

>  <SCORE.norm>
-1.27542

>  <RMSD>
3.811

$$$$

 OpenBabel11021811403D
libRbt.so/2013.1/901 2013/11/27
 23 25  0  0  0  0  0  0  0  0999 V2000
  -23.5166    8.5220    6.1701 S   0  0  0  0  0  0  0  0  0  0  0  0
  -25.4134    7.6690    8.3017 N   0  0  0  0  0  0  0  0  0  0  0  0
  -23.7552    6.9923    9.9162 C   0  0  0  0  0  0  0  0  0  0  0  0
  -22.4041    6.8475   10.2580 C   0  0  0  0  0  0  0  0  0  0  0  0
  -21.4099    7.2183    9.3577 C   0  0  0  0  0  0  0  0  0  0  0  0
  -21.7576    7.7302    8.1124 C   0  0  0  0  0  0  0  0  0  0  0  0
  -23.0972    7.8762    7.7610 C   0  0  0  0  0  0  0  0  0  0  0  0
  -24.1051    7.5088    8.6606 C   0  0  0  0  0  0  0  0  0  0  0  0
  -24.8501    7.3789    5.9965 C   0  0  0  0  0  0  0  0  0  0  0  0
  -25.1006    6.7767    4.7601 C   0  0  0  0  0  0  0  0  0  0  0  0
  -26.1608    5.8758    4.6257 C   0  0  0  0  0  0  0  0  0  0  0  0
  -26.9702    5.5832    5.7282 C   0  0  0  0  0  0  0  0  0  0  0  0
  -26.7151    6.1885    6.9593 C   0  0  0  0  0  0  0  0  0  0  0  0
  -25.6605    7.0802    7.0978 C   0  0  0  0  0  0  0  0  0  0  0  0
  -26.4760    7.6762    9.3375 C   0  0  0  0  0  0  0  0  0  0  0  0
  -26.4934    6.4830   10.3503 C   0  0  0  0  0  0  0  0  0  0  0  0
  -26.9698    6.8902   11.7865 C   0  0  0  0  0  0  0  0  0  0  0  0
  -27.0308    5.8257   12.8204 N   0  3  0  0  0  0  0  0  0  0  0  0
  -28.0903    4.8302   12.5141 C   0  0  0  0  0  0  0  0  0  0  0  0
  -27.2112    6.4254   14.1878 C   0  0  0  0  0  0  0  0  0  0  0  0
  -22.0170    6.2871   11.5969 C   0  0  0  0  0  0  0  0  0  0  0  0
  -20.5791    6.0050   11.9592 C   0  0  0  0  0  0  0  0  0  0  0  0
  -22.8786    6.1083   12.4430 O   0  0  0  0  0  0  0  0  0  0  0  0
  1  7  1  0  0  0  0
  1  9  1  0  0  0  0
  2  8  1  0  0  0  0
  2 14  1  0  0  0  0
  2 15  1  0  0  0  0
  3  4  2  0  0  0  0
  3  8  1  0  0  0  0
  4  5  1  0  0  0  0
  4 21  1  0  0  0  0
  5  6  2  0  0  0  0
  6  7  1  0  0  0  0
  7  8  2  0  0  0  0
  9 10  2  0  0  0  0
  9 14  1  0  0  0  0
 10 11  1  0  0  0  0
 11 12  2  0  0  0  0
 12 13  1  0  0  0  0
 13 14  2  0  0  0  0
 15 16  1  0  0  0  0
 16 17  1  0  0  0  0
 17 18  1  0  0  0  0
 18 19  1  0  0  0  0
 18 20  1  0  0  0  0
 21 22  1  0  0  0  0
 21 23  2  0  0  0  0
M  CHG  1  18   1
M  END
>  <CHROM.1>
-51.57221968,174.68544010,146.03799416,179.58171149,52.52983632,-24.69820715
6.84029488,9.12888351,-1.45232790,0.17921600,1.72502802

>  <Name>


>  <RI>
0

>  <Rbt.Current_Directory>
/home/itssahil/PROJECTS/Mol_Feturizer/New_Systems/rnas/1lvj

>  <Rbt.Executable>
rbdock ($Id: //depot/dev/client3/rdock/2013.1/src/exe/rbdock.cxx#4 $)

>  <Rbt.Library>
libRbt.so (2013.1, Build901 2013/11/27)

>  <Rbt.Parameter_File>
/export/apps/rDock/src/rDock_2013.1_src/data/scripts/dock_solv.prm

>  <Rbt.Receptor>
prm/pocket_docking_3.prm

>  <SCORE>
-28.2105

>  <SCORE.INTER>
-27.0983

>  <SCORE.INTER.CONST>
1

>  <SCORE.INTER.POLAR>
0

>  <SCORE.INTER.ROT>
5

>  <SCORE.INTER.SOLV>
10.7054

>  <SCORE.INTER.VDW>
-28.5673

>  <SCORE.INTER.norm>
-1.17819

>  <SCORE.INTRA>
-2.1104

>  <SCORE.INTRA.DIHEDRAL>
-3.63206

>  <SCORE.INTRA.DIHEDRAL.0>
8.06479

>  <SCORE.INTRA.POLAR>
0

>  <SCORE.INTRA.POLAR.0>
0

>  <SCORE.INTRA.REPUL>
0

>  <SCORE.INTRA.REPUL.0>
0

>  <SCORE.INTRA.SOLV>
1.07757

>  <SCORE.INTRA.SOLV.lig_0>
-29.8054

>  <SCORE.INTRA.VDW>
-0.833157

>  <SCORE.INTRA.VDW.0>
2.61447

>  <SCORE.INTRA.norm>
-0.0917565

>  <SCORE.RESTR>
0.998173

>  <SCORE.RESTR.CAVITY>
0.998173

>  <SCORE.RESTR.norm>
0.0433988

>  <SCORE.SYSTEM>
0

>  <SCORE.SYSTEM.CONST>
0

>  <SCORE.SYSTEM.DIHEDRAL>
0

>  <SCORE.SYSTEM.SOLV>
0

>  <SCORE.SYSTEM.norm>
0

>  <SCORE.heavy>
23

>  <SCORE.norm>
-1.22654

>  <RMSD>
3.812

$$$$

 OpenBabel11021811403D
libRbt.so/2013.1/901 2013/11/27
 23 25  0  0  0  0  0  0  0  0999 V2000
  -23.4333    8.4683    6.0579 S   0  0  0  0  0  0  0  0  0  0  0  0
  -25.3045    7.9811    8.3229 N   0  0  0  0  0  0  0  0  0  0  0  0
  -23.6396    7.3465    9.9475 C   0  0  0  0  0  0  0  0  0  0  0  0
  -22.2905    7.1346   10.2611 C   0  0  0  0  0  0  0  0  0  0  0  0
  -21.3070    7.3362    9.2976 C   0  0  0  0  0  0  0  0  0  0  0  0
  -21.6638    7.7450    8.0172 C   0  0  0  0  0  0  0  0  0  0  0  0
  -23.0016    7.9562    7.6935 C   0  0  0  0  0  0  0  0  0  0  0  0
  -23.9986    7.7589    8.6564 C   0  0  0  0  0  0  0  0  0  0  0  0
  -24.8518    7.4183    6.0440 C   0  0  0  0  0  0  0  0  0  0  0  0
  -25.1921    6.7153    4.8846 C   0  0  0  0  0  0  0  0  0  0  0  0
  -26.3191    5.8886    4.8762 C   0  0  0  0  0  0  0  0  0  0  0  0
  -27.1051    5.7709    6.0272 C   0  0  0  0  0  0  0  0  0  0  0  0
  -26.7602    6.4760    7.1808 C   0  0  0  0  0  0  0  0  0  0  0  0
  -25.6392    7.2945    7.1943 C   0  0  0  0  0  0  0  0  0  0  0  0
  -26.3237    8.1733    9.3842 C   0  0  0  0  0  0  0  0  0  0  0  0
  -26.4431    7.0526   10.4704 C   0  0  0  0  0  0  0  0  0  0  0  0
  -27.0807    7.5497   11.8126 C   0  0  0  0  0  0  0  0  0  0  0  0
  -27.1372    6.5911   12.9457 N   0  3  0  0  0  0  0  0  0  0  0  0
  -25.7767    6.1783   13.3771 C   0  0  0  0  0  0  0  0  0  0  0  0
  -27.9918    5.4047   12.5933 C   0  0  0  0  0  0  0  0  0  0  0  0
  -21.8945    6.6843   11.6384 C   0  0  0  0  0  0  0  0  0  0  0  0
  -22.7177    7.0235   12.8573 C   0  0  0  0  0  0  0  0  0  0  0  0
  -20.9122    5.9727   11.7764 O   0  0  0  0  0  0  0  0  0  0  0  0
  1  7  1  0  0  0  0
  1  9  1  0  0  0  0
  2  8  1  0  0  0  0
  2 14  1  0  0  0  0
  2 15  1  0  0  0  0
  3  4  2  0  0  0  0
  3  8  1  0  0  0  0
  4  5  1  0  0  0  0
  4 21  1  0  0  0  0
  5  6  2  0  0  0  0
  6  7  1  0  0  0  0
  7  8  2  0  0  0  0
  9 10  2  0  0  0  0
  9 14  1  0  0  0  0
 10 11  1  0  0  0  0
 11 12  2  0  0  0  0
 12 13  1  0  0  0  0
 13 14  2  0  0  0  0
 15 16  1  0  0  0  0
 16 17  1  0  0  0  0
 17 18  1  0  0  0  0
 18 19  1  0  0  0  0
 18 20  1  0  0  0  0
 21 22  1  0  0  0  0
 21 23  2  0  0  0  0
M  CHG  1  18   1
M  END
>  <CHROM.1>
-54.89937446,-28.27019329,157.02958983,-175.13291511,-177.63531220,-24.61011705
7.09824714,9.14513980,-1.54141276,0.14781709,1.68224453

>  <Name>


>  <RI>
0

>  <Rbt.Current_Directory>
/home/itssahil/PROJECTS/Mol_Feturizer/New_Systems/rnas/1lvj

>  <Rbt.Executable>
rbdock ($Id: //depot/dev/client3/rdock/2013.1/src/exe/rbdock.cxx#4 $)

>  <Rbt.Library>
libRbt.so (2013.1, Build901 2013/11/27)

>  <Rbt.Parameter_File>
/export/apps/rDock/src/rDock_2013.1_src/data/scripts/dock_solv.prm

>  <Rbt.Receptor>
prm/pocket_docking_3.prm

>  <SCORE>
-28.5336

>  <SCORE.INTER>
-27.0354

>  <SCORE.INTER.CONST>
1

>  <SCORE.INTER.POLAR>
0

>  <SCORE.INTER.ROT>
5

>  <SCORE.INTER.SOLV>
11.0498

>  <SCORE.INTER.VDW>
-28.6402

>  <SCORE.INTER.norm>
-1.17545

>  <SCORE.INTRA>
-1.73249

>  <SCORE.INTRA.DIHEDRAL>
-2.46008

>  <SCORE.INTRA.DIHEDRAL.0>
8.06479

>  <SCORE.INTRA.POLAR>
0

>  <SCORE.INTRA.POLAR.0>
0

>  <SCORE.INTRA.REPUL>
0

>  <SCORE.INTRA.REPUL.0>
0

>  <SCORE.INTRA.SOLV>
-0.574454

>  <SCORE.INTRA.SOLV.lig_0>
-29.8054

>  <SCORE.INTRA.VDW>
-0.215218

>  <SCORE.INTRA.VDW.0>
2.61447

>  <SCORE.INTRA.norm>
-0.0753255

>  <SCORE.RESTR>
0.23425

>  <SCORE.RESTR.CAVITY>
0.23425

>  <SCORE.RESTR.norm>
0.0101848

>  <SCORE.SYSTEM>
0

>  <SCORE.SYSTEM.CONST>
0

>  <SCORE.SYSTEM.DIHEDRAL>
0

>  <SCORE.SYSTEM.SOLV>
0

>  <SCORE.SYSTEM.norm>
0

>  <SCORE.heavy>
23

>  <SCORE.norm>
-1.24059

>  <RMSD>
3.817

$$$$

 OpenBabel11021811403D
libRbt.so/2013.1/901 2013/11/27
 23 25  0  0  0  0  0  0  0  0999 V2000
  -23.5597    8.5212    6.3514 S   0  0  0  0  0  0  0  0  0  0  0  0
  -25.4812    7.5589    8.4132 N   0  0  0  0  0  0  0  0  0  0  0  0
  -23.8419    6.7944   10.0077 C   0  0  0  0  0  0  0  0  0  0  0  0
  -22.4949    6.6294   10.3563 C   0  0  0  0  0  0  0  0  0  0  0  0
  -21.4902    7.0460    9.4882 C   0  0  0  0  0  0  0  0  0  0  0  0
  -21.8235    7.6242    8.2682 C   0  0  0  0  0  0  0  0  0  0  0  0
  -23.1589    7.7909    7.9102 C   0  0  0  0  0  0  0  0  0  0  0  0
  -24.1772    7.3776    8.7776 C   0  0  0  0  0  0  0  0  0  0  0  0
  -24.8924    7.3913    6.1023 C   0  0  0  0  0  0  0  0  0  0  0  0
  -25.1296    6.8562    4.8327 C   0  0  0  0  0  0  0  0  0  0  0  0
  -26.1892    5.9655    4.6386 C   0  0  0  0  0  0  0  0  0  0  0  0
  -27.0112    5.6158    5.7149 C   0  0  0  0  0  0  0  0  0  0  0  0
  -26.7693    6.1542    6.9793 C   0  0  0  0  0  0  0  0  0  0  0  0
  -25.7154    7.0356    7.1769 C   0  0  0  0  0  0  0  0  0  0  0  0
  -26.5553    7.5126    9.4360 C   0  0  0  0  0  0  0  0  0  0  0  0
  -26.2556    8.1860   10.8167 C   0  0  0  0  0  0  0  0  0  0  0  0
  -27.1669    7.6609   11.9782 C   0  0  0  0  0  0  0  0  0  0  0  0
  -26.7281    6.4395   12.7005 N   0  3  0  0  0  0  0  0  0  0  0  0
  -25.4470    6.6634   13.4190 C   0  0  0  0  0  0  0  0  0  0  0  0
  -26.6392    5.2705   11.7584 C   0  0  0  0  0  0  0  0  0  0  0  0
  -22.1234    5.9978   11.6676 C   0  0  0  0  0  0  0  0  0  0  0  0
  -20.7049    6.0038   12.1836 C   0  0  0  0  0  0  0  0  0  0  0  0
  -22.9984    5.5164   12.3697 O   0  0  0  0  0  0  0  0  0  0  0  0
  1  7  1  0  0  0  0
  1  9  1  0  0  0  0
  2  8  1  0  0  0  0
  2 14  1  0  0  0  0
  2 15  1  0  0  0  0
  3  4  2  0  0  0  0
  3  8  1  0  0  0  0
  4  5  1  0  0  0  0
  4 21  1  0  0  0  0
  5  6  2  0  0  0  0
  6  7  1  0  0  0  0
  7  8  2  0  0  0  0
  9 10  2  0  0  0  0
  9 14  1  0  0  0  0
 10 11  1  0  0  0  0
 11 12  2  0  0  0  0
 12 13  1  0  0  0  0
 13 14  2  0  0  0  0
 15 16  1  0  0  0  0
 16 17  1  0  0  0  0
 17 18  1  0  0  0  0
 18 19  1  0  0  0  0
 18 20  1  0  0  0  0
 21 22  1  0  0  0  0
 21 23  2  0  0  0  0
M  CHG  1  18   1
M  END
>  <CHROM.1>
39.87024903,-169.80494727,-158.72865496,86.24557896,-176.18628243,-24.59303664
6.92544634,9.15841866,-1.72015720,0.06930421,1.69699701

>  <Name>


>  <RI>
0

>  <Rbt.Current_Directory>
/home/itssahil/PROJECTS/Mol_Feturizer/New_Systems/rnas/1lvj

>  <Rbt.Executable>
rbdock ($Id: //depot/dev/client3/rdock/2013.1/src/exe/rbdock.cxx#4 $)

>  <Rbt.Library>
libRbt.so (2013.1, Build901 2013/11/27)

>  <Rbt.Parameter_File>
/export/apps/rDock/src/rDock_2013.1_src/data/scripts/dock_solv.prm

>  <Rbt.Receptor>
prm/pocket_docking_3.prm

>  <SCORE>
-31.7535

>  <SCORE.INTER>
-30.1628

>  <SCORE.INTER.CONST>
1

>  <SCORE.INTER.POLAR>
0

>  <SCORE.INTER.ROT>
5

>  <SCORE.INTER.SOLV>
10.4645

>  <SCORE.INTER.VDW>
-30.53

>  <SCORE.INTER.norm>
-1.31143

>  <SCORE.INTRA>
-2.15027

>  <SCORE.INTRA.DIHEDRAL>
-3.66982

>  <SCORE.INTRA.DIHEDRAL.0>
8.06479

>  <SCORE.INTRA.POLAR>
0

>  <SCORE.INTRA.POLAR.0>
0

>  <SCORE.INTRA.REPUL>
0

>  <SCORE.INTRA.REPUL.0>
0

>  <SCORE.INTRA.SOLV>
0.0315792

>  <SCORE.INTRA.SOLV.lig_0>
-29.8054

>  <SCORE.INTRA.VDW>
-0.331148

>  <SCORE.INTRA.VDW.0>
2.61447

>  <SCORE.INTRA.norm>
-0.0934899

>  <SCORE.RESTR>
0.559593

>  <SCORE.RESTR.CAVITY>
0.559593

>  <SCORE.RESTR.norm>
0.0243301

>  <SCORE.SYSTEM>
0

>  <SCORE.SYSTEM.CONST>
0

>  <SCORE.SYSTEM.DIHEDRAL>
0

>  <SCORE.SYSTEM.SOLV>
0

>  <SCORE.SYSTEM.norm>
0

>  <SCORE.heavy>
23

>  <SCORE.norm>
-1.38059

>  <RMSD>
3.823

$$$$

 OpenBabel11021811403D
libRbt.so/2013.1/901 2013/11/27
 23 25  0  0  0  0  0  0  0  0999 V2000
  -23.3950    8.5006    6.1102 S   0  0  0  0  0  0  0  0  0  0  0  0
  -25.3059    7.9388    8.3243 N   0  0  0  0  0  0  0  0  0  0  0  0
  -23.6681    7.2688    9.9622 C   0  0  0  0  0  0  0  0  0  0  0  0
  -22.3240    7.0561   10.2957 C   0  0  0  0  0  0  0  0  0  0  0  0
  -21.3236    7.2906    9.3573 C   0  0  0  0  0  0  0  0  0  0  0  0
  -21.6586    7.7330    8.0822 C   0  0  0  0  0  0  0  0  0  0  0  0
  -22.9913    7.9453    7.7389 C   0  0  0  0  0  0  0  0  0  0  0  0
  -24.0051    7.7151    8.6766 C   0  0  0  0  0  0  0  0  0  0  0  0
  -24.8062    7.4429    6.0397 C   0  0  0  0  0  0  0  0  0  0  0  0
  -25.1197    6.7708    4.8547 C   0  0  0  0  0  0  0  0  0  0  0  0
  -26.2411    5.9380    4.8016 C   0  0  0  0  0  0  0  0  0  0  0  0
  -27.0481    5.7833    5.9335 C   0  0  0  0  0  0  0  0  0  0  0  0
  -26.7298    6.4578    7.1128 C   0  0  0  0  0  0  0  0  0  0  0  0
  -25.6146    7.2822    7.1707 C   0  0  0  0  0  0  0  0  0  0  0  0
  -26.3463    8.0950    9.3708 C   0  0  0  0  0  0  0  0  0  0  0  0
  -26.4419    6.9708   10.4556 C   0  0  0  0  0  0  0  0  0  0  0  0
  -27.1020    7.4492   11.7938 C   0  0  0  0  0  0  0  0  0  0  0  0
  -27.1012    6.5040   12.9394 N   0  3  0  0  0  0  0  0  0  0  0  0
  -25.7212    6.2290   13.4165 C   0  0  0  0  0  0  0  0  0  0  0  0
  -27.8274    5.2367   12.5809 C   0  0  0  0  0  0  0  0  0  0  0  0
  -21.9513    6.5696   11.6672 C   0  0  0  0  0  0  0  0  0  0  0  0
  -20.5851    6.0037   11.9700 C   0  0  0  0  0  0  0  0  0  0  0  0
  -22.7508    6.6872   12.5821 O   0  0  0  0  0  0  0  0  0  0  0  0
  1  7  1  0  0  0  0
  1  9  1  0  0  0  0
  2  8  1  0  0  0  0
  2 14  1  0  0  0  0
  2 15  1  0  0  0  0
  3  4  2  0  0  0  0
  3  8  1  0  0  0  0
  4  5  1  0  0  0  0
  4 21  1  0  0  0  0
  5  6  2  0  0  0  0
  6  7  1  0  0  0  0
  7  8  2  0  0  0  0
  9 10  2  0  0  0  0
  9 14  1  0  0  0  0
 10 11  1  0  0  0  0
 11 12  2  0  0  0  0
 12 13  1  0  0  0  0
 13 14  2  0  0  0  0
 15 16  1  0  0  0  0
 16 17  1  0  0  0  0
 17 18  1  0  0  0  0
 18 19  1  0  0  0  0
 18 20  1  0  0  0  0
 21 22  1  0  0  0  0
 21 23  2  0  0  0  0
M  CHG  1  18   1
M  END
>  <CHROM.1>
-52.56970578,164.49562520,156.41511648,-173.23874713,-174.65525464,-24.58135270
7.05693758,9.14649524,-1.56347988,0.14482477,1.70173408

>  <Name>


>  <RI>
0

>  <Rbt.Current_Directory>
/home/itssahil/PROJECTS/Mol_Feturizer/New_Systems/rnas/1lvj

>  <Rbt.Executable>
rbdock ($Id: //depot/dev/client3/rdock/2013.1/src/exe/rbdock.cxx#4 $)

>  <Rbt.Library>
libRbt.so (2013.1, Build901 2013/11/27)

>  <Rbt.Parameter_File>
/export/apps/rDock/src/rDock_2013.1_src/data/scripts/dock_solv.prm

>  <Rbt.Receptor>
prm/pocket_docking_3.prm

>  <SCORE>
-29.6467

>  <SCORE.INTER>
-27.7304

>  <SCORE.INTER.CONST>
1

>  <SCORE.INTER.POLAR>
0

>  <SCORE.INTER.ROT>
5

>  <SCORE.INTER.SOLV>
10.8161

>  <SCORE.INTER.VDW>
-29.0256

>  <SCORE.INTER.norm>
-1.20567

>  <SCORE.INTRA>
-2.41089

>  <SCORE.INTRA.DIHEDRAL>
-4.22826

>  <SCORE.INTRA.DIHEDRAL.0>
8.06479

>  <SCORE.INTRA.POLAR>
0

>  <SCORE.INTRA.POLAR.0>
0

>  <SCORE.INTRA.REPUL>
0

>  <SCORE.INTRA.REPUL.0>
0

>  <SCORE.INTRA.SOLV>
-0.31337

>  <SCORE.INTRA.SOLV.lig_0>
-29.8054

>  <SCORE.INTRA.VDW>
-0.140075

>  <SCORE.INTRA.VDW.0>
2.61447

>  <SCORE.INTRA.norm>
-0.104821

>  <SCORE.RESTR>
0.494611

>  <SCORE.RESTR.CAVITY>
0.494611

>  <SCORE.RESTR.norm>
0.0215048

>  <SCORE.SYSTEM>
0

>  <SCORE.SYSTEM.CONST>
0

>  <SCORE.SYSTEM.DIHEDRAL>
0

>  <SCORE.SYSTEM.SOLV>
0

>  <SCORE.SYSTEM.norm>
0

>  <SCORE.heavy>
23

>  <SCORE.norm>
-1.28899

>  <RMSD>
3.830

$$$$

 OpenBabel11021811403D
libRbt.so/2013.1/901 2013/11/27
 23 25  0  0  0  0  0  0  0  0999 V2000
  -23.4295    8.4792    6.4929 S   0  0  0  0  0  0  0  0  0  0  0  0
  -25.4421    7.6721    8.5343 N   0  0  0  0  0  0  0  0  0  0  0  0
  -23.8798    6.8569   10.1800 C   0  0  0  0  0  0  0  0  0  0  0  0
  -22.5512    6.6266   10.5609 C   0  0  0  0  0  0  0  0  0  0  0  0
  -21.5079    6.9672    9.7053 C   0  0  0  0  0  0  0  0  0  0  0  0
  -21.7842    7.5338    8.4658 C   0  0  0  0  0  0  0  0  0  0  0  0
  -23.1009    7.7649    8.0758 C   0  0  0  0  0  0  0  0  0  0  0  0
  -24.1576    7.4284    8.9303 C   0  0  0  0  0  0  0  0  0  0  0  0
  -24.8172    7.4182    6.2408 C   0  0  0  0  0  0  0  0  0  0  0  0
  -25.0581    6.8672    4.9788 C   0  0  0  0  0  0  0  0  0  0  0  0
  -26.1611    6.0315    4.7821 C   0  0  0  0  0  0  0  0  0  0  0  0
  -27.0226    5.7527    5.8482 C   0  0  0  0  0  0  0  0  0  0  0  0
  -26.7767    6.3066    7.1050 C   0  0  0  0  0  0  0  0  0  0  0  0
  -25.6800    7.1335    7.3053 C   0  0  0  0  0  0  0  0  0  0  0  0
  -26.5375    7.7087    9.5347 C   0  0  0  0  0  0  0  0  0  0  0  0
  -26.2711    8.5047   10.8559 C   0  0  0  0  0  0  0  0  0  0  0  0
  -27.2818    8.1646   12.0040 C   0  0  0  0  0  0  0  0  0  0  0  0
  -27.5763    6.7319   12.2613 N   0  3  0  0  0  0  0  0  0  0  0  0
  -28.5437    6.5674   13.3769 C   0  0  0  0  0  0  0  0  0  0  0  0
  -26.3058    5.9666   12.5110 C   0  0  0  0  0  0  0  0  0  0  0  0
  -22.2415    6.0067   11.8936 C   0  0  0  0  0  0  0  0  0  0  0  0
  -20.8286    5.6832   12.3151 C   0  0  0  0  0  0  0  0  0  0  0  0
  -23.1474    5.8110   12.6881 O   0  0  0  0  0  0  0  0  0  0  0  0
  1  7  1  0  0  0  0
  1  9  1  0  0  0  0
  2  8  1  0  0  0  0
  2 14  1  0  0  0  0
  2 15  1  0  0  0  0
  3  4  2  0  0  0  0
  3  8  1  0  0  0  0
  4  5  1  0  0  0  0
  4 21  1  0  0  0  0
  5  6  2  0  0  0  0
  6  7  1  0  0  0  0
  7  8  2  0  0  0  0
  9 10  2  0  0  0  0
  9 14  1  0  0  0  0
 10 11  1  0  0  0  0
 11 12  2  0  0  0  0
 12 13  1  0  0  0  0
 13 14  2  0  0  0  0
 15 16  1  0  0  0  0
 16 17  1  0  0  0  0
 17 18  1  0  0  0  0
 18 19  1  0  0  0  0
 18 20  1  0  0  0  0
 21 22  1  0  0  0  0
 21 23  2  0  0  0  0
M  CHG  1  18   1
M  END
>  <CHROM.1>
45.06016991,177.10545475,-163.60084597,46.13161816,-60.22641524,-24.75815216
7.02599569,9.29632659,-1.51403758,-0.01541309,1.67414564

>  <Name>


>  <RI>
0

>  <Rbt.Current_Directory>
/home/itssahil/PROJECTS/Mol_Feturizer/New_Systems/rnas/1lvj

>  <Rbt.Executable>
rbdock ($Id: //depot/dev/client3/rdock/2013.1/src/exe/rbdock.cxx#4 $)

>  <Rbt.Library>
libRbt.so (2013.1, Build901 2013/11/27)

>  <Rbt.Parameter_File>
/export/apps/rDock/src/rDock_2013.1_src/data/scripts/dock_solv.prm

>  <Rbt.Receptor>
prm/pocket_docking_4.prm

>  <SCORE>
-39.526

>  <SCORE.INTER>
-36.3216

>  <SCORE.INTER.CONST>
1

>  <SCORE.INTER.POLAR>
-1.1619

>  <SCORE.INTER.ROT>
5

>  <SCORE.INTER.SOLV>
13.958

>  <SCORE.INTER.VDW>
-31.9274

>  <SCORE.INTER.norm>
-1.5792

>  <SCORE.INTRA>
-3.20447

>  <SCORE.INTRA.DIHEDRAL>
-6.07701

>  <SCORE.INTRA.DIHEDRAL.0>
8.06479

>  <SCORE.INTRA.POLAR>
0

>  <SCORE.INTRA.POLAR.0>
0

>  <SCORE.INTRA.REPUL>
0

>  <SCORE.INTRA.REPUL.0>
0

>  <SCORE.INTRA.SOLV>
2.26818

>  <SCORE.INTRA.SOLV.lig_0>
-29.8054

>  <SCORE.INTRA.VDW>
-1.30005

>  <SCORE.INTRA.VDW.0>
2.61447

>  <SCORE.INTRA.norm>
-0.139325

>  <SCORE.RESTR>
0

>  <SCORE.RESTR.CAVITY>
0

>  <SCORE.RESTR.norm>
0

>  <SCORE.SYSTEM>
0

>  <SCORE.SYSTEM.CONST>
0

>  <SCORE.SYSTEM.DIHEDRAL>
0

>  <SCORE.SYSTEM.SOLV>
0

>  <SCORE.SYSTEM.norm>
0

>  <SCORE.heavy>
23

>  <SCORE.norm>
-1.71852

>  <RMSD>
3.855

$$$$

 OpenBabel11021811403D
libRbt.so/2013.1/901 2013/11/27
 23 25  0  0  0  0  0  0  0  0999 V2000
  -23.3342    8.4572    6.6337 S   0  0  0  0  0  0  0  0  0  0  0  0
  -25.4081    7.6804    8.6249 N   0  0  0  0  0  0  0  0  0  0  0  0
  -23.9020    6.7940   10.2863 C   0  0  0  0  0  0  0  0  0  0  0  0
  -22.5883    6.5183   10.6879 C   0  0  0  0  0  0  0  0  0  0  0  0
  -21.5193    6.8402    9.8571 C   0  0  0  0  0  0  0  0  0  0  0  0
  -21.7553    7.4334    8.6217 C   0  0  0  0  0  0  0  0  0  0  0  0
  -23.0569    7.7097    8.2111 C   0  0  0  0  0  0  0  0  0  0  0  0
  -24.1391    7.3923    9.0407 C   0  0  0  0  0  0  0  0  0  0  0  0
  -24.7479    7.4423    6.3396 C   0  0  0  0  0  0  0  0  0  0  0  0
  -24.9812    6.9177    5.0650 C   0  0  0  0  0  0  0  0  0  0  0  0
  -26.1046    6.1185    4.8351 C   0  0  0  0  0  0  0  0  0  0  0  0
  -26.9940    5.8498    5.8807 C   0  0  0  0  0  0  0  0  0  0  0  0
  -26.7555    6.3771    7.1503 C   0  0  0  0  0  0  0  0  0  0  0  0
  -25.6386    7.1676    7.3836 C   0  0  0  0  0  0  0  0  0  0  0  0
  -26.5205    7.7348    9.6055 C   0  0  0  0  0  0  0  0  0  0  0  0
  -26.2600    8.5137   10.9379 C   0  0  0  0  0  0  0  0  0  0  0  0
  -27.4379    8.4043   11.9654 C   0  0  0  0  0  0  0  0  0  0  0  0
  -27.8530    7.0450   12.3963 N   0  3  0  0  0  0  0  0  0  0  0  0
  -29.0119    7.0989   13.3246 C   0  0  0  0  0  0  0  0  0  0  0  0
  -26.6922    6.3034   13.0001 C   0  0  0  0  0  0  0  0  0  0  0  0
  -22.3223    5.8695   12.0163 C   0  0  0  0  0  0  0  0  0  0  0  0
  -23.4253    5.2419   12.8338 C   0  0  0  0  0  0  0  0  0  0  0  0
  -21.1749    5.7907   12.4253 O   0  0  0  0  0  0  0  0  0  0  0  0
  1  7  1  0  0  0  0
  1  9  1  0  0  0  0
  2  8  1  0  0  0  0
  2 14  1  0  0  0  0
  2 15  1  0  0  0  0
  3  4  2  0  0  0  0
  3  8  1  0  0  0  0
  4  5  1  0  0  0  0
  4 21  1  0  0  0  0
  5  6  2  0  0  0  0
  6  7  1  0  0  0  0
  7  8  2  0  0  0  0
  9 10  2  0  0  0  0
  9 14  1  0  0  0  0
 10 11  1  0  0  0  0
 11 12  2  0  0  0  0
 12 13  1  0  0  0  0
 13 14  2  0  0  0  0
 15 16  1  0  0  0  0
 16 17  1  0  0  0  0
 17 18  1  0  0  0  0
 18 19  1  0  0  0  0
 18 20  1  0  0  0  0
 21 22  1  0  0  0  0
 21 23  2  0  0  0  0
M  CHG  1  18   1
M  END
>  <CHROM.1>
45.60314461,12.59970658,-174.58168147,57.21702006,-57.71037335,-24.81809276
7.05891570,9.40593578,-1.40057734,-0.08035918,1.66742924

>  <Name>


>  <RI>
0

>  <Rbt.Current_Directory>
/home/itssahil/PROJECTS/Mol_Feturizer/New_Systems/rnas/1lvj

>  <Rbt.Executable>
rbdock ($Id: //depot/dev/client3/rdock/2013.1/src/exe/rbdock.cxx#4 $)

>  <Rbt.Library>
libRbt.so (2013.1, Build901 2013/11/27)

>  <Rbt.Parameter_File>
/export/apps/rDock/src/rDock_2013.1_src/data/scripts/dock_solv.prm

>  <Rbt.Receptor>
prm/pocket_docking_5.prm

>  <SCORE>
-40.2393

>  <SCORE.INTER>
-36.0559

>  <SCORE.INTER.CONST>
1

>  <SCORE.INTER.POLAR>
-1.05282

>  <SCORE.INTER.ROT>
5

>  <SCORE.INTER.SOLV>
13.9991

>  <SCORE.INTER.VDW>
-32.1276

>  <SCORE.INTER.norm>
-1.56765

>  <SCORE.INTRA>
-4.18336

>  <SCORE.INTRA.DIHEDRAL>
-7.21315

>  <SCORE.INTRA.DIHEDRAL.0>
8.06479

>  <SCORE.INTRA.POLAR>
0

>  <SCORE.INTRA.POLAR.0>
0

>  <SCORE.INTRA.REPUL>
0

>  <SCORE.INTRA.REPUL.0>
0

>  <SCORE.INTRA.SOLV>
1.91443

>  <SCORE.INTRA.SOLV.lig_0>
-29.8054

>  <SCORE.INTRA.VDW>
-1.534

>  <SCORE.INTRA.VDW.0>
2.61447

>  <SCORE.INTRA.norm>
-0.181885

>  <SCORE.RESTR>
0

>  <SCORE.RESTR.CAVITY>
0

>  <SCORE.RESTR.norm>
0

>  <SCORE.SYSTEM>
0

>  <SCORE.SYSTEM.CONST>
0

>  <SCORE.SYSTEM.DIHEDRAL>
0

>  <SCORE.SYSTEM.SOLV>
0

>  <SCORE.SYSTEM.norm>
0

>  <SCORE.heavy>
23

>  <SCORE.norm>
-1.74953

>  <RMSD>
3.871

$$$$

 OpenBabel11021811403D
libRbt.so/2013.1/901 2013/11/27
 23 25  0  0  0  0  0  0  0  0999 V2000
  -23.3942    8.4958    6.1524 S   0  0  0  0  0  0  0  0  0  0  0  0
  -25.3061    7.9533    8.3703 N   0  0  0  0  0  0  0  0  0  0  0  0
  -23.6711    7.2743   10.0074 C   0  0  0  0  0  0  0  0  0  0  0  0
  -22.3282    7.0521   10.3394 C   0  0  0  0  0  0  0  0  0  0  0  0
  -21.3273    7.2769    9.3990 C   0  0  0  0  0  0  0  0  0  0  0  0
  -21.6608    7.7192    8.1235 C   0  0  0  0  0  0  0  0  0  0  0  0
  -22.9924    7.9409    7.7816 C   0  0  0  0  0  0  0  0  0  0  0  0
  -24.0066    7.7204    8.7213 C   0  0  0  0  0  0  0  0  0  0  0  0
  -24.8134    7.4488    6.0861 C   0  0  0  0  0  0  0  0  0  0  0  0
  -25.1338    6.7766    4.9030 C   0  0  0  0  0  0  0  0  0  0  0  0
  -26.2616    5.9522    4.8532 C   0  0  0  0  0  0  0  0  0  0  0  0
  -27.0681    5.8062    5.9866 C   0  0  0  0  0  0  0  0  0  0  0  0
  -26.7430    6.4807    7.1640 C   0  0  0  0  0  0  0  0  0  0  0  0
  -25.6214    7.2967    7.2186 C   0  0  0  0  0  0  0  0  0  0  0  0
  -26.3438    8.1198    9.4180 C   0  0  0  0  0  0  0  0  0  0  0  0
  -26.5226    6.9462   10.4382 C   0  0  0  0  0  0  0  0  0  0  0  0
  -27.0279    7.4143   11.8457 C   0  0  0  0  0  0  0  0  0  0  0  0
  -27.1507    6.3867   12.9109 N   0  3  0  0  0  0  0  0  0  0  0  0
  -28.4554    5.6798   12.8367 C   0  0  0  0  0  0  0  0  0  0  0  0
  -26.9278    6.9996   14.2661 C   0  0  0  0  0  0  0  0  0  0  0  0
  -21.9572    6.5657   11.7114 C   0  0  0  0  0  0  0  0  0  0  0  0
  -23.0002    6.2502   12.7561 C   0  0  0  0  0  0  0  0  0  0  0  0
  -20.7836    6.3601   11.9769 O   0  0  0  0  0  0  0  0  0  0  0  0
  1  7  1  0  0  0  0
  1  9  1  0  0  0  0
  2  8  1  0  0  0  0
  2 14  1  0  0  0  0
  2 15  1  0  0  0  0
  3  4  2  0  0  0  0
  3  8  1  0  0  0  0
  4  5  1  0  0  0  0
  4 21  1  0  0  0  0
  5  6  2  0  0  0  0
  6  7  1  0  0  0  0
  7  8  2  0  0  0  0
  9 10  2  0  0  0  0
  9 14  1  0  0  0  0
 10 11  1  0  0  0  0
 11 12  2  0  0  0  0
 12 13  1  0  0  0  0
 13 14  2  0  0  0  0
 15 16  1  0  0  0  0
 16 17  1  0  0  0  0
 17 18  1  0  0  0  0
 18 19  1  0  0  0  0
 18 20  1  0  0  0  0
 21 22  1  0  0  0  0
 21 23  2  0  0  0  0
M  CHG  1  18   1
M  END
>  <CHROM.1>
-57.26990494,2.34881229,150.64230528,-176.35622523,35.10344768,-24.68285387
7.10021236,9.23250276,-1.41842438,0.12149813,1.66806427

>  <Name>


>  <RI>
0

>  <Rbt.Current_Directory>
/home/itssahil/PROJECTS/Mol_Feturizer/New_Systems/rnas/1lvj

>  <Rbt.Executable>
rbdock ($Id: //depot/dev/client3/rdock/2013.1/src/exe/rbdock.cxx#4 $)

>  <Rbt.Library>
libRbt.so (2013.1, Build901 2013/11/27)

>  <Rbt.Parameter_File>
/export/apps/rDock/src/rDock_2013.1_src/data/scripts/dock_solv.prm

>  <Rbt.Receptor>
prm/pocket_docking_4.prm

>  <SCORE>
-29.9469

>  <SCORE.INTER>
-27.0934

>  <SCORE.INTER.CONST>
1

>  <SCORE.INTER.POLAR>
0

>  <SCORE.INTER.ROT>
5

>  <SCORE.INTER.SOLV>
10.8454

>  <SCORE.INTER.VDW>
-28.6107

>  <SCORE.INTER.norm>
-1.17797

>  <SCORE.INTRA>
-3.01968

>  <SCORE.INTRA.DIHEDRAL>
-3.39172

>  <SCORE.INTRA.DIHEDRAL.0>
8.06479

>  <SCORE.INTRA.POLAR>
0

>  <SCORE.INTRA.POLAR.0>
0

>  <SCORE.INTRA.REPUL>
0

>  <SCORE.INTRA.REPUL.0>
0

>  <SCORE.INTRA.SOLV>
1.58005

>  <SCORE.INTRA.SOLV.lig_0>
-29.8054

>  <SCORE.INTRA.VDW>
-2.11384

>  <SCORE.INTRA.VDW.0>
2.61447

>  <SCORE.INTRA.norm>
-0.13129

>  <SCORE.RESTR>
0.166129

>  <SCORE.RESTR.CAVITY>
0.166129

>  <SCORE.RESTR.norm>
0.00722298

>  <SCORE.SYSTEM>
0

>  <SCORE.SYSTEM.CONST>
0

>  <SCORE.SYSTEM.DIHEDRAL>
0

>  <SCORE.SYSTEM.SOLV>
0

>  <SCORE.SYSTEM.norm>
0

>  <SCORE.heavy>
23

>  <SCORE.norm>
-1.30204

>  <RMSD>
3.888

$$$$

 OpenBabel11021811403D
libRbt.so/2013.1/901 2013/11/27
 23 25  0  0  0  0  0  0  0  0999 V2000
  -23.3544    8.4566    6.6669 S   0  0  0  0  0  0  0  0  0  0  0  0
  -25.4384    7.6079    8.6178 N   0  0  0  0  0  0  0  0  0  0  0  0
  -23.9374    6.7172   10.2814 C   0  0  0  0  0  0  0  0  0  0  0  0
  -22.6240    6.4568   10.6942 C   0  0  0  0  0  0  0  0  0  0  0  0
  -21.5508    6.8121    9.8827 C   0  0  0  0  0  0  0  0  0  0  0  0
  -21.7821    7.4238    8.6554 C   0  0  0  0  0  0  0  0  0  0  0  0
  -23.0833    7.6852    8.2338 C   0  0  0  0  0  0  0  0  0  0  0  0
  -24.1697    7.3341    9.0440 C   0  0  0  0  0  0  0  0  0  0  0  0
  -24.7465    7.4231    6.3369 C   0  0  0  0  0  0  0  0  0  0  0  0
  -24.9552    6.9181    5.0502 C   0  0  0  0  0  0  0  0  0  0  0  0
  -26.0617    6.1041    4.7919 C   0  0  0  0  0  0  0  0  0  0  0  0
  -26.9588    5.8009    5.8213 C   0  0  0  0  0  0  0  0  0  0  0  0
  -26.7450    6.3089    7.1031 C   0  0  0  0  0  0  0  0  0  0  0  0
  -25.6449    7.1141    7.3645 C   0  0  0  0  0  0  0  0  0  0  0  0
  -26.5634    7.6251    9.5853 C   0  0  0  0  0  0  0  0  0  0  0  0
  -26.3881    8.5046   10.8681 C   0  0  0  0  0  0  0  0  0  0  0  0
  -27.4863    8.2478   11.9559 C   0  0  0  0  0  0  0  0  0  0  0  0
  -27.2545    7.1442   12.9225 N   0  3  0  0  0  0  0  0  0  0  0  0
  -27.1754    5.8285   12.2370 C   0  0  0  0  0  0  0  0  0  0  0  0
  -28.3092    7.1491   13.9946 C   0  0  0  0  0  0  0  0  0  0  0  0
  -22.3629    5.7883   12.0138 C   0  0  0  0  0  0  0  0  0  0  0  0
  -23.4748    5.1852   12.8376 C   0  0  0  0  0  0  0  0  0  0  0  0
  -21.2140    5.6728   12.4097 O   0  0  0  0  0  0  0  0  0  0  0  0
  1  7  1  0  0  0  0
  1  9  1  0  0  0  0
  2  8  1  0  0  0  0
  2 14  1  0  0  0  0
  2 15  1  0  0  0  0
  3  4  2  0  0  0  0
  3  8  1  0  0  0  0
  4  5  1  0  0  0  0
  4 21  1  0  0  0  0
  5  6  2  0  0  0  0
  6  7  1  0  0  0  0
  7  8  2  0  0  0  0
  9 10  2  0  0  0  0
  9 14  1  0  0  0  0
 10 11  1  0  0  0  0
 11 12  2  0  0  0  0
 12 13  1  0  0  0  0
 13 14  2  0  0  0  0
 15 16  1  0  0  0  0
 16 17  1  0  0  0  0
 17 18  1  0  0  0  0
 18 19  1  0  0  0  0
 18 20  1  0  0  0  0
 21 22  1  0  0  0  0
 21 23  2  0  0  0  0
M  CHG  1  18   1
M  END
>  <CHROM.1>
51.72336387,9.60420449,-168.66894111,86.36529900,57.60620712,-24.79817682
7.00210637,9.42378004,-1.44197978,-0.08134503,1.66858594

>  <Name>


>  <RI>
0

>  <Rbt.Current_Directory>
/home/itssahil/PROJECTS/Mol_Feturizer/New_Systems/rnas/1lvj

>  <Rbt.Executable>
rbdock ($Id: //depot/dev/client3/rdock/2013.1/src/exe/rbdock.cxx#4 $)

>  <Rbt.Library>
libRbt.so (2013.1, Build901 2013/11/27)

>  <Rbt.Parameter_File>
/export/apps/rDock/src/rDock_2013.1_src/data/scripts/dock_solv.prm

>  <Rbt.Receptor>
prm/pocket_docking_5.prm

>  <SCORE>
-34.8256

>  <SCORE.INTER>
-31.1222

>  <SCORE.INTER.CONST>
1

>  <SCORE.INTER.POLAR>
0

>  <SCORE.INTER.ROT>
5

>  <SCORE.INTER.SOLV>
10.0664

>  <SCORE.INTER.VDW>
-31.037

>  <SCORE.INTER.norm>
-1.35314

>  <SCORE.INTRA>
-3.70336

>  <SCORE.INTRA.DIHEDRAL>
-4.82173

>  <SCORE.INTRA.DIHEDRAL.0>
8.06479

>  <SCORE.INTRA.POLAR>
0

>  <SCORE.INTRA.POLAR.0>
0

>  <SCORE.INTRA.REPUL>
0

>  <SCORE.INTRA.REPUL.0>
0

>  <SCORE.INTRA.SOLV>
1.76215

>  <SCORE.INTRA.SOLV.lig_0>
-29.8054

>  <SCORE.INTRA.VDW>
-2.17357

>  <SCORE.INTRA.VDW.0>
2.61447

>  <SCORE.INTRA.norm>
-0.161016

>  <SCORE.RESTR>
0

>  <SCORE.RESTR.CAVITY>
0

>  <SCORE.RESTR.norm>
0

>  <SCORE.SYSTEM>
0

>  <SCORE.SYSTEM.CONST>
0

>  <SCORE.SYSTEM.DIHEDRAL>
0

>  <SCORE.SYSTEM.SOLV>
0

>  <SCORE.SYSTEM.norm>
0

>  <SCORE.heavy>
23

>  <SCORE.norm>
-1.51416

>  <RMSD>
3.888

$$$$

 OpenBabel11021811403D
libRbt.so/2013.1/901 2013/11/27
 23 25  0  0  0  0  0  0  0  0999 V2000
  -23.5694    8.5384    6.2041 S   0  0  0  0  0  0  0  0  0  0  0  0
  -25.4250    7.6006    8.3363 N   0  0  0  0  0  0  0  0  0  0  0  0
  -23.7359    6.9302    9.9210 C   0  0  0  0  0  0  0  0  0  0  0  0
  -22.3786    6.8093   10.2469 C   0  0  0  0  0  0  0  0  0  0  0  0
  -21.4020    7.2203    9.3447 C   0  0  0  0  0  0  0  0  0  0  0  0
  -21.7737    7.7486    8.1133 C   0  0  0  0  0  0  0  0  0  0  0  0
  -23.1196    7.8711    7.7777 C   0  0  0  0  0  0  0  0  0  0  0  0
  -24.1099    7.4631    8.6794 C   0  0  0  0  0  0  0  0  0  0  0  0
  -24.8785    7.3690    6.0205 C   0  0  0  0  0  0  0  0  0  0  0  0
  -25.1278    6.7857    4.7748 C   0  0  0  0  0  0  0  0  0  0  0  0
  -26.1687    5.8638    4.6326 C   0  0  0  0  0  0  0  0  0  0  0  0
  -26.9602    5.5312    5.7368 C   0  0  0  0  0  0  0  0  0  0  0  0
  -26.7065    6.1177    6.9772 C   0  0  0  0  0  0  0  0  0  0  0  0
  -25.6709    7.0303    7.1233 C   0  0  0  0  0  0  0  0  0  0  0  0
  -26.4771    7.5633    9.3822 C   0  0  0  0  0  0  0  0  0  0  0  0
  -26.5526    6.2784   10.2729 C   0  0  0  0  0  0  0  0  0  0  0  0
  -26.2004    6.5402   11.7771 C   0  0  0  0  0  0  0  0  0  0  0  0
  -27.2394    7.1741   12.6283 N   0  3  0  0  0  0  0  0  0  0  0  0
  -27.4414    8.6012   12.2677 C   0  0  0  0  0  0  0  0  0  0  0  0
  -26.9019    7.0120   14.0849 C   0  0  0  0  0  0  0  0  0  0  0  0
  -21.9655    6.2316   11.5706 C   0  0  0  0  0  0  0  0  0  0  0  0
  -22.9716    5.6707   12.5462 C   0  0  0  0  0  0  0  0  0  0  0  0
  -20.7789    6.1556   11.8468 O   0  0  0  0  0  0  0  0  0  0  0  0
  1  7  1  0  0  0  0
  1  9  1  0  0  0  0
  2  8  1  0  0  0  0
  2 14  1  0  0  0  0
  2 15  1  0  0  0  0
  3  4  2  0  0  0  0
  3  8  1  0  0  0  0
  4  5  1  0  0  0  0
  4 21  1  0  0  0  0
  5  6  2  0  0  0  0
  6  7  1  0  0  0  0
  7  8  2  0  0  0  0
  9 10  2  0  0  0  0
  9 14  1  0  0  0  0
 10 11  1  0  0  0  0
 11 12  2  0  0  0  0
 12 13  1  0  0  0  0
 13 14  2  0  0  0  0
 15 16  1  0  0  0  0
 16 17  1  0  0  0  0
 17 18  1  0  0  0  0
 18 19  1  0  0  0  0
 18 20  1  0  0  0  0
 21 22  1  0  0  0  0
 21 23  2  0  0  0  0
M  CHG  1  18   1
M  END
>  <CHROM.1>
-57.92855059,4.61954437,113.95155287,77.53074440,49.31227625,-24.65157273
7.04508054,9.10774342,-1.56971689,0.01678062,1.61536048

>  <Name>


>  <RI>
0

>  <Rbt.Current_Directory>
/home/itssahil/PROJECTS/Mol_Feturizer/New_Systems/rnas/1lvj

>  <Rbt.Executable>
rbdock ($Id: //depot/dev/client3/rdock/2013.1/src/exe/rbdock.cxx#4 $)

>  <Rbt.Library>
libRbt.so (2013.1, Build901 2013/11/27)

>  <Rbt.Parameter_File>
/export/apps/rDock/src/rDock_2013.1_src/data/scripts/dock_solv.prm

>  <Rbt.Receptor>
prm/pocket_docking_4.prm

>  <SCORE>
-27.2229

>  <SCORE.INTER>
-26.184

>  <SCORE.INTER.CONST>
1

>  <SCORE.INTER.POLAR>
0

>  <SCORE.INTER.ROT>
5

>  <SCORE.INTER.SOLV>
13.2195

>  <SCORE.INTER.VDW>
-28.7958

>  <SCORE.INTER.norm>
-1.13843

>  <SCORE.INTRA>
-1.04015

>  <SCORE.INTRA.DIHEDRAL>
-0.735768

>  <SCORE.INTRA.DIHEDRAL.0>
8.06479

>  <SCORE.INTRA.POLAR>
0

>  <SCORE.INTRA.POLAR.0>
0

>  <SCORE.INTRA.REPUL>
0

>  <SCORE.INTRA.REPUL.0>
0

>  <SCORE.INTRA.SOLV>
1.1626

>  <SCORE.INTRA.SOLV.lig_0>
-29.8054

>  <SCORE.INTRA.VDW>
-1.25356

>  <SCORE.INTRA.VDW.0>
2.61447

>  <SCORE.INTRA.norm>
-0.0452237

>  <SCORE.RESTR>
0.00123998

>  <SCORE.RESTR.CAVITY>
0.00123998

>  <SCORE.RESTR.norm>
5.39123e-05

>  <SCORE.SYSTEM>
0

>  <SCORE.SYSTEM.CONST>
0

>  <SCORE.SYSTEM.DIHEDRAL>
0

>  <SCORE.SYSTEM.SOLV>
0

>  <SCORE.SYSTEM.norm>
0

>  <SCORE.heavy>
23

>  <SCORE.norm>
-1.1836

>  <RMSD>
3.890

$$$$

 OpenBabel11021811403D
libRbt.so/2013.1/901 2013/11/27
 23 25  0  0  0  0  0  0  0  0999 V2000
  -23.3529    8.4556    6.6685 S   0  0  0  0  0  0  0  0  0  0  0  0
  -25.4321    7.6111    8.6263 N   0  0  0  0  0  0  0  0  0  0  0  0
  -23.9268    6.7273   10.2898 C   0  0  0  0  0  0  0  0  0  0  0  0
  -22.6124    6.4695   10.7008 C   0  0  0  0  0  0  0  0  0  0  0  0
  -21.5412    6.8232    9.8860 C   0  0  0  0  0  0  0  0  0  0  0  0
  -21.7755    7.4307    8.6572 C   0  0  0  0  0  0  0  0  0  0  0  0
  -23.0778    7.6894    8.2374 C   0  0  0  0  0  0  0  0  0  0  0  0
  -24.1623    7.3399    9.0509 C   0  0  0  0  0  0  0  0  0  0  0  0
  -24.7446    7.4197    6.3447 C   0  0  0  0  0  0  0  0  0  0  0  0
  -24.9554    6.9103    5.0600 C   0  0  0  0  0  0  0  0  0  0  0  0
  -26.0617    6.0943    4.8066 C   0  0  0  0  0  0  0  0  0  0  0  0
  -26.9564    5.7937    5.8388 C   0  0  0  0  0  0  0  0  0  0  0  0
  -26.7405    6.3060    7.1186 C   0  0  0  0  0  0  0  0  0  0  0  0
  -25.6407    7.1131    7.3751 C   0  0  0  0  0  0  0  0  0  0  0  0
  -26.5552    7.6304    9.5961 C   0  0  0  0  0  0  0  0  0  0  0  0
  -26.3999    8.5548   10.8496 C   0  0  0  0  0  0  0  0  0  0  0  0
  -27.4934    8.3100   11.9449 C   0  0  0  0  0  0  0  0  0  0  0  0
  -27.2483    7.2302   12.9347 N   0  3  0  0  0  0  0  0  0  0  0  0
  -26.0116    7.4816   13.7188 C   0  0  0  0  0  0  0  0  0  0  0  0
  -27.2123    5.8883   12.2564 C   0  0  0  0  0  0  0  0  0  0  0  0
  -22.3479    5.8055   12.0220 C   0  0  0  0  0  0  0  0  0  0  0  0
  -23.4508    5.1631   12.8281 C   0  0  0  0  0  0  0  0  0  0  0  0
  -21.2015    5.7268   12.4339 O   0  0  0  0  0  0  0  0  0  0  0  0
  1  7  1  0  0  0  0
  1  9  1  0  0  0  0
  2  8  1  0  0  0  0
  2 14  1  0  0  0  0
  2 15  1  0  0  0  0
  3  4  2  0  0  0  0
  3  8  1  0  0  0  0
  4  5  1  0  0  0  0
  4 21  1  0  0  0  0
  5  6  2  0  0  0  0
  6  7  1  0  0  0  0
  7  8  2  0  0  0  0
  9 10  2  0  0  0  0
  9 14  1  0  0  0  0
 10 11  1  0  0  0  0
 11 12  2  0  0  0  0
 12 13  1  0  0  0  0
 13 14  2  0  0  0  0
 15 16  1  0  0  0  0
 16 17  1  0  0  0  0
 17 18  1  0  0  0  0
 18 19  1  0  0  0  0
 18 20  1  0  0  0  0
 21 22  1  0  0  0  0
 21 23  2  0  0  0  0
M  CHG  1  18   1
M  END
>  <CHROM.1>
53.89825906,11.70323403,-168.97950134,85.46988304,-179.72805963,-24.69447430
7.03143272,9.41791738,-1.59511744,-0.08640157,1.64889236

>  <Name>


>  <RI>
0

>  <Rbt.Current_Directory>
/home/itssahil/PROJECTS/Mol_Feturizer/New_Systems/rnas/1lvj

>  <Rbt.Executable>
rbdock ($Id: //depot/dev/client3/rdock/2013.1/src/exe/rbdock.cxx#4 $)

>  <Rbt.Library>
libRbt.so (2013.1, Build901 2013/11/27)

>  <Rbt.Parameter_File>
/export/apps/rDock/src/rDock_2013.1_src/data/scripts/dock_solv.prm

>  <Rbt.Receptor>
prm/pocket_docking_4.prm

>  <SCORE>
-34.9019

>  <SCORE.INTER>
-30.7004

>  <SCORE.INTER.CONST>
1

>  <SCORE.INTER.POLAR>
0

>  <SCORE.INTER.ROT>
5

>  <SCORE.INTER.SOLV>
10.1076

>  <SCORE.INTER.VDW>
-30.7695

>  <SCORE.INTER.norm>
-1.3348

>  <SCORE.INTRA>
-4.20145

>  <SCORE.INTRA.DIHEDRAL>
-4.83699

>  <SCORE.INTRA.DIHEDRAL.0>
8.06479

>  <SCORE.INTRA.POLAR>
0

>  <SCORE.INTRA.POLAR.0>
0

>  <SCORE.INTRA.REPUL>
0

>  <SCORE.INTRA.REPUL.0>
0

>  <SCORE.INTRA.SOLV>
-0.478359

>  <SCORE.INTRA.SOLV.lig_0>
-29.8054

>  <SCORE.INTRA.VDW>
-1.54377

>  <SCORE.INTRA.VDW.0>
2.61447

>  <SCORE.INTRA.norm>
-0.182672

>  <SCORE.RESTR>
0

>  <SCORE.RESTR.CAVITY>
0

>  <SCORE.RESTR.norm>
0

>  <SCORE.SYSTEM>
0

>  <SCORE.SYSTEM.CONST>
0

>  <SCORE.SYSTEM.DIHEDRAL>
0

>  <SCORE.SYSTEM.SOLV>
0

>  <SCORE.SYSTEM.norm>
0

>  <SCORE.heavy>
23

>  <SCORE.norm>
-1.51747

>  <RMSD>
3.898

$$$$

 OpenBabel11021811403D
libRbt.so/2013.1/901 2013/11/27
 23 25  0  0  0  0  0  0  0  0999 V2000
  -23.3897    8.4940    6.1786 S   0  0  0  0  0  0  0  0  0  0  0  0
  -25.3025    7.9668    8.3995 N   0  0  0  0  0  0  0  0  0  0  0  0
  -23.6697    7.2830   10.0367 C   0  0  0  0  0  0  0  0  0  0  0  0
  -22.3277    7.0546   10.3682 C   0  0  0  0  0  0  0  0  0  0  0  0
  -21.3265    7.2719    9.4264 C   0  0  0  0  0  0  0  0  0  0  0  0
  -21.6587    7.7129    8.1501 C   0  0  0  0  0  0  0  0  0  0  0  0
  -22.9894    7.9408    7.8088 C   0  0  0  0  0  0  0  0  0  0  0  0
  -24.0039    7.7279    8.7499 C   0  0  0  0  0  0  0  0  0  0  0  0
  -24.8145    7.4543    6.1160 C   0  0  0  0  0  0  0  0  0  0  0  0
  -25.1395    6.7809    4.9348 C   0  0  0  0  0  0  0  0  0  0  0  0
  -26.2716    5.9624    4.8880 C   0  0  0  0  0  0  0  0  0  0  0  0
  -27.0778    5.8233    6.0224 C   0  0  0  0  0  0  0  0  0  0  0  0
  -26.7482    6.4988    7.1979 C   0  0  0  0  0  0  0  0  0  0  0  0
  -25.6223    7.3091    7.2496 C   0  0  0  0  0  0  0  0  0  0  0  0
  -26.3384    8.1411    9.4477 C   0  0  0  0  0  0  0  0  0  0  0  0
  -26.5235    6.9704   10.4699 C   0  0  0  0  0  0  0  0  0  0  0  0
  -27.0494    7.4407   11.8690 C   0  0  0  0  0  0  0  0  0  0  0  0
  -27.2142    6.4100   12.9257 N   0  3  0  0  0  0  0  0  0  0  0  0
  -28.5562    5.7755   12.8618 C   0  0  0  0  0  0  0  0  0  0  0  0
  -26.9412    6.9957   14.2838 C   0  0  0  0  0  0  0  0  0  0  0  0
  -21.9581    6.5695   11.7409 C   0  0  0  0  0  0  0  0  0  0  0  0
  -23.0021    6.2532   12.7843 C   0  0  0  0  0  0  0  0  0  0  0  0
  -20.7846    6.3657   12.0083 O   0  0  0  0  0  0  0  0  0  0  0  0
  1  7  1  0  0  0  0
  1  9  1  0  0  0  0
  2  8  1  0  0  0  0
  2 14  1  0  0  0  0
  2 15  1  0  0  0  0
  3  4  2  0  0  0  0
  3  8  1  0  0  0  0
  4  5  1  0  0  0  0
  4 21  1  0  0  0  0
  5  6  2  0  0  0  0
  6  7  1  0  0  0  0
  7  8  2  0  0  0  0
  9 10  2  0  0  0  0
  9 14  1  0  0  0  0
 10 11  1  0  0  0  0
 11 12  2  0  0  0  0
 12 13  1  0  0  0  0
 13 14  2  0  0  0  0
 15 16  1  0  0  0  0
 16 17  1  0  0  0  0
 17 18  1  0  0  0  0
 18 19  1  0  0  0  0
 18 20  1  0  0  0  0
 21 22  1  0  0  0  0
 21 23  2  0  0  0  0
M  CHG  1  18   1
M  END
>  <CHROM.1>
-57.33231579,2.76593320,151.67602589,-177.94292097,32.28900982,-24.69232796
7.11230671,9.26052480,-1.40669255,0.11504909,1.66580446

>  <Name>


>  <RI>
0

>  <Rbt.Current_Directory>
/home/itssahil/PROJECTS/Mol_Feturizer/New_Systems/rnas/1lvj

>  <Rbt.Executable>
rbdock ($Id: //depot/dev/client3/rdock/2013.1/src/exe/rbdock.cxx#4 $)

>  <Rbt.Library>
libRbt.so (2013.1, Build901 2013/11/27)

>  <Rbt.Parameter_File>
/export/apps/rDock/src/rDock_2013.1_src/data/scripts/dock_solv.prm

>  <Rbt.Receptor>
prm/pocket_docking_4.prm

>  <SCORE>
-30.1423

>  <SCORE.INTER>
-27.2849

>  <SCORE.INTER.CONST>
1

>  <SCORE.INTER.POLAR>
0

>  <SCORE.INTER.ROT>
5

>  <SCORE.INTER.SOLV>
10.7974

>  <SCORE.INTER.VDW>
-28.7224

>  <SCORE.INTER.norm>
-1.1863

>  <SCORE.INTRA>
-3.04116

>  <SCORE.INTRA.DIHEDRAL>
-3.31239

>  <SCORE.INTRA.DIHEDRAL.0>
8.06479

>  <SCORE.INTRA.POLAR>
0

>  <SCORE.INTRA.POLAR.0>
0

>  <SCORE.INTRA.REPUL>
0

>  <SCORE.INTRA.REPUL.0>
0

>  <SCORE.INTRA.SOLV>
1.48219

>  <SCORE.INTRA.SOLV.lig_0>
-29.8054

>  <SCORE.INTRA.VDW>
-2.12606

>  <SCORE.INTRA.VDW.0>
2.61447

>  <SCORE.INTRA.norm>
-0.132224

>  <SCORE.RESTR>
0.183772

>  <SCORE.RESTR.CAVITY>
0.183772

>  <SCORE.RESTR.norm>
0.00799008

>  <SCORE.SYSTEM>
0

>  <SCORE.SYSTEM.CONST>
0

>  <SCORE.SYSTEM.DIHEDRAL>
0

>  <SCORE.SYSTEM.SOLV>
0

>  <SCORE.SYSTEM.norm>
0

>  <SCORE.heavy>
23

>  <SCORE.norm>
-1.31054

>  <RMSD>
3.904

$$$$

 OpenBabel11021811403D
libRbt.so/2013.1/901 2013/11/27
 23 25  0  0  0  0  0  0  0  0999 V2000
  -23.3971    8.5129    6.1835 S   0  0  0  0  0  0  0  0  0  0  0  0
  -25.2955    7.9778    8.4148 N   0  0  0  0  0  0  0  0  0  0  0  0
  -23.6509    7.3002   10.0429 C   0  0  0  0  0  0  0  0  0  0  0  0
  -22.3062    7.0770   10.3668 C   0  0  0  0  0  0  0  0  0  0  0  0
  -21.3111    7.2984    9.4196 C   0  0  0  0  0  0  0  0  0  0  0  0
  -21.6521    7.7384    8.1452 C   0  0  0  0  0  0  0  0  0  0  0  0
  -22.9856    7.9611    7.8114 C   0  0  0  0  0  0  0  0  0  0  0  0
  -23.9940    7.7440    8.7579 C   0  0  0  0  0  0  0  0  0  0  0  0
  -24.8181    7.4676    6.1286 C   0  0  0  0  0  0  0  0  0  0  0  0
  -25.1469    6.7932    4.9491 C   0  0  0  0  0  0  0  0  0  0  0  0
  -26.2760    5.9702    4.9083 C   0  0  0  0  0  0  0  0  0  0  0  0
  -27.0754    5.8277    6.0471 C   0  0  0  0  0  0  0  0  0  0  0  0
  -26.7419    6.5043    7.2210 C   0  0  0  0  0  0  0  0  0  0  0  0
  -25.6190    7.3190    7.2666 C   0  0  0  0  0  0  0  0  0  0  0  0
  -26.3262    8.1479    9.4687 C   0  0  0  0  0  0  0  0  0  0  0  0
  -26.5064    6.9729   10.4870 C   0  0  0  0  0  0  0  0  0  0  0  0
  -27.1173    7.4232   11.8579 C   0  0  0  0  0  0  0  0  0  0  0  0
  -27.2528    6.3968   12.9228 N   0  3  0  0  0  0  0  0  0  0  0  0
  -28.5806    5.7322   12.8717 C   0  0  0  0  0  0  0  0  0  0  0  0
  -26.9846    6.9981   14.2750 C   0  0  0  0  0  0  0  0  0  0  0  0
  -21.9271    6.5931   11.7374 C   0  0  0  0  0  0  0  0  0  0  0  0
  -22.9647    6.2018   12.7616 C   0  0  0  0  0  0  0  0  0  0  0  0
  -20.7474    6.4529   12.0180 O   0  0  0  0  0  0  0  0  0  0  0  0
  1  7  1  0  0  0  0
  1  9  1  0  0  0  0
  2  8  1  0  0  0  0
  2 14  1  0  0  0  0
  2 15  1  0  0  0  0
  3  4  2  0  0  0  0
  3  8  1  0  0  0  0
  4  5  1  0  0  0  0
  4 21  1  0  0  0  0
  5  6  2  0  0  0  0
  6  7  1  0  0  0  0
  7  8  2  0  0  0  0
  9 10  2  0  0  0  0
  9 14  1  0  0  0  0
 10 11  1  0  0  0  0
 11 12  2  0  0  0  0
 12 13  1  0  0  0  0
 13 14  2  0  0  0  0
 15 16  1  0  0  0  0
 16 17  1  0  0  0  0
 17 18  1  0  0  0  0
 18 19  1  0  0  0  0
 18 20  1  0  0  0  0
 21 22  1  0  0  0  0
 21 23  2  0  0  0  0
M  CHG  1  18   1
M  END
>  <CHROM.1>
-57.65521372,6.11911427,155.60605367,-176.40633258,28.58595851,-24.69179551
7.12154429,9.26651496,-1.39320734,0.12053903,1.66833237

>  <Name>


>  <RI>
0

>  <Rbt.Current_Directory>
/home/itssahil/PROJECTS/Mol_Feturizer/New_Systems/rnas/1lvj

>  <Rbt.Executable>
rbdock ($Id: //depot/dev/client3/rdock/2013.1/src/exe/rbdock.cxx#4 $)

>  <Rbt.Library>
libRbt.so (2013.1, Build901 2013/11/27)

>  <Rbt.Parameter_File>
/export/apps/rDock/src/rDock_2013.1_src/data/scripts/dock_solv.prm

>  <Rbt.Receptor>
prm/pocket_docking_4.prm

>  <SCORE>
-30.0761

>  <SCORE.INTER>
-27.1105

>  <SCORE.INTER.CONST>
1

>  <SCORE.INTER.POLAR>
0

>  <SCORE.INTER.ROT>
5

>  <SCORE.INTER.SOLV>
10.8293

>  <SCORE.INTER.VDW>
-28.6168

>  <SCORE.INTER.norm>
-1.17872

>  <SCORE.INTRA>
-3.14061

>  <SCORE.INTRA.DIHEDRAL>
-3.4277

>  <SCORE.INTRA.DIHEDRAL.0>
8.06479

>  <SCORE.INTRA.POLAR>
0

>  <SCORE.INTRA.POLAR.0>
0

>  <SCORE.INTRA.REPUL>
0

>  <SCORE.INTRA.REPUL.0>
0

>  <SCORE.INTRA.SOLV>
1.45631

>  <SCORE.INTRA.SOLV.lig_0>
-29.8054

>  <SCORE.INTRA.VDW>
-2.15491

>  <SCORE.INTRA.VDW.0>
2.61447

>  <SCORE.INTRA.norm>
-0.136548

>  <SCORE.RESTR>
0.174987

>  <SCORE.RESTR.CAVITY>
0.174987

>  <SCORE.RESTR.norm>
0.00760812

>  <SCORE.SYSTEM>
0

>  <SCORE.SYSTEM.CONST>
0

>  <SCORE.SYSTEM.DIHEDRAL>
0

>  <SCORE.SYSTEM.SOLV>
0

>  <SCORE.SYSTEM.norm>
0

>  <SCORE.heavy>
23

>  <SCORE.norm>
-1.30766

>  <RMSD>
3.908

$$$$

 OpenBabel11021811403D
libRbt.so/2013.1/901 2013/11/27
 23 25  0  0  0  0  0  0  0  0999 V2000
  -23.6150    8.5353    6.1537 S   0  0  0  0  0  0  0  0  0  0  0  0
  -25.4199    7.6593    8.3547 N   0  0  0  0  0  0  0  0  0  0  0  0
  -23.6940    7.0084    9.9077 C   0  0  0  0  0  0  0  0  0  0  0  0
  -22.3294    6.8830   10.1996 C   0  0  0  0  0  0  0  0  0  0  0  0
  -21.3743    7.2662    9.2629 C   0  0  0  0  0  0  0  0  0  0  0  0
  -21.7748    7.7712    8.0307 C   0  0  0  0  0  0  0  0  0  0  0  0
  -23.1283    7.8979    7.7288 C   0  0  0  0  0  0  0  0  0  0  0  0
  -24.0971    7.5179    8.6653 C   0  0  0  0  0  0  0  0  0  0  0  0
  -24.9378    7.3735    6.0306 C   0  0  0  0  0  0  0  0  0  0  0  0
  -25.2252    6.7658    4.8049 C   0  0  0  0  0  0  0  0  0  0  0  0
  -26.2770    5.8500    4.7106 C   0  0  0  0  0  0  0  0  0  0  0  0
  -27.0410    5.5479    5.8425 C   0  0  0  0  0  0  0  0  0  0  0  0
  -26.7493    6.1586    7.0627 C   0  0  0  0  0  0  0  0  0  0  0  0
  -25.7029    7.0652    7.1613 C   0  0  0  0  0  0  0  0  0  0  0  0
  -26.4436    7.6533    9.4289 C   0  0  0  0  0  0  0  0  0  0  0  0
  -26.5137    6.3831   10.3409 C   0  0  0  0  0  0  0  0  0  0  0  0
  -26.8647    6.7052   11.8337 C   0  0  0  0  0  0  0  0  0  0  0  0
  -26.9795    5.5635   12.7767 N   0  3  0  0  0  0  0  0  0  0  0  0
  -27.4928    6.0012   14.1005 C   0  0  0  0  0  0  0  0  0  0  0  0
  -25.6640    4.8453   12.9013 C   0  0  0  0  0  0  0  0  0  0  0  0
  -21.8855    6.3302   11.5239 C   0  0  0  0  0  0  0  0  0  0  0  0
  -20.4260    6.1569   11.8684 C   0  0  0  0  0  0  0  0  0  0  0  0
  -22.7214    6.0673   12.3738 O   0  0  0  0  0  0  0  0  0  0  0  0
  1  7  1  0  0  0  0
  1  9  1  0  0  0  0
  2  8  1  0  0  0  0
  2 14  1  0  0  0  0
  2 15  1  0  0  0  0
  3  4  2  0  0  0  0
  3  8  1  0  0  0  0
  4  5  1  0  0  0  0
  4 21  1  0  0  0  0
  5  6  2  0  0  0  0
  6  7  1  0  0  0  0
  7  8  2  0  0  0  0
  9 10  2  0  0  0  0
  9 14  1  0  0  0  0
 10 11  1  0  0  0  0
 11 12  2  0  0  0  0
 12 13  1  0  0  0  0
 13 14  2  0  0  0  0
 15 16  1  0  0  0  0
 16 17  1  0  0  0  0
 17 18  1  0  0  0  0
 18 19  1  0  0  0  0
 18 20  1  0  0  0  0
 21 22  1  0  0  0  0
 21 23  2  0  0  0  0
M  CHG  1  18   1
M  END
>  <CHROM.1>
-58.45099823,178.93745023,144.15829919,178.92140648,-52.34202443,-24.60090610
6.80490910,9.14223204,-1.56433196,0.18998274,1.76065634

>  <Name>


>  <RI>
0

>  <Rbt.Current_Directory>
/home/itssahil/PROJECTS/Mol_Feturizer/New_Systems/rnas/1lvj

>  <Rbt.Executable>
rbdock ($Id: //depot/dev/client3/rdock/2013.1/src/exe/rbdock.cxx#4 $)

>  <Rbt.Library>
libRbt.so (2013.1, Build901 2013/11/27)

>  <Rbt.Parameter_File>
/export/apps/rDock/src/rDock_2013.1_src/data/scripts/dock_solv.prm

>  <Rbt.Receptor>
prm/pocket_docking_4.prm

>  <SCORE>
-28.9822

>  <SCORE.INTER>
-25.7966

>  <SCORE.INTER.CONST>
1

>  <SCORE.INTER.POLAR>
0

>  <SCORE.INTER.ROT>
5

>  <SCORE.INTER.SOLV>
11.3191

>  <SCORE.INTER.VDW>
-27.9041

>  <SCORE.INTER.norm>
-1.12159

>  <SCORE.INTRA>
-3.18719

>  <SCORE.INTRA.DIHEDRAL>
-3.90037

>  <SCORE.INTRA.DIHEDRAL.0>
8.06479

>  <SCORE.INTRA.POLAR>
0

>  <SCORE.INTRA.POLAR.0>
0

>  <SCORE.INTRA.REPUL>
0

>  <SCORE.INTRA.REPUL.0>
0

>  <SCORE.INTRA.SOLV>
0.644874

>  <SCORE.INTRA.SOLV.lig_0>
-29.8054

>  <SCORE.INTRA.VDW>
-1.55944

>  <SCORE.INTRA.VDW.0>
2.61447

>  <SCORE.INTRA.norm>
-0.138573

>  <SCORE.RESTR>
0.00157661

>  <SCORE.RESTR.CAVITY>
0.00157661

>  <SCORE.RESTR.norm>
6.85482e-05

>  <SCORE.SYSTEM>
0

>  <SCORE.SYSTEM.CONST>
0

>  <SCORE.SYSTEM.DIHEDRAL>
0

>  <SCORE.SYSTEM.SOLV>
0

>  <SCORE.SYSTEM.norm>
0

>  <SCORE.heavy>
23

>  <SCORE.norm>
-1.2601

>  <RMSD>
3.921

$$$$

 OpenBabel11021811403D
libRbt.so/2013.1/901 2013/11/27
 23 25  0  0  0  0  0  0  0  0999 V2000
  -23.4629    8.5121    6.5156 S   0  0  0  0  0  0  0  0  0  0  0  0
  -25.4544    7.6088    8.5373 N   0  0  0  0  0  0  0  0  0  0  0  0
  -23.8717    6.8027   10.1681 C   0  0  0  0  0  0  0  0  0  0  0  0
  -22.5377    6.6010   10.5459 C   0  0  0  0  0  0  0  0  0  0  0  0
  -21.5033    6.9873    9.6989 C   0  0  0  0  0  0  0  0  0  0  0  0
  -21.7940    7.5716    8.4710 C   0  0  0  0  0  0  0  0  0  0  0  0
  -23.1162    7.7747    8.0840 C   0  0  0  0  0  0  0  0  0  0  0  0
  -24.1640    7.3921    8.9300 C   0  0  0  0  0  0  0  0  0  0  0  0
  -24.8210    7.4192    6.2399 C   0  0  0  0  0  0  0  0  0  0  0  0
  -25.0457    6.8879    4.9665 C   0  0  0  0  0  0  0  0  0  0  0  0
  -26.1254    6.0266    4.7513 C   0  0  0  0  0  0  0  0  0  0  0  0
  -26.9798    5.7027    5.8102 C   0  0  0  0  0  0  0  0  0  0  0  0
  -26.7502    6.2371    7.0785 C   0  0  0  0  0  0  0  0  0  0  0  0
  -25.6765    7.0892    7.2972 C   0  0  0  0  0  0  0  0  0  0  0  0
  -26.5511    7.5949    9.5368 C   0  0  0  0  0  0  0  0  0  0  0  0
  -26.3810    8.5094   10.7957 C   0  0  0  0  0  0  0  0  0  0  0  0
  -27.3689    8.1583   11.9602 C   0  0  0  0  0  0  0  0  0  0  0  0
  -26.9838    7.0605   12.8835 N   0  3  0  0  0  0  0  0  0  0  0  0
  -25.7148    7.3667   13.5931 C   0  0  0  0  0  0  0  0  0  0  0  0
  -26.9059    5.7517   12.1467 C   0  0  0  0  0  0  0  0  0  0  0  0
  -22.2123    5.9625   11.8661 C   0  0  0  0  0  0  0  0  0  0  0  0
  -20.7896    5.7014   12.2980 C   0  0  0  0  0  0  0  0  0  0  0  0
  -23.1163    5.6989   12.6429 O   0  0  0  0  0  0  0  0  0  0  0  0
  1  7  1  0  0  0  0
  1  9  1  0  0  0  0
  2  8  1  0  0  0  0
  2 14  1  0  0  0  0
  2 15  1  0  0  0  0
  3  4  2  0  0  0  0
  3  8  1  0  0  0  0
  4  5  1  0  0  0  0
  4 21  1  0  0  0  0
  5  6  2  0  0  0  0
  6  7  1  0  0  0  0
  7  8  2  0  0  0  0
  9 10  2  0  0  0  0
  9 14  1  0  0  0  0
 10 11  1  0  0  0  0
 11 12  2  0  0  0  0
 12 13  1  0  0  0  0
 13 14  2  0  0  0  0
 15 16  1  0  0  0  0
 16 17  1  0  0  0  0
 17 18  1  0  0  0  0
 18 19  1  0  0  0  0
 18 20  1  0  0  0  0
 21 22  1  0  0  0  0
 21 23  2  0  0  0  0
M  CHG  1  18   1
M  END
>  <CHROM.1>
52.29012292,178.71190709,-164.58814321,83.74085275,-179.02688310,-24.63363183
7.05060859,9.31132455,-1.66737300,-0.03943129,1.64238868

>  <Name>


>  <RI>
0

>  <Rbt.Current_Directory>
/home/itssahil/PROJECTS/Mol_Feturizer/New_Systems/rnas/1lvj

>  <Rbt.Executable>
rbdock ($Id: //depot/dev/client3/rdock/2013.1/src/exe/rbdock.cxx#4 $)

>  <Rbt.Library>
libRbt.so (2013.1, Build901 2013/11/27)

>  <Rbt.Parameter_File>
/export/apps/rDock/src/rDock_2013.1_src/data/scripts/dock_solv.prm

>  <Rbt.Receptor>
prm/pocket_docking_4.prm

>  <SCORE>
-34.7759

>  <SCORE.INTER>
-30.8186

>  <SCORE.INTER.CONST>
1

>  <SCORE.INTER.POLAR>
0

>  <SCORE.INTER.ROT>
5

>  <SCORE.INTER.SOLV>
10.2683

>  <SCORE.INTER.VDW>
-30.9019

>  <SCORE.INTER.norm>
-1.33994

>  <SCORE.INTRA>
-3.95728

>  <SCORE.INTRA.DIHEDRAL>
-5.05824

>  <SCORE.INTRA.DIHEDRAL.0>
8.06479

>  <SCORE.INTRA.POLAR>
0

>  <SCORE.INTRA.POLAR.0>
0

>  <SCORE.INTRA.REPUL>
0

>  <SCORE.INTRA.REPUL.0>
0

>  <SCORE.INTRA.SOLV>
-0.113864

>  <SCORE.INTRA.SOLV.lig_0>
-29.8054

>  <SCORE.INTRA.VDW>
-1.37123

>  <SCORE.INTRA.VDW.0>
2.61447

>  <SCORE.INTRA.norm>
-0.172056

>  <SCORE.RESTR>
0

>  <SCORE.RESTR.CAVITY>
0

>  <SCORE.RESTR.norm>
0

>  <SCORE.SYSTEM>
0

>  <SCORE.SYSTEM.CONST>
0

>  <SCORE.SYSTEM.DIHEDRAL>
0

>  <SCORE.SYSTEM.SOLV>
0

>  <SCORE.SYSTEM.norm>
0

>  <SCORE.heavy>
23

>  <SCORE.norm>
-1.512

>  <RMSD>
3.931

$$$$

 OpenBabel11021811403D
libRbt.so/2013.1/901 2013/11/27
 23 25  0  0  0  0  0  0  0  0999 V2000
  -23.3323    8.4731    6.6876 S   0  0  0  0  0  0  0  0  0  0  0  0
  -25.4123    7.6399    8.6494 N   0  0  0  0  0  0  0  0  0  0  0  0
  -23.9091    6.7423   10.3073 C   0  0  0  0  0  0  0  0  0  0  0  0
  -22.5954    6.4744   10.7144 C   0  0  0  0  0  0  0  0  0  0  0  0
  -21.5239    6.8221    9.8974 C   0  0  0  0  0  0  0  0  0  0  0  0
  -21.7571    7.4334    8.6703 C   0  0  0  0  0  0  0  0  0  0  0  0
  -23.0586    7.7022    8.2544 C   0  0  0  0  0  0  0  0  0  0  0  0
  -24.1434    7.3589    9.0702 C   0  0  0  0  0  0  0  0  0  0  0  0
  -24.7323    7.4477    6.3656 C   0  0  0  0  0  0  0  0  0  0  0  0
  -24.9500    6.9422    5.0806 C   0  0  0  0  0  0  0  0  0  0  0  0
  -26.0627    6.1346    4.8287 C   0  0  0  0  0  0  0  0  0  0  0  0
  -26.9569    5.8384    5.8626 C   0  0  0  0  0  0  0  0  0  0  0  0
  -26.7340    6.3469    7.1428 C   0  0  0  0  0  0  0  0  0  0  0  0
  -25.6277    7.1456    7.3979 C   0  0  0  0  0  0  0  0  0  0  0  0
  -26.5327    7.6655    9.6221 C   0  0  0  0  0  0  0  0  0  0  0  0
  -26.3497    8.5530   10.8983 C   0  0  0  0  0  0  0  0  0  0  0  0
  -27.4943    8.3729   11.9532 C   0  0  0  0  0  0  0  0  0  0  0  0
  -27.3285    7.3084   12.9756 N   0  3  0  0  0  0  0  0  0  0  0  0
  -27.2411    5.9632   12.3508 C   0  0  0  0  0  0  0  0  0  0  0  0
  -28.4324    7.3765   13.9948 C   0  0  0  0  0  0  0  0  0  0  0  0
  -22.3323    5.8063   12.0338 C   0  0  0  0  0  0  0  0  0  0  0  0
  -23.4422    5.1978   12.8564 C   0  0  0  0  0  0  0  0  0  0  0  0
  -21.1831    5.6954   12.4303 O   0  0  0  0  0  0  0  0  0  0  0  0
  1  7  1  0  0  0  0
  1  9  1  0  0  0  0
  2  8  1  0  0  0  0
  2 14  1  0  0  0  0
  2 15  1  0  0  0  0
  3  4  2  0  0  0  0
  3  8  1  0  0  0  0
  4  5  1  0  0  0  0
  4 21  1  0  0  0  0
  5  6  2  0  0  0  0
  6  7  1  0  0  0  0
  7  8  2  0  0  0  0
  9 10  2  0  0  0  0
  9 14  1  0  0  0  0
 10 11  1  0  0  0  0
 11 12  2  0  0  0  0
 12 13  1  0  0  0  0
 13 14  2  0  0  0  0
 15 16  1  0  0  0  0
 16 17  1  0  0  0  0
 17 18  1  0  0  0  0
 18 19  1  0  0  0  0
 18 20  1  0  0  0  0
 21 22  1  0  0  0  0
 21 23  2  0  0  0  0
M  CHG  1  18   1
M  END
>  <CHROM.1>
52.10911270,10.28696648,-172.40513271,88.80271069,58.35739699,-24.79234371
7.05195274,9.45312565,-1.41789212,-0.10258557,1.65863995

>  <Name>


>  <RI>
0

>  <Rbt.Current_Directory>
/home/itssahil/PROJECTS/Mol_Feturizer/New_Systems/rnas/1lvj

>  <Rbt.Executable>
rbdock ($Id: //depot/dev/client3/rdock/2013.1/src/exe/rbdock.cxx#4 $)

>  <Rbt.Library>
libRbt.so (2013.1, Build901 2013/11/27)

>  <Rbt.Parameter_File>
/export/apps/rDock/src/rDock_2013.1_src/data/scripts/dock_solv.prm

>  <Rbt.Receptor>
prm/pocket_docking_7.prm

>  <SCORE>
-35.0115

>  <SCORE.INTER>
-31.1603

>  <SCORE.INTER.CONST>
1

>  <SCORE.INTER.POLAR>
0

>  <SCORE.INTER.ROT>
5

>  <SCORE.INTER.SOLV>
10.0767

>  <SCORE.INTER.VDW>
-31.0658

>  <SCORE.INTER.norm>
-1.3548

>  <SCORE.INTRA>
-3.85113

>  <SCORE.INTRA.DIHEDRAL>
-4.69477

>  <SCORE.INTRA.DIHEDRAL.0>
8.06479

>  <SCORE.INTRA.POLAR>
0

>  <SCORE.INTRA.POLAR.0>
0

>  <SCORE.INTRA.REPUL>
0

>  <SCORE.INTRA.REPUL.0>
0

>  <SCORE.INTRA.SOLV>
1.32839

>  <SCORE.INTRA.SOLV.lig_0>
-29.8054

>  <SCORE.INTRA.VDW>
-2.16794

>  <SCORE.INTRA.VDW.0>
2.61447

>  <SCORE.INTRA.norm>
-0.16744

>  <SCORE.RESTR>
0

>  <SCORE.RESTR.CAVITY>
0

>  <SCORE.RESTR.norm>
0

>  <SCORE.SYSTEM>
0

>  <SCORE.SYSTEM.CONST>
0

>  <SCORE.SYSTEM.DIHEDRAL>
0

>  <SCORE.SYSTEM.SOLV>
0

>  <SCORE.SYSTEM.norm>
0

>  <SCORE.heavy>
23

>  <SCORE.norm>
-1.52224

>  <RMSD>
3.931

$$$$

 OpenBabel11021811403D
libRbt.so/2013.1/901 2013/11/27
 23 25  0  0  0  0  0  0  0  0999 V2000
  -23.4611    8.4851    6.5287 S   0  0  0  0  0  0  0  0  0  0  0  0
  -25.4608    7.6065    8.5531 N   0  0  0  0  0  0  0  0  0  0  0  0
  -23.8860    6.7821   10.1823 C   0  0  0  0  0  0  0  0  0  0  0  0
  -22.5540    6.5645   10.5586 C   0  0  0  0  0  0  0  0  0  0  0  0
  -21.5161    6.9381    9.7102 C   0  0  0  0  0  0  0  0  0  0  0  0
  -21.8012    7.5253    8.4823 C   0  0  0  0  0  0  0  0  0  0  0  0
  -23.1214    7.7441    8.0969 C   0  0  0  0  0  0  0  0  0  0  0  0
  -24.1727    7.3745    8.9444 C   0  0  0  0  0  0  0  0  0  0  0  0
  -24.8326    7.4085    6.2551 C   0  0  0  0  0  0  0  0  0  0  0  0
  -25.0653    6.8794    4.9822 C   0  0  0  0  0  0  0  0  0  0  0  0
  -26.1555    6.0311    4.7686 C   0  0  0  0  0  0  0  0  0  0  0  0
  -27.0124    5.7179    5.8287 C   0  0  0  0  0  0  0  0  0  0  0  0
  -26.7748    6.2500    7.0965 C   0  0  0  0  0  0  0  0  0  0  0  0
  -25.6907    7.0892    7.3135 C   0  0  0  0  0  0  0  0  0  0  0  0
  -26.5564    7.6063    9.5540 C   0  0  0  0  0  0  0  0  0  0  0  0
  -26.3842    8.5366   10.8009 C   0  0  0  0  0  0  0  0  0  0  0  0
  -27.3958    8.2254   11.9564 C   0  0  0  0  0  0  0  0  0  0  0  0
  -27.0555    7.1237   12.8925 N   0  3  0  0  0  0  0  0  0  0  0  0
  -25.7700    7.3816   13.5914 C   0  0  0  0  0  0  0  0  0  0  0  0
  -27.0409    5.8030   12.1731 C   0  0  0  0  0  0  0  0  0  0  0  0
  -22.2346    5.9226   11.8786 C   0  0  0  0  0  0  0  0  0  0  0  0
  -20.8137    5.6662   12.3191 C   0  0  0  0  0  0  0  0  0  0  0  0
  -23.1426    5.6523   12.6484 O   0  0  0  0  0  0  0  0  0  0  0  0
  1  7  1  0  0  0  0
  1  9  1  0  0  0  0
  2  8  1  0  0  0  0
  2 14  1  0  0  0  0
  2 15  1  0  0  0  0
  3  4  2  0  0  0  0
  3  8  1  0  0  0  0
  4  5  1  0  0  0  0
  4 21  1  0  0  0  0
  5  6  2  0  0  0  0
  6  7  1  0  0  0  0
  7  8  2  0  0  0  0
  9 10  2  0  0  0  0
  9 14  1  0  0  0  0
 10 11  1  0  0  0  0
 11 12  2  0  0  0  0
 12 13  1  0  0  0  0
 13 14  2  0  0  0  0
 15 16  1  0  0  0  0
 16 17  1  0  0  0  0
 17 18  1  0  0  0  0
 18 19  1  0  0  0  0
 18 20  1  0  0  0  0
 21 22  1  0  0  0  0
 21 23  2  0  0  0  0
M  CHG  1  18   1
M  END
>  <CHROM.1>
53.25306851,179.78054477,-166.09035689,83.03596829,179.65569880,-24.65815325
7.04594878,9.32419300,-1.65972930,-0.05513022,1.63939272

>  <Name>


>  <RI>
0

>  <Rbt.Current_Directory>
/home/itssahil/PROJECTS/Mol_Feturizer/New_Systems/rnas/1lvj

>  <Rbt.Executable>
rbdock ($Id: //depot/dev/client3/rdock/2013.1/src/exe/rbdock.cxx#4 $)

>  <Rbt.Library>
libRbt.so (2013.1, Build901 2013/11/27)

>  <Rbt.Parameter_File>
/export/apps/rDock/src/rDock_2013.1_src/data/scripts/dock_solv.prm

>  <Rbt.Receptor>
prm/pocket_docking_7.prm

>  <SCORE>
-34.833

>  <SCORE.INTER>
-30.7311

>  <SCORE.INTER.CONST>
1

>  <SCORE.INTER.POLAR>
0

>  <SCORE.INTER.ROT>
5

>  <SCORE.INTER.SOLV>
10.2565

>  <SCORE.INTER.VDW>
-30.8396

>  <SCORE.INTER.norm>
-1.33613

>  <SCORE.INTRA>
-4.10191

>  <SCORE.INTRA.DIHEDRAL>
-5.305

>  <SCORE.INTRA.DIHEDRAL.0>
8.06479

>  <SCORE.INTRA.POLAR>
0

>  <SCORE.INTRA.POLAR.0>
0

>  <SCORE.INTRA.REPUL>
0

>  <SCORE.INTRA.REPUL.0>
0

>  <SCORE.INTRA.SOLV>
-0.159471

>  <SCORE.INTRA.SOLV.lig_0>
-29.8054

>  <SCORE.INTRA.VDW>
-1.36967

>  <SCORE.INTRA.VDW.0>
2.61447

>  <SCORE.INTRA.norm>
-0.178344

>  <SCORE.RESTR>
0

>  <SCORE.RESTR.CAVITY>
0

>  <SCORE.RESTR.norm>
0

>  <SCORE.SYSTEM>
0

>  <SCORE.SYSTEM.CONST>
0

>  <SCORE.SYSTEM.DIHEDRAL>
0

>  <SCORE.SYSTEM.SOLV>
0

>  <SCORE.SYSTEM.norm>
0

>  <SCORE.heavy>
23

>  <SCORE.norm>
-1.51448

>  <RMSD>
3.940

$$$$

 OpenBabel11021811403D
libRbt.so/2013.1/901 2013/11/27
 23 25  0  0  0  0  0  0  0  0999 V2000
  -23.4608    8.4973    6.5347 S   0  0  0  0  0  0  0  0  0  0  0  0
  -25.4588    7.5989    8.5521 N   0  0  0  0  0  0  0  0  0  0  0  0
  -23.8821    6.7722   10.1784 C   0  0  0  0  0  0  0  0  0  0  0  0
  -22.5495    6.5583   10.5548 C   0  0  0  0  0  0  0  0  0  0  0  0
  -21.5124    6.9410    9.7096 C   0  0  0  0  0  0  0  0  0  0  0  0
  -21.7988    7.5339    8.4847 C   0  0  0  0  0  0  0  0  0  0  0  0
  -23.1195    7.7491    8.0991 C   0  0  0  0  0  0  0  0  0  0  0  0
  -24.1701    7.3702    8.9434 C   0  0  0  0  0  0  0  0  0  0  0  0
  -24.8274    7.4163    6.2536 C   0  0  0  0  0  0  0  0  0  0  0  0
  -25.0565    6.8934    4.9776 C   0  0  0  0  0  0  0  0  0  0  0  0
  -26.1428    6.0416    4.7582 C   0  0  0  0  0  0  0  0  0  0  0  0
  -26.9994    5.7187    5.8156 C   0  0  0  0  0  0  0  0  0  0  0  0
  -26.7654    6.2448    7.0866 C   0  0  0  0  0  0  0  0  0  0  0  0
  -25.6852    7.0875    7.3094 C   0  0  0  0  0  0  0  0  0  0  0  0
  -26.5554    7.5883    9.5518 C   0  0  0  0  0  0  0  0  0  0  0  0
  -26.3914    8.5171   10.8010 C   0  0  0  0  0  0  0  0  0  0  0  0
  -27.4710    8.2692   11.9092 C   0  0  0  0  0  0  0  0  0  0  0  0
  -27.2111    7.1898   12.8958 N   0  3  0  0  0  0  0  0  0  0  0  0
  -27.1285    5.8602   12.2380 C   0  0  0  0  0  0  0  0  0  0  0  0
  -28.2483    7.2069   13.9848 C   0  0  0  0  0  0  0  0  0  0  0  0
  -22.2288    5.9104   11.8716 C   0  0  0  0  0  0  0  0  0  0  0  0
  -20.8085    5.6275   12.2976 C   0  0  0  0  0  0  0  0  0  0  0  0
  -23.1338    5.6571   12.6506 O   0  0  0  0  0  0  0  0  0  0  0  0
  1  7  1  0  0  0  0
  1  9  1  0  0  0  0
  2  8  1  0  0  0  0
  2 14  1  0  0  0  0
  2 15  1  0  0  0  0
  3  4  2  0  0  0  0
  3  8  1  0  0  0  0
  4  5  1  0  0  0  0
  4 21  1  0  0  0  0
  5  6  2  0  0  0  0
  6  7  1  0  0  0  0
  7  8  2  0  0  0  0
  9 10  2  0  0  0  0
  9 14  1  0  0  0  0
 10 11  1  0  0  0  0
 11 12  2  0  0  0  0
 12 13  1  0  0  0  0
 13 14  2  0  0  0  0
 15 16  1  0  0  0  0
 16 17  1  0  0  0  0
 17 18  1  0  0  0  0
 18 19  1  0  0  0  0
 18 20  1  0  0  0  0
 21 22  1  0  0  0  0
 21 23  2  0  0  0  0
M  CHG  1  18   1
M  END
>  <CHROM.1>
53.50774025,178.27716603,-170.50136761,85.22155788,57.40369227,-24.77779362
7.04443035,9.34009653,-1.47123341,-0.06741922,1.64656389

>  <Name>


>  <RI>
0

>  <Rbt.Current_Directory>
/home/itssahil/PROJECTS/Mol_Feturizer/New_Systems/rnas/1lvj

>  <Rbt.Executable>
rbdock ($Id: //depot/dev/client3/rdock/2013.1/src/exe/rbdock.cxx#4 $)

>  <Rbt.Library>
libRbt.so (2013.1, Build901 2013/11/27)

>  <Rbt.Parameter_File>
/export/apps/rDock/src/rDock_2013.1_src/data/scripts/dock_solv.prm

>  <Rbt.Receptor>
prm/pocket_docking_5.prm

>  <SCORE>
-34.9305

>  <SCORE.INTER>
-30.997

>  <SCORE.INTER.CONST>
1

>  <SCORE.INTER.POLAR>
0

>  <SCORE.INTER.ROT>
5

>  <SCORE.INTER.SOLV>
10.3197

>  <SCORE.INTER.VDW>
-31.0379

>  <SCORE.INTER.norm>
-1.3477

>  <SCORE.INTRA>
-3.93351

>  <SCORE.INTRA.DIHEDRAL>
-5.30312

>  <SCORE.INTRA.DIHEDRAL.0>
8.06479

>  <SCORE.INTRA.POLAR>
0

>  <SCORE.INTRA.POLAR.0>
0

>  <SCORE.INTRA.REPUL>
0

>  <SCORE.INTRA.REPUL.0>
0

>  <SCORE.INTRA.SOLV>
1.21028

>  <SCORE.INTRA.SOLV.lig_0>
-29.8054

>  <SCORE.INTRA.VDW>
-1.88709

>  <SCORE.INTRA.VDW.0>
2.61447

>  <SCORE.INTRA.norm>
-0.171022

>  <SCORE.RESTR>
0

>  <SCORE.RESTR.CAVITY>
0

>  <SCORE.RESTR.norm>
0

>  <SCORE.SYSTEM>
0

>  <SCORE.SYSTEM.CONST>
0

>  <SCORE.SYSTEM.DIHEDRAL>
0

>  <SCORE.SYSTEM.SOLV>
0

>  <SCORE.SYSTEM.norm>
0

>  <SCORE.heavy>
23

>  <SCORE.norm>
-1.51872

>  <RMSD>
3.949

$$$$

 OpenBabel11021811403D
libRbt.so/2013.1/901 2013/11/27
 23 25  0  0  0  0  0  0  0  0999 V2000
  -23.6614    8.5926    6.3368 S   0  0  0  0  0  0  0  0  0  0  0  0
  -25.4321    7.6127    8.5216 N   0  0  0  0  0  0  0  0  0  0  0  0
  -23.6822    6.9190   10.0285 C   0  0  0  0  0  0  0  0  0  0  0  0
  -22.3132    6.7961   10.3000 C   0  0  0  0  0  0  0  0  0  0  0  0
  -21.3727    7.2254    9.3685 C   0  0  0  0  0  0  0  0  0  0  0  0
  -21.7923    7.7743    8.1617 C   0  0  0  0  0  0  0  0  0  0  0  0
  -23.1503    7.8990    7.8801 C   0  0  0  0  0  0  0  0  0  0  0  0
  -24.1045    7.4727    8.8116 C   0  0  0  0  0  0  0  0  0  0  0  0
  -24.9742    7.4231    6.1829 C   0  0  0  0  0  0  0  0  0  0  0  0
  -25.2698    6.8611    4.9375 C   0  0  0  0  0  0  0  0  0  0  0  0
  -26.3136    5.9390    4.8190 C   0  0  0  0  0  0  0  0  0  0  0  0
  -27.0616    5.5850    5.9466 C   0  0  0  0  0  0  0  0  0  0  0  0
  -26.7617    6.1504    7.1866 C   0  0  0  0  0  0  0  0  0  0  0  0
  -25.7231    7.0630    7.3090 C   0  0  0  0  0  0  0  0  0  0  0  0
  -26.4433    7.5542    9.6061 C   0  0  0  0  0  0  0  0  0  0  0  0
  -26.4600    6.2677   10.4976 C   0  0  0  0  0  0  0  0  0  0  0  0
  -26.5707    6.5722   12.0307 C   0  0  0  0  0  0  0  0  0  0  0  0
  -27.8398    7.1632   12.5264 N   0  3  0  0  0  0  0  0  0  0  0  0
  -27.8238    8.6457   12.4294 C   0  0  0  0  0  0  0  0  0  0  0  0
  -28.1266    6.7018   13.9289 C   0  0  0  0  0  0  0  0  0  0  0  0
  -21.8486    6.1964   11.5965 C   0  0  0  0  0  0  0  0  0  0  0  0
  -22.8150    5.6103   12.5972 C   0  0  0  0  0  0  0  0  0  0  0  0
  -20.6522    6.1233   11.8279 O   0  0  0  0  0  0  0  0  0  0  0  0
  1  7  1  0  0  0  0
  1  9  1  0  0  0  0
  2  8  1  0  0  0  0
  2 14  1  0  0  0  0
  2 15  1  0  0  0  0
  3  4  2  0  0  0  0
  3  8  1  0  0  0  0
  4  5  1  0  0  0  0
  4 21  1  0  0  0  0
  5  6  2  0  0  0  0
  6  7  1  0  0  0  0
  7  8  2  0  0  0  0
  9 10  2  0  0  0  0
  9 14  1  0  0  0  0
 10 11  1  0  0  0  0
 11 12  2  0  0  0  0
 12 13  1  0  0  0  0
 13 14  2  0  0  0  0
 15 16  1  0  0  0  0
 16 17  1  0  0  0  0
 17 18  1  0  0  0  0
 18 19  1  0  0  0  0
 18 20  1  0  0  0  0
 21 22  1  0  0  0  0
 21 23  2  0  0  0  0
M  CHG  1  18   1
M  END
>  <CHROM.1>
-56.54122152,4.89377198,134.66885465,67.36071177,32.80249025,-24.77367478
7.04778705,9.21638620,-1.41284601,0.00255433,1.63929755

>  <Name>


>  <RI>
0

>  <Rbt.Current_Directory>
/home/itssahil/PROJECTS/Mol_Feturizer/New_Systems/rnas/1lvj

>  <Rbt.Executable>
rbdock ($Id: //depot/dev/client3/rdock/2013.1/src/exe/rbdock.cxx#4 $)

>  <Rbt.Library>
libRbt.so (2013.1, Build901 2013/11/27)

>  <Rbt.Parameter_File>
/export/apps/rDock/src/rDock_2013.1_src/data/scripts/dock_solv.prm

>  <Rbt.Receptor>
prm/pocket_docking_5.prm

>  <SCORE>
-30.3968

>  <SCORE.INTER>
-28.8989

>  <SCORE.INTER.CONST>
1

>  <SCORE.INTER.POLAR>
-0.554597

>  <SCORE.INTER.ROT>
5

>  <SCORE.INTER.SOLV>
15.0692

>  <SCORE.INTER.VDW>
-29.3737

>  <SCORE.INTER.norm>
-1.25647

>  <SCORE.INTRA>
-1.49792

>  <SCORE.INTRA.DIHEDRAL>
-0.881429

>  <SCORE.INTRA.DIHEDRAL.0>
8.06479

>  <SCORE.INTRA.POLAR>
0

>  <SCORE.INTRA.POLAR.0>
0

>  <SCORE.INTRA.REPUL>
0

>  <SCORE.INTRA.REPUL.0>
0

>  <SCORE.INTRA.SOLV>
1.57909

>  <SCORE.INTRA.SOLV.lig_0>
-29.8054

>  <SCORE.INTRA.VDW>
-1.84675

>  <SCORE.INTRA.VDW.0>
2.61447

>  <SCORE.INTRA.norm>
-0.065127

>  <SCORE.RESTR>
0

>  <SCORE.RESTR.CAVITY>
0

>  <SCORE.RESTR.norm>
0

>  <SCORE.SYSTEM>
0

>  <SCORE.SYSTEM.CONST>
0

>  <SCORE.SYSTEM.DIHEDRAL>
0

>  <SCORE.SYSTEM.SOLV>
0

>  <SCORE.SYSTEM.norm>
0

>  <SCORE.heavy>
23

>  <SCORE.norm>
-1.3216

>  <RMSD>
3.952

$$$$

 OpenBabel11021811403D
libRbt.so/2013.1/901 2013/11/27
 23 25  0  0  0  0  0  0  0  0999 V2000
  -23.0219    8.4206    6.6148 S   0  0  0  0  0  0  0  0  0  0  0  0
  -25.1350    8.1936    8.7010 N   0  0  0  0  0  0  0  0  0  0  0  0
  -23.7328    7.2891   10.4416 C   0  0  0  0  0  0  0  0  0  0  0  0
  -22.4638    6.8690   10.8613 C   0  0  0  0  0  0  0  0  0  0  0  0
  -21.3810    6.9312    9.9894 C   0  0  0  0  0  0  0  0  0  0  0  0
  -21.5592    7.4076    8.6952 C   0  0  0  0  0  0  0  0  0  0  0  0
  -22.8165    7.8255    8.2663 C   0  0  0  0  0  0  0  0  0  0  0  0
  -23.9117    7.7696    9.1367 C   0  0  0  0  0  0  0  0  0  0  0  0
  -24.5762    7.6002    6.4536 C   0  0  0  0  0  0  0  0  0  0  0  0
  -24.9167    6.9738    5.2511 C   0  0  0  0  0  0  0  0  0  0  0  0
  -26.1508    6.3295    5.1260 C   0  0  0  0  0  0  0  0  0  0  0  0
  -27.0426    6.3173    6.2034 C   0  0  0  0  0  0  0  0  0  0  0  0
  -26.6967    6.9451    7.4006 C   0  0  0  0  0  0  0  0  0  0  0  0
  -25.4703    7.5822    7.5301 C   0  0  0  0  0  0  0  0  0  0  0  0
  -26.2018    8.5246    9.6780 C   0  0  0  0  0  0  0  0  0  0  0  0
  -26.6230    7.4008   10.6827 C   0  0  0  0  0  0  0  0  0  0  0  0
  -27.4471    7.9328   11.9047 C   0  0  0  0  0  0  0  0  0  0  0  0
  -28.2465    6.9487   12.6782 N   0  3  0  0  0  0  0  0  0  0  0  0
  -29.2777    7.6201   13.5108 C   0  0  0  0  0  0  0  0  0  0  0  0
  -27.3487    6.0716   13.5069 C   0  0  0  0  0  0  0  0  0  0  0  0
  -22.2616    6.3440   12.2542 C   0  0  0  0  0  0  0  0  0  0  0  0
  -23.4046    6.2103   13.2311 C   0  0  0  0  0  0  0  0  0  0  0  0
  -21.1549    5.9564   12.5934 O   0  0  0  0  0  0  0  0  0  0  0  0
  1  7  1  0  0  0  0
  1  9  1  0  0  0  0
  2  8  1  0  0  0  0
  2 14  1  0  0  0  0
  2 15  1  0  0  0  0
  3  4  2  0  0  0  0
  3  8  1  0  0  0  0
  4  5  1  0  0  0  0
  4 21  1  0  0  0  0
  5  6  2  0  0  0  0
  6  7  1  0  0  0  0
  7  8  2  0  0  0  0
  9 10  2  0  0  0  0
  9 14  1  0  0  0  0
 10 11  1  0  0  0  0
 11 12  2  0  0  0  0
 12 13  1  0  0  0  0
 13 14  2  0  0  0  0
 15 16  1  0  0  0  0
 16 17  1  0  0  0  0
 17 18  1  0  0  0  0
 18 19  1  0  0  0  0
 18 20  1  0  0  0  0
 21 22  1  0  0  0  0
 21 23  2  0  0  0  0
M  CHG  1  18   1
M  END
>  <CHROM.1>
-57.26980605,1.82893857,164.22493493,161.40517003,-42.40099934,-24.77962725
7.24781575,9.55490450,-1.21445694,-0.03706707,1.68089844

>  <Name>


>  <RI>
0

>  <Rbt.Current_Directory>
/home/itssahil/PROJECTS/Mol_Feturizer/New_Systems/rnas/1lvj

>  <Rbt.Executable>
rbdock ($Id: //depot/dev/client3/rdock/2013.1/src/exe/rbdock.cxx#4 $)

>  <Rbt.Library>
libRbt.so (2013.1, Build901 2013/11/27)

>  <Rbt.Parameter_File>
/export/apps/rDock/src/rDock_2013.1_src/data/scripts/dock_solv.prm

>  <Rbt.Receptor>
prm/pocket_docking_6.prm

>  <SCORE>
-34.4574

>  <SCORE.INTER>
-30.6031

>  <SCORE.INTER.CONST>
1

>  <SCORE.INTER.POLAR>
-0.639112

>  <SCORE.INTER.ROT>
5

>  <SCORE.INTER.SOLV>
13.7812

>  <SCORE.INTER.VDW>
-29.7988

>  <SCORE.INTER.norm>
-1.33057

>  <SCORE.INTRA>
-3.8543

>  <SCORE.INTRA.DIHEDRAL>
-4.88356

>  <SCORE.INTRA.DIHEDRAL.0>
8.06479

>  <SCORE.INTRA.POLAR>
0

>  <SCORE.INTRA.POLAR.0>
0

>  <SCORE.INTRA.REPUL>
0

>  <SCORE.INTRA.REPUL.0>
0

>  <SCORE.INTRA.SOLV>
0.557824

>  <SCORE.INTRA.SOLV.lig_0>
-29.8054

>  <SCORE.INTRA.VDW>
-1.69144

>  <SCORE.INTRA.VDW.0>
2.61447

>  <SCORE.INTRA.norm>
-0.167578

>  <SCORE.RESTR>
0

>  <SCORE.RESTR.CAVITY>
0

>  <SCORE.RESTR.norm>
0

>  <SCORE.SYSTEM>
0

>  <SCORE.SYSTEM.CONST>
0

>  <SCORE.SYSTEM.DIHEDRAL>
0

>  <SCORE.SYSTEM.SOLV>
0

>  <SCORE.SYSTEM.norm>
0

>  <SCORE.heavy>
23

>  <SCORE.norm>
-1.49815

>  <RMSD>
3.955

$$$$

 OpenBabel11021811403D
libRbt.so/2013.1/901 2013/11/27
 23 25  0  0  0  0  0  0  0  0999 V2000
  -23.4768    8.4781    6.5427 S   0  0  0  0  0  0  0  0  0  0  0  0
  -25.4858    7.5364    8.5292 N   0  0  0  0  0  0  0  0  0  0  0  0
  -23.9173    6.7087   10.1628 C   0  0  0  0  0  0  0  0  0  0  0  0
  -22.5865    6.5048   10.5509 C   0  0  0  0  0  0  0  0  0  0  0  0
  -21.5448    6.9078    9.7208 C   0  0  0  0  0  0  0  0  0  0  0  0
  -21.8249    7.5110    8.4995 C   0  0  0  0  0  0  0  0  0  0  0  0
  -23.1437    7.7164    8.1024 C   0  0  0  0  0  0  0  0  0  0  0  0
  -24.1989    7.3171    8.9315 C   0  0  0  0  0  0  0  0  0  0  0  0
  -24.8286    7.3858    6.2356 C   0  0  0  0  0  0  0  0  0  0  0  0
  -25.0389    6.8745    4.9516 C   0  0  0  0  0  0  0  0  0  0  0  0
  -26.1136    6.0136    4.7116 C   0  0  0  0  0  0  0  0  0  0  0  0
  -26.9777    5.6701    5.7564 C   0  0  0  0  0  0  0  0  0  0  0  0
  -26.7625    6.1846    7.0354 C   0  0  0  0  0  0  0  0  0  0  0  0
  -25.6938    7.0362    7.2787 C   0  0  0  0  0  0  0  0  0  0  0  0
  -26.5926    7.5031    9.5172 C   0  0  0  0  0  0  0  0  0  0  0  0
  -26.4972    8.4891   10.7291 C   0  0  0  0  0  0  0  0  0  0  0  0
  -25.9941    7.8096   12.0484 C   0  0  0  0  0  0  0  0  0  0  0  0
  -26.7874    6.6745   12.5852 N   0  3  0  0  0  0  0  0  0  0  0  0
  -28.1650    7.0970   12.9472 C   0  0  0  0  0  0  0  0  0  0  0  0
  -26.0787    6.0364   13.7482 C   0  0  0  0  0  0  0  0  0  0  0  0
  -22.2725    5.8459   11.8638 C   0  0  0  0  0  0  0  0  0  0  0  0
  -20.8550    5.6810   12.3559 C   0  0  0  0  0  0  0  0  0  0  0  0
  -23.1875    5.4847   12.5866 O   0  0  0  0  0  0  0  0  0  0  0  0
  1  7  1  0  0  0  0
  1  9  1  0  0  0  0
  2  8  1  0  0  0  0
  2 14  1  0  0  0  0
  2 15  1  0  0  0  0
  3  4  2  0  0  0  0
  3  8  1  0  0  0  0
  4  5  1  0  0  0  0
  4 21  1  0  0  0  0
  5  6  2  0  0  0  0
  6  7  1  0  0  0  0
  7  8  2  0  0  0  0
  9 10  2  0  0  0  0
  9 14  1  0  0  0  0
 10 11  1  0  0  0  0
 11 12  2  0  0  0  0
 12 13  1  0  0  0  0
 13 14  2  0  0  0  0
 15 16  1  0  0  0  0
 16 17  1  0  0  0  0
 17 18  1  0  0  0  0
 18 19  1  0  0  0  0
 18 20  1  0  0  0  0
 21 22  1  0  0  0  0
 21 23  2  0  0  0  0
M  CHG  1  18   1
M  END
>  <CHROM.1>
57.46981617,-176.33233820,-100.52855226,-58.95176000,57.87531146,-24.66570697
6.96457377,9.33531969,-1.62319763,-0.03227445,1.67083913

>  <Name>


>  <RI>
0

>  <Rbt.Current_Directory>
/home/itssahil/PROJECTS/Mol_Feturizer/New_Systems/rnas/1lvj

>  <Rbt.Executable>
rbdock ($Id: //depot/dev/client3/rdock/2013.1/src/exe/rbdock.cxx#4 $)

>  <Rbt.Library>
libRbt.so (2013.1, Build901 2013/11/27)

>  <Rbt.Parameter_File>
/export/apps/rDock/src/rDock_2013.1_src/data/scripts/dock_solv.prm

>  <Rbt.Receptor>
prm/pocket_docking_4.prm

>  <SCORE>
-32.1929

>  <SCORE.INTER>
-29.7189

>  <SCORE.INTER.CONST>
1

>  <SCORE.INTER.POLAR>
0

>  <SCORE.INTER.ROT>
5

>  <SCORE.INTER.SOLV>
10.6589

>  <SCORE.INTER.VDW>
-30.2989

>  <SCORE.INTER.norm>
-1.29213

>  <SCORE.INTRA>
-2.47405

>  <SCORE.INTRA.DIHEDRAL>
-3.46628

>  <SCORE.INTRA.DIHEDRAL.0>
8.06479

>  <SCORE.INTRA.POLAR>
0

>  <SCORE.INTRA.POLAR.0>
0

>  <SCORE.INTRA.REPUL>
0

>  <SCORE.INTRA.REPUL.0>
0

>  <SCORE.INTRA.SOLV>
3.28312

>  <SCORE.INTRA.SOLV.lig_0>
-29.8054

>  <SCORE.INTRA.VDW>
-2.38247

>  <SCORE.INTRA.VDW.0>
2.61447

>  <SCORE.INTRA.norm>
-0.107567

>  <SCORE.RESTR>
0

>  <SCORE.RESTR.CAVITY>
0

>  <SCORE.RESTR.norm>
0

>  <SCORE.SYSTEM>
0

>  <SCORE.SYSTEM.CONST>
0

>  <SCORE.SYSTEM.DIHEDRAL>
0

>  <SCORE.SYSTEM.SOLV>
0

>  <SCORE.SYSTEM.norm>
0

>  <SCORE.heavy>
23

>  <SCORE.norm>
-1.39969

>  <RMSD>
3.961

$$$$

 OpenBabel11021811403D
libRbt.so/2013.1/901 2013/11/27
 23 25  0  0  0  0  0  0  0  0999 V2000
  -23.2694    8.4428    6.3547 S   0  0  0  0  0  0  0  0  0  0  0  0
  -25.2452    8.1289    8.5608 N   0  0  0  0  0  0  0  0  0  0  0  0
  -23.6895    7.3785   10.2433 C   0  0  0  0  0  0  0  0  0  0  0  0
  -22.3726    7.0621   10.6023 C   0  0  0  0  0  0  0  0  0  0  0  0
  -21.3457    7.1749    9.6699 C   0  0  0  0  0  0  0  0  0  0  0  0
  -21.6274    7.5987    8.3758 C   0  0  0  0  0  0  0  0  0  0  0  0
  -22.9328    7.9134    8.0071 C   0  0  0  0  0  0  0  0  0  0  0  0
  -23.9727    7.8059    8.9384 C   0  0  0  0  0  0  0  0  0  0  0  0
  -24.7666    7.5098    6.3019 C   0  0  0  0  0  0  0  0  0  0  0  0
  -25.1251    6.8253    5.1369 C   0  0  0  0  0  0  0  0  0  0  0  0
  -26.3142    6.0916    5.0976 C   0  0  0  0  0  0  0  0  0  0  0  0
  -27.1435    6.0484    6.2231 C   0  0  0  0  0  0  0  0  0  0  0  0
  -26.7800    6.7346    7.3824 C   0  0  0  0  0  0  0  0  0  0  0  0
  -25.5978    7.4606    7.4267 C   0  0  0  0  0  0  0  0  0  0  0  0
  -26.2790    8.4124    9.5870 C   0  0  0  0  0  0  0  0  0  0  0  0
  -26.5148    7.3204   10.6831 C   0  0  0  0  0  0  0  0  0  0  0  0
  -27.3630    7.8290   11.8986 C   0  0  0  0  0  0  0  0  0  0  0  0
  -27.4877    6.9320   13.0757 N   0  3  0  0  0  0  0  0  0  0  0  0
  -26.1623    6.6425   13.6817 C   0  0  0  0  0  0  0  0  0  0  0  0
  -28.2160    5.6695   12.7047 C   0  0  0  0  0  0  0  0  0  0  0  0
  -22.0583    6.5946   11.9948 C   0  0  0  0  0  0  0  0  0  0  0  0
  -20.6434    6.3257   12.4468 C   0  0  0  0  0  0  0  0  0  0  0  0
  -22.9622    6.4842   12.8078 O   0  0  0  0  0  0  0  0  0  0  0  0
  1  7  1  0  0  0  0
  1  9  1  0  0  0  0
  2  8  1  0  0  0  0
  2 14  1  0  0  0  0
  2 15  1  0  0  0  0
  3  4  2  0  0  0  0
  3  8  1  0  0  0  0
  4  5  1  0  0  0  0
  4 21  1  0  0  0  0
  5  6  2  0  0  0  0
  6  7  1  0  0  0  0
  7  8  2  0  0  0  0
  9 10  2  0  0  0  0
  9 14  1  0  0  0  0
 10 11  1  0  0  0  0
 11 12  2  0  0  0  0
 12 13  1  0  0  0  0
 13 14  2  0  0  0  0
 15 16  1  0  0  0  0
 16 17  1  0  0  0  0
 17 18  1  0  0  0  0
 18 19  1  0  0  0  0
 18 20  1  0  0  0  0
 21 22  1  0  0  0  0
 21 23  2  0  0  0  0
M  CHG  1  18   1
M  END
>  <CHROM.1>
-54.42491644,-176.14739639,166.51712110,-171.84824621,-179.02684516,-24.65656685
7.20427455,9.40307096,-1.49571343,0.07796340,1.67067327

>  <Name>


>  <RI>
0

>  <Rbt.Current_Directory>
/home/itssahil/PROJECTS/Mol_Feturizer/New_Systems/rnas/1lvj

>  <Rbt.Executable>
rbdock ($Id: //depot/dev/client3/rdock/2013.1/src/exe/rbdock.cxx#4 $)

>  <Rbt.Library>
libRbt.so (2013.1, Build901 2013/11/27)

>  <Rbt.Parameter_File>
/export/apps/rDock/src/rDock_2013.1_src/data/scripts/dock_solv.prm

>  <Rbt.Receptor>
prm/pocket_docking_4.prm

>  <SCORE>
-31.8586

>  <SCORE.INTER>
-28.1697

>  <SCORE.INTER.CONST>
1

>  <SCORE.INTER.POLAR>
0

>  <SCORE.INTER.ROT>
5

>  <SCORE.INTER.SOLV>
10.4538

>  <SCORE.INTER.VDW>
-29.1978

>  <SCORE.INTER.norm>
-1.22477

>  <SCORE.INTRA>
-3.68882

>  <SCORE.INTRA.DIHEDRAL>
-6.53655

>  <SCORE.INTRA.DIHEDRAL.0>
8.06479

>  <SCORE.INTRA.POLAR>
0

>  <SCORE.INTRA.POLAR.0>
0

>  <SCORE.INTRA.REPUL>
0

>  <SCORE.INTRA.REPUL.0>
0

>  <SCORE.INTRA.SOLV>
-0.370475

>  <SCORE.INTRA.SOLV.lig_0>
-29.8054

>  <SCORE.INTRA.VDW>
-0.235306

>  <SCORE.INTRA.VDW.0>
2.61447

>  <SCORE.INTRA.norm>
-0.160383

>  <SCORE.RESTR>
0

>  <SCORE.RESTR.CAVITY>
0

>  <SCORE.RESTR.norm>
0

>  <SCORE.SYSTEM>
0

>  <SCORE.SYSTEM.CONST>
0

>  <SCORE.SYSTEM.DIHEDRAL>
0

>  <SCORE.SYSTEM.SOLV>
0

>  <SCORE.SYSTEM.norm>
0

>  <SCORE.heavy>
23

>  <SCORE.norm>
-1.38515

>  <RMSD>
3.968

$$$$

 OpenBabel11021811403D
libRbt.so/2013.1/901 2013/11/27
 23 25  0  0  0  0  0  0  0  0999 V2000
  -23.6590    8.5784    6.3332 S   0  0  0  0  0  0  0  0  0  0  0  0
  -25.4296    7.6406    8.5366 N   0  0  0  0  0  0  0  0  0  0  0  0
  -23.6797    6.9617   10.0502 C   0  0  0  0  0  0  0  0  0  0  0  0
  -22.3107    6.8365   10.3207 C   0  0  0  0  0  0  0  0  0  0  0  0
  -21.3702    7.2470    9.3807 C   0  0  0  0  0  0  0  0  0  0  0  0
  -21.7899    7.7793    8.1665 C   0  0  0  0  0  0  0  0  0  0  0  0
  -23.1479    7.9061    7.8859 C   0  0  0  0  0  0  0  0  0  0  0  0
  -24.1021    7.4987    8.8259 C   0  0  0  0  0  0  0  0  0  0  0  0
  -24.9777    7.4130    6.2001 C   0  0  0  0  0  0  0  0  0  0  0  0
  -25.2787    6.8333    4.9641 C   0  0  0  0  0  0  0  0  0  0  0  0
  -26.3271    5.9145    4.8620 C   0  0  0  0  0  0  0  0  0  0  0  0
  -27.0743    5.5814    5.9965 C   0  0  0  0  0  0  0  0  0  0  0  0
  -26.7690    6.1643    7.2269 C   0  0  0  0  0  0  0  0  0  0  0  0
  -25.7258    7.0738    7.3332 C   0  0  0  0  0  0  0  0  0  0  0  0
  -26.4387    7.6035    9.6240 C   0  0  0  0  0  0  0  0  0  0  0  0
  -26.4692    6.3247   10.5260 C   0  0  0  0  0  0  0  0  0  0  0  0
  -26.5936    6.6424   12.0553 C   0  0  0  0  0  0  0  0  0  0  0  0
  -27.8766    7.2136   12.5387 N   0  3  0  0  0  0  0  0  0  0  0  0
  -27.8629    8.6985   12.4911 C   0  0  0  0  0  0  0  0  0  0  0  0
  -28.1963    6.7054   13.9176 C   0  0  0  0  0  0  0  0  0  0  0  0
  -21.8461    6.2545   11.6253 C   0  0  0  0  0  0  0  0  0  0  0  0
  -22.8146    5.7076   12.6459 C   0  0  0  0  0  0  0  0  0  0  0  0
  -20.6494    6.1633   11.8480 O   0  0  0  0  0  0  0  0  0  0  0  0
  1  7  1  0  0  0  0
  1  9  1  0  0  0  0
  2  8  1  0  0  0  0
  2 14  1  0  0  0  0
  2 15  1  0  0  0  0
  3  4  2  0  0  0  0
  3  8  1  0  0  0  0
  4  5  1  0  0  0  0
  4 21  1  0  0  0  0
  5  6  2  0  0  0  0
  6  7  1  0  0  0  0
  7  8  2  0  0  0  0
  9 10  2  0  0  0  0
  9 14  1  0  0  0  0
 10 11  1  0  0  0  0
 11 12  2  0  0  0  0
 12 13  1  0  0  0  0
 13 14  2  0  0  0  0
 15 16  1  0  0  0  0
 16 17  1  0  0  0  0
 17 18  1  0  0  0  0
 18 19  1  0  0  0  0
 18 20  1  0  0  0  0
 21 22  1  0  0  0  0
 21 23  2  0  0  0  0
M  CHG  1  18   1
M  END
>  <CHROM.1>
-57.14760248,3.94686720,135.52790611,68.72735560,29.92034690,-24.78226105
7.07246617,9.23768916,-1.39487361,0.00391087,1.62940122

>  <Name>


>  <RI>
0

>  <Rbt.Current_Directory>
/home/itssahil/PROJECTS/Mol_Feturizer/New_Systems/rnas/1lvj

>  <Rbt.Executable>
rbdock ($Id: //depot/dev/client3/rdock/2013.1/src/exe/rbdock.cxx#4 $)

>  <Rbt.Library>
libRbt.so (2013.1, Build901 2013/11/27)

>  <Rbt.Parameter_File>
/export/apps/rDock/src/rDock_2013.1_src/data/scripts/dock_solv.prm

>  <Rbt.Receptor>
prm/pocket_docking_5.prm

>  <SCORE>
-30.5023

>  <SCORE.INTER>
-28.9786

>  <SCORE.INTER.CONST>
1

>  <SCORE.INTER.POLAR>
-0.536321

>  <SCORE.INTER.ROT>
5

>  <SCORE.INTER.SOLV>
15.1343

>  <SCORE.INTER.VDW>
-29.5094

>  <SCORE.INTER.norm>
-1.25994

>  <SCORE.INTRA>
-1.52367

>  <SCORE.INTRA.DIHEDRAL>
-0.662161

>  <SCORE.INTRA.DIHEDRAL.0>
8.06479

>  <SCORE.INTRA.POLAR>
0

>  <SCORE.INTRA.POLAR.0>
0

>  <SCORE.INTRA.REPUL>
0

>  <SCORE.INTRA.REPUL.0>
0

>  <SCORE.INTRA.SOLV>
1.59771

>  <SCORE.INTRA.SOLV.lig_0>
-29.8054

>  <SCORE.INTRA.VDW>
-1.99145

>  <SCORE.INTRA.VDW.0>
2.61447

>  <SCORE.INTRA.norm>
-0.0662467

>  <SCORE.RESTR>
0

>  <SCORE.RESTR.CAVITY>
0

>  <SCORE.RESTR.norm>
0

>  <SCORE.SYSTEM>
0

>  <SCORE.SYSTEM.CONST>
0

>  <SCORE.SYSTEM.DIHEDRAL>
0

>  <SCORE.SYSTEM.SOLV>
0

>  <SCORE.SYSTEM.norm>
0

>  <SCORE.heavy>
23

>  <SCORE.norm>
-1.32619

>  <RMSD>
3.972

$$$$

 OpenBabel11021811403D
libRbt.so/2013.1/901 2013/11/27
 23 25  0  0  0  0  0  0  0  0999 V2000
  -23.4486    8.5023    6.0951 S   0  0  0  0  0  0  0  0  0  0  0  0
  -25.2343    8.1530    8.4527 N   0  0  0  0  0  0  0  0  0  0  0  0
  -23.5237    7.5017   10.0224 C   0  0  0  0  0  0  0  0  0  0  0  0
  -22.1709    7.2470   10.2837 C   0  0  0  0  0  0  0  0  0  0  0  0
  -21.2242    7.3826    9.2727 C   0  0  0  0  0  0  0  0  0  0  0  0
  -21.6221    7.7679    7.9972 C   0  0  0  0  0  0  0  0  0  0  0  0
  -22.9641    8.0212    7.7254 C   0  0  0  0  0  0  0  0  0  0  0  0
  -23.9240    7.8903    8.7361 C   0  0  0  0  0  0  0  0  0  0  0  0
  -24.9044    7.5078    6.1746 C   0  0  0  0  0  0  0  0  0  0  0  0
  -25.3219    6.7854    5.0529 C   0  0  0  0  0  0  0  0  0  0  0  0
  -26.4783    6.0030    5.1185 C   0  0  0  0  0  0  0  0  0  0  0  0
  -27.2162    5.9489    6.3054 C   0  0  0  0  0  0  0  0  0  0  0  0
  -26.7944    6.6730    7.4211 C   0  0  0  0  0  0  0  0  0  0  0  0
  -25.6441    7.4477    7.3611 C   0  0  0  0  0  0  0  0  0  0  0  0
  -26.1974    8.4149    9.5509 C   0  0  0  0  0  0  0  0  0  0  0  0
  -26.4491    7.2549   10.5712 C   0  0  0  0  0  0  0  0  0  0  0  0
  -27.2783    7.6959   11.8255 C   0  0  0  0  0  0  0  0  0  0  0  0
  -28.1278    6.6718   12.4853 N   0  3  0  0  0  0  0  0  0  0  0  0
  -29.0764    7.2898   13.4474 C   0  0  0  0  0  0  0  0  0  0  0  0
  -27.2760    5.6210   13.1429 C   0  0  0  0  0  0  0  0  0  0  0  0
  -21.7311    6.8215   11.6555 C   0  0  0  0  0  0  0  0  0  0  0  0
  -20.2777    6.5942   11.9937 C   0  0  0  0  0  0  0  0  0  0  0  0
  -22.5615    6.7123   12.5436 O   0  0  0  0  0  0  0  0  0  0  0  0
  1  7  1  0  0  0  0
  1  9  1  0  0  0  0
  2  8  1  0  0  0  0
  2 14  1  0  0  0  0
  2 15  1  0  0  0  0
  3  4  2  0  0  0  0
  3  8  1  0  0  0  0
  4  5  1  0  0  0  0
  4 21  1  0  0  0  0
  5  6  2  0  0  0  0
  6  7  1  0  0  0  0
  7  8  2  0  0  0  0
  9 10  2  0  0  0  0
  9 14  1  0  0  0  0
 10 11  1  0  0  0  0
 11 12  2  0  0  0  0
 12 13  1  0  0  0  0
 13 14  2  0  0  0  0
 15 16  1  0  0  0  0
 16 17  1  0  0  0  0
 17 18  1  0  0  0  0
 18 19  1  0  0  0  0
 18 20  1  0  0  0  0
 21 22  1  0  0  0  0
 21 23  2  0  0  0  0
M  CHG  1  18   1
M  END
>  <CHROM.1>
-62.69683109,-177.35660219,169.96501642,150.58677845,-47.10461585,-24.74007074
7.26885225,9.22156755,1.16726767,-0.08357125,-1.49018614

>  <Name>


>  <RI>
0

>  <Rbt.Current_Directory>
/home/itssahil/PROJECTS/Mol_Feturizer/New_Systems/rnas/1lvj

>  <Rbt.Executable>
rbdock ($Id: //depot/dev/client3/rdock/2013.1/src/exe/rbdock.cxx#4 $)

>  <Rbt.Library>
libRbt.so (2013.1, Build901 2013/11/27)

>  <Rbt.Parameter_File>
/export/apps/rDock/src/rDock_2013.1_src/data/scripts/dock_solv.prm

>  <Rbt.Receptor>
prm/pocket_docking_5.prm

>  <SCORE>
-32.5333

>  <SCORE.INTER>
-29.0995

>  <SCORE.INTER.CONST>
1

>  <SCORE.INTER.POLAR>
-0.846047

>  <SCORE.INTER.ROT>
5

>  <SCORE.INTER.SOLV>
15.4513

>  <SCORE.INTER.VDW>
-28.6633

>  <SCORE.INTER.norm>
-1.2652

>  <SCORE.INTRA>
-3.44888

>  <SCORE.INTRA.DIHEDRAL>
-4.37518

>  <SCORE.INTRA.DIHEDRAL.0>
8.06479

>  <SCORE.INTRA.POLAR>
0

>  <SCORE.INTRA.POLAR.0>
0

>  <SCORE.INTRA.REPUL>
0

>  <SCORE.INTRA.REPUL.0>
0

>  <SCORE.INTRA.SOLV>
0.647557

>  <SCORE.INTRA.SOLV.lig_0>
-29.8054

>  <SCORE.INTRA.VDW>
-1.58507

>  <SCORE.INTRA.VDW.0>
2.61447

>  <SCORE.INTRA.norm>
-0.149951

>  <SCORE.RESTR>
0.0151148

>  <SCORE.RESTR.CAVITY>
0.0151148

>  <SCORE.RESTR.norm>
0.000657165

>  <SCORE.SYSTEM>
0

>  <SCORE.SYSTEM.CONST>
0

>  <SCORE.SYSTEM.DIHEDRAL>
0

>  <SCORE.SYSTEM.SOLV>
0

>  <SCORE.SYSTEM.norm>
0

>  <SCORE.heavy>
23

>  <SCORE.norm>
-1.41449

>  <RMSD>
3.981

$$$$

 OpenBabel11021811403D
libRbt.so/2013.1/901 2013/11/27
 23 25  0  0  0  0  0  0  0  0999 V2000
  -23.2494    8.4549    6.3219 S   0  0  0  0  0  0  0  0  0  0  0  0
  -25.2301    8.1373    8.5231 N   0  0  0  0  0  0  0  0  0  0  0  0
  -23.6764    7.3939   10.2106 C   0  0  0  0  0  0  0  0  0  0  0  0
  -22.3595    7.0822   10.5735 C   0  0  0  0  0  0  0  0  0  0  0  0
  -21.3305    7.1972    9.6437 C   0  0  0  0  0  0  0  0  0  0  0  0
  -21.6100    7.6186    8.3483 C   0  0  0  0  0  0  0  0  0  0  0  0
  -22.9155    7.9286    7.9758 C   0  0  0  0  0  0  0  0  0  0  0  0
  -23.9575    7.8188    8.9044 C   0  0  0  0  0  0  0  0  0  0  0  0
  -24.7434    7.5170    6.2662 C   0  0  0  0  0  0  0  0  0  0  0  0
  -25.0966    6.8299    5.1011 C   0  0  0  0  0  0  0  0  0  0  0  0
  -26.2832    6.0923    5.0595 C   0  0  0  0  0  0  0  0  0  0  0  0
  -27.1153    6.0478    6.1828 C   0  0  0  0  0  0  0  0  0  0  0  0
  -26.7572    6.7365    7.3423 C   0  0  0  0  0  0  0  0  0  0  0  0
  -25.5775    7.4664    7.3889 C   0  0  0  0  0  0  0  0  0  0  0  0
  -26.2675    8.4186    9.5461 C   0  0  0  0  0  0  0  0  0  0  0  0
  -26.4646    7.3522   10.6748 C   0  0  0  0  0  0  0  0  0  0  0  0
  -27.2932    7.8808   11.8951 C   0  0  0  0  0  0  0  0  0  0  0  0
  -27.4027    7.0014   13.0870 N   0  3  0  0  0  0  0  0  0  0  0  0
  -28.2104    5.7888   12.7956 C   0  0  0  0  0  0  0  0  0  0  0  0
  -27.9519    7.7655   14.2602 C   0  0  0  0  0  0  0  0  0  0  0  0
  -22.0473    6.6175   11.9674 C   0  0  0  0  0  0  0  0  0  0  0  0
  -23.1315    6.3674   12.9876 C   0  0  0  0  0  0  0  0  0  0  0  0
  -20.8906    6.3755   12.2731 O   0  0  0  0  0  0  0  0  0  0  0  0
  1  7  1  0  0  0  0
  1  9  1  0  0  0  0
  2  8  1  0  0  0  0
  2 14  1  0  0  0  0
  2 15  1  0  0  0  0
  3  4  2  0  0  0  0
  3  8  1  0  0  0  0
  4  5  1  0  0  0  0
  4 21  1  0  0  0  0
  5  6  2  0  0  0  0
  6  7  1  0  0  0  0
  7  8  2  0  0  0  0
  9 10  2  0  0  0  0
  9 14  1  0  0  0  0
 10 11  1  0  0  0  0
 11 12  2  0  0  0  0
 12 13  1  0  0  0  0
 13 14  2  0  0  0  0
 15 16  1  0  0  0  0
 16 17  1  0  0  0  0
 17 18  1  0  0  0  0
 18 19  1  0  0  0  0
 18 20  1  0  0  0  0
 21 22  1  0  0  0  0
 21 23  2  0  0  0  0
M  CHG  1  18   1
M  END
>  <CHROM.1>
-52.13555230,4.77416069,165.11927859,-173.04432517,52.09758978,-24.72484760
7.26988480,9.40797302,-1.33482383,0.04053406,1.63088173

>  <Name>


>  <RI>
0

>  <Rbt.Current_Directory>
/home/itssahil/PROJECTS/Mol_Feturizer/New_Systems/rnas/1lvj

>  <Rbt.Executable>
rbdock ($Id: //depot/dev/client3/rdock/2013.1/src/exe/rbdock.cxx#4 $)

>  <Rbt.Library>
libRbt.so (2013.1, Build901 2013/11/27)

>  <Rbt.Parameter_File>
/export/apps/rDock/src/rDock_2013.1_src/data/scripts/dock_solv.prm

>  <Rbt.Receptor>
prm/pocket_docking_5.prm

>  <SCORE>
-31.8583

>  <SCORE.INTER>
-28.4188

>  <SCORE.INTER.CONST>
1

>  <SCORE.INTER.POLAR>
0

>  <SCORE.INTER.ROT>
5

>  <SCORE.INTER.SOLV>
10.4101

>  <SCORE.INTER.VDW>
-29.3492

>  <SCORE.INTER.norm>
-1.2356

>  <SCORE.INTRA>
-3.4395

>  <SCORE.INTRA.DIHEDRAL>
-6.13472

>  <SCORE.INTRA.DIHEDRAL.0>
8.06479

>  <SCORE.INTRA.POLAR>
0

>  <SCORE.INTRA.POLAR.0>
0

>  <SCORE.INTRA.REPUL>
0

>  <SCORE.INTRA.REPUL.0>
0

>  <SCORE.INTRA.SOLV>
1.498

>  <SCORE.INTRA.SOLV.lig_0>
-29.8054

>  <SCORE.INTRA.VDW>
-1.12114

>  <SCORE.INTRA.VDW.0>
2.61447

>  <SCORE.INTRA.norm>
-0.149544

>  <SCORE.RESTR>
0

>  <SCORE.RESTR.CAVITY>
0

>  <SCORE.RESTR.norm>
0

>  <SCORE.SYSTEM>
0

>  <SCORE.SYSTEM.CONST>
0

>  <SCORE.SYSTEM.DIHEDRAL>
0

>  <SCORE.SYSTEM.SOLV>
0

>  <SCORE.SYSTEM.norm>
0

>  <SCORE.heavy>
23

>  <SCORE.norm>
-1.38514

>  <RMSD>
3.993

$$$$

 OpenBabel11021811403D
libRbt.so/2013.1/901 2013/11/27
 23 25  0  0  0  0  0  0  0  0999 V2000
  -23.0839    8.4289    6.6455 S   0  0  0  0  0  0  0  0  0  0  0  0
  -25.1513    8.2028    8.7772 N   0  0  0  0  0  0  0  0  0  0  0  0
  -23.7048    7.3289   10.4971 C   0  0  0  0  0  0  0  0  0  0  0  0
  -22.4234    6.9250   10.8945 C   0  0  0  0  0  0  0  0  0  0  0  0
  -21.3595    6.9887    9.9998 C   0  0  0  0  0  0  0  0  0  0  0  0
  -21.5690    7.4506    8.7049 C   0  0  0  0  0  0  0  0  0  0  0  0
  -22.8388    7.8523    8.2982 C   0  0  0  0  0  0  0  0  0  0  0  0
  -23.9152    7.7947    9.1916 C   0  0  0  0  0  0  0  0  0  0  0  0
  -24.6333    7.5923    6.5246 C   0  0  0  0  0  0  0  0  0  0  0  0
  -24.9925    6.9508    5.3357 C   0  0  0  0  0  0  0  0  0  0  0  0
  -26.2226    6.2936    5.2424 C   0  0  0  0  0  0  0  0  0  0  0  0
  -27.0919    6.2838    6.3382 C   0  0  0  0  0  0  0  0  0  0  0  0
  -26.7274    6.9267    7.5217 C   0  0  0  0  0  0  0  0  0  0  0  0
  -25.5047    7.5766    7.6196 C   0  0  0  0  0  0  0  0  0  0  0  0
  -26.2008    8.5334    9.7729 C   0  0  0  0  0  0  0  0  0  0  0  0
  -26.5081    7.4594   10.8693 C   0  0  0  0  0  0  0  0  0  0  0  0
  -27.5135    7.9551   11.9641 C   0  0  0  0  0  0  0  0  0  0  0  0
  -27.7246    7.0865   13.1502 N   0  3  0  0  0  0  0  0  0  0  0  0
  -26.4994    7.0005   13.9862 C   0  0  0  0  0  0  0  0  0  0  0  0
  -28.2070    5.7253   12.7306 C   0  0  0  0  0  0  0  0  0  0  0  0
  -22.1874    6.4159   12.2880 C   0  0  0  0  0  0  0  0  0  0  0  0
  -23.3160    6.2350   13.2740 C   0  0  0  0  0  0  0  0  0  0  0  0
  -21.0619    6.0802   12.6204 O   0  0  0  0  0  0  0  0  0  0  0  0
  1  7  1  0  0  0  0
  1  9  1  0  0  0  0
  2  8  1  0  0  0  0
  2 14  1  0  0  0  0
  2 15  1  0  0  0  0
  3  4  2  0  0  0  0
  3  8  1  0  0  0  0
  4  5  1  0  0  0  0
  4 21  1  0  0  0  0
  5  6  2  0  0  0  0
  6  7  1  0  0  0  0
  7  8  2  0  0  0  0
  9 10  2  0  0  0  0
  9 14  1  0  0  0  0
 10 11  1  0  0  0  0
 11 12  2  0  0  0  0
 12 13  1  0  0  0  0
 13 14  2  0  0  0  0
 15 16  1  0  0  0  0
 16 17  1  0  0  0  0
 17 18  1  0  0  0  0
 18 19  1  0  0  0  0
 18 20  1  0  0  0  0
 21 22  1  0  0  0  0
 21 23  2  0  0  0  0
M  CHG  1  18   1
M  END
>  <CHROM.1>
-52.42079553,4.03252399,173.73002880,-171.58123208,-173.19141717,-24.67200993
7.23238888,9.62329223,-1.42752367,0.01730846,1.68263867

>  <Name>


>  <RI>
0

>  <Rbt.Current_Directory>
/home/itssahil/PROJECTS/Mol_Feturizer/New_Systems/rnas/1lvj

>  <Rbt.Executable>
rbdock ($Id: //depot/dev/client3/rdock/2013.1/src/exe/rbdock.cxx#4 $)

>  <Rbt.Library>
libRbt.so (2013.1, Build901 2013/11/27)

>  <Rbt.Parameter_File>
/export/apps/rDock/src/rDock_2013.1_src/data/scripts/dock_solv.prm

>  <Rbt.Receptor>
prm/pocket_docking_4.prm

>  <SCORE>
-31.5565

>  <SCORE.INTER>
-28.0504

>  <SCORE.INTER.CONST>
1

>  <SCORE.INTER.POLAR>
0

>  <SCORE.INTER.ROT>
5

>  <SCORE.INTER.SOLV>
10.0414

>  <SCORE.INTER.VDW>
-28.9807

>  <SCORE.INTER.norm>
-1.21958

>  <SCORE.INTRA>
-3.50613

>  <SCORE.INTRA.DIHEDRAL>
-6.88004

>  <SCORE.INTRA.DIHEDRAL.0>
8.06479

>  <SCORE.INTRA.POLAR>
0

>  <SCORE.INTRA.POLAR.0>
0

>  <SCORE.INTRA.REPUL>
0

>  <SCORE.INTRA.REPUL.0>
0

>  <SCORE.INTRA.SOLV>
-0.603708

>  <SCORE.INTRA.SOLV.lig_0>
-29.8054

>  <SCORE.INTRA.VDW>
0.235742

>  <SCORE.INTRA.VDW.0>
2.61447

>  <SCORE.INTRA.norm>
-0.15244

>  <SCORE.RESTR>
0

>  <SCORE.RESTR.CAVITY>
0

>  <SCORE.RESTR.norm>
0

>  <SCORE.SYSTEM>
0

>  <SCORE.SYSTEM.CONST>
0

>  <SCORE.SYSTEM.DIHEDRAL>
0

>  <SCORE.SYSTEM.SOLV>
0

>  <SCORE.SYSTEM.norm>
0

>  <SCORE.heavy>
23

>  <SCORE.norm>
-1.37202

>  <RMSD>
3.998

$$$$

 OpenBabel11021811403D
libRbt.so/2013.1/901 2013/11/27
 23 25  0  0  0  0  0  0  0  0999 V2000
  -23.3999    8.4914    6.1381 S   0  0  0  0  0  0  0  0  0  0  0  0
  -25.2899    8.0208    8.3910 N   0  0  0  0  0  0  0  0  0  0  0  0
  -23.6426    7.3568   10.0219 C   0  0  0  0  0  0  0  0  0  0  0  0
  -22.2984    7.1250   10.3419 C   0  0  0  0  0  0  0  0  0  0  0  0
  -21.3069    7.3169    9.3845 C   0  0  0  0  0  0  0  0  0  0  0  0
  -21.6511    7.7357    8.1039 C   0  0  0  0  0  0  0  0  0  0  0  0
  -22.9842    7.9667    7.7739 C   0  0  0  0  0  0  0  0  0  0  0  0
  -23.9889    7.7793    8.7307 C   0  0  0  0  0  0  0  0  0  0  0  0
  -24.8326    7.4610    6.1123 C   0  0  0  0  0  0  0  0  0  0  0  0
  -25.1762    6.7675    4.9482 C   0  0  0  0  0  0  0  0  0  0  0  0
  -26.3145    5.9565    4.9304 C   0  0  0  0  0  0  0  0  0  0  0  0
  -27.1083    5.8450    6.0766 C   0  0  0  0  0  0  0  0  0  0  0  0
  -26.7599    6.5406    7.2350 C   0  0  0  0  0  0  0  0  0  0  0  0
  -25.6279    7.3435    7.2578 C   0  0  0  0  0  0  0  0  0  0  0  0
  -26.3120    8.2228    9.4477 C   0  0  0  0  0  0  0  0  0  0  0  0
  -26.4447    7.1050   10.5353 C   0  0  0  0  0  0  0  0  0  0  0  0
  -27.1465    7.5923   11.8488 C   0  0  0  0  0  0  0  0  0  0  0  0
  -27.2034    6.6459   12.9920 N   0  3  0  0  0  0  0  0  0  0  0  0
  -28.5932    6.4774   13.4897 C   0  0  0  0  0  0  0  0  0  0  0  0
  -26.2705    7.0826   14.0879 C   0  0  0  0  0  0  0  0  0  0  0  0
  -21.9160    6.6637   11.7194 C   0  0  0  0  0  0  0  0  0  0  0  0
  -22.9498    6.3761   12.7811 C   0  0  0  0  0  0  0  0  0  0  0  0
  -20.7410    6.4556   11.9766 O   0  0  0  0  0  0  0  0  0  0  0  0
  1  7  1  0  0  0  0
  1  9  1  0  0  0  0
  2  8  1  0  0  0  0
  2 14  1  0  0  0  0
  2 15  1  0  0  0  0
  3  4  2  0  0  0  0
  3  8  1  0  0  0  0
  4  5  1  0  0  0  0
  4 21  1  0  0  0  0
  5  6  2  0  0  0  0
  6  7  1  0  0  0  0
  7  8  2  0  0  0  0
  9 10  2  0  0  0  0
  9 14  1  0  0  0  0
 10 11  1  0  0  0  0
 11 12  2  0  0  0  0
 12 13  1  0  0  0  0
 13 14  2  0  0  0  0
 15 16  1  0  0  0  0
 16 17  1  0  0  0  0
 17 18  1  0  0  0  0
 18 19  1  0  0  0  0
 18 20  1  0  0  0  0
 21 22  1  0  0  0  0
 21 23  2  0  0  0  0
M  CHG  1  18   1
M  END
>  <CHROM.1>
-54.41015083,2.71465454,159.79394238,-174.19454955,-6.89849356,-24.65960099
7.20438756,9.27695346,-1.43202877,0.08546057,1.63883744

>  <Name>


>  <RI>
0

>  <Rbt.Current_Directory>
/home/itssahil/PROJECTS/Mol_Feturizer/New_Systems/rnas/1lvj

>  <Rbt.Executable>
rbdock ($Id: //depot/dev/client3/rdock/2013.1/src/exe/rbdock.cxx#4 $)

>  <Rbt.Library>
libRbt.so (2013.1, Build901 2013/11/27)

>  <Rbt.Parameter_File>
/export/apps/rDock/src/rDock_2013.1_src/data/scripts/dock_solv.prm

>  <Rbt.Receptor>
prm/pocket_docking_4.prm

>  <SCORE>
-29.8209

>  <SCORE.INTER>
-27.2943

>  <SCORE.INTER.CONST>
1

>  <SCORE.INTER.POLAR>
0

>  <SCORE.INTER.ROT>
5

>  <SCORE.INTER.SOLV>
11.0456

>  <SCORE.INTER.VDW>
-28.8114

>  <SCORE.INTER.norm>
-1.18671

>  <SCORE.INTRA>
-2.52665

>  <SCORE.INTRA.DIHEDRAL>
-2.52662

>  <SCORE.INTRA.DIHEDRAL.0>
8.06479

>  <SCORE.INTRA.POLAR>
0

>  <SCORE.INTRA.POLAR.0>
0

>  <SCORE.INTRA.REPUL>
0

>  <SCORE.INTRA.REPUL.0>
0

>  <SCORE.INTRA.SOLV>
1.17053

>  <SCORE.INTRA.SOLV.lig_0>
-29.8054

>  <SCORE.INTRA.VDW>
-1.8486

>  <SCORE.INTRA.VDW.0>
2.61447

>  <SCORE.INTRA.norm>
-0.109854

>  <SCORE.RESTR>
0

>  <SCORE.RESTR.CAVITY>
0

>  <SCORE.RESTR.norm>
0

>  <SCORE.SYSTEM>
0

>  <SCORE.SYSTEM.CONST>
0

>  <SCORE.SYSTEM.DIHEDRAL>
0

>  <SCORE.SYSTEM.SOLV>
0

>  <SCORE.SYSTEM.norm>
0

>  <SCORE.heavy>
23

>  <SCORE.norm>
-1.29656

>  <RMSD>
4.000

$$$$

 OpenBabel11021811403D
libRbt.so/2013.1/901 2013/11/27
 23 25  0  0  0  0  0  0  0  0999 V2000
  -23.5955    8.5744    6.2980 S   0  0  0  0  0  0  0  0  0  0  0  0
  -25.4046    7.6565    8.4784 N   0  0  0  0  0  0  0  0  0  0  0  0
  -23.6818    6.9725   10.0205 C   0  0  0  0  0  0  0  0  0  0  0  0
  -22.3177    6.8396   10.3118 C   0  0  0  0  0  0  0  0  0  0  0  0
  -21.3608    7.2404    9.3843 C   0  0  0  0  0  0  0  0  0  0  0  0
  -21.7589    7.7705    8.1620 C   0  0  0  0  0  0  0  0  0  0  0  0
  -23.1118    7.9050    7.8607 C   0  0  0  0  0  0  0  0  0  0  0  0
  -24.0824    7.5073    8.7880 C   0  0  0  0  0  0  0  0  0  0  0  0
  -24.9195    7.4169    6.1498 C   0  0  0  0  0  0  0  0  0  0  0  0
  -25.2058    6.8343    4.9117 C   0  0  0  0  0  0  0  0  0  0  0  0
  -26.2585    5.9218    4.7975 C   0  0  0  0  0  0  0  0  0  0  0  0
  -27.0246    5.5980    5.9220 C   0  0  0  0  0  0  0  0  0  0  0  0
  -26.7339    6.1837    7.1546 C   0  0  0  0  0  0  0  0  0  0  0  0
  -25.6865    7.0869    7.2729 C   0  0  0  0  0  0  0  0  0  0  0  0
  -26.4299    7.6302    9.5508 C   0  0  0  0  0  0  0  0  0  0  0  0
  -26.5440    6.3184   10.3970 C   0  0  0  0  0  0  0  0  0  0  0  0
  -25.9816    6.4635   11.8523 C   0  0  0  0  0  0  0  0  0  0  0  0
  -26.6306    7.4560   12.7465 N   0  3  0  0  0  0  0  0  0  0  0  0
  -25.8717    7.6255   14.0125 C   0  0  0  0  0  0  0  0  0  0  0  0
  -28.0635    7.0790   13.0045 C   0  0  0  0  0  0  0  0  0  0  0  0
  -21.8763    6.2598   11.6253 C   0  0  0  0  0  0  0  0  0  0  0  0
  -22.8535    5.6345   12.5911 C   0  0  0  0  0  0  0  0  0  0  0  0
  -20.6872    6.2362   11.9003 O   0  0  0  0  0  0  0  0  0  0  0  0
  1  7  1  0  0  0  0
  1  9  1  0  0  0  0
  2  8  1  0  0  0  0
  2 14  1  0  0  0  0
  2 15  1  0  0  0  0
  3  4  2  0  0  0  0
  3  8  1  0  0  0  0
  4  5  1  0  0  0  0
  4 21  1  0  0  0  0
  5  6  2  0  0  0  0
  6  7  1  0  0  0  0
  7  8  2  0  0  0  0
  9 10  2  0  0  0  0
  9 14  1  0  0  0  0
 10 11  1  0  0  0  0
 11 12  2  0  0  0  0
 12 13  1  0  0  0  0
 13 14  2  0  0  0  0
 15 16  1  0  0  0  0
 16 17  1  0  0  0  0
 17 18  1  0  0  0  0
 18 19  1  0  0  0  0
 18 20  1  0  0  0  0
 21 22  1  0  0  0  0
 21 23  2  0  0  0  0
M  CHG  1  18   1
M  END
>  <CHROM.1>
-61.00801039,8.36193266,107.09621706,61.49997091,-51.61318466,-24.58359518
7.05171918,9.23384227,-1.63358154,0.05476250,1.62880139

>  <Name>


>  <RI>
0

>  <Rbt.Current_Directory>
/home/itssahil/PROJECTS/Mol_Feturizer/New_Systems/rnas/1lvj

>  <Rbt.Executable>
rbdock ($Id: //depot/dev/client3/rdock/2013.1/src/exe/rbdock.cxx#4 $)

>  <Rbt.Library>
libRbt.so (2013.1, Build901 2013/11/27)

>  <Rbt.Parameter_File>
/export/apps/rDock/src/rDock_2013.1_src/data/scripts/dock_solv.prm

>  <Rbt.Receptor>
prm/pocket_docking_4.prm

>  <SCORE>
-27.1573

>  <SCORE.INTER>
-25.6765

>  <SCORE.INTER.CONST>
1

>  <SCORE.INTER.POLAR>
0

>  <SCORE.INTER.ROT>
5

>  <SCORE.INTER.SOLV>
10.8431

>  <SCORE.INTER.VDW>
-27.6654

>  <SCORE.INTER.norm>
-1.11637

>  <SCORE.INTRA>
-1.48287

>  <SCORE.INTRA.DIHEDRAL>
-2.47667

>  <SCORE.INTRA.DIHEDRAL.0>
8.06479

>  <SCORE.INTRA.POLAR>
0

>  <SCORE.INTRA.POLAR.0>
0

>  <SCORE.INTRA.REPUL>
0

>  <SCORE.INTRA.REPUL.0>
0

>  <SCORE.INTRA.SOLV>
2.27552

>  <SCORE.INTRA.SOLV.lig_0>
-29.8054

>  <SCORE.INTRA.VDW>
-1.38229

>  <SCORE.INTRA.VDW.0>
2.61447

>  <SCORE.INTRA.norm>
-0.0644725

>  <SCORE.RESTR>
0.00202822

>  <SCORE.RESTR.CAVITY>
0.00202822

>  <SCORE.RESTR.norm>
8.81836e-05

>  <SCORE.SYSTEM>
0

>  <SCORE.SYSTEM.CONST>
0

>  <SCORE.SYSTEM.DIHEDRAL>
0

>  <SCORE.SYSTEM.SOLV>
0

>  <SCORE.SYSTEM.norm>
0

>  <SCORE.heavy>
23

>  <SCORE.norm>
-1.18075

>  <RMSD>
4.006

$$$$

 OpenBabel11021811403D
libRbt.so/2013.1/901 2013/11/27
 23 25  0  0  0  0  0  0  0  0999 V2000
  -23.0876    8.4144    6.4350 S   0  0  0  0  0  0  0  0  0  0  0  0
  -25.1562    8.1993    8.5666 N   0  0  0  0  0  0  0  0  0  0  0  0
  -23.6998    7.3857   10.3076 C   0  0  0  0  0  0  0  0  0  0  0  0
  -22.4129    7.0112   10.7161 C   0  0  0  0  0  0  0  0  0  0  0  0
  -21.3480    7.0736    9.8224 C   0  0  0  0  0  0  0  0  0  0  0  0
  -21.5619    7.5046    8.5177 C   0  0  0  0  0  0  0  0  0  0  0  0
  -22.8371    7.8768    8.0999 C   0  0  0  0  0  0  0  0  0  0  0  0
  -23.9146    7.8204    8.9920 C   0  0  0  0  0  0  0  0  0  0  0  0
  -24.6228    7.5502    6.3285 C   0  0  0  0  0  0  0  0  0  0  0  0
  -24.9686    6.8781    5.1525 C   0  0  0  0  0  0  0  0  0  0  0  0
  -26.1876    6.1990    5.0706 C   0  0  0  0  0  0  0  0  0  0  0  0
  -27.0592    6.1980    6.1645 C   0  0  0  0  0  0  0  0  0  0  0  0
  -26.7081    6.8715    7.3350 C   0  0  0  0  0  0  0  0  0  0  0  0
  -25.4965    7.5433    7.4217 C   0  0  0  0  0  0  0  0  0  0  0  0
  -26.2134    8.5336    9.5529 C   0  0  0  0  0  0  0  0  0  0  0  0
  -26.5385    7.4581   10.6427 C   0  0  0  0  0  0  0  0  0  0  0  0
  -27.4116    8.0084   11.8217 C   0  0  0  0  0  0  0  0  0  0  0  0
  -27.7796    7.0632   12.9066 N   0  3  0  0  0  0  0  0  0  0  0  0
  -29.0954    7.4074   13.5046 C   0  0  0  0  0  0  0  0  0  0  0  0
  -26.6954    7.0036   13.9473 C   0  0  0  0  0  0  0  0  0  0  0  0
  -22.1721    6.5355   12.1204 C   0  0  0  0  0  0  0  0  0  0  0  0
  -23.2927    6.4074   13.1236 C   0  0  0  0  0  0  0  0  0  0  0  0
  -21.0504    6.1837   12.4495 O   0  0  0  0  0  0  0  0  0  0  0  0
  1  7  1  0  0  0  0
  1  9  1  0  0  0  0
  2  8  1  0  0  0  0
  2 14  1  0  0  0  0
  2 15  1  0  0  0  0
  3  4  2  0  0  0  0
  3  8  1  0  0  0  0
  4  5  1  0  0  0  0
  4 21  1  0  0  0  0
  5  6  2  0  0  0  0
  6  7  1  0  0  0  0
  7  8  2  0  0  0  0
  9 10  2  0  0  0  0
  9 14  1  0  0  0  0
 10 11  1  0  0  0  0
 11 12  2  0  0  0  0
 12 13  1  0  0  0  0
 13 14  2  0  0  0  0
 15 16  1  0  0  0  0
 16 17  1  0  0  0  0
 17 18  1  0  0  0  0
 18 19  1  0  0  0  0
 18 20  1  0  0  0  0
 21 22  1  0  0  0  0
 21 23  2  0  0  0  0
M  CHG  1  18   1
M  END
>  <CHROM.1>
-54.38037677,1.64173661,166.73221052,179.77831689,-29.20122391,-24.71155847
7.32044212,9.48067127,-1.31557216,-0.02437659,1.63191215

>  <Name>


>  <RI>
0

>  <Rbt.Current_Directory>
/home/itssahil/PROJECTS/Mol_Feturizer/New_Systems/rnas/1lvj

>  <Rbt.Executable>
rbdock ($Id: //depot/dev/client3/rdock/2013.1/src/exe/rbdock.cxx#4 $)

>  <Rbt.Library>
libRbt.so (2013.1, Build901 2013/11/27)

>  <Rbt.Parameter_File>
/export/apps/rDock/src/rDock_2013.1_src/data/scripts/dock_solv.prm

>  <Rbt.Receptor>
prm/pocket_docking_5.prm

>  <SCORE>
-31.7833

>  <SCORE.INTER>
-27.9017

>  <SCORE.INTER.CONST>
1

>  <SCORE.INTER.POLAR>
0

>  <SCORE.INTER.ROT>
5

>  <SCORE.INTER.SOLV>
11.5785

>  <SCORE.INTER.VDW>
-29.394

>  <SCORE.INTER.norm>
-1.21312

>  <SCORE.INTRA>
-3.88155

>  <SCORE.INTRA.DIHEDRAL>
-5.11094

>  <SCORE.INTRA.DIHEDRAL.0>
8.06479

>  <SCORE.INTRA.POLAR>
0

>  <SCORE.INTRA.POLAR.0>
0

>  <SCORE.INTRA.REPUL>
0

>  <SCORE.INTRA.REPUL.0>
0

>  <SCORE.INTRA.SOLV>
0.582873

>  <SCORE.INTRA.SOLV.lig_0>
-29.8054

>  <SCORE.INTRA.VDW>
-1.61751

>  <SCORE.INTRA.VDW.0>
2.61447

>  <SCORE.INTRA.norm>
-0.168763

>  <SCORE.RESTR>
0

>  <SCORE.RESTR.CAVITY>
0

>  <SCORE.RESTR.norm>
0

>  <SCORE.SYSTEM>
0

>  <SCORE.SYSTEM.CONST>
0

>  <SCORE.SYSTEM.DIHEDRAL>
0

>  <SCORE.SYSTEM.SOLV>
0

>  <SCORE.SYSTEM.norm>
0

>  <SCORE.heavy>
23

>  <SCORE.norm>
-1.38188

>  <RMSD>
4.014

$$$$

 OpenBabel11021811403D
libRbt.so/2013.1/901 2013/11/27
 23 25  0  0  0  0  0  0  0  0999 V2000
  -23.0625    8.4295    6.5220 S   0  0  0  0  0  0  0  0  0  0  0  0
  -25.1274    8.2298    8.6586 N   0  0  0  0  0  0  0  0  0  0  0  0
  -23.6752    7.3945   10.3928 C   0  0  0  0  0  0  0  0  0  0  0  0
  -22.3914    7.0047   10.7965 C   0  0  0  0  0  0  0  0  0  0  0  0
  -21.3283    7.0585    9.9001 C   0  0  0  0  0  0  0  0  0  0  0  0
  -21.5410    7.4961    8.5974 C   0  0  0  0  0  0  0  0  0  0  0  0
  -22.8133    7.8836    8.1844 C   0  0  0  0  0  0  0  0  0  0  0  0
  -23.8889    7.8359    9.0793 C   0  0  0  0  0  0  0  0  0  0  0  0
  -24.6072    7.5824    6.4169 C   0  0  0  0  0  0  0  0  0  0  0  0
  -24.9636    6.9180    5.2396 C   0  0  0  0  0  0  0  0  0  0  0  0
  -26.1901    6.2526    5.1588 C   0  0  0  0  0  0  0  0  0  0  0  0
  -27.0587    6.2573    6.2551 C   0  0  0  0  0  0  0  0  0  0  0  0
  -26.6971    6.9231    7.4269 C   0  0  0  0  0  0  0  0  0  0  0  0
  -25.4780    7.5813    7.5125 C   0  0  0  0  0  0  0  0  0  0  0  0
  -26.1782    8.5722    9.6489 C   0  0  0  0  0  0  0  0  0  0  0  0
  -26.5895    7.4572   10.6675 C   0  0  0  0  0  0  0  0  0  0  0  0
  -27.4478    7.9912   11.8647 C   0  0  0  0  0  0  0  0  0  0  0  0
  -28.2150    6.9987   12.6598 N   0  3  0  0  0  0  0  0  0  0  0  0
  -29.2514    7.6566   13.4967 C   0  0  0  0  0  0  0  0  0  0  0  0
  -27.2874    6.1528   13.4880 C   0  0  0  0  0  0  0  0  0  0  0  0
  -22.1519    6.5217   12.1985 C   0  0  0  0  0  0  0  0  0  0  0  0
  -20.7733    6.1557   12.6928 C   0  0  0  0  0  0  0  0  0  0  0  0
  -23.0849    6.4781   12.9845 O   0  0  0  0  0  0  0  0  0  0  0  0
  1  7  1  0  0  0  0
  1  9  1  0  0  0  0
  2  8  1  0  0  0  0
  2 14  1  0  0  0  0
  2 15  1  0  0  0  0
  3  4  2  0  0  0  0
  3  8  1  0  0  0  0
  4  5  1  0  0  0  0
  4 21  1  0  0  0  0
  5  6  2  0  0  0  0
  6  7  1  0  0  0  0
  7  8  2  0  0  0  0
  9 10  2  0  0  0  0
  9 14  1  0  0  0  0
 10 11  1  0  0  0  0
 11 12  2  0  0  0  0
 12 13  1  0  0  0  0
 13 14  2  0  0  0  0
 15 16  1  0  0  0  0
 16 17  1  0  0  0  0
 17 18  1  0  0  0  0
 18 19  1  0  0  0  0
 18 20  1  0  0  0  0
 21 22  1  0  0  0  0
 21 23  2  0  0  0  0
M  CHG  1  18   1
M  END
>  <CHROM.1>
-58.93470496,-177.00455444,166.80443301,162.60062574,-44.33213665,-24.74160914
7.30742894,9.51552904,-1.21663431,-0.01722770,1.65565363

>  <Name>


>  <RI>
0

>  <Rbt.Current_Directory>
/home/itssahil/PROJECTS/Mol_Feturizer/New_Systems/rnas/1lvj

>  <Rbt.Executable>
rbdock ($Id: //depot/dev/client3/rdock/2013.1/src/exe/rbdock.cxx#4 $)

>  <Rbt.Library>
libRbt.so (2013.1, Build901 2013/11/27)

>  <Rbt.Parameter_File>
/export/apps/rDock/src/rDock_2013.1_src/data/scripts/dock_solv.prm

>  <Rbt.Receptor>
prm/pocket_docking_6.prm

>  <SCORE>
-34.306

>  <SCORE.INTER>
-30.3762

>  <SCORE.INTER.CONST>
1

>  <SCORE.INTER.POLAR>
-0.636247

>  <SCORE.INTER.ROT>
5

>  <SCORE.INTER.SOLV>
14.0398

>  <SCORE.INTER.VDW>
-29.7433

>  <SCORE.INTER.norm>
-1.32071

>  <SCORE.INTRA>
-3.92981

>  <SCORE.INTRA.DIHEDRAL>
-5.45542

>  <SCORE.INTRA.DIHEDRAL.0>
8.06479

>  <SCORE.INTRA.POLAR>
0

>  <SCORE.INTRA.POLAR.0>
0

>  <SCORE.INTRA.REPUL>
0

>  <SCORE.INTRA.REPUL.0>
0

>  <SCORE.INTRA.SOLV>
0.625654

>  <SCORE.INTRA.SOLV.lig_0>
-29.8054

>  <SCORE.INTRA.VDW>
-1.51492

>  <SCORE.INTRA.VDW.0>
2.61447

>  <SCORE.INTRA.norm>
-0.170861

>  <SCORE.RESTR>
0

>  <SCORE.RESTR.CAVITY>
0

>  <SCORE.RESTR.norm>
0

>  <SCORE.SYSTEM>
0

>  <SCORE.SYSTEM.CONST>
0

>  <SCORE.SYSTEM.DIHEDRAL>
0

>  <SCORE.SYSTEM.SOLV>
0

>  <SCORE.SYSTEM.norm>
0

>  <SCORE.heavy>
23

>  <SCORE.norm>
-1.49157

>  <RMSD>
4.020

$$$$

 OpenBabel11021811403D
libRbt.so/2013.1/901 2013/11/27
 23 25  0  0  0  0  0  0  0  0999 V2000
  -23.2925    8.4580    6.1276 S   0  0  0  0  0  0  0  0  0  0  0  0
  -25.2435    8.1036    8.3496 N   0  0  0  0  0  0  0  0  0  0  0  0
  -23.6545    7.4174   10.0284 C   0  0  0  0  0  0  0  0  0  0  0  0
  -22.3261    7.1453   10.3814 C   0  0  0  0  0  0  0  0  0  0  0  0
  -21.3092    7.2812    9.4412 C   0  0  0  0  0  0  0  0  0  0  0  0
  -21.6122    7.6840    8.1452 C   0  0  0  0  0  0  0  0  0  0  0  0
  -22.9292    7.9547    7.7825 C   0  0  0  0  0  0  0  0  0  0  0  0
  -23.9592    7.8237    8.7216 C   0  0  0  0  0  0  0  0  0  0  0  0
  -24.7604    7.4786    6.0933 C   0  0  0  0  0  0  0  0  0  0  0  0
  -25.1049    6.7725    4.9370 C   0  0  0  0  0  0  0  0  0  0  0  0
  -26.2709    6.0020    4.9123 C   0  0  0  0  0  0  0  0  0  0  0  0
  -27.0912    5.9436    6.0437 C   0  0  0  0  0  0  0  0  0  0  0  0
  -26.7418    6.6514    7.1942 C   0  0  0  0  0  0  0  0  0  0  0  0
  -25.5824    7.4141    7.2241 C   0  0  0  0  0  0  0  0  0  0  0  0
  -26.2790    8.3644    9.3801 C   0  0  0  0  0  0  0  0  0  0  0  0
  -26.5255    7.2432   10.4440 C   0  0  0  0  0  0  0  0  0  0  0  0
  -26.5512    7.7756   11.9174 C   0  0  0  0  0  0  0  0  0  0  0  0
  -27.8690    8.1451   12.4942 N   0  3  0  0  0  0  0  0  0  0  0  0
  -27.7272    9.1646   13.5656 C   0  0  0  0  0  0  0  0  0  0  0  0
  -28.5942    6.9220   12.9843 C   0  0  0  0  0  0  0  0  0  0  0  0
  -21.9885    6.7008   11.7760 C   0  0  0  0  0  0  0  0  0  0  0  0
  -20.5620    6.5012   12.2274 C   0  0  0  0  0  0  0  0  0  0  0  0
  -22.8852    6.5524   12.5909 O   0  0  0  0  0  0  0  0  0  0  0  0
  1  7  1  0  0  0  0
  1  9  1  0  0  0  0
  2  8  1  0  0  0  0
  2 14  1  0  0  0  0
  2 15  1  0  0  0  0
  3  4  2  0  0  0  0
  3  8  1  0  0  0  0
  4  5  1  0  0  0  0
  4 21  1  0  0  0  0
  5  6  2  0  0  0  0
  6  7  1  0  0  0  0
  7  8  2  0  0  0  0
  9 10  2  0  0  0  0
  9 14  1  0  0  0  0
 10 11  1  0  0  0  0
 11 12  2  0  0  0  0
 12 13  1  0  0  0  0
 13 14  2  0  0  0  0
 15 16  1  0  0  0  0
 16 17  1  0  0  0  0
 17 18  1  0  0  0  0
 18 19  1  0  0  0  0
 18 20  1  0  0  0  0
 21 22  1  0  0  0  0
 21 23  2  0  0  0  0
M  CHG  1  18   1
M  END
>  <CHROM.1>
-57.51824324,-175.15904161,131.64889105,92.86392530,-33.86603587,-24.70842331
7.43945202,9.20516613,-1.33054128,-0.04009669,1.53361231

>  <Name>


>  <RI>
0

>  <Rbt.Current_Directory>
/home/itssahil/PROJECTS/Mol_Feturizer/New_Systems/rnas/1lvj

>  <Rbt.Executable>
rbdock ($Id: //depot/dev/client3/rdock/2013.1/src/exe/rbdock.cxx#4 $)

>  <Rbt.Library>
libRbt.so (2013.1, Build901 2013/11/27)

>  <Rbt.Parameter_File>
/export/apps/rDock/src/rDock_2013.1_src/data/scripts/dock_solv.prm

>  <Rbt.Receptor>
prm/pocket_docking_4.prm

>  <SCORE>
-29.7636

>  <SCORE.INTER>
-30.9794

>  <SCORE.INTER.CONST>
1

>  <SCORE.INTER.POLAR>
-0.685549

>  <SCORE.INTER.ROT>
5

>  <SCORE.INTER.SOLV>
16.0965

>  <SCORE.INTER.VDW>
-30.6666

>  <SCORE.INTER.norm>
-1.34693

>  <SCORE.INTRA>
0.0468275

>  <SCORE.INTRA.DIHEDRAL>
1.93767

>  <SCORE.INTRA.DIHEDRAL.0>
8.06479

>  <SCORE.INTRA.POLAR>
0

>  <SCORE.INTRA.POLAR.0>
0

>  <SCORE.INTRA.REPUL>
0

>  <SCORE.INTRA.REPUL.0>
0

>  <SCORE.INTRA.SOLV>
1.74

>  <SCORE.INTRA.SOLV.lig_0>
-29.8054

>  <SCORE.INTRA.VDW>
-1.792

>  <SCORE.INTRA.VDW.0>
2.61447

>  <SCORE.INTRA.norm>
0.00203598

>  <SCORE.RESTR>
1.16891

>  <SCORE.RESTR.CAVITY>
1.16891

>  <SCORE.RESTR.norm>
0.0508224

>  <SCORE.SYSTEM>
0

>  <SCORE.SYSTEM.CONST>
0

>  <SCORE.SYSTEM.DIHEDRAL>
0

>  <SCORE.SYSTEM.SOLV>
0

>  <SCORE.SYSTEM.norm>
0

>  <SCORE.heavy>
23

>  <SCORE.norm>
-1.29407

>  <RMSD>
4.060

$$$$

 OpenBabel11021811403D
libRbt.so/2013.1/901 2013/11/27
 23 25  0  0  0  0  0  0  0  0999 V2000
  -23.0919    8.4216    6.6623 S   0  0  0  0  0  0  0  0  0  0  0  0
  -25.1799    8.1852    8.7726 N   0  0  0  0  0  0  0  0  0  0  0  0
  -23.7538    7.2872   10.4970 C   0  0  0  0  0  0  0  0  0  0  0  0
  -22.4781    6.8728   10.9022 C   0  0  0  0  0  0  0  0  0  0  0  0
  -21.4057    6.9399   10.0179 C   0  0  0  0  0  0  0  0  0  0  0  0
  -21.6009    7.4155    8.7258 C   0  0  0  0  0  0  0  0  0  0  0  0
  -22.8649    7.8276    8.3114 C   0  0  0  0  0  0  0  0  0  0  0  0
  -23.9498    7.7668    9.1942 C   0  0  0  0  0  0  0  0  0  0  0  0
  -24.6442    7.5941    6.5190 C   0  0  0  0  0  0  0  0  0  0  0  0
  -24.9957    6.9662    5.3205 C   0  0  0  0  0  0  0  0  0  0  0  0
  -26.2282    6.3162    5.2095 C   0  0  0  0  0  0  0  0  0  0  0  0
  -27.1075    6.3001    6.2971 C   0  0  0  0  0  0  0  0  0  0  0  0
  -26.7507    6.9295    7.4902 C   0  0  0  0  0  0  0  0  0  0  0  0
  -25.5258    7.5722    7.6057 C   0  0  0  0  0  0  0  0  0  0  0  0
  -26.2369    8.5114    9.7618 C   0  0  0  0  0  0  0  0  0  0  0  0
  -26.5535    7.4319   10.8501 C   0  0  0  0  0  0  0  0  0  0  0  0
  -27.4610    7.9638   12.0114 C   0  0  0  0  0  0  0  0  0  0  0  0
  -27.6471    7.0889   13.1970 N   0  3  0  0  0  0  0  0  0  0  0  0
  -28.3739    5.8420   12.8440 C   0  0  0  0  0  0  0  0  0  0  0  0
  -28.3353    7.8378   14.3050 C   0  0  0  0  0  0  0  0  0  0  0  0
  -22.2576    6.3489   12.2927 C   0  0  0  0  0  0  0  0  0  0  0  0
  -23.3928    6.1861   13.2743 C   0  0  0  0  0  0  0  0  0  0  0  0
  -21.1407    5.9861   12.6258 O   0  0  0  0  0  0  0  0  0  0  0  0
  1  7  1  0  0  0  0
  1  9  1  0  0  0  0
  2  8  1  0  0  0  0
  2 14  1  0  0  0  0
  2 15  1  0  0  0  0
  3  4  2  0  0  0  0
  3  8  1  0  0  0  0
  4  5  1  0  0  0  0
  4 21  1  0  0  0  0
  5  6  2  0  0  0  0
  6  7  1  0  0  0  0
  7  8  2  0  0  0  0
  9 10  2  0  0  0  0
  9 14  1  0  0  0  0
 10 11  1  0  0  0  0
 11 12  2  0  0  0  0
 12 13  1  0  0  0  0
 13 14  2  0  0  0  0
 15 16  1  0  0  0  0
 16 17  1  0  0  0  0
 17 18  1  0  0  0  0
 18 19  1  0  0  0  0
 18 20  1  0  0  0  0
 21 22  1  0  0  0  0
 21 23  2  0  0  0  0
M  CHG  1  18   1
M  END
>  <CHROM.1>
-52.05296369,2.97875795,168.36605275,-170.70781079,54.91416479,-24.78089288
7.25519340,9.64422360,-1.27755449,-0.02714949,1.66281697

>  <Name>


>  <RI>
0

>  <Rbt.Current_Directory>
/home/itssahil/PROJECTS/Mol_Feturizer/New_Systems/rnas/1lvj

>  <Rbt.Executable>
rbdock ($Id: //depot/dev/client3/rdock/2013.1/src/exe/rbdock.cxx#4 $)

>  <Rbt.Library>
libRbt.so (2013.1, Build901 2013/11/27)

>  <Rbt.Parameter_File>
/export/apps/rDock/src/rDock_2013.1_src/data/scripts/dock_solv.prm

>  <Rbt.Receptor>
prm/pocket_docking_8.prm

>  <SCORE>
-32.1928

>  <SCORE.INTER>
-28.6955

>  <SCORE.INTER.CONST>
1

>  <SCORE.INTER.POLAR>
0

>  <SCORE.INTER.ROT>
5

>  <SCORE.INTER.SOLV>
9.81612

>  <SCORE.INTER.VDW>
-29.3357

>  <SCORE.INTER.norm>
-1.24763

>  <SCORE.INTRA>
-3.49729

>  <SCORE.INTRA.DIHEDRAL>
-6.43192

>  <SCORE.INTRA.DIHEDRAL.0>
8.06479

>  <SCORE.INTRA.POLAR>
0

>  <SCORE.INTRA.POLAR.0>
0

>  <SCORE.INTRA.REPUL>
0

>  <SCORE.INTRA.REPUL.0>
0

>  <SCORE.INTRA.SOLV>
1.43022

>  <SCORE.INTRA.SOLV.lig_0>
-29.8054

>  <SCORE.INTRA.VDW>
-0.996435

>  <SCORE.INTRA.VDW.0>
2.61447

>  <SCORE.INTRA.norm>
-0.152056

>  <SCORE.RESTR>
0

>  <SCORE.RESTR.CAVITY>
0

>  <SCORE.RESTR.norm>
0

>  <SCORE.SYSTEM>
0

>  <SCORE.SYSTEM.CONST>
0

>  <SCORE.SYSTEM.DIHEDRAL>
0

>  <SCORE.SYSTEM.SOLV>
0

>  <SCORE.SYSTEM.norm>
0

>  <SCORE.heavy>
23

>  <SCORE.norm>
-1.39969

>  <RMSD>
4.063

$$$$

 OpenBabel11021811403D
libRbt.so/2013.1/901 2013/11/27
 23 25  0  0  0  0  0  0  0  0999 V2000
  -23.0701    8.4114    6.4892 S   0  0  0  0  0  0  0  0  0  0  0  0
  -25.1394    8.2163    8.6221 N   0  0  0  0  0  0  0  0  0  0  0  0
  -23.6880    7.3979   10.3649 C   0  0  0  0  0  0  0  0  0  0  0  0
  -22.4035    7.0159   10.7741 C   0  0  0  0  0  0  0  0  0  0  0  0
  -21.3385    7.0686    9.8800 C   0  0  0  0  0  0  0  0  0  0  0  0
  -21.5499    7.4973    8.5741 C   0  0  0  0  0  0  0  0  0  0  0  0
  -22.8227    7.8769    8.1557 C   0  0  0  0  0  0  0  0  0  0  0  0
  -23.9003    7.8302    9.0482 C   0  0  0  0  0  0  0  0  0  0  0  0
  -24.6110    7.5572    6.3857 C   0  0  0  0  0  0  0  0  0  0  0  0
  -24.9617    6.8841    5.2117 C   0  0  0  0  0  0  0  0  0  0  0  0
  -26.1853    6.2130    5.1321 C   0  0  0  0  0  0  0  0  0  0  0  0
  -27.0565    6.2209    6.2262 C   0  0  0  0  0  0  0  0  0  0  0  0
  -26.7006    6.8954    7.3947 C   0  0  0  0  0  0  0  0  0  0  0  0
  -25.4845    7.5593    7.4791 C   0  0  0  0  0  0  0  0  0  0  0  0
  -26.1940    8.5604    9.6077 C   0  0  0  0  0  0  0  0  0  0  0  0
  -26.5316    7.4871   10.6957 C   0  0  0  0  0  0  0  0  0  0  0  0
  -27.3946    8.0466   11.8779 C   0  0  0  0  0  0  0  0  0  0  0  0
  -27.7152    7.1222   12.9953 N   0  3  0  0  0  0  0  0  0  0  0  0
  -29.0818    7.3638   13.5258 C   0  0  0  0  0  0  0  0  0  0  0  0
  -26.6747    7.2184   14.0771 C   0  0  0  0  0  0  0  0  0  0  0  0
  -22.1655    6.5426   12.1797 C   0  0  0  0  0  0  0  0  0  0  0  0
  -23.2827    6.4466   13.1902 C   0  0  0  0  0  0  0  0  0  0  0  0
  -21.0504    6.1663   12.5042 O   0  0  0  0  0  0  0  0  0  0  0  0
  1  7  1  0  0  0  0
  1  9  1  0  0  0  0
  2  8  1  0  0  0  0
  2 14  1  0  0  0  0
  2 15  1  0  0  0  0
  3  4  2  0  0  0  0
  3  8  1  0  0  0  0
  4  5  1  0  0  0  0
  4 21  1  0  0  0  0
  5  6  2  0  0  0  0
  6  7  1  0  0  0  0
  7  8  2  0  0  0  0
  9 10  2  0  0  0  0
  9 14  1  0  0  0  0
 10 11  1  0  0  0  0
 11 12  2  0  0  0  0
 12 13  1  0  0  0  0
 13 14  2  0  0  0  0
 15 16  1  0  0  0  0
 16 17  1  0  0  0  0
 17 18  1  0  0  0  0
 18 19  1  0  0  0  0
 18 20  1  0  0  0  0
 21 22  1  0  0  0  0
 21 23  2  0  0  0  0
M  CHG  1  18   1
M  END
>  <CHROM.1>
-54.71514937,0.61246965,166.46701412,-177.18595608,-23.70689735,-24.69733290
7.34064993,9.54130696,-1.32122418,-0.03047947,1.62622987

>  <Name>


>  <RI>
0

>  <Rbt.Current_Directory>
/home/itssahil/PROJECTS/Mol_Feturizer/New_Systems/rnas/1lvj

>  <Rbt.Executable>
rbdock ($Id: //depot/dev/client3/rdock/2013.1/src/exe/rbdock.cxx#4 $)

>  <Rbt.Library>
libRbt.so (2013.1, Build901 2013/11/27)

>  <Rbt.Parameter_File>
/export/apps/rDock/src/rDock_2013.1_src/data/scripts/dock_solv.prm

>  <Rbt.Receptor>
prm/pocket_docking_5.prm

>  <SCORE>
-31.8058

>  <SCORE.INTER>
-28.1151

>  <SCORE.INTER.CONST>
1

>  <SCORE.INTER.POLAR>
0

>  <SCORE.INTER.ROT>
5

>  <SCORE.INTER.SOLV>
11.0475

>  <SCORE.INTER.VDW>
-29.3592

>  <SCORE.INTER.norm>
-1.22239

>  <SCORE.INTRA>
-3.69583

>  <SCORE.INTRA.DIHEDRAL>
-4.55658

>  <SCORE.INTRA.DIHEDRAL.0>
8.06479

>  <SCORE.INTRA.POLAR>
0

>  <SCORE.INTRA.POLAR.0>
0

>  <SCORE.INTRA.REPUL>
0

>  <SCORE.INTRA.REPUL.0>
0

>  <SCORE.INTRA.SOLV>
0.618934

>  <SCORE.INTRA.SOLV.lig_0>
-29.8054

>  <SCORE.INTRA.VDW>
-1.72701

>  <SCORE.INTRA.VDW.0>
2.61447

>  <SCORE.INTRA.norm>
-0.160688

>  <SCORE.RESTR>
0.00514052

>  <SCORE.RESTR.CAVITY>
0.00514052

>  <SCORE.RESTR.norm>
0.000223501

>  <SCORE.SYSTEM>
0

>  <SCORE.SYSTEM.CONST>
0

>  <SCORE.SYSTEM.DIHEDRAL>
0

>  <SCORE.SYSTEM.SOLV>
0

>  <SCORE.SYSTEM.norm>
0

>  <SCORE.heavy>
23

>  <SCORE.norm>
-1.38286

>  <RMSD>
4.065

$$$$

 OpenBabel11021811403D
libRbt.so/2013.1/901 2013/11/27
 23 25  0  0  0  0  0  0  0  0999 V2000
  -23.0792    8.4116    6.6417 S   0  0  0  0  0  0  0  0  0  0  0  0
  -25.1613    8.2107    8.7615 N   0  0  0  0  0  0  0  0  0  0  0  0
  -23.7325    7.3321   10.4937 C   0  0  0  0  0  0  0  0  0  0  0  0
  -22.4568    6.9194   10.9006 C   0  0  0  0  0  0  0  0  0  0  0  0
  -21.3870    6.9710   10.0122 C   0  0  0  0  0  0  0  0  0  0  0  0
  -21.5848    7.4294    8.7143 C   0  0  0  0  0  0  0  0  0  0  0  0
  -22.8488    7.8397    8.2982 C   0  0  0  0  0  0  0  0  0  0  0  0
  -23.9311    7.7943    9.1851 C   0  0  0  0  0  0  0  0  0  0  0  0
  -24.6344    7.5870    6.5146 C   0  0  0  0  0  0  0  0  0  0  0  0
  -24.9916    6.9437    5.3260 C   0  0  0  0  0  0  0  0  0  0  0  0
  -26.2264    6.2961    5.2278 C   0  0  0  0  0  0  0  0  0  0  0  0
  -27.1023    6.2976    6.3182 C   0  0  0  0  0  0  0  0  0  0  0  0
  -26.7399    6.9423    7.5014 C   0  0  0  0  0  0  0  0  0  0  0  0
  -25.5127    7.5827    7.6042 C   0  0  0  0  0  0  0  0  0  0  0  0
  -26.2142    8.5537    9.7494 C   0  0  0  0  0  0  0  0  0  0  0  0
  -26.5022    7.5077   10.8776 C   0  0  0  0  0  0  0  0  0  0  0  0
  -27.4516    8.0473   12.0014 C   0  0  0  0  0  0  0  0  0  0  0  0
  -27.6881    7.1766   13.1811 N   0  3  0  0  0  0  0  0  0  0  0  0
  -28.4445    5.9525   12.8105 C   0  0  0  0  0  0  0  0  0  0  0  0
  -28.3763    7.9440   14.2763 C   0  0  0  0  0  0  0  0  0  0  0  0
  -22.2335    6.4140   12.2975 C   0  0  0  0  0  0  0  0  0  0  0  0
  -23.3578    6.3135   13.2998 C   0  0  0  0  0  0  0  0  0  0  0  0
  -21.1259    6.0151   12.6201 O   0  0  0  0  0  0  0  0  0  0  0  0
  1  7  1  0  0  0  0
  1  9  1  0  0  0  0
  2  8  1  0  0  0  0
  2 14  1  0  0  0  0
  2 15  1  0  0  0  0
  3  4  2  0  0  0  0
  3  8  1  0  0  0  0
  4  5  1  0  0  0  0
  4 21  1  0  0  0  0
  5  6  2  0  0  0  0
  6  7  1  0  0  0  0
  7  8  2  0  0  0  0
  9 10  2  0  0  0  0
  9 14  1  0  0  0  0
 10 11  1  0  0  0  0
 11 12  2  0  0  0  0
 12 13  1  0  0  0  0
 13 14  2  0  0  0  0
 15 16  1  0  0  0  0
 16 17  1  0  0  0  0
 17 18  1  0  0  0  0
 18 19  1  0  0  0  0
 18 20  1  0  0  0  0
 21 22  1  0  0  0  0
 21 23  2  0  0  0  0
M  CHG  1  18   1
M  END
>  <CHROM.1>
-50.35688970,0.81058386,170.55532515,-174.53187944,53.11790299,-24.77312661
7.29307016,9.63980746,-1.26228008,-0.03102353,1.64854537

>  <Name>


>  <RI>
0

>  <Rbt.Current_Directory>
/home/itssahil/PROJECTS/Mol_Feturizer/New_Systems/rnas/1lvj

>  <Rbt.Executable>
rbdock ($Id: //depot/dev/client3/rdock/2013.1/src/exe/rbdock.cxx#4 $)

>  <Rbt.Library>
libRbt.so (2013.1, Build901 2013/11/27)

>  <Rbt.Parameter_File>
/export/apps/rDock/src/rDock_2013.1_src/data/scripts/dock_solv.prm

>  <Rbt.Receptor>
prm/pocket_docking_6.prm

>  <SCORE>
-32.1669

>  <SCORE.INTER>
-28.7023

>  <SCORE.INTER.CONST>
1

>  <SCORE.INTER.POLAR>
0

>  <SCORE.INTER.ROT>
5

>  <SCORE.INTER.SOLV>
9.87536

>  <SCORE.INTER.VDW>
-29.36

>  <SCORE.INTER.norm>
-1.24792

>  <SCORE.INTRA>
-3.46464

>  <SCORE.INTRA.DIHEDRAL>
-6.66917

>  <SCORE.INTRA.DIHEDRAL.0>
8.06479

>  <SCORE.INTRA.POLAR>
0

>  <SCORE.INTRA.POLAR.0>
0

>  <SCORE.INTRA.REPUL>
0

>  <SCORE.INTRA.REPUL.0>
0

>  <SCORE.INTRA.SOLV>
1.3431

>  <SCORE.INTRA.SOLV.lig_0>
-29.8054

>  <SCORE.INTRA.VDW>
-0.801613

>  <SCORE.INTRA.VDW.0>
2.61447

>  <SCORE.INTRA.norm>
-0.150637

>  <SCORE.RESTR>
0

>  <SCORE.RESTR.CAVITY>
0

>  <SCORE.RESTR.norm>
0

>  <SCORE.SYSTEM>
0

>  <SCORE.SYSTEM.CONST>
0

>  <SCORE.SYSTEM.DIHEDRAL>
0

>  <SCORE.SYSTEM.SOLV>
0

>  <SCORE.SYSTEM.norm>
0

>  <SCORE.heavy>
23

>  <SCORE.norm>
-1.39856

>  <RMSD>
4.071

$$$$

 OpenBabel11021811403D
libRbt.so/2013.1/901 2013/11/27
 23 25  0  0  0  0  0  0  0  0999 V2000
  -23.2439    8.4633    6.3382 S   0  0  0  0  0  0  0  0  0  0  0  0
  -25.2186    8.1496    8.5453 N   0  0  0  0  0  0  0  0  0  0  0  0
  -23.6610    7.4053   10.2288 C   0  0  0  0  0  0  0  0  0  0  0  0
  -22.3435    7.0922   10.5880 C   0  0  0  0  0  0  0  0  0  0  0  0
  -21.3170    7.2052    9.6552 C   0  0  0  0  0  0  0  0  0  0  0  0
  -21.5998    7.6261    8.3604 C   0  0  0  0  0  0  0  0  0  0  0  0
  -22.9060    7.9376    7.9915 C   0  0  0  0  0  0  0  0  0  0  0  0
  -23.9454    7.8298    8.9232 C   0  0  0  0  0  0  0  0  0  0  0  0
  -24.7393    7.5273    6.2874 C   0  0  0  0  0  0  0  0  0  0  0  0
  -25.0968    6.8400    5.1238 C   0  0  0  0  0  0  0  0  0  0  0  0
  -26.2845    6.1039    5.0861 C   0  0  0  0  0  0  0  0  0  0  0  0
  -27.1134    6.0611    6.2119 C   0  0  0  0  0  0  0  0  0  0  0  0
  -26.7510    6.7502    7.3698 C   0  0  0  0  0  0  0  0  0  0  0  0
  -25.5702    7.4786    7.4126 C   0  0  0  0  0  0  0  0  0  0  0  0
  -26.2527    8.4330    9.5712 C   0  0  0  0  0  0  0  0  0  0  0  0
  -26.4865    7.3423   10.6692 C   0  0  0  0  0  0  0  0  0  0  0  0
  -27.4180    7.8200   11.8351 C   0  0  0  0  0  0  0  0  0  0  0  0
  -27.7164    6.8509   12.9203 N   0  3  0  0  0  0  0  0  0  0  0  0
  -29.0027    7.1673   13.5934 C   0  0  0  0  0  0  0  0  0  0  0  0
  -26.5779    6.7869   13.9009 C   0  0  0  0  0  0  0  0  0  0  0  0
  -22.0279    6.6279   11.9813 C   0  0  0  0  0  0  0  0  0  0  0  0
  -20.6215    6.2856   12.4099 C   0  0  0  0  0  0  0  0  0  0  0  0
  -22.9199    6.5807   12.8134 O   0  0  0  0  0  0  0  0  0  0  0  0
  1  7  1  0  0  0  0
  1  9  1  0  0  0  0
  2  8  1  0  0  0  0
  2 14  1  0  0  0  0
  2 15  1  0  0  0  0
  3  4  2  0  0  0  0
  3  8  1  0  0  0  0
  4  5  1  0  0  0  0
  4 21  1  0  0  0  0
  5  6  2  0  0  0  0
  6  7  1  0  0  0  0
  7  8  2  0  0  0  0
  9 10  2  0  0  0  0
  9 14  1  0  0  0  0
 10 11  1  0  0  0  0
 11 12  2  0  0  0  0
 12 13  1  0  0  0  0
 13 14  2  0  0  0  0
 15 16  1  0  0  0  0
 16 17  1  0  0  0  0
 17 18  1  0  0  0  0
 18 19  1  0  0  0  0
 18 20  1  0  0  0  0
 21 22  1  0  0  0  0
 21 23  2  0  0  0  0
M  CHG  1  18   1
M  END
>  <CHROM.1>
-54.44167029,-179.76765136,170.55125346,179.24012929,-34.97914620,-24.69977081
7.28989021,9.42889775,-1.34502950,0.02234713,1.63511543

>  <Name>


>  <RI>
0

>  <Rbt.Current_Directory>
/home/itssahil/PROJECTS/Mol_Feturizer/New_Systems/rnas/1lvj

>  <Rbt.Executable>
rbdock ($Id: //depot/dev/client3/rdock/2013.1/src/exe/rbdock.cxx#4 $)

>  <Rbt.Library>
libRbt.so (2013.1, Build901 2013/11/27)

>  <Rbt.Parameter_File>
/export/apps/rDock/src/rDock_2013.1_src/data/scripts/dock_solv.prm

>  <Rbt.Receptor>
prm/pocket_docking_5.prm

>  <SCORE>
-31.9138

>  <SCORE.INTER>
-27.8943

>  <SCORE.INTER.CONST>
1

>  <SCORE.INTER.POLAR>
0

>  <SCORE.INTER.ROT>
5

>  <SCORE.INTER.SOLV>
11.6128

>  <SCORE.INTER.VDW>
-29.4005

>  <SCORE.INTER.norm>
-1.2128

>  <SCORE.INTRA>
-4.01943

>  <SCORE.INTRA.DIHEDRAL>
-5.94161

>  <SCORE.INTRA.DIHEDRAL.0>
8.06479

>  <SCORE.INTRA.POLAR>
0

>  <SCORE.INTRA.POLAR.0>
0

>  <SCORE.INTRA.REPUL>
0

>  <SCORE.INTRA.REPUL.0>
0

>  <SCORE.INTRA.SOLV>
0.684619

>  <SCORE.INTRA.SOLV.lig_0>
-29.8054

>  <SCORE.INTRA.VDW>
-1.39094

>  <SCORE.INTRA.VDW.0>
2.61447

>  <SCORE.INTRA.norm>
-0.174758

>  <SCORE.RESTR>
0

>  <SCORE.RESTR.CAVITY>
0

>  <SCORE.RESTR.norm>
0

>  <SCORE.SYSTEM>
0

>  <SCORE.SYSTEM.CONST>
0

>  <SCORE.SYSTEM.DIHEDRAL>
0

>  <SCORE.SYSTEM.SOLV>
0

>  <SCORE.SYSTEM.norm>
0

>  <SCORE.heavy>
23

>  <SCORE.norm>
-1.38756

>  <RMSD>
4.075

$$$$

 OpenBabel11021811403D
libRbt.so/2013.1/901 2013/11/27
 23 25  0  0  0  0  0  0  0  0999 V2000
  -23.4147    8.4808    6.4810 S   0  0  0  0  0  0  0  0  0  0  0  0
  -25.4677    7.5711    8.4372 N   0  0  0  0  0  0  0  0  0  0  0  0
  -23.9367    6.7322   10.1004 C   0  0  0  0  0  0  0  0  0  0  0  0
  -22.6151    6.5144   10.5117 C   0  0  0  0  0  0  0  0  0  0  0  0
  -21.5550    6.9016    9.6976 C   0  0  0  0  0  0  0  0  0  0  0  0
  -21.8074    7.5028    8.4694 C   0  0  0  0  0  0  0  0  0  0  0  0
  -23.1168    7.7219    8.0493 C   0  0  0  0  0  0  0  0  0  0  0  0
  -24.1904    7.3385    8.8620 C   0  0  0  0  0  0  0  0  0  0  0  0
  -24.7739    7.4030    6.1557 C   0  0  0  0  0  0  0  0  0  0  0  0
  -24.9685    6.8887    4.8704 C   0  0  0  0  0  0  0  0  0  0  0  0
  -26.0491    6.0394    4.6158 C   0  0  0  0  0  0  0  0  0  0  0  0
  -26.9346    5.7105    5.6473 C   0  0  0  0  0  0  0  0  0  0  0  0
  -26.7350    6.2280    6.9277 C   0  0  0  0  0  0  0  0  0  0  0  0
  -25.6605    7.0681    7.1854 C   0  0  0  0  0  0  0  0  0  0  0  0
  -26.5913    7.5550    9.4065 C   0  0  0  0  0  0  0  0  0  0  0  0
  -26.4014    8.3644   10.7327 C   0  0  0  0  0  0  0  0  0  0  0  0
  -27.0766    7.6919   11.9765 C   0  0  0  0  0  0  0  0  0  0  0  0
  -28.1219    8.4643   12.6952 N   0  3  0  0  0  0  0  0  0  0  0  0
  -27.5300    9.5711   13.4903 C   0  0  0  0  0  0  0  0  0  0  0  0
  -28.9598    7.5534   13.5497 C   0  0  0  0  0  0  0  0  0  0  0  0
  -22.3310    5.8576   11.8324 C   0  0  0  0  0  0  0  0  0  0  0  0
  -23.4304    5.2783   12.6894 C   0  0  0  0  0  0  0  0  0  0  0  0
  -21.1744    5.7316   12.2021 O   0  0  0  0  0  0  0  0  0  0  0  0
  1  7  1  0  0  0  0
  1  9  1  0  0  0  0
  2  8  1  0  0  0  0
  2 14  1  0  0  0  0
  2 15  1  0  0  0  0
  3  4  2  0  0  0  0
  3  8  1  0  0  0  0
  4  5  1  0  0  0  0
  4 21  1  0  0  0  0
  5  6  2  0  0  0  0
  6  7  1  0  0  0  0
  7  8  2  0  0  0  0
  9 10  2  0  0  0  0
  9 14  1  0  0  0  0
 10 11  1  0  0  0  0
 11 12  2  0  0  0  0
 12 13  1  0  0  0  0
 13 14  2  0  0  0  0
 15 16  1  0  0  0  0
 16 17  1  0  0  0  0
 17 18  1  0  0  0  0
 18 19  1  0  0  0  0
 18 20  1  0  0  0  0
 21 22  1  0  0  0  0
 21 23  2  0  0  0  0
M  CHG  1  18   1
M  END
>  <CHROM.1>
47.64484980,6.70441474,-144.88601056,-120.19919320,46.64503998,-24.87803206
7.22937612,9.30147083,-1.28847339,-0.20841302,1.54673148

>  <Name>


>  <RI>
0

>  <Rbt.Current_Directory>
/home/itssahil/PROJECTS/Mol_Feturizer/New_Systems/rnas/1lvj

>  <Rbt.Executable>
rbdock ($Id: //depot/dev/client3/rdock/2013.1/src/exe/rbdock.cxx#4 $)

>  <Rbt.Library>
libRbt.so (2013.1, Build901 2013/11/27)

>  <Rbt.Parameter_File>
/export/apps/rDock/src/rDock_2013.1_src/data/scripts/dock_solv.prm

>  <Rbt.Receptor>
prm/pocket_docking_5.prm

>  <SCORE>
-37.3311

>  <SCORE.INTER>
-36.5802

>  <SCORE.INTER.CONST>
1

>  <SCORE.INTER.POLAR>
-1.13201

>  <SCORE.INTER.ROT>
5

>  <SCORE.INTER.SOLV>
15.0125

>  <SCORE.INTER.VDW>
-32.5509

>  <SCORE.INTER.norm>
-1.59044

>  <SCORE.INTRA>
-0.750971

>  <SCORE.INTRA.DIHEDRAL>
1.80099

>  <SCORE.INTRA.DIHEDRAL.0>
8.06479

>  <SCORE.INTRA.POLAR>
0

>  <SCORE.INTRA.POLAR.0>
0

>  <SCORE.INTRA.REPUL>
0

>  <SCORE.INTRA.REPUL.0>
0

>  <SCORE.INTRA.SOLV>
1.0329

>  <SCORE.INTRA.SOLV.lig_0>
-29.8054

>  <SCORE.INTRA.VDW>
-2.16792

>  <SCORE.INTRA.VDW.0>
2.61447

>  <SCORE.INTRA.norm>
-0.0326509

>  <SCORE.RESTR>
0

>  <SCORE.RESTR.CAVITY>
0

>  <SCORE.RESTR.norm>
0

>  <SCORE.SYSTEM>
0

>  <SCORE.SYSTEM.CONST>
0

>  <SCORE.SYSTEM.DIHEDRAL>
0

>  <SCORE.SYSTEM.SOLV>
0

>  <SCORE.SYSTEM.norm>
0

>  <SCORE.heavy>
23

>  <SCORE.norm>
-1.62309

>  <RMSD>
4.081

$$$$

 OpenBabel11021811403D
libRbt.so/2013.1/901 2013/11/27
 23 25  0  0  0  0  0  0  0  0999 V2000
  -23.0804    8.4235    6.6492 S   0  0  0  0  0  0  0  0  0  0  0  0
  -25.1607    8.1995    8.7685 N   0  0  0  0  0  0  0  0  0  0  0  0
  -23.7271    7.3166   10.4946 C   0  0  0  0  0  0  0  0  0  0  0  0
  -22.4494    6.9073   10.8983 C   0  0  0  0  0  0  0  0  0  0  0  0
  -21.3802    6.9695   10.0098 C   0  0  0  0  0  0  0  0  0  0  0  0
  -21.5807    7.4351    8.7149 C   0  0  0  0  0  0  0  0  0  0  0  0
  -22.8467    7.8422    8.3019 C   0  0  0  0  0  0  0  0  0  0  0  0
  -23.9284    7.7862    9.1889 C   0  0  0  0  0  0  0  0  0  0  0  0
  -24.6319    7.5926    6.5175 C   0  0  0  0  0  0  0  0  0  0  0  0
  -24.9866    6.9552    5.3250 C   0  0  0  0  0  0  0  0  0  0  0  0
  -26.2184    6.3025    5.2231 C   0  0  0  0  0  0  0  0  0  0  0  0
  -27.0939    6.2931    6.3139 C   0  0  0  0  0  0  0  0  0  0  0  0
  -26.7340    6.9319    7.5010 C   0  0  0  0  0  0  0  0  0  0  0  0
  -25.5097    7.5773    7.6074 C   0  0  0  0  0  0  0  0  0  0  0  0
  -26.2147    8.5314    9.7590 C   0  0  0  0  0  0  0  0  0  0  0  0
  -26.5543    7.4432   10.8315 C   0  0  0  0  0  0  0  0  0  0  0  0
  -27.3965    7.9927   12.0332 C   0  0  0  0  0  0  0  0  0  0  0  0
  -27.5645    7.1120   13.2172 N   0  3  0  0  0  0  0  0  0  0  0  0
  -28.4364    5.9487   12.9104 C   0  0  0  0  0  0  0  0  0  0  0  0
  -28.0794    7.8969   14.3923 C   0  0  0  0  0  0  0  0  0  0  0  0
  -22.2232    6.3941   12.2919 C   0  0  0  0  0  0  0  0  0  0  0  0
  -23.3499    6.2646   13.2881 C   0  0  0  0  0  0  0  0  0  0  0  0
  -21.1099    6.0127   12.6163 O   0  0  0  0  0  0  0  0  0  0  0  0
  1  7  1  0  0  0  0
  1  9  1  0  0  0  0
  2  8  1  0  0  0  0
  2 14  1  0  0  0  0
  2 15  1  0  0  0  0
  3  4  2  0  0  0  0
  3  8  1  0  0  0  0
  4  5  1  0  0  0  0
  4 21  1  0  0  0  0
  5  6  2  0  0  0  0
  6  7  1  0  0  0  0
  7  8  2  0  0  0  0
  9 10  2  0  0  0  0
  9 14  1  0  0  0  0
 10 11  1  0  0  0  0
 11 12  2  0  0  0  0
 12 13  1  0  0  0  0
 13 14  2  0  0  0  0
 15 16  1  0  0  0  0
 16 17  1  0  0  0  0
 17 18  1  0  0  0  0
 18 19  1  0  0  0  0
 18 20  1  0  0  0  0
 21 22  1  0  0  0  0
 21 23  2  0  0  0  0
M  CHG  1  18   1
M  END
>  <CHROM.1>
-53.74611303,1.65036937,165.52446411,-169.26474153,50.38270256,-24.74948852
7.27811743,9.65094476,-1.29608280,-0.02468756,1.65338329

>  <Name>


>  <RI>
0

>  <Rbt.Current_Directory>
/home/itssahil/PROJECTS/Mol_Feturizer/New_Systems/rnas/1lvj

>  <Rbt.Executable>
rbdock ($Id: //depot/dev/client3/rdock/2013.1/src/exe/rbdock.cxx#4 $)

>  <Rbt.Library>
libRbt.so (2013.1, Build901 2013/11/27)

>  <Rbt.Parameter_File>
/export/apps/rDock/src/rDock_2013.1_src/data/scripts/dock_solv.prm

>  <Rbt.Receptor>
prm/pocket_docking_5.prm

>  <SCORE>
-32.1197

>  <SCORE.INTER>
-28.5791

>  <SCORE.INTER.CONST>
1

>  <SCORE.INTER.POLAR>
0

>  <SCORE.INTER.ROT>
5

>  <SCORE.INTER.SOLV>
9.84981

>  <SCORE.INTER.VDW>
-29.2693

>  <SCORE.INTER.norm>
-1.24257

>  <SCORE.INTRA>
-3.54065

>  <SCORE.INTRA.DIHEDRAL>
-5.95742

>  <SCORE.INTRA.DIHEDRAL.0>
8.06479

>  <SCORE.INTRA.POLAR>
0

>  <SCORE.INTRA.POLAR.0>
0

>  <SCORE.INTRA.REPUL>
0

>  <SCORE.INTRA.REPUL.0>
0

>  <SCORE.INTRA.SOLV>
1.57531

>  <SCORE.INTRA.SOLV.lig_0>
-29.8054

>  <SCORE.INTRA.VDW>
-1.34959

>  <SCORE.INTRA.VDW.0>
2.61447

>  <SCORE.INTRA.norm>
-0.153941

>  <SCORE.RESTR>
0

>  <SCORE.RESTR.CAVITY>
0

>  <SCORE.RESTR.norm>
0

>  <SCORE.SYSTEM>
0

>  <SCORE.SYSTEM.CONST>
0

>  <SCORE.SYSTEM.DIHEDRAL>
0

>  <SCORE.SYSTEM.SOLV>
0

>  <SCORE.SYSTEM.norm>
0

>  <SCORE.heavy>
23

>  <SCORE.norm>
-1.39651

>  <RMSD>
4.086

$$$$

 OpenBabel11021811403D
libRbt.so/2013.1/901 2013/11/27
 23 25  0  0  0  0  0  0  0  0999 V2000
  -23.0677    8.3837    6.6287 S   0  0  0  0  0  0  0  0  0  0  0  0
  -25.1518    8.2121    8.7491 N   0  0  0  0  0  0  0  0  0  0  0  0
  -23.7321    7.3255   10.4847 C   0  0  0  0  0  0  0  0  0  0  0  0
  -22.4608    6.9013   10.8932 C   0  0  0  0  0  0  0  0  0  0  0  0
  -21.3905    6.9385   10.0046 C   0  0  0  0  0  0  0  0  0  0  0  0
  -21.5835    7.3940    8.7049 C   0  0  0  0  0  0  0  0  0  0  0  0
  -22.8433    7.8157    8.2872 C   0  0  0  0  0  0  0  0  0  0  0  0
  -23.9260    7.7848    9.1743 C   0  0  0  0  0  0  0  0  0  0  0  0
  -24.6314    7.5747    6.5046 C   0  0  0  0  0  0  0  0  0  0  0  0
  -24.9951    6.9306    5.3184 C   0  0  0  0  0  0  0  0  0  0  0  0
  -26.2365    6.2954    5.2225 C   0  0  0  0  0  0  0  0  0  0  0  0
  -27.1124    6.3100    6.3129 C   0  0  0  0  0  0  0  0  0  0  0  0
  -26.7434    6.9553    7.4937 C   0  0  0  0  0  0  0  0  0  0  0  0
  -25.5096    7.5835    7.5942 C   0  0  0  0  0  0  0  0  0  0  0  0
  -26.2011    8.5697    9.7356 C   0  0  0  0  0  0  0  0  0  0  0  0
  -26.5300    7.5129   10.8424 C   0  0  0  0  0  0  0  0  0  0  0  0
  -27.4543    8.0672   11.9798 C   0  0  0  0  0  0  0  0  0  0  0  0
  -27.6417    7.2242   13.1881 N   0  3  0  0  0  0  0  0  0  0  0  0
  -28.3608    5.9645   12.8662 C   0  0  0  0  0  0  0  0  0  0  0  0
  -28.3387    7.9999   14.2719 C   0  0  0  0  0  0  0  0  0  0  0  0
  -22.2427    6.3988   12.2919 C   0  0  0  0  0  0  0  0  0  0  0  0
  -20.9002    5.8894   12.7574 C   0  0  0  0  0  0  0  0  0  0  0  0
  -23.1572    6.4567   13.0984 O   0  0  0  0  0  0  0  0  0  0  0  0
  1  7  1  0  0  0  0
  1  9  1  0  0  0  0
  2  8  1  0  0  0  0
  2 14  1  0  0  0  0
  2 15  1  0  0  0  0
  3  4  2  0  0  0  0
  3  8  1  0  0  0  0
  4  5  1  0  0  0  0
  4 21  1  0  0  0  0
  5  6  2  0  0  0  0
  6  7  1  0  0  0  0
  7  8  2  0  0  0  0
  9 10  2  0  0  0  0
  9 14  1  0  0  0  0
 10 11  1  0  0  0  0
 11 12  2  0  0  0  0
 12 13  1  0  0  0  0
 13 14  2  0  0  0  0
 15 16  1  0  0  0  0
 16 17  1  0  0  0  0
 17 18  1  0  0  0  0
 18 19  1  0  0  0  0
 18 20  1  0  0  0  0
 21 22  1  0  0  0  0
 21 23  2  0  0  0  0
M  CHG  1  18   1
M  END
>  <CHROM.1>
-52.13922646,177.90340083,169.73446617,-170.00963920,54.45546339,-24.75203185
7.29431225,9.63202653,-1.28260018,-0.04352516,1.64443311

>  <Name>


>  <RI>
0

>  <Rbt.Current_Directory>
/home/itssahil/PROJECTS/Mol_Feturizer/New_Systems/rnas/1lvj

>  <Rbt.Executable>
rbdock ($Id: //depot/dev/client3/rdock/2013.1/src/exe/rbdock.cxx#4 $)

>  <Rbt.Library>
libRbt.so (2013.1, Build901 2013/11/27)

>  <Rbt.Parameter_File>
/export/apps/rDock/src/rDock_2013.1_src/data/scripts/dock_solv.prm

>  <Rbt.Receptor>
prm/pocket_docking_7.prm

>  <SCORE>
-32.4133

>  <SCORE.INTER>
-28.8481

>  <SCORE.INTER.CONST>
1

>  <SCORE.INTER.POLAR>
0

>  <SCORE.INTER.ROT>
5

>  <SCORE.INTER.SOLV>
9.89745

>  <SCORE.INTER.VDW>
-29.4645

>  <SCORE.INTER.norm>
-1.25426

>  <SCORE.INTRA>
-3.56526

>  <SCORE.INTRA.DIHEDRAL>
-6.43392

>  <SCORE.INTRA.DIHEDRAL.0>
8.06479

>  <SCORE.INTRA.POLAR>
0

>  <SCORE.INTRA.POLAR.0>
0

>  <SCORE.INTRA.REPUL>
0

>  <SCORE.INTRA.REPUL.0>
0

>  <SCORE.INTRA.SOLV>
0.681541

>  <SCORE.INTRA.SOLV.lig_0>
-29.8054

>  <SCORE.INTRA.VDW>
-0.689067

>  <SCORE.INTRA.VDW.0>
2.61447

>  <SCORE.INTRA.norm>
-0.155011

>  <SCORE.RESTR>
0

>  <SCORE.RESTR.CAVITY>
0

>  <SCORE.RESTR.norm>
0

>  <SCORE.SYSTEM>
0

>  <SCORE.SYSTEM.CONST>
0

>  <SCORE.SYSTEM.DIHEDRAL>
0

>  <SCORE.SYSTEM.SOLV>
0

>  <SCORE.SYSTEM.norm>
0

>  <SCORE.heavy>
23

>  <SCORE.norm>
-1.40927

>  <RMSD>
4.126

$$$$

 OpenBabel11021811403D
libRbt.so/2013.1/901 2013/11/27
 23 25  0  0  0  0  0  0  0  0999 V2000
  -23.0219    8.3706    6.5881 S   0  0  0  0  0  0  0  0  0  0  0  0
  -25.1442    8.1945    8.6700 N   0  0  0  0  0  0  0  0  0  0  0  0
  -23.7578    7.2970   10.4269 C   0  0  0  0  0  0  0  0  0  0  0  0
  -22.4949    6.8682   10.8563 C   0  0  0  0  0  0  0  0  0  0  0  0
  -21.4088    6.9069    9.9872 C   0  0  0  0  0  0  0  0  0  0  0  0
  -21.5775    7.3684    8.6863 C   0  0  0  0  0  0  0  0  0  0  0  0
  -22.8286    7.7948    8.2480 C   0  0  0  0  0  0  0  0  0  0  0  0
  -23.9271    7.7625    9.1153 C   0  0  0  0  0  0  0  0  0  0  0  0
  -24.5849    7.5657    6.4324 C   0  0  0  0  0  0  0  0  0  0  0  0
  -24.9286    6.9276    5.2370 C   0  0  0  0  0  0  0  0  0  0  0  0
  -26.1695    6.2956    5.1161 C   0  0  0  0  0  0  0  0  0  0  0  0
  -27.0648    6.3074    6.1906 C   0  0  0  0  0  0  0  0  0  0  0  0
  -26.7156    6.9468    7.3807 C   0  0  0  0  0  0  0  0  0  0  0  0
  -25.4826    7.5717    7.5061 C   0  0  0  0  0  0  0  0  0  0  0  0
  -26.2102    8.5501    9.6391 C   0  0  0  0  0  0  0  0  0  0  0  0
  -26.5911    7.4724   10.7084 C   0  0  0  0  0  0  0  0  0  0  0  0
  -27.4256    8.0469   11.9038 C   0  0  0  0  0  0  0  0  0  0  0  0
  -27.7383    7.1302   13.0298 N   0  3  0  0  0  0  0  0  0  0  0  0
  -28.8825    7.6293   13.8356 C   0  0  0  0  0  0  0  0  0  0  0  0
  -26.5190    6.9006   13.8799 C   0  0  0  0  0  0  0  0  0  0  0  0
  -22.3031    6.3592   12.2565 C   0  0  0  0  0  0  0  0  0  0  0  0
  -20.9605    5.8840   12.7568 C   0  0  0  0  0  0  0  0  0  0  0  0
  -23.2419    6.3834   13.0364 O   0  0  0  0  0  0  0  0  0  0  0  0
  1  7  1  0  0  0  0
  1  9  1  0  0  0  0
  2  8  1  0  0  0  0
  2 14  1  0  0  0  0
  2 15  1  0  0  0  0
  3  4  2  0  0  0  0
  3  8  1  0  0  0  0
  4  5  1  0  0  0  0
  4 21  1  0  0  0  0
  5  6  2  0  0  0  0
  6  7  1  0  0  0  0
  7  8  2  0  0  0  0
  9 10  2  0  0  0  0
  9 14  1  0  0  0  0
 10 11  1  0  0  0  0
 11 12  2  0  0  0  0
 12 13  1  0  0  0  0
 13 14  2  0  0  0  0
 15 16  1  0  0  0  0
 16 17  1  0  0  0  0
 17 18  1  0  0  0  0
 18 19  1  0  0  0  0
 18 20  1  0  0  0  0
 21 22  1  0  0  0  0
 21 23  2  0  0  0  0
M  CHG  1  18   1
M  END
>  <CHROM.1>
-53.92617880,179.80634972,164.59461660,-174.89057295,-40.54969499,-24.69772553
7.29560297,9.59274185,-1.35594449,-0.07111936,1.64319483

>  <Name>


>  <RI>
0

>  <Rbt.Current_Directory>
/home/itssahil/PROJECTS/Mol_Feturizer/New_Systems/rnas/1lvj

>  <Rbt.Executable>
rbdock ($Id: //depot/dev/client3/rdock/2013.1/src/exe/rbdock.cxx#4 $)

>  <Rbt.Library>
libRbt.so (2013.1, Build901 2013/11/27)

>  <Rbt.Parameter_File>
/export/apps/rDock/src/rDock_2013.1_src/data/scripts/dock_solv.prm

>  <Rbt.Receptor>
prm/pocket_docking_8.prm

>  <SCORE>
-32.1965

>  <SCORE.INTER>
-28.2927

>  <SCORE.INTER.CONST>
1

>  <SCORE.INTER.POLAR>
0

>  <SCORE.INTER.ROT>
5

>  <SCORE.INTER.SOLV>
11.1672

>  <SCORE.INTER.VDW>
-29.5175

>  <SCORE.INTER.norm>
-1.23012

>  <SCORE.INTRA>
-3.90382

>  <SCORE.INTRA.DIHEDRAL>
-5.75834

>  <SCORE.INTRA.DIHEDRAL.0>
8.06479

>  <SCORE.INTRA.POLAR>
0

>  <SCORE.INTRA.POLAR.0>
0

>  <SCORE.INTRA.REPUL>
0

>  <SCORE.INTRA.REPUL.0>
0

>  <SCORE.INTRA.SOLV>
0.685109

>  <SCORE.INTRA.SOLV.lig_0>
-29.8054

>  <SCORE.INTRA.VDW>
-1.3672

>  <SCORE.INTRA.VDW.0>
2.61447

>  <SCORE.INTRA.norm>
-0.169731

>  <SCORE.RESTR>
0

>  <SCORE.RESTR.CAVITY>
0

>  <SCORE.RESTR.norm>
0

>  <SCORE.SYSTEM>
0

>  <SCORE.SYSTEM.CONST>
0

>  <SCORE.SYSTEM.DIHEDRAL>
0

>  <SCORE.SYSTEM.SOLV>
0

>  <SCORE.SYSTEM.norm>
0

>  <SCORE.heavy>
23

>  <SCORE.norm>
-1.39985

>  <RMSD>
4.127

$$$$

 OpenBabel11021811403D
libRbt.so/2013.1/901 2013/11/27
 23 25  0  0  0  0  0  0  0  0999 V2000
  -23.2320    8.4422    6.5086 S   0  0  0  0  0  0  0  0  0  0  0  0
  -25.2629    8.0448    8.6502 N   0  0  0  0  0  0  0  0  0  0  0  0
  -23.7497    7.2315   10.3421 C   0  0  0  0  0  0  0  0  0  0  0  0
  -22.4420    6.9019   10.7223 C   0  0  0  0  0  0  0  0  0  0  0  0
  -21.3919    7.0501    9.8214 C   0  0  0  0  0  0  0  0  0  0  0  0
  -21.6410    7.5225    8.5374 C   0  0  0  0  0  0  0  0  0  0  0  0
  -22.9370    7.8507    8.1478 C   0  0  0  0  0  0  0  0  0  0  0  0
  -24.0001    7.7079    9.0475 C   0  0  0  0  0  0  0  0  0  0  0  0
  -24.7263    7.5116    6.3824 C   0  0  0  0  0  0  0  0  0  0  0  0
  -25.0543    6.8716    5.1836 C   0  0  0  0  0  0  0  0  0  0  0  0
  -26.2412    6.1397    5.0863 C   0  0  0  0  0  0  0  0  0  0  0  0
  -27.0988    6.0539    6.1878 C   0  0  0  0  0  0  0  0  0  0  0  0
  -26.7657    6.6958    7.3812 C   0  0  0  0  0  0  0  0  0  0  0  0
  -25.5858    7.4198    7.4830 C   0  0  0  0  0  0  0  0  0  0  0  0
  -26.3228    8.2891    9.6596 C   0  0  0  0  0  0  0  0  0  0  0  0
  -26.6290    7.1314   10.6675 C   0  0  0  0  0  0  0  0  0  0  0  0
  -26.7127    7.6073   12.1581 C   0  0  0  0  0  0  0  0  0  0  0  0
  -27.9294    8.3483   12.5779 N   0  3  0  0  0  0  0  0  0  0  0  0
  -27.5840    9.5551   13.3728 C   0  0  0  0  0  0  0  0  0  0  0  0
  -28.8699    7.4425   13.3243 C   0  0  0  0  0  0  0  0  0  0  0  0
  -22.1627    6.3822   12.1037 C   0  0  0  0  0  0  0  0  0  0  0  0
  -23.2646    6.1581   13.1108 C   0  0  0  0  0  0  0  0  0  0  0  0
  -21.0216    6.0734   12.4081 O   0  0  0  0  0  0  0  0  0  0  0  0
  1  7  1  0  0  0  0
  1  9  1  0  0  0  0
  2  8  1  0  0  0  0
  2 14  1  0  0  0  0
  2 15  1  0  0  0  0
  3  4  2  0  0  0  0
  3  8  1  0  0  0  0
  4  5  1  0  0  0  0
  4 21  1  0  0  0  0
  5  6  2  0  0  0  0
  6  7  1  0  0  0  0
  7  8  2  0  0  0  0
  9 10  2  0  0  0  0
  9 14  1  0  0  0  0
 10 11  1  0  0  0  0
 11 12  2  0  0  0  0
 12 13  1  0  0  0  0
 13 14  2  0  0  0  0
 15 16  1  0  0  0  0
 16 17  1  0  0  0  0
 17 18  1  0  0  0  0
 18 19  1  0  0  0  0
 18 20  1  0  0  0  0
 21 22  1  0  0  0  0
 21 23  2  0  0  0  0
M  CHG  1  18   1
M  END
>  <CHROM.1>
-57.06685823,1.80129968,132.70444866,74.89758835,-14.09571021,-24.77577805
7.39718068,9.47216777,-1.30514696,-0.12506757,1.55283647

>  <Name>


>  <RI>
0

>  <Rbt.Current_Directory>
/home/itssahil/PROJECTS/Mol_Feturizer/New_Systems/rnas/1lvj

>  <Rbt.Executable>
rbdock ($Id: //depot/dev/client3/rdock/2013.1/src/exe/rbdock.cxx#4 $)

>  <Rbt.Library>
libRbt.so (2013.1, Build901 2013/11/27)

>  <Rbt.Parameter_File>
/export/apps/rDock/src/rDock_2013.1_src/data/scripts/dock_solv.prm

>  <Rbt.Receptor>
prm/pocket_docking_5.prm

>  <SCORE>
-32.0792

>  <SCORE.INTER>
-31.5144

>  <SCORE.INTER.CONST>
1

>  <SCORE.INTER.POLAR>
-0.7367

>  <SCORE.INTER.ROT>
5

>  <SCORE.INTER.SOLV>
15.2871

>  <SCORE.INTER.VDW>
-30.583

>  <SCORE.INTER.norm>
-1.37019

>  <SCORE.INTRA>
-0.578449

>  <SCORE.INTRA.DIHEDRAL>
1.16854

>  <SCORE.INTRA.DIHEDRAL.0>
8.06479

>  <SCORE.INTRA.POLAR>
0

>  <SCORE.INTRA.POLAR.0>
0

>  <SCORE.INTRA.REPUL>
0

>  <SCORE.INTRA.REPUL.0>
0

>  <SCORE.INTRA.SOLV>
1.9885

>  <SCORE.INTRA.SOLV.lig_0>
-29.8054

>  <SCORE.INTRA.VDW>
-2.15697

>  <SCORE.INTRA.VDW.0>
2.61447

>  <SCORE.INTRA.norm>
-0.0251499

>  <SCORE.RESTR>
0.0136624

>  <SCORE.RESTR.CAVITY>
0.0136624

>  <SCORE.RESTR.norm>
0.000594016

>  <SCORE.SYSTEM>
0

>  <SCORE.SYSTEM.CONST>
0

>  <SCORE.SYSTEM.DIHEDRAL>
0

>  <SCORE.SYSTEM.SOLV>
0

>  <SCORE.SYSTEM.norm>
0

>  <SCORE.heavy>
23

>  <SCORE.norm>
-1.39475

>  <RMSD>
4.128

$$$$

 OpenBabel11021811403D
libRbt.so/2013.1/901 2013/11/27
 23 25  0  0  0  0  0  0  0  0999 V2000
  -23.0995    8.4052    6.4846 S   0  0  0  0  0  0  0  0  0  0  0  0
  -25.1613    8.2108    8.6248 N   0  0  0  0  0  0  0  0  0  0  0  0
  -23.7085    7.3710   10.3562 C   0  0  0  0  0  0  0  0  0  0  0  0
  -22.4250    6.9774   10.7576 C   0  0  0  0  0  0  0  0  0  0  0  0
  -21.3634    7.0284    9.8593 C   0  0  0  0  0  0  0  0  0  0  0  0
  -21.5772    7.4670    8.5571 C   0  0  0  0  0  0  0  0  0  0  0  0
  -22.8490    7.8582    8.1465 C   0  0  0  0  0  0  0  0  0  0  0  0
  -23.9232    7.8133    9.0433 C   0  0  0  0  0  0  0  0  0  0  0  0
  -24.6469    7.5625    6.3820 C   0  0  0  0  0  0  0  0  0  0  0  0
  -25.0072    6.8994    5.2052 C   0  0  0  0  0  0  0  0  0  0  0  0
  -26.2357    6.2374    5.1264 C   0  0  0  0  0  0  0  0  0  0  0  0
  -27.1024    6.2444    6.2242 C   0  0  0  0  0  0  0  0  0  0  0  0
  -26.7369    6.9088    7.3955 C   0  0  0  0  0  0  0  0  0  0  0  0
  -25.5158    7.5636    7.4791 C   0  0  0  0  0  0  0  0  0  0  0  0
  -26.2094    8.5559    9.6170 C   0  0  0  0  0  0  0  0  0  0  0  0
  -26.5785    7.4628   10.6747 C   0  0  0  0  0  0  0  0  0  0  0  0
  -27.3647    8.0270   11.9071 C   0  0  0  0  0  0  0  0  0  0  0  0
  -27.6773    7.0877   13.0143 N   0  3  0  0  0  0  0  0  0  0  0  0
  -28.8142    7.5759   13.8370 C   0  0  0  0  0  0  0  0  0  0  0  0
  -26.4551    6.8318   13.8527 C   0  0  0  0  0  0  0  0  0  0  0  0
  -22.1845    6.4933   12.1591 C   0  0  0  0  0  0  0  0  0  0  0  0
  -20.8083    6.1094   12.6464 C   0  0  0  0  0  0  0  0  0  0  0  0
  -23.1137    6.4638   12.9503 O   0  0  0  0  0  0  0  0  0  0  0  0
  1  7  1  0  0  0  0
  1  9  1  0  0  0  0
  2  8  1  0  0  0  0
  2 14  1  0  0  0  0
  2 15  1  0  0  0  0
  3  4  2  0  0  0  0
  3  8  1  0  0  0  0
  4  5  1  0  0  0  0
  4 21  1  0  0  0  0
  5  6  2  0  0  0  0
  6  7  1  0  0  0  0
  7  8  2  0  0  0  0
  9 10  2  0  0  0  0
  9 14  1  0  0  0  0
 10 11  1  0  0  0  0
 11 12  2  0  0  0  0
 12 13  1  0  0  0  0
 13 14  2  0  0  0  0
 15 16  1  0  0  0  0
 16 17  1  0  0  0  0
 17 18  1  0  0  0  0
 18 19  1  0  0  0  0
 18 20  1  0  0  0  0
 21 22  1  0  0  0  0
 21 23  2  0  0  0  0
M  CHG  1  18   1
M  END
>  <CHROM.1>
-56.38990638,-177.66738992,163.41523250,-175.72373343,-38.69563089,-24.68228509
7.32236729,9.53885212,-1.37107982,-0.04057159,1.63431590

>  <Name>


>  <RI>
0

>  <Rbt.Current_Directory>
/home/itssahil/PROJECTS/Mol_Feturizer/New_Systems/rnas/1lvj

>  <Rbt.Executable>
rbdock ($Id: //depot/dev/client3/rdock/2013.1/src/exe/rbdock.cxx#4 $)

>  <Rbt.Library>
libRbt.so (2013.1, Build901 2013/11/27)

>  <Rbt.Parameter_File>
/export/apps/rDock/src/rDock_2013.1_src/data/scripts/dock_solv.prm

>  <Rbt.Receptor>
prm/pocket_docking_7.prm

>  <SCORE>
-32.0919

>  <SCORE.INTER>
-27.9875

>  <SCORE.INTER.CONST>
1

>  <SCORE.INTER.POLAR>
0

>  <SCORE.INTER.ROT>
5

>  <SCORE.INTER.SOLV>
11.3882

>  <SCORE.INTER.VDW>
-29.3877

>  <SCORE.INTER.norm>
-1.21685

>  <SCORE.INTRA>
-4.10441

>  <SCORE.INTRA.DIHEDRAL>
-5.62296

>  <SCORE.INTRA.DIHEDRAL.0>
8.06479

>  <SCORE.INTRA.POLAR>
0

>  <SCORE.INTRA.POLAR.0>
0

>  <SCORE.INTRA.REPUL>
0

>  <SCORE.INTRA.REPUL.0>
0

>  <SCORE.INTRA.SOLV>
0.690517

>  <SCORE.INTRA.SOLV.lig_0>
-29.8054

>  <SCORE.INTRA.VDW>
-1.63819

>  <SCORE.INTRA.VDW.0>
2.61447

>  <SCORE.INTRA.norm>
-0.178453

>  <SCORE.RESTR>
0

>  <SCORE.RESTR.CAVITY>
0

>  <SCORE.RESTR.norm>
0

>  <SCORE.SYSTEM>
0

>  <SCORE.SYSTEM.CONST>
0

>  <SCORE.SYSTEM.DIHEDRAL>
0

>  <SCORE.SYSTEM.SOLV>
0

>  <SCORE.SYSTEM.norm>
0

>  <SCORE.heavy>
23

>  <SCORE.norm>
-1.3953

>  <RMSD>
4.130

$$$$

 OpenBabel11021811403D
libRbt.so/2013.1/901 2013/11/27
 23 25  0  0  0  0  0  0  0  0999 V2000
  -22.8906    8.3774    6.9199 S   0  0  0  0  0  0  0  0  0  0  0  0
  -24.9778    8.2346    9.0395 N   0  0  0  0  0  0  0  0  0  0  0  0
  -23.5876    7.2664   10.7553 C   0  0  0  0  0  0  0  0  0  0  0  0
  -22.3310    6.7914   11.1535 C   0  0  0  0  0  0  0  0  0  0  0  0
  -21.2607    6.8099   10.2644 C   0  0  0  0  0  0  0  0  0  0  0  0
  -21.4393    7.2972    8.9742 C   0  0  0  0  0  0  0  0  0  0  0  0
  -22.6843    7.7695    8.5667 C   0  0  0  0  0  0  0  0  0  0  0  0
  -23.7668    7.7577    9.4545 C   0  0  0  0  0  0  0  0  0  0  0  0
  -24.4809    7.6243    6.7821 C   0  0  0  0  0  0  0  0  0  0  0  0
  -24.8671    7.0165    5.5840 C   0  0  0  0  0  0  0  0  0  0  0  0
  -26.1293    6.4256    5.4774 C   0  0  0  0  0  0  0  0  0  0  0  0
  -27.0034    6.4483    6.5691 C   0  0  0  0  0  0  0  0  0  0  0  0
  -26.6119    7.0574    7.7618 C   0  0  0  0  0  0  0  0  0  0  0  0
  -25.3575    7.6414    7.8729 C   0  0  0  0  0  0  0  0  0  0  0  0
  -26.0136    8.6080   10.0344 C   0  0  0  0  0  0  0  0  0  0  0  0
  -26.8951    7.4521   10.6149 C   0  0  0  0  0  0  0  0  0  0  0  0
  -26.0715    6.3695   11.3926 C   0  0  0  0  0  0  0  0  0  0  0  0
  -26.1305    6.3927   12.8765 N   0  3  0  0  0  0  0  0  0  0  0  0
  -25.4488    7.5917   13.4291 C   0  0  0  0  0  0  0  0  0  0  0  0
  -25.5676    5.1209   13.4488 C   0  0  0  0  0  0  0  0  0  0  0  0
  -22.1291    6.2544   12.5418 C   0  0  0  0  0  0  0  0  0  0  0  0
  -21.9105    4.7843   12.8057 C   0  0  0  0  0  0  0  0  0  0  0  0
  -22.0794    7.0305   13.4828 O   0  0  0  0  0  0  0  0  0  0  0  0
  1  7  1  0  0  0  0
  1  9  1  0  0  0  0
  2  8  1  0  0  0  0
  2 14  1  0  0  0  0
  2 15  1  0  0  0  0
  3  4  2  0  0  0  0
  3  8  1  0  0  0  0
  4  5  1  0  0  0  0
  4 21  1  0  0  0  0
  5  6  2  0  0  0  0
  6  7  1  0  0  0  0
  7  8  2  0  0  0  0
  9 10  2  0  0  0  0
  9 14  1  0  0  0  0
 10 11  1  0  0  0  0
 11 12  2  0  0  0  0
 12 13  1  0  0  0  0
 13 14  2  0  0  0  0
 15 16  1  0  0  0  0
 16 17  1  0  0  0  0
 17 18  1  0  0  0  0
 18 19  1  0  0  0  0
 18 20  1  0  0  0  0
 21 22  1  0  0  0  0
 21 23  2  0  0  0  0
M  CHG  1  18   1
M  END
>  <CHROM.1>
-82.48705618,109.34967440,61.49879393,103.99116512,51.44071048,-24.27762381
7.10220992,9.77833272,-1.76249571,0.04835512,1.76254989

>  <Name>


>  <RI>
0

>  <Rbt.Current_Directory>
/home/itssahil/PROJECTS/Mol_Feturizer/New_Systems/rnas/1lvj

>  <Rbt.Executable>
rbdock ($Id: //depot/dev/client3/rdock/2013.1/src/exe/rbdock.cxx#4 $)

>  <Rbt.Library>
libRbt.so (2013.1, Build901 2013/11/27)

>  <Rbt.Parameter_File>
/export/apps/rDock/src/rDock_2013.1_src/data/scripts/dock_solv.prm

>  <Rbt.Receptor>
prm/pocket_docking_3.prm

>  <SCORE>
-16.1719

>  <SCORE.INTER>
-20.1985

>  <SCORE.INTER.CONST>
1

>  <SCORE.INTER.POLAR>
0

>  <SCORE.INTER.ROT>
5

>  <SCORE.INTER.SOLV>
9.45095

>  <SCORE.INTER.VDW>
-23.5493

>  <SCORE.INTER.norm>
-0.878197

>  <SCORE.INTRA>
4.00676

>  <SCORE.INTRA.DIHEDRAL>
8.77872

>  <SCORE.INTRA.DIHEDRAL.0>
8.06479

>  <SCORE.INTRA.POLAR>
0

>  <SCORE.INTRA.POLAR.0>
0

>  <SCORE.INTRA.REPUL>
0

>  <SCORE.INTRA.REPUL.0>
0

>  <SCORE.INTRA.SOLV>
1.32318

>  <SCORE.INTRA.SOLV.lig_0>
-29.8054

>  <SCORE.INTRA.VDW>
-1.04419

>  <SCORE.INTRA.VDW.0>
2.61447

>  <SCORE.INTRA.norm>
0.174207

>  <SCORE.RESTR>
0.0198568

>  <SCORE.RESTR.CAVITY>
0.0198568

>  <SCORE.RESTR.norm>
0.000863338

>  <SCORE.SYSTEM>
0

>  <SCORE.SYSTEM.CONST>
0

>  <SCORE.SYSTEM.DIHEDRAL>
0

>  <SCORE.SYSTEM.SOLV>
0

>  <SCORE.SYSTEM.norm>
0

>  <SCORE.heavy>
23

>  <SCORE.norm>
-0.703127

>  <RMSD>
4.136

$$$$

 OpenBabel11021811403D
libRbt.so/2013.1/901 2013/11/27
 23 25  0  0  0  0  0  0  0  0999 V2000
  -23.5279    8.4754    6.2879 S   0  0  0  0  0  0  0  0  0  0  0  0
  -25.4762    7.5994    8.3630 N   0  0  0  0  0  0  0  0  0  0  0  0
  -23.8584    6.8587    9.9903 C   0  0  0  0  0  0  0  0  0  0  0  0
  -22.5161    6.6853   10.3529 C   0  0  0  0  0  0  0  0  0  0  0  0
  -21.5000    7.0629    9.4803 C   0  0  0  0  0  0  0  0  0  0  0  0
  -21.8171    7.6101    8.2419 C   0  0  0  0  0  0  0  0  0  0  0  0
  -23.1476    7.7848    7.8699 C   0  0  0  0  0  0  0  0  0  0  0  0
  -24.1773    7.4108    8.7416 C   0  0  0  0  0  0  0  0  0  0  0  0
  -24.8745    7.3572    6.0620 C   0  0  0  0  0  0  0  0  0  0  0  0
  -25.1107    6.7890    4.8068 C   0  0  0  0  0  0  0  0  0  0  0  0
  -26.1813    5.9077    4.6309 C   0  0  0  0  0  0  0  0  0  0  0  0
  -27.0153    5.6006    5.7110 C   0  0  0  0  0  0  0  0  0  0  0  0
  -26.7743    6.1718    6.9610 C   0  0  0  0  0  0  0  0  0  0  0  0
  -25.7095    7.0440    7.1406 C   0  0  0  0  0  0  0  0  0  0  0  0
  -26.5576    7.5974    9.3791 C   0  0  0  0  0  0  0  0  0  0  0  0
  -26.3295    8.4589   10.6659 C   0  0  0  0  0  0  0  0  0  0  0  0
  -27.2846    8.0791   11.8487 C   0  0  0  0  0  0  0  0  0  0  0  0
  -26.6718    7.8414   13.1805 N   0  3  0  0  0  0  0  0  0  0  0  0
  -25.8219    8.9856   13.6002 C   0  0  0  0  0  0  0  0  0  0  0  0
  -25.9042    6.5481   13.1870 C   0  0  0  0  0  0  0  0  0  0  0  0
  -22.1622    6.0867   11.6844 C   0  0  0  0  0  0  0  0  0  0  0  0
  -20.7292    5.9020   12.1216 C   0  0  0  0  0  0  0  0  0  0  0  0
  -23.0536    5.7939   12.4654 O   0  0  0  0  0  0  0  0  0  0  0  0
  1  7  1  0  0  0  0
  1  9  1  0  0  0  0
  2  8  1  0  0  0  0
  2 14  1  0  0  0  0
  2 15  1  0  0  0  0
  3  4  2  0  0  0  0
  3  8  1  0  0  0  0
  4  5  1  0  0  0  0
  4 21  1  0  0  0  0
  5  6  2  0  0  0  0
  6  7  1  0  0  0  0
  7  8  2  0  0  0  0
  9 10  2  0  0  0  0
  9 14  1  0  0  0  0
 10 11  1  0  0  0  0
 11 12  2  0  0  0  0
 12 13  1  0  0  0  0
 13 14  2  0  0  0  0
 15 16  1  0  0  0  0
 16 17  1  0  0  0  0
 17 18  1  0  0  0  0
 18 19  1  0  0  0  0
 18 20  1  0  0  0  0
 21 22  1  0  0  0  0
 21 23  2  0  0  0  0
M  CHG  1  18   1
M  END
>  <CHROM.1>
47.49099821,-179.06509826,-162.78638456,130.19604139,173.32515501,-24.58378769
7.19795455,9.22403823,-1.66364684,-0.11891734,1.53571188

>  <Name>


>  <RI>
0

>  <Rbt.Current_Directory>
/home/itssahil/PROJECTS/Mol_Feturizer/New_Systems/rnas/1lvj

>  <Rbt.Executable>
rbdock ($Id: //depot/dev/client3/rdock/2013.1/src/exe/rbdock.cxx#4 $)

>  <Rbt.Library>
libRbt.so (2013.1, Build901 2013/11/27)

>  <Rbt.Parameter_File>
/export/apps/rDock/src/rDock_2013.1_src/data/scripts/dock_solv.prm

>  <Rbt.Receptor>
prm/pocket_docking_4.prm

>  <SCORE>
-32.138

>  <SCORE.INTER>
-30.2916

>  <SCORE.INTER.CONST>
1

>  <SCORE.INTER.POLAR>
0

>  <SCORE.INTER.ROT>
5

>  <SCORE.INTER.SOLV>
10.5907

>  <SCORE.INTER.VDW>
-30.658

>  <SCORE.INTER.norm>
-1.31703

>  <SCORE.INTRA>
-1.86388

>  <SCORE.INTRA.DIHEDRAL>
-1.48105

>  <SCORE.INTRA.DIHEDRAL.0>
8.06479

>  <SCORE.INTRA.POLAR>
0

>  <SCORE.INTRA.POLAR.0>
0

>  <SCORE.INTRA.REPUL>
0

>  <SCORE.INTRA.REPUL.0>
0

>  <SCORE.INTRA.SOLV>
-0.298797

>  <SCORE.INTRA.SOLV.lig_0>
-29.8054

>  <SCORE.INTRA.VDW>
-0.973959

>  <SCORE.INTRA.VDW.0>
2.61447

>  <SCORE.INTRA.norm>
-0.0810383

>  <SCORE.RESTR>
0.0174692

>  <SCORE.RESTR.CAVITY>
0.0174692

>  <SCORE.RESTR.norm>
0.00075953

>  <SCORE.SYSTEM>
0

>  <SCORE.SYSTEM.CONST>
0

>  <SCORE.SYSTEM.DIHEDRAL>
0

>  <SCORE.SYSTEM.SOLV>
0

>  <SCORE.SYSTEM.norm>
0

>  <SCORE.heavy>
23

>  <SCORE.norm>
-1.39731

>  <RMSD>
4.156

$$$$

 OpenBabel11021811403D
libRbt.so/2013.1/901 2013/11/27
 23 25  0  0  0  0  0  0  0  0999 V2000
  -23.0390    8.4046    6.5265 S   0  0  0  0  0  0  0  0  0  0  0  0
  -25.1644    8.1243    8.5936 N   0  0  0  0  0  0  0  0  0  0  0  0
  -23.7554    7.2562   10.3472 C   0  0  0  0  0  0  0  0  0  0  0  0
  -22.4799    6.8686   10.7786 C   0  0  0  0  0  0  0  0  0  0  0  0
  -21.3913    6.9582    9.9164 C   0  0  0  0  0  0  0  0  0  0  0  0
  -21.5699    7.4297    8.6204 C   0  0  0  0  0  0  0  0  0  0  0  0
  -22.8334    7.8154    8.1801 C   0  0  0  0  0  0  0  0  0  0  0  0
  -23.9347    7.7317    9.0405 C   0  0  0  0  0  0  0  0  0  0  0  0
  -24.5704    7.5448    6.3516 C   0  0  0  0  0  0  0  0  0  0  0  0
  -24.8840    6.9098    5.1464 C   0  0  0  0  0  0  0  0  0  0  0  0
  -26.1001    6.2342    5.0104 C   0  0  0  0  0  0  0  0  0  0  0  0
  -27.0010    6.1995    6.0798 C   0  0  0  0  0  0  0  0  0  0  0  0
  -26.6820    6.8362    7.2797 C   0  0  0  0  0  0  0  0  0  0  0  0
  -25.4734    7.5043    7.4201 C   0  0  0  0  0  0  0  0  0  0  0  0
  -26.2481    8.4282    9.5608 C   0  0  0  0  0  0  0  0  0  0  0  0
  -26.5346    7.3616   10.6699 C   0  0  0  0  0  0  0  0  0  0  0  0
  -26.4244    7.9300   12.1259 C   0  0  0  0  0  0  0  0  0  0  0  0
  -26.2052    6.9608   13.2297 N   0  3  0  0  0  0  0  0  0  0  0  0
  -27.3527    6.0275   13.3698 C   0  0  0  0  0  0  0  0  0  0  0  0
  -25.9154    7.6816   14.5176 C   0  0  0  0  0  0  0  0  0  0  0  0
  -22.2771    6.3493   12.1734 C   0  0  0  0  0  0  0  0  0  0  0  0
  -20.9031    6.0496   12.7222 C   0  0  0  0  0  0  0  0  0  0  0  0
  -23.2415    6.2202   12.9106 O   0  0  0  0  0  0  0  0  0  0  0  0
  1  7  1  0  0  0  0
  1  9  1  0  0  0  0
  2  8  1  0  0  0  0
  2 14  1  0  0  0  0
  2 15  1  0  0  0  0
  3  4  2  0  0  0  0
  3  8  1  0  0  0  0
  4  5  1  0  0  0  0
  4 21  1  0  0  0  0
  5  6  2  0  0  0  0
  6  7  1  0  0  0  0
  7  8  2  0  0  0  0
  9 10  2  0  0  0  0
  9 14  1  0  0  0  0
 10 11  1  0  0  0  0
 11 12  2  0  0  0  0
 12 13  1  0  0  0  0
 13 14  2  0  0  0  0
 15 16  1  0  0  0  0
 16 17  1  0  0  0  0
 17 18  1  0  0  0  0
 18 19  1  0  0  0  0
 18 20  1  0  0  0  0
 21 22  1  0  0  0  0
 21 23  2  0  0  0  0
M  CHG  1  18   1
M  END
>  <CHROM.1>
-50.21667535,-173.87838120,123.19686370,-159.18733470,56.21605556,-24.47096668
7.22332981,9.55574788,-1.58616619,0.00455592,1.65051699

>  <Name>


>  <RI>
0

>  <Rbt.Current_Directory>
/home/itssahil/PROJECTS/Mol_Feturizer/New_Systems/rnas/1lvj

>  <Rbt.Executable>
rbdock ($Id: //depot/dev/client3/rdock/2013.1/src/exe/rbdock.cxx#4 $)

>  <Rbt.Library>
libRbt.so (2013.1, Build901 2013/11/27)

>  <Rbt.Parameter_File>
/export/apps/rDock/src/rDock_2013.1_src/data/scripts/dock_solv.prm

>  <Rbt.Receptor>
prm/pocket_docking_7.prm

>  <SCORE>
-31.6376

>  <SCORE.INTER>
-27.8089

>  <SCORE.INTER.CONST>
1

>  <SCORE.INTER.POLAR>
0

>  <SCORE.INTER.ROT>
5

>  <SCORE.INTER.SOLV>
9.59727

>  <SCORE.INTER.VDW>
-28.6717

>  <SCORE.INTER.norm>
-1.20908

>  <SCORE.INTRA>
-3.82867

>  <SCORE.INTRA.DIHEDRAL>
-0.166444

>  <SCORE.INTRA.DIHEDRAL.0>
8.06479

>  <SCORE.INTRA.POLAR>
-1.5

>  <SCORE.INTRA.POLAR.0>
0

>  <SCORE.INTRA.REPUL>
0

>  <SCORE.INTRA.REPUL.0>
0

>  <SCORE.INTRA.SOLV>
5.10476

>  <SCORE.INTRA.SOLV.lig_0>
-29.8054

>  <SCORE.INTRA.VDW>
-1.19783

>  <SCORE.INTRA.VDW.0>
2.61447

>  <SCORE.INTRA.norm>
-0.166464

>  <SCORE.RESTR>
0

>  <SCORE.RESTR.CAVITY>
0

>  <SCORE.RESTR.norm>
0

>  <SCORE.SYSTEM>
0

>  <SCORE.SYSTEM.CONST>
0

>  <SCORE.SYSTEM.DIHEDRAL>
0

>  <SCORE.SYSTEM.SOLV>
0

>  <SCORE.SYSTEM.norm>
0

>  <SCORE.heavy>
23

>  <SCORE.norm>
-1.37555

>  <RMSD>
4.166

$$$$

 OpenBabel11021811403D
libRbt.so/2013.1/901 2013/11/27
 23 25  0  0  0  0  0  0  0  0999 V2000
  -23.0669    8.4075    6.6461 S   0  0  0  0  0  0  0  0  0  0  0  0
  -25.1532    8.2162    8.7628 N   0  0  0  0  0  0  0  0  0  0  0  0
  -23.7312    7.3305   10.4970 C   0  0  0  0  0  0  0  0  0  0  0  0
  -22.4582    6.9116   10.9057 C   0  0  0  0  0  0  0  0  0  0  0  0
  -21.3868    6.9582   10.0189 C   0  0  0  0  0  0  0  0  0  0  0  0
  -21.5804    7.4177    8.7208 C   0  0  0  0  0  0  0  0  0  0  0  0
  -22.8418    7.8342    8.3028 C   0  0  0  0  0  0  0  0  0  0  0  0
  -23.9256    7.7938    9.1881 C   0  0  0  0  0  0  0  0  0  0  0  0
  -24.6259    7.5904    6.5165 C   0  0  0  0  0  0  0  0  0  0  0  0
  -24.9844    6.9491    5.3273 C   0  0  0  0  0  0  0  0  0  0  0  0
  -26.2221    6.3074    5.2270 C   0  0  0  0  0  0  0  0  0  0  0  0
  -27.0997    6.3130    6.3161 C   0  0  0  0  0  0  0  0  0  0  0  0
  -26.7360    6.9557    7.5000 C   0  0  0  0  0  0  0  0  0  0  0  0
  -25.5058    7.5902    7.6048 C   0  0  0  0  0  0  0  0  0  0  0  0
  -26.2059    8.5641    9.7491 C   0  0  0  0  0  0  0  0  0  0  0  0
  -26.5730    7.4776   10.8142 C   0  0  0  0  0  0  0  0  0  0  0  0
  -27.4976    8.0140   11.9600 C   0  0  0  0  0  0  0  0  0  0  0  0
  -27.8550    7.0753   13.0540 N   0  3  0  0  0  0  0  0  0  0  0  0
  -29.0669    7.5280   13.7847 C   0  0  0  0  0  0  0  0  0  0  0  0
  -26.6890    6.8758   13.9827 C   0  0  0  0  0  0  0  0  0  0  0  0
  -22.2394    6.4049   12.3028 C   0  0  0  0  0  0  0  0  0  0  0  0
  -20.8956    5.8978   12.7673 C   0  0  0  0  0  0  0  0  0  0  0  0
  -23.1546    6.4571   13.1090 O   0  0  0  0  0  0  0  0  0  0  0  0
  1  7  1  0  0  0  0
  1  9  1  0  0  0  0
  2  8  1  0  0  0  0
  2 14  1  0  0  0  0
  2 15  1  0  0  0  0
  3  4  2  0  0  0  0
  3  8  1  0  0  0  0
  4  5  1  0  0  0  0
  4 21  1  0  0  0  0
  5  6  2  0  0  0  0
  6  7  1  0  0  0  0
  7  8  2  0  0  0  0
  9 10  2  0  0  0  0
  9 14  1  0  0  0  0
 10 11  1  0  0  0  0
 11 12  2  0  0  0  0
 12 13  1  0  0  0  0
 13 14  2  0  0  0  0
 15 16  1  0  0  0  0
 16 17  1  0  0  0  0
 17 18  1  0  0  0  0
 18 19  1  0  0  0  0
 18 20  1  0  0  0  0
 21 22  1  0  0  0  0
 21 23  2  0  0  0  0
M  CHG  1  18   1
M  END
>  <CHROM.1>
-54.64992078,177.75359913,169.71215307,-177.37145278,-40.17662234,-24.72263660
7.31015515,9.65954419,-1.32280994,-0.05689924,1.64890526

>  <Name>


>  <RI>
0

>  <Rbt.Current_Directory>
/home/itssahil/PROJECTS/Mol_Feturizer/New_Systems/rnas/1lvj

>  <Rbt.Executable>
rbdock ($Id: //depot/dev/client3/rdock/2013.1/src/exe/rbdock.cxx#4 $)

>  <Rbt.Library>
libRbt.so (2013.1, Build901 2013/11/27)

>  <Rbt.Parameter_File>
/export/apps/rDock/src/rDock_2013.1_src/data/scripts/dock_solv.prm

>  <Rbt.Receptor>
prm/pocket_docking_6.prm

>  <SCORE>
-32.3395

>  <SCORE.INTER>
-28.1654

>  <SCORE.INTER.CONST>
1

>  <SCORE.INTER.POLAR>
0

>  <SCORE.INTER.ROT>
5

>  <SCORE.INTER.SOLV>
11.1822

>  <SCORE.INTER.VDW>
-29.4376

>  <SCORE.INTER.norm>
-1.22458

>  <SCORE.INTRA>
-4.17412

>  <SCORE.INTRA.DIHEDRAL>
-6.24621

>  <SCORE.INTRA.DIHEDRAL.0>
8.06479

>  <SCORE.INTRA.POLAR>
0

>  <SCORE.INTRA.POLAR.0>
0

>  <SCORE.INTRA.REPUL>
0

>  <SCORE.INTRA.REPUL.0>
0

>  <SCORE.INTRA.SOLV>
0.64609

>  <SCORE.INTRA.SOLV.lig_0>
-29.8054

>  <SCORE.INTRA.VDW>
-1.37407

>  <SCORE.INTRA.VDW.0>
2.61447

>  <SCORE.INTRA.norm>
-0.181484

>  <SCORE.RESTR>
0

>  <SCORE.RESTR.CAVITY>
0

>  <SCORE.RESTR.norm>
0

>  <SCORE.SYSTEM>
0

>  <SCORE.SYSTEM.CONST>
0

>  <SCORE.SYSTEM.DIHEDRAL>
0

>  <SCORE.SYSTEM.SOLV>
0

>  <SCORE.SYSTEM.norm>
0

>  <SCORE.heavy>
23

>  <SCORE.norm>
-1.40607

>  <RMSD>
4.169

$$$$

 OpenBabel11021811403D
libRbt.so/2013.1/901 2013/11/27
 23 25  0  0  0  0  0  0  0  0999 V2000
  -23.4459    8.4777    6.4890 S   0  0  0  0  0  0  0  0  0  0  0  0
  -25.4836    7.5557    8.4553 N   0  0  0  0  0  0  0  0  0  0  0  0
  -23.9394    6.7207   10.1083 C   0  0  0  0  0  0  0  0  0  0  0  0
  -22.6145    6.5081   10.5116 C   0  0  0  0  0  0  0  0  0  0  0  0
  -21.5608    6.9013    9.6921 C   0  0  0  0  0  0  0  0  0  0  0  0
  -21.8229    7.5035    8.4663 C   0  0  0  0  0  0  0  0  0  0  0  0
  -23.1357    7.7175    8.0542 C   0  0  0  0  0  0  0  0  0  0  0  0
  -24.2029    7.3281    8.8724 C   0  0  0  0  0  0  0  0  0  0  0  0
  -24.8022    7.3945    6.1695 C   0  0  0  0  0  0  0  0  0  0  0  0
  -25.0019    6.8815    4.8846 C   0  0  0  0  0  0  0  0  0  0  0  0
  -26.0802    6.0280    4.6347 C   0  0  0  0  0  0  0  0  0  0  0  0
  -26.9583    5.6934    5.6707 C   0  0  0  0  0  0  0  0  0  0  0  0
  -26.7536    6.2096    6.9508 C   0  0  0  0  0  0  0  0  0  0  0  0
  -25.6814    7.0540    7.2038 C   0  0  0  0  0  0  0  0  0  0  0  0
  -26.6015    7.5331    9.4310 C   0  0  0  0  0  0  0  0  0  0  0  0
  -26.4091    8.3443   10.7557 C   0  0  0  0  0  0  0  0  0  0  0  0
  -27.3726    7.8965   11.9074 C   0  0  0  0  0  0  0  0  0  0  0  0
  -27.3403    8.6717   13.1738 N   0  3  0  0  0  0  0  0  0  0  0  0
  -27.8797    7.8802   14.3097 C   0  0  0  0  0  0  0  0  0  0  0  0
  -28.0670    9.9787   13.0134 C   0  0  0  0  0  0  0  0  0  0  0  0
  -22.3199    5.8503   11.8295 C   0  0  0  0  0  0  0  0  0  0  0  0
  -23.4119    5.2650   12.6919 C   0  0  0  0  0  0  0  0  0  0  0  0
  -21.1607    5.7286   12.1923 O   0  0  0  0  0  0  0  0  0  0  0  0
  1  7  1  0  0  0  0
  1  9  1  0  0  0  0
  2  8  1  0  0  0  0
  2 14  1  0  0  0  0
  2 15  1  0  0  0  0
  3  4  2  0  0  0  0
  3  8  1  0  0  0  0
  4  5  1  0  0  0  0
  4 21  1  0  0  0  0
  5  6  2  0  0  0  0
  6  7  1  0  0  0  0
  7  8  2  0  0  0  0
  9 10  2  0  0  0  0
  9 14  1  0  0  0  0
 10 11  1  0  0  0  0
 11 12  2  0  0  0  0
 12 13  1  0  0  0  0
 13 14  2  0  0  0  0
 15 16  1  0  0  0  0
 16 17  1  0  0  0  0
 17 18  1  0  0  0  0
 18 19  1  0  0  0  0
 18 20  1  0  0  0  0
 21 22  1  0  0  0  0
 21 23  2  0  0  0  0
M  CHG  1  18   1
M  END
>  <CHROM.1>
47.81201627,6.69263792,-160.43414542,-175.52576867,-38.63323968,-24.83573536
7.27295328,9.34414979,-1.35872768,-0.26850439,1.52061316

>  <Name>


>  <RI>
0

>  <Rbt.Current_Directory>
/home/itssahil/PROJECTS/Mol_Feturizer/New_Systems/rnas/1lvj

>  <Rbt.Executable>
rbdock ($Id: //depot/dev/client3/rdock/2013.1/src/exe/rbdock.cxx#4 $)

>  <Rbt.Library>
libRbt.so (2013.1, Build901 2013/11/27)

>  <Rbt.Parameter_File>
/export/apps/rDock/src/rDock_2013.1_src/data/scripts/dock_solv.prm

>  <Rbt.Receptor>
prm/pocket_docking_6.prm

>  <SCORE>
-36.2621

>  <SCORE.INTER>
-31.6595

>  <SCORE.INTER.CONST>
1

>  <SCORE.INTER.POLAR>
0

>  <SCORE.INTER.ROT>
5

>  <SCORE.INTER.SOLV>
10.7989

>  <SCORE.INTER.VDW>
-31.6393

>  <SCORE.INTER.norm>
-1.3765

>  <SCORE.INTRA>
-4.60263

>  <SCORE.INTRA.DIHEDRAL>
-5.45411

>  <SCORE.INTRA.DIHEDRAL.0>
8.06479

>  <SCORE.INTRA.POLAR>
0

>  <SCORE.INTRA.POLAR.0>
0

>  <SCORE.INTRA.REPUL>
0

>  <SCORE.INTRA.REPUL.0>
0

>  <SCORE.INTRA.SOLV>
0.483924

>  <SCORE.INTRA.SOLV.lig_0>
-29.8054

>  <SCORE.INTRA.VDW>
-2.11753

>  <SCORE.INTRA.VDW.0>
2.61447

>  <SCORE.INTRA.norm>
-0.200114

>  <SCORE.RESTR>
0

>  <SCORE.RESTR.CAVITY>
0

>  <SCORE.RESTR.norm>
0

>  <SCORE.SYSTEM>
0

>  <SCORE.SYSTEM.CONST>
0

>  <SCORE.SYSTEM.DIHEDRAL>
0

>  <SCORE.SYSTEM.SOLV>
0

>  <SCORE.SYSTEM.norm>
0

>  <SCORE.heavy>
23

>  <SCORE.norm>
-1.57661

>  <RMSD>
4.185

$$$$

 OpenBabel11021811403D
libRbt.so/2013.1/901 2013/11/27
 23 25  0  0  0  0  0  0  0  0999 V2000
  -23.5750    8.4991    6.2845 S   0  0  0  0  0  0  0  0  0  0  0  0
  -25.4932    7.5397    8.3507 N   0  0  0  0  0  0  0  0  0  0  0  0
  -23.8515    6.7731    9.9416 C   0  0  0  0  0  0  0  0  0  0  0  0
  -22.5040    6.6061   10.2872 C   0  0  0  0  0  0  0  0  0  0  0  0
  -21.5007    7.0213    9.4169 C   0  0  0  0  0  0  0  0  0  0  0  0
  -21.8358    7.5998    8.1975 C   0  0  0  0  0  0  0  0  0  0  0  0
  -23.1717    7.7684    7.8425 C   0  0  0  0  0  0  0  0  0  0  0  0
  -24.1887    7.3566    8.7122 C   0  0  0  0  0  0  0  0  0  0  0  0
  -24.9098    7.3710    6.0385 C   0  0  0  0  0  0  0  0  0  0  0  0
  -25.1506    6.8362    4.7696 C   0  0  0  0  0  0  0  0  0  0  0  0
  -26.2119    5.9469    4.5779 C   0  0  0  0  0  0  0  0  0  0  0  0
  -27.0320    5.5986    5.6560 C   0  0  0  0  0  0  0  0  0  0  0  0
  -26.7865    6.1367    6.9198 C   0  0  0  0  0  0  0  0  0  0  0  0
  -25.7309    7.0166    7.1150 C   0  0  0  0  0  0  0  0  0  0  0  0
  -26.5652    7.4950    9.3759 C   0  0  0  0  0  0  0  0  0  0  0  0
  -26.2531    8.1481   10.7637 C   0  0  0  0  0  0  0  0  0  0  0  0
  -26.0035    7.1023   11.9036 C   0  0  0  0  0  0  0  0  0  0  0  0
  -25.4817    7.6063   13.1995 N   0  3  0  0  0  0  0  0  0  0  0  0
  -24.1562    8.2572   13.0359 C   0  0  0  0  0  0  0  0  0  0  0  0
  -25.4351    6.5004   14.2178 C   0  0  0  0  0  0  0  0  0  0  0  0
  -22.1305    5.9742   11.5978 C   0  0  0  0  0  0  0  0  0  0  0  0
  -23.0324    4.9828   12.2923 C   0  0  0  0  0  0  0  0  0  0  0  0
  -21.0415    6.2190   12.0919 O   0  0  0  0  0  0  0  0  0  0  0  0
  1  7  1  0  0  0  0
  1  9  1  0  0  0  0
  2  8  1  0  0  0  0
  2 14  1  0  0  0  0
  2 15  1  0  0  0  0
  3  4  2  0  0  0  0
  3  8  1  0  0  0  0
  4  5  1  0  0  0  0
  4 21  1  0  0  0  0
  5  6  2  0  0  0  0
  6  7  1  0  0  0  0
  7  8  2  0  0  0  0
  9 10  2  0  0  0  0
  9 14  1  0  0  0  0
 10 11  1  0  0  0  0
 11 12  2  0  0  0  0
 12 13  1  0  0  0  0
 13 14  2  0  0  0  0
 15 16  1  0  0  0  0
 16 17  1  0  0  0  0
 17 18  1  0  0  0  0
 18 19  1  0  0  0  0
 18 20  1  0  0  0  0
 21 22  1  0  0  0  0
 21 23  2  0  0  0  0
M  CHG  1  18   1
M  END
>  <CHROM.1>
38.91766828,27.50932829,-106.07221397,170.13779018,59.02865204,-24.39212483
7.05917941,9.21739877,-1.78152103,0.01168584,1.60814792

>  <Name>


>  <RI>
0

>  <Rbt.Current_Directory>
/home/itssahil/PROJECTS/Mol_Feturizer/New_Systems/rnas/1lvj

>  <Rbt.Executable>
rbdock ($Id: //depot/dev/client3/rdock/2013.1/src/exe/rbdock.cxx#4 $)

>  <Rbt.Library>
libRbt.so (2013.1, Build901 2013/11/27)

>  <Rbt.Parameter_File>
/export/apps/rDock/src/rDock_2013.1_src/data/scripts/dock_solv.prm

>  <Rbt.Receptor>
prm/pocket_docking_3.prm

>  <SCORE>
-29.2787

>  <SCORE.INTER>
-28.4178

>  <SCORE.INTER.CONST>
1

>  <SCORE.INTER.POLAR>
0

>  <SCORE.INTER.ROT>
5

>  <SCORE.INTER.SOLV>
10.2018

>  <SCORE.INTER.VDW>
-29.2791

>  <SCORE.INTER.norm>
-1.23555

>  <SCORE.INTRA>
-1.04497

>  <SCORE.INTRA.DIHEDRAL>
-0.0717574

>  <SCORE.INTRA.DIHEDRAL.0>
8.06479

>  <SCORE.INTRA.POLAR>
0

>  <SCORE.INTRA.POLAR.0>
0

>  <SCORE.INTRA.REPUL>
0

>  <SCORE.INTRA.REPUL.0>
0

>  <SCORE.INTRA.SOLV>
0.643461

>  <SCORE.INTRA.SOLV.lig_0>
-29.8054

>  <SCORE.INTRA.VDW>
-1.33083

>  <SCORE.INTRA.VDW.0>
2.61447

>  <SCORE.INTRA.norm>
-0.0454336

>  <SCORE.RESTR>
0.184053

>  <SCORE.RESTR.CAVITY>
0.184053

>  <SCORE.RESTR.norm>
0.00800232

>  <SCORE.SYSTEM>
0

>  <SCORE.SYSTEM.CONST>
0

>  <SCORE.SYSTEM.DIHEDRAL>
0

>  <SCORE.SYSTEM.SOLV>
0

>  <SCORE.SYSTEM.norm>
0

>  <SCORE.heavy>
23

>  <SCORE.norm>
-1.27299

>  <RMSD>
4.197

$$$$

 OpenBabel11021811403D
libRbt.so/2013.1/901 2013/11/27
 23 25  0  0  0  0  0  0  0  0999 V2000
  -23.0220    8.3615    6.2552 S   0  0  0  0  0  0  0  0  0  0  0  0
  -25.1146    8.2111    8.3688 N   0  0  0  0  0  0  0  0  0  0  0  0
  -23.6773    7.4558   10.1514 C   0  0  0  0  0  0  0  0  0  0  0  0
  -22.3947    7.0967   10.5863 C   0  0  0  0  0  0  0  0  0  0  0  0
  -21.3197    7.1322    9.7034 C   0  0  0  0  0  0  0  0  0  0  0  0
  -21.5191    7.5211    8.3832 C   0  0  0  0  0  0  0  0  0  0  0  0
  -22.7899    7.8777    7.9392 C   0  0  0  0  0  0  0  0  0  0  0  0
  -23.8775    7.8479    8.8203 C   0  0  0  0  0  0  0  0  0  0  0  0
  -24.5547    7.4918    6.1588 C   0  0  0  0  0  0  0  0  0  0  0  0
  -24.8861    6.7819    5.0010 C   0  0  0  0  0  0  0  0  0  0  0  0
  -26.1032    6.0986    4.9268 C   0  0  0  0  0  0  0  0  0  0  0  0
  -26.9873    6.1309    6.0101 C   0  0  0  0  0  0  0  0  0  0  0  0
  -26.6506    6.8421    7.1625 C   0  0  0  0  0  0  0  0  0  0  0  0
  -25.4409    7.5182    7.2416 C   0  0  0  0  0  0  0  0  0  0  0  0
  -26.1835    8.5748    9.3318 C   0  0  0  0  0  0  0  0  0  0  0  0
  -26.5380    7.5230   10.4354 C   0  0  0  0  0  0  0  0  0  0  0  0
  -27.3681    8.1199   11.6228 C   0  0  0  0  0  0  0  0  0  0  0  0
  -26.6185    8.6495   12.7904 N   0  3  0  0  0  0  0  0  0  0  0  0
  -27.4883    9.4784   13.6645 C   0  0  0  0  0  0  0  0  0  0  0  0
  -25.4014    9.4085   12.3383 C   0  0  0  0  0  0  0  0  0  0  0  0
  -22.1694    6.6663   12.0078 C   0  0  0  0  0  0  0  0  0  0  0  0
  -20.7985    6.3027   12.5246 C   0  0  0  0  0  0  0  0  0  0  0  0
  -23.1073    6.6657   12.7891 O   0  0  0  0  0  0  0  0  0  0  0  0
  1  7  1  0  0  0  0
  1  9  1  0  0  0  0
  2  8  1  0  0  0  0
  2 14  1  0  0  0  0
  2 15  1  0  0  0  0
  3  4  2  0  0  0  0
  3  8  1  0  0  0  0
  4  5  1  0  0  0  0
  4 21  1  0  0  0  0
  5  6  2  0  0  0  0
  6  7  1  0  0  0  0
  7  8  2  0  0  0  0
  9 10  2  0  0  0  0
  9 14  1  0  0  0  0
 10 11  1  0  0  0  0
 11 12  2  0  0  0  0
 12 13  1  0  0  0  0
 13 14  2  0  0  0  0
 15 16  1  0  0  0  0
 16 17  1  0  0  0  0
 17 18  1  0  0  0  0
 18 19  1  0  0  0  0
 18 20  1  0  0  0  0
 21 22  1  0  0  0  0
 21 23  2  0  0  0  0
M  CHG  1  18   1
M  END
>  <CHROM.1>
-55.48071106,-178.54026976,164.09298894,-91.09132121,-74.38451171,-24.47456432
7.62262309,9.27286611,-1.56605609,-0.17382020,1.45316638

>  <Name>


>  <RI>
0

>  <Rbt.Current_Directory>
/home/itssahil/PROJECTS/Mol_Feturizer/New_Systems/rnas/1lvj

>  <Rbt.Executable>
rbdock ($Id: //depot/dev/client3/rdock/2013.1/src/exe/rbdock.cxx#4 $)

>  <Rbt.Library>
libRbt.so (2013.1, Build901 2013/11/27)

>  <Rbt.Parameter_File>
/export/apps/rDock/src/rDock_2013.1_src/data/scripts/dock_solv.prm

>  <Rbt.Receptor>
prm/pocket_docking_5.prm

>  <SCORE>
-29.8864

>  <SCORE.INTER>
-29.4612

>  <SCORE.INTER.CONST>
1

>  <SCORE.INTER.POLAR>
0

>  <SCORE.INTER.ROT>
5

>  <SCORE.INTER.SOLV>
11.1345

>  <SCORE.INTER.VDW>
-30.2856

>  <SCORE.INTER.norm>
-1.28092

>  <SCORE.INTRA>
-0.489761

>  <SCORE.INTRA.DIHEDRAL>
-3.09539

>  <SCORE.INTRA.DIHEDRAL.0>
8.06479

>  <SCORE.INTRA.POLAR>
0

>  <SCORE.INTRA.POLAR.0>
0

>  <SCORE.INTRA.REPUL>
0

>  <SCORE.INTRA.REPUL.0>
0

>  <SCORE.INTRA.SOLV>
1.24893

>  <SCORE.INTRA.SOLV.lig_0>
-29.8054

>  <SCORE.INTRA.VDW>
0.433471

>  <SCORE.INTRA.VDW.0>
2.61447

>  <SCORE.INTRA.norm>
-0.0212939

>  <SCORE.RESTR>
0.0645205

>  <SCORE.RESTR.CAVITY>
0.0645205

>  <SCORE.RESTR.norm>
0.00280524

>  <SCORE.SYSTEM>
0

>  <SCORE.SYSTEM.CONST>
0

>  <SCORE.SYSTEM.DIHEDRAL>
0

>  <SCORE.SYSTEM.SOLV>
0

>  <SCORE.SYSTEM.norm>
0

>  <SCORE.heavy>
23

>  <SCORE.norm>
-1.29941

>  <RMSD>
4.201

$$$$

 OpenBabel11021811403D
libRbt.so/2013.1/901 2013/11/27
 23 25  0  0  0  0  0  0  0  0999 V2000
  -23.4358    8.4598    6.3788 S   0  0  0  0  0  0  0  0  0  0  0  0
  -25.4772    7.5461    8.3453 N   0  0  0  0  0  0  0  0  0  0  0  0
  -23.9357    6.7542   10.0218 C   0  0  0  0  0  0  0  0  0  0  0  0
  -22.6114    6.5626   10.4375 C   0  0  0  0  0  0  0  0  0  0  0  0
  -21.5563    6.9547    9.6193 C   0  0  0  0  0  0  0  0  0  0  0  0
  -21.8163    7.5347    8.3824 C   0  0  0  0  0  0  0  0  0  0  0  0
  -23.1284    7.7276    7.9579 C   0  0  0  0  0  0  0  0  0  0  0  0
  -24.1970    7.3392    8.7747 C   0  0  0  0  0  0  0  0  0  0  0  0
  -24.7779    7.3568    6.0671 C   0  0  0  0  0  0  0  0  0  0  0  0
  -24.9628    6.8216    4.7890 C   0  0  0  0  0  0  0  0  0  0  0  0
  -26.0299    5.9523    4.5450 C   0  0  0  0  0  0  0  0  0  0  0  0
  -26.9116    5.6242    5.5801 C   0  0  0  0  0  0  0  0  0  0  0  0
  -26.7216    6.1626    6.8533 C   0  0  0  0  0  0  0  0  0  0  0  0
  -25.6606    7.0227    7.1005 C   0  0  0  0  0  0  0  0  0  0  0  0
  -26.6016    7.5263    9.3135 C   0  0  0  0  0  0  0  0  0  0  0  0
  -26.4841    8.4616   10.5630 C   0  0  0  0  0  0  0  0  0  0  0  0
  -26.8155    7.7418   11.9148 C   0  0  0  0  0  0  0  0  0  0  0  0
  -26.9065    8.5796   13.1377 N   0  3  0  0  0  0  0  0  0  0  0  0
  -28.0007    9.5791   13.0320 C   0  0  0  0  0  0  0  0  0  0  0  0
  -25.5842    9.2333   13.4314 C   0  0  0  0  0  0  0  0  0  0  0  0
  -22.3189    5.9288   11.7676 C   0  0  0  0  0  0  0  0  0  0  0  0
  -20.9078    5.7385   12.2687 C   0  0  0  0  0  0  0  0  0  0  0  0
  -23.2454    5.6102   12.4959 O   0  0  0  0  0  0  0  0  0  0  0  0
  1  7  1  0  0  0  0
  1  9  1  0  0  0  0
  2  8  1  0  0  0  0
  2 14  1  0  0  0  0
  2 15  1  0  0  0  0
  3  4  2  0  0  0  0
  3  8  1  0  0  0  0
  4  5  1  0  0  0  0
  4 21  1  0  0  0  0
  5  6  2  0  0  0  0
  6  7  1  0  0  0  0
  7  8  2  0  0  0  0
  9 10  2  0  0  0  0
  9 14  1  0  0  0  0
 10 11  1  0  0  0  0
 11 12  2  0  0  0  0
 12 13  1  0  0  0  0
 13 14  2  0  0  0  0
 15 16  1  0  0  0  0
 16 17  1  0  0  0  0
 17 18  1  0  0  0  0
 18 19  1  0  0  0  0
 18 20  1  0  0  0  0
 21 22  1  0  0  0  0
 21 23  2  0  0  0  0
M  CHG  1  18   1
M  END
>  <CHROM.1>
53.25653166,-178.31558736,-132.12969490,-172.20500181,-177.83882608,-24.66631647
7.31960920,9.22761058,-1.55364711,-0.27355610,1.45389681

>  <Name>


>  <RI>
0

>  <Rbt.Current_Directory>
/home/itssahil/PROJECTS/Mol_Feturizer/New_Systems/rnas/1lvj

>  <Rbt.Executable>
rbdock ($Id: //depot/dev/client3/rdock/2013.1/src/exe/rbdock.cxx#4 $)

>  <Rbt.Library>
libRbt.so (2013.1, Build901 2013/11/27)

>  <Rbt.Parameter_File>
/export/apps/rDock/src/rDock_2013.1_src/data/scripts/dock_solv.prm

>  <Rbt.Receptor>
prm/pocket_docking_5.prm

>  <SCORE>
-34.6062

>  <SCORE.INTER>
-31.823

>  <SCORE.INTER.CONST>
1

>  <SCORE.INTER.POLAR>
0

>  <SCORE.INTER.ROT>
5

>  <SCORE.INTER.SOLV>
10.754

>  <SCORE.INTER.VDW>
-31.7333

>  <SCORE.INTER.norm>
-1.38361

>  <SCORE.INTRA>
-2.79195

>  <SCORE.INTRA.DIHEDRAL>
-2.59346

>  <SCORE.INTRA.DIHEDRAL.0>
8.06479

>  <SCORE.INTRA.POLAR>
0

>  <SCORE.INTRA.POLAR.0>
0

>  <SCORE.INTRA.REPUL>
0

>  <SCORE.INTRA.REPUL.0>
0

>  <SCORE.INTRA.SOLV>
-0.512914

>  <SCORE.INTRA.SOLV.lig_0>
-29.8054

>  <SCORE.INTRA.VDW>
-1.23876

>  <SCORE.INTRA.VDW.0>
2.61447

>  <SCORE.INTRA.norm>
-0.121389

>  <SCORE.RESTR>
0.00880003

>  <SCORE.RESTR.CAVITY>
0.00880003

>  <SCORE.RESTR.norm>
0.00038261

>  <SCORE.SYSTEM>
0

>  <SCORE.SYSTEM.CONST>
0

>  <SCORE.SYSTEM.DIHEDRAL>
0

>  <SCORE.SYSTEM.SOLV>
0

>  <SCORE.SYSTEM.norm>
0

>  <SCORE.heavy>
23

>  <SCORE.norm>
-1.50462

>  <RMSD>
4.210

$$$$

 OpenBabel11021811403D
libRbt.so/2013.1/901 2013/11/27
 23 25  0  0  0  0  0  0  0  0999 V2000
  -23.5278    8.5131    6.2305 S   0  0  0  0  0  0  0  0  0  0  0  0
  -25.3802    7.8208    8.4572 N   0  0  0  0  0  0  0  0  0  0  0  0
  -23.6939    7.1405   10.0408 C   0  0  0  0  0  0  0  0  0  0  0  0
  -22.3384    6.9544   10.3423 C   0  0  0  0  0  0  0  0  0  0  0  0
  -21.3627    7.2495    9.3950 C   0  0  0  0  0  0  0  0  0  0  0  0
  -21.7338    7.7265    8.1426 C   0  0  0  0  0  0  0  0  0  0  0  0
  -23.0782    7.9129    7.8310 C   0  0  0  0  0  0  0  0  0  0  0  0
  -24.0674    7.6217    8.7780 C   0  0  0  0  0  0  0  0  0  0  0  0
  -24.9103    7.4192    6.1479 C   0  0  0  0  0  0  0  0  0  0  0  0
  -25.2277    6.7802    4.9457 C   0  0  0  0  0  0  0  0  0  0  0  0
  -26.3264    5.9185    4.8832 C   0  0  0  0  0  0  0  0  0  0  0  0
  -27.1073    5.7018    6.0232 C   0  0  0  0  0  0  0  0  0  0  0  0
  -26.7855    6.3434    7.2198 C   0  0  0  0  0  0  0  0  0  0  0  0
  -25.6925    7.1964    7.2869 C   0  0  0  0  0  0  0  0  0  0  0  0
  -26.4046    7.9111    9.5271 C   0  0  0  0  0  0  0  0  0  0  0  0
  -26.4425    6.7522   10.5785 C   0  0  0  0  0  0  0  0  0  0  0  0
  -27.0345    7.1849   11.9633 C   0  0  0  0  0  0  0  0  0  0  0  0
  -26.4671    8.3970   12.6073 N   0  3  0  0  0  0  0  0  0  0  0  0
  -24.9908    8.3000   12.7432 C   0  0  0  0  0  0  0  0  0  0  0  0
  -27.1310    8.6525   13.9324 C   0  0  0  0  0  0  0  0  0  0  0  0
  -21.9266    6.4310   11.6888 C   0  0  0  0  0  0  0  0  0  0  0  0
  -20.4781    6.3537   12.1069 C   0  0  0  0  0  0  0  0  0  0  0  0
  -22.7853    6.1132   12.4961 O   0  0  0  0  0  0  0  0  0  0  0  0
  1  7  1  0  0  0  0
  1  9  1  0  0  0  0
  2  8  1  0  0  0  0
  2 14  1  0  0  0  0
  2 15  1  0  0  0  0
  3  4  2  0  0  0  0
  3  8  1  0  0  0  0
  4  5  1  0  0  0  0
  4 21  1  0  0  0  0
  5  6  2  0  0  0  0
  6  7  1  0  0  0  0
  7  8  2  0  0  0  0
  9 10  2  0  0  0  0
  9 14  1  0  0  0  0
 10 11  1  0  0  0  0
 11 12  2  0  0  0  0
 12 13  1  0  0  0  0
 13 14  2  0  0  0  0
 15 16  1  0  0  0  0
 16 17  1  0  0  0  0
 17 18  1  0  0  0  0
 18 19  1  0  0  0  0
 18 20  1  0  0  0  0
 21 22  1  0  0  0  0
 21 23  2  0  0  0  0
M  CHG  1  18   1
M  END
>  <CHROM.1>
-52.17807534,-173.40341529,153.90754240,-51.37408314,65.80121240,-24.52799071
7.31994094,9.23662798,-1.69445849,-0.04587196,1.51401093

>  <Name>


>  <RI>
0

>  <Rbt.Current_Directory>
/home/itssahil/PROJECTS/Mol_Feturizer/New_Systems/rnas/1lvj

>  <Rbt.Executable>
rbdock ($Id: //depot/dev/client3/rdock/2013.1/src/exe/rbdock.cxx#4 $)

>  <Rbt.Library>
libRbt.so (2013.1, Build901 2013/11/27)

>  <Rbt.Parameter_File>
/export/apps/rDock/src/rDock_2013.1_src/data/scripts/dock_solv.prm

>  <Rbt.Receptor>
prm/pocket_docking_4.prm

>  <SCORE>
-28.9369

>  <SCORE.INTER>
-27.8997

>  <SCORE.INTER.CONST>
1

>  <SCORE.INTER.POLAR>
0

>  <SCORE.INTER.ROT>
5

>  <SCORE.INTER.SOLV>
13.2797

>  <SCORE.INTER.VDW>
-29.9597

>  <SCORE.INTER.norm>
-1.21303

>  <SCORE.INTRA>
-1.773

>  <SCORE.INTRA.DIHEDRAL>
-4.75341

>  <SCORE.INTRA.DIHEDRAL.0>
8.06479

>  <SCORE.INTRA.POLAR>
0

>  <SCORE.INTRA.POLAR.0>
0

>  <SCORE.INTRA.REPUL>
0

>  <SCORE.INTRA.REPUL.0>
0

>  <SCORE.INTRA.SOLV>
2.28008

>  <SCORE.INTRA.SOLV.lig_0>
-29.8054

>  <SCORE.INTRA.VDW>
-0.536339

>  <SCORE.INTRA.VDW.0>
2.61447

>  <SCORE.INTRA.norm>
-0.0770871

>  <SCORE.RESTR>
0.735798

>  <SCORE.RESTR.CAVITY>
0.735798

>  <SCORE.RESTR.norm>
0.0319912

>  <SCORE.SYSTEM>
0

>  <SCORE.SYSTEM.CONST>
0

>  <SCORE.SYSTEM.DIHEDRAL>
0

>  <SCORE.SYSTEM.SOLV>
0

>  <SCORE.SYSTEM.norm>
0

>  <SCORE.heavy>
23

>  <SCORE.norm>
-1.25813

>  <RMSD>
4.217

$$$$

 OpenBabel11021811403D
libRbt.so/2013.1/901 2013/11/27
 23 25  0  0  0  0  0  0  0  0999 V2000
  -23.0688    8.4130    6.6543 S   0  0  0  0  0  0  0  0  0  0  0  0
  -25.1537    8.2177    8.7719 N   0  0  0  0  0  0  0  0  0  0  0  0
  -23.7281    7.3392   10.5069 C   0  0  0  0  0  0  0  0  0  0  0  0
  -22.4536    6.9252   10.9157 C   0  0  0  0  0  0  0  0  0  0  0  0
  -21.3826    6.9741   10.0285 C   0  0  0  0  0  0  0  0  0  0  0  0
  -21.5783    7.4311    8.7298 C   0  0  0  0  0  0  0  0  0  0  0  0
  -22.8412    7.8428    8.3117 C   0  0  0  0  0  0  0  0  0  0  0  0
  -23.9246    7.8001    9.1974 C   0  0  0  0  0  0  0  0  0  0  0  0
  -24.6251    7.5905    6.5264 C   0  0  0  0  0  0  0  0  0  0  0  0
  -24.9818    6.9463    5.3381 C   0  0  0  0  0  0  0  0  0  0  0  0
  -26.2174    6.3004    5.2393 C   0  0  0  0  0  0  0  0  0  0  0  0
  -27.0947    6.3045    6.3287 C   0  0  0  0  0  0  0  0  0  0  0  0
  -26.7327    6.9502    7.5115 C   0  0  0  0  0  0  0  0  0  0  0  0
  -25.5046    7.5889    7.6150 C   0  0  0  0  0  0  0  0  0  0  0  0
  -26.2072    8.5636    9.7581 C   0  0  0  0  0  0  0  0  0  0  0  0
  -26.6002    7.4621   10.7984 C   0  0  0  0  0  0  0  0  0  0  0  0
  -26.7435    8.0071   12.2604 C   0  0  0  0  0  0  0  0  0  0  0  0
  -28.0594    8.5667   12.6618 N   0  3  0  0  0  0  0  0  0  0  0  0
  -27.9001    9.7604   13.5320 C   0  0  0  0  0  0  0  0  0  0  0  0
  -28.9061    7.5107   13.3175 C   0  0  0  0  0  0  0  0  0  0  0  0
  -22.2327    6.4212   12.3135 C   0  0  0  0  0  0  0  0  0  0  0  0
  -23.3579    6.3252   13.3152 C   0  0  0  0  0  0  0  0  0  0  0  0
  -21.1264    6.0197   12.6375 O   0  0  0  0  0  0  0  0  0  0  0  0
  1  7  1  0  0  0  0
  1  9  1  0  0  0  0
  2  8  1  0  0  0  0
  2 14  1  0  0  0  0
  2 15  1  0  0  0  0
  3  4  2  0  0  0  0
  3  8  1  0  0  0  0
  4  5  1  0  0  0  0
  4 21  1  0  0  0  0
  5  6  2  0  0  0  0
  6  7  1  0  0  0  0
  7  8  2  0  0  0  0
  9 10  2  0  0  0  0
  9 14  1  0  0  0  0
 10 11  1  0  0  0  0
 11 12  2  0  0  0  0
 12 13  1  0  0  0  0
 13 14  2  0  0  0  0
 15 16  1  0  0  0  0
 16 17  1  0  0  0  0
 17 18  1  0  0  0  0
 18 19  1  0  0  0  0
 18 20  1  0  0  0  0
 21 22  1  0  0  0  0
 21 23  2  0  0  0  0
M  CHG  1  18   1
M  END
>  <CHROM.1>
-56.40899837,0.73286822,135.72266306,86.61248987,-21.65966418,-24.76278447
7.51386338,9.61911723,-1.23425004,-0.16977232,1.55400686

>  <Name>


>  <RI>
0

>  <Rbt.Current_Directory>
/home/itssahil/PROJECTS/Mol_Feturizer/New_Systems/rnas/1lvj

>  <Rbt.Executable>
rbdock ($Id: //depot/dev/client3/rdock/2013.1/src/exe/rbdock.cxx#4 $)

>  <Rbt.Library>
libRbt.so (2013.1, Build901 2013/11/27)

>  <Rbt.Parameter_File>
/export/apps/rDock/src/rDock_2013.1_src/data/scripts/dock_solv.prm

>  <Rbt.Receptor>
prm/pocket_docking_7.prm

>  <SCORE>
-33.3583

>  <SCORE.INTER>
-33.0817

>  <SCORE.INTER.CONST>
1

>  <SCORE.INTER.POLAR>
-0.956022

>  <SCORE.INTER.ROT>
5

>  <SCORE.INTER.SOLV>
15.0814

>  <SCORE.INTER.VDW>
-30.8282

>  <SCORE.INTER.norm>
-1.43833

>  <SCORE.INTRA>
-0.276621

>  <SCORE.INTRA.DIHEDRAL>
1.77574

>  <SCORE.INTRA.DIHEDRAL.0>
8.06479

>  <SCORE.INTRA.POLAR>
0

>  <SCORE.INTRA.POLAR.0>
0

>  <SCORE.INTRA.REPUL>
0

>  <SCORE.INTRA.REPUL.0>
0

>  <SCORE.INTRA.SOLV>
1.76485

>  <SCORE.INTRA.SOLV.lig_0>
-29.8054

>  <SCORE.INTRA.VDW>
-2.04692

>  <SCORE.INTRA.VDW.0>
2.61447

>  <SCORE.INTRA.norm>
-0.012027

>  <SCORE.RESTR>
0

>  <SCORE.RESTR.CAVITY>
0

>  <SCORE.RESTR.norm>
0

>  <SCORE.SYSTEM>
0

>  <SCORE.SYSTEM.CONST>
0

>  <SCORE.SYSTEM.DIHEDRAL>
0

>  <SCORE.SYSTEM.SOLV>
0

>  <SCORE.SYSTEM.norm>
0

>  <SCORE.heavy>
23

>  <SCORE.norm>
-1.45036

>  <RMSD>
4.220

$$$$

 OpenBabel11021811403D
libRbt.so/2013.1/901 2013/11/27
 23 25  0  0  0  0  0  0  0  0999 V2000
  -23.3554    8.4748    6.6670 S   0  0  0  0  0  0  0  0  0  0  0  0
  -25.4502    7.5549    8.5735 N   0  0  0  0  0  0  0  0  0  0  0  0
  -23.9562    6.6622   10.2424 C   0  0  0  0  0  0  0  0  0  0  0  0
  -22.6441    6.4181   10.6691 C   0  0  0  0  0  0  0  0  0  0  0  0
  -21.5665    6.8068    9.8790 C   0  0  0  0  0  0  0  0  0  0  0  0
  -21.7920    7.4356    8.6593 C   0  0  0  0  0  0  0  0  0  0  0  0
  -23.0918    7.6810    8.2241 C   0  0  0  0  0  0  0  0  0  0  0  0
  -24.1827    7.2964    9.0128 C   0  0  0  0  0  0  0  0  0  0  0  0
  -24.7238    7.4225    6.2998 C   0  0  0  0  0  0  0  0  0  0  0  0
  -24.9057    6.9364    5.0017 C   0  0  0  0  0  0  0  0  0  0  0  0
  -25.9936    6.1073    4.7139 C   0  0  0  0  0  0  0  0  0  0  0  0
  -26.8991    5.7702    5.7252 C   0  0  0  0  0  0  0  0  0  0  0  0
  -26.7121    6.2595    7.0186 C   0  0  0  0  0  0  0  0  0  0  0  0
  -25.6305    7.0795    7.3092 C   0  0  0  0  0  0  0  0  0  0  0  0
  -26.5885    7.5351    9.5253 C   0  0  0  0  0  0  0  0  0  0  0  0
  -26.4595    8.4189   10.8107 C   0  0  0  0  0  0  0  0  0  0  0  0
  -27.4979    8.0539   11.9259 C   0  0  0  0  0  0  0  0  0  0  0  0
  -27.5095    8.8859   13.1561 N   0  3  0  0  0  0  0  0  0  0  0  0
  -28.0318    8.1264   14.3214 C   0  0  0  0  0  0  0  0  0  0  0  0
  -28.2830   10.1557   12.9293 C   0  0  0  0  0  0  0  0  0  0  0  0
  -22.3891    5.7315   11.9805 C   0  0  0  0  0  0  0  0  0  0  0  0
  -23.5080    5.1412   12.8040 C   0  0  0  0  0  0  0  0  0  0  0  0
  -21.2405    5.5902   12.3692 O   0  0  0  0  0  0  0  0  0  0  0  0
  1  7  1  0  0  0  0
  1  9  1  0  0  0  0
  2  8  1  0  0  0  0
  2 14  1  0  0  0  0
  2 15  1  0  0  0  0
  3  4  2  0  0  0  0
  3  8  1  0  0  0  0
  4  5  1  0  0  0  0
  4 21  1  0  0  0  0
  5  6  2  0  0  0  0
  6  7  1  0  0  0  0
  7  8  2  0  0  0  0
  9 10  2  0  0  0  0
  9 14  1  0  0  0  0
 10 11  1  0  0  0  0
 11 12  2  0  0  0  0
 12 13  1  0  0  0  0
 13 14  2  0  0  0  0
 15 16  1  0  0  0  0
 16 17  1  0  0  0  0
 17 18  1  0  0  0  0
 18 19  1  0  0  0  0
 18 20  1  0  0  0  0
 21 22  1  0  0  0  0
 21 23  2  0  0  0  0
M  CHG  1  18   1
M  END
>  <CHROM.1>
52.99512031,7.18487918,-164.41575478,-176.58976434,-33.95269431,-24.85035397
7.29299434,9.44793016,-1.29885034,-0.32088770,1.52846834

>  <Name>


>  <RI>
0

>  <Rbt.Current_Directory>
/home/itssahil/PROJECTS/Mol_Feturizer/New_Systems/rnas/1lvj

>  <Rbt.Executable>
rbdock ($Id: //depot/dev/client3/rdock/2013.1/src/exe/rbdock.cxx#4 $)

>  <Rbt.Library>
libRbt.so (2013.1, Build901 2013/11/27)

>  <Rbt.Parameter_File>
/export/apps/rDock/src/rDock_2013.1_src/data/scripts/dock_solv.prm

>  <Rbt.Receptor>
prm/pocket_docking_8.prm

>  <SCORE>
-36.4447

>  <SCORE.INTER>
-31.5777

>  <SCORE.INTER.CONST>
1

>  <SCORE.INTER.POLAR>
0

>  <SCORE.INTER.ROT>
5

>  <SCORE.INTER.SOLV>
11.0233

>  <SCORE.INTER.VDW>
-31.6596

>  <SCORE.INTER.norm>
-1.37294

>  <SCORE.INTRA>
-4.867

>  <SCORE.INTRA.DIHEDRAL>
-5.49647

>  <SCORE.INTRA.DIHEDRAL.0>
8.06479

>  <SCORE.INTRA.POLAR>
0

>  <SCORE.INTRA.POLAR.0>
0

>  <SCORE.INTRA.REPUL>
0

>  <SCORE.INTRA.REPUL.0>
0

>  <SCORE.INTRA.SOLV>
0.535925

>  <SCORE.INTRA.SOLV.lig_0>
-29.8054

>  <SCORE.INTRA.VDW>
-2.38672

>  <SCORE.INTRA.VDW.0>
2.61447

>  <SCORE.INTRA.norm>
-0.211609

>  <SCORE.RESTR>
0

>  <SCORE.RESTR.CAVITY>
0

>  <SCORE.RESTR.norm>
0

>  <SCORE.SYSTEM>
0

>  <SCORE.SYSTEM.CONST>
0

>  <SCORE.SYSTEM.DIHEDRAL>
0

>  <SCORE.SYSTEM.SOLV>
0

>  <SCORE.SYSTEM.norm>
0

>  <SCORE.heavy>
23

>  <SCORE.norm>
-1.58455

>  <RMSD>
4.222

$$$$

 OpenBabel11021811403D
libRbt.so/2013.1/901 2013/11/27
 23 25  0  0  0  0  0  0  0  0999 V2000
  -23.3503    8.4764    6.6690 S   0  0  0  0  0  0  0  0  0  0  0  0
  -25.4424    7.5579    8.5791 N   0  0  0  0  0  0  0  0  0  0  0  0
  -23.9460    6.6719   10.2494 C   0  0  0  0  0  0  0  0  0  0  0  0
  -22.6332    6.4311   10.6758 C   0  0  0  0  0  0  0  0  0  0  0  0
  -21.5568    6.8196    9.8841 C   0  0  0  0  0  0  0  0  0  0  0  0
  -21.7840    7.4449    8.6630 C   0  0  0  0  0  0  0  0  0  0  0  0
  -23.0845    7.6870    8.2279 C   0  0  0  0  0  0  0  0  0  0  0  0
  -24.1743    7.3027    9.0182 C   0  0  0  0  0  0  0  0  0  0  0  0
  -24.7173    7.4209    6.3053 C   0  0  0  0  0  0  0  0  0  0  0  0
  -24.8991    6.9313    5.0086 C   0  0  0  0  0  0  0  0  0  0  0  0
  -25.9858    6.0997    4.7235 C   0  0  0  0  0  0  0  0  0  0  0  0
  -26.8902    5.7637    5.7363 C   0  0  0  0  0  0  0  0  0  0  0  0
  -26.7032    6.2565    7.0282 C   0  0  0  0  0  0  0  0  0  0  0  0
  -25.6228    7.0790    7.3161 C   0  0  0  0  0  0  0  0  0  0  0  0
  -26.5802    7.5387    9.5317 C   0  0  0  0  0  0  0  0  0  0  0  0
  -26.4312    8.3871   10.8385 C   0  0  0  0  0  0  0  0  0  0  0  0
  -27.4712    8.0112   11.9486 C   0  0  0  0  0  0  0  0  0  0  0  0
  -27.4896    8.8358   13.1838 N   0  3  0  0  0  0  0  0  0  0  0  0
  -28.0591    8.0834   14.3315 C   0  0  0  0  0  0  0  0  0  0  0  0
  -28.2235   10.1271   12.9476 C   0  0  0  0  0  0  0  0  0  0  0  0
  -22.3763    5.7482   11.9889 C   0  0  0  0  0  0  0  0  0  0  0  0
  -23.4992    5.2145   12.8448 C   0  0  0  0  0  0  0  0  0  0  0  0
  -21.2258    5.5627   12.3524 O   0  0  0  0  0  0  0  0  0  0  0  0
  1  7  1  0  0  0  0
  1  9  1  0  0  0  0
  2  8  1  0  0  0  0
  2 14  1  0  0  0  0
  2 15  1  0  0  0  0
  3  4  2  0  0  0  0
  3  8  1  0  0  0  0
  4  5  1  0  0  0  0
  4 21  1  0  0  0  0
  5  6  2  0  0  0  0
  6  7  1  0  0  0  0
  7  8  2  0  0  0  0
  9 10  2  0  0  0  0
  9 14  1  0  0  0  0
 10 11  1  0  0  0  0
 11 12  2  0  0  0  0
 12 13  1  0  0  0  0
 13 14  2  0  0  0  0
 15 16  1  0  0  0  0
 16 17  1  0  0  0  0
 17 18  1  0  0  0  0
 18 19  1  0  0  0  0
 18 20  1  0  0  0  0
 21 22  1  0  0  0  0
 21 23  2  0  0  0  0
M  CHG  1  18   1
M  END
>  <CHROM.1>
50.93719085,4.31554284,-164.10002007,-174.91169815,-36.06468165,-24.83893375
7.28844745,9.45794007,-1.30372283,-0.31189565,1.52986986

>  <Name>


>  <RI>
0

>  <Rbt.Current_Directory>
/home/itssahil/PROJECTS/Mol_Feturizer/New_Systems/rnas/1lvj

>  <Rbt.Executable>
rbdock ($Id: //depot/dev/client3/rdock/2013.1/src/exe/rbdock.cxx#4 $)

>  <Rbt.Library>
libRbt.so (2013.1, Build901 2013/11/27)

>  <Rbt.Parameter_File>
/export/apps/rDock/src/rDock_2013.1_src/data/scripts/dock_solv.prm

>  <Rbt.Receptor>
prm/pocket_docking_8.prm

>  <SCORE>
-36.5177

>  <SCORE.INTER>
-31.6644

>  <SCORE.INTER.CONST>
1

>  <SCORE.INTER.POLAR>
0

>  <SCORE.INTER.ROT>
5

>  <SCORE.INTER.SOLV>
10.7933

>  <SCORE.INTER.VDW>
-31.6407

>  <SCORE.INTER.norm>
-1.37671

>  <SCORE.INTRA>
-4.8533

>  <SCORE.INTRA.DIHEDRAL>
-5.7069

>  <SCORE.INTRA.DIHEDRAL.0>
8.06479

>  <SCORE.INTRA.POLAR>
0

>  <SCORE.INTRA.POLAR.0>
0

>  <SCORE.INTRA.REPUL>
0

>  <SCORE.INTRA.REPUL.0>
0

>  <SCORE.INTRA.SOLV>
0.50918

>  <SCORE.INTRA.SOLV.lig_0>
-29.8054

>  <SCORE.INTRA.VDW>
-2.25444

>  <SCORE.INTRA.VDW.0>
2.61447

>  <SCORE.INTRA.norm>
-0.211013

>  <SCORE.RESTR>
0

>  <SCORE.RESTR.CAVITY>
0

>  <SCORE.RESTR.norm>
0

>  <SCORE.SYSTEM>
0

>  <SCORE.SYSTEM.CONST>
0

>  <SCORE.SYSTEM.DIHEDRAL>
0

>  <SCORE.SYSTEM.SOLV>
0

>  <SCORE.SYSTEM.norm>
0

>  <SCORE.heavy>
23

>  <SCORE.norm>
-1.58773

>  <RMSD>
4.224

$$$$

 OpenBabel11021811403D
libRbt.so/2013.1/901 2013/11/27
 23 25  0  0  0  0  0  0  0  0999 V2000
  -23.3370    8.4563    6.7564 S   0  0  0  0  0  0  0  0  0  0  0  0
  -25.4498    7.5349    8.6422 N   0  0  0  0  0  0  0  0  0  0  0  0
  -23.9726    6.6087   10.3078 C   0  0  0  0  0  0  0  0  0  0  0  0
  -22.6650    6.3470   10.7378 C   0  0  0  0  0  0  0  0  0  0  0  0
  -21.5799    6.7343    9.9573 C   0  0  0  0  0  0  0  0  0  0  0  0
  -21.7934    7.3792    8.7440 C   0  0  0  0  0  0  0  0  0  0  0  0
  -23.0886    7.6422    8.3054 C   0  0  0  0  0  0  0  0  0  0  0  0
  -24.1870    7.2592    9.0845 C   0  0  0  0  0  0  0  0  0  0  0  0
  -24.7138    7.4216    6.3706 C   0  0  0  0  0  0  0  0  0  0  0  0
  -24.8940    6.9523    5.0662 C   0  0  0  0  0  0  0  0  0  0  0  0
  -25.9884    6.1372    4.7637 C   0  0  0  0  0  0  0  0  0  0  0  0
  -26.9020    5.7973    5.7667 C   0  0  0  0  0  0  0  0  0  0  0  0
  -26.7166    6.2698    7.0665 C   0  0  0  0  0  0  0  0  0  0  0  0
  -25.6286    7.0759    7.3717 C   0  0  0  0  0  0  0  0  0  0  0  0
  -26.5929    7.5152    9.5884 C   0  0  0  0  0  0  0  0  0  0  0  0
  -26.4623    8.3842   10.8836 C   0  0  0  0  0  0  0  0  0  0  0  0
  -27.2748    7.8196   12.0986 C   0  0  0  0  0  0  0  0  0  0  0  0
  -28.3117    8.6955   12.7015 N   0  3  0  0  0  0  0  0  0  0  0  0
  -27.7075    9.8935   13.3398 C   0  0  0  0  0  0  0  0  0  0  0  0
  -29.1623    7.9202   13.6696 C   0  0  0  0  0  0  0  0  0  0  0  0
  -22.4230    5.6429   12.0424 C   0  0  0  0  0  0  0  0  0  0  0  0
  -21.0307    5.3337   12.5369 C   0  0  0  0  0  0  0  0  0  0  0  0
  -23.3722    5.3629   12.7570 O   0  0  0  0  0  0  0  0  0  0  0  0
  1  7  1  0  0  0  0
  1  9  1  0  0  0  0
  2  8  1  0  0  0  0
  2 14  1  0  0  0  0
  2 15  1  0  0  0  0
  3  4  2  0  0  0  0
  3  8  1  0  0  0  0
  4  5  1  0  0  0  0
  4 21  1  0  0  0  0
  5  6  2  0  0  0  0
  6  7  1  0  0  0  0
  7  8  2  0  0  0  0
  9 10  2  0  0  0  0
  9 14  1  0  0  0  0
 10 11  1  0  0  0  0
 11 12  2  0  0  0  0
 12 13  1  0  0  0  0
 13 14  2  0  0  0  0
 15 16  1  0  0  0  0
 16 17  1  0  0  0  0
 17 18  1  0  0  0  0
 18 19  1  0  0  0  0
 18 20  1  0  0  0  0
 21 22  1  0  0  0  0
 21 23  2  0  0  0  0
M  CHG  1  18   1
M  END
>  <CHROM.1>
53.06137940,179.56538554,-151.43238693,-121.14361459,54.19624289,-24.89929362
7.23271331,9.47719690,-1.21217509,-0.28269912,1.55279118

>  <Name>


>  <RI>
0

>  <Rbt.Current_Directory>
/home/itssahil/PROJECTS/Mol_Feturizer/New_Systems/rnas/1lvj

>  <Rbt.Executable>
rbdock ($Id: //depot/dev/client3/rdock/2013.1/src/exe/rbdock.cxx#4 $)

>  <Rbt.Library>
libRbt.so (2013.1, Build901 2013/11/27)

>  <Rbt.Parameter_File>
/export/apps/rDock/src/rDock_2013.1_src/data/scripts/dock_solv.prm

>  <Rbt.Receptor>
prm/pocket_docking_7.prm

>  <SCORE>
-38.1053

>  <SCORE.INTER>
-36.81

>  <SCORE.INTER.CONST>
1

>  <SCORE.INTER.POLAR>
-1.27279

>  <SCORE.INTER.ROT>
5

>  <SCORE.INTER.SOLV>
15.0901

>  <SCORE.INTER.VDW>
-32.2607

>  <SCORE.INTER.norm>
-1.60044

>  <SCORE.INTRA>
-1.29532

>  <SCORE.INTRA.DIHEDRAL>
0.411444

>  <SCORE.INTRA.DIHEDRAL.0>
8.06479

>  <SCORE.INTRA.POLAR>
0

>  <SCORE.INTRA.POLAR.0>
0

>  <SCORE.INTRA.REPUL>
0

>  <SCORE.INTRA.REPUL.0>
0

>  <SCORE.INTRA.SOLV>
0.932303

>  <SCORE.INTRA.SOLV.lig_0>
-29.8054

>  <SCORE.INTRA.VDW>
-1.9672

>  <SCORE.INTRA.VDW.0>
2.61447

>  <SCORE.INTRA.norm>
-0.0563184

>  <SCORE.RESTR>
0

>  <SCORE.RESTR.CAVITY>
0

>  <SCORE.RESTR.norm>
0

>  <SCORE.SYSTEM>
0

>  <SCORE.SYSTEM.CONST>
0

>  <SCORE.SYSTEM.DIHEDRAL>
0

>  <SCORE.SYSTEM.SOLV>
0

>  <SCORE.SYSTEM.norm>
0

>  <SCORE.heavy>
23

>  <SCORE.norm>
-1.65675

>  <RMSD>
4.230

$$$$

 OpenBabel11021811403D
libRbt.so/2013.1/901 2013/11/27
 23 25  0  0  0  0  0  0  0  0999 V2000
  -23.4443    8.4883    6.7966 S   0  0  0  0  0  0  0  0  0  0  0  0
  -25.5024    7.2657    8.5683 N   0  0  0  0  0  0  0  0  0  0  0  0
  -23.9779    6.3183   10.1783 C   0  0  0  0  0  0  0  0  0  0  0  0
  -22.6590    6.1189   10.6072 C   0  0  0  0  0  0  0  0  0  0  0  0
  -21.5976    6.6462    9.8779 C   0  0  0  0  0  0  0  0  0  0  0  0
  -21.8457    7.3697    8.7166 C   0  0  0  0  0  0  0  0  0  0  0  0
  -23.1523    7.5720    8.2795 C   0  0  0  0  0  0  0  0  0  0  0  0
  -24.2273    7.0481    9.0075 C   0  0  0  0  0  0  0  0  0  0  0  0
  -24.7366    7.3904    6.3071 C   0  0  0  0  0  0  0  0  0  0  0  0
  -24.8681    7.0162    4.9666 C   0  0  0  0  0  0  0  0  0  0  0  0
  -25.8959    6.1504    4.5822 C   0  0  0  0  0  0  0  0  0  0  0  0
  -26.7921    5.6648    5.5400 C   0  0  0  0  0  0  0  0  0  0  0  0
  -26.6557    6.0429    6.8761 C   0  0  0  0  0  0  0  0  0  0  0  0
  -25.6335    6.8990    7.2624 C   0  0  0  0  0  0  0  0  0  0  0  0
  -26.6506    7.0862    9.4911 C   0  0  0  0  0  0  0  0  0  0  0  0
  -26.4241    7.4619   10.9936 C   0  0  0  0  0  0  0  0  0  0  0  0
  -26.2249    8.9981   11.2296 C   0  0  0  0  0  0  0  0  0  0  0  0
  -25.6257    9.4254   12.5197 N   0  3  0  0  0  0  0  0  0  0  0  0
  -24.1422    9.3530   12.4808 C   0  0  0  0  0  0  0  0  0  0  0  0
  -26.1910    8.6214   13.6582 C   0  0  0  0  0  0  0  0  0  0  0  0
  -22.3789    5.3312   11.8553 C   0  0  0  0  0  0  0  0  0  0  0  0
  -23.4774    4.6432   12.6290 C   0  0  0  0  0  0  0  0  0  0  0  0
  -21.2251    5.1890   12.2274 O   0  0  0  0  0  0  0  0  0  0  0  0
  1  7  1  0  0  0  0
  1  9  1  0  0  0  0
  2  8  1  0  0  0  0
  2 14  1  0  0  0  0
  2 15  1  0  0  0  0
  3  4  2  0  0  0  0
  3  8  1  0  0  0  0
  4  5  1  0  0  0  0
  4 21  1  0  0  0  0
  5  6  2  0  0  0  0
  6  7  1  0  0  0  0
  7  8  2  0  0  0  0
  9 10  2  0  0  0  0
  9 14  1  0  0  0  0
 10 11  1  0  0  0  0
 11 12  2  0  0  0  0
 12 13  1  0  0  0  0
 13 14  2  0  0  0  0
 15 16  1  0  0  0  0
 16 17  1  0  0  0  0
 17 18  1  0  0  0  0
 18 19  1  0  0  0  0
 18 20  1  0  0  0  0
 21 22  1  0  0  0  0
 21 23  2  0  0  0  0
M  CHG  1  18   1
M  END
>  <CHROM.1>
34.38844120,4.71440705,68.06770009,-162.85350034,-156.62148614,-24.44542489
7.15516581,9.31524009,-1.79083094,-0.45134791,1.42303534

>  <Name>


>  <RI>
0

>  <Rbt.Current_Directory>
/home/itssahil/PROJECTS/Mol_Feturizer/New_Systems/rnas/1lvj

>  <Rbt.Executable>
rbdock ($Id: //depot/dev/client3/rdock/2013.1/src/exe/rbdock.cxx#4 $)

>  <Rbt.Library>
libRbt.so (2013.1, Build901 2013/11/27)

>  <Rbt.Parameter_File>
/export/apps/rDock/src/rDock_2013.1_src/data/scripts/dock_solv.prm

>  <Rbt.Receptor>
prm/pocket_docking_4.prm

>  <SCORE>
-33.7933

>  <SCORE.INTER>
-31.3242

>  <SCORE.INTER.CONST>
1

>  <SCORE.INTER.POLAR>
-1.40537

>  <SCORE.INTER.ROT>
5

>  <SCORE.INTER.SOLV>
16.5927

>  <SCORE.INTER.VDW>
-28.6625

>  <SCORE.INTER.norm>
-1.36192

>  <SCORE.INTRA>
-2.58738

>  <SCORE.INTRA.DIHEDRAL>
-5.20962

>  <SCORE.INTRA.DIHEDRAL.0>
8.06479

>  <SCORE.INTRA.POLAR>
0

>  <SCORE.INTRA.POLAR.0>
0

>  <SCORE.INTRA.REPUL>
0

>  <SCORE.INTRA.REPUL.0>
0

>  <SCORE.INTRA.SOLV>
-0.418308

>  <SCORE.INTRA.SOLV.lig_0>
-29.8054

>  <SCORE.INTRA.VDW>
0.226583

>  <SCORE.INTRA.VDW.0>
2.61447

>  <SCORE.INTRA.norm>
-0.112495

>  <SCORE.RESTR>
0.11832

>  <SCORE.RESTR.CAVITY>
0.11832

>  <SCORE.RESTR.norm>
0.00514435

>  <SCORE.SYSTEM>
0

>  <SCORE.SYSTEM.CONST>
0

>  <SCORE.SYSTEM.DIHEDRAL>
0

>  <SCORE.SYSTEM.SOLV>
0

>  <SCORE.SYSTEM.norm>
0

>  <SCORE.heavy>
23

>  <SCORE.norm>
-1.46927

>  <RMSD>
4.242

$$$$

 OpenBabel11021811403D
libRbt.so/2013.1/901 2013/11/27
 23 25  0  0  0  0  0  0  0  0999 V2000
  -23.3248    8.4478    6.7535 S   0  0  0  0  0  0  0  0  0  0  0  0
  -25.4483    7.5468    8.6371 N   0  0  0  0  0  0  0  0  0  0  0  0
  -23.9815    6.6156   10.3090 C   0  0  0  0  0  0  0  0  0  0  0  0
  -22.6768    6.3464   10.7430 C   0  0  0  0  0  0  0  0  0  0  0  0
  -21.5872    6.7238    9.9639 C   0  0  0  0  0  0  0  0  0  0  0  0
  -21.7933    7.3664    8.7481 C   0  0  0  0  0  0  0  0  0  0  0  0
  -23.0857    7.6368    8.3056 C   0  0  0  0  0  0  0  0  0  0  0  0
  -24.1886    7.2638    9.0832 C   0  0  0  0  0  0  0  0  0  0  0  0
  -24.7077    7.4214    6.3676 C   0  0  0  0  0  0  0  0  0  0  0  0
  -24.8880    6.9493    5.0642 C   0  0  0  0  0  0  0  0  0  0  0  0
  -25.9873    6.1407    4.7616 C   0  0  0  0  0  0  0  0  0  0  0  0
  -26.9056    5.8102    5.7635 C   0  0  0  0  0  0  0  0  0  0  0  0
  -26.7200    6.2855    7.0622 C   0  0  0  0  0  0  0  0  0  0  0  0
  -25.6272    7.0850    7.3675 C   0  0  0  0  0  0  0  0  0  0  0  0
  -26.5938    7.5379    9.5805 C   0  0  0  0  0  0  0  0  0  0  0  0
  -26.4529    8.3955   10.8822 C   0  0  0  0  0  0  0  0  0  0  0  0
  -27.4746    8.0013   12.0030 C   0  0  0  0  0  0  0  0  0  0  0  0
  -27.5365    8.8608   13.2127 N   0  3  0  0  0  0  0  0  0  0  0  0
  -28.1200    8.1317   14.3684 C   0  0  0  0  0  0  0  0  0  0  0  0
  -28.2869   10.1313   12.9217 C   0  0  0  0  0  0  0  0  0  0  0  0
  -22.4426    5.6446   12.0504 C   0  0  0  0  0  0  0  0  0  0  0  0
  -23.5785    5.0788   12.8679 C   0  0  0  0  0  0  0  0  0  0  0  0
  -21.2990    5.4704   12.4402 O   0  0  0  0  0  0  0  0  0  0  0  0
  1  7  1  0  0  0  0
  1  9  1  0  0  0  0
  2  8  1  0  0  0  0
  2 14  1  0  0  0  0
  2 15  1  0  0  0  0
  3  4  2  0  0  0  0
  3  8  1  0  0  0  0
  4  5  1  0  0  0  0
  4 21  1  0  0  0  0
  5  6  2  0  0  0  0
  6  7  1  0  0  0  0
  7  8  2  0  0  0  0
  9 10  2  0  0  0  0
  9 14  1  0  0  0  0
 10 11  1  0  0  0  0
 11 12  2  0  0  0  0
 12 13  1  0  0  0  0
 13 14  2  0  0  0  0
 15 16  1  0  0  0  0
 16 17  1  0  0  0  0
 17 18  1  0  0  0  0
 18 19  1  0  0  0  0
 18 20  1  0  0  0  0
 21 22  1  0  0  0  0
 21 23  2  0  0  0  0
M  CHG  1  18   1
M  END
>  <CHROM.1>
52.30330721,6.52827730,-162.34257308,-172.67907547,-38.34341749,-24.86175288
7.26420518,9.51141031,-1.28845561,-0.33503829,1.54151205

>  <Name>


>  <RI>
0

>  <Rbt.Current_Directory>
/home/itssahil/PROJECTS/Mol_Feturizer/New_Systems/rnas/1lvj

>  <Rbt.Executable>
rbdock ($Id: //depot/dev/client3/rdock/2013.1/src/exe/rbdock.cxx#4 $)

>  <Rbt.Library>
libRbt.so (2013.1, Build901 2013/11/27)

>  <Rbt.Parameter_File>
/export/apps/rDock/src/rDock_2013.1_src/data/scripts/dock_solv.prm

>  <Rbt.Receptor>
prm/pocket_docking_7.prm

>  <SCORE>
-36.4882

>  <SCORE.INTER>
-31.6786

>  <SCORE.INTER.CONST>
1

>  <SCORE.INTER.POLAR>
0

>  <SCORE.INTER.ROT>
5

>  <SCORE.INTER.SOLV>
10.6939

>  <SCORE.INTER.VDW>
-31.617

>  <SCORE.INTER.norm>
-1.37733

>  <SCORE.INTRA>
-4.80958

>  <SCORE.INTRA.DIHEDRAL>
-5.52221

>  <SCORE.INTRA.DIHEDRAL.0>
8.06479

>  <SCORE.INTRA.POLAR>
0

>  <SCORE.INTRA.POLAR.0>
0

>  <SCORE.INTRA.REPUL>
0

>  <SCORE.INTRA.REPUL.0>
0

>  <SCORE.INTRA.SOLV>
0.48103

>  <SCORE.INTRA.SOLV.lig_0>
-29.8054

>  <SCORE.INTRA.VDW>
-2.28899

>  <SCORE.INTRA.VDW.0>
2.61447

>  <SCORE.INTRA.norm>
-0.209112

>  <SCORE.RESTR>
0

>  <SCORE.RESTR.CAVITY>
0

>  <SCORE.RESTR.norm>
0

>  <SCORE.SYSTEM>
0

>  <SCORE.SYSTEM.CONST>
0

>  <SCORE.SYSTEM.DIHEDRAL>
0

>  <SCORE.SYSTEM.SOLV>
0

>  <SCORE.SYSTEM.norm>
0

>  <SCORE.heavy>
23

>  <SCORE.norm>
-1.58644

>  <RMSD>
4.246

$$$$

 OpenBabel11021811403D
libRbt.so/2013.1/901 2013/11/27
 23 25  0  0  0  0  0  0  0  0999 V2000
  -23.3377    8.4917    6.3789 S   0  0  0  0  0  0  0  0  0  0  0  0
  -25.2818    8.0345    8.5882 N   0  0  0  0  0  0  0  0  0  0  0  0
  -23.6866    7.2785   10.2307 C   0  0  0  0  0  0  0  0  0  0  0  0
  -22.3567    6.9943   10.5679 C   0  0  0  0  0  0  0  0  0  0  0  0
  -21.3427    7.1742    9.6320 C   0  0  0  0  0  0  0  0  0  0  0  0
  -21.6501    7.6333    8.3559 C   0  0  0  0  0  0  0  0  0  0  0  0
  -22.9687    7.9165    8.0089 C   0  0  0  0  0  0  0  0  0  0  0  0
  -23.9958    7.7415    8.9440 C   0  0  0  0  0  0  0  0  0  0  0  0
  -24.8033    7.5112    6.3051 C   0  0  0  0  0  0  0  0  0  0  0  0
  -25.1494    6.8562    5.1196 C   0  0  0  0  0  0  0  0  0  0  0  0
  -26.3136    6.0847    5.0638 C   0  0  0  0  0  0  0  0  0  0  0  0
  -27.1307    5.9742    6.1936 C   0  0  0  0  0  0  0  0  0  0  0  0
  -26.7798    6.6313    7.3735 C   0  0  0  0  0  0  0  0  0  0  0  0
  -25.6222    7.3947    7.4341 C   0  0  0  0  0  0  0  0  0  0  0  0
  -26.3151    8.2469    9.6319 C   0  0  0  0  0  0  0  0  0  0  0  0
  -26.5613    7.0762   10.6411 C   0  0  0  0  0  0  0  0  0  0  0  0
  -27.3334    7.5165   11.9316 C   0  0  0  0  0  0  0  0  0  0  0  0
  -26.5347    8.0491   13.0648 N   0  3  0  0  0  0  0  0  0  0  0  0
  -27.3362    8.1084   14.3145 C   0  0  0  0  0  0  0  0  0  0  0  0
  -25.9498    9.3901   12.7163 C   0  0  0  0  0  0  0  0  0  0  0  0
  -22.0142    6.4893   11.9405 C   0  0  0  0  0  0  0  0  0  0  0  0
  -20.5878    6.2411   12.3675 C   0  0  0  0  0  0  0  0  0  0  0  0
  -22.9053    6.3296   12.7595 O   0  0  0  0  0  0  0  0  0  0  0  0
  1  7  1  0  0  0  0
  1  9  1  0  0  0  0
  2  8  1  0  0  0  0
  2 14  1  0  0  0  0
  2 15  1  0  0  0  0
  3  4  2  0  0  0  0
  3  8  1  0  0  0  0
  4  5  1  0  0  0  0
  4 21  1  0  0  0  0
  5  6  2  0  0  0  0
  6  7  1  0  0  0  0
  7  8  2  0  0  0  0
  9 10  2  0  0  0  0
  9 14  1  0  0  0  0
 10 11  1  0  0  0  0
 11 12  2  0  0  0  0
 12 13  1  0  0  0  0
 13 14  2  0  0  0  0
 15 16  1  0  0  0  0
 16 17  1  0  0  0  0
 17 18  1  0  0  0  0
 18 19  1  0  0  0  0
 18 20  1  0  0  0  0
 21 22  1  0  0  0  0
 21 23  2  0  0  0  0
M  CHG  1  18   1
M  END
>  <CHROM.1>
-57.82737906,-176.69332816,163.05891260,-86.77362545,-46.02924922,-24.56696520
7.42911064,9.42064096,-1.59270188,-0.08037349,1.52657926

>  <Name>


>  <RI>
0

>  <Rbt.Current_Directory>
/home/itssahil/PROJECTS/Mol_Feturizer/New_Systems/rnas/1lvj

>  <Rbt.Executable>
rbdock ($Id: //depot/dev/client3/rdock/2013.1/src/exe/rbdock.cxx#4 $)

>  <Rbt.Library>
libRbt.so (2013.1, Build901 2013/11/27)

>  <Rbt.Parameter_File>
/export/apps/rDock/src/rDock_2013.1_src/data/scripts/dock_solv.prm

>  <Rbt.Receptor>
prm/pocket_docking_5.prm

>  <SCORE>
-30.7993

>  <SCORE.INTER>
-28.5137

>  <SCORE.INTER.CONST>
1

>  <SCORE.INTER.POLAR>
0

>  <SCORE.INTER.ROT>
5

>  <SCORE.INTER.SOLV>
10.5886

>  <SCORE.INTER.VDW>
-29.472

>  <SCORE.INTER.norm>
-1.23972

>  <SCORE.INTRA>
-2.28564

>  <SCORE.INTRA.DIHEDRAL>
-3.90551

>  <SCORE.INTRA.DIHEDRAL.0>
8.06479

>  <SCORE.INTRA.POLAR>
0

>  <SCORE.INTRA.POLAR.0>
0

>  <SCORE.INTRA.REPUL>
0

>  <SCORE.INTRA.REPUL.0>
0

>  <SCORE.INTRA.SOLV>
2.596

>  <SCORE.INTRA.SOLV.lig_0>
-29.8054

>  <SCORE.INTRA.VDW>
-1.63088

>  <SCORE.INTRA.VDW.0>
2.61447

>  <SCORE.INTRA.norm>
-0.0993755

>  <SCORE.RESTR>
0

>  <SCORE.RESTR.CAVITY>
0

>  <SCORE.RESTR.norm>
0

>  <SCORE.SYSTEM>
0

>  <SCORE.SYSTEM.CONST>
0

>  <SCORE.SYSTEM.DIHEDRAL>
0

>  <SCORE.SYSTEM.SOLV>
0

>  <SCORE.SYSTEM.norm>
0

>  <SCORE.heavy>
23

>  <SCORE.norm>
-1.3391

>  <RMSD>
4.281

$$$$

 OpenBabel11021811403D
libRbt.so/2013.1/901 2013/11/27
 23 25  0  0  0  0  0  0  0  0999 V2000
  -23.3056    8.4560    6.6055 S   0  0  0  0  0  0  0  0  0  0  0  0
  -25.3968    7.7002    8.5866 N   0  0  0  0  0  0  0  0  0  0  0  0
  -23.9060    6.8223   10.2661 C   0  0  0  0  0  0  0  0  0  0  0  0
  -22.5962    6.5460   10.6799 C   0  0  0  0  0  0  0  0  0  0  0  0
  -21.5200    6.8585    9.8548 C   0  0  0  0  0  0  0  0  0  0  0  0
  -21.7448    7.4429    8.6132 C   0  0  0  0  0  0  0  0  0  0  0  0
  -23.0425    7.7197    8.1906 C   0  0  0  0  0  0  0  0  0  0  0  0
  -24.1319    7.4117    9.0143 C   0  0  0  0  0  0  0  0  0  0  0  0
  -24.7198    7.4428    6.3083 C   0  0  0  0  0  0  0  0  0  0  0  0
  -24.9449    6.9092    5.0359 C   0  0  0  0  0  0  0  0  0  0  0  0
  -26.0688    6.1114    4.8035 C   0  0  0  0  0  0  0  0  0  0  0  0
  -26.9669    5.8532    5.8442 C   0  0  0  0  0  0  0  0  0  0  0  0
  -26.7367    6.3895    7.1116 C   0  0  0  0  0  0  0  0  0  0  0  0
  -25.6193    7.1786    7.3474 C   0  0  0  0  0  0  0  0  0  0  0  0
  -26.5166    7.7652    9.5581 C   0  0  0  0  0  0  0  0  0  0  0  0
  -26.2655    8.5574   10.8845 C   0  0  0  0  0  0  0  0  0  0  0  0
  -27.5552    8.7416   11.7551 C   0  0  0  0  0  0  0  0  0  0  0  0
  -27.4385    9.5447   12.9990 N   0  3  0  0  0  0  0  0  0  0  0  0
  -26.7185    8.7981   14.0628 C   0  0  0  0  0  0  0  0  0  0  0  0
  -28.7939   10.0030   13.4626 C   0  0  0  0  0  0  0  0  0  0  0  0
  -22.3423    5.9065   12.0152 C   0  0  0  0  0  0  0  0  0  0  0  0
  -23.4654    5.3785   12.8745 C   0  0  0  0  0  0  0  0  0  0  0  0
  -21.1930    5.7520   12.3964 O   0  0  0  0  0  0  0  0  0  0  0  0
  1  7  1  0  0  0  0
  1  9  1  0  0  0  0
  2  8  1  0  0  0  0
  2 14  1  0  0  0  0
  2 15  1  0  0  0  0
  3  4  2  0  0  0  0
  3  8  1  0  0  0  0
  4  5  1  0  0  0  0
  4 21  1  0  0  0  0
  5  6  2  0  0  0  0
  6  7  1  0  0  0  0
  7  8  2  0  0  0  0
  9 10  2  0  0  0  0
  9 14  1  0  0  0  0
 10 11  1  0  0  0  0
 11 12  2  0  0  0  0
 12 13  1  0  0  0  0
 13 14  2  0  0  0  0
 15 16  1  0  0  0  0
 16 17  1  0  0  0  0
 17 18  1  0  0  0  0
 18 19  1  0  0  0  0
 18 20  1  0  0  0  0
 21 22  1  0  0  0  0
 21 23  2  0  0  0  0
M  CHG  1  18   1
M  END
>  <CHROM.1>
45.79882638,8.04971872,172.00060771,-176.72893707,46.17252918,-24.78599760
7.45452808,9.46214015,-1.32600831,-0.35265506,1.46874488

>  <Name>


>  <RI>
0

>  <Rbt.Current_Directory>
/home/itssahil/PROJECTS/Mol_Feturizer/New_Systems/rnas/1lvj

>  <Rbt.Executable>
rbdock ($Id: //depot/dev/client3/rdock/2013.1/src/exe/rbdock.cxx#4 $)

>  <Rbt.Library>
libRbt.so (2013.1, Build901 2013/11/27)

>  <Rbt.Parameter_File>
/export/apps/rDock/src/rDock_2013.1_src/data/scripts/dock_solv.prm

>  <Rbt.Receptor>
prm/pocket_docking_8.prm

>  <SCORE>
-42.5082

>  <SCORE.INTER>
-37.4112

>  <SCORE.INTER.CONST>
1

>  <SCORE.INTER.POLAR>
-1.40498

>  <SCORE.INTER.ROT>
5

>  <SCORE.INTER.SOLV>
15.9371

>  <SCORE.INTER.VDW>
-32.5032

>  <SCORE.INTER.norm>
-1.62658

>  <SCORE.INTRA>
-5.09701

>  <SCORE.INTRA.DIHEDRAL>
-6.82903

>  <SCORE.INTRA.DIHEDRAL.0>
8.06479

>  <SCORE.INTRA.POLAR>
0

>  <SCORE.INTRA.POLAR.0>
0

>  <SCORE.INTRA.REPUL>
0

>  <SCORE.INTRA.REPUL.0>
0

>  <SCORE.INTRA.SOLV>
0.415353

>  <SCORE.INTRA.SOLV.lig_0>
-29.8054

>  <SCORE.INTRA.VDW>
-1.89017

>  <SCORE.INTRA.VDW.0>
2.61447

>  <SCORE.INTRA.norm>
-0.221609

>  <SCORE.RESTR>
0

>  <SCORE.RESTR.CAVITY>
0

>  <SCORE.RESTR.norm>
0

>  <SCORE.SYSTEM>
0

>  <SCORE.SYSTEM.CONST>
0

>  <SCORE.SYSTEM.DIHEDRAL>
0

>  <SCORE.SYSTEM.SOLV>
0

>  <SCORE.SYSTEM.norm>
0

>  <SCORE.heavy>
23

>  <SCORE.norm>
-1.84818

>  <RMSD>
4.316

$$$$

 OpenBabel11021811403D
libRbt.so/2013.1/901 2013/11/27
 23 25  0  0  0  0  0  0  0  0999 V2000
  -23.0817    8.4171    6.6144 S   0  0  0  0  0  0  0  0  0  0  0  0
  -25.1631    8.1922    8.7324 N   0  0  0  0  0  0  0  0  0  0  0  0
  -23.7339    7.2935   10.4539 C   0  0  0  0  0  0  0  0  0  0  0  0
  -22.4582    6.8759   10.8556 C   0  0  0  0  0  0  0  0  0  0  0  0
  -21.3887    6.9375    9.9675 C   0  0  0  0  0  0  0  0  0  0  0  0
  -21.5868    7.4107    8.6750 C   0  0  0  0  0  0  0  0  0  0  0  0
  -22.8509    7.8261    8.2640 C   0  0  0  0  0  0  0  0  0  0  0  0
  -23.9329    7.7708    9.1507 C   0  0  0  0  0  0  0  0  0  0  0  0
  -24.6371    7.5944    6.4783 C   0  0  0  0  0  0  0  0  0  0  0  0
  -24.9948    6.9649    5.2825 C   0  0  0  0  0  0  0  0  0  0  0  0
  -26.2298    6.3187    5.1772 C   0  0  0  0  0  0  0  0  0  0  0  0
  -27.1054    6.3079    6.2679 C   0  0  0  0  0  0  0  0  0  0  0  0
  -26.7424    6.9388    7.4583 C   0  0  0  0  0  0  0  0  0  0  0  0
  -25.5150    7.5777    7.5681 C   0  0  0  0  0  0  0  0  0  0  0  0
  -26.2156    8.5241    9.7245 C   0  0  0  0  0  0  0  0  0  0  0  0
  -26.6116    7.4061   10.7459 C   0  0  0  0  0  0  0  0  0  0  0  0
  -27.4487    7.9373   11.9593 C   0  0  0  0  0  0  0  0  0  0  0  0
  -26.7067    8.3867   13.1648 N   0  3  0  0  0  0  0  0  0  0  0  0
  -27.6322    8.8322   14.2383 C   0  0  0  0  0  0  0  0  0  0  0  0
  -25.7147    9.4590   12.8068 C   0  0  0  0  0  0  0  0  0  0  0  0
  -22.2346    6.3544   12.2465 C   0  0  0  0  0  0  0  0  0  0  0  0
  -20.8636    5.9618   12.7415 C   0  0  0  0  0  0  0  0  0  0  0  0
  -23.1741    6.3001   13.0240 O   0  0  0  0  0  0  0  0  0  0  0  0
  1  7  1  0  0  0  0
  1  9  1  0  0  0  0
  2  8  1  0  0  0  0
  2 14  1  0  0  0  0
  2 15  1  0  0  0  0
  3  4  2  0  0  0  0
  3  8  1  0  0  0  0
  4  5  1  0  0  0  0
  4 21  1  0  0  0  0
  5  6  2  0  0  0  0
  6  7  1  0  0  0  0
  7  8  2  0  0  0  0
  9 10  2  0  0  0  0
  9 14  1  0  0  0  0
 10 11  1  0  0  0  0
 11 12  2  0  0  0  0
 12 13  1  0  0  0  0
 13 14  2  0  0  0  0
 15 16  1  0  0  0  0
 16 17  1  0  0  0  0
 17 18  1  0  0  0  0
 18 19  1  0  0  0  0
 18 20  1  0  0  0  0
 21 22  1  0  0  0  0
 21 23  2  0  0  0  0
M  CHG  1  18   1
M  END
>  <CHROM.1>
-56.75810776,-176.77632265,165.63222403,-90.15231792,-58.73511552,-24.56124431
7.52937377,9.59762497,-1.54242868,-0.19075511,1.51941773

>  <Name>


>  <RI>
0

>  <Rbt.Current_Directory>
/home/itssahil/PROJECTS/Mol_Feturizer/New_Systems/rnas/1lvj

>  <Rbt.Executable>
rbdock ($Id: //depot/dev/client3/rdock/2013.1/src/exe/rbdock.cxx#4 $)

>  <Rbt.Library>
libRbt.so (2013.1, Build901 2013/11/27)

>  <Rbt.Parameter_File>
/export/apps/rDock/src/rDock_2013.1_src/data/scripts/dock_solv.prm

>  <Rbt.Receptor>
prm/pocket_docking_6.prm

>  <SCORE>
-31.2703

>  <SCORE.INTER>
-29.2764

>  <SCORE.INTER.CONST>
1

>  <SCORE.INTER.POLAR>
0

>  <SCORE.INTER.ROT>
5

>  <SCORE.INTER.SOLV>
10.2351

>  <SCORE.INTER.VDW>
-29.8626

>  <SCORE.INTER.norm>
-1.27289

>  <SCORE.INTRA>
-1.99388

>  <SCORE.INTRA.DIHEDRAL>
-4.01648

>  <SCORE.INTRA.DIHEDRAL.0>
8.06479

>  <SCORE.INTRA.POLAR>
0

>  <SCORE.INTRA.POLAR.0>
0

>  <SCORE.INTRA.REPUL>
0

>  <SCORE.INTRA.REPUL.0>
0

>  <SCORE.INTRA.SOLV>
1.78895

>  <SCORE.INTRA.SOLV.lig_0>
-29.8054

>  <SCORE.INTRA.VDW>
-0.880116

>  <SCORE.INTRA.VDW.0>
2.61447

>  <SCORE.INTRA.norm>
-0.0866904

>  <SCORE.RESTR>
0

>  <SCORE.RESTR.CAVITY>
0

>  <SCORE.RESTR.norm>
0

>  <SCORE.SYSTEM>
0

>  <SCORE.SYSTEM.CONST>
0

>  <SCORE.SYSTEM.DIHEDRAL>
0

>  <SCORE.SYSTEM.SOLV>
0

>  <SCORE.SYSTEM.norm>
0

>  <SCORE.heavy>
23

>  <SCORE.norm>
-1.35958

>  <RMSD>
4.362

$$$$

 OpenBabel11021811403D
libRbt.so/2013.1/901 2013/11/27
 23 25  0  0  0  0  0  0  0  0999 V2000
  -23.4536    8.4812    6.5163 S   0  0  0  0  0  0  0  0  0  0  0  0
  -25.4841    7.5330    8.4776 N   0  0  0  0  0  0  0  0  0  0  0  0
  -23.9335    6.6999   10.1255 C   0  0  0  0  0  0  0  0  0  0  0  0
  -22.6070    6.4947   10.5274 C   0  0  0  0  0  0  0  0  0  0  0  0
  -21.5564    6.9004    9.7101 C   0  0  0  0  0  0  0  0  0  0  0  0
  -21.8231    7.5077    8.4878 C   0  0  0  0  0  0  0  0  0  0  0  0
  -23.1375    7.7144    8.0771 C   0  0  0  0  0  0  0  0  0  0  0  0
  -24.2016    7.3124    8.8932 C   0  0  0  0  0  0  0  0  0  0  0  0
  -24.8019    7.3900    6.1909 C   0  0  0  0  0  0  0  0  0  0  0  0
  -24.9981    6.8829    4.9030 C   0  0  0  0  0  0  0  0  0  0  0  0
  -26.0701    6.0228    4.6484 C   0  0  0  0  0  0  0  0  0  0  0  0
  -26.9456    5.6759    5.6826 C   0  0  0  0  0  0  0  0  0  0  0  0
  -26.7444    6.1862    6.9655 C   0  0  0  0  0  0  0  0  0  0  0  0
  -25.6784    7.0370    7.2233 C   0  0  0  0  0  0  0  0  0  0  0  0
  -26.6016    7.4965    9.4533 C   0  0  0  0  0  0  0  0  0  0  0  0
  -26.4971    8.4452   10.6939 C   0  0  0  0  0  0  0  0  0  0  0  0
  -25.9430    7.7365   11.9768 C   0  0  0  0  0  0  0  0  0  0  0  0
  -25.6537    8.5836   13.1619 N   0  3  0  0  0  0  0  0  0  0  0  0
  -24.5981    9.5871   12.8685 C   0  0  0  0  0  0  0  0  0  0  0  0
  -25.2947    7.7306   14.3475 C   0  0  0  0  0  0  0  0  0  0  0  0
  -22.3073    5.8316   11.8416 C   0  0  0  0  0  0  0  0  0  0  0  0
  -20.8929    5.5956   12.3129 C   0  0  0  0  0  0  0  0  0  0  0  0
  -23.2285    5.5259   12.5820 O   0  0  0  0  0  0  0  0  0  0  0  0
  1  7  1  0  0  0  0
  1  9  1  0  0  0  0
  2  8  1  0  0  0  0
  2 14  1  0  0  0  0
  2 15  1  0  0  0  0
  3  4  2  0  0  0  0
  3  8  1  0  0  0  0
  4  5  1  0  0  0  0
  4 21  1  0  0  0  0
  5  6  2  0  0  0  0
  6  7  1  0  0  0  0
  7  8  2  0  0  0  0
  9 10  2  0  0  0  0
  9 14  1  0  0  0  0
 10 11  1  0  0  0  0
 11 12  2  0  0  0  0
 12 13  1  0  0  0  0
 13 14  2  0  0  0  0
 15 16  1  0  0  0  0
 16 17  1  0  0  0  0
 17 18  1  0  0  0  0
 18 19  1  0  0  0  0
 18 20  1  0  0  0  0
 21 22  1  0  0  0  0
 21 23  2  0  0  0  0
M  CHG  1  18   1
M  END
>  <CHROM.1>
55.54139560,-179.82260599,-97.14188414,172.92770914,57.88123179,-24.41197652
7.24019917,9.35415237,-1.76635077,-0.22768728,1.47619814

>  <Name>


>  <RI>
0

>  <Rbt.Current_Directory>
/home/itssahil/PROJECTS/Mol_Feturizer/New_Systems/rnas/1lvj

>  <Rbt.Executable>
rbdock ($Id: //depot/dev/client3/rdock/2013.1/src/exe/rbdock.cxx#4 $)

>  <Rbt.Library>
libRbt.so (2013.1, Build901 2013/11/27)

>  <Rbt.Parameter_File>
/export/apps/rDock/src/rDock_2013.1_src/data/scripts/dock_solv.prm

>  <Rbt.Receptor>
prm/pocket_docking_4.prm

>  <SCORE>
-34.1949

>  <SCORE.INTER>
-30.5213

>  <SCORE.INTER.CONST>
1

>  <SCORE.INTER.POLAR>
0

>  <SCORE.INTER.ROT>
5

>  <SCORE.INTER.SOLV>
10.6512

>  <SCORE.INTER.VDW>
-30.8312

>  <SCORE.INTER.norm>
-1.32701

>  <SCORE.INTRA>
-3.67364

>  <SCORE.INTRA.DIHEDRAL>
-3.77047

>  <SCORE.INTRA.DIHEDRAL.0>
8.06479

>  <SCORE.INTRA.POLAR>
0

>  <SCORE.INTRA.POLAR.0>
0

>  <SCORE.INTRA.REPUL>
0

>  <SCORE.INTRA.REPUL.0>
0

>  <SCORE.INTRA.SOLV>
0.786759

>  <SCORE.INTRA.SOLV.lig_0>
-29.8054

>  <SCORE.INTRA.VDW>
-2.18179

>  <SCORE.INTRA.VDW.0>
2.61447

>  <SCORE.INTRA.norm>
-0.159724

>  <SCORE.RESTR>
0

>  <SCORE.RESTR.CAVITY>
0

>  <SCORE.RESTR.norm>
0

>  <SCORE.SYSTEM>
0

>  <SCORE.SYSTEM.CONST>
0

>  <SCORE.SYSTEM.DIHEDRAL>
0

>  <SCORE.SYSTEM.SOLV>
0

>  <SCORE.SYSTEM.norm>
0

>  <SCORE.heavy>
23

>  <SCORE.norm>
-1.48674

>  <RMSD>
4.369

$$$$

 OpenBabel11021811403D
libRbt.so/2013.1/901 2013/11/27
 23 25  0  0  0  0  0  0  0  0999 V2000
  -23.4751    8.4706    6.5468 S   0  0  0  0  0  0  0  0  0  0  0  0
  -25.4973    7.5593    8.5341 N   0  0  0  0  0  0  0  0  0  0  0  0
  -23.9407    6.7090   10.1675 C   0  0  0  0  0  0  0  0  0  0  0  0
  -22.6130    6.4855   10.5553 C   0  0  0  0  0  0  0  0  0  0  0  0
  -21.5657    6.8728    9.7248 C   0  0  0  0  0  0  0  0  0  0  0  0
  -21.8371    7.4797    8.5035 C   0  0  0  0  0  0  0  0  0  0  0  0
  -23.1529    7.7045    8.1067 C   0  0  0  0  0  0  0  0  0  0  0  0
  -24.2136    7.3212    8.9361 C   0  0  0  0  0  0  0  0  0  0  0  0
  -24.8430    7.3984    6.2404 C   0  0  0  0  0  0  0  0  0  0  0  0
  -25.0611    6.8899    4.9566 C   0  0  0  0  0  0  0  0  0  0  0  0
  -26.1486    6.0450    4.7171 C   0  0  0  0  0  0  0  0  0  0  0  0
  -27.0174    5.7146    5.7622 C   0  0  0  0  0  0  0  0  0  0  0  0
  -26.7943    6.2262    7.0410 C   0  0  0  0  0  0  0  0  0  0  0  0
  -25.7129    7.0620    7.2838 C   0  0  0  0  0  0  0  0  0  0  0  0
  -26.6041    7.5428    9.5224 C   0  0  0  0  0  0  0  0  0  0  0  0
  -26.4894    8.5210   10.7389 C   0  0  0  0  0  0  0  0  0  0  0  0
  -25.8621    7.8605   12.0138 C   0  0  0  0  0  0  0  0  0  0  0  0
  -25.4233    8.7600   13.1113 N   0  3  0  0  0  0  0  0  0  0  0  0
  -24.2987    9.6315   12.6833 C   0  0  0  0  0  0  0  0  0  0  0  0
  -25.0735    7.9653   14.3393 C   0  0  0  0  0  0  0  0  0  0  0  0
  -22.3084    5.8225   11.8684 C   0  0  0  0  0  0  0  0  0  0  0  0
  -23.3925    5.2231   12.7310 C   0  0  0  0  0  0  0  0  0  0  0  0
  -21.1470    5.7083   12.2265 O   0  0  0  0  0  0  0  0  0  0  0  0
  1  7  1  0  0  0  0
  1  9  1  0  0  0  0
  2  8  1  0  0  0  0
  2 14  1  0  0  0  0
  2 15  1  0  0  0  0
  3  4  2  0  0  0  0
  3  8  1  0  0  0  0
  4  5  1  0  0  0  0
  4 21  1  0  0  0  0
  5  6  2  0  0  0  0
  6  7  1  0  0  0  0
  7  8  2  0  0  0  0
  9 10  2  0  0  0  0
  9 14  1  0  0  0  0
 10 11  1  0  0  0  0
 11 12  2  0  0  0  0
 12 13  1  0  0  0  0
 13 14  2  0  0  0  0
 15 16  1  0  0  0  0
 16 17  1  0  0  0  0
 17 18  1  0  0  0  0
 18 19  1  0  0  0  0
 18 20  1  0  0  0  0
 21 22  1  0  0  0  0
 21 23  2  0  0  0  0
M  CHG  1  18   1
M  END
>  <CHROM.1>
57.08510331,7.72750057,-94.65929414,166.35880655,54.98047151,-24.40507537
7.26679838,9.37926737,-1.79331627,-0.24659373,1.45991773

>  <Name>


>  <RI>
0

>  <Rbt.Current_Directory>
/home/itssahil/PROJECTS/Mol_Feturizer/New_Systems/rnas/1lvj

>  <Rbt.Executable>
rbdock ($Id: //depot/dev/client3/rdock/2013.1/src/exe/rbdock.cxx#4 $)

>  <Rbt.Library>
libRbt.so (2013.1, Build901 2013/11/27)

>  <Rbt.Parameter_File>
/export/apps/rDock/src/rDock_2013.1_src/data/scripts/dock_solv.prm

>  <Rbt.Receptor>
prm/pocket_docking_4.prm

>  <SCORE>
-34.6199

>  <SCORE.INTER>
-30.7756

>  <SCORE.INTER.CONST>
1

>  <SCORE.INTER.POLAR>
0

>  <SCORE.INTER.ROT>
5

>  <SCORE.INTER.SOLV>
11.1295

>  <SCORE.INTER.VDW>
-31.1603

>  <SCORE.INTER.norm>
-1.33807

>  <SCORE.INTRA>
-3.85633

>  <SCORE.INTRA.DIHEDRAL>
-3.38172

>  <SCORE.INTRA.DIHEDRAL.0>
8.06479

>  <SCORE.INTRA.POLAR>
0

>  <SCORE.INTRA.POLAR.0>
0

>  <SCORE.INTRA.REPUL>
0

>  <SCORE.INTRA.REPUL.0>
0

>  <SCORE.INTRA.SOLV>
0.494113

>  <SCORE.INTRA.SOLV.lig_0>
-29.8054

>  <SCORE.INTRA.VDW>
-2.41253

>  <SCORE.INTRA.VDW.0>
2.61447

>  <SCORE.INTRA.norm>
-0.167667

>  <SCORE.RESTR>
0.0121053

>  <SCORE.RESTR.CAVITY>
0.0121053

>  <SCORE.RESTR.norm>
0.000526317

>  <SCORE.SYSTEM>
0

>  <SCORE.SYSTEM.CONST>
0

>  <SCORE.SYSTEM.DIHEDRAL>
0

>  <SCORE.SYSTEM.SOLV>
0

>  <SCORE.SYSTEM.norm>
0

>  <SCORE.heavy>
23

>  <SCORE.norm>
-1.50521

>  <RMSD>
4.370

$$$$

 OpenBabel11021811403D
libRbt.so/2013.1/901 2013/11/27
 23 25  0  0  0  0  0  0  0  0999 V2000
  -23.3249    8.4327    6.5610 S   0  0  0  0  0  0  0  0  0  0  0  0
  -25.4013    7.7161    8.5720 N   0  0  0  0  0  0  0  0  0  0  0  0
  -23.8994    6.8548   10.2502 C   0  0  0  0  0  0  0  0  0  0  0  0
  -22.5872    6.5778   10.6558 C   0  0  0  0  0  0  0  0  0  0  0  0
  -21.5172    6.8729    9.8164 C   0  0  0  0  0  0  0  0  0  0  0  0
  -21.7506    7.4406    8.5686 C   0  0  0  0  0  0  0  0  0  0  0  0
  -23.0507    7.7179    8.1541 C   0  0  0  0  0  0  0  0  0  0  0  0
  -24.1339    7.4274    8.9921 C   0  0  0  0  0  0  0  0  0  0  0  0
  -24.7469    7.4226    6.2915 C   0  0  0  0  0  0  0  0  0  0  0  0
  -24.9864    6.8720    5.0291 C   0  0  0  0  0  0  0  0  0  0  0  0
  -26.1165    6.0766    4.8186 C   0  0  0  0  0  0  0  0  0  0  0  0
  -27.0061    5.8379    5.8712 C   0  0  0  0  0  0  0  0  0  0  0  0
  -26.7614    6.3913    7.1285 C   0  0  0  0  0  0  0  0  0  0  0  0
  -25.6380    7.1779    7.3426 C   0  0  0  0  0  0  0  0  0  0  0  0
  -26.5117    7.8008    9.5528 C   0  0  0  0  0  0  0  0  0  0  0  0
  -26.2370    8.5917   10.8753 C   0  0  0  0  0  0  0  0  0  0  0  0
  -27.5235    8.8343   11.7362 C   0  0  0  0  0  0  0  0  0  0  0  0
  -27.3712    9.5899   13.0058 N   0  3  0  0  0  0  0  0  0  0  0  0
  -26.7486    8.7541   14.0647 C   0  0  0  0  0  0  0  0  0  0  0  0
  -28.6937   10.1528   13.4488 C   0  0  0  0  0  0  0  0  0  0  0  0
  -22.3240    5.9563   11.9978 C   0  0  0  0  0  0  0  0  0  0  0  0
  -20.9272    5.6253   12.4647 C   0  0  0  0  0  0  0  0  0  0  0  0
  -23.2562    5.7654   12.7625 O   0  0  0  0  0  0  0  0  0  0  0  0
  1  7  1  0  0  0  0
  1  9  1  0  0  0  0
  2  8  1  0  0  0  0
  2 14  1  0  0  0  0
  2 15  1  0  0  0  0
  3  4  2  0  0  0  0
  3  8  1  0  0  0  0
  4  5  1  0  0  0  0
  4 21  1  0  0  0  0
  5  6  2  0  0  0  0
  6  7  1  0  0  0  0
  7  8  2  0  0  0  0
  9 10  2  0  0  0  0
  9 14  1  0  0  0  0
 10 11  1  0  0  0  0
 11 12  2  0  0  0  0
 12 13  1  0  0  0  0
 13 14  2  0  0  0  0
 15 16  1  0  0  0  0
 16 17  1  0  0  0  0
 17 18  1  0  0  0  0
 18 19  1  0  0  0  0
 18 20  1  0  0  0  0
 21 22  1  0  0  0  0
 21 23  2  0  0  0  0
M  CHG  1  18   1
M  END
>  <CHROM.1>
44.86350191,179.17521759,170.32089687,-179.36184594,44.69676260,-24.77002176
7.47978218,9.44836030,-1.34497118,-0.35284077,1.44892231

>  <Name>


>  <RI>
0

>  <Rbt.Current_Directory>
/home/itssahil/PROJECTS/Mol_Feturizer/New_Systems/rnas/1lvj

>  <Rbt.Executable>
rbdock ($Id: //depot/dev/client3/rdock/2013.1/src/exe/rbdock.cxx#4 $)

>  <Rbt.Library>
libRbt.so (2013.1, Build901 2013/11/27)

>  <Rbt.Parameter_File>
/export/apps/rDock/src/rDock_2013.1_src/data/scripts/dock_solv.prm

>  <Rbt.Receptor>
prm/pocket_docking_8.prm

>  <SCORE>
-42.508

>  <SCORE.INTER>
-37.6857

>  <SCORE.INTER.CONST>
1

>  <SCORE.INTER.POLAR>
-1.40712

>  <SCORE.INTER.ROT>
5

>  <SCORE.INTER.SOLV>
15.8468

>  <SCORE.INTER.VDW>
-32.649

>  <SCORE.INTER.norm>
-1.63851

>  <SCORE.INTRA>
-4.82224

>  <SCORE.INTRA.DIHEDRAL>
-6.78747

>  <SCORE.INTRA.DIHEDRAL.0>
8.06479

>  <SCORE.INTRA.POLAR>
0

>  <SCORE.INTRA.POLAR.0>
0

>  <SCORE.INTRA.REPUL>
0

>  <SCORE.INTRA.REPUL.0>
0

>  <SCORE.INTRA.SOLV>
0.432821

>  <SCORE.INTRA.SOLV.lig_0>
-29.8054

>  <SCORE.INTRA.VDW>
-1.64491

>  <SCORE.INTRA.VDW.0>
2.61447

>  <SCORE.INTRA.norm>
-0.209663

>  <SCORE.RESTR>
0

>  <SCORE.RESTR.CAVITY>
0

>  <SCORE.RESTR.norm>
0

>  <SCORE.SYSTEM>
0

>  <SCORE.SYSTEM.CONST>
0

>  <SCORE.SYSTEM.DIHEDRAL>
0

>  <SCORE.SYSTEM.SOLV>
0

>  <SCORE.SYSTEM.norm>
0

>  <SCORE.heavy>
23

>  <SCORE.norm>
-1.84817

>  <RMSD>
4.385

$$$$

 OpenBabel11021811403D
libRbt.so/2013.1/901 2013/11/27
 23 25  0  0  0  0  0  0  0  0999 V2000
  -23.4193    8.4563    6.5062 S   0  0  0  0  0  0  0  0  0  0  0  0
  -25.4323    7.6572    8.5503 N   0  0  0  0  0  0  0  0  0  0  0  0
  -23.8721    6.8177   10.1858 C   0  0  0  0  0  0  0  0  0  0  0  0
  -22.5445    6.5725   10.5606 C   0  0  0  0  0  0  0  0  0  0  0  0
  -21.5009    6.9077    9.7031 C   0  0  0  0  0  0  0  0  0  0  0  0
  -21.7762    7.4840    8.4679 C   0  0  0  0  0  0  0  0  0  0  0  0
  -23.0920    7.7300    8.0839 C   0  0  0  0  0  0  0  0  0  0  0  0
  -24.1488    7.3989    8.9404 C   0  0  0  0  0  0  0  0  0  0  0  0
  -24.8181    7.4103    6.2532 C   0  0  0  0  0  0  0  0  0  0  0  0
  -25.0688    6.8688    4.9890 C   0  0  0  0  0  0  0  0  0  0  0  0
  -26.1805    6.0448    4.7917 C   0  0  0  0  0  0  0  0  0  0  0  0
  -27.0408    5.7684    5.8592 C   0  0  0  0  0  0  0  0  0  0  0  0
  -26.7852    6.3128    7.1183 C   0  0  0  0  0  0  0  0  0  0  0  0
  -25.6797    7.1279    7.3192 C   0  0  0  0  0  0  0  0  0  0  0  0
  -26.5237    7.6987    9.5549 C   0  0  0  0  0  0  0  0  0  0  0  0
  -26.1276    8.0649   11.0243 C   0  0  0  0  0  0  0  0  0  0  0  0
  -27.2377    8.8633   11.7894 C   0  0  0  0  0  0  0  0  0  0  0  0
  -27.0161    9.1428   13.2312 N   0  3  0  0  0  0  0  0  0  0  0  0
  -28.0982    9.9919   13.7931 C   0  0  0  0  0  0  0  0  0  0  0  0
  -25.6600    9.7553   13.4495 C   0  0  0  0  0  0  0  0  0  0  0  0
  -22.2360    5.9421   11.8887 C   0  0  0  0  0  0  0  0  0  0  0  0
  -23.3255    5.4802   12.8259 C   0  0  0  0  0  0  0  0  0  0  0  0
  -21.0731    5.7397   12.1999 O   0  0  0  0  0  0  0  0  0  0  0  0
  1  7  1  0  0  0  0
  1  9  1  0  0  0  0
  2  8  1  0  0  0  0
  2 14  1  0  0  0  0
  2 15  1  0  0  0  0
  3  4  2  0  0  0  0
  3  8  1  0  0  0  0
  4  5  1  0  0  0  0
  4 21  1  0  0  0  0
  5  6  2  0  0  0  0
  6  7  1  0  0  0  0
  7  8  2  0  0  0  0
  9 10  2  0  0  0  0
  9 14  1  0  0  0  0
 10 11  1  0  0  0  0
 11 12  2  0  0  0  0
 12 13  1  0  0  0  0
 13 14  2  0  0  0  0
 15 16  1  0  0  0  0
 16 17  1  0  0  0  0
 17 18  1  0  0  0  0
 18 19  1  0  0  0  0
 18 20  1  0  0  0  0
 21 22  1  0  0  0  0
 21 23  2  0  0  0  0
M  CHG  1  18   1
M  END
>  <CHROM.1>
26.08361204,3.57260593,146.94973490,174.11545382,-64.35599448,-24.68460545
7.44963689,9.41102583,-1.47732965,-0.34381756,1.41594750

>  <Name>


>  <RI>
0

>  <Rbt.Current_Directory>
/home/itssahil/PROJECTS/Mol_Feturizer/New_Systems/rnas/1lvj

>  <Rbt.Executable>
rbdock ($Id: //depot/dev/client3/rdock/2013.1/src/exe/rbdock.cxx#4 $)

>  <Rbt.Library>
libRbt.so (2013.1, Build901 2013/11/27)

>  <Rbt.Parameter_File>
/export/apps/rDock/src/rDock_2013.1_src/data/scripts/dock_solv.prm

>  <Rbt.Receptor>
prm/pocket_docking_6.prm

>  <SCORE>
-32.6164

>  <SCORE.INTER>
-32.5452

>  <SCORE.INTER.CONST>
1

>  <SCORE.INTER.POLAR>
0

>  <SCORE.INTER.ROT>
5

>  <SCORE.INTER.SOLV>
10.6981

>  <SCORE.INTER.VDW>
-32.1962

>  <SCORE.INTER.norm>
-1.41501

>  <SCORE.INTRA>
-0.0711732

>  <SCORE.INTRA.DIHEDRAL>
-3.79044

>  <SCORE.INTRA.DIHEDRAL.0>
8.06479

>  <SCORE.INTRA.POLAR>
0

>  <SCORE.INTRA.POLAR.0>
0

>  <SCORE.INTRA.REPUL>
0

>  <SCORE.INTRA.REPUL.0>
0

>  <SCORE.INTRA.SOLV>
0.219709

>  <SCORE.INTRA.SOLV.lig_0>
-29.8054

>  <SCORE.INTRA.VDW>
1.71419

>  <SCORE.INTRA.VDW.0>
2.61447

>  <SCORE.INTRA.norm>
-0.00309449

>  <SCORE.RESTR>
0

>  <SCORE.RESTR.CAVITY>
0

>  <SCORE.RESTR.norm>
0

>  <SCORE.SYSTEM>
0

>  <SCORE.SYSTEM.CONST>
0

>  <SCORE.SYSTEM.DIHEDRAL>
0

>  <SCORE.SYSTEM.SOLV>
0

>  <SCORE.SYSTEM.norm>
0

>  <SCORE.heavy>
23

>  <SCORE.norm>
-1.4181

>  <RMSD>
4.395

$$$$

 OpenBabel11021811403D
libRbt.so/2013.1/901 2013/11/27
 23 25  0  0  0  0  0  0  0  0999 V2000
  -23.4950    8.4946    6.5304 S   0  0  0  0  0  0  0  0  0  0  0  0
  -25.4937    7.5607    8.5310 N   0  0  0  0  0  0  0  0  0  0  0  0
  -23.9170    6.7262   10.1532 C   0  0  0  0  0  0  0  0  0  0  0  0
  -22.5844    6.5166   10.5317 C   0  0  0  0  0  0  0  0  0  0  0  0
  -21.5470    6.9155    9.6943 C   0  0  0  0  0  0  0  0  0  0  0  0
  -21.8332    7.5202    8.4752 C   0  0  0  0  0  0  0  0  0  0  0  0
  -23.1540    7.7311    8.0876 C   0  0  0  0  0  0  0  0  0  0  0  0
  -24.2048    7.3360    8.9240 C   0  0  0  0  0  0  0  0  0  0  0  0
  -24.8535    7.4079    6.2327 C   0  0  0  0  0  0  0  0  0  0  0  0
  -25.0750    6.8978    4.9502 C   0  0  0  0  0  0  0  0  0  0  0  0
  -26.1550    6.0415    4.7176 C   0  0  0  0  0  0  0  0  0  0  0  0
  -27.0130    5.7013    5.7685 C   0  0  0  0  0  0  0  0  0  0  0  0
  -26.7866    6.2146    7.0460 C   0  0  0  0  0  0  0  0  0  0  0  0
  -25.7126    7.0618    7.2819 C   0  0  0  0  0  0  0  0  0  0  0  0
  -26.5935    7.5319    9.5268 C   0  0  0  0  0  0  0  0  0  0  0  0
  -26.4829    8.5135   10.7409 C   0  0  0  0  0  0  0  0  0  0  0  0
  -25.8454    7.8612   12.0149 C   0  0  0  0  0  0  0  0  0  0  0  0
  -25.4247    8.7655   13.1154 N   0  3  0  0  0  0  0  0  0  0  0  0
  -24.2865    9.6281   12.7054 C   0  0  0  0  0  0  0  0  0  0  0  0
  -25.1051    7.9771   14.3557 C   0  0  0  0  0  0  0  0  0  0  0  0
  -22.2637    5.8562   11.8423 C   0  0  0  0  0  0  0  0  0  0  0  0
  -20.8424    5.6600   12.3112 C   0  0  0  0  0  0  0  0  0  0  0  0
  -23.1746    5.5197   12.5820 O   0  0  0  0  0  0  0  0  0  0  0  0
  1  7  1  0  0  0  0
  1  9  1  0  0  0  0
  2  8  1  0  0  0  0
  2 14  1  0  0  0  0
  2 15  1  0  0  0  0
  3  4  2  0  0  0  0
  3  8  1  0  0  0  0
  4  5  1  0  0  0  0
  4 21  1  0  0  0  0
  5  6  2  0  0  0  0
  6  7  1  0  0  0  0
  7  8  2  0  0  0  0
  9 10  2  0  0  0  0
  9 14  1  0  0  0  0
 10 11  1  0  0  0  0
 11 12  2  0  0  0  0
 12 13  1  0  0  0  0
 13 14  2  0  0  0  0
 15 16  1  0  0  0  0
 16 17  1  0  0  0  0
 17 18  1  0  0  0  0
 18 19  1  0  0  0  0
 18 20  1  0  0  0  0
 21 22  1  0  0  0  0
 21 23  2  0  0  0  0
M  CHG  1  18   1
M  END
>  <CHROM.1>
57.25887819,-177.60384516,-94.95784884,167.03724359,53.13946241,-24.38424761
7.28736285,9.37183767,-1.80681408,-0.24002512,1.45312050

>  <Name>


>  <RI>
0

>  <Rbt.Current_Directory>
/home/itssahil/PROJECTS/Mol_Feturizer/New_Systems/rnas/1lvj

>  <Rbt.Executable>
rbdock ($Id: //depot/dev/client3/rdock/2013.1/src/exe/rbdock.cxx#4 $)

>  <Rbt.Library>
libRbt.so (2013.1, Build901 2013/11/27)

>  <Rbt.Parameter_File>
/export/apps/rDock/src/rDock_2013.1_src/data/scripts/dock_solv.prm

>  <Rbt.Receptor>
prm/pocket_docking_4.prm

>  <SCORE>
-34.5592

>  <SCORE.INTER>
-30.7799

>  <SCORE.INTER.CONST>
1

>  <SCORE.INTER.POLAR>
0

>  <SCORE.INTER.ROT>
5

>  <SCORE.INTER.SOLV>
11.1867

>  <SCORE.INTER.VDW>
-31.1822

>  <SCORE.INTER.norm>
-1.33826

>  <SCORE.INTRA>
-3.78489

>  <SCORE.INTRA.DIHEDRAL>
-3.4765

>  <SCORE.INTRA.DIHEDRAL.0>
8.06479

>  <SCORE.INTRA.POLAR>
0

>  <SCORE.INTRA.POLAR.0>
0

>  <SCORE.INTRA.REPUL>
0

>  <SCORE.INTRA.REPUL.0>
0

>  <SCORE.INTRA.SOLV>
0.840599

>  <SCORE.INTRA.SOLV.lig_0>
-29.8054

>  <SCORE.INTRA.VDW>
-2.46695

>  <SCORE.INTRA.VDW.0>
2.61447

>  <SCORE.INTRA.norm>
-0.164561

>  <SCORE.RESTR>
0.00559852

>  <SCORE.RESTR.CAVITY>
0.00559852

>  <SCORE.RESTR.norm>
0.000243414

>  <SCORE.SYSTEM>
0

>  <SCORE.SYSTEM.CONST>
0

>  <SCORE.SYSTEM.DIHEDRAL>
0

>  <SCORE.SYSTEM.SOLV>
0

>  <SCORE.SYSTEM.norm>
0

>  <SCORE.heavy>
23

>  <SCORE.norm>
-1.50257

>  <RMSD>
4.430

$$$$

 OpenBabel11021811403D
libRbt.so/2013.1/901 2013/11/27
 23 25  0  0  0  0  0  0  0  0999 V2000
  -23.4488    8.4908    6.3902 S   0  0  0  0  0  0  0  0  0  0  0  0
  -25.3877    7.7860    8.5380 N   0  0  0  0  0  0  0  0  0  0  0  0
  -23.7696    7.0241   10.1553 C   0  0  0  0  0  0  0  0  0  0  0  0
  -22.4292    6.7974   10.4944 C   0  0  0  0  0  0  0  0  0  0  0  0
  -21.4169    7.0932    9.5866 C   0  0  0  0  0  0  0  0  0  0  0  0
  -21.7362    7.6115    8.3363 C   0  0  0  0  0  0  0  0  0  0  0  0
  -23.0651    7.8385    7.9875 C   0  0  0  0  0  0  0  0  0  0  0  0
  -24.0908    7.5468    8.8946 C   0  0  0  0  0  0  0  0  0  0  0  0
  -24.8532    7.4333    6.2347 C   0  0  0  0  0  0  0  0  0  0  0  0
  -25.1465    6.8336    5.0065 C   0  0  0  0  0  0  0  0  0  0  0  0
  -26.2625    6.0007    4.8864 C   0  0  0  0  0  0  0  0  0  0  0  0
  -27.0846    5.7735    5.9949 C   0  0  0  0  0  0  0  0  0  0  0  0
  -26.7865    6.3758    7.2178 C   0  0  0  0  0  0  0  0  0  0  0  0
  -25.6766    7.2000    7.3421 C   0  0  0  0  0  0  0  0  0  0  0  0
  -26.4435    7.8733    9.5771 C   0  0  0  0  0  0  0  0  0  0  0  0
  -26.1244    8.7281   10.8488 C   0  0  0  0  0  0  0  0  0  0  0  0
  -27.2424    8.6583   11.9445 C   0  0  0  0  0  0  0  0  0  0  0  0
  -27.0605    9.4797   13.1684 N   0  3  0  0  0  0  0  0  0  0  0  0
  -25.7994    9.1332   13.8734 C   0  0  0  0  0  0  0  0  0  0  0  0
  -28.2551    9.3532   14.0734 C   0  0  0  0  0  0  0  0  0  0  0  0
  -22.0733    6.2294   11.8387 C   0  0  0  0  0  0  0  0  0  0  0  0
  -20.6412    5.9872   12.2498 C   0  0  0  0  0  0  0  0  0  0  0  0
  -22.9589    6.0107   12.6500 O   0  0  0  0  0  0  0  0  0  0  0  0
  1  7  1  0  0  0  0
  1  9  1  0  0  0  0
  2  8  1  0  0  0  0
  2 14  1  0  0  0  0
  2 15  1  0  0  0  0
  3  4  2  0  0  0  0
  3  8  1  0  0  0  0
  4  5  1  0  0  0  0
  4 21  1  0  0  0  0
  5  6  2  0  0  0  0
  6  7  1  0  0  0  0
  7  8  2  0  0  0  0
  9 10  2  0  0  0  0
  9 14  1  0  0  0  0
 10 11  1  0  0  0  0
 11 12  2  0  0  0  0
 12 13  1  0  0  0  0
 13 14  2  0  0  0  0
 15 16  1  0  0  0  0
 16 17  1  0  0  0  0
 17 18  1  0  0  0  0
 18 19  1  0  0  0  0
 18 20  1  0  0  0  0
 21 22  1  0  0  0  0
 21 23  2  0  0  0  0
M  CHG  1  18   1
M  END
>  <CHROM.1>
45.47593790,-179.18092777,-174.83609849,-177.55648298,61.69057723,-24.65371700
7.53727861,9.41527273,-1.47020756,-0.26076281,1.42108020

>  <Name>


>  <RI>
0

>  <Rbt.Current_Directory>
/home/itssahil/PROJECTS/Mol_Feturizer/New_Systems/rnas/1lvj

>  <Rbt.Executable>
rbdock ($Id: //depot/dev/client3/rdock/2013.1/src/exe/rbdock.cxx#4 $)

>  <Rbt.Library>
libRbt.so (2013.1, Build901 2013/11/27)

>  <Rbt.Parameter_File>
/export/apps/rDock/src/rDock_2013.1_src/data/scripts/dock_solv.prm

>  <Rbt.Receptor>
prm/pocket_docking_6.prm

>  <SCORE>
-40.8578

>  <SCORE.INTER>
-35.9658

>  <SCORE.INTER.CONST>
1

>  <SCORE.INTER.POLAR>
-1.40712

>  <SCORE.INTER.ROT>
5

>  <SCORE.INTER.SOLV>
16.0348

>  <SCORE.INTER.VDW>
-31.5651

>  <SCORE.INTER.norm>
-1.56373

>  <SCORE.INTRA>
-4.98318

>  <SCORE.INTRA.DIHEDRAL>
-7.69435

>  <SCORE.INTRA.DIHEDRAL.0>
8.06479

>  <SCORE.INTRA.POLAR>
0

>  <SCORE.INTRA.POLAR.0>
0

>  <SCORE.INTRA.REPUL>
0

>  <SCORE.INTRA.REPUL.0>
0

>  <SCORE.INTRA.SOLV>
0.251924

>  <SCORE.INTRA.SOLV.lig_0>
-29.8054

>  <SCORE.INTRA.VDW>
-1.26197

>  <SCORE.INTRA.VDW.0>
2.61447

>  <SCORE.INTRA.norm>
-0.21666

>  <SCORE.RESTR>
0.0911969

>  <SCORE.RESTR.CAVITY>
0.0911969

>  <SCORE.RESTR.norm>
0.00396508

>  <SCORE.SYSTEM>
0

>  <SCORE.SYSTEM.CONST>
0

>  <SCORE.SYSTEM.DIHEDRAL>
0

>  <SCORE.SYSTEM.SOLV>
0

>  <SCORE.SYSTEM.norm>
0

>  <SCORE.heavy>
23

>  <SCORE.norm>
-1.77642

>  <RMSD>
4.471

$$$$

 OpenBabel11021811403D
libRbt.so/2013.1/901 2013/11/27
 23 25  0  0  0  0  0  0  0  0999 V2000
  -23.3852    8.4953    6.8694 S   0  0  0  0  0  0  0  0  0  0  0  0
  -25.4535    7.5078    8.7710 N   0  0  0  0  0  0  0  0  0  0  0  0
  -23.9372    6.5450   10.3796 C   0  0  0  0  0  0  0  0  0  0  0  0
  -22.6196    6.2799   10.7755 C   0  0  0  0  0  0  0  0  0  0  0  0
  -21.5530    6.6958    9.9845 C   0  0  0  0  0  0  0  0  0  0  0  0
  -21.7949    7.3731    8.7943 C   0  0  0  0  0  0  0  0  0  0  0  0
  -23.1004    7.6398    8.3896 C   0  0  0  0  0  0  0  0  0  0  0  0
  -24.1804    7.2280    9.1796 C   0  0  0  0  0  0  0  0  0  0  0  0
  -24.7633    7.4629    6.4826 C   0  0  0  0  0  0  0  0  0  0  0  0
  -24.9673    7.0291    5.1694 C   0  0  0  0  0  0  0  0  0  0  0  0
  -26.0629    6.2157    4.8663 C   0  0  0  0  0  0  0  0  0  0  0  0
  -26.9538    5.8419    5.8777 C   0  0  0  0  0  0  0  0  0  0  0  0
  -26.7447    6.2791    7.1862 C   0  0  0  0  0  0  0  0  0  0  0  0
  -25.6555    7.0833    7.4919 C   0  0  0  0  0  0  0  0  0  0  0  0
  -26.5769    7.4543    9.7391 C   0  0  0  0  0  0  0  0  0  0  0  0
  -26.6527    8.5950   10.8082 C   0  0  0  0  0  0  0  0  0  0  0  0
  -25.3034    8.8269   11.5703 C   0  0  0  0  0  0  0  0  0  0  0  0
  -25.3387    9.6670   12.7946 N   0  3  0  0  0  0  0  0  0  0  0  0
  -23.9920   10.1985   13.1282 C   0  0  0  0  0  0  0  0  0  0  0  0
  -25.9342    8.9022   13.9446 C   0  0  0  0  0  0  0  0  0  0  0  0
  -22.3468    5.5411   12.0547 C   0  0  0  0  0  0  0  0  0  0  0  0
  -23.4374    4.8190   12.8083 C   0  0  0  0  0  0  0  0  0  0  0  0
  -21.2018    5.4678   12.4715 O   0  0  0  0  0  0  0  0  0  0  0  0
  1  7  1  0  0  0  0
  1  9  1  0  0  0  0
  2  8  1  0  0  0  0
  2 14  1  0  0  0  0
  2 15  1  0  0  0  0
  3  4  2  0  0  0  0
  3  8  1  0  0  0  0
  4  5  1  0  0  0  0
  4 21  1  0  0  0  0
  5  6  2  0  0  0  0
  6  7  1  0  0  0  0
  7  8  2  0  0  0  0
  9 10  2  0  0  0  0
  9 14  1  0  0  0  0
 10 11  1  0  0  0  0
 11 12  2  0  0  0  0
 12 13  1  0  0  0  0
 13 14  2  0  0  0  0
 15 16  1  0  0  0  0
 16 17  1  0  0  0  0
 17 18  1  0  0  0  0
 18 19  1  0  0  0  0
 18 20  1  0  0  0  0
 21 22  1  0  0  0  0
 21 23  2  0  0  0  0
M  CHG  1  18   1
M  END
>  <CHROM.1>
71.88169270,12.67689932,-50.29149783,-166.96728734,-39.67288419,-24.38165135
7.36989739,9.52204624,-1.82625542,-0.50027724,1.34308406

>  <Name>


>  <RI>
0

>  <Rbt.Current_Directory>
/home/itssahil/PROJECTS/Mol_Feturizer/New_Systems/rnas/1lvj

>  <Rbt.Executable>
rbdock ($Id: //depot/dev/client3/rdock/2013.1/src/exe/rbdock.cxx#4 $)

>  <Rbt.Library>
libRbt.so (2013.1, Build901 2013/11/27)

>  <Rbt.Parameter_File>
/export/apps/rDock/src/rDock_2013.1_src/data/scripts/dock_solv.prm

>  <Rbt.Receptor>
prm/pocket_docking_8.prm

>  <SCORE>
-41.4567

>  <SCORE.INTER>
-36.8992

>  <SCORE.INTER.CONST>
1

>  <SCORE.INTER.POLAR>
-1.40712

>  <SCORE.INTER.ROT>
5

>  <SCORE.INTER.SOLV>
16.3859

>  <SCORE.INTER.VDW>
-32.3043

>  <SCORE.INTER.norm>
-1.60431

>  <SCORE.INTRA>
-4.55747

>  <SCORE.INTRA.DIHEDRAL>
-4.94857

>  <SCORE.INTRA.DIHEDRAL.0>
8.06479

>  <SCORE.INTRA.POLAR>
0

>  <SCORE.INTRA.POLAR.0>
0

>  <SCORE.INTRA.REPUL>
0

>  <SCORE.INTRA.REPUL.0>
0

>  <SCORE.INTRA.SOLV>
0.647169

>  <SCORE.INTRA.SOLV.lig_0>
-29.8054

>  <SCORE.INTRA.VDW>
-2.40678

>  <SCORE.INTRA.VDW.0>
2.61447

>  <SCORE.INTRA.norm>
-0.198151

>  <SCORE.RESTR>
0

>  <SCORE.RESTR.CAVITY>
0

>  <SCORE.RESTR.norm>
0

>  <SCORE.SYSTEM>
0

>  <SCORE.SYSTEM.CONST>
0

>  <SCORE.SYSTEM.DIHEDRAL>
0

>  <SCORE.SYSTEM.SOLV>
0

>  <SCORE.SYSTEM.norm>
0

>  <SCORE.heavy>
23

>  <SCORE.norm>
-1.80246

>  <RMSD>
4.516

$$$$

 OpenBabel11021811403D
libRbt.so/2013.1/901 2013/11/27
 23 25  0  0  0  0  0  0  0  0999 V2000
  -23.2551    8.4528    7.0176 S   0  0  0  0  0  0  0  0  0  0  0  0
  -25.4296    7.4913    8.8110 N   0  0  0  0  0  0  0  0  0  0  0  0
  -24.0123    6.4287   10.4468 C   0  0  0  0  0  0  0  0  0  0  0  0
  -22.7214    6.1038   10.8840 C   0  0  0  0  0  0  0  0  0  0  0  0
  -21.6107    6.5012   10.1458 C   0  0  0  0  0  0  0  0  0  0  0  0
  -21.7819    7.2195    8.9674 C   0  0  0  0  0  0  0  0  0  0  0  0
  -23.0603    7.5458    8.5220 C   0  0  0  0  0  0  0  0  0  0  0  0
  -24.1842    7.1530    9.2588 C   0  0  0  0  0  0  0  0  0  0  0  0
  -24.6540    7.4836    6.5497 C   0  0  0  0  0  0  0  0  0  0  0  0
  -24.8229    7.0940    5.2179 C   0  0  0  0  0  0  0  0  0  0  0  0
  -25.9347    6.3307    4.8506 C   0  0  0  0  0  0  0  0  0  0  0  0
  -26.8769    5.9628    5.8167 C   0  0  0  0  0  0  0  0  0  0  0  0
  -26.7026    6.3557    7.1442 C   0  0  0  0  0  0  0  0  0  0  0  0
  -25.5975    7.1100    7.5135 C   0  0  0  0  0  0  0  0  0  0  0  0
  -26.5907    7.4532    9.7344 C   0  0  0  0  0  0  0  0  0  0  0  0
  -26.3029    7.6984   11.2533 C   0  0  0  0  0  0  0  0  0  0  0  0
  -25.4925    9.0104   11.5311 C   0  0  0  0  0  0  0  0  0  0  0  0
  -25.0859    9.2859   12.9328 N   0  3  0  0  0  0  0  0  0  0  0  0
  -26.2256    9.7931   13.7399 C   0  0  0  0  0  0  0  0  0  0  0  0
  -23.9162   10.2306   12.9689 C   0  0  0  0  0  0  0  0  0  0  0  0
  -22.5250    5.3204   12.1506 C   0  0  0  0  0  0  0  0  0  0  0  0
  -23.6794    4.6730   12.8765 C   0  0  0  0  0  0  0  0  0  0  0  0
  -21.3950    5.1477   12.5789 O   0  0  0  0  0  0  0  0  0  0  0  0
  1  7  1  0  0  0  0
  1  9  1  0  0  0  0
  2  8  1  0  0  0  0
  2 14  1  0  0  0  0
  2 15  1  0  0  0  0
  3  4  2  0  0  0  0
  3  8  1  0  0  0  0
  4  5  1  0  0  0  0
  4 21  1  0  0  0  0
  5  6  2  0  0  0  0
  6  7  1  0  0  0  0
  7  8  2  0  0  0  0
  9 10  2  0  0  0  0
  9 14  1  0  0  0  0
 10 11  1  0  0  0  0
 11 12  2  0  0  0  0
 12 13  1  0  0  0  0
 13 14  2  0  0  0  0
 15 16  1  0  0  0  0
 16 17  1  0  0  0  0
 17 18  1  0  0  0  0
 18 19  1  0  0  0  0
 18 20  1  0  0  0  0
 21 22  1  0  0  0  0
 21 23  2  0  0  0  0
M  CHG  1  18   1
M  END
>  <CHROM.1>
28.46570197,9.77011060,52.45114190,-175.83771149,42.90528948,-24.36948831
7.30950276,9.58689426,-1.80595361,-0.59093262,1.34824848

>  <Name>


>  <RI>
0

>  <Rbt.Current_Directory>
/home/itssahil/PROJECTS/Mol_Feturizer/New_Systems/rnas/1lvj

>  <Rbt.Executable>
rbdock ($Id: //depot/dev/client3/rdock/2013.1/src/exe/rbdock.cxx#4 $)

>  <Rbt.Library>
libRbt.so (2013.1, Build901 2013/11/27)

>  <Rbt.Parameter_File>
/export/apps/rDock/src/rDock_2013.1_src/data/scripts/dock_solv.prm

>  <Rbt.Receptor>
prm/pocket_docking_7.prm

>  <SCORE>
-33.6489

>  <SCORE.INTER>
-31.2158

>  <SCORE.INTER.CONST>
1

>  <SCORE.INTER.POLAR>
0

>  <SCORE.INTER.ROT>
5

>  <SCORE.INTER.SOLV>
10.448

>  <SCORE.INTER.VDW>
-31.2265

>  <SCORE.INTER.norm>
-1.35721

>  <SCORE.INTRA>
-2.43311

>  <SCORE.INTRA.DIHEDRAL>
-6.00481

>  <SCORE.INTRA.DIHEDRAL.0>
8.06479

>  <SCORE.INTRA.POLAR>
0

>  <SCORE.INTRA.POLAR.0>
0

>  <SCORE.INTRA.REPUL>
0

>  <SCORE.INTRA.REPUL.0>
0

>  <SCORE.INTRA.SOLV>
1.98067

>  <SCORE.INTRA.SOLV.lig_0>
-29.8054

>  <SCORE.INTRA.VDW>
-0.421032

>  <SCORE.INTRA.VDW.0>
2.61447

>  <SCORE.INTRA.norm>
-0.105787

>  <SCORE.RESTR>
0

>  <SCORE.RESTR.CAVITY>
0

>  <SCORE.RESTR.norm>
0

>  <SCORE.SYSTEM>
0

>  <SCORE.SYSTEM.CONST>
0

>  <SCORE.SYSTEM.DIHEDRAL>
0

>  <SCORE.SYSTEM.SOLV>
0

>  <SCORE.SYSTEM.norm>
0

>  <SCORE.heavy>
23

>  <SCORE.norm>
-1.46299

>  <RMSD>
4.524

$$$$

 OpenBabel11021811403D
libRbt.so/2013.1/901 2013/11/27
 23 25  0  0  0  0  0  0  0  0999 V2000
  -23.3898    8.4921    6.8738 S   0  0  0  0  0  0  0  0  0  0  0  0
  -25.4598    7.5002    8.7713 N   0  0  0  0  0  0  0  0  0  0  0  0
  -23.9448    6.5357   10.3802 C   0  0  0  0  0  0  0  0  0  0  0  0
  -22.6275    6.2708   10.7773 C   0  0  0  0  0  0  0  0  0  0  0  0
  -21.5602    6.6888    9.9882 C   0  0  0  0  0  0  0  0  0  0  0  0
  -21.8011    7.3678    8.7988 C   0  0  0  0  0  0  0  0  0  0  0  0
  -23.1063    7.6343    8.3930 C   0  0  0  0  0  0  0  0  0  0  0  0
  -24.1870    7.2205    9.1810 C   0  0  0  0  0  0  0  0  0  0  0  0
  -24.7668    7.4594    6.4837 C   0  0  0  0  0  0  0  0  0  0  0  0
  -24.9689    7.0276    5.1695 C   0  0  0  0  0  0  0  0  0  0  0  0
  -26.0636    6.2139    4.8638 C   0  0  0  0  0  0  0  0  0  0  0  0
  -26.9555    5.8380    5.8735 C   0  0  0  0  0  0  0  0  0  0  0  0
  -26.7483    6.2731    7.1830 C   0  0  0  0  0  0  0  0  0  0  0  0
  -25.6599    7.0776    7.4913 C   0  0  0  0  0  0  0  0  0  0  0  0
  -26.5843    7.4443    9.7379 C   0  0  0  0  0  0  0  0  0  0  0  0
  -26.6760    8.5964   10.7935 C   0  0  0  0  0  0  0  0  0  0  0  0
  -25.3551    8.8000   11.6114 C   0  0  0  0  0  0  0  0  0  0  0  0
  -25.4177    9.6629   12.8186 N   0  3  0  0  0  0  0  0  0  0  0  0
  -24.0683   10.1413   13.2158 C   0  0  0  0  0  0  0  0  0  0  0  0
  -26.1068    8.9458   13.9469 C   0  0  0  0  0  0  0  0  0  0  0  0
  -22.3558    5.5302   12.0556 C   0  0  0  0  0  0  0  0  0  0  0  0
  -20.9543    5.1783   12.4925 C   0  0  0  0  0  0  0  0  0  0  0  0
  -23.2854    5.2540   12.7970 O   0  0  0  0  0  0  0  0  0  0  0  0
  1  7  1  0  0  0  0
  1  9  1  0  0  0  0
  2  8  1  0  0  0  0
  2 14  1  0  0  0  0
  2 15  1  0  0  0  0
  3  4  2  0  0  0  0
  3  8  1  0  0  0  0
  4  5  1  0  0  0  0
  4 21  1  0  0  0  0
  5  6  2  0  0  0  0
  6  7  1  0  0  0  0
  7  8  2  0  0  0  0
  9 10  2  0  0  0  0
  9 14  1  0  0  0  0
 10 11  1  0  0  0  0
 11 12  2  0  0  0  0
 12 13  1  0  0  0  0
 13 14  2  0  0  0  0
 15 16  1  0  0  0  0
 16 17  1  0  0  0  0
 17 18  1  0  0  0  0
 18 19  1  0  0  0  0
 18 20  1  0  0  0  0
 21 22  1  0  0  0  0
 21 23  2  0  0  0  0
M  CHG  1  18   1
M  END
>  <CHROM.1>
72.88453154,177.60262771,-53.52415336,-167.56248704,-40.55289025,-24.39112043
7.37011609,9.53032923,-1.82063750,-0.48937482,1.34676927

>  <Name>


>  <RI>
0

>  <Rbt.Current_Directory>
/home/itssahil/PROJECTS/Mol_Feturizer/New_Systems/rnas/1lvj

>  <Rbt.Executable>
rbdock ($Id: //depot/dev/client3/rdock/2013.1/src/exe/rbdock.cxx#4 $)

>  <Rbt.Library>
libRbt.so (2013.1, Build901 2013/11/27)

>  <Rbt.Parameter_File>
/export/apps/rDock/src/rDock_2013.1_src/data/scripts/dock_solv.prm

>  <Rbt.Receptor>
prm/pocket_docking_8.prm

>  <SCORE>
-41.2025

>  <SCORE.INTER>
-36.3946

>  <SCORE.INTER.CONST>
1

>  <SCORE.INTER.POLAR>
-1.40712

>  <SCORE.INTER.ROT>
5

>  <SCORE.INTER.SOLV>
16.4413

>  <SCORE.INTER.VDW>
-31.9864

>  <SCORE.INTER.norm>
-1.58237

>  <SCORE.INTRA>
-4.8079

>  <SCORE.INTRA.DIHEDRAL>
-5.62312

>  <SCORE.INTRA.DIHEDRAL.0>
8.06479

>  <SCORE.INTRA.POLAR>
0

>  <SCORE.INTRA.POLAR.0>
0

>  <SCORE.INTRA.REPUL>
0

>  <SCORE.INTRA.REPUL.0>
0

>  <SCORE.INTRA.SOLV>
0.665914

>  <SCORE.INTRA.SOLV.lig_0>
-29.8054

>  <SCORE.INTRA.VDW>
-2.32929

>  <SCORE.INTRA.VDW.0>
2.61447

>  <SCORE.INTRA.norm>
-0.209039

>  <SCORE.RESTR>
0

>  <SCORE.RESTR.CAVITY>
0

>  <SCORE.RESTR.norm>
0

>  <SCORE.SYSTEM>
0

>  <SCORE.SYSTEM.CONST>
0

>  <SCORE.SYSTEM.DIHEDRAL>
0

>  <SCORE.SYSTEM.SOLV>
0

>  <SCORE.SYSTEM.norm>
0

>  <SCORE.heavy>
23

>  <SCORE.norm>
-1.79141

>  <RMSD>
4.563

$$$$

 OpenBabel11021811403D
libRbt.so/2013.1/901 2013/11/27
 23 25  0  0  0  0  0  0  0  0999 V2000
  -23.4008    8.5046    6.8728 S   0  0  0  0  0  0  0  0  0  0  0  0
  -25.4651    7.5022    8.7710 N   0  0  0  0  0  0  0  0  0  0  0  0
  -23.9445    6.5496   10.3817 C   0  0  0  0  0  0  0  0  0  0  0  0
  -22.6256    6.2937   10.7796 C   0  0  0  0  0  0  0  0  0  0  0  0
  -21.5607    6.7174    9.9902 C   0  0  0  0  0  0  0  0  0  0  0  0
  -21.8057    7.3932    8.7998 C   0  0  0  0  0  0  0  0  0  0  0  0
  -23.1124    7.6508    8.3932 C   0  0  0  0  0  0  0  0  0  0  0  0
  -24.1906    7.2312    9.1815 C   0  0  0  0  0  0  0  0  0  0  0  0
  -24.7711    7.4626    6.4836 C   0  0  0  0  0  0  0  0  0  0  0  0
  -24.9701    7.0277    5.1700 C   0  0  0  0  0  0  0  0  0  0  0  0
  -26.0594    6.2067    4.8651 C   0  0  0  0  0  0  0  0  0  0  0  0
  -26.9492    5.8264    5.8751 C   0  0  0  0  0  0  0  0  0  0  0  0
  -26.7452    6.2647    7.1840 C   0  0  0  0  0  0  0  0  0  0  0  0
  -25.6621    7.0766    7.4915 C   0  0  0  0  0  0  0  0  0  0  0  0
  -26.5895    7.4405    9.7374 C   0  0  0  0  0  0  0  0  0  0  0  0
  -26.6759    8.5813   10.8055 C   0  0  0  0  0  0  0  0  0  0  0  0
  -25.3793    8.7228   11.6739 C   0  0  0  0  0  0  0  0  0  0  0  0
  -25.4324    9.6287   12.8496 N   0  3  0  0  0  0  0  0  0  0  0  0
  -24.0763   10.0945   13.2388 C   0  0  0  0  0  0  0  0  0  0  0  0
  -26.1422    8.9653   13.9977 C   0  0  0  0  0  0  0  0  0  0  0  0
  -22.3496    5.5566   12.0590 C   0  0  0  0  0  0  0  0  0  0  0  0
  -20.9510    5.1627   12.4681 C   0  0  0  0  0  0  0  0  0  0  0  0
  -23.2708    5.3185   12.8237 O   0  0  0  0  0  0  0  0  0  0  0  0
  1  7  1  0  0  0  0
  1  9  1  0  0  0  0
  2  8  1  0  0  0  0
  2 14  1  0  0  0  0
  2 15  1  0  0  0  0
  3  4  2  0  0  0  0
  3  8  1  0  0  0  0
  4  5  1  0  0  0  0
  4 21  1  0  0  0  0
  5  6  2  0  0  0  0
  6  7  1  0  0  0  0
  7  8  2  0  0  0  0
  9 10  2  0  0  0  0
  9 14  1  0  0  0  0
 10 11  1  0  0  0  0
 11 12  2  0  0  0  0
 12 13  1  0  0  0  0
 13 14  2  0  0  0  0
 15 16  1  0  0  0  0
 16 17  1  0  0  0  0
 17 18  1  0  0  0  0
 18 19  1  0  0  0  0
 18 20  1  0  0  0  0
 21 22  1  0  0  0  0
 21 23  2  0  0  0  0
M  CHG  1  18   1
M  END
>  <CHROM.1>
71.94854335,174.95143101,-56.42174678,-170.75908252,-37.04876617,-24.39542473
7.37145109,9.53886546,-1.81265085,-0.47475966,1.35309646

>  <Name>


>  <RI>
0

>  <Rbt.Current_Directory>
/home/itssahil/PROJECTS/Mol_Feturizer/New_Systems/rnas/1lvj

>  <Rbt.Executable>
rbdock ($Id: //depot/dev/client3/rdock/2013.1/src/exe/rbdock.cxx#4 $)

>  <Rbt.Library>
libRbt.so (2013.1, Build901 2013/11/27)

>  <Rbt.Parameter_File>
/export/apps/rDock/src/rDock_2013.1_src/data/scripts/dock_solv.prm

>  <Rbt.Receptor>
prm/pocket_docking_6.prm

>  <SCORE>
-41.2119

>  <SCORE.INTER>
-36.469

>  <SCORE.INTER.CONST>
1

>  <SCORE.INTER.POLAR>
-1.40712

>  <SCORE.INTER.ROT>
5

>  <SCORE.INTER.SOLV>
16.2342

>  <SCORE.INTER.VDW>
-31.967

>  <SCORE.INTER.norm>
-1.58561

>  <SCORE.INTRA>
-4.74297

>  <SCORE.INTRA.DIHEDRAL>
-5.63716

>  <SCORE.INTRA.DIHEDRAL.0>
8.06479

>  <SCORE.INTRA.POLAR>
0

>  <SCORE.INTRA.POLAR.0>
0

>  <SCORE.INTRA.REPUL>
0

>  <SCORE.INTRA.REPUL.0>
0

>  <SCORE.INTRA.SOLV>
0.724882

>  <SCORE.INTRA.SOLV.lig_0>
-29.8054

>  <SCORE.INTRA.VDW>
-2.28683

>  <SCORE.INTRA.VDW.0>
2.61447

>  <SCORE.INTRA.norm>
-0.206216

>  <SCORE.RESTR>
0

>  <SCORE.RESTR.CAVITY>
0

>  <SCORE.RESTR.norm>
0

>  <SCORE.SYSTEM>
0

>  <SCORE.SYSTEM.CONST>
0

>  <SCORE.SYSTEM.DIHEDRAL>
0

>  <SCORE.SYSTEM.SOLV>
0

>  <SCORE.SYSTEM.norm>
0

>  <SCORE.heavy>
23

>  <SCORE.norm>
-1.79182

>  <RMSD>
4.566

$$$$

 OpenBabel11021811403D
libRbt.so/2013.1/901 2013/11/27
 23 25  0  0  0  0  0  0  0  0999 V2000
  -21.5722    7.0953   10.2712 S   0  0  0  0  0  0  0  0  0  0  0  0
  -24.4542    7.6134    9.7282 N   0  0  0  0  0  0  0  0  0  0  0  0
  -25.3183    5.6542   10.8368 C   0  0  0  0  0  0  0  0  0  0  0  0
  -25.0728    4.4848   11.5686 C   0  0  0  0  0  0  0  0  0  0  0  0
  -23.7699    4.1271   11.9018 C   0  0  0  0  0  0  0  0  0  0  0  0
  -22.7068    4.9302   11.5035 C   0  0  0  0  0  0  0  0  0  0  0  0
  -22.9388    6.0933   10.7737 C   0  0  0  0  0  0  0  0  0  0  0  0
  -24.2460    6.4635   10.4358 C   0  0  0  0  0  0  0  0  0  0  0  0
  -22.3074    7.4058    8.6971 C   0  0  0  0  0  0  0  0  0  0  0  0
  -21.5151    7.4277    7.5455 C   0  0  0  0  0  0  0  0  0  0  0  0
  -22.1006    7.6789    6.3014 C   0  0  0  0  0  0  0  0  0  0  0  0
  -23.4770    7.9116    6.2135 C   0  0  0  0  0  0  0  0  0  0  0  0
  -24.2618    7.8891    7.3670 C   0  0  0  0  0  0  0  0  0  0  0  0
  -23.6848    7.6356    8.6037 C   0  0  0  0  0  0  0  0  0  0  0  0
  -25.7997    8.2386    9.6992 C   0  0  0  0  0  0  0  0  0  0  0  0
  -26.3639    8.7814   11.0545 C   0  0  0  0  0  0  0  0  0  0  0  0
  -27.1944    7.7205   11.8545 C   0  0  0  0  0  0  0  0  0  0  0  0
  -27.8348    8.1585   13.1210 N   0  3  0  0  0  0  0  0  0  0  0  0
  -26.8318    8.3467   14.2008 C   0  0  0  0  0  0  0  0  0  0  0  0
  -28.9153    7.1950   13.5288 C   0  0  0  0  0  0  0  0  0  0  0  0
  -26.2129    3.6051   11.9962 C   0  0  0  0  0  0  0  0  0  0  0  0
  -27.6325    3.8663   11.5546 C   0  0  0  0  0  0  0  0  0  0  0  0
  -25.9841    2.6142   12.6714 O   0  0  0  0  0  0  0  0  0  0  0  0
  1  7  1  0  0  0  0
  1  9  1  0  0  0  0
  2  8  1  0  0  0  0
  2 14  1  0  0  0  0
  2 15  1  0  0  0  0
  3  4  2  0  0  0  0
  3  8  1  0  0  0  0
  4  5  1  0  0  0  0
  4 21  1  0  0  0  0
  5  6  2  0  0  0  0
  6  7  1  0  0  0  0
  7  8  2  0  0  0  0
  9 10  2  0  0  0  0
  9 14  1  0  0  0  0
 10 11  1  0  0  0  0
 11 12  2  0  0  0  0
 12 13  1  0  0  0  0
 13 14  2  0  0  0  0
 15 16  1  0  0  0  0
 16 17  1  0  0  0  0
 17 18  1  0  0  0  0
 18 19  1  0  0  0  0
 18 20  1  0  0  0  0
 21 22  1  0  0  0  0
 21 23  2  0  0  0  0
M  CHG  1  18   1
M  END
>  <CHROM.1>
64.51451586,5.78871750,-90.25739799,-176.79580030,47.07329526,-24.71777016
6.59828497,10.57099781,-0.54662858,-0.62625518,2.63325233

>  <Name>


>  <RI>
0

>  <Rbt.Current_Directory>
/home/itssahil/PROJECTS/Mol_Feturizer/New_Systems/rnas/1lvj

>  <Rbt.Executable>
rbdock ($Id: //depot/dev/client3/rdock/2013.1/src/exe/rbdock.cxx#4 $)

>  <Rbt.Library>
libRbt.so (2013.1, Build901 2013/11/27)

>  <Rbt.Parameter_File>
/export/apps/rDock/src/rDock_2013.1_src/data/scripts/dock_solv.prm

>  <Rbt.Receptor>
prm/pocket_docking_6.prm

>  <SCORE>
-33.5804

>  <SCORE.INTER>
-29.0705

>  <SCORE.INTER.CONST>
1

>  <SCORE.INTER.POLAR>
0

>  <SCORE.INTER.ROT>
5

>  <SCORE.INTER.SOLV>
10.6578

>  <SCORE.INTER.VDW>
-29.8663

>  <SCORE.INTER.norm>
-1.26394

>  <SCORE.INTRA>
-4.50985

>  <SCORE.INTRA.DIHEDRAL>
-4.10953

>  <SCORE.INTRA.DIHEDRAL.0>
8.06479

>  <SCORE.INTRA.POLAR>
0

>  <SCORE.INTRA.POLAR.0>
0

>  <SCORE.INTRA.REPUL>
0

>  <SCORE.INTRA.REPUL.0>
0

>  <SCORE.INTRA.SOLV>
0.57181

>  <SCORE.INTRA.SOLV.lig_0>
-29.8054

>  <SCORE.INTRA.VDW>
-2.74099

>  <SCORE.INTRA.VDW.0>
2.61447

>  <SCORE.INTRA.norm>
-0.196081

>  <SCORE.RESTR>
0

>  <SCORE.RESTR.CAVITY>
0

>  <SCORE.RESTR.norm>
0

>  <SCORE.SYSTEM>
0

>  <SCORE.SYSTEM.CONST>
0

>  <SCORE.SYSTEM.DIHEDRAL>
0

>  <SCORE.SYSTEM.SOLV>
0

>  <SCORE.SYSTEM.norm>
0

>  <SCORE.heavy>
23

>  <SCORE.norm>
-1.46002

>  <RMSD>
4.764

$$$$

 OpenBabel11021811403D
libRbt.so/2013.1/901 2013/11/27
 23 25  0  0  0  0  0  0  0  0999 V2000
  -21.6876    7.0740   10.3141 S   0  0  0  0  0  0  0  0  0  0  0  0
  -24.5794    7.5292    9.7667 N   0  0  0  0  0  0  0  0  0  0  0  0
  -25.4033    5.5575   10.8838 C   0  0  0  0  0  0  0  0  0  0  0  0
  -25.1340    4.3970   11.6212 C   0  0  0  0  0  0  0  0  0  0  0  0
  -23.8242    4.0682   11.9570 C   0  0  0  0  0  0  0  0  0  0  0  0
  -22.7778    4.8914   11.5556 C   0  0  0  0  0  0  0  0  0  0  0  0
  -23.0334    6.0460   10.8203 C   0  0  0  0  0  0  0  0  0  0  0  0
  -24.3478    6.3872   10.4797 C   0  0  0  0  0  0  0  0  0  0  0  0
  -22.4279    7.3616    8.7380 C   0  0  0  0  0  0  0  0  0  0  0  0
  -21.6353    7.3947    7.5869 C   0  0  0  0  0  0  0  0  0  0  0  0
  -22.2249    7.6278    6.3412 C   0  0  0  0  0  0  0  0  0  0  0  0
  -23.6058    7.8314    6.2513 C   0  0  0  0  0  0  0  0  0  0  0  0
  -24.3909    7.7978    7.4043 C   0  0  0  0  0  0  0  0  0  0  0  0
  -23.8097    7.5622    8.6426 C   0  0  0  0  0  0  0  0  0  0  0  0
  -25.9376    8.1260    9.7337 C   0  0  0  0  0  0  0  0  0  0  0  0
  -26.4861    8.7262   11.0712 C   0  0  0  0  0  0  0  0  0  0  0  0
  -27.1220    7.6549   12.0216 C   0  0  0  0  0  0  0  0  0  0  0  0
  -27.5682    8.1035   13.3653 N   0  3  0  0  0  0  0  0  0  0  0  0
  -27.9870    6.9555   14.2105 C   0  0  0  0  0  0  0  0  0  0  0  0
  -28.6595    9.1315   13.2451 C   0  0  0  0  0  0  0  0  0  0  0  0
  -26.2558    3.4956   12.0521 C   0  0  0  0  0  0  0  0  0  0  0  0
  -27.6831    3.7361   11.6238 C   0  0  0  0  0  0  0  0  0  0  0  0
  -26.0051    2.5042   12.7188 O   0  0  0  0  0  0  0  0  0  0  0  0
  1  7  1  0  0  0  0
  1  9  1  0  0  0  0
  2  8  1  0  0  0  0
  2 14  1  0  0  0  0
  2 15  1  0  0  0  0
  3  4  2  0  0  0  0
  3  8  1  0  0  0  0
  4  5  1  0  0  0  0
  4 21  1  0  0  0  0
  5  6  2  0  0  0  0
  6  7  1  0  0  0  0
  7  8  2  0  0  0  0
  9 10  2  0  0  0  0
  9 14  1  0  0  0  0
 10 11  1  0  0  0  0
 11 12  2  0  0  0  0
 12 13  1  0  0  0  0
 13 14  2  0  0  0  0
 15 16  1  0  0  0  0
 16 17  1  0  0  0  0
 17 18  1  0  0  0  0
 18 19  1  0  0  0  0
 18 20  1  0  0  0  0
 21 22  1  0  0  0  0
 21 23  2  0  0  0  0
M  CHG  1  18   1
M  END
>  <CHROM.1>
67.41590493,4.92901782,-83.06263062,174.94773876,-52.81665262,-24.81943704
6.55856599,10.61477679,-0.53132385,-0.64398458,2.63704814

>  <Name>


>  <RI>
0

>  <Rbt.Current_Directory>
/home/itssahil/PROJECTS/Mol_Feturizer/New_Systems/rnas/1lvj

>  <Rbt.Executable>
rbdock ($Id: //depot/dev/client3/rdock/2013.1/src/exe/rbdock.cxx#4 $)

>  <Rbt.Library>
libRbt.so (2013.1, Build901 2013/11/27)

>  <Rbt.Parameter_File>
/export/apps/rDock/src/rDock_2013.1_src/data/scripts/dock_solv.prm

>  <Rbt.Receptor>
prm/pocket_docking_7.prm

>  <SCORE>
-34.107

>  <SCORE.INTER>
-29.4692

>  <SCORE.INTER.CONST>
1

>  <SCORE.INTER.POLAR>
0

>  <SCORE.INTER.ROT>
5

>  <SCORE.INTER.SOLV>
9.43009

>  <SCORE.INTER.VDW>
-29.7228

>  <SCORE.INTER.norm>
-1.28127

>  <SCORE.INTRA>
-4.63777

>  <SCORE.INTRA.DIHEDRAL>
-5.39303

>  <SCORE.INTRA.DIHEDRAL.0>
8.06479

>  <SCORE.INTRA.POLAR>
0

>  <SCORE.INTRA.POLAR.0>
0

>  <SCORE.INTRA.REPUL>
0

>  <SCORE.INTRA.REPUL.0>
0

>  <SCORE.INTRA.SOLV>
0.541825

>  <SCORE.INTRA.SOLV.lig_0>
-29.8054

>  <SCORE.INTRA.VDW>
-2.21217

>  <SCORE.INTRA.VDW.0>
2.61447

>  <SCORE.INTRA.norm>
-0.201642

>  <SCORE.RESTR>
0

>  <SCORE.RESTR.CAVITY>
0

>  <SCORE.RESTR.norm>
0

>  <SCORE.SYSTEM>
0

>  <SCORE.SYSTEM.CONST>
0

>  <SCORE.SYSTEM.DIHEDRAL>
0

>  <SCORE.SYSTEM.SOLV>
0

>  <SCORE.SYSTEM.norm>
0

>  <SCORE.heavy>
23

>  <SCORE.norm>
-1.48291

>  <RMSD>
4.818

$$$$

 OpenBabel11021811403D
libRbt.so/2013.1/901 2013/11/27
 23 25  0  0  0  0  0  0  0  0999 V2000
  -21.4243    6.9618   10.3574 S   0  0  0  0  0  0  0  0  0  0  0  0
  -24.3024    7.6573   10.0380 N   0  0  0  0  0  0  0  0  0  0  0  0
  -25.1992    5.7040   11.1311 C   0  0  0  0  0  0  0  0  0  0  0  0
  -24.9714    4.4940   11.7998 C   0  0  0  0  0  0  0  0  0  0  0  0
  -23.6714    4.0528   12.0270 C   0  0  0  0  0  0  0  0  0  0  0  0
  -22.5938    4.8127   11.5851 C   0  0  0  0  0  0  0  0  0  0  0  0
  -22.8083    6.0156   10.9171 C   0  0  0  0  0  0  0  0  0  0  0  0
  -24.1123    6.4697   10.6860 C   0  0  0  0  0  0  0  0  0  0  0  0
  -22.2462    7.3759    8.8515 C   0  0  0  0  0  0  0  0  0  0  0  0
  -21.5343    7.4020    7.6487 C   0  0  0  0  0  0  0  0  0  0  0  0
  -22.1878    7.7354    6.4590 C   0  0  0  0  0  0  0  0  0  0  0  0
  -23.5515    8.0460    6.4768 C   0  0  0  0  0  0  0  0  0  0  0  0
  -24.2560    8.0188    7.6810 C   0  0  0  0  0  0  0  0  0  0  0  0
  -23.6114    7.6838    8.8638 C   0  0  0  0  0  0  0  0  0  0  0  0
  -25.6089    8.3553   10.1269 C   0  0  0  0  0  0  0  0  0  0  0  0
  -26.2021    8.5800   11.5579 C   0  0  0  0  0  0  0  0  0  0  0  0
  -27.6839    9.0893   11.5463 C   0  0  0  0  0  0  0  0  0  0  0  0
  -28.4994    8.8656   12.7673 N   0  3  0  0  0  0  0  0  0  0  0  0
  -28.0991    9.7841   13.8644 C   0  0  0  0  0  0  0  0  0  0  0  0
  -28.4281    7.4255   13.1952 C   0  0  0  0  0  0  0  0  0  0  0  0
  -26.1280    3.6607   12.2736 C   0  0  0  0  0  0  0  0  0  0  0  0
  -25.9638    2.5916   13.3265 C   0  0  0  0  0  0  0  0  0  0  0  0
  -27.2470    3.8892   11.8427 O   0  0  0  0  0  0  0  0  0  0  0  0
  1  7  1  0  0  0  0
  1  9  1  0  0  0  0
  2  8  1  0  0  0  0
  2 14  1  0  0  0  0
  2 15  1  0  0  0  0
  3  4  2  0  0  0  0
  3  8  1  0  0  0  0
  4  5  1  0  0  0  0
  4 21  1  0  0  0  0
  5  6  2  0  0  0  0
  6  7  1  0  0  0  0
  7  8  2  0  0  0  0
  9 10  2  0  0  0  0
  9 14  1  0  0  0  0
 10 11  1  0  0  0  0
 11 12  2  0  0  0  0
 12 13  1  0  0  0  0
 13 14  2  0  0  0  0
 15 16  1  0  0  0  0
 16 17  1  0  0  0  0
 17 18  1  0  0  0  0
 18 19  1  0  0  0  0
 18 20  1  0  0  0  0
 21 22  1  0  0  0  0
 21 23  2  0  0  0  0
M  CHG  1  18   1
M  END
>  <CHROM.1>
50.87354769,-161.62411878,-169.79489247,157.97291332,-166.17333709,-24.72792421
6.75917354,10.71460201,-0.39202662,-0.60681321,2.62414760

>  <Name>


>  <RI>
0

>  <Rbt.Current_Directory>
/home/itssahil/PROJECTS/Mol_Feturizer/New_Systems/rnas/1lvj

>  <Rbt.Executable>
rbdock ($Id: //depot/dev/client3/rdock/2013.1/src/exe/rbdock.cxx#4 $)

>  <Rbt.Library>
libRbt.so (2013.1, Build901 2013/11/27)

>  <Rbt.Parameter_File>
/export/apps/rDock/src/rDock_2013.1_src/data/scripts/dock_solv.prm

>  <Rbt.Receptor>
prm/pocket_docking_6.prm

>  <SCORE>
-32.9577

>  <SCORE.INTER>
-29.53

>  <SCORE.INTER.CONST>
1

>  <SCORE.INTER.POLAR>
-0.52654

>  <SCORE.INTER.ROT>
5

>  <SCORE.INTER.SOLV>
12.4441

>  <SCORE.INTER.VDW>
-29.0129

>  <SCORE.INTER.norm>
-1.28391

>  <SCORE.INTRA>
-3.42774

>  <SCORE.INTRA.DIHEDRAL>
-4.37906

>  <SCORE.INTRA.DIHEDRAL.0>
8.06479

>  <SCORE.INTRA.POLAR>
0

>  <SCORE.INTRA.POLAR.0>
0

>  <SCORE.INTRA.REPUL>
0

>  <SCORE.INTRA.REPUL.0>
0

>  <SCORE.INTRA.SOLV>
-0.492687

>  <SCORE.INTRA.SOLV.lig_0>
-29.8054

>  <SCORE.INTRA.VDW>
-0.991871

>  <SCORE.INTRA.VDW.0>
2.61447

>  <SCORE.INTRA.norm>
-0.149032

>  <SCORE.RESTR>
0

>  <SCORE.RESTR.CAVITY>
0

>  <SCORE.RESTR.norm>
0

>  <SCORE.SYSTEM>
0

>  <SCORE.SYSTEM.CONST>
0

>  <SCORE.SYSTEM.DIHEDRAL>
0

>  <SCORE.SYSTEM.SOLV>
0

>  <SCORE.SYSTEM.norm>
0

>  <SCORE.heavy>
23

>  <SCORE.norm>
-1.43294

>  <RMSD>
4.943

$$$$

 OpenBabel11021811403D
libRbt.so/2013.1/901 2013/11/27
 23 25  0  0  0  0  0  0  0  0999 V2000
  -21.7458    7.0959   10.2377 S   0  0  0  0  0  0  0  0  0  0  0  0
  -24.6612    7.4480    9.7419 N   0  0  0  0  0  0  0  0  0  0  0  0
  -25.3990    5.4774   10.9194 C   0  0  0  0  0  0  0  0  0  0  0  0
  -25.0780    4.3429   11.6763 C   0  0  0  0  0  0  0  0  0  0  0  0
  -23.7518    4.0628   11.9913 C   0  0  0  0  0  0  0  0  0  0  0  0
  -22.7405    4.9090   11.5499 C   0  0  0  0  0  0  0  0  0  0  0  0
  -23.0476    6.0381   10.7948 C   0  0  0  0  0  0  0  0  0  0  0  0
  -24.3789    6.3303   10.4748 C   0  0  0  0  0  0  0  0  0  0  0  0
  -22.5271    7.3244    8.6717 C   0  0  0  0  0  0  0  0  0  0  0  0
  -21.7598    7.3561    7.5036 C   0  0  0  0  0  0  0  0  0  0  0  0
  -22.3819    7.5424    6.2658 C   0  0  0  0  0  0  0  0  0  0  0  0
  -23.7701    7.7006    6.2008 C   0  0  0  0  0  0  0  0  0  0  0  0
  -24.5299    7.6687    7.3707 C   0  0  0  0  0  0  0  0  0  0  0  0
  -23.9162    7.4796    8.6013 C   0  0  0  0  0  0  0  0  0  0  0  0
  -26.0381    8.0012    9.7247 C   0  0  0  0  0  0  0  0  0  0  0  0
  -26.5133    8.7724   11.0011 C   0  0  0  0  0  0  0  0  0  0  0  0
  -25.8028    8.3011   12.3158 C   0  0  0  0  0  0  0  0  0  0  0  0
  -24.3520    8.5864   12.4557 N   0  3  0  0  0  0  0  0  0  0  0  0
  -23.7430    7.7847   13.5483 C   0  0  0  0  0  0  0  0  0  0  0  0
  -24.1184   10.0592   12.6513 C   0  0  0  0  0  0  0  0  0  0  0  0
  -26.1616    3.4169   12.1507 C   0  0  0  0  0  0  0  0  0  0  0  0
  -27.6127    3.6393   11.7995 C   0  0  0  0  0  0  0  0  0  0  0  0
  -25.8611    2.4207   12.7890 O   0  0  0  0  0  0  0  0  0  0  0  0
  1  7  1  0  0  0  0
  1  9  1  0  0  0  0
  2  8  1  0  0  0  0
  2 14  1  0  0  0  0
  2 15  1  0  0  0  0
  3  4  2  0  0  0  0
  3  8  1  0  0  0  0
  4  5  1  0  0  0  0
  4 21  1  0  0  0  0
  5  6  2  0  0  0  0
  6  7  1  0  0  0  0
  7  8  2  0  0  0  0
  9 10  2  0  0  0  0
  9 14  1  0  0  0  0
 10 11  1  0  0  0  0
 11 12  2  0  0  0  0
 12 13  1  0  0  0  0
 13 14  2  0  0  0  0
 15 16  1  0  0  0  0
 16 17  1  0  0  0  0
 17 18  1  0  0  0  0
 18 19  1  0  0  0  0
 18 20  1  0  0  0  0
 21 22  1  0  0  0  0
 21 23  2  0  0  0  0
M  CHG  1  18   1
M  END
>  <CHROM.1>
74.85114444,2.07009925,-27.48327019,67.56331260,-44.78307305,-24.23980546
6.64406075,10.51696642,-0.28248945,-1.08659343,-2.79065187

>  <Name>


>  <RI>
0

>  <Rbt.Current_Directory>
/home/itssahil/PROJECTS/Mol_Feturizer/New_Systems/rnas/1lvj

>  <Rbt.Executable>
rbdock ($Id: //depot/dev/client3/rdock/2013.1/src/exe/rbdock.cxx#4 $)

>  <Rbt.Library>
libRbt.so (2013.1, Build901 2013/11/27)

>  <Rbt.Parameter_File>
/export/apps/rDock/src/rDock_2013.1_src/data/scripts/dock_solv.prm

>  <Rbt.Receptor>
prm/pocket_docking_5.prm

>  <SCORE>
-32.983

>  <SCORE.INTER>
-29.192

>  <SCORE.INTER.CONST>
1

>  <SCORE.INTER.POLAR>
0

>  <SCORE.INTER.ROT>
5

>  <SCORE.INTER.SOLV>
10.6154

>  <SCORE.INTER.VDW>
-29.9331

>  <SCORE.INTER.norm>
-1.26922

>  <SCORE.INTRA>
-3.79095

>  <SCORE.INTRA.DIHEDRAL>
-3.26038

>  <SCORE.INTRA.DIHEDRAL.0>
8.06479

>  <SCORE.INTRA.POLAR>
-0.884385

>  <SCORE.INTRA.POLAR.0>
0

>  <SCORE.INTRA.REPUL>
0

>  <SCORE.INTRA.REPUL.0>
0

>  <SCORE.INTRA.SOLV>
10.3911

>  <SCORE.INTRA.SOLV.lig_0>
-29.8054

>  <SCORE.INTRA.VDW>
-4.3494

>  <SCORE.INTRA.VDW.0>
2.61447

>  <SCORE.INTRA.norm>
-0.164824

>  <SCORE.RESTR>
0

>  <SCORE.RESTR.CAVITY>
0

>  <SCORE.RESTR.norm>
0

>  <SCORE.SYSTEM>
0

>  <SCORE.SYSTEM.CONST>
0

>  <SCORE.SYSTEM.DIHEDRAL>
0

>  <SCORE.SYSTEM.SOLV>
0

>  <SCORE.SYSTEM.norm>
0

>  <SCORE.heavy>
23

>  <SCORE.norm>
-1.43404

>  <RMSD>
5.020

$$$$

 OpenBabel11021811403D
libRbt.so/2013.1/901 2013/11/27
 23 25  0  0  0  0  0  0  0  0999 V2000
  -22.2005    6.6643    8.7009 S   0  0  0  0  0  0  0  0  0  0  0  0
  -24.4217    6.9448    6.7370 N   0  0  0  0  0  0  0  0  0  0  0  0
  -23.0850    7.7380    4.8937 C   0  0  0  0  0  0  0  0  0  0  0  0
  -21.8249    8.0855    4.3892 C   0  0  0  0  0  0  0  0  0  0  0  0
  -20.6960    7.9911    5.1974 C   0  0  0  0  0  0  0  0  0  0  0  0
  -20.8188    7.5548    6.5121 C   0  0  0  0  0  0  0  0  0  0  0  0
  -22.0665    7.2092    7.0249 C   0  0  0  0  0  0  0  0  0  0  0  0
  -23.2080    7.2980    6.2192 C   0  0  0  0  0  0  0  0  0  0  0  0
  -23.7017    7.5634    8.9311 C   0  0  0  0  0  0  0  0  0  0  0  0
  -23.9396    8.2341   10.1344 C   0  0  0  0  0  0  0  0  0  0  0  0
  -25.1320    8.9408   10.3146 C   0  0  0  0  0  0  0  0  0  0  0  0
  -26.0851    8.9710    9.2914 C   0  0  0  0  0  0  0  0  0  0  0  0
  -25.8417    8.2988    8.0932 C   0  0  0  0  0  0  0  0  0  0  0  0
  -24.6569    7.5996    7.9088 C   0  0  0  0  0  0  0  0  0  0  0  0
  -25.5596    6.6434    5.8334 C   0  0  0  0  0  0  0  0  0  0  0  0
  -26.9431    6.3468    6.5026 C   0  0  0  0  0  0  0  0  0  0  0  0
  -28.0690    5.9854    5.4744 C   0  0  0  0  0  0  0  0  0  0  0  0
  -27.9122    4.7325    4.6924 N   0  3  0  0  0  0  0  0  0  0  0  0
  -29.1565    4.3924    3.9550 C   0  0  0  0  0  0  0  0  0  0  0  0
  -27.4688    3.6045    5.5828 C   0  0  0  0  0  0  0  0  0  0  0  0
  -21.6818    8.5667    2.9734 C   0  0  0  0  0  0  0  0  0  0  0  0
  -20.7290    7.9150    2.0007 C   0  0  0  0  0  0  0  0  0  0  0  0
  -22.3965    9.4718    2.5734 O   0  0  0  0  0  0  0  0  0  0  0  0
  1  7  1  0  0  0  0
  1  9  1  0  0  0  0
  2  8  1  0  0  0  0
  2 14  1  0  0  0  0
  2 15  1  0  0  0  0
  3  4  2  0  0  0  0
  3  8  1  0  0  0  0
  4  5  1  0  0  0  0
  4 21  1  0  0  0  0
  5  6  2  0  0  0  0
  6  7  1  0  0  0  0
  7  8  2  0  0  0  0
  9 10  2  0  0  0  0
  9 14  1  0  0  0  0
 10 11  1  0  0  0  0
 11 12  2  0  0  0  0
 12 13  1  0  0  0  0
 13 14  2  0  0  0  0
 15 16  1  0  0  0  0
 16 17  1  0  0  0  0
 17 18  1  0  0  0  0
 18 19  1  0  0  0  0
 18 20  1  0  0  0  0
 21 22  1  0  0  0  0
 21 23  2  0  0  0  0
M  CHG  1  18   1
M  END
>  <CHROM.1>
-175.73556418,-125.52229223,-177.75759280,64.99032360,-70.61216543,-24.20648403
7.16714822,6.30922472,-0.08306551,0.41482316,1.40830965

>  <Name>


>  <RI>
0

>  <Rbt.Current_Directory>
/home/itssahil/PROJECTS/Mol_Feturizer/New_Systems/rnas/1lvj

>  <Rbt.Executable>
rbdock ($Id: //depot/dev/client3/rdock/2013.1/src/exe/rbdock.cxx#4 $)

>  <Rbt.Library>
libRbt.so (2013.1, Build901 2013/11/27)

>  <Rbt.Parameter_File>
/export/apps/rDock/src/rDock_2013.1_src/data/scripts/dock_solv.prm

>  <Rbt.Receptor>
prm/blind_docking_100.prm

>  <SCORE>
46.9162

>  <SCORE.INTER>
44.0818

>  <SCORE.INTER.CONST>
1

>  <SCORE.INTER.POLAR>
-0.312121

>  <SCORE.INTER.ROT>
5

>  <SCORE.INTER.SOLV>
24.5046

>  <SCORE.INTER.VDW>
15.3267

>  <SCORE.INTER.norm>
1.9166

>  <SCORE.INTRA>
2.24211

>  <SCORE.INTRA.DIHEDRAL>
1.07699

>  <SCORE.INTRA.DIHEDRAL.0>
8.06479

>  <SCORE.INTRA.POLAR>
0

>  <SCORE.INTRA.POLAR.0>
0

>  <SCORE.INTRA.REPUL>
0

>  <SCORE.INTRA.REPUL.0>
0

>  <SCORE.INTRA.SOLV>
1.56281

>  <SCORE.INTRA.SOLV.lig_0>
-29.8054

>  <SCORE.INTRA.VDW>
0.922208

>  <SCORE.INTRA.VDW.0>
2.61447

>  <SCORE.INTRA.norm>
0.0974829

>  <SCORE.RESTR>
0.592317

>  <SCORE.RESTR.CAVITY>
0.592317

>  <SCORE.RESTR.norm>
0.0257529

>  <SCORE.SYSTEM>
0

>  <SCORE.SYSTEM.CONST>
0

>  <SCORE.SYSTEM.DIHEDRAL>
0

>  <SCORE.SYSTEM.SOLV>
0

>  <SCORE.SYSTEM.norm>
0

>  <SCORE.heavy>
23

>  <SCORE.norm>
2.03984

>  <RMSD>
5.069

$$$$

 OpenBabel11021811403D
libRbt.so/2013.1/901 2013/11/27
 23 25  0  0  0  0  0  0  0  0999 V2000
  -21.5076    6.9507   10.3787 S   0  0  0  0  0  0  0  0  0  0  0  0
  -24.3997    7.6191   10.1373 N   0  0  0  0  0  0  0  0  0  0  0  0
  -25.2503    5.6292   11.2006 C   0  0  0  0  0  0  0  0  0  0  0  0
  -24.9944    4.4061   11.8344 C   0  0  0  0  0  0  0  0  0  0  0  0
  -23.6848    3.9752   12.0232 C   0  0  0  0  0  0  0  0  0  0  0  0
  -22.6258    4.7585   11.5774 C   0  0  0  0  0  0  0  0  0  0  0  0
  -22.8684    5.9747   10.9440 C   0  0  0  0  0  0  0  0  0  0  0  0
  -24.1821    6.4186   10.7516 C   0  0  0  0  0  0  0  0  0  0  0  0
  -22.3662    7.3916    8.9011 C   0  0  0  0  0  0  0  0  0  0  0  0
  -21.6805    7.4555    7.6845 C   0  0  0  0  0  0  0  0  0  0  0  0
  -22.3632    7.8099    6.5174 C   0  0  0  0  0  0  0  0  0  0  0  0
  -23.7296    8.1035    6.5717 C   0  0  0  0  0  0  0  0  0  0  0  0
  -24.4078    8.0385    7.7894 C   0  0  0  0  0  0  0  0  0  0  0  0
  -23.7343    7.6826    8.9498 C   0  0  0  0  0  0  0  0  0  0  0  0
  -25.7120    8.2990   10.2709 C   0  0  0  0  0  0  0  0  0  0  0  0
  -26.2704    8.4941   11.7200 C   0  0  0  0  0  0  0  0  0  0  0  0
  -27.6694    9.1988   11.7602 C   0  0  0  0  0  0  0  0  0  0  0  0
  -28.3657    9.2748   13.0698 N   0  3  0  0  0  0  0  0  0  0  0  0
  -27.5523   10.0042   14.0767 C   0  0  0  0  0  0  0  0  0  0  0  0
  -28.7416    7.9000   13.5503 C   0  0  0  0  0  0  0  0  0  0  0  0
  -26.1309    3.5476   12.3118 C   0  0  0  0  0  0  0  0  0  0  0  0
  -27.5699    3.8833   12.0031 C   0  0  0  0  0  0  0  0  0  0  0  0
  -25.8886    2.5151   12.9162 O   0  0  0  0  0  0  0  0  0  0  0  0
  1  7  1  0  0  0  0
  1  9  1  0  0  0  0
  2  8  1  0  0  0  0
  2 14  1  0  0  0  0
  2 15  1  0  0  0  0
  3  4  2  0  0  0  0
  3  8  1  0  0  0  0
  4  5  1  0  0  0  0
  4 21  1  0  0  0  0
  5  6  2  0  0  0  0
  6  7  1  0  0  0  0
  7  8  2  0  0  0  0
  9 10  2  0  0  0  0
  9 14  1  0  0  0  0
 10 11  1  0  0  0  0
 11 12  2  0  0  0  0
 12 13  1  0  0  0  0
 13 14  2  0  0  0  0
 15 16  1  0  0  0  0
 16 17  1  0  0  0  0
 17 18  1  0  0  0  0
 18 19  1  0  0  0  0
 18 20  1  0  0  0  0
 21 22  1  0  0  0  0
 21 23  2  0  0  0  0
M  CHG  1  18   1
M  END
>  <CHROM.1>
51.45557065,6.69375057,-179.04789484,172.32124466,179.29405008,-24.78155463
6.78859943,10.80028848,-0.30365883,-0.66067473,2.69390263

>  <Name>


>  <RI>
0

>  <Rbt.Current_Directory>
/home/itssahil/PROJECTS/Mol_Feturizer/New_Systems/rnas/1lvj

>  <Rbt.Executable>
rbdock ($Id: //depot/dev/client3/rdock/2013.1/src/exe/rbdock.cxx#4 $)

>  <Rbt.Library>
libRbt.so (2013.1, Build901 2013/11/27)

>  <Rbt.Parameter_File>
/export/apps/rDock/src/rDock_2013.1_src/data/scripts/dock_solv.prm

>  <Rbt.Receptor>
prm/pocket_docking_6.prm

>  <SCORE>
-34.0832

>  <SCORE.INTER>
-28.9859

>  <SCORE.INTER.CONST>
1

>  <SCORE.INTER.POLAR>
0

>  <SCORE.INTER.ROT>
5

>  <SCORE.INTER.SOLV>
10.7079

>  <SCORE.INTER.VDW>
-29.8266

>  <SCORE.INTER.norm>
-1.26026

>  <SCORE.INTRA>
-5.09726

>  <SCORE.INTRA.DIHEDRAL>
-7.48329

>  <SCORE.INTRA.DIHEDRAL.0>
8.06479

>  <SCORE.INTRA.POLAR>
0

>  <SCORE.INTRA.POLAR.0>
0

>  <SCORE.INTRA.REPUL>
0

>  <SCORE.INTRA.REPUL.0>
0

>  <SCORE.INTRA.SOLV>
-0.630103

>  <SCORE.INTRA.SOLV.lig_0>
-29.8054

>  <SCORE.INTRA.VDW>
-1.04056

>  <SCORE.INTRA.VDW.0>
2.61447

>  <SCORE.INTRA.norm>
-0.22162

>  <SCORE.RESTR>
0

>  <SCORE.RESTR.CAVITY>
0

>  <SCORE.RESTR.norm>
0

>  <SCORE.SYSTEM>
0

>  <SCORE.SYSTEM.CONST>
0

>  <SCORE.SYSTEM.DIHEDRAL>
0

>  <SCORE.SYSTEM.SOLV>
0

>  <SCORE.SYSTEM.norm>
0

>  <SCORE.heavy>
23

>  <SCORE.norm>
-1.48188

>  <RMSD>
5.069

$$$$

 OpenBabel11021811403D
libRbt.so/2013.1/901 2013/11/27
 23 25  0  0  0  0  0  0  0  0999 V2000
  -22.2036    6.6521    8.9441 S   0  0  0  0  0  0  0  0  0  0  0  0
  -24.4970    6.9094    7.0618 N   0  0  0  0  0  0  0  0  0  0  0  0
  -23.2298    7.6741    5.1583 C   0  0  0  0  0  0  0  0  0  0  0  0
  -21.9892    8.0121    4.6017 C   0  0  0  0  0  0  0  0  0  0  0  0
  -20.8307    7.9268    5.3679 C   0  0  0  0  0  0  0  0  0  0  0  0
  -20.9043    7.5092    6.6923 C   0  0  0  0  0  0  0  0  0  0  0  0
  -22.1322    7.1732    7.2567 C   0  0  0  0  0  0  0  0  0  0  0  0
  -23.3032    7.2530    6.4936 C   0  0  0  0  0  0  0  0  0  0  0  0
  -23.6937    7.5573    9.2182 C   0  0  0  0  0  0  0  0  0  0  0  0
  -23.8849    8.2452   10.4201 C   0  0  0  0  0  0  0  0  0  0  0  0
  -25.0687    8.9567   10.6353 C   0  0  0  0  0  0  0  0  0  0  0  0
  -26.0598    8.9744    9.6485 C   0  0  0  0  0  0  0  0  0  0  0  0
  -25.8628    8.2850    8.4515 C   0  0  0  0  0  0  0  0  0  0  0  0
  -24.6868    7.5810    8.2324 C   0  0  0  0  0  0  0  0  0  0  0  0
  -25.6687    6.5975    6.2062 C   0  0  0  0  0  0  0  0  0  0  0  0
  -26.8829    5.8854    6.8906 C   0  0  0  0  0  0  0  0  0  0  0  0
  -27.5749    4.8162    5.9779 C   0  0  0  0  0  0  0  0  0  0  0  0
  -28.1259    5.2733    4.6766 N   0  3  0  0  0  0  0  0  0  0  0  0
  -28.9607    6.4918    4.8374 C   0  0  0  0  0  0  0  0  0  0  0  0
  -28.8870    4.1636    4.0047 C   0  0  0  0  0  0  0  0  0  0  0  0
  -21.8991    8.4731    3.1749 C   0  0  0  0  0  0  0  0  0  0  0  0
  -21.2878    7.6137    2.0949 C   0  0  0  0  0  0  0  0  0  0  0  0
  -22.3859    9.5475    2.8608 O   0  0  0  0  0  0  0  0  0  0  0  0
  1  7  1  0  0  0  0
  1  9  1  0  0  0  0
  2  8  1  0  0  0  0
  2 14  1  0  0  0  0
  2 15  1  0  0  0  0
  3  4  2  0  0  0  0
  3  8  1  0  0  0  0
  4  5  1  0  0  0  0
  4 21  1  0  0  0  0
  5  6  2  0  0  0  0
  6  7  1  0  0  0  0
  7  8  2  0  0  0  0
  9 10  2  0  0  0  0
  9 14  1  0  0  0  0
 10 11  1  0  0  0  0
 11 12  2  0  0  0  0
 12 13  1  0  0  0  0
 13 14  2  0  0  0  0
 15 16  1  0  0  0  0
 16 17  1  0  0  0  0
 17 18  1  0  0  0  0
 18 19  1  0  0  0  0
 18 20  1  0  0  0  0
 21 22  1  0  0  0  0
 21 23  2  0  0  0  0
M  CHG  1  18   1
M  END
>  <CHROM.1>
165.55613214,-109.00489440,-142.35211474,-58.84576811,71.30737419,-24.31232122
7.21342489,6.52007217,0.06575809,0.34419172,1.44952111

>  <Name>


>  <RI>
0

>  <Rbt.Current_Directory>
/home/itssahil/PROJECTS/Mol_Feturizer/New_Systems/rnas/1lvj

>  <Rbt.Executable>
rbdock ($Id: //depot/dev/client3/rdock/2013.1/src/exe/rbdock.cxx#4 $)

>  <Rbt.Library>
libRbt.so (2013.1, Build901 2013/11/27)

>  <Rbt.Parameter_File>
/export/apps/rDock/src/rDock_2013.1_src/data/scripts/dock_solv.prm

>  <Rbt.Receptor>
prm/blind_docking_100.prm

>  <SCORE>
40.2485

>  <SCORE.INTER>
37.2906

>  <SCORE.INTER.CONST>
1

>  <SCORE.INTER.POLAR>
-0.701854

>  <SCORE.INTER.ROT>
5

>  <SCORE.INTER.SOLV>
24.6232

>  <SCORE.INTER.VDW>
12.0589

>  <SCORE.INTER.norm>
1.62133

>  <SCORE.INTRA>
2.56598

>  <SCORE.INTRA.DIHEDRAL>
7.44482

>  <SCORE.INTRA.DIHEDRAL.0>
8.06479

>  <SCORE.INTRA.POLAR>
0

>  <SCORE.INTRA.POLAR.0>
0

>  <SCORE.INTRA.REPUL>
0

>  <SCORE.INTRA.REPUL.0>
0

>  <SCORE.INTRA.SOLV>
1.5992

>  <SCORE.INTRA.SOLV.lig_0>
-29.8054

>  <SCORE.INTRA.VDW>
-1.95603

>  <SCORE.INTRA.VDW.0>
2.61447

>  <SCORE.INTRA.norm>
0.111564

>  <SCORE.RESTR>
0.391867

>  <SCORE.RESTR.CAVITY>
0.391867

>  <SCORE.RESTR.norm>
0.0170377

>  <SCORE.SYSTEM>
0

>  <SCORE.SYSTEM.CONST>
0

>  <SCORE.SYSTEM.DIHEDRAL>
0

>  <SCORE.SYSTEM.SOLV>
0

>  <SCORE.SYSTEM.norm>
0

>  <SCORE.heavy>
23

>  <SCORE.norm>
1.74993

>  <RMSD>
5.095

$$$$

 OpenBabel11021811403D
libRbt.so/2013.1/901 2013/11/27
 23 25  0  0  0  0  0  0  0  0999 V2000
  -21.6902    7.0234   10.3643 S   0  0  0  0  0  0  0  0  0  0  0  0
  -24.5546    7.6295    9.8190 N   0  0  0  0  0  0  0  0  0  0  0  0
  -25.4755    5.6656   10.8720 C   0  0  0  0  0  0  0  0  0  0  0  0
  -25.2647    4.4720   11.5748 C   0  0  0  0  0  0  0  0  0  0  0  0
  -23.9735    4.0723   11.9058 C   0  0  0  0  0  0  0  0  0  0  0  0
  -22.8877    4.8576   11.5342 C   0  0  0  0  0  0  0  0  0  0  0  0
  -23.0852    6.0446   10.8333 C   0  0  0  0  0  0  0  0  0  0  0  0
  -24.3804    6.4569   10.4978 C   0  0  0  0  0  0  0  0  0  0  0  0
  -22.4075    7.3929    8.7946 C   0  0  0  0  0  0  0  0  0  0  0  0
  -21.6079    7.4237    7.6484 C   0  0  0  0  0  0  0  0  0  0  0  0
  -22.1790    7.7217    6.4079 C   0  0  0  0  0  0  0  0  0  0  0  0
  -23.5483    7.9922    6.3185 C   0  0  0  0  0  0  0  0  0  0  0  0
  -24.3406    7.9605    7.4667 C   0  0  0  0  0  0  0  0  0  0  0  0
  -23.7779    7.6606    8.6996 C   0  0  0  0  0  0  0  0  0  0  0  0
  -25.8833    8.2899    9.7986 C   0  0  0  0  0  0  0  0  0  0  0  0
  -26.6175    8.4586   11.1706 C   0  0  0  0  0  0  0  0  0  0  0  0
  -25.8142    9.3163   12.2071 C   0  0  0  0  0  0  0  0  0  0  0  0
  -24.4513    8.8547   12.5750 N   0  3  0  0  0  0  0  0  0  0  0  0
  -24.4990    7.7860   13.6061 C   0  0  0  0  0  0  0  0  0  0  0  0
  -23.6007   10.0140   13.0161 C   0  0  0  0  0  0  0  0  0  0  0  0
  -26.4296    3.6114   11.9734 C   0  0  0  0  0  0  0  0  0  0  0  0
  -27.8233    3.8613   11.4501 C   0  0  0  0  0  0  0  0  0  0  0  0
  -26.2408    2.6441   12.6937 O   0  0  0  0  0  0  0  0  0  0  0  0
  1  7  1  0  0  0  0
  1  9  1  0  0  0  0
  2  8  1  0  0  0  0
  2 14  1  0  0  0  0
  2 15  1  0  0  0  0
  3  4  2  0  0  0  0
  3  8  1  0  0  0  0
  4  5  1  0  0  0  0
  4 21  1  0  0  0  0
  5  6  2  0  0  0  0
  6  7  1  0  0  0  0
  7  8  2  0  0  0  0
  9 10  2  0  0  0  0
  9 14  1  0  0  0  0
 10 11  1  0  0  0  0
 11 12  2  0  0  0  0
 12 13  1  0  0  0  0
 13 14  2  0  0  0  0
 15 16  1  0  0  0  0
 16 17  1  0  0  0  0
 17 18  1  0  0  0  0
 18 19  1  0  0  0  0
 18 20  1  0  0  0  0
 21 22  1  0  0  0  0
 21 23  2  0  0  0  0
M  CHG  1  18   1
M  END
>  <CHROM.1>
48.21188239,10.32517811,60.16060405,-57.90112098,38.41686245,-24.26777444
6.78282374,10.55687487,-0.24925036,-1.00003771,-2.74704051

>  <Name>


>  <RI>
0

>  <Rbt.Current_Directory>
/home/itssahil/PROJECTS/Mol_Feturizer/New_Systems/rnas/1lvj

>  <Rbt.Executable>
rbdock ($Id: //depot/dev/client3/rdock/2013.1/src/exe/rbdock.cxx#4 $)

>  <Rbt.Library>
libRbt.so (2013.1, Build901 2013/11/27)

>  <Rbt.Parameter_File>
/export/apps/rDock/src/rDock_2013.1_src/data/scripts/dock_solv.prm

>  <Rbt.Receptor>
prm/pocket_docking_5.prm

>  <SCORE>
-38.0451

>  <SCORE.INTER>
-31.455

>  <SCORE.INTER.CONST>
1

>  <SCORE.INTER.POLAR>
0

>  <SCORE.INTER.ROT>
5

>  <SCORE.INTER.SOLV>
10.7739

>  <SCORE.INTER.VDW>
-31.4946

>  <SCORE.INTER.norm>
-1.36761

>  <SCORE.INTRA>
-6.59015

>  <SCORE.INTRA.DIHEDRAL>
-6.35777

>  <SCORE.INTRA.DIHEDRAL.0>
8.06479

>  <SCORE.INTRA.POLAR>
-1.13014

>  <SCORE.INTRA.POLAR.0>
0

>  <SCORE.INTRA.REPUL>
0

>  <SCORE.INTRA.REPUL.0>
0

>  <SCORE.INTRA.SOLV>
9.8829

>  <SCORE.INTRA.SOLV.lig_0>
-29.8054

>  <SCORE.INTRA.VDW>
-4.51024

>  <SCORE.INTRA.VDW.0>
2.61447

>  <SCORE.INTRA.norm>
-0.286528

>  <SCORE.RESTR>
0

>  <SCORE.RESTR.CAVITY>
0

>  <SCORE.RESTR.norm>
0

>  <SCORE.SYSTEM>
0

>  <SCORE.SYSTEM.CONST>
0

>  <SCORE.SYSTEM.DIHEDRAL>
0

>  <SCORE.SYSTEM.SOLV>
0

>  <SCORE.SYSTEM.norm>
0

>  <SCORE.heavy>
23

>  <SCORE.norm>
-1.65414

>  <RMSD>
5.119

$$$$

 OpenBabel11021811403D
libRbt.so/2013.1/901 2013/11/27
 23 25  0  0  0  0  0  0  0  0999 V2000
  -21.6119    7.1814   10.1510 S   0  0  0  0  0  0  0  0  0  0  0  0
  -24.5144    7.6109    9.6406 N   0  0  0  0  0  0  0  0  0  0  0  0
  -25.3141    5.6920   10.8622 C   0  0  0  0  0  0  0  0  0  0  0  0
  -25.0292    4.5662   11.6462 C   0  0  0  0  0  0  0  0  0  0  0  0
  -23.7127    4.2532   11.9707 C   0  0  0  0  0  0  0  0  0  0  0  0
  -22.6752    5.0574   11.5118 C   0  0  0  0  0  0  0  0  0  0  0  0
  -22.9464    6.1773   10.7298 C   0  0  0  0  0  0  0  0  0  0  0  0
  -24.2676    6.5025   10.4001 C   0  0  0  0  0  0  0  0  0  0  0  0
  -22.3834    7.3969    8.5783 C   0  0  0  0  0  0  0  0  0  0  0  0
  -21.6137    7.3777    7.4116 C   0  0  0  0  0  0  0  0  0  0  0  0
  -22.2279    7.5538    6.1684 C   0  0  0  0  0  0  0  0  0  0  0  0
  -23.6105    7.7529    6.0966 C   0  0  0  0  0  0  0  0  0  0  0  0
  -24.3727    7.7718    7.2651 C   0  0  0  0  0  0  0  0  0  0  0  0
  -23.7670    7.5928    8.5012 C   0  0  0  0  0  0  0  0  0  0  0  0
  -25.8736    8.2054    9.6073 C   0  0  0  0  0  0  0  0  0  0  0  0
  -26.4645    8.7118   10.9654 C   0  0  0  0  0  0  0  0  0  0  0  0
  -25.3996    8.8127   12.1104 C   0  0  0  0  0  0  0  0  0  0  0  0
  -25.7489    9.6194   13.3076 N   0  3  0  0  0  0  0  0  0  0  0  0
  -24.5332   10.1221   13.9982 C   0  0  0  0  0  0  0  0  0  0  0  0
  -26.6302    8.8321   14.2379 C   0  0  0  0  0  0  0  0  0  0  0  0
  -26.1413    3.6853   12.1397 C   0  0  0  0  0  0  0  0  0  0  0  0
  -26.2326    3.2460   13.5810 C   0  0  0  0  0  0  0  0  0  0  0  0
  -27.0333    3.3603   11.3724 O   0  0  0  0  0  0  0  0  0  0  0  0
  1  7  1  0  0  0  0
  1  9  1  0  0  0  0
  2  8  1  0  0  0  0
  2 14  1  0  0  0  0
  2 15  1  0  0  0  0
  3  4  2  0  0  0  0
  3  8  1  0  0  0  0
  4  5  1  0  0  0  0
  4 21  1  0  0  0  0
  5  6  2  0  0  0  0
  6  7  1  0  0  0  0
  7  8  2  0  0  0  0
  9 10  2  0  0  0  0
  9 14  1  0  0  0  0
 10 11  1  0  0  0  0
 11 12  2  0  0  0  0
 12 13  1  0  0  0  0
 13 14  2  0  0  0  0
 15 16  1  0  0  0  0
 16 17  1  0  0  0  0
 17 18  1  0  0  0  0
 18 19  1  0  0  0  0
 18 20  1  0  0  0  0
 21 22  1  0  0  0  0
 21 23  2  0  0  0  0
M  CHG  1  18   1
M  END
>  <CHROM.1>
60.30155482,-131.85286803,13.23614874,163.49483752,-35.12153196,-24.35361311
6.88255144,10.60151335,0.14272655,1.01837722,0.07314754

>  <Name>


>  <RI>
0

>  <Rbt.Current_Directory>
/home/itssahil/PROJECTS/Mol_Feturizer/New_Systems/rnas/1lvj

>  <Rbt.Executable>
rbdock ($Id: //depot/dev/client3/rdock/2013.1/src/exe/rbdock.cxx#4 $)

>  <Rbt.Library>
libRbt.so (2013.1, Build901 2013/11/27)

>  <Rbt.Parameter_File>
/export/apps/rDock/src/rDock_2013.1_src/data/scripts/dock_solv.prm

>  <Rbt.Receptor>
prm/pocket_docking_6.prm

>  <SCORE>
-34.2531

>  <SCORE.INTER>
-34.255

>  <SCORE.INTER.CONST>
1

>  <SCORE.INTER.POLAR>
-1.38721

>  <SCORE.INTER.ROT>
5

>  <SCORE.INTER.SOLV>
14.1532

>  <SCORE.INTER.VDW>
-29.8637

>  <SCORE.INTER.norm>
-1.48935

>  <SCORE.INTRA>
0.00186688

>  <SCORE.INTRA.DIHEDRAL>
6.10892

>  <SCORE.INTRA.DIHEDRAL.0>
8.06479

>  <SCORE.INTRA.POLAR>
0

>  <SCORE.INTRA.POLAR.0>
0

>  <SCORE.INTRA.REPUL>
0

>  <SCORE.INTRA.REPUL.0>
0

>  <SCORE.INTRA.SOLV>
0.792338

>  <SCORE.INTRA.SOLV.lig_0>
-29.8054

>  <SCORE.INTRA.VDW>
-3.44876

>  <SCORE.INTRA.VDW.0>
2.61447

>  <SCORE.INTRA.norm>
8.11689e-05

>  <SCORE.RESTR>
0

>  <SCORE.RESTR.CAVITY>
0

>  <SCORE.RESTR.norm>
0

>  <SCORE.SYSTEM>
0

>  <SCORE.SYSTEM.CONST>
0

>  <SCORE.SYSTEM.DIHEDRAL>
0

>  <SCORE.SYSTEM.SOLV>
0

>  <SCORE.SYSTEM.norm>
0

>  <SCORE.heavy>
23

>  <SCORE.norm>
-1.48927

>  <RMSD>
5.134

$$$$

 OpenBabel11021811403D
libRbt.so/2013.1/901 2013/11/27
 23 25  0  0  0  0  0  0  0  0999 V2000
  -21.5583    6.9989   10.2632 S   0  0  0  0  0  0  0  0  0  0  0  0
  -24.4302    7.6598    9.8340 N   0  0  0  0  0  0  0  0  0  0  0  0
  -25.3453    5.7182   10.9324 C   0  0  0  0  0  0  0  0  0  0  0  0
  -25.1291    4.5230   11.6310 C   0  0  0  0  0  0  0  0  0  0  0  0
  -23.8335    4.0990   11.9102 C   0  0  0  0  0  0  0  0  0  0  0  0
  -22.7487    4.8613   11.4906 C   0  0  0  0  0  0  0  0  0  0  0  0
  -22.9516    6.0495   10.7935 C   0  0  0  0  0  0  0  0  0  0  0  0
  -24.2512    6.4864   10.5100 C   0  0  0  0  0  0  0  0  0  0  0  0
  -22.3324    7.3772    8.7229 C   0  0  0  0  0  0  0  0  0  0  0  0
  -21.5804    7.3882    7.5445 C   0  0  0  0  0  0  0  0  0  0  0  0
  -22.1963    7.6932    6.3274 C   0  0  0  0  0  0  0  0  0  0  0  0
  -23.5626    7.9905    6.2935 C   0  0  0  0  0  0  0  0  0  0  0  0
  -24.3072    7.9784    7.4735 C   0  0  0  0  0  0  0  0  0  0  0  0
  -23.7000    7.6717    8.6834 C   0  0  0  0  0  0  0  0  0  0  0  0
  -25.7454    8.3463    9.8657 C   0  0  0  0  0  0  0  0  0  0  0  0
  -26.3265    8.7108   11.2726 C   0  0  0  0  0  0  0  0  0  0  0  0
  -25.2984    9.4415   12.2023 C   0  0  0  0  0  0  0  0  0  0  0  0
  -25.3063    9.0938   13.6462 N   0  3  0  0  0  0  0  0  0  0  0  0
  -25.0329    7.6490   13.8592 C   0  0  0  0  0  0  0  0  0  0  0  0
  -26.6016    9.5137   14.2849 C   0  0  0  0  0  0  0  0  0  0  0  0
  -26.2933    3.6871   12.0810 C   0  0  0  0  0  0  0  0  0  0  0  0
  -26.1557    2.6416   13.1611 C   0  0  0  0  0  0  0  0  0  0  0  0
  -27.3986    3.8946   11.6063 O   0  0  0  0  0  0  0  0  0  0  0  0
  1  7  1  0  0  0  0
  1  9  1  0  0  0  0
  2  8  1  0  0  0  0
  2 14  1  0  0  0  0
  2 15  1  0  0  0  0
  3  4  2  0  0  0  0
  3  8  1  0  0  0  0
  4  5  1  0  0  0  0
  4 21  1  0  0  0  0
  5  6  2  0  0  0  0
  6  7  1  0  0  0  0
  7  8  2  0  0  0  0
  9 10  2  0  0  0  0
  9 14  1  0  0  0  0
 10 11  1  0  0  0  0
 11 12  2  0  0  0  0
 12 13  1  0  0  0  0
 13 14  2  0  0  0  0
 15 16  1  0  0  0  0
 16 17  1  0  0  0  0
 17 18  1  0  0  0  0
 18 19  1  0  0  0  0
 18 20  1  0  0  0  0
 21 22  1  0  0  0  0
 21 23  2  0  0  0  0
M  CHG  1  18   1
M  END
>  <CHROM.1>
56.41847442,-161.46733231,49.07381579,-141.56958218,179.53484488,-24.34715679
6.79701848,10.69761731,-0.32392989,-0.96988630,3.09196958

>  <Name>


>  <RI>
0

>  <Rbt.Current_Directory>
/home/itssahil/PROJECTS/Mol_Feturizer/New_Systems/rnas/1lvj

>  <Rbt.Executable>
rbdock ($Id: //depot/dev/client3/rdock/2013.1/src/exe/rbdock.cxx#4 $)

>  <Rbt.Library>
libRbt.so (2013.1, Build901 2013/11/27)

>  <Rbt.Parameter_File>
/export/apps/rDock/src/rDock_2013.1_src/data/scripts/dock_solv.prm

>  <Rbt.Receptor>
prm/pocket_docking_5.prm

>  <SCORE>
-31.8857

>  <SCORE.INTER>
-28.185

>  <SCORE.INTER.CONST>
1

>  <SCORE.INTER.POLAR>
0

>  <SCORE.INTER.ROT>
5

>  <SCORE.INTER.SOLV>
9.3702

>  <SCORE.INTER.VDW>
-28.8468

>  <SCORE.INTER.norm>
-1.22544

>  <SCORE.INTRA>
-3.71429

>  <SCORE.INTRA.DIHEDRAL>
-2.27494

>  <SCORE.INTRA.DIHEDRAL.0>
8.06479

>  <SCORE.INTRA.POLAR>
0

>  <SCORE.INTRA.POLAR.0>
0

>  <SCORE.INTRA.REPUL>
0

>  <SCORE.INTRA.REPUL.0>
0

>  <SCORE.INTRA.SOLV>
-0.349415

>  <SCORE.INTRA.SOLV.lig_0>
-29.8054

>  <SCORE.INTRA.VDW>
-2.40212

>  <SCORE.INTRA.VDW.0>
2.61447

>  <SCORE.INTRA.norm>
-0.161491

>  <SCORE.RESTR>
0.0136498

>  <SCORE.RESTR.CAVITY>
0.0136498

>  <SCORE.RESTR.norm>
0.000593472

>  <SCORE.SYSTEM>
0

>  <SCORE.SYSTEM.CONST>
0

>  <SCORE.SYSTEM.DIHEDRAL>
0

>  <SCORE.SYSTEM.SOLV>
0

>  <SCORE.SYSTEM.norm>
0

>  <SCORE.heavy>
23

>  <SCORE.norm>
-1.38633

>  <RMSD>
5.168

$$$$

 OpenBabel11021811403D
libRbt.so/2013.1/901 2013/11/27
 23 25  0  0  0  0  0  0  0  0999 V2000
  -21.5643    6.9982   10.3899 S   0  0  0  0  0  0  0  0  0  0  0  0
  -24.4660    7.6333   10.1746 N   0  0  0  0  0  0  0  0  0  0  0  0
  -25.2849    5.6229   11.2243 C   0  0  0  0  0  0  0  0  0  0  0  0
  -25.0096    4.3970   11.8445 C   0  0  0  0  0  0  0  0  0  0  0  0
  -23.6935    3.9804   12.0202 C   0  0  0  0  0  0  0  0  0  0  0  0
  -22.6473    4.7809   11.5749 C   0  0  0  0  0  0  0  0  0  0  0  0
  -22.9091    6.0001   10.9549 C   0  0  0  0  0  0  0  0  0  0  0  0
  -24.2295    6.4296   10.7758 C   0  0  0  0  0  0  0  0  0  0  0  0
  -22.4385    7.4426    8.9224 C   0  0  0  0  0  0  0  0  0  0  0  0
  -21.7620    7.5267    7.7020 C   0  0  0  0  0  0  0  0  0  0  0  0
  -22.4570    7.8839    6.5430 C   0  0  0  0  0  0  0  0  0  0  0  0
  -23.8266    8.1601    6.6094 C   0  0  0  0  0  0  0  0  0  0  0  0
  -24.4955    8.0750    7.8310 C   0  0  0  0  0  0  0  0  0  0  0  0
  -23.8096    7.7163    8.9832 C   0  0  0  0  0  0  0  0  0  0  0  0
  -25.7855    8.2956   10.3237 C   0  0  0  0  0  0  0  0  0  0  0  0
  -26.1549    8.8390   11.7443 C   0  0  0  0  0  0  0  0  0  0  0  0
  -27.6662    9.2259   11.8911 C   0  0  0  0  0  0  0  0  0  0  0  0
  -28.0671    9.9948   13.0969 N   0  3  0  0  0  0  0  0  0  0  0  0
  -27.9387    9.1771   14.3308 C   0  0  0  0  0  0  0  0  0  0  0  0
  -29.4583   10.5434   12.9367 C   0  0  0  0  0  0  0  0  0  0  0  0
  -26.1322    3.5200   12.3212 C   0  0  0  0  0  0  0  0  0  0  0  0
  -27.5736    3.8118   11.9808 C   0  0  0  0  0  0  0  0  0  0  0  0
  -25.8744    2.5074   12.9523 O   0  0  0  0  0  0  0  0  0  0  0  0
  1  7  1  0  0  0  0
  1  9  1  0  0  0  0
  2  8  1  0  0  0  0
  2 14  1  0  0  0  0
  2 15  1  0  0  0  0
  3  4  2  0  0  0  0
  3  8  1  0  0  0  0
  4  5  1  0  0  0  0
  4 21  1  0  0  0  0
  5  6  2  0  0  0  0
  6  7  1  0  0  0  0
  7  8  2  0  0  0  0
  9 10  2  0  0  0  0
  9 14  1  0  0  0  0
 10 11  1  0  0  0  0
 11 12  2  0  0  0  0
 12 13  1  0  0  0  0
 13 14  2  0  0  0  0
 15 16  1  0  0  0  0
 16 17  1  0  0  0  0
 17 18  1  0  0  0  0
 18 19  1  0  0  0  0
 18 20  1  0  0  0  0
 21 22  1  0  0  0  0
 21 23  2  0  0  0  0
M  CHG  1  18   1
M  END
>  <CHROM.1>
68.49344348,9.08972057,-167.06650225,-168.24688025,52.16148587,-24.84606438
6.93681105,10.80759515,-0.09630653,-0.67427760,2.69372718

>  <Name>


>  <RI>
0

>  <Rbt.Current_Directory>
/home/itssahil/PROJECTS/Mol_Feturizer/New_Systems/rnas/1lvj

>  <Rbt.Executable>
rbdock ($Id: //depot/dev/client3/rdock/2013.1/src/exe/rbdock.cxx#4 $)

>  <Rbt.Library>
libRbt.so (2013.1, Build901 2013/11/27)

>  <Rbt.Parameter_File>
/export/apps/rDock/src/rDock_2013.1_src/data/scripts/dock_solv.prm

>  <Rbt.Receptor>
prm/pocket_docking_8.prm

>  <SCORE>
-40.4993

>  <SCORE.INTER>
-35.3325

>  <SCORE.INTER.CONST>
1

>  <SCORE.INTER.POLAR>
-1.40419

>  <SCORE.INTER.ROT>
5

>  <SCORE.INTER.SOLV>
14.3695

>  <SCORE.INTER.VDW>
-30.5975

>  <SCORE.INTER.norm>
-1.5362

>  <SCORE.INTRA>
-5.16677

>  <SCORE.INTRA.DIHEDRAL>
-5.79303

>  <SCORE.INTRA.DIHEDRAL.0>
8.06479

>  <SCORE.INTRA.POLAR>
0

>  <SCORE.INTRA.POLAR.0>
0

>  <SCORE.INTRA.REPUL>
0

>  <SCORE.INTRA.REPUL.0>
0

>  <SCORE.INTRA.SOLV>
0.408768

>  <SCORE.INTRA.SOLV.lig_0>
-29.8054

>  <SCORE.INTRA.VDW>
-2.47465

>  <SCORE.INTRA.VDW.0>
2.61447

>  <SCORE.INTRA.norm>
-0.224642

>  <SCORE.RESTR>
0

>  <SCORE.RESTR.CAVITY>
0

>  <SCORE.RESTR.norm>
0

>  <SCORE.SYSTEM>
0

>  <SCORE.SYSTEM.CONST>
0

>  <SCORE.SYSTEM.DIHEDRAL>
0

>  <SCORE.SYSTEM.SOLV>
0

>  <SCORE.SYSTEM.norm>
0

>  <SCORE.heavy>
23

>  <SCORE.norm>
-1.76084

>  <RMSD>
5.173

$$$$

 OpenBabel11021811403D
libRbt.so/2013.1/901 2013/11/27
 23 25  0  0  0  0  0  0  0  0999 V2000
  -22.2228    6.6102    8.2125 S   0  0  0  0  0  0  0  0  0  0  0  0
  -24.2394    7.1426    6.0867 N   0  0  0  0  0  0  0  0  0  0  0  0
  -22.6969    7.9344    4.4110 C   0  0  0  0  0  0  0  0  0  0  0  0
  -21.3775    8.2194    4.0355 C   0  0  0  0  0  0  0  0  0  0  0  0
  -20.3328    8.0065    4.9297 C   0  0  0  0  0  0  0  0  0  0  0  0
  -20.5989    7.5134    6.2025 C   0  0  0  0  0  0  0  0  0  0  0  0
  -21.9066    7.2290    6.5874 C   0  0  0  0  0  0  0  0  0  0  0  0
  -22.9644    7.4371    5.6943 C   0  0  0  0  0  0  0  0  0  0  0  0
  -23.6776    7.5977    8.3654 C   0  0  0  0  0  0  0  0  0  0  0  0
  -23.9771    8.2211    9.5802 C   0  0  0  0  0  0  0  0  0  0  0  0
  -25.1328    8.9983    9.6985 C   0  0  0  0  0  0  0  0  0  0  0  0
  -25.9880    9.1461    8.6017 C   0  0  0  0  0  0  0  0  0  0  0  0
  -25.6835    8.5205    7.3922 C   0  0  0  0  0  0  0  0  0  0  0  0
  -24.5344    7.7515    7.2696 C   0  0  0  0  0  0  0  0  0  0  0  0
  -25.3100    6.9665    5.0744 C   0  0  0  0  0  0  0  0  0  0  0  0
  -25.9995    5.5633    5.0014 C   0  0  0  0  0  0  0  0  0  0  0  0
  -27.3660    5.4988    5.7654 C   0  0  0  0  0  0  0  0  0  0  0  0
  -28.2479    4.3327    5.5037 N   0  3  0  0  0  0  0  0  0  0  0  0
  -27.4918    3.0551    5.5623 C   0  0  0  0  0  0  0  0  0  0  0  0
  -28.9638    4.4943    4.1910 C   0  0  0  0  0  0  0  0  0  0  0  0
  -21.0794    8.7609    2.6664 C   0  0  0  0  0  0  0  0  0  0  0  0
  -19.8376    8.3663    1.9043 C   0  0  0  0  0  0  0  0  0  0  0  0
  -21.8895    9.4950    2.1233 O   0  0  0  0  0  0  0  0  0  0  0  0
  1  7  1  0  0  0  0
  1  9  1  0  0  0  0
  2  8  1  0  0  0  0
  2 14  1  0  0  0  0
  2 15  1  0  0  0  0
  3  4  2  0  0  0  0
  3  8  1  0  0  0  0
  4  5  1  0  0  0  0
  4 21  1  0  0  0  0
  5  6  2  0  0  0  0
  6  7  1  0  0  0  0
  7  8  2  0  0  0  0
  9 10  2  0  0  0  0
  9 14  1  0  0  0  0
 10 11  1  0  0  0  0
 11 12  2  0  0  0  0
 12 13  1  0  0  0  0
 13 14  2  0  0  0  0
 15 16  1  0  0  0  0
 16 17  1  0  0  0  0
 17 18  1  0  0  0  0
 18 19  1  0  0  0  0
 18 20  1  0  0  0  0
 21 22  1  0  0  0  0
 21 23  2  0  0  0  0
M  CHG  1  18   1
M  END
>  <CHROM.1>
118.04651253,-143.63002183,98.44314592,166.13149554,167.25860961,-23.96017930
7.16130584,5.92643017,-0.17901473,0.48661293,1.35595723

>  <Name>


>  <RI>
0

>  <Rbt.Current_Directory>
/home/itssahil/PROJECTS/Mol_Feturizer/New_Systems/rnas/1lvj

>  <Rbt.Executable>
rbdock ($Id: //depot/dev/client3/rdock/2013.1/src/exe/rbdock.cxx#4 $)

>  <Rbt.Library>
libRbt.so (2013.1, Build901 2013/11/27)

>  <Rbt.Parameter_File>
/export/apps/rDock/src/rDock_2013.1_src/data/scripts/dock_solv.prm

>  <Rbt.Receptor>
prm/blind_docking_100.prm

>  <SCORE>
97.5372

>  <SCORE.INTER>
96.7092

>  <SCORE.INTER.CONST>
1

>  <SCORE.INTER.POLAR>
-0.0849302

>  <SCORE.INTER.ROT>
5

>  <SCORE.INTER.SOLV>
28.9018

>  <SCORE.INTER.VDW>
48.1886

>  <SCORE.INTER.norm>
4.20475

>  <SCORE.INTRA>
-0.244584

>  <SCORE.INTRA.DIHEDRAL>
3.30793

>  <SCORE.INTRA.DIHEDRAL.0>
8.06479

>  <SCORE.INTRA.POLAR>
0

>  <SCORE.INTRA.POLAR.0>
0

>  <SCORE.INTRA.REPUL>
0

>  <SCORE.INTRA.REPUL.0>
0

>  <SCORE.INTRA.SOLV>
-0.54634

>  <SCORE.INTRA.SOLV.lig_0>
-29.8054

>  <SCORE.INTRA.VDW>
-1.62538

>  <SCORE.INTRA.VDW.0>
2.61447

>  <SCORE.INTRA.norm>
-0.0106341

>  <SCORE.RESTR>
1.07261

>  <SCORE.RESTR.CAVITY>
1.07261

>  <SCORE.RESTR.norm>
0.0466354

>  <SCORE.SYSTEM>
0

>  <SCORE.SYSTEM.CONST>
0

>  <SCORE.SYSTEM.DIHEDRAL>
0

>  <SCORE.SYSTEM.SOLV>
0

>  <SCORE.SYSTEM.norm>
0

>  <SCORE.heavy>
23

>  <SCORE.norm>
4.24075

>  <RMSD>
5.178

$$$$

 OpenBabel11021811403D
libRbt.so/2013.1/901 2013/11/27
 23 25  0  0  0  0  0  0  0  0999 V2000
  -23.0624    6.4891   11.0889 S   0  0  0  0  0  0  0  0  0  0  0  0
  -25.1425    6.7629    8.9754 N   0  0  0  0  0  0  0  0  0  0  0  0
  -23.6612    7.4183    7.1892 C   0  0  0  0  0  0  0  0  0  0  0  0
  -22.3587    7.6937    6.7524 C   0  0  0  0  0  0  0  0  0  0  0  0
  -21.2877    7.5937    7.6351 C   0  0  0  0  0  0  0  0  0  0  0  0
  -21.5105    7.2238    8.9570 C   0  0  0  0  0  0  0  0  0  0  0  0
  -22.8011    6.9502    9.4028 C   0  0  0  0  0  0  0  0  0  0  0  0
  -23.8852    7.0451    8.5220 C   0  0  0  0  0  0  0  0  0  0  0  0
  -24.5369    7.4545   11.1822 C   0  0  0  0  0  0  0  0  0  0  0  0
  -24.8220    8.1887   12.3371 C   0  0  0  0  0  0  0  0  0  0  0  0
  -25.9934    8.9481   12.4088 C   0  0  0  0  0  0  0  0  0  0  0  0
  -26.8784    8.9672   11.3259 C   0  0  0  0  0  0  0  0  0  0  0  0
  -26.5880    8.2315   10.1764 C   0  0  0  0  0  0  0  0  0  0  0  0
  -25.4237    7.4797   10.0998 C   0  0  0  0  0  0  0  0  0  0  0  0
  -26.2328    6.4636    8.0142 C   0  0  0  0  0  0  0  0  0  0  0  0
  -26.5713    7.5638    6.9536 C   0  0  0  0  0  0  0  0  0  0  0  0
  -27.7325    7.1585    5.9827 C   0  0  0  0  0  0  0  0  0  0  0  0
  -27.5443    5.9411    5.1530 N   0  3  0  0  0  0  0  0  0  0  0  0
  -27.8027    4.7047    5.9352 C   0  0  0  0  0  0  0  0  0  0  0  0
  -26.1741    5.9295    4.5330 C   0  0  0  0  0  0  0  0  0  0  0  0
  -22.1075    8.1029    5.3290 C   0  0  0  0  0  0  0  0  0  0  0  0
  -21.0207    7.4684    4.4954 C   0  0  0  0  0  0  0  0  0  0  0  0
  -22.8376    8.9295    4.8057 O   0  0  0  0  0  0  0  0  0  0  0  0
  1  7  1  0  0  0  0
  1  9  1  0  0  0  0
  2  8  1  0  0  0  0
  2 14  1  0  0  0  0
  2 15  1  0  0  0  0
  3  4  2  0  0  0  0
  3  8  1  0  0  0  0
  4  5  1  0  0  0  0
  4 21  1  0  0  0  0
  5  6  2  0  0  0  0
  6  7  1  0  0  0  0
  7  8  2  0  0  0  0
  9 10  2  0  0  0  0
  9 14  1  0  0  0  0
 10 11  1  0  0  0  0
 11 12  2  0  0  0  0
 12 13  1  0  0  0  0
 13 14  2  0  0  0  0
 15 16  1  0  0  0  0
 16 17  1  0  0  0  0
 17 18  1  0  0  0  0
 18 19  1  0  0  0  0
 18 20  1  0  0  0  0
 21 22  1  0  0  0  0
 21 23  2  0  0  0  0
M  CHG  1  18   1
M  END
>  <CHROM.1>
-58.63120765,-132.17311562,179.93726264,-59.69712647,-160.65378623,-24.57114066
7.26156594,8.18798709,-1.59125092,-0.15398496,-1.70542319

>  <Name>


>  <RI>
0

>  <Rbt.Current_Directory>
/home/itssahil/PROJECTS/Mol_Feturizer/New_Systems/rnas/1lvj

>  <Rbt.Executable>
rbdock ($Id: //depot/dev/client3/rdock/2013.1/src/exe/rbdock.cxx#4 $)

>  <Rbt.Library>
libRbt.so (2013.1, Build901 2013/11/27)

>  <Rbt.Parameter_File>
/export/apps/rDock/src/rDock_2013.1_src/data/scripts/dock_solv.prm

>  <Rbt.Receptor>
prm/blind_docking_100.prm

>  <SCORE>
-23.8805

>  <SCORE.INTER>
-28.0764

>  <SCORE.INTER.CONST>
1

>  <SCORE.INTER.POLAR>
-1.99269

>  <SCORE.INTER.ROT>
5

>  <SCORE.INTER.SOLV>
22.8068

>  <SCORE.INTER.VDW>
-26.6109

>  <SCORE.INTER.norm>
-1.22071

>  <SCORE.INTRA>
-0.500352

>  <SCORE.INTRA.DIHEDRAL>
-0.233774

>  <SCORE.INTRA.DIHEDRAL.0>
8.06479

>  <SCORE.INTRA.POLAR>
0

>  <SCORE.INTRA.POLAR.0>
0

>  <SCORE.INTRA.REPUL>
0

>  <SCORE.INTRA.REPUL.0>
0

>  <SCORE.INTRA.SOLV>
-0.30925

>  <SCORE.INTRA.SOLV.lig_0>
-29.8054

>  <SCORE.INTRA.VDW>
-0.22884

>  <SCORE.INTRA.VDW.0>
2.61447

>  <SCORE.INTRA.norm>
-0.0217545

>  <SCORE.RESTR>
4.69625

>  <SCORE.RESTR.CAVITY>
4.69625

>  <SCORE.RESTR.norm>
0.204185

>  <SCORE.SYSTEM>
0

>  <SCORE.SYSTEM.CONST>
0

>  <SCORE.SYSTEM.DIHEDRAL>
0

>  <SCORE.SYSTEM.SOLV>
0

>  <SCORE.SYSTEM.norm>
0

>  <SCORE.heavy>
23

>  <SCORE.norm>
-1.03828

>  <RMSD>
5.192

$$$$

 OpenBabel11021811403D
libRbt.so/2013.1/901 2013/11/27
 23 25  0  0  0  0  0  0  0  0999 V2000
  -26.0709    7.1183    8.5170 S   0  0  0  0  0  0  0  0  0  0  0  0
  -23.5893    6.6210   10.0867 N   0  0  0  0  0  0  0  0  0  0  0  0
  -24.2203    7.8846   12.0410 C   0  0  0  0  0  0  0  0  0  0  0  0
  -25.1694    8.6751   12.7022 C   0  0  0  0  0  0  0  0  0  0  0  0
  -26.3808    8.9770   12.0875 C   0  0  0  0  0  0  0  0  0  0  0  0
  -26.6491    8.4966   10.8104 C   0  0  0  0  0  0  0  0  0  0  0  0
  -25.7121    7.7121   10.1427 C   0  0  0  0  0  0  0  0  0  0  0  0
  -24.4916    7.4004   10.7535 C   0  0  0  0  0  0  0  0  0  0  0  0
  -24.4132    7.4088    7.9853 C   0  0  0  0  0  0  0  0  0  0  0  0
  -24.1664    7.9211    6.7083 C   0  0  0  0  0  0  0  0  0  0  0  0
  -22.8518    8.1450    6.2892 C   0  0  0  0  0  0  0  0  0  0  0  0
  -21.7875    7.8515    7.1479 C   0  0  0  0  0  0  0  0  0  0  0  0
  -22.0409    7.3396    8.4210 C   0  0  0  0  0  0  0  0  0  0  0  0
  -23.3451    7.1201    8.8424 C   0  0  0  0  0  0  0  0  0  0  0  0
  -22.4927    5.9489   10.8269 C   0  0  0  0  0  0  0  0  0  0  0  0
  -22.8247    4.5777   11.5046 C   0  0  0  0  0  0  0  0  0  0  0  0
  -23.9212    4.6816   12.6192 C   0  0  0  0  0  0  0  0  0  0  0  0
  -24.7840    3.4949   12.8503 N   0  3  0  0  0  0  0  0  0  0  0  0
  -26.0160    3.5486   12.0216 C   0  0  0  0  0  0  0  0  0  0  0  0
  -25.1045    3.3501   14.3126 C   0  0  0  0  0  0  0  0  0  0  0  0
  -24.8864    9.2069   14.0783 C   0  0  0  0  0  0  0  0  0  0  0  0
  -25.9930    9.6206   15.0180 C   0  0  0  0  0  0  0  0  0  0  0  0
  -23.7337    9.2527   14.4773 O   0  0  0  0  0  0  0  0  0  0  0  0
  1  7  1  0  0  0  0
  1  9  1  0  0  0  0
  2  8  1  0  0  0  0
  2 14  1  0  0  0  0
  2 15  1  0  0  0  0
  3  4  2  0  0  0  0
  3  8  1  0  0  0  0
  4  5  1  0  0  0  0
  4 21  1  0  0  0  0
  5  6  2  0  0  0  0
  6  7  1  0  0  0  0
  7  8  2  0  0  0  0
  9 10  2  0  0  0  0
  9 14  1  0  0  0  0
 10 11  1  0  0  0  0
 11 12  2  0  0  0  0
 12 13  1  0  0  0  0
 13 14  2  0  0  0  0
 15 16  1  0  0  0  0
 16 17  1  0  0  0  0
 17 18  1  0  0  0  0
 18 19  1  0  0  0  0
 18 20  1  0  0  0  0
 21 22  1  0  0  0  0
 21 23  2  0  0  0  0
M  CHG  1  18   1
M  END
>  <CHROM.1>
83.95797796,-157.74915634,-62.73599552,150.29454181,28.86060364,-24.47424935
6.99367817,10.84752167,0.73137667,1.26008834,-0.60635193

>  <Name>


>  <RI>
0

>  <Rbt.Current_Directory>
/home/itssahil/PROJECTS/Mol_Feturizer/New_Systems/rnas/1lvj

>  <Rbt.Executable>
rbdock ($Id: //depot/dev/client3/rdock/2013.1/src/exe/rbdock.cxx#4 $)

>  <Rbt.Library>
libRbt.so (2013.1, Build901 2013/11/27)

>  <Rbt.Parameter_File>
/export/apps/rDock/src/rDock_2013.1_src/data/scripts/dock_solv.prm

>  <Rbt.Receptor>
prm/pocket_docking_5.prm

>  <SCORE>
-31.1353

>  <SCORE.INTER>
-27.6819

>  <SCORE.INTER.CONST>
1

>  <SCORE.INTER.POLAR>
-0.876268

>  <SCORE.INTER.ROT>
5

>  <SCORE.INTER.SOLV>
12.3872

>  <SCORE.INTER.VDW>
-26.5961

>  <SCORE.INTER.norm>
-1.20356

>  <SCORE.INTRA>
-3.48941

>  <SCORE.INTRA.DIHEDRAL>
-0.185064

>  <SCORE.INTRA.DIHEDRAL.0>
8.06479

>  <SCORE.INTRA.POLAR>
0

>  <SCORE.INTRA.POLAR.0>
0

>  <SCORE.INTRA.REPUL>
0

>  <SCORE.INTRA.REPUL.0>
0

>  <SCORE.INTRA.SOLV>
0.773994

>  <SCORE.INTRA.SOLV.lig_0>
-29.8054

>  <SCORE.INTRA.VDW>
-3.78387

>  <SCORE.INTRA.VDW.0>
2.61447

>  <SCORE.INTRA.norm>
-0.151713

>  <SCORE.RESTR>
0.0360304

>  <SCORE.RESTR.CAVITY>
0.0360304

>  <SCORE.RESTR.norm>
0.00156654

>  <SCORE.SYSTEM>
0

>  <SCORE.SYSTEM.CONST>
0

>  <SCORE.SYSTEM.DIHEDRAL>
0

>  <SCORE.SYSTEM.SOLV>
0

>  <SCORE.SYSTEM.norm>
0

>  <SCORE.heavy>
23

>  <SCORE.norm>
-1.35371

>  <RMSD>
5.284

$$$$

 OpenBabel11021811403D
libRbt.so/2013.1/901 2013/11/27
 23 25  0  0  0  0  0  0  0  0999 V2000
  -22.3927    7.3397    9.6074 S   0  0  0  0  0  0  0  0  0  0  0  0
  -25.2140    7.4732   10.5519 N   0  0  0  0  0  0  0  0  0  0  0  0
  -25.1378    5.5308   11.9786 C   0  0  0  0  0  0  0  0  0  0  0  0
  -24.4025    4.4653   12.5144 C   0  0  0  0  0  0  0  0  0  0  0  0
  -23.0666    4.2904   12.1660 C   0  0  0  0  0  0  0  0  0  0  0  0
  -22.4599    5.1732   11.2792 C   0  0  0  0  0  0  0  0  0  0  0  0
  -23.1817    6.2342   10.7385 C   0  0  0  0  0  0  0  0  0  0  0  0
  -24.5254    6.4206   11.0848 C   0  0  0  0  0  0  0  0  0  0  0  0
  -23.8377    7.4259    8.5977 C   0  0  0  0  0  0  0  0  0  0  0  0
  -23.7197    7.4392    7.2048 C   0  0  0  0  0  0  0  0  0  0  0  0
  -24.8663    7.5125    6.4088 C   0  0  0  0  0  0  0  0  0  0  0  0
  -26.1280    7.5766    7.0091 C   0  0  0  0  0  0  0  0  0  0  0  0
  -26.2386    7.5637    8.4000 C   0  0  0  0  0  0  0  0  0  0  0  0
  -25.1025    7.4865    9.1938 C   0  0  0  0  0  0  0  0  0  0  0  0
  -26.4765    7.9342   11.1808 C   0  0  0  0  0  0  0  0  0  0  0  0
  -26.3548    8.9574   12.3590 C   0  0  0  0  0  0  0  0  0  0  0  0
  -27.5103    8.8387   13.4106 C   0  0  0  0  0  0  0  0  0  0  0  0
  -28.8720    9.2555   12.9887 N   0  3  0  0  0  0  0  0  0  0  0  0
  -28.9845   10.7342   12.8979 C   0  0  0  0  0  0  0  0  0  0  0  0
  -29.9118    8.6750   13.9073 C   0  0  0  0  0  0  0  0  0  0  0  0
  -25.0503    3.5004   13.4662 C   0  0  0  0  0  0  0  0  0  0  0  0
  -24.2454    2.5024   14.2629 C   0  0  0  0  0  0  0  0  0  0  0  0
  -26.2555    3.5591   13.6506 O   0  0  0  0  0  0  0  0  0  0  0  0
  1  7  1  0  0  0  0
  1  9  1  0  0  0  0
  2  8  1  0  0  0  0
  2 14  1  0  0  0  0
  2 15  1  0  0  0  0
  3  4  2  0  0  0  0
  3  8  1  0  0  0  0
  4  5  1  0  0  0  0
  4 21  1  0  0  0  0
  5  6  2  0  0  0  0
  6  7  1  0  0  0  0
  7  8  2  0  0  0  0
  9 10  2  0  0  0  0
  9 14  1  0  0  0  0
 10 11  1  0  0  0  0
 11 12  2  0  0  0  0
 12 13  1  0  0  0  0
 13 14  2  0  0  0  0
 15 16  1  0  0  0  0
 16 17  1  0  0  0  0
 17 18  1  0  0  0  0
 18 19  1  0  0  0  0
 18 20  1  0  0  0  0
 21 22  1  0  0  0  0
 21 23  2  0  0  0  0
M  CHG  1  18   1
M  END
>  <CHROM.1>
85.63976005,-168.34229711,-149.95990128,-69.34067875,46.20785657,-25.31849617
6.83927561,11.08811478,0.22785810,0.70081086,-0.92353093

>  <Name>


>  <RI>
0

>  <Rbt.Current_Directory>
/home/itssahil/PROJECTS/Mol_Feturizer/New_Systems/rnas/1lvj

>  <Rbt.Executable>
rbdock ($Id: //depot/dev/client3/rdock/2013.1/src/exe/rbdock.cxx#4 $)

>  <Rbt.Library>
libRbt.so (2013.1, Build901 2013/11/27)

>  <Rbt.Parameter_File>
/export/apps/rDock/src/rDock_2013.1_src/data/scripts/dock_solv.prm

>  <Rbt.Receptor>
prm/pocket_docking_8.prm

>  <SCORE>
-30.4872

>  <SCORE.INTER>
-27.5206

>  <SCORE.INTER.CONST>
1

>  <SCORE.INTER.POLAR>
-1.27279

>  <SCORE.INTER.ROT>
5

>  <SCORE.INTER.SOLV>
10.793

>  <SCORE.INTER.VDW>
-24.6354

>  <SCORE.INTER.norm>
-1.19655

>  <SCORE.INTRA>
-2.96668

>  <SCORE.INTRA.DIHEDRAL>
-2.45241

>  <SCORE.INTRA.DIHEDRAL.0>
8.06479

>  <SCORE.INTRA.POLAR>
0

>  <SCORE.INTRA.POLAR.0>
0

>  <SCORE.INTRA.REPUL>
0

>  <SCORE.INTRA.REPUL.0>
0

>  <SCORE.INTRA.SOLV>
1.90203

>  <SCORE.INTRA.SOLV.lig_0>
-29.8054

>  <SCORE.INTRA.VDW>
-2.69149

>  <SCORE.INTRA.VDW.0>
2.61447

>  <SCORE.INTRA.norm>
-0.128986

>  <SCORE.RESTR>
0

>  <SCORE.RESTR.CAVITY>
0

>  <SCORE.RESTR.norm>
0

>  <SCORE.SYSTEM>
0

>  <SCORE.SYSTEM.CONST>
0

>  <SCORE.SYSTEM.DIHEDRAL>
0

>  <SCORE.SYSTEM.SOLV>
0

>  <SCORE.SYSTEM.norm>
0

>  <SCORE.heavy>
23

>  <SCORE.norm>
-1.32553

>  <RMSD>
5.310

$$$$

 OpenBabel11021811403D
libRbt.so/2013.1/901 2013/11/27
 23 25  0  0  0  0  0  0  0  0999 V2000
  -22.8132    7.6923    9.3589 S   0  0  0  0  0  0  0  0  0  0  0  0
  -25.4817    7.0065   10.4892 N   0  0  0  0  0  0  0  0  0  0  0  0
  -24.7546    5.1593   11.8578 C   0  0  0  0  0  0  0  0  0  0  0  0
  -23.7101    4.3460   12.3169 C   0  0  0  0  0  0  0  0  0  0  0  0
  -22.4078    4.5631   11.8773 C   0  0  0  0  0  0  0  0  0  0  0  0
  -22.1419    5.5878   10.9755 C   0  0  0  0  0  0  0  0  0  0  0  0
  -23.1725    6.4006   10.5105 C   0  0  0  0  0  0  0  0  0  0  0  0
  -24.4858    6.1923   10.9488 C   0  0  0  0  0  0  0  0  0  0  0  0
  -24.2897    7.3667    8.4485 C   0  0  0  0  0  0  0  0  0  0  0  0
  -24.2783    7.4212    7.0517 C   0  0  0  0  0  0  0  0  0  0  0  0
  -25.4510    7.1676    6.3346 C   0  0  0  0  0  0  0  0  0  0  0  0
  -26.6332    6.8641    7.0178 C   0  0  0  0  0  0  0  0  0  0  0  0
  -26.6378    6.8121    8.4121 C   0  0  0  0  0  0  0  0  0  0  0  0
  -25.4742    7.0590    9.1275 C   0  0  0  0  0  0  0  0  0  0  0  0
  -26.7760    7.0830   11.2110 C   0  0  0  0  0  0  0  0  0  0  0  0
  -27.0855    8.4090   11.9829 C   0  0  0  0  0  0  0  0  0  0  0  0
  -28.1548    8.2371   13.1152 C   0  0  0  0  0  0  0  0  0  0  0  0
  -29.2104    9.2756   13.2301 N   0  3  0  0  0  0  0  0  0  0  0  0
  -28.6365   10.5960   13.5971 C   0  0  0  0  0  0  0  0  0  0  0  0
  -30.2747    8.8437   14.2011 C   0  0  0  0  0  0  0  0  0  0  0  0
  -23.9872    3.2305   13.2841 C   0  0  0  0  0  0  0  0  0  0  0  0
  -22.8758    2.4503   13.9432 C   0  0  0  0  0  0  0  0  0  0  0  0
  -25.1407    2.9816   13.5966 O   0  0  0  0  0  0  0  0  0  0  0  0
  1  7  1  0  0  0  0
  1  9  1  0  0  0  0
  2  8  1  0  0  0  0
  2 14  1  0  0  0  0
  2 15  1  0  0  0  0
  3  4  2  0  0  0  0
  3  8  1  0  0  0  0
  4  5  1  0  0  0  0
  4 21  1  0  0  0  0
  5  6  2  0  0  0  0
  6  7  1  0  0  0  0
  7  8  2  0  0  0  0
  9 10  2  0  0  0  0
  9 14  1  0  0  0  0
 10 11  1  0  0  0  0
 11 12  2  0  0  0  0
 12 13  1  0  0  0  0
 13 14  2  0  0  0  0
 15 16  1  0  0  0  0
 16 17  1  0  0  0  0
 17 18  1  0  0  0  0
 18 19  1  0  0  0  0
 18 20  1  0  0  0  0
 21 22  1  0  0  0  0
 21 23  2  0  0  0  0
M  CHG  1  18   1
M  END
>  <CHROM.1>
109.26853807,-171.75293933,-158.48784185,-136.17249785,55.29529534,-25.33389725
6.64683266,11.00131133,0.02010186,0.67639211,-1.09668273

>  <Name>


>  <RI>
0

>  <Rbt.Current_Directory>
/home/itssahil/PROJECTS/Mol_Feturizer/New_Systems/rnas/1lvj

>  <Rbt.Executable>
rbdock ($Id: //depot/dev/client3/rdock/2013.1/src/exe/rbdock.cxx#4 $)

>  <Rbt.Library>
libRbt.so (2013.1, Build901 2013/11/27)

>  <Rbt.Parameter_File>
/export/apps/rDock/src/rDock_2013.1_src/data/scripts/dock_solv.prm

>  <Rbt.Receptor>
prm/pocket_docking_7.prm

>  <SCORE>
-26.9885

>  <SCORE.INTER>
-25.3662

>  <SCORE.INTER.CONST>
1

>  <SCORE.INTER.POLAR>
-1.27279

>  <SCORE.INTER.ROT>
5

>  <SCORE.INTER.SOLV>
10.7624

>  <SCORE.INTER.VDW>
-23.189

>  <SCORE.INTER.norm>
-1.10288

>  <SCORE.INTRA>
-1.62234

>  <SCORE.INTRA.DIHEDRAL>
0.580039

>  <SCORE.INTRA.DIHEDRAL.0>
8.06479

>  <SCORE.INTRA.POLAR>
0

>  <SCORE.INTRA.POLAR.0>
0

>  <SCORE.INTRA.REPUL>
0

>  <SCORE.INTRA.REPUL.0>
0

>  <SCORE.INTRA.SOLV>
0.696257

>  <SCORE.INTRA.SOLV.lig_0>
-29.8054

>  <SCORE.INTRA.VDW>
-2.26049

>  <SCORE.INTRA.VDW.0>
2.61447

>  <SCORE.INTRA.norm>
-0.0705364

>  <SCORE.RESTR>
0

>  <SCORE.RESTR.CAVITY>
0

>  <SCORE.RESTR.norm>
0

>  <SCORE.SYSTEM>
0

>  <SCORE.SYSTEM.CONST>
0

>  <SCORE.SYSTEM.DIHEDRAL>
0

>  <SCORE.SYSTEM.SOLV>
0

>  <SCORE.SYSTEM.norm>
0

>  <SCORE.heavy>
23

>  <SCORE.norm>
-1.17341

>  <RMSD>
5.326

$$$$

 OpenBabel11021811403D
libRbt.so/2013.1/901 2013/11/27
 23 25  0  0  0  0  0  0  0  0999 V2000
  -21.7011    7.1080    9.8598 S   0  0  0  0  0  0  0  0  0  0  0  0
  -24.3795    7.9445   10.8578 N   0  0  0  0  0  0  0  0  0  0  0  0
  -24.8227    5.9826   12.1877 C   0  0  0  0  0  0  0  0  0  0  0  0
  -24.3987    4.7331   12.6589 C   0  0  0  0  0  0  0  0  0  0  0  0
  -23.1602    4.2245   12.2795 C   0  0  0  0  0  0  0  0  0  0  0  0
  -22.3418    4.9563   11.4261 C   0  0  0  0  0  0  0  0  0  0  0  0
  -22.7540    6.1982   10.9496 C   0  0  0  0  0  0  0  0  0  0  0  0
  -23.9970    6.7200   11.3275 C   0  0  0  0  0  0  0  0  0  0  0  0
  -23.0735    7.6298    8.8803 C   0  0  0  0  0  0  0  0  0  0  0  0
  -22.9612    7.6821    7.4879 C   0  0  0  0  0  0  0  0  0  0  0  0
  -24.0488    8.1007    6.7161 C   0  0  0  0  0  0  0  0  0  0  0  0
  -25.2448    8.4699    7.3404 C   0  0  0  0  0  0  0  0  0  0  0  0
  -25.3498    8.4161    8.7307 C   0  0  0  0  0  0  0  0  0  0  0  0
  -24.2734    7.9968    9.5002 C   0  0  0  0  0  0  0  0  0  0  0  0
  -25.4695    8.6944   11.5298 C   0  0  0  0  0  0  0  0  0  0  0  0
  -26.9274    8.1572   11.3405 C   0  0  0  0  0  0  0  0  0  0  0  0
  -27.9748    8.8511   12.2769 C   0  0  0  0  0  0  0  0  0  0  0  0
  -27.8431    8.6324   13.7400 N   0  3  0  0  0  0  0  0  0  0  0  0
  -29.1716    8.5687   14.4021 C   0  0  0  0  0  0  0  0  0  0  0  0
  -26.9657    9.6872   14.3562 C   0  0  0  0  0  0  0  0  0  0  0  0
  -25.2784    3.9299   13.5740 C   0  0  0  0  0  0  0  0  0  0  0  0
  -26.6811    4.3670   13.9203 C   0  0  0  0  0  0  0  0  0  0  0  0
  -24.8760    2.8615   14.0062 O   0  0  0  0  0  0  0  0  0  0  0  0
  1  7  1  0  0  0  0
  1  9  1  0  0  0  0
  2  8  1  0  0  0  0
  2 14  1  0  0  0  0
  2 15  1  0  0  0  0
  3  4  2  0  0  0  0
  3  8  1  0  0  0  0
  4  5  1  0  0  0  0
  4 21  1  0  0  0  0
  5  6  2  0  0  0  0
  6  7  1  0  0  0  0
  7  8  2  0  0  0  0
  9 10  2  0  0  0  0
  9 14  1  0  0  0  0
 10 11  1  0  0  0  0
 11 12  2  0  0  0  0
 12 13  1  0  0  0  0
 13 14  2  0  0  0  0
 15 16  1  0  0  0  0
 16 17  1  0  0  0  0
 17 18  1  0  0  0  0
 18 19  1  0  0  0  0
 18 20  1  0  0  0  0
 21 22  1  0  0  0  0
 21 23  2  0  0  0  0
M  CHG  1  18   1
M  END
>  <CHROM.1>
-72.24303400,5.50857508,169.92356755,-65.56083374,-25.01941791,-24.85293366
6.97469218,11.29370008,-0.66038566,-0.67278123,2.33979072

>  <Name>


>  <RI>
0

>  <Rbt.Current_Directory>
/home/itssahil/PROJECTS/Mol_Feturizer/New_Systems/rnas/1lvj

>  <Rbt.Executable>
rbdock ($Id: //depot/dev/client3/rdock/2013.1/src/exe/rbdock.cxx#4 $)

>  <Rbt.Library>
libRbt.so (2013.1, Build901 2013/11/27)

>  <Rbt.Parameter_File>
/export/apps/rDock/src/rDock_2013.1_src/data/scripts/dock_solv.prm

>  <Rbt.Receptor>
prm/pocket_docking_6.prm

>  <SCORE>
-26.0327

>  <SCORE.INTER>
-22.5892

>  <SCORE.INTER.CONST>
1

>  <SCORE.INTER.POLAR>
0

>  <SCORE.INTER.ROT>
5

>  <SCORE.INTER.SOLV>
6.14478

>  <SCORE.INTER.VDW>
-24.0411

>  <SCORE.INTER.norm>
-0.98214

>  <SCORE.INTRA>
-3.44352

>  <SCORE.INTRA.DIHEDRAL>
-5.17832

>  <SCORE.INTRA.DIHEDRAL.0>
8.06479

>  <SCORE.INTRA.POLAR>
0

>  <SCORE.INTRA.POLAR.0>
0

>  <SCORE.INTRA.REPUL>
0

>  <SCORE.INTRA.REPUL.0>
0

>  <SCORE.INTRA.SOLV>
3.30451

>  <SCORE.INTRA.SOLV.lig_0>
-29.8054

>  <SCORE.INTRA.VDW>
-2.50662

>  <SCORE.INTRA.VDW.0>
2.61447

>  <SCORE.INTRA.norm>
-0.149718

>  <SCORE.RESTR>
0

>  <SCORE.RESTR.CAVITY>
0

>  <SCORE.RESTR.norm>
0

>  <SCORE.SYSTEM>
0

>  <SCORE.SYSTEM.CONST>
0

>  <SCORE.SYSTEM.DIHEDRAL>
0

>  <SCORE.SYSTEM.SOLV>
0

>  <SCORE.SYSTEM.norm>
0

>  <SCORE.heavy>
23

>  <SCORE.norm>
-1.13186

>  <RMSD>
5.338

$$$$

 OpenBabel11021811403D
libRbt.so/2013.1/901 2013/11/27
 23 25  0  0  0  0  0  0  0  0999 V2000
  -25.7805    6.8105    8.3407 S   0  0  0  0  0  0  0  0  0  0  0  0
  -23.1003    6.9952    9.6260 N   0  0  0  0  0  0  0  0  0  0  0  0
  -23.7576    8.3968   11.4747 C   0  0  0  0  0  0  0  0  0  0  0  0
  -24.7680    9.0936   12.1505 C   0  0  0  0  0  0  0  0  0  0  0  0
  -26.0720    9.0830   11.6648 C   0  0  0  0  0  0  0  0  0  0  0  0
  -26.3734    8.3823   10.5020 C   0  0  0  0  0  0  0  0  0  0  0  0
  -25.3767    7.6882    9.8208 C   0  0  0  0  0  0  0  0  0  0  0  0
  -24.0622    7.6904   10.3026 C   0  0  0  0  0  0  0  0  0  0  0  0
  -24.2747    7.3105    7.5677 C   0  0  0  0  0  0  0  0  0  0  0  0
  -24.2656    7.6675    6.2162 C   0  0  0  0  0  0  0  0  0  0  0  0
  -23.0699    8.0581    5.6065 C   0  0  0  0  0  0  0  0  0  0  0  0
  -21.8857    8.0863    6.3502 C   0  0  0  0  0  0  0  0  0  0  0  0
  -21.9017    7.7279    7.6986 C   0  0  0  0  0  0  0  0  0  0  0  0
  -23.0879    7.3438    8.3087 C   0  0  0  0  0  0  0  0  0  0  0  0
  -21.8236    6.6434   10.2956 C   0  0  0  0  0  0  0  0  0  0  0  0
  -21.9166    6.0311   11.7330 C   0  0  0  0  0  0  0  0  0  0  0  0
  -22.9990    4.9056   11.8632 C   0  0  0  0  0  0  0  0  0  0  0  0
  -23.4656    4.5523   13.2282 N   0  3  0  0  0  0  0  0  0  0  0  0
  -24.3753    3.3778   13.2050 C   0  0  0  0  0  0  0  0  0  0  0  0
  -24.1083    5.7392   13.8918 C   0  0  0  0  0  0  0  0  0  0  0  0
  -24.4521    9.8614   13.4024 C   0  0  0  0  0  0  0  0  0  0  0  0
  -25.5296   10.2972   14.3655 C   0  0  0  0  0  0  0  0  0  0  0  0
  -23.2872   10.0913   13.6860 O   0  0  0  0  0  0  0  0  0  0  0  0
  1  7  1  0  0  0  0
  1  9  1  0  0  0  0
  2  8  1  0  0  0  0
  2 14  1  0  0  0  0
  2 15  1  0  0  0  0
  3  4  2  0  0  0  0
  3  8  1  0  0  0  0
  4  5  1  0  0  0  0
  4 21  1  0  0  0  0
  5  6  2  0  0  0  0
  6  7  1  0  0  0  0
  7  8  2  0  0  0  0
  9 10  2  0  0  0  0
  9 14  1  0  0  0  0
 10 11  1  0  0  0  0
 11 12  2  0  0  0  0
 12 13  1  0  0  0  0
 13 14  2  0  0  0  0
 15 16  1  0  0  0  0
 16 17  1  0  0  0  0
 17 18  1  0  0  0  0
 18 19  1  0  0  0  0
 18 20  1  0  0  0  0
 21 22  1  0  0  0  0
 21 23  2  0  0  0  0
M  CHG  1  18   1
M  END
>  <CHROM.1>
46.75936714,-162.60813602,45.89437095,-161.59768007,-53.89147101,-23.98849358
7.39040560,10.48445350,1.27210536,1.17814576,-1.28417978

>  <Name>


>  <RI>
0

>  <Rbt.Current_Directory>
/home/itssahil/PROJECTS/Mol_Feturizer/New_Systems/rnas/1lvj

>  <Rbt.Executable>
rbdock ($Id: //depot/dev/client3/rdock/2013.1/src/exe/rbdock.cxx#4 $)

>  <Rbt.Library>
libRbt.so (2013.1, Build901 2013/11/27)

>  <Rbt.Parameter_File>
/export/apps/rDock/src/rDock_2013.1_src/data/scripts/dock_solv.prm

>  <Rbt.Receptor>
prm/pocket_docking_5.prm

>  <SCORE>
-32.3135

>  <SCORE.INTER>
-27.9909

>  <SCORE.INTER.CONST>
1

>  <SCORE.INTER.POLAR>
0

>  <SCORE.INTER.ROT>
5

>  <SCORE.INTER.SOLV>
8.81583

>  <SCORE.INTER.VDW>
-28.5326

>  <SCORE.INTER.norm>
-1.217

>  <SCORE.INTRA>
-4.76732

>  <SCORE.INTRA.DIHEDRAL>
-4.9258

>  <SCORE.INTRA.DIHEDRAL.0>
8.06479

>  <SCORE.INTRA.POLAR>
0

>  <SCORE.INTRA.POLAR.0>
0

>  <SCORE.INTRA.REPUL>
0

>  <SCORE.INTRA.REPUL.0>
0

>  <SCORE.INTRA.SOLV>
0.506774

>  <SCORE.INTRA.SOLV.lig_0>
-29.8054

>  <SCORE.INTRA.VDW>
-2.55781

>  <SCORE.INTRA.VDW.0>
2.61447

>  <SCORE.INTRA.norm>
-0.207275

>  <SCORE.RESTR>
0.444722

>  <SCORE.RESTR.CAVITY>
0.444722

>  <SCORE.RESTR.norm>
0.0193357

>  <SCORE.SYSTEM>
0

>  <SCORE.SYSTEM.CONST>
0

>  <SCORE.SYSTEM.DIHEDRAL>
0

>  <SCORE.SYSTEM.SOLV>
0

>  <SCORE.SYSTEM.norm>
0

>  <SCORE.heavy>
23

>  <SCORE.norm>
-1.40494

>  <RMSD>
5.341

$$$$

 OpenBabel11021811403D
libRbt.so/2013.1/901 2013/11/27
 23 25  0  0  0  0  0  0  0  0999 V2000
  -26.2127    7.0798    8.6768 S   0  0  0  0  0  0  0  0  0  0  0  0
  -23.7139    6.6802   10.2471 N   0  0  0  0  0  0  0  0  0  0  0  0
  -24.3248    8.0612   12.1269 C   0  0  0  0  0  0  0  0  0  0  0  0
  -25.2675    8.8906   12.7487 C   0  0  0  0  0  0  0  0  0  0  0  0
  -26.4857    9.1539   12.1297 C   0  0  0  0  0  0  0  0  0  0  0  0
  -26.7674    8.5960   10.8875 C   0  0  0  0  0  0  0  0  0  0  0  0
  -25.8370    7.7723   10.2590 C   0  0  0  0  0  0  0  0  0  0  0  0
  -24.6096    7.4989   10.8746 C   0  0  0  0  0  0  0  0  0  0  0  0
  -24.5612    7.3375    8.1104 C   0  0  0  0  0  0  0  0  0  0  0  0
  -24.3286    7.7706    6.8017 C   0  0  0  0  0  0  0  0  0  0  0  0
  -23.0188    7.9686    6.3555 C   0  0  0  0  0  0  0  0  0  0  0  0
  -21.9450    7.7286    7.2190 C   0  0  0  0  0  0  0  0  0  0  0  0
  -22.1842    7.2957    8.5238 C   0  0  0  0  0  0  0  0  0  0  0  0
  -23.4836    7.1022    8.9719 C   0  0  0  0  0  0  0  0  0  0  0  0
  -22.6088    6.0551   11.0152 C   0  0  0  0  0  0  0  0  0  0  0  0
  -22.8751    4.6377   11.6236 C   0  0  0  0  0  0  0  0  0  0  0  0
  -23.9460    4.6407   12.7674 C   0  0  0  0  0  0  0  0  0  0  0  0
  -24.8805    3.4886   12.8399 N   0  3  0  0  0  0  0  0  0  0  0  0
  -25.9830    3.6197   11.8526 C   0  0  0  0  0  0  0  0  0  0  0  0
  -25.4056    3.3199   14.2392 C   0  0  0  0  0  0  0  0  0  0  0  0
  -24.9701    9.5059   14.0864 C   0  0  0  0  0  0  0  0  0  0  0  0
  -25.9830   10.3517   14.8195 C   0  0  0  0  0  0  0  0  0  0  0  0
  -23.9027    9.2704   14.6299 O   0  0  0  0  0  0  0  0  0  0  0  0
  1  7  1  0  0  0  0
  1  9  1  0  0  0  0
  2  8  1  0  0  0  0
  2 14  1  0  0  0  0
  2 15  1  0  0  0  0
  3  4  2  0  0  0  0
  3  8  1  0  0  0  0
  4  5  1  0  0  0  0
  4 21  1  0  0  0  0
  5  6  2  0  0  0  0
  6  7  1  0  0  0  0
  7  8  2  0  0  0  0
  9 10  2  0  0  0  0
  9 14  1  0  0  0  0
 10 11  1  0  0  0  0
 11 12  2  0  0  0  0
 12 13  1  0  0  0  0
 13 14  2  0  0  0  0
 15 16  1  0  0  0  0
 16 17  1  0  0  0  0
 17 18  1  0  0  0  0
 18 19  1  0  0  0  0
 18 20  1  0  0  0  0
 21 22  1  0  0  0  0
 21 23  2  0  0  0  0
M  CHG  1  18   1
M  END
>  <CHROM.1>
91.72838431,-177.06292264,-67.41232760,142.38297072,40.29353117,-24.59038519
7.05358349,10.91787177,0.62691166,1.28667164,-0.59467377

>  <Name>


>  <RI>
0

>  <Rbt.Current_Directory>
/home/itssahil/PROJECTS/Mol_Feturizer/New_Systems/rnas/1lvj

>  <Rbt.Executable>
rbdock ($Id: //depot/dev/client3/rdock/2013.1/src/exe/rbdock.cxx#4 $)

>  <Rbt.Library>
libRbt.so (2013.1, Build901 2013/11/27)

>  <Rbt.Parameter_File>
/export/apps/rDock/src/rDock_2013.1_src/data/scripts/dock_solv.prm

>  <Rbt.Receptor>
prm/pocket_docking_7.prm

>  <SCORE>
-33.2815

>  <SCORE.INTER>
-29.4752

>  <SCORE.INTER.CONST>
1

>  <SCORE.INTER.POLAR>
-0.903891

>  <SCORE.INTER.ROT>
5

>  <SCORE.INTER.SOLV>
12.3322

>  <SCORE.INTER.VDW>
-27.6812

>  <SCORE.INTER.norm>
-1.28153

>  <SCORE.INTRA>
-3.80638

>  <SCORE.INTRA.DIHEDRAL>
-1.16513

>  <SCORE.INTRA.DIHEDRAL.0>
8.06479

>  <SCORE.INTRA.POLAR>
0

>  <SCORE.INTRA.POLAR.0>
0

>  <SCORE.INTRA.REPUL>
0

>  <SCORE.INTRA.REPUL.0>
0

>  <SCORE.INTRA.SOLV>
0.70021

>  <SCORE.INTRA.SOLV.lig_0>
-29.8054

>  <SCORE.INTRA.VDW>
-3.57392

>  <SCORE.INTRA.VDW.0>
2.61447

>  <SCORE.INTRA.norm>
-0.165495

>  <SCORE.RESTR>
0

>  <SCORE.RESTR.CAVITY>
0

>  <SCORE.RESTR.norm>
0

>  <SCORE.SYSTEM>
0

>  <SCORE.SYSTEM.CONST>
0

>  <SCORE.SYSTEM.DIHEDRAL>
0

>  <SCORE.SYSTEM.SOLV>
0

>  <SCORE.SYSTEM.norm>
0

>  <SCORE.heavy>
23

>  <SCORE.norm>
-1.44702

>  <RMSD>
5.355

$$$$

 OpenBabel11021811403D
libRbt.so/2013.1/901 2013/11/27
 23 25  0  0  0  0  0  0  0  0999 V2000
  -26.0514    7.0371    8.8333 S   0  0  0  0  0  0  0  0  0  0  0  0
  -23.2879    6.9963    9.9428 N   0  0  0  0  0  0  0  0  0  0  0  0
  -23.6846    8.5140   11.7739 C   0  0  0  0  0  0  0  0  0  0  0  0
  -24.5766    9.3286   12.4838 C   0  0  0  0  0  0  0  0  0  0  0  0
  -25.9044    9.4317   12.0803 C   0  0  0  0  0  0  0  0  0  0  0  0
  -26.3473    8.7277   10.9658 C   0  0  0  0  0  0  0  0  0  0  0  0
  -25.4690    7.9171   10.2512 C   0  0  0  0  0  0  0  0  0  0  0  0
  -24.1319    7.8044   10.6506 C   0  0  0  0  0  0  0  0  0  0  0  0
  -24.5578    7.3608    7.9504 C   0  0  0  0  0  0  0  0  0  0  0  0
  -24.6023    7.6721    6.5883 C   0  0  0  0  0  0  0  0  0  0  0  0
  -23.4167    7.9228    5.8916 C   0  0  0  0  0  0  0  0  0  0  0  0
  -22.1894    7.8571    6.5592 C   0  0  0  0  0  0  0  0  0  0  0  0
  -22.1521    7.5451    7.9186 C   0  0  0  0  0  0  0  0  0  0  0  0
  -23.3276    7.2998    8.6149 C   0  0  0  0  0  0  0  0  0  0  0  0
  -22.0104    6.5412   10.5451 C   0  0  0  0  0  0  0  0  0  0  0  0
  -22.0692    5.9824   12.0060 C   0  0  0  0  0  0  0  0  0  0  0  0
  -23.4802    5.4317   12.4073 C   0  0  0  0  0  0  0  0  0  0  0  0
  -23.7019    3.9664   12.3092 N   0  3  0  0  0  0  0  0  0  0  0  0
  -25.1019    3.6041   12.6501 C   0  0  0  0  0  0  0  0  0  0  0  0
  -22.7124    3.2228   13.1636 C   0  0  0  0  0  0  0  0  0  0  0  0
  -24.1069   10.1007   13.6838 C   0  0  0  0  0  0  0  0  0  0  0  0
  -22.6552   10.1302   14.0965 C   0  0  0  0  0  0  0  0  0  0  0  0
  -24.9070   10.7743   14.3132 O   0  0  0  0  0  0  0  0  0  0  0  0
  1  7  1  0  0  0  0
  1  9  1  0  0  0  0
  2  8  1  0  0  0  0
  2 14  1  0  0  0  0
  2 15  1  0  0  0  0
  3  4  2  0  0  0  0
  3  8  1  0  0  0  0
  4  5  1  0  0  0  0
  4 21  1  0  0  0  0
  5  6  2  0  0  0  0
  6  7  1  0  0  0  0
  7  8  2  0  0  0  0
  9 10  2  0  0  0  0
  9 14  1  0  0  0  0
 10 11  1  0  0  0  0
 11 12  2  0  0  0  0
 12 13  1  0  0  0  0
 13 14  2  0  0  0  0
 15 16  1  0  0  0  0
 16 17  1  0  0  0  0
 17 18  1  0  0  0  0
 18 19  1  0  0  0  0
 18 20  1  0  0  0  0
 21 22  1  0  0  0  0
 21 23  2  0  0  0  0
M  CHG  1  18   1
M  END
>  <CHROM.1>
46.96965406,5.48748904,24.09989960,97.87541659,-56.94818235,-24.03135708
7.36302638,10.67088093,1.46233621,1.32899862,-1.56747439

>  <Name>


>  <RI>
0

>  <Rbt.Current_Directory>
/home/itssahil/PROJECTS/Mol_Feturizer/New_Systems/rnas/1lvj

>  <Rbt.Executable>
rbdock ($Id: //depot/dev/client3/rdock/2013.1/src/exe/rbdock.cxx#4 $)

>  <Rbt.Library>
libRbt.so (2013.1, Build901 2013/11/27)

>  <Rbt.Parameter_File>
/export/apps/rDock/src/rDock_2013.1_src/data/scripts/dock_solv.prm

>  <Rbt.Receptor>
prm/pocket_docking_7.prm

>  <SCORE>
-34.3328

>  <SCORE.INTER>
-33.6841

>  <SCORE.INTER.CONST>
1

>  <SCORE.INTER.POLAR>
-1.27118

>  <SCORE.INTER.ROT>
5

>  <SCORE.INTER.SOLV>
15.4589

>  <SCORE.INTER.VDW>
-30.3051

>  <SCORE.INTER.norm>
-1.46452

>  <SCORE.INTRA>
-0.648691

>  <SCORE.INTRA.DIHEDRAL>
-0.299305

>  <SCORE.INTRA.DIHEDRAL.0>
8.06479

>  <SCORE.INTRA.POLAR>
0

>  <SCORE.INTRA.POLAR.0>
0

>  <SCORE.INTRA.REPUL>
0

>  <SCORE.INTRA.REPUL.0>
0

>  <SCORE.INTRA.SOLV>
1.90858

>  <SCORE.INTRA.SOLV.lig_0>
-29.8054

>  <SCORE.INTRA.VDW>
-1.45333

>  <SCORE.INTRA.VDW.0>
2.61447

>  <SCORE.INTRA.norm>
-0.028204

>  <SCORE.RESTR>
0

>  <SCORE.RESTR.CAVITY>
0

>  <SCORE.RESTR.norm>
0

>  <SCORE.SYSTEM>
0

>  <SCORE.SYSTEM.CONST>
0

>  <SCORE.SYSTEM.DIHEDRAL>
0

>  <SCORE.SYSTEM.SOLV>
0

>  <SCORE.SYSTEM.norm>
0

>  <SCORE.heavy>
23

>  <SCORE.norm>
-1.49273

>  <RMSD>
5.405

$$$$

 OpenBabel11021811403D
libRbt.so/2013.1/901 2013/11/27
 23 25  0  0  0  0  0  0  0  0999 V2000
  -26.0770    7.0396    8.4521 S   0  0  0  0  0  0  0  0  0  0  0  0
  -23.4585    6.9072    9.8646 N   0  0  0  0  0  0  0  0  0  0  0  0
  -24.0904    8.2307   11.7785 C   0  0  0  0  0  0  0  0  0  0  0  0
  -25.0728    8.9636   12.4574 C   0  0  0  0  0  0  0  0  0  0  0  0
  -26.3473    9.0973   11.9150 C   0  0  0  0  0  0  0  0  0  0  0  0
  -26.6465    8.5056   10.6927 C   0  0  0  0  0  0  0  0  0  0  0  0
  -25.6772    7.7770   10.0079 C   0  0  0  0  0  0  0  0  0  0  0  0
  -24.3928    7.6342   10.5463 C   0  0  0  0  0  0  0  0  0  0  0  0
  -24.4985    7.4608    7.7844 C   0  0  0  0  0  0  0  0  0  0  0  0
  -24.3925    7.9068    6.4638 C   0  0  0  0  0  0  0  0  0  0  0  0
  -23.1398    8.2346    5.9373 C   0  0  0  0  0  0  0  0  0  0  0  0
  -21.9959    8.1110    6.7326 C   0  0  0  0  0  0  0  0  0  0  0  0
  -22.1088    7.6644    8.0497 C   0  0  0  0  0  0  0  0  0  0  0  0
  -23.3515    7.3422    8.5776 C   0  0  0  0  0  0  0  0  0  0  0  0
  -22.2500    6.4030   10.5628 C   0  0  0  0  0  0  0  0  0  0  0  0
  -22.4289    5.1513   11.4854 C   0  0  0  0  0  0  0  0  0  0  0  0
  -23.2506    5.4472   12.7864 C   0  0  0  0  0  0  0  0  0  0  0  0
  -23.7675    4.2858   13.5544 N   0  3  0  0  0  0  0  0  0  0  0  0
  -22.6745    3.3518   13.9292 C   0  0  0  0  0  0  0  0  0  0  0  0
  -24.8567    3.5867   12.7882 C   0  0  0  0  0  0  0  0  0  0  0  0
  -24.7580    9.6146   13.7740 C   0  0  0  0  0  0  0  0  0  0  0  0
  -25.7455    9.6263   14.9156 C   0  0  0  0  0  0  0  0  0  0  0  0
  -23.6516   10.0980   13.9538 O   0  0  0  0  0  0  0  0  0  0  0  0
  1  7  1  0  0  0  0
  1  9  1  0  0  0  0
  2  8  1  0  0  0  0
  2 14  1  0  0  0  0
  2 15  1  0  0  0  0
  3  4  2  0  0  0  0
  3  8  1  0  0  0  0
  4  5  1  0  0  0  0
  4 21  1  0  0  0  0
  5  6  2  0  0  0  0
  6  7  1  0  0  0  0
  7  8  2  0  0  0  0
  9 10  2  0  0  0  0
  9 14  1  0  0  0  0
 10 11  1  0  0  0  0
 11 12  2  0  0  0  0
 12 13  1  0  0  0  0
 13 14  2  0  0  0  0
 15 16  1  0  0  0  0
 16 17  1  0  0  0  0
 17 18  1  0  0  0  0
 18 19  1  0  0  0  0
 18 20  1  0  0  0  0
 21 22  1  0  0  0  0
 21 23  2  0  0  0  0
M  CHG  1  18   1
M  END
>  <CHROM.1>
76.77012882,-140.12040980,-69.77820268,165.07014550,175.63604680,-24.20436015
7.24993731,10.72290283,1.43911119,1.10418302,-1.29770026

>  <Name>


>  <RI>
0

>  <Rbt.Current_Directory>
/home/itssahil/PROJECTS/Mol_Feturizer/New_Systems/rnas/1lvj

>  <Rbt.Executable>
rbdock ($Id: //depot/dev/client3/rdock/2013.1/src/exe/rbdock.cxx#4 $)

>  <Rbt.Library>
libRbt.so (2013.1, Build901 2013/11/27)

>  <Rbt.Parameter_File>
/export/apps/rDock/src/rDock_2013.1_src/data/scripts/dock_solv.prm

>  <Rbt.Receptor>
prm/pocket_docking_5.prm

>  <SCORE>
-29.4333

>  <SCORE.INTER>
-26.7001

>  <SCORE.INTER.CONST>
1

>  <SCORE.INTER.POLAR>
0

>  <SCORE.INTER.ROT>
5

>  <SCORE.INTER.SOLV>
8.12704

>  <SCORE.INTER.VDW>
-27.4424

>  <SCORE.INTER.norm>
-1.16087

>  <SCORE.INTRA>
-2.75954

>  <SCORE.INTRA.DIHEDRAL>
-0.785207

>  <SCORE.INTRA.DIHEDRAL.0>
8.06479

>  <SCORE.INTRA.POLAR>
0

>  <SCORE.INTRA.POLAR.0>
0

>  <SCORE.INTRA.REPUL>
0

>  <SCORE.INTRA.REPUL.0>
0

>  <SCORE.INTRA.SOLV>
-0.46345

>  <SCORE.INTRA.SOLV.lig_0>
-29.8054

>  <SCORE.INTRA.VDW>
-2.13521

>  <SCORE.INTRA.VDW.0>
2.61447

>  <SCORE.INTRA.norm>
-0.11998

>  <SCORE.RESTR>
0.0262731

>  <SCORE.RESTR.CAVITY>
0.0262731

>  <SCORE.RESTR.norm>
0.00114231

>  <SCORE.SYSTEM>
0

>  <SCORE.SYSTEM.CONST>
0

>  <SCORE.SYSTEM.DIHEDRAL>
0

>  <SCORE.SYSTEM.SOLV>
0

>  <SCORE.SYSTEM.norm>
0

>  <SCORE.heavy>
23

>  <SCORE.norm>
-1.27971

>  <RMSD>
5.451

$$$$

 OpenBabel11021811403D
libRbt.so/2013.1/901 2013/11/27
 23 25  0  0  0  0  0  0  0  0999 V2000
  -26.0201    6.9952    8.6494 S   0  0  0  0  0  0  0  0  0  0  0  0
  -23.3471    6.8821    9.9575 N   0  0  0  0  0  0  0  0  0  0  0  0
  -23.8915    8.2638   11.8572 C   0  0  0  0  0  0  0  0  0  0  0  0
  -24.8405    9.0230   12.5544 C   0  0  0  0  0  0  0  0  0  0  0  0
  -26.1352    9.1513   12.0606 C   0  0  0  0  0  0  0  0  0  0  0  0
  -26.4880    8.5278   10.8688 C   0  0  0  0  0  0  0  0  0  0  0  0
  -25.5523    7.7728   10.1661 C   0  0  0  0  0  0  0  0  0  0  0  0
  -24.2479    7.6352   10.6557 C   0  0  0  0  0  0  0  0  0  0  0  0
  -24.4674    7.3851    7.9065 C   0  0  0  0  0  0  0  0  0  0  0  0
  -24.4125    7.7931    6.5705 C   0  0  0  0  0  0  0  0  0  0  0  0
  -23.1802    8.0962    5.9844 C   0  0  0  0  0  0  0  0  0  0  0  0
  -22.0057    7.9861    6.7359 C   0  0  0  0  0  0  0  0  0  0  0  0
  -22.0676    7.5776    8.0686 C   0  0  0  0  0  0  0  0  0  0  0  0
  -23.2899    7.2800    8.6554 C   0  0  0  0  0  0  0  0  0  0  0  0
  -22.1145    6.3884   10.6201 C   0  0  0  0  0  0  0  0  0  0  0  0
  -22.2928    5.5840   11.9509 C   0  0  0  0  0  0  0  0  0  0  0  0
  -23.1297    4.2705   11.7788 C   0  0  0  0  0  0  0  0  0  0  0  0
  -23.3063    3.4041   12.9722 N   0  3  0  0  0  0  0  0  0  0  0  0
  -24.0585    4.1038   14.0456 C   0  0  0  0  0  0  0  0  0  0  0  0
  -21.9764    2.9018   13.4633 C   0  0  0  0  0  0  0  0  0  0  0  0
  -24.4679    9.7083   13.8381 C   0  0  0  0  0  0  0  0  0  0  0  0
  -25.5029   10.0950   14.8667 C   0  0  0  0  0  0  0  0  0  0  0  0
  -23.2904    9.9078   14.0907 O   0  0  0  0  0  0  0  0  0  0  0  0
  1  7  1  0  0  0  0
  1  9  1  0  0  0  0
  2  8  1  0  0  0  0
  2 14  1  0  0  0  0
  2 15  1  0  0  0  0
  3  4  2  0  0  0  0
  3  8  1  0  0  0  0
  4  5  1  0  0  0  0
  4 21  1  0  0  0  0
  5  6  2  0  0  0  0
  6  7  1  0  0  0  0
  7  8  2  0  0  0  0
  9 10  2  0  0  0  0
  9 14  1  0  0  0  0
 10 11  1  0  0  0  0
 11 12  2  0  0  0  0
 12 13  1  0  0  0  0
 13 14  2  0  0  0  0
 15 16  1  0  0  0  0
 16 17  1  0  0  0  0
 17 18  1  0  0  0  0
 18 19  1  0  0  0  0
 18 20  1  0  0  0  0
 21 22  1  0  0  0  0
 21 23  2  0  0  0  0
M  CHG  1  18   1
M  END
>  <CHROM.1>
53.67336810,-157.18022285,61.03122250,177.39552175,-176.97775335,-24.00485651
7.16969333,10.78209546,1.59928066,1.11706403,-1.41619121

>  <Name>


>  <RI>
0

>  <Rbt.Current_Directory>
/home/itssahil/PROJECTS/Mol_Feturizer/New_Systems/rnas/1lvj

>  <Rbt.Executable>
rbdock ($Id: //depot/dev/client3/rdock/2013.1/src/exe/rbdock.cxx#4 $)

>  <Rbt.Library>
libRbt.so (2013.1, Build901 2013/11/27)

>  <Rbt.Parameter_File>
/export/apps/rDock/src/rDock_2013.1_src/data/scripts/dock_solv.prm

>  <Rbt.Receptor>
prm/pocket_docking_6.prm

>  <SCORE>
-35.8188

>  <SCORE.INTER>
-30.9905

>  <SCORE.INTER.CONST>
1

>  <SCORE.INTER.POLAR>
-0.939863

>  <SCORE.INTER.ROT>
5

>  <SCORE.INTER.SOLV>
12.2562

>  <SCORE.INTER.VDW>
-28.5462

>  <SCORE.INTER.norm>
-1.34741

>  <SCORE.INTRA>
-4.82835

>  <SCORE.INTRA.DIHEDRAL>
-6.08617

>  <SCORE.INTRA.DIHEDRAL.0>
8.06479

>  <SCORE.INTRA.POLAR>
0

>  <SCORE.INTRA.POLAR.0>
0

>  <SCORE.INTRA.REPUL>
0

>  <SCORE.INTRA.REPUL.0>
0

>  <SCORE.INTRA.SOLV>
-0.516655

>  <SCORE.INTRA.SOLV.lig_0>
-29.8054

>  <SCORE.INTRA.VDW>
-1.52694

>  <SCORE.INTRA.VDW.0>
2.61447

>  <SCORE.INTRA.norm>
-0.209928

>  <SCORE.RESTR>
0

>  <SCORE.RESTR.CAVITY>
0

>  <SCORE.RESTR.norm>
0

>  <SCORE.SYSTEM>
0

>  <SCORE.SYSTEM.CONST>
0

>  <SCORE.SYSTEM.DIHEDRAL>
0

>  <SCORE.SYSTEM.SOLV>
0

>  <SCORE.SYSTEM.norm>
0

>  <SCORE.heavy>
23

>  <SCORE.norm>
-1.55734

>  <RMSD>
5.576

$$$$

 OpenBabel11021811403D
libRbt.so/2013.1/901 2013/11/27
 23 25  0  0  0  0  0  0  0  0999 V2000
  -25.7991    6.7025    8.3653 S   0  0  0  0  0  0  0  0  0  0  0  0
  -23.1296    7.0152    9.6480 N   0  0  0  0  0  0  0  0  0  0  0  0
  -23.8480    8.4008   11.4860 C   0  0  0  0  0  0  0  0  0  0  0  0
  -24.8881    9.0576   12.1568 C   0  0  0  0  0  0  0  0  0  0  0  0
  -26.1904    8.9857   11.6717 C   0  0  0  0  0  0  0  0  0  0  0  0
  -26.4606    8.2633   10.5146 C   0  0  0  0  0  0  0  0  0  0  0  0
  -25.4343    7.6087    9.8383 C   0  0  0  0  0  0  0  0  0  0  0  0
  -24.1212    7.6725   10.3196 C   0  0  0  0  0  0  0  0  0  0  0  0
  -24.3169    7.2624    7.5878 C   0  0  0  0  0  0  0  0  0  0  0  0
  -24.3237    7.6090    6.2335 C   0  0  0  0  0  0  0  0  0  0  0  0
  -23.1465    8.0471    5.6203 C   0  0  0  0  0  0  0  0  0  0  0  0
  -21.9646    8.1333    6.3633 C   0  0  0  0  0  0  0  0  0  0  0  0
  -21.9646    7.7851    7.7145 C   0  0  0  0  0  0  0  0  0  0  0  0
  -23.1326    7.3537    8.3280 C   0  0  0  0  0  0  0  0  0  0  0  0
  -21.8386    6.7253   10.3197 C   0  0  0  0  0  0  0  0  0  0  0  0
  -21.8209    5.5529   11.3565 C   0  0  0  0  0  0  0  0  0  0  0  0
  -22.6663    5.8447   12.6432 C   0  0  0  0  0  0  0  0  0  0  0  0
  -22.7544    4.7732   13.6679 N   0  3  0  0  0  0  0  0  0  0  0  0
  -23.5456    3.6153   13.1774 C   0  0  0  0  0  0  0  0  0  0  0  0
  -23.3071    5.3172   14.9566 C   0  0  0  0  0  0  0  0  0  0  0  0
  -24.6062    9.8483   13.4025 C   0  0  0  0  0  0  0  0  0  0  0  0
  -23.1983   10.1268   13.8704 C   0  0  0  0  0  0  0  0  0  0  0  0
  -25.5360   10.3336   14.0271 O   0  0  0  0  0  0  0  0  0  0  0  0
  1  7  1  0  0  0  0
  1  9  1  0  0  0  0
  2  8  1  0  0  0  0
  2 14  1  0  0  0  0
  2 15  1  0  0  0  0
  3  4  2  0  0  0  0
  3  8  1  0  0  0  0
  4  5  1  0  0  0  0
  4 21  1  0  0  0  0
  5  6  2  0  0  0  0
  6  7  1  0  0  0  0
  7  8  2  0  0  0  0
  9 10  2  0  0  0  0
  9 14  1  0  0  0  0
 10 11  1  0  0  0  0
 11 12  2  0  0  0  0
 12 13  1  0  0  0  0
 13 14  2  0  0  0  0
 15 16  1  0  0  0  0
 16 17  1  0  0  0  0
 17 18  1  0  0  0  0
 18 19  1  0  0  0  0
 18 20  1  0  0  0  0
 21 22  1  0  0  0  0
 21 23  2  0  0  0  0
M  CHG  1  18   1
M  END
>  <CHROM.1>
75.97835449,8.58477222,-67.24986793,177.82252373,51.23046315,-23.90907256
7.39546168,10.57332056,1.54574718,0.99343534,-1.49954211

>  <Name>


>  <RI>
0

>  <Rbt.Current_Directory>
/home/itssahil/PROJECTS/Mol_Feturizer/New_Systems/rnas/1lvj

>  <Rbt.Executable>
rbdock ($Id: //depot/dev/client3/rdock/2013.1/src/exe/rbdock.cxx#4 $)

>  <Rbt.Library>
libRbt.so (2013.1, Build901 2013/11/27)

>  <Rbt.Parameter_File>
/export/apps/rDock/src/rDock_2013.1_src/data/scripts/dock_solv.prm

>  <Rbt.Receptor>
prm/pocket_docking_5.prm

>  <SCORE>
-32.642

>  <SCORE.INTER>
-27.225

>  <SCORE.INTER.CONST>
1

>  <SCORE.INTER.POLAR>
0

>  <SCORE.INTER.ROT>
5

>  <SCORE.INTER.SOLV>
8.86087

>  <SCORE.INTER.VDW>
-28.037

>  <SCORE.INTER.norm>
-1.1837

>  <SCORE.INTRA>
-5.68814

>  <SCORE.INTRA.DIHEDRAL>
-6.31399

>  <SCORE.INTRA.DIHEDRAL.0>
8.06479

>  <SCORE.INTRA.POLAR>
0

>  <SCORE.INTRA.POLAR.0>
0

>  <SCORE.INTRA.REPUL>
0

>  <SCORE.INTRA.REPUL.0>
0

>  <SCORE.INTRA.SOLV>
0.490053

>  <SCORE.INTRA.SOLV.lig_0>
-29.8054

>  <SCORE.INTRA.VDW>
-2.77617

>  <SCORE.INTRA.VDW.0>
2.61447

>  <SCORE.INTRA.norm>
-0.24731

>  <SCORE.RESTR>
0.271233

>  <SCORE.RESTR.CAVITY>
0.271233

>  <SCORE.RESTR.norm>
0.0117927

>  <SCORE.SYSTEM>
0

>  <SCORE.SYSTEM.CONST>
0

>  <SCORE.SYSTEM.DIHEDRAL>
0

>  <SCORE.SYSTEM.SOLV>
0

>  <SCORE.SYSTEM.norm>
0

>  <SCORE.heavy>
23

>  <SCORE.norm>
-1.41922

>  <RMSD>
5.596

$$$$

 OpenBabel11021811403D
libRbt.so/2013.1/901 2013/11/27
 23 25  0  0  0  0  0  0  0  0999 V2000
  -24.4211    8.8666   11.3237 S   0  0  0  0  0  0  0  0  0  0  0  0
  -25.5244    6.1006   11.2867 N   0  0  0  0  0  0  0  0  0  0  0  0
  -23.5188    4.9752   12.0111 C   0  0  0  0  0  0  0  0  0  0  0  0
  -22.1792    5.0539   12.4143 C   0  0  0  0  0  0  0  0  0  0  0  0
  -21.5406    6.2882   12.4870 C   0  0  0  0  0  0  0  0  0  0  0  0
  -22.2324    7.4477   12.1540 C   0  0  0  0  0  0  0  0  0  0  0  0
  -23.5632    7.3811   11.7495 C   0  0  0  0  0  0  0  0  0  0  0  0
  -24.2157    6.1446   11.6758 C   0  0  0  0  0  0  0  0  0  0  0  0
  -25.2332    8.0754    9.9711 C   0  0  0  0  0  0  0  0  0  0  0  0
  -25.4133    8.7587    8.7650 C   0  0  0  0  0  0  0  0  0  0  0  0
  -26.0614    8.1302    7.6978 C   0  0  0  0  0  0  0  0  0  0  0  0
  -26.5312    6.8207    7.8421 C   0  0  0  0  0  0  0  0  0  0  0  0
  -26.3488    6.1447    9.0491 C   0  0  0  0  0  0  0  0  0  0  0  0
  -25.7018    6.7639   10.1095 C   0  0  0  0  0  0  0  0  0  0  0  0
  -26.3488    4.9009   11.5748 C   0  0  0  0  0  0  0  0  0  0  0  0
  -27.2966    4.9681   12.8187 C   0  0  0  0  0  0  0  0  0  0  0  0
  -28.3209    6.1524   12.7596 C   0  0  0  0  0  0  0  0  0  0  0  0
  -29.3825    6.1983   13.7973 N   0  3  0  0  0  0  0  0  0  0  0  0
  -30.3627    5.0956   13.6216 C   0  0  0  0  0  0  0  0  0  0  0  0
  -30.0557    7.5432   13.8071 C   0  0  0  0  0  0  0  0  0  0  0  0
  -21.4196    3.8070   12.7676 C   0  0  0  0  0  0  0  0  0  0  0  0
  -22.0789    2.4493   12.7894 C   0  0  0  0  0  0  0  0  0  0  0  0
  -20.2207    3.8778   12.9862 O   0  0  0  0  0  0  0  0  0  0  0  0
  1  7  1  0  0  0  0
  1  9  1  0  0  0  0
  2  8  1  0  0  0  0
  2 14  1  0  0  0  0
  2 15  1  0  0  0  0
  3  4  2  0  0  0  0
  3  8  1  0  0  0  0
  4  5  1  0  0  0  0
  4 21  1  0  0  0  0
  5  6  2  0  0  0  0
  6  7  1  0  0  0  0
  7  8  2  0  0  0  0
  9 10  2  0  0  0  0
  9 14  1  0  0  0  0
 10 11  1  0  0  0  0
 11 12  2  0  0  0  0
 12 13  1  0  0  0  0
 13 14  2  0  0  0  0
 15 16  1  0  0  0  0
 16 17  1  0  0  0  0
 17 18  1  0  0  0  0
 18 19  1  0  0  0  0
 18 20  1  0  0  0  0
 21 22  1  0  0  0  0
 21 23  2  0  0  0  0
M  CHG  1  18   1
M  END
>  <CHROM.1>
99.20494400,-3.96138406,57.64855839,171.96441755,50.94878983,-25.15924221
6.27761934,11.60189384,-0.18366374,0.16111599,-0.84430424

>  <Name>


>  <RI>
0

>  <Rbt.Current_Directory>
/home/itssahil/PROJECTS/Mol_Feturizer/New_Systems/rnas/1lvj

>  <Rbt.Executable>
rbdock ($Id: //depot/dev/client3/rdock/2013.1/src/exe/rbdock.cxx#4 $)

>  <Rbt.Library>
libRbt.so (2013.1, Build901 2013/11/27)

>  <Rbt.Parameter_File>
/export/apps/rDock/src/rDock_2013.1_src/data/scripts/dock_solv.prm

>  <Rbt.Receptor>
prm/pocket_docking_6.prm

>  <SCORE>
-15.2811

>  <SCORE.INTER>
-10.061

>  <SCORE.INTER.CONST>
1

>  <SCORE.INTER.POLAR>
0

>  <SCORE.INTER.ROT>
5

>  <SCORE.INTER.SOLV>
5.65534

>  <SCORE.INTER.VDW>
-15.5258

>  <SCORE.INTER.norm>
-0.437433

>  <SCORE.INTRA>
-5.22011

>  <SCORE.INTRA.DIHEDRAL>
-5.3147

>  <SCORE.INTRA.DIHEDRAL.0>
8.06479

>  <SCORE.INTRA.POLAR>
0

>  <SCORE.INTRA.POLAR.0>
0

>  <SCORE.INTRA.REPUL>
0

>  <SCORE.INTRA.REPUL.0>
0

>  <SCORE.INTRA.SOLV>
0.436248

>  <SCORE.INTRA.SOLV.lig_0>
-29.8054

>  <SCORE.INTRA.VDW>
-2.78089

>  <SCORE.INTRA.VDW.0>
2.61447

>  <SCORE.INTRA.norm>
-0.226962

>  <SCORE.RESTR>
0

>  <SCORE.RESTR.CAVITY>
0

>  <SCORE.RESTR.norm>
0

>  <SCORE.SYSTEM>
0

>  <SCORE.SYSTEM.CONST>
0

>  <SCORE.SYSTEM.DIHEDRAL>
0

>  <SCORE.SYSTEM.SOLV>
0

>  <SCORE.SYSTEM.norm>
0

>  <SCORE.heavy>
23

>  <SCORE.norm>
-0.664395

>  <RMSD>
5.608

$$$$

 OpenBabel11021811403D
libRbt.so/2013.1/901 2013/11/27
 23 25  0  0  0  0  0  0  0  0999 V2000
  -25.8965    6.7726    8.5167 S   0  0  0  0  0  0  0  0  0  0  0  0
  -23.2060    7.1053    9.7494 N   0  0  0  0  0  0  0  0  0  0  0  0
  -23.8890    8.5429   11.5607 C   0  0  0  0  0  0  0  0  0  0  0  0
  -24.9154    9.2227   12.2297 C   0  0  0  0  0  0  0  0  0  0  0  0
  -26.2254    9.1448   11.7668 C   0  0  0  0  0  0  0  0  0  0  0  0
  -26.5170    8.3934   10.6336 C   0  0  0  0  0  0  0  0  0  0  0  0
  -25.5046    7.7156    9.9593 C   0  0  0  0  0  0  0  0  0  0  0  0
  -24.1838    7.7853   10.4184 C   0  0  0  0  0  0  0  0  0  0  0  0
  -24.4239    7.3039    7.7019 C   0  0  0  0  0  0  0  0  0  0  0  0
  -24.4500    7.6144    6.3391 C   0  0  0  0  0  0  0  0  0  0  0  0
  -23.2803    8.0300    5.6964 C   0  0  0  0  0  0  0  0  0  0  0  0
  -22.0866    8.1297    6.4185 C   0  0  0  0  0  0  0  0  0  0  0  0
  -22.0674    7.8174    7.7784 C   0  0  0  0  0  0  0  0  0  0  0  0
  -23.2278    7.4086    8.4210 C   0  0  0  0  0  0  0  0  0  0  0  0
  -21.9061    6.8265   10.4087 C   0  0  0  0  0  0  0  0  0  0  0  0
  -21.8541    5.6175   11.4014 C   0  0  0  0  0  0  0  0  0  0  0  0
  -22.8934    5.7237   12.5693 C   0  0  0  0  0  0  0  0  0  0  0  0
  -22.8770    4.6601   13.6057 N   0  3  0  0  0  0  0  0  0  0  0  0
  -21.5888    4.6419   14.3459 C   0  0  0  0  0  0  0  0  0  0  0  0
  -23.1852    3.3207   12.9949 C   0  0  0  0  0  0  0  0  0  0  0  0
  -24.6103   10.0446   13.4495 C   0  0  0  0  0  0  0  0  0  0  0  0
  -23.1940   10.3330   13.8847 C   0  0  0  0  0  0  0  0  0  0  0  0
  -25.5283   10.5471   14.0780 O   0  0  0  0  0  0  0  0  0  0  0  0
  1  7  1  0  0  0  0
  1  9  1  0  0  0  0
  2  8  1  0  0  0  0
  2 14  1  0  0  0  0
  2 15  1  0  0  0  0
  3  4  2  0  0  0  0
  3  8  1  0  0  0  0
  4  5  1  0  0  0  0
  4 21  1  0  0  0  0
  5  6  2  0  0  0  0
  6  7  1  0  0  0  0
  7  8  2  0  0  0  0
  9 10  2  0  0  0  0
  9 14  1  0  0  0  0
 10 11  1  0  0  0  0
 11 12  2  0  0  0  0
 12 13  1  0  0  0  0
 13 14  2  0  0  0  0
 15 16  1  0  0  0  0
 16 17  1  0  0  0  0
 17 18  1  0  0  0  0
 18 19  1  0  0  0  0
 18 20  1  0  0  0  0
 21 22  1  0  0  0  0
 21 23  2  0  0  0  0
M  CHG  1  18   1
M  END
>  <CHROM.1>
80.14343856,8.85079110,-57.02665112,-176.91035473,-177.05308401,-23.88867139
7.42244591,10.60374487,1.70001706,0.99597769,-1.59729048

>  <Name>


>  <RI>
0

>  <Rbt.Current_Directory>
/home/itssahil/PROJECTS/Mol_Feturizer/New_Systems/rnas/1lvj

>  <Rbt.Executable>
rbdock ($Id: //depot/dev/client3/rdock/2013.1/src/exe/rbdock.cxx#4 $)

>  <Rbt.Library>
libRbt.so (2013.1, Build901 2013/11/27)

>  <Rbt.Parameter_File>
/export/apps/rDock/src/rDock_2013.1_src/data/scripts/dock_solv.prm

>  <Rbt.Receptor>
prm/pocket_docking_7.prm

>  <SCORE>
-33.0986

>  <SCORE.INTER>
-27.9385

>  <SCORE.INTER.CONST>
1

>  <SCORE.INTER.POLAR>
0

>  <SCORE.INTER.ROT>
5

>  <SCORE.INTER.SOLV>
9.18548

>  <SCORE.INTER.VDW>
-28.6208

>  <SCORE.INTER.norm>
-1.21472

>  <SCORE.INTRA>
-5.16011

>  <SCORE.INTRA.DIHEDRAL>
-6.48113

>  <SCORE.INTRA.DIHEDRAL.0>
8.06479

>  <SCORE.INTRA.POLAR>
0

>  <SCORE.INTRA.POLAR.0>
0

>  <SCORE.INTRA.REPUL>
0

>  <SCORE.INTRA.REPUL.0>
0

>  <SCORE.INTRA.SOLV>
-0.47378

>  <SCORE.INTRA.SOLV.lig_0>
-29.8054

>  <SCORE.INTRA.VDW>
-1.68266

>  <SCORE.INTRA.VDW.0>
2.61447

>  <SCORE.INTRA.norm>
-0.224353

>  <SCORE.RESTR>
0

>  <SCORE.RESTR.CAVITY>
0

>  <SCORE.RESTR.norm>
0

>  <SCORE.SYSTEM>
0

>  <SCORE.SYSTEM.CONST>
0

>  <SCORE.SYSTEM.DIHEDRAL>
0

>  <SCORE.SYSTEM.SOLV>
0

>  <SCORE.SYSTEM.norm>
0

>  <SCORE.heavy>
23

>  <SCORE.norm>
-1.43907

>  <RMSD>
5.659

$$$$

 OpenBabel11021811403D
libRbt.so/2013.1/901 2013/11/27
 23 25  0  0  0  0  0  0  0  0999 V2000
  -22.8379    6.5311   11.9385 S   0  0  0  0  0  0  0  0  0  0  0  0
  -25.1109    7.5257   10.2911 N   0  0  0  0  0  0  0  0  0  0  0  0
  -23.8618    7.8983    8.2626 C   0  0  0  0  0  0  0  0  0  0  0  0
  -22.6385    7.8460    7.5815 C   0  0  0  0  0  0  0  0  0  0  0  0
  -21.4946    7.3899    8.2295 C   0  0  0  0  0  0  0  0  0  0  0  0
  -21.5640    6.9887    9.5592 C   0  0  0  0  0  0  0  0  0  0  0  0
  -22.7740    7.0388   10.2467 C   0  0  0  0  0  0  0  0  0  0  0  0
  -23.9312    7.4935    9.6031 C   0  0  0  0  0  0  0  0  0  0  0  0
  -23.9386    7.8480   12.3496 C   0  0  0  0  0  0  0  0  0  0  0  0
  -23.7879    8.5365   13.5568 C   0  0  0  0  0  0  0  0  0  0  0  0
  -24.6648    9.5756   13.8808 C   0  0  0  0  0  0  0  0  0  0  0  0
  -25.6931    9.9202   12.9975 C   0  0  0  0  0  0  0  0  0  0  0  0
  -25.8384    9.2283   11.7945 C   0  0  0  0  0  0  0  0  0  0  0  0
  -24.9668    8.1988   11.4672 C   0  0  0  0  0  0  0  0  0  0  0  0
  -26.3994    7.6102    9.5599 C   0  0  0  0  0  0  0  0  0  0  0  0
  -26.6492    6.5564    8.4299 C   0  0  0  0  0  0  0  0  0  0  0  0
  -26.3881    7.1129    6.9886 C   0  0  0  0  0  0  0  0  0  0  0  0
  -26.5263    6.1696    5.8498 N   0  3  0  0  0  0  0  0  0  0  0  0
  -25.5429    6.4656    4.7760 C   0  0  0  0  0  0  0  0  0  0  0  0
  -27.9366    6.1732    5.3273 C   0  0  0  0  0  0  0  0  0  0  0  0
  -22.5500    8.2855    6.1478 C   0  0  0  0  0  0  0  0  0  0  0  0
  -21.4922    7.7515    5.2126 C   0  0  0  0  0  0  0  0  0  0  0  0
  -23.3906    9.0507    5.7030 O   0  0  0  0  0  0  0  0  0  0  0  0
  1  7  1  0  0  0  0
  1  9  1  0  0  0  0
  2  8  1  0  0  0  0
  2 14  1  0  0  0  0
  2 15  1  0  0  0  0
  3  4  2  0  0  0  0
  3  8  1  0  0  0  0
  4  5  1  0  0  0  0
  4 21  1  0  0  0  0
  5  6  2  0  0  0  0
  6  7  1  0  0  0  0
  7  8  2  0  0  0  0
  9 10  2  0  0  0  0
  9 14  1  0  0  0  0
 10 11  1  0  0  0  0
 11 12  2  0  0  0  0
 12 13  1  0  0  0  0
 13 14  2  0  0  0  0
 15 16  1  0  0  0  0
 16 17  1  0  0  0  0
 17 18  1  0  0  0  0
 18 19  1  0  0  0  0
 18 20  1  0  0  0  0
 21 22  1  0  0  0  0
 21 23  2  0  0  0  0
M  CHG  1  18   1
M  END
>  <CHROM.1>
52.24141987,-154.13521622,-100.38707617,176.78135810,-25.11514785,-24.31336123
7.61149448,9.14739799,-1.46743857,-0.06016637,-1.73698235

>  <Name>


>  <RI>
0

>  <Rbt.Current_Directory>
/home/itssahil/PROJECTS/Mol_Feturizer/New_Systems/rnas/1lvj

>  <Rbt.Executable>
rbdock ($Id: //depot/dev/client3/rdock/2013.1/src/exe/rbdock.cxx#4 $)

>  <Rbt.Library>
libRbt.so (2013.1, Build901 2013/11/27)

>  <Rbt.Parameter_File>
/export/apps/rDock/src/rDock_2013.1_src/data/scripts/dock_solv.prm

>  <Rbt.Receptor>
prm/pocket_docking_6.prm

>  <SCORE>
-26.8632

>  <SCORE.INTER>
-24.9329

>  <SCORE.INTER.CONST>
1

>  <SCORE.INTER.POLAR>
-0.0970036

>  <SCORE.INTER.ROT>
5

>  <SCORE.INTER.SOLV>
20.0181

>  <SCORE.INTER.VDW>
-29.9047

>  <SCORE.INTER.norm>
-1.08404

>  <SCORE.INTRA>
-1.93029

>  <SCORE.INTRA.DIHEDRAL>
0.666926

>  <SCORE.INTRA.DIHEDRAL.0>
8.06479

>  <SCORE.INTRA.POLAR>
0

>  <SCORE.INTRA.POLAR.0>
0

>  <SCORE.INTRA.REPUL>
0

>  <SCORE.INTRA.REPUL.0>
0

>  <SCORE.INTRA.SOLV>
1.08509

>  <SCORE.INTRA.SOLV.lig_0>
-29.8054

>  <SCORE.INTRA.VDW>
-2.8063

>  <SCORE.INTRA.VDW.0>
2.61447

>  <SCORE.INTRA.norm>
-0.0839256

>  <SCORE.RESTR>
0

>  <SCORE.RESTR.CAVITY>
0

>  <SCORE.RESTR.norm>
0

>  <SCORE.SYSTEM>
0

>  <SCORE.SYSTEM.CONST>
0

>  <SCORE.SYSTEM.DIHEDRAL>
0

>  <SCORE.SYSTEM.SOLV>
0

>  <SCORE.SYSTEM.norm>
0

>  <SCORE.heavy>
23

>  <SCORE.norm>
-1.16797

>  <RMSD>
5.709

$$$$

 OpenBabel11021811403D
libRbt.so/2013.1/901 2013/11/27
 23 25  0  0  0  0  0  0  0  0999 V2000
  -22.8391    6.5229   11.9479 S   0  0  0  0  0  0  0  0  0  0  0  0
  -25.1085    7.5323   10.3048 N   0  0  0  0  0  0  0  0  0  0  0  0
  -23.8589    7.9057    8.2767 C   0  0  0  0  0  0  0  0  0  0  0  0
  -22.6361    7.8502    7.5949 C   0  0  0  0  0  0  0  0  0  0  0  0
  -21.4939    7.3871    8.2409 C   0  0  0  0  0  0  0  0  0  0  0  0
  -21.5644    6.9822    9.5694 C   0  0  0  0  0  0  0  0  0  0  0  0
  -22.7738    7.0354   10.2577 C   0  0  0  0  0  0  0  0  0  0  0  0
  -23.9293    7.4971    9.6160 C   0  0  0  0  0  0  0  0  0  0  0  0
  -23.9339    7.8433   12.3636 C   0  0  0  0  0  0  0  0  0  0  0  0
  -23.7795    8.5275   13.5728 C   0  0  0  0  0  0  0  0  0  0  0  0
  -24.6518    9.5694   13.9005 C   0  0  0  0  0  0  0  0  0  0  0  0
  -25.6790    9.9211   13.0187 C   0  0  0  0  0  0  0  0  0  0  0  0
  -25.8280    9.2335   11.8137 C   0  0  0  0  0  0  0  0  0  0  0  0
  -24.9610    8.2012   11.4828 C   0  0  0  0  0  0  0  0  0  0  0  0
  -26.3970    7.6247    9.5744 C   0  0  0  0  0  0  0  0  0  0  0  0
  -26.6508    6.5770    8.4396 C   0  0  0  0  0  0  0  0  0  0  0  0
  -26.3436    7.1250    7.0041 C   0  0  0  0  0  0  0  0  0  0  0  0
  -26.5262    6.1977    5.8584 N   0  3  0  0  0  0  0  0  0  0  0  0
  -25.5419    6.4671    4.7786 C   0  0  0  0  0  0  0  0  0  0  0  0
  -27.9399    6.2579    5.3486 C   0  0  0  0  0  0  0  0  0  0  0  0
  -22.5464    8.2936    6.1624 C   0  0  0  0  0  0  0  0  0  0  0  0
  -21.4782    7.7742    5.2309 C   0  0  0  0  0  0  0  0  0  0  0  0
  -23.3941    9.0497    5.7154 O   0  0  0  0  0  0  0  0  0  0  0  0
  1  7  1  0  0  0  0
  1  9  1  0  0  0  0
  2  8  1  0  0  0  0
  2 14  1  0  0  0  0
  2 15  1  0  0  0  0
  3  4  2  0  0  0  0
  3  8  1  0  0  0  0
  4  5  1  0  0  0  0
  4 21  1  0  0  0  0
  5  6  2  0  0  0  0
  6  7  1  0  0  0  0
  7  8  2  0  0  0  0
  9 10  2  0  0  0  0
  9 14  1  0  0  0  0
 10 11  1  0  0  0  0
 11 12  2  0  0  0  0
 12 13  1  0  0  0  0
 13 14  2  0  0  0  0
 15 16  1  0  0  0  0
 16 17  1  0  0  0  0
 17 18  1  0  0  0  0
 18 19  1  0  0  0  0
 18 20  1  0  0  0  0
 21 22  1  0  0  0  0
 21 23  2  0  0  0  0
M  CHG  1  18   1
M  END
>  <CHROM.1>
52.13104855,-155.10876560,-98.50582897,178.76997300,-26.76719683,-24.30854216
7.61913909,9.16095285,-1.46810652,-0.05367392,-1.73342983

>  <Name>


>  <RI>
0

>  <Rbt.Current_Directory>
/home/itssahil/PROJECTS/Mol_Feturizer/New_Systems/rnas/1lvj

>  <Rbt.Executable>
rbdock ($Id: //depot/dev/client3/rdock/2013.1/src/exe/rbdock.cxx#4 $)

>  <Rbt.Library>
libRbt.so (2013.1, Build901 2013/11/27)

>  <Rbt.Parameter_File>
/export/apps/rDock/src/rDock_2013.1_src/data/scripts/dock_solv.prm

>  <Rbt.Receptor>
prm/pocket_docking_5.prm

>  <SCORE>
-26.8539

>  <SCORE.INTER>
-24.8879

>  <SCORE.INTER.CONST>
1

>  <SCORE.INTER.POLAR>
-0.0910712

>  <SCORE.INTER.ROT>
5

>  <SCORE.INTER.SOLV>
19.8779

>  <SCORE.INTER.VDW>
-29.8477

>  <SCORE.INTER.norm>
-1.08208

>  <SCORE.INTRA>
-1.96599

>  <SCORE.INTRA.DIHEDRAL>
0.0797238

>  <SCORE.INTRA.DIHEDRAL.0>
8.06479

>  <SCORE.INTRA.POLAR>
0

>  <SCORE.INTRA.POLAR.0>
0

>  <SCORE.INTRA.REPUL>
0

>  <SCORE.INTRA.REPUL.0>
0

>  <SCORE.INTRA.SOLV>
1.08078

>  <SCORE.INTRA.SOLV.lig_0>
-29.8054

>  <SCORE.INTRA.VDW>
-2.54625

>  <SCORE.INTRA.VDW.0>
2.61447

>  <SCORE.INTRA.norm>
-0.085478

>  <SCORE.RESTR>
0

>  <SCORE.RESTR.CAVITY>
0

>  <SCORE.RESTR.norm>
0

>  <SCORE.SYSTEM>
0

>  <SCORE.SYSTEM.CONST>
0

>  <SCORE.SYSTEM.DIHEDRAL>
0

>  <SCORE.SYSTEM.SOLV>
0

>  <SCORE.SYSTEM.norm>
0

>  <SCORE.heavy>
23

>  <SCORE.norm>
-1.16756

>  <RMSD>
5.718

$$$$

 OpenBabel11021811403D
libRbt.so/2013.1/901 2013/11/27
 23 25  0  0  0  0  0  0  0  0999 V2000
  -25.8707    6.8079    8.6738 S   0  0  0  0  0  0  0  0  0  0  0  0
  -23.1314    7.1362    9.7951 N   0  0  0  0  0  0  0  0  0  0  0  0
  -23.7327    8.5997   11.6146 C   0  0  0  0  0  0  0  0  0  0  0  0
  -24.7273    9.2946   12.3154 C   0  0  0  0  0  0  0  0  0  0  0  0
  -26.0551    9.2204   11.9056 C   0  0  0  0  0  0  0  0  0  0  0  0
  -26.3963    8.4578   10.7939 C   0  0  0  0  0  0  0  0  0  0  0  0
  -25.4158    7.7651   10.0883 C   0  0  0  0  0  0  0  0  0  0  0  0
  -24.0774    7.8309   10.4940 C   0  0  0  0  0  0  0  0  0  0  0  0
  -24.4281    7.3192    7.7951 C   0  0  0  0  0  0  0  0  0  0  0  0
  -24.5060    7.6139    6.4308 C   0  0  0  0  0  0  0  0  0  0  0  0
  -23.3601    8.0137    5.7374 C   0  0  0  0  0  0  0  0  0  0  0  0
  -22.1381    8.1134    6.4106 C   0  0  0  0  0  0  0  0  0  0  0  0
  -22.0671    7.8171    7.7722 C   0  0  0  0  0  0  0  0  0  0  0  0
  -23.2038    7.4240    8.4651 C   0  0  0  0  0  0  0  0  0  0  0  0
  -21.8082    6.8560   10.4058 C   0  0  0  0  0  0  0  0  0  0  0  0
  -21.6976    5.5902   11.3198 C   0  0  0  0  0  0  0  0  0  0  0  0
  -22.7793    5.5418   12.4525 C   0  0  0  0  0  0  0  0  0  0  0  0
  -22.7451    4.3901   13.3897 N   0  3  0  0  0  0  0  0  0  0  0  0
  -24.0506    4.2080   14.0753 C   0  0  0  0  0  0  0  0  0  0  0  0
  -21.6178    4.5415   14.3736 C   0  0  0  0  0  0  0  0  0  0  0  0
  -24.3688   10.1286   13.5122 C   0  0  0  0  0  0  0  0  0  0  0  0
  -22.9349   10.3648   13.9207 C   0  0  0  0  0  0  0  0  0  0  0  0
  -25.2547   10.6838   14.1424 O   0  0  0  0  0  0  0  0  0  0  0  0
  1  7  1  0  0  0  0
  1  9  1  0  0  0  0
  2  8  1  0  0  0  0
  2 14  1  0  0  0  0
  2 15  1  0  0  0  0
  3  4  2  0  0  0  0
  3  8  1  0  0  0  0
  4  5  1  0  0  0  0
  4 21  1  0  0  0  0
  5  6  2  0  0  0  0
  6  7  1  0  0  0  0
  7  8  2  0  0  0  0
  9 10  2  0  0  0  0
  9 14  1  0  0  0  0
 10 11  1  0  0  0  0
 11 12  2  0  0  0  0
 12 13  1  0  0  0  0
 13 14  2  0  0  0  0
 15 16  1  0  0  0  0
 16 17  1  0  0  0  0
 17 18  1  0  0  0  0
 18 19  1  0  0  0  0
 18 20  1  0  0  0  0
 21 22  1  0  0  0  0
 21 23  2  0  0  0  0
M  CHG  1  18   1
M  END
>  <CHROM.1>
84.93652382,6.26520399,-52.77443183,-178.97613501,-39.91622142,-23.83998979
7.46515212,10.69135797,1.68786130,1.03023220,-1.59602311

>  <Name>


>  <RI>
0

>  <Rbt.Current_Directory>
/home/itssahil/PROJECTS/Mol_Feturizer/New_Systems/rnas/1lvj

>  <Rbt.Executable>
rbdock ($Id: //depot/dev/client3/rdock/2013.1/src/exe/rbdock.cxx#4 $)

>  <Rbt.Library>
libRbt.so (2013.1, Build901 2013/11/27)

>  <Rbt.Parameter_File>
/export/apps/rDock/src/rDock_2013.1_src/data/scripts/dock_solv.prm

>  <Rbt.Receptor>
prm/pocket_docking_7.prm

>  <SCORE>
-32.8757

>  <SCORE.INTER>
-27.303

>  <SCORE.INTER.CONST>
1

>  <SCORE.INTER.POLAR>
0

>  <SCORE.INTER.ROT>
5

>  <SCORE.INTER.SOLV>
9.40442

>  <SCORE.INTER.VDW>
-28.2702

>  <SCORE.INTER.norm>
-1.18709

>  <SCORE.INTRA>
-5.57263

>  <SCORE.INTRA.DIHEDRAL>
-5.45864

>  <SCORE.INTRA.DIHEDRAL.0>
8.06479

>  <SCORE.INTRA.POLAR>
0

>  <SCORE.INTRA.POLAR.0>
0

>  <SCORE.INTRA.REPUL>
0

>  <SCORE.INTRA.REPUL.0>
0

>  <SCORE.INTRA.SOLV>
0.613211

>  <SCORE.INTRA.SOLV.lig_0>
-29.8054

>  <SCORE.INTRA.VDW>
-3.14992

>  <SCORE.INTRA.VDW.0>
2.61447

>  <SCORE.INTRA.norm>
-0.242288

>  <SCORE.RESTR>
0

>  <SCORE.RESTR.CAVITY>
0

>  <SCORE.RESTR.norm>
0

>  <SCORE.SYSTEM>
0

>  <SCORE.SYSTEM.CONST>
0

>  <SCORE.SYSTEM.DIHEDRAL>
0

>  <SCORE.SYSTEM.SOLV>
0

>  <SCORE.SYSTEM.norm>
0

>  <SCORE.heavy>
23

>  <SCORE.norm>
-1.42938

>  <RMSD>
5.719

$$$$

 OpenBabel11021811403D
libRbt.so/2013.1/901 2013/11/27
 23 25  0  0  0  0  0  0  0  0999 V2000
  -25.8891    7.9501    9.7893 S   0  0  0  0  0  0  0  0  0  0  0  0
  -23.1679    7.0205   10.5641 N   0  0  0  0  0  0  0  0  0  0  0  0
  -22.9038    8.4546   12.4844 C   0  0  0  0  0  0  0  0  0  0  0  0
  -23.4338    9.4432   13.3240 C   0  0  0  0  0  0  0  0  0  0  0  0
  -24.7032    9.9603   13.0834 C   0  0  0  0  0  0  0  0  0  0  0  0
  -25.4471    9.4981   12.0032 C   0  0  0  0  0  0  0  0  0  0  0  0
  -24.9294    8.5176   11.1607 C   0  0  0  0  0  0  0  0  0  0  0  0
  -23.6545    7.9889   11.3957 C   0  0  0  0  0  0  0  0  0  0  0  0
  -24.4645    7.8818    8.7497 C   0  0  0  0  0  0  0  0  0  0  0  0
  -24.5508    8.2877    7.4148 C   0  0  0  0  0  0  0  0  0  0  0  0
  -23.4214    8.2273    6.5934 C   0  0  0  0  0  0  0  0  0  0  0  0
  -22.2095    7.7569    7.1092 C   0  0  0  0  0  0  0  0  0  0  0  0
  -22.1304    7.3525    8.4424 C   0  0  0  0  0  0  0  0  0  0  0  0
  -23.2487    7.4152    9.2623 C   0  0  0  0  0  0  0  0  0  0  0  0
  -22.0317    6.1686   10.9948 C   0  0  0  0  0  0  0  0  0  0  0  0
  -22.3792    4.8533   11.7688 C   0  0  0  0  0  0  0  0  0  0  0  0
  -23.9062    4.7000   12.0852 C   0  0  0  0  0  0  0  0  0  0  0  0
  -24.3266    3.5368   12.9074 N   0  3  0  0  0  0  0  0  0  0  0  0
  -25.8046    3.3859   12.9205 C   0  0  0  0  0  0  0  0  0  0  0  0
  -23.7670    3.6424   14.2994 C   0  0  0  0  0  0  0  0  0  0  0  0
  -22.6354    9.9564   14.4883 C   0  0  0  0  0  0  0  0  0  0  0  0
  -21.2034    9.5393   14.7207 C   0  0  0  0  0  0  0  0  0  0  0  0
  -23.1328   10.7808   15.2387 O   0  0  0  0  0  0  0  0  0  0  0  0
  1  7  1  0  0  0  0
  1  9  1  0  0  0  0
  2  8  1  0  0  0  0
  2 14  1  0  0  0  0
  2 15  1  0  0  0  0
  3  4  2  0  0  0  0
  3  8  1  0  0  0  0
  4  5  1  0  0  0  0
  4 21  1  0  0  0  0
  5  6  2  0  0  0  0
  6  7  1  0  0  0  0
  7  8  2  0  0  0  0
  9 10  2  0  0  0  0
  9 14  1  0  0  0  0
 10 11  1  0  0  0  0
 11 12  2  0  0  0  0
 12 13  1  0  0  0  0
 13 14  2  0  0  0  0
 15 16  1  0  0  0  0
 16 17  1  0  0  0  0
 17 18  1  0  0  0  0
 18 19  1  0  0  0  0
 18 20  1  0  0  0  0
 21 22  1  0  0  0  0
 21 23  2  0  0  0  0
M  CHG  1  18   1
M  END
>  <CHROM.1>
88.98312709,6.10799673,-5.15862516,-175.43243160,-49.83236295,-23.74208452
7.44412600,11.34085194,-2.23517758,1.42484647,2.18000768

>  <Name>


>  <RI>
0

>  <Rbt.Current_Directory>
/home/itssahil/PROJECTS/Mol_Feturizer/New_Systems/rnas/1lvj

>  <Rbt.Executable>
rbdock ($Id: //depot/dev/client3/rdock/2013.1/src/exe/rbdock.cxx#4 $)

>  <Rbt.Library>
libRbt.so (2013.1, Build901 2013/11/27)

>  <Rbt.Parameter_File>
/export/apps/rDock/src/rDock_2013.1_src/data/scripts/dock_solv.prm

>  <Rbt.Receptor>
prm/pocket_docking_7.prm

>  <SCORE>
-31.2378

>  <SCORE.INTER>
-28.5906

>  <SCORE.INTER.CONST>
1

>  <SCORE.INTER.POLAR>
-0.801511

>  <SCORE.INTER.ROT>
5

>  <SCORE.INTER.SOLV>
11.9936

>  <SCORE.INTER.VDW>
-27.3199

>  <SCORE.INTER.norm>
-1.24307

>  <SCORE.INTRA>
-2.64716

>  <SCORE.INTRA.DIHEDRAL>
-0.571958

>  <SCORE.INTRA.DIHEDRAL.0>
8.06479

>  <SCORE.INTRA.POLAR>
0

>  <SCORE.INTRA.POLAR.0>
0

>  <SCORE.INTRA.REPUL>
0

>  <SCORE.INTRA.REPUL.0>
0

>  <SCORE.INTRA.SOLV>
0.539425

>  <SCORE.INTRA.SOLV.lig_0>
-29.8054

>  <SCORE.INTRA.VDW>
-2.63089

>  <SCORE.INTRA.VDW.0>
2.61447

>  <SCORE.INTRA.norm>
-0.115094

>  <SCORE.RESTR>
0

>  <SCORE.RESTR.CAVITY>
0

>  <SCORE.RESTR.norm>
0

>  <SCORE.SYSTEM>
0

>  <SCORE.SYSTEM.CONST>
0

>  <SCORE.SYSTEM.DIHEDRAL>
0

>  <SCORE.SYSTEM.SOLV>
0

>  <SCORE.SYSTEM.norm>
0

>  <SCORE.heavy>
23

>  <SCORE.norm>
-1.35816

>  <RMSD>
5.731

$$$$

 OpenBabel11021811403D
libRbt.so/2013.1/901 2013/11/27
 23 25  0  0  0  0  0  0  0  0999 V2000
  -26.2075    6.8674    9.0802 S   0  0  0  0  0  0  0  0  0  0  0  0
  -23.4091    6.9942   10.0912 N   0  0  0  0  0  0  0  0  0  0  0  0
  -23.8032    8.6021   11.8444 C   0  0  0  0  0  0  0  0  0  0  0  0
  -24.7021    9.4238   12.5372 C   0  0  0  0  0  0  0  0  0  0  0  0
  -26.0456    9.4538   12.1759 C   0  0  0  0  0  0  0  0  0  0  0  0
  -26.4977    8.6692   11.1205 C   0  0  0  0  0  0  0  0  0  0  0  0
  -25.6128    7.8507   10.4231 C   0  0  0  0  0  0  0  0  0  0  0  0
  -24.2598    7.8111   10.7806 C   0  0  0  0  0  0  0  0  0  0  0  0
  -24.7580    7.1931    8.1275 C   0  0  0  0  0  0  0  0  0  0  0  0
  -24.8599    7.4214    6.7521 C   0  0  0  0  0  0  0  0  0  0  0  0
  -23.7089    7.6739    6.0003 C   0  0  0  0  0  0  0  0  0  0  0  0
  -22.4583    7.6933    6.6265 C   0  0  0  0  0  0  0  0  0  0  0  0
  -22.3636    7.4638    7.9995 C   0  0  0  0  0  0  0  0  0  0  0  0
  -23.5048    7.2170    8.7502 C   0  0  0  0  0  0  0  0  0  0  0  0
  -22.0954    6.6231   10.6730 C   0  0  0  0  0  0  0  0  0  0  0  0
  -22.1107    5.7255   11.9552 C   0  0  0  0  0  0  0  0  0  0  0  0
  -22.9001    4.3848   11.7692 C   0  0  0  0  0  0  0  0  0  0  0  0
  -22.4512    3.2059   12.5531 N   0  3  0  0  0  0  0  0  0  0  0  0
  -22.4172    3.5016   14.0087 C   0  0  0  0  0  0  0  0  0  0  0  0
  -21.1197    2.7148   12.0552 C   0  0  0  0  0  0  0  0  0  0  0  0
  -24.2230   10.2823   13.6730 C   0  0  0  0  0  0  0  0  0  0  0  0
  -22.7869   10.2641   14.1374 C   0  0  0  0  0  0  0  0  0  0  0  0
  -24.9980   11.0636   14.2013 O   0  0  0  0  0  0  0  0  0  0  0  0
  1  7  1  0  0  0  0
  1  9  1  0  0  0  0
  2  8  1  0  0  0  0
  2 14  1  0  0  0  0
  2 15  1  0  0  0  0
  3  4  2  0  0  0  0
  3  8  1  0  0  0  0
  4  5  1  0  0  0  0
  4 21  1  0  0  0  0
  5  6  2  0  0  0  0
  6  7  1  0  0  0  0
  7  8  2  0  0  0  0
  9 10  2  0  0  0  0
  9 14  1  0  0  0  0
 10 11  1  0  0  0  0
 11 12  2  0  0  0  0
 12 13  1  0  0  0  0
 13 14  2  0  0  0  0
 15 16  1  0  0  0  0
 16 17  1  0  0  0  0
 17 18  1  0  0  0  0
 18 19  1  0  0  0  0
 18 20  1  0  0  0  0
 21 22  1  0  0  0  0
 21 23  2  0  0  0  0
M  CHG  1  18   1
M  END
>  <CHROM.1>
66.56821044,-1.96249256,55.68830950,149.45454199,175.37114290,-23.88163218
7.22116482,10.75244183,2.64921030,-1.07393227,1.28114669

>  <Name>


>  <RI>
0

>  <Rbt.Current_Directory>
/home/itssahil/PROJECTS/Mol_Feturizer/New_Systems/rnas/1lvj

>  <Rbt.Executable>
rbdock ($Id: //depot/dev/client3/rdock/2013.1/src/exe/rbdock.cxx#4 $)

>  <Rbt.Library>
libRbt.so (2013.1, Build901 2013/11/27)

>  <Rbt.Parameter_File>
/export/apps/rDock/src/rDock_2013.1_src/data/scripts/dock_solv.prm

>  <Rbt.Receptor>
prm/pocket_docking_7.prm

>  <SCORE>
-34.627

>  <SCORE.INTER>
-30.7213

>  <SCORE.INTER.CONST>
1

>  <SCORE.INTER.POLAR>
-0.697372

>  <SCORE.INTER.ROT>
5

>  <SCORE.INTER.SOLV>
13.949

>  <SCORE.INTER.VDW>
-29.7393

>  <SCORE.INTER.norm>
-1.33571

>  <SCORE.INTRA>
-3.90574

>  <SCORE.INTRA.DIHEDRAL>
-4.37204

>  <SCORE.INTRA.DIHEDRAL.0>
8.06479

>  <SCORE.INTRA.POLAR>
0

>  <SCORE.INTRA.POLAR.0>
0

>  <SCORE.INTRA.REPUL>
0

>  <SCORE.INTRA.REPUL.0>
0

>  <SCORE.INTRA.SOLV>
-0.500628

>  <SCORE.INTRA.SOLV.lig_0>
-29.8054

>  <SCORE.INTRA.VDW>
-1.46941

>  <SCORE.INTRA.VDW.0>
2.61447

>  <SCORE.INTRA.norm>
-0.169815

>  <SCORE.RESTR>
0

>  <SCORE.RESTR.CAVITY>
0

>  <SCORE.RESTR.norm>
0

>  <SCORE.SYSTEM>
0

>  <SCORE.SYSTEM.CONST>
0

>  <SCORE.SYSTEM.DIHEDRAL>
0

>  <SCORE.SYSTEM.SOLV>
0

>  <SCORE.SYSTEM.norm>
0

>  <SCORE.heavy>
23

>  <SCORE.norm>
-1.50552

>  <RMSD>
5.754

$$$$

 OpenBabel11021811403D
libRbt.so/2013.1/901 2013/11/27
 23 25  0  0  0  0  0  0  0  0999 V2000
  -22.6789    6.5778   11.7778 S   0  0  0  0  0  0  0  0  0  0  0  0
  -24.8669    7.9581   10.3024 N   0  0  0  0  0  0  0  0  0  0  0  0
  -23.7049    8.1878    8.2022 C   0  0  0  0  0  0  0  0  0  0  0  0
  -22.5501    7.9649    7.4406 C   0  0  0  0  0  0  0  0  0  0  0  0
  -21.4534    7.3191    8.0032 C   0  0  0  0  0  0  0  0  0  0  0  0
  -21.5012    6.8972    9.3274 C   0  0  0  0  0  0  0  0  0  0  0  0
  -22.6427    7.1156   10.0945 C   0  0  0  0  0  0  0  0  0  0  0  0
  -23.7524    7.7620    9.5371 C   0  0  0  0  0  0  0  0  0  0  0  0
  -23.5316    8.0379   12.2837 C   0  0  0  0  0  0  0  0  0  0  0  0
  -23.1992    8.6612   13.4901 C   0  0  0  0  0  0  0  0  0  0  0  0
  -23.8804    9.8145   13.8895 C   0  0  0  0  0  0  0  0  0  0  0  0
  -24.8954   10.3387   13.0825 C   0  0  0  0  0  0  0  0  0  0  0  0
  -25.2227    9.7111   11.8800 C   0  0  0  0  0  0  0  0  0  0  0  0
  -24.5455    8.5681   11.4778 C   0  0  0  0  0  0  0  0  0  0  0  0
  -26.1696    8.2617    9.6599 C   0  0  0  0  0  0  0  0  0  0  0  0
  -26.8486    7.1110    8.8445 C   0  0  0  0  0  0  0  0  0  0  0  0
  -26.0268    6.6689    7.5858 C   0  0  0  0  0  0  0  0  0  0  0  0
  -26.3959    7.2657    6.2769 N   0  3  0  0  0  0  0  0  0  0  0  0
  -27.6831    6.7199    5.7740 C   0  0  0  0  0  0  0  0  0  0  0  0
  -25.2865    7.0801    5.2785 C   0  0  0  0  0  0  0  0  0  0  0  0
  -22.4841    8.4245    6.0120 C   0  0  0  0  0  0  0  0  0  0  0  0
  -21.5034    7.8346    5.0276 C   0  0  0  0  0  0  0  0  0  0  0  0
  -23.2836    9.2562    5.6129 O   0  0  0  0  0  0  0  0  0  0  0  0
  1  7  1  0  0  0  0
  1  9  1  0  0  0  0
  2  8  1  0  0  0  0
  2 14  1  0  0  0  0
  2 15  1  0  0  0  0
  3  4  2  0  0  0  0
  3  8  1  0  0  0  0
  4  5  1  0  0  0  0
  4 21  1  0  0  0  0
  5  6  2  0  0  0  0
  6  7  1  0  0  0  0
  7  8  2  0  0  0  0
  9 10  2  0  0  0  0
  9 14  1  0  0  0  0
 10 11  1  0  0  0  0
 11 12  2  0  0  0  0
 12 13  1  0  0  0  0
 13 14  2  0  0  0  0
 15 16  1  0  0  0  0
 16 17  1  0  0  0  0
 17 18  1  0  0  0  0
 18 19  1  0  0  0  0
 18 20  1  0  0  0  0
 21 22  1  0  0  0  0
 21 23  2  0  0  0  0
M  CHG  1  18   1
M  END
>  <CHROM.1>
69.23102392,-159.24625440,-64.45751296,-96.11869972,47.53697700,-24.06868625
7.88860031,9.19304126,-1.46114732,0.02290898,-1.72388827

>  <Name>


>  <RI>
0

>  <Rbt.Current_Directory>
/home/itssahil/PROJECTS/Mol_Feturizer/New_Systems/rnas/1lvj

>  <Rbt.Executable>
rbdock ($Id: //depot/dev/client3/rdock/2013.1/src/exe/rbdock.cxx#4 $)

>  <Rbt.Library>
libRbt.so (2013.1, Build901 2013/11/27)

>  <Rbt.Parameter_File>
/export/apps/rDock/src/rDock_2013.1_src/data/scripts/dock_solv.prm

>  <Rbt.Receptor>
prm/pocket_docking_8.prm

>  <SCORE>
-25.5446

>  <SCORE.INTER>
-24.2298

>  <SCORE.INTER.CONST>
1

>  <SCORE.INTER.POLAR>
-1.81501

>  <SCORE.INTER.ROT>
5

>  <SCORE.INTER.SOLV>
21.3536

>  <SCORE.INTER.VDW>
-24.1544

>  <SCORE.INTER.norm>
-1.05347

>  <SCORE.INTRA>
-1.31479

>  <SCORE.INTRA.DIHEDRAL>
-1.76195

>  <SCORE.INTRA.DIHEDRAL.0>
8.06479

>  <SCORE.INTRA.POLAR>
0

>  <SCORE.INTRA.POLAR.0>
0

>  <SCORE.INTRA.REPUL>
0

>  <SCORE.INTRA.REPUL.0>
0

>  <SCORE.INTRA.SOLV>
3.50989

>  <SCORE.INTRA.SOLV.lig_0>
-29.8054

>  <SCORE.INTRA.VDW>
-2.18876

>  <SCORE.INTRA.VDW.0>
2.61447

>  <SCORE.INTRA.norm>
-0.0571648

>  <SCORE.RESTR>
0

>  <SCORE.RESTR.CAVITY>
0

>  <SCORE.RESTR.norm>
0

>  <SCORE.SYSTEM>
0

>  <SCORE.SYSTEM.CONST>
0

>  <SCORE.SYSTEM.DIHEDRAL>
0

>  <SCORE.SYSTEM.SOLV>
0

>  <SCORE.SYSTEM.norm>
0

>  <SCORE.heavy>
23

>  <SCORE.norm>
-1.11063

>  <RMSD>
5.806

$$$$

 OpenBabel11021811403D
libRbt.so/2013.1/901 2013/11/27
 23 25  0  0  0  0  0  0  0  0999 V2000
  -25.7957    7.0567    8.9137 S   0  0  0  0  0  0  0  0  0  0  0  0
  -22.9919    6.9880    9.9154 N   0  0  0  0  0  0  0  0  0  0  0  0
  -23.3133    8.4718   11.7886 C   0  0  0  0  0  0  0  0  0  0  0  0
  -24.1748    9.2750   12.5475 C   0  0  0  0  0  0  0  0  0  0  0  0
  -25.5168    9.3890   12.1972 C   0  0  0  0  0  0  0  0  0  0  0  0
  -26.0043    8.7073   11.0875 C   0  0  0  0  0  0  0  0  0  0  0  0
  -25.1566    7.9083   10.3245 C   0  0  0  0  0  0  0  0  0  0  0  0
  -23.8055    7.7847   10.6701 C   0  0  0  0  0  0  0  0  0  0  0  0
  -24.3361    7.3933    7.9804 C   0  0  0  0  0  0  0  0  0  0  0  0
  -24.4317    7.7305    6.6271 C   0  0  0  0  0  0  0  0  0  0  0  0
  -23.2730    7.9914    5.8902 C   0  0  0  0  0  0  0  0  0  0  0  0
  -22.0211    7.9101    6.5088 C   0  0  0  0  0  0  0  0  0  0  0  0
  -21.9328    7.5723    7.8598 C   0  0  0  0  0  0  0  0  0  0  0  0
  -23.0815    7.3168    8.5959 C   0  0  0  0  0  0  0  0  0  0  0  0
  -21.6936    6.5185   10.4595 C   0  0  0  0  0  0  0  0  0  0  0  0
  -21.7014    5.9155   11.9039 C   0  0  0  0  0  0  0  0  0  0  0  0
  -22.0384    4.3857   11.9398 C   0  0  0  0  0  0  0  0  0  0  0  0
  -21.0762    3.4835   12.6225 N   0  3  0  0  0  0  0  0  0  0  0  0
  -19.7661    3.4556   11.9221 C   0  0  0  0  0  0  0  0  0  0  0  0
  -21.6566    2.1038   12.7693 C   0  0  0  0  0  0  0  0  0  0  0  0
  -23.6570   10.0230   13.7428 C   0  0  0  0  0  0  0  0  0  0  0  0
  -24.5447   10.9229   14.5679 C   0  0  0  0  0  0  0  0  0  0  0  0
  -22.5012    9.8569   14.0987 O   0  0  0  0  0  0  0  0  0  0  0  0
  1  7  1  0  0  0  0
  1  9  1  0  0  0  0
  2  8  1  0  0  0  0
  2 14  1  0  0  0  0
  2 15  1  0  0  0  0
  3  4  2  0  0  0  0
  3  8  1  0  0  0  0
  4  5  1  0  0  0  0
  4 21  1  0  0  0  0
  5  6  2  0  0  0  0
  6  7  1  0  0  0  0
  7  8  2  0  0  0  0
  9 10  2  0  0  0  0
  9 14  1  0  0  0  0
 10 11  1  0  0  0  0
 11 12  2  0  0  0  0
 12 13  1  0  0  0  0
 13 14  2  0  0  0  0
 15 16  1  0  0  0  0
 16 17  1  0  0  0  0
 17 18  1  0  0  0  0
 18 19  1  0  0  0  0
 18 20  1  0  0  0  0
 21 22  1  0  0  0  0
 21 23  2  0  0  0  0
M  CHG  1  18   1
M  END
>  <CHROM.1>
47.72509239,178.59436303,86.31235966,125.35006876,55.25390120,-23.31451933
7.22913342,10.64484669,-2.84276156,-0.98446119,1.31634873

>  <Name>


>  <RI>
0

>  <Rbt.Current_Directory>
/home/itssahil/PROJECTS/Mol_Feturizer/New_Systems/rnas/1lvj

>  <Rbt.Executable>
rbdock ($Id: //depot/dev/client3/rdock/2013.1/src/exe/rbdock.cxx#4 $)

>  <Rbt.Library>
libRbt.so (2013.1, Build901 2013/11/27)

>  <Rbt.Parameter_File>
/export/apps/rDock/src/rDock_2013.1_src/data/scripts/dock_solv.prm

>  <Rbt.Receptor>
prm/pocket_docking_6.prm

>  <SCORE>
-29.3687

>  <SCORE.INTER>
-27.8193

>  <SCORE.INTER.CONST>
1

>  <SCORE.INTER.POLAR>
0

>  <SCORE.INTER.ROT>
5

>  <SCORE.INTER.SOLV>
8.25636

>  <SCORE.INTER.VDW>
-28.2316

>  <SCORE.INTER.norm>
-1.20953

>  <SCORE.INTRA>
-1.54942

>  <SCORE.INTRA.DIHEDRAL>
-0.0562363

>  <SCORE.INTRA.DIHEDRAL.0>
8.06479

>  <SCORE.INTRA.POLAR>
0

>  <SCORE.INTRA.POLAR.0>
0

>  <SCORE.INTRA.REPUL>
0

>  <SCORE.INTRA.REPUL.0>
0

>  <SCORE.INTRA.SOLV>
0.423287

>  <SCORE.INTRA.SOLV.lig_0>
-29.8054

>  <SCORE.INTRA.VDW>
-1.73294

>  <SCORE.INTRA.VDW.0>
2.61447

>  <SCORE.INTRA.norm>
-0.067366

>  <SCORE.RESTR>
0

>  <SCORE.RESTR.CAVITY>
0

>  <SCORE.RESTR.norm>
0

>  <SCORE.SYSTEM>
0

>  <SCORE.SYSTEM.CONST>
0

>  <SCORE.SYSTEM.DIHEDRAL>
0

>  <SCORE.SYSTEM.SOLV>
0

>  <SCORE.SYSTEM.norm>
0

>  <SCORE.heavy>
23

>  <SCORE.norm>
-1.2769

>  <RMSD>
5.827

$$$$

 OpenBabel11021811403D
libRbt.so/2013.1/901 2013/11/27
 23 25  0  0  0  0  0  0  0  0999 V2000
  -25.5425    8.5227    9.6995 S   0  0  0  0  0  0  0  0  0  0  0  0
  -23.9863    8.2950    7.1705 N   0  0  0  0  0  0  0  0  0  0  0  0
  -25.5081    6.8190    6.0217 C   0  0  0  0  0  0  0  0  0  0  0  0
  -26.7064    6.0929    6.0261 C   0  0  0  0  0  0  0  0  0  0  0  0
  -27.5375    6.1190    7.1420 C   0  0  0  0  0  0  0  0  0  0  0  0
  -27.1759    6.8645    8.2588 C   0  0  0  0  0  0  0  0  0  0  0  0
  -25.9861    7.5880    8.2665 C   0  0  0  0  0  0  0  0  0  0  0  0
  -25.1443    7.5706    7.1479 C   0  0  0  0  0  0  0  0  0  0  0  0
  -23.8468    8.0583    9.5453 C   0  0  0  0  0  0  0  0  0  0  0  0
  -23.0967    7.7553   10.6854 C   0  0  0  0  0  0  0  0  0  0  0  0
  -21.7526    7.3928   10.5593 C   0  0  0  0  0  0  0  0  0  0  0  0
  -21.1617    7.3386    9.2928 C   0  0  0  0  0  0  0  0  0  0  0  0
  -21.9160    7.6430    8.1590 C   0  0  0  0  0  0  0  0  0  0  0  0
  -23.2521    7.9991    8.2798 C   0  0  0  0  0  0  0  0  0  0  0  0
  -23.2867    8.6237    5.9038 C   0  0  0  0  0  0  0  0  0  0  0  0
  -21.7226    8.5669    5.9169 C   0  0  0  0  0  0  0  0  0  0  0  0
  -21.0954    8.3121    4.5038 C   0  0  0  0  0  0  0  0  0  0  0  0
  -21.2602    6.9609    3.9098 N   0  3  0  0  0  0  0  0  0  0  0  0
  -20.3551    6.7635    2.7481 C   0  0  0  0  0  0  0  0  0  0  0  0
  -22.6976    6.7162    3.5413 C   0  0  0  0  0  0  0  0  0  0  0  0
  -27.1024    5.2769    4.8287 C   0  0  0  0  0  0  0  0  0  0  0  0
  -28.4988    4.7280    4.6626 C   0  0  0  0  0  0  0  0  0  0  0  0
  -26.2942    5.0988    3.9314 O   0  0  0  0  0  0  0  0  0  0  0  0
  1  7  1  0  0  0  0
  1  9  1  0  0  0  0
  2  8  1  0  0  0  0
  2 14  1  0  0  0  0
  2 15  1  0  0  0  0
  3  4  2  0  0  0  0
  3  8  1  0  0  0  0
  4  5  1  0  0  0  0
  4 21  1  0  0  0  0
  5  6  2  0  0  0  0
  6  7  1  0  0  0  0
  7  8  2  0  0  0  0
  9 10  2  0  0  0  0
  9 14  1  0  0  0  0
 10 11  1  0  0  0  0
 11 12  2  0  0  0  0
 12 13  1  0  0  0  0
 13 14  2  0  0  0  0
 15 16  1  0  0  0  0
 16 17  1  0  0  0  0
 17 18  1  0  0  0  0
 18 19  1  0  0  0  0
 18 20  1  0  0  0  0
 21 22  1  0  0  0  0
 21 23  2  0  0  0  0
M  CHG  1  18   1
M  END
>  <CHROM.1>
-141.10444342,-166.45363656,155.17631602,-70.87573468,-46.27566825,-24.16385450
7.23084883,6.83936357,2.77829809,-0.26868849,-1.85378915

>  <Name>


>  <RI>
0

>  <Rbt.Current_Directory>
/home/itssahil/PROJECTS/Mol_Feturizer/New_Systems/rnas/1lvj

>  <Rbt.Executable>
rbdock ($Id: //depot/dev/client3/rdock/2013.1/src/exe/rbdock.cxx#4 $)

>  <Rbt.Library>
libRbt.so (2013.1, Build901 2013/11/27)

>  <Rbt.Parameter_File>
/export/apps/rDock/src/rDock_2013.1_src/data/scripts/dock_solv.prm

>  <Rbt.Receptor>
prm/blind_docking_100.prm

>  <SCORE>
25.6058

>  <SCORE.INTER>
14.4453

>  <SCORE.INTER.CONST>
1

>  <SCORE.INTER.POLAR>
0

>  <SCORE.INTER.ROT>
5

>  <SCORE.INTER.SOLV>
20.1418

>  <SCORE.INTER.VDW>
-4.01705

>  <SCORE.INTER.norm>
0.628058

>  <SCORE.INTRA>
11.041

>  <SCORE.INTRA.DIHEDRAL>
-2.62011

>  <SCORE.INTRA.DIHEDRAL.0>
8.06479

>  <SCORE.INTRA.POLAR>
0

>  <SCORE.INTRA.POLAR.0>
0

>  <SCORE.INTRA.REPUL>
0

>  <SCORE.INTRA.REPUL.0>
0

>  <SCORE.INTRA.SOLV>
1.67953

>  <SCORE.INTRA.SOLV.lig_0>
-29.8054

>  <SCORE.INTRA.VDW>
11.5113

>  <SCORE.INTRA.VDW.0>
2.61447

>  <SCORE.INTRA.norm>
0.480042

>  <SCORE.RESTR>
0.119521

>  <SCORE.RESTR.CAVITY>
0.119521

>  <SCORE.RESTR.norm>
0.00519657

>  <SCORE.SYSTEM>
0

>  <SCORE.SYSTEM.CONST>
0

>  <SCORE.SYSTEM.DIHEDRAL>
0

>  <SCORE.SYSTEM.SOLV>
0

>  <SCORE.SYSTEM.norm>
0

>  <SCORE.heavy>
23

>  <SCORE.norm>
1.1133

>  <RMSD>
5.881

$$$$

 OpenBabel11021811403D
libRbt.so/2013.1/901 2013/11/27
 23 25  0  0  0  0  0  0  0  0999 V2000
  -24.5824    8.6415   12.7899 S   0  0  0  0  0  0  0  0  0  0  0  0
  -24.5515    7.3066   10.1278 N   0  0  0  0  0  0  0  0  0  0  0  0
  -26.2323    5.6470   10.6124 C   0  0  0  0  0  0  0  0  0  0  0  0
  -27.1428    5.0934   11.5221 C   0  0  0  0  0  0  0  0  0  0  0  0
  -27.2683    5.6274   12.8010 C   0  0  0  0  0  0  0  0  0  0  0  0
  -26.4843    6.7117   13.1798 C   0  0  0  0  0  0  0  0  0  0  0  0
  -25.5742    7.2685   12.2848 C   0  0  0  0  0  0  0  0  0  0  0  0
  -25.4423    6.7403   10.9950 C   0  0  0  0  0  0  0  0  0  0  0  0
  -23.1687    7.9998   11.9506 C   0  0  0  0  0  0  0  0  0  0  0  0
  -21.9027    8.0960   12.5356 C   0  0  0  0  0  0  0  0  0  0  0  0
  -20.7849    7.5910   11.8654 C   0  0  0  0  0  0  0  0  0  0  0  0
  -20.9365    6.9947   10.6093 C   0  0  0  0  0  0  0  0  0  0  0  0
  -22.2029    6.9026   10.0307 C   0  0  0  0  0  0  0  0  0  0  0  0
  -23.3159    7.3989   10.6952 C   0  0  0  0  0  0  0  0  0  0  0  0
  -24.6633    7.0512    8.6703 C   0  0  0  0  0  0  0  0  0  0  0  0
  -24.5024    8.2813    7.7158 C   0  0  0  0  0  0  0  0  0  0  0  0
  -23.0867    8.3741    7.0507 C   0  0  0  0  0  0  0  0  0  0  0  0
  -22.6746    7.2681    6.1492 N   0  3  0  0  0  0  0  0  0  0  0  0
  -21.3028    7.4808    5.6195 C   0  0  0  0  0  0  0  0  0  0  0  0
  -23.6756    7.0869    5.0414 C   0  0  0  0  0  0  0  0  0  0  0  0
  -27.9883    3.9164   11.1267 C   0  0  0  0  0  0  0  0  0  0  0  0
  -28.8889    3.2126   12.1127 C   0  0  0  0  0  0  0  0  0  0  0  0
  -27.9979    3.5501    9.9622 O   0  0  0  0  0  0  0  0  0  0  0  0
  1  7  1  0  0  0  0
  1  9  1  0  0  0  0
  2  8  1  0  0  0  0
  2 14  1  0  0  0  0
  2 15  1  0  0  0  0
  3  4  2  0  0  0  0
  3  8  1  0  0  0  0
  4  5  1  0  0  0  0
  4 21  1  0  0  0  0
  5  6  2  0  0  0  0
  6  7  1  0  0  0  0
  7  8  2  0  0  0  0
  9 10  2  0  0  0  0
  9 14  1  0  0  0  0
 10 11  1  0  0  0  0
 11 12  2  0  0  0  0
 12 13  1  0  0  0  0
 13 14  2  0  0  0  0
 15 16  1  0  0  0  0
 16 17  1  0  0  0  0
 17 18  1  0  0  0  0
 18 19  1  0  0  0  0
 18 20  1  0  0  0  0
 21 22  1  0  0  0  0
 21 23  2  0  0  0  0
M  CHG  1  18   1
M  END
>  <CHROM.1>
135.70085725,174.37056437,101.08981803,62.78932107,-58.79994637,-24.54138747
6.79473841,10.26586920,-2.53569134,-0.57268234,-1.72404335

>  <Name>


>  <RI>
0

>  <Rbt.Current_Directory>
/home/itssahil/PROJECTS/Mol_Feturizer/New_Systems/rnas/1lvj

>  <Rbt.Executable>
rbdock ($Id: //depot/dev/client3/rdock/2013.1/src/exe/rbdock.cxx#4 $)

>  <Rbt.Library>
libRbt.so (2013.1, Build901 2013/11/27)

>  <Rbt.Parameter_File>
/export/apps/rDock/src/rDock_2013.1_src/data/scripts/dock_solv.prm

>  <Rbt.Receptor>
prm/pocket_docking_3.prm

>  <SCORE>
-23.5267

>  <SCORE.INTER>
-24.2307

>  <SCORE.INTER.CONST>
1

>  <SCORE.INTER.POLAR>
-1.40712

>  <SCORE.INTER.ROT>
5

>  <SCORE.INTER.SOLV>
14.4125

>  <SCORE.INTER.VDW>
-23.2009

>  <SCORE.INTER.norm>
-1.05351

>  <SCORE.INTRA>
-2.21078

>  <SCORE.INTRA.DIHEDRAL>
-2.18716

>  <SCORE.INTRA.DIHEDRAL.0>
8.06479

>  <SCORE.INTRA.POLAR>
0

>  <SCORE.INTRA.POLAR.0>
0

>  <SCORE.INTRA.REPUL>
0

>  <SCORE.INTRA.REPUL.0>
0

>  <SCORE.INTRA.SOLV>
2.64401

>  <SCORE.INTRA.SOLV.lig_0>
-29.8054

>  <SCORE.INTRA.VDW>
-2.4392

>  <SCORE.INTRA.VDW.0>
2.61447

>  <SCORE.INTRA.norm>
-0.0961208

>  <SCORE.RESTR>
2.91477

>  <SCORE.RESTR.CAVITY>
2.91477

>  <SCORE.RESTR.norm>
0.126729

>  <SCORE.SYSTEM>
0

>  <SCORE.SYSTEM.CONST>
0

>  <SCORE.SYSTEM.DIHEDRAL>
0

>  <SCORE.SYSTEM.SOLV>
0

>  <SCORE.SYSTEM.norm>
0

>  <SCORE.heavy>
23

>  <SCORE.norm>
-1.0229

>  <RMSD>
5.896

$$$$

 OpenBabel11021811403D
libRbt.so/2013.1/901 2013/11/27
 23 25  0  0  0  0  0  0  0  0999 V2000
  -25.9357    6.7538    8.6204 S   0  0  0  0  0  0  0  0  0  0  0  0
  -23.2461    7.1108    9.8484 N   0  0  0  0  0  0  0  0  0  0  0  0
  -23.9362    8.5562   11.6509 C   0  0  0  0  0  0  0  0  0  0  0  0
  -24.9661    9.2342   12.3163 C   0  0  0  0  0  0  0  0  0  0  0  0
  -26.2760    9.1453   11.8551 C   0  0  0  0  0  0  0  0  0  0  0  0
  -26.5641    8.3847   10.7272 C   0  0  0  0  0  0  0  0  0  0  0  0
  -25.5481    7.7086   10.0564 C   0  0  0  0  0  0  0  0  0  0  0  0
  -24.2274    7.7894   10.5138 C   0  0  0  0  0  0  0  0  0  0  0  0
  -24.4670    7.2886    7.8008 C   0  0  0  0  0  0  0  0  0  0  0  0
  -24.4961    7.5900    6.4360 C   0  0  0  0  0  0  0  0  0  0  0  0
  -23.3296    8.0084    5.7895 C   0  0  0  0  0  0  0  0  0  0  0  0
  -22.1359    8.1200    6.5099 C   0  0  0  0  0  0  0  0  0  0  0  0
  -22.1136    7.8168    7.8717 C   0  0  0  0  0  0  0  0  0  0  0  0
  -23.2710    7.4053    8.5181 C   0  0  0  0  0  0  0  0  0  0  0  0
  -21.9439    6.8443   10.5083 C   0  0  0  0  0  0  0  0  0  0  0  0
  -21.8237    5.5259   11.3434 C   0  0  0  0  0  0  0  0  0  0  0  0
  -22.7866    5.4795   12.5787 C   0  0  0  0  0  0  0  0  0  0  0  0
  -22.2308    5.8651   13.9009 N   0  3  0  0  0  0  0  0  0  0  0  0
  -21.7322    7.2647   13.8940 C   0  0  0  0  0  0  0  0  0  0  0  0
  -21.1622    4.8972   14.3288 C   0  0  0  0  0  0  0  0  0  0  0  0
  -24.6650   10.0660   13.5303 C   0  0  0  0  0  0  0  0  0  0  0  0
  -23.2520   10.4231   13.9236 C   0  0  0  0  0  0  0  0  0  0  0  0
  -25.5871   10.5199   14.1891 O   0  0  0  0  0  0  0  0  0  0  0  0
  1  7  1  0  0  0  0
  1  9  1  0  0  0  0
  2  8  1  0  0  0  0
  2 14  1  0  0  0  0
  2 15  1  0  0  0  0
  3  4  2  0  0  0  0
  3  8  1  0  0  0  0
  4  5  1  0  0  0  0
  4 21  1  0  0  0  0
  5  6  2  0  0  0  0
  6  7  1  0  0  0  0
  7  8  2  0  0  0  0
  9 10  2  0  0  0  0
  9 14  1  0  0  0  0
 10 11  1  0  0  0  0
 11 12  2  0  0  0  0
 12 13  1  0  0  0  0
 13 14  2  0  0  0  0
 15 16  1  0  0  0  0
 16 17  1  0  0  0  0
 17 18  1  0  0  0  0
 18 19  1  0  0  0  0
 18 20  1  0  0  0  0
 21 22  1  0  0  0  0
 21 23  2  0  0  0  0
M  CHG  1  18   1
M  END
>  <CHROM.1>
88.83410509,11.94702740,-63.44257286,-97.08028589,-179.67569324,-23.80306054
7.65571704,10.72780073,1.73701437,0.70574663,-1.74001009

>  <Name>


>  <RI>
0

>  <Rbt.Current_Directory>
/home/itssahil/PROJECTS/Mol_Feturizer/New_Systems/rnas/1lvj

>  <Rbt.Executable>
rbdock ($Id: //depot/dev/client3/rdock/2013.1/src/exe/rbdock.cxx#4 $)

>  <Rbt.Library>
libRbt.so (2013.1, Build901 2013/11/27)

>  <Rbt.Parameter_File>
/export/apps/rDock/src/rDock_2013.1_src/data/scripts/dock_solv.prm

>  <Rbt.Receptor>
prm/pocket_docking_8.prm

>  <SCORE>
-30.3455

>  <SCORE.INTER>
-26.804

>  <SCORE.INTER.CONST>
1

>  <SCORE.INTER.POLAR>
0

>  <SCORE.INTER.ROT>
5

>  <SCORE.INTER.SOLV>
8.57624

>  <SCORE.INTER.VDW>
-27.6614

>  <SCORE.INTER.norm>
-1.16539

>  <SCORE.INTRA>
-3.54153

>  <SCORE.INTRA.DIHEDRAL>
-2.11131

>  <SCORE.INTRA.DIHEDRAL.0>
8.06479

>  <SCORE.INTRA.POLAR>
0

>  <SCORE.INTRA.POLAR.0>
0

>  <SCORE.INTRA.REPUL>
0

>  <SCORE.INTRA.REPUL.0>
0

>  <SCORE.INTRA.SOLV>
-0.318104

>  <SCORE.INTRA.SOLV.lig_0>
-29.8054

>  <SCORE.INTRA.VDW>
-2.32682

>  <SCORE.INTRA.VDW.0>
2.61447

>  <SCORE.INTRA.norm>
-0.15398

>  <SCORE.RESTR>
0

>  <SCORE.RESTR.CAVITY>
0

>  <SCORE.RESTR.norm>
0

>  <SCORE.SYSTEM>
0

>  <SCORE.SYSTEM.CONST>
0

>  <SCORE.SYSTEM.DIHEDRAL>
0

>  <SCORE.SYSTEM.SOLV>
0

>  <SCORE.SYSTEM.norm>
0

>  <SCORE.heavy>
23

>  <SCORE.norm>
-1.31937

>  <RMSD>
5.938

$$$$

 OpenBabel11021811403D
libRbt.so/2013.1/901 2013/11/27
 23 25  0  0  0  0  0  0  0  0999 V2000
  -25.9677    6.7971    8.2583 S   0  0  0  0  0  0  0  0  0  0  0  0
  -23.3472    6.8830    9.6707 N   0  0  0  0  0  0  0  0  0  0  0  0
  -24.0801    8.1742   11.5705 C   0  0  0  0  0  0  0  0  0  0  0  0
  -25.1165    8.8362   12.2420 C   0  0  0  0  0  0  0  0  0  0  0  0
  -26.3974    8.8650   11.6989 C   0  0  0  0  0  0  0  0  0  0  0  0
  -26.6495    8.2387   10.4832 C   0  0  0  0  0  0  0  0  0  0  0  0
  -25.6266    7.5800    9.8058 C   0  0  0  0  0  0  0  0  0  0  0  0
  -24.3351    7.5428   10.3450 C   0  0  0  0  0  0  0  0  0  0  0  0
  -24.4263    7.3319    7.5852 C   0  0  0  0  0  0  0  0  0  0  0  0
  -24.3547    7.7706    6.2598 C   0  0  0  0  0  0  0  0  0  0  0  0
  -23.1310    8.1886    5.7291 C   0  0  0  0  0  0  0  0  0  0  0  0
  -21.9812    8.1624    6.5251 C   0  0  0  0  0  0  0  0  0  0  0  0
  -22.0596    7.7227    7.8471 C   0  0  0  0  0  0  0  0  0  0  0  0
  -23.2738    7.3110    8.3790 C   0  0  0  0  0  0  0  0  0  0  0  0
  -22.1035    6.4814   10.3737 C   0  0  0  0  0  0  0  0  0  0  0  0
  -22.2546    5.5141   11.5949 C   0  0  0  0  0  0  0  0  0  0  0  0
  -21.3590    5.9091   12.8185 C   0  0  0  0  0  0  0  0  0  0  0  0
  -21.5296    5.1369   14.0756 N   0  3  0  0  0  0  0  0  0  0  0  0
  -22.8932    5.3104   14.6396 C   0  0  0  0  0  0  0  0  0  0  0  0
  -20.4655    5.5060   15.0724 C   0  0  0  0  0  0  0  0  0  0  0  0
  -24.8534    9.5238   13.5514 C   0  0  0  0  0  0  0  0  0  0  0  0
  -25.9038    9.6131   14.6319 C   0  0  0  0  0  0  0  0  0  0  0  0
  -23.7416    9.9736   13.7789 O   0  0  0  0  0  0  0  0  0  0  0  0
  1  7  1  0  0  0  0
  1  9  1  0  0  0  0
  2  8  1  0  0  0  0
  2 14  1  0  0  0  0
  2 15  1  0  0  0  0
  3  4  2  0  0  0  0
  3  8  1  0  0  0  0
  4  5  1  0  0  0  0
  4 21  1  0  0  0  0
  5  6  2  0  0  0  0
  6  7  1  0  0  0  0
  7  8  2  0  0  0  0
  9 10  2  0  0  0  0
  9 14  1  0  0  0  0
 10 11  1  0  0  0  0
 11 12  2  0  0  0  0
 12 13  1  0  0  0  0
 13 14  2  0  0  0  0
 15 16  1  0  0  0  0
 16 17  1  0  0  0  0
 17 18  1  0  0  0  0
 18 19  1  0  0  0  0
 18 20  1  0  0  0  0
 21 22  1  0  0  0  0
 21 23  2  0  0  0  0
M  CHG  1  18   1
M  END
>  <CHROM.1>
59.89989544,-147.61501910,-137.21187724,173.97111467,56.53539055,-23.80274262
7.42078730,10.72691058,1.80386584,0.59789798,-1.60368533

>  <Name>


>  <RI>
0

>  <Rbt.Current_Directory>
/home/itssahil/PROJECTS/Mol_Feturizer/New_Systems/rnas/1lvj

>  <Rbt.Executable>
rbdock ($Id: //depot/dev/client3/rdock/2013.1/src/exe/rbdock.cxx#4 $)

>  <Rbt.Library>
libRbt.so (2013.1, Build901 2013/11/27)

>  <Rbt.Parameter_File>
/export/apps/rDock/src/rDock_2013.1_src/data/scripts/dock_solv.prm

>  <Rbt.Receptor>
prm/pocket_docking_5.prm

>  <SCORE>
-26.8679

>  <SCORE.INTER>
-24.3378

>  <SCORE.INTER.CONST>
1

>  <SCORE.INTER.POLAR>
0

>  <SCORE.INTER.ROT>
5

>  <SCORE.INTER.SOLV>
7.85386

>  <SCORE.INTER.VDW>
-25.7765

>  <SCORE.INTER.norm>
-1.05817

>  <SCORE.INTRA>
-2.54623

>  <SCORE.INTRA.DIHEDRAL>
0.359344

>  <SCORE.INTRA.DIHEDRAL.0>
8.06479

>  <SCORE.INTRA.POLAR>
0

>  <SCORE.INTRA.POLAR.0>
0

>  <SCORE.INTRA.REPUL>
0

>  <SCORE.INTRA.REPUL.0>
0

>  <SCORE.INTRA.SOLV>
0.278831

>  <SCORE.INTRA.SOLV.lig_0>
-29.8054

>  <SCORE.INTRA.VDW>
-2.86532

>  <SCORE.INTRA.VDW.0>
2.61447

>  <SCORE.INTRA.norm>
-0.110706

>  <SCORE.RESTR>
0.0161677

>  <SCORE.RESTR.CAVITY>
0.0161677

>  <SCORE.RESTR.norm>
0.000702944

>  <SCORE.SYSTEM>
0

>  <SCORE.SYSTEM.CONST>
0

>  <SCORE.SYSTEM.DIHEDRAL>
0

>  <SCORE.SYSTEM.SOLV>
0

>  <SCORE.SYSTEM.norm>
0

>  <SCORE.heavy>
23

>  <SCORE.norm>
-1.16817

>  <RMSD>
5.971

$$$$

 OpenBabel11021811403D
libRbt.so/2013.1/901 2013/11/27
 23 25  0  0  0  0  0  0  0  0999 V2000
  -23.0789    4.6999   11.5108 S   0  0  0  0  0  0  0  0  0  0  0  0
  -25.0223    6.9276   11.1509 N   0  0  0  0  0  0  0  0  0  0  0  0
  -23.9078    8.5221   12.5756 C   0  0  0  0  0  0  0  0  0  0  0  0
  -22.8316    8.8292   13.4186 C   0  0  0  0  0  0  0  0  0  0  0  0
  -21.8427    7.8820   13.6660 C   0  0  0  0  0  0  0  0  0  0  0  0
  -21.9245    6.6242   13.0785 C   0  0  0  0  0  0  0  0  0  0  0  0
  -22.9909    6.3071   12.2410 C   0  0  0  0  0  0  0  0  0  0  0  0
  -23.9895    7.2539   11.9834 C   0  0  0  0  0  0  0  0  0  0  0  0
  -24.8249    4.6234   11.7565 C   0  0  0  0  0  0  0  0  0  0  0  0
  -25.4244    3.4263   12.1586 C   0  0  0  0  0  0  0  0  0  0  0  0
  -26.8082    3.3686   12.3472 C   0  0  0  0  0  0  0  0  0  0  0  0
  -27.5889    4.5083   12.1288 C   0  0  0  0  0  0  0  0  0  0  0  0
  -26.9843    5.6998   11.7268 C   0  0  0  0  0  0  0  0  0  0  0  0
  -25.6099    5.7622   11.5427 C   0  0  0  0  0  0  0  0  0  0  0  0
  -25.8581    7.9938   10.5453 C   0  0  0  0  0  0  0  0  0  0  0  0
  -25.6332    8.3009    9.0270 C   0  0  0  0  0  0  0  0  0  0  0  0
  -26.1735    7.1785    8.0764 C   0  0  0  0  0  0  0  0  0  0  0  0
  -26.0586    7.4006    6.6124 N   0  3  0  0  0  0  0  0  0  0  0  0
  -26.8176    6.3787    5.8462 C   0  0  0  0  0  0  0  0  0  0  0  0
  -24.6142    7.4474    6.1957 C   0  0  0  0  0  0  0  0  0  0  0  0
  -22.7379   10.1816   14.0657 C   0  0  0  0  0  0  0  0  0  0  0  0
  -21.5508   10.5841   14.9068 C   0  0  0  0  0  0  0  0  0  0  0  0
  -23.6151   11.0055   13.8611 O   0  0  0  0  0  0  0  0  0  0  0  0
  1  7  1  0  0  0  0
  1  9  1  0  0  0  0
  2  8  1  0  0  0  0
  2 14  1  0  0  0  0
  2 15  1  0  0  0  0
  3  4  2  0  0  0  0
  3  8  1  0  0  0  0
  4  5  1  0  0  0  0
  4 21  1  0  0  0  0
  5  6  2  0  0  0  0
  6  7  1  0  0  0  0
  7  8  2  0  0  0  0
  9 10  2  0  0  0  0
  9 14  1  0  0  0  0
 10 11  1  0  0  0  0
 11 12  2  0  0  0  0
 12 13  1  0  0  0  0
 13 14  2  0  0  0  0
 15 16  1  0  0  0  0
 16 17  1  0  0  0  0
 17 18  1  0  0  0  0
 18 19  1  0  0  0  0
 18 20  1  0  0  0  0
 21 22  1  0  0  0  0
 21 23  2  0  0  0  0
M  CHG  1  18   1
M  END
>  <CHROM.1>
105.55154262,-175.90934358,71.83845259,177.54191189,-50.03552151,-24.53844112
6.92967390,11.24237023,0.23720175,1.03966811,2.40972815

>  <Name>


>  <RI>
0

>  <Rbt.Current_Directory>
/home/itssahil/PROJECTS/Mol_Feturizer/New_Systems/rnas/1lvj

>  <Rbt.Executable>
rbdock ($Id: //depot/dev/client3/rdock/2013.1/src/exe/rbdock.cxx#4 $)

>  <Rbt.Library>
libRbt.so (2013.1, Build901 2013/11/27)

>  <Rbt.Parameter_File>
/export/apps/rDock/src/rDock_2013.1_src/data/scripts/dock_solv.prm

>  <Rbt.Receptor>
prm/pocket_docking_6.prm

>  <SCORE>
-29.8739

>  <SCORE.INTER>
-25.0512

>  <SCORE.INTER.CONST>
1

>  <SCORE.INTER.POLAR>
-1.61555

>  <SCORE.INTER.ROT>
5

>  <SCORE.INTER.SOLV>
17.2761

>  <SCORE.INTER.VDW>
-24.0076

>  <SCORE.INTER.norm>
-1.08918

>  <SCORE.INTRA>
-4.82274

>  <SCORE.INTRA.DIHEDRAL>
-5.13233

>  <SCORE.INTRA.DIHEDRAL.0>
8.06479

>  <SCORE.INTRA.POLAR>
0

>  <SCORE.INTRA.POLAR.0>
0

>  <SCORE.INTRA.REPUL>
0

>  <SCORE.INTRA.REPUL.0>
0

>  <SCORE.INTRA.SOLV>
0.468702

>  <SCORE.INTRA.SOLV.lig_0>
-29.8054

>  <SCORE.INTRA.VDW>
-2.49093

>  <SCORE.INTRA.VDW.0>
2.61447

>  <SCORE.INTRA.norm>
-0.209684

>  <SCORE.RESTR>
0

>  <SCORE.RESTR.CAVITY>
0

>  <SCORE.RESTR.norm>
0

>  <SCORE.SYSTEM>
0

>  <SCORE.SYSTEM.CONST>
0

>  <SCORE.SYSTEM.DIHEDRAL>
0

>  <SCORE.SYSTEM.SOLV>
0

>  <SCORE.SYSTEM.norm>
0

>  <SCORE.heavy>
23

>  <SCORE.norm>
-1.29887

>  <RMSD>
5.983

$$$$

 OpenBabel11021811403D
libRbt.so/2013.1/901 2013/11/27
 23 25  0  0  0  0  0  0  0  0999 V2000
  -25.8714    6.7903    9.1642 S   0  0  0  0  0  0  0  0  0  0  0  0
  -23.0879    7.2040   10.1392 N   0  0  0  0  0  0  0  0  0  0  0  0
  -23.6222    8.7636   11.8987 C   0  0  0  0  0  0  0  0  0  0  0  0
  -24.5916    9.4890   12.6039 C   0  0  0  0  0  0  0  0  0  0  0  0
  -25.9357    9.3809   12.2599 C   0  0  0  0  0  0  0  0  0  0  0  0
  -26.3184    8.5536   11.2097 C   0  0  0  0  0  0  0  0  0  0  0  0
  -25.3634    7.8299   10.5003 C   0  0  0  0  0  0  0  0  0  0  0  0
  -24.0089    7.9296   10.8402 C   0  0  0  0  0  0  0  0  0  0  0  0
  -24.4753    7.2626    8.1932 C   0  0  0  0  0  0  0  0  0  0  0  0
  -24.6179    7.4787    6.8194 C   0  0  0  0  0  0  0  0  0  0  0  0
  -23.5087    7.8477    6.0531 C   0  0  0  0  0  0  0  0  0  0  0  0
  -22.2587    7.9955    6.6631 C   0  0  0  0  0  0  0  0  0  0  0  0
  -22.1233    7.7775    8.0346 C   0  0  0  0  0  0  0  0  0  0  0  0
  -23.2233    7.4152    8.7997 C   0  0  0  0  0  0  0  0  0  0  0  0
  -21.7357    6.9698   10.7037 C   0  0  0  0  0  0  0  0  0  0  0  0
  -21.6471    6.1202   12.0152 C   0  0  0  0  0  0  0  0  0  0  0  0
  -21.6250    4.5748   11.7575 C   0  0  0  0  0  0  0  0  0  0  0  0
  -21.4289    3.6831   12.9290 N   0  3  0  0  0  0  0  0  0  0  0  0
  -20.1026    3.9008   13.5622 C   0  0  0  0  0  0  0  0  0  0  0  0
  -21.6284    2.2444   12.5387 C   0  0  0  0  0  0  0  0  0  0  0  0
  -24.1885   10.3926   13.7342 C   0  0  0  0  0  0  0  0  0  0  0  0
  -25.1897   10.9127   14.7370 C   0  0  0  0  0  0  0  0  0  0  0  0
  -23.0098   10.6705   13.8876 O   0  0  0  0  0  0  0  0  0  0  0  0
  1  7  1  0  0  0  0
  1  9  1  0  0  0  0
  2  8  1  0  0  0  0
  2 14  1  0  0  0  0
  2 15  1  0  0  0  0
  3  4  2  0  0  0  0
  3  8  1  0  0  0  0
  4  5  1  0  0  0  0
  4 21  1  0  0  0  0
  5  6  2  0  0  0  0
  6  7  1  0  0  0  0
  7  8  2  0  0  0  0
  9 10  2  0  0  0  0
  9 14  1  0  0  0  0
 10 11  1  0  0  0  0
 11 12  2  0  0  0  0
 12 13  1  0  0  0  0
 13 14  2  0  0  0  0
 15 16  1  0  0  0  0
 16 17  1  0  0  0  0
 17 18  1  0  0  0  0
 18 19  1  0  0  0  0
 18 20  1  0  0  0  0
 21 22  1  0  0  0  0
 21 23  2  0  0  0  0
M  CHG  1  18   1
M  END
>  <CHROM.1>
64.35526357,-164.11765598,84.68282693,175.04140999,56.78764247,-23.53060577
7.34705069,10.83045052,-3.04547851,-0.96353240,1.29448183

>  <Name>


>  <RI>
0

>  <Rbt.Current_Directory>
/home/itssahil/PROJECTS/Mol_Feturizer/New_Systems/rnas/1lvj

>  <Rbt.Executable>
rbdock ($Id: //depot/dev/client3/rdock/2013.1/src/exe/rbdock.cxx#4 $)

>  <Rbt.Library>
libRbt.so (2013.1, Build901 2013/11/27)

>  <Rbt.Parameter_File>
/export/apps/rDock/src/rDock_2013.1_src/data/scripts/dock_solv.prm

>  <Rbt.Receptor>
prm/pocket_docking_8.prm

>  <SCORE>
-30.9682

>  <SCORE.INTER>
-26.5287

>  <SCORE.INTER.CONST>
1

>  <SCORE.INTER.POLAR>
0

>  <SCORE.INTER.ROT>
5

>  <SCORE.INTER.SOLV>
8.71066

>  <SCORE.INTER.VDW>
-27.5227

>  <SCORE.INTER.norm>
-1.15342

>  <SCORE.INTRA>
-4.4395

>  <SCORE.INTRA.DIHEDRAL>
-4.58286

>  <SCORE.INTRA.DIHEDRAL.0>
8.06479

>  <SCORE.INTRA.POLAR>
0

>  <SCORE.INTRA.POLAR.0>
0

>  <SCORE.INTRA.REPUL>
0

>  <SCORE.INTRA.REPUL.0>
0

>  <SCORE.INTRA.SOLV>
0.315827

>  <SCORE.INTRA.SOLV.lig_0>
-29.8054

>  <SCORE.INTRA.VDW>
-2.30598

>  <SCORE.INTRA.VDW.0>
2.61447

>  <SCORE.INTRA.norm>
-0.193022

>  <SCORE.RESTR>
0

>  <SCORE.RESTR.CAVITY>
0

>  <SCORE.RESTR.norm>
0

>  <SCORE.SYSTEM>
0

>  <SCORE.SYSTEM.CONST>
0

>  <SCORE.SYSTEM.DIHEDRAL>
0

>  <SCORE.SYSTEM.SOLV>
0

>  <SCORE.SYSTEM.norm>
0

>  <SCORE.heavy>
23

>  <SCORE.norm>
-1.34644

>  <RMSD>
5.984

$$$$

 OpenBabel11021811403D
libRbt.so/2013.1/901 2013/11/27
 23 25  0  0  0  0  0  0  0  0999 V2000
  -25.5101    8.3400   10.0514 S   0  0  0  0  0  0  0  0  0  0  0  0
  -23.5404    8.2463    7.8197 N   0  0  0  0  0  0  0  0  0  0  0  0
  -24.9086    7.0014    6.2730 C   0  0  0  0  0  0  0  0  0  0  0  0
  -26.1255    6.3662    5.9922 C   0  0  0  0  0  0  0  0  0  0  0  0
  -27.1405    6.3441    6.9439 C   0  0  0  0  0  0  0  0  0  0  0  0
  -26.9455    6.9503    8.1801 C   0  0  0  0  0  0  0  0  0  0  0  0
  -25.7392    7.5824    8.4711 C   0  0  0  0  0  0  0  0  0  0  0  0
  -24.7128    7.6126    7.5195 C   0  0  0  0  0  0  0  0  0  0  0  0
  -23.8416    7.7720   10.1434 C   0  0  0  0  0  0  0  0  0  0  0  0
  -23.3253    7.3072   11.3565 C   0  0  0  0  0  0  0  0  0  0  0  0
  -22.0018    6.8629   11.4261 C   0  0  0  0  0  0  0  0  0  0  0  0
  -21.1972    6.8889   10.2823 C   0  0  0  0  0  0  0  0  0  0  0  0
  -21.7187    7.3549    9.0748 C   0  0  0  0  0  0  0  0  0  0  0  0
  -23.0338    7.7927    9.0007 C   0  0  0  0  0  0  0  0  0  0  0  0
  -22.6084    8.6446    6.7358 C   0  0  0  0  0  0  0  0  0  0  0  0
  -22.1497    7.5258    5.7420 C   0  0  0  0  0  0  0  0  0  0  0  0
  -21.4068    8.0796    4.4784 C   0  0  0  0  0  0  0  0  0  0  0  0
  -21.1802    7.1447    3.3468 N   0  3  0  0  0  0  0  0  0  0  0  0
  -22.4482    6.5094    2.9040 C   0  0  0  0  0  0  0  0  0  0  0  0
  -20.1417    6.1184    3.7077 C   0  0  0  0  0  0  0  0  0  0  0  0
  -26.3438    5.7003    4.6635 C   0  0  0  0  0  0  0  0  0  0  0  0
  -27.5947    4.9112    4.3615 C   0  0  0  0  0  0  0  0  0  0  0  0
  -25.5173    5.8469    3.7771 O   0  0  0  0  0  0  0  0  0  0  0  0
  1  7  1  0  0  0  0
  1  9  1  0  0  0  0
  2  8  1  0  0  0  0
  2 14  1  0  0  0  0
  2 15  1  0  0  0  0
  3  4  2  0  0  0  0
  3  8  1  0  0  0  0
  4  5  1  0  0  0  0
  4 21  1  0  0  0  0
  5  6  2  0  0  0  0
  6  7  1  0  0  0  0
  7  8  2  0  0  0  0
  9 10  2  0  0  0  0
  9 14  1  0  0  0  0
 10 11  1  0  0  0  0
 11 12  2  0  0  0  0
 12 13  1  0  0  0  0
 13 14  2  0  0  0  0
 15 16  1  0  0  0  0
 16 17  1  0  0  0  0
 17 18  1  0  0  0  0
 18 19  1  0  0  0  0
 18 20  1  0  0  0  0
 21 22  1  0  0  0  0
 21 23  2  0  0  0  0
M  CHG  1  18   1
M  END
>  <CHROM.1>
-54.29850707,175.00015281,168.52747161,-167.61468596,173.89896590,-23.92080908
7.13542110,7.08981447,1.65664321,0.15596975,1.37061650

>  <Name>


>  <RI>
0

>  <Rbt.Current_Directory>
/home/itssahil/PROJECTS/Mol_Feturizer/New_Systems/rnas/1lvj

>  <Rbt.Executable>
rbdock ($Id: //depot/dev/client3/rdock/2013.1/src/exe/rbdock.cxx#4 $)

>  <Rbt.Library>
libRbt.so (2013.1, Build901 2013/11/27)

>  <Rbt.Parameter_File>
/export/apps/rDock/src/rDock_2013.1_src/data/scripts/dock_solv.prm

>  <Rbt.Receptor>
prm/pocket_docking_2.prm

>  <SCORE>
-15.8171

>  <SCORE.INTER>
-16.0278

>  <SCORE.INTER.CONST>
1

>  <SCORE.INTER.POLAR>
0

>  <SCORE.INTER.ROT>
5

>  <SCORE.INTER.SOLV>
15.545

>  <SCORE.INTER.VDW>
-22.8002

>  <SCORE.INTER.norm>
-0.696859

>  <SCORE.INTRA>
-3.33119

>  <SCORE.INTRA.DIHEDRAL>
-6.10504

>  <SCORE.INTRA.DIHEDRAL.0>
8.06479

>  <SCORE.INTRA.POLAR>
0

>  <SCORE.INTRA.POLAR.0>
0

>  <SCORE.INTRA.REPUL>
0

>  <SCORE.INTRA.REPUL.0>
0

>  <SCORE.INTRA.SOLV>
-0.356655

>  <SCORE.INTRA.SOLV.lig_0>
-29.8054

>  <SCORE.INTRA.VDW>
-0.100338

>  <SCORE.INTRA.VDW.0>
2.61447

>  <SCORE.INTRA.norm>
-0.144834

>  <SCORE.RESTR>
3.5418

>  <SCORE.RESTR.CAVITY>
3.5418

>  <SCORE.RESTR.norm>
0.153991

>  <SCORE.SYSTEM>
0

>  <SCORE.SYSTEM.CONST>
0

>  <SCORE.SYSTEM.DIHEDRAL>
0

>  <SCORE.SYSTEM.SOLV>
0

>  <SCORE.SYSTEM.norm>
0

>  <SCORE.heavy>
23

>  <SCORE.norm>
-0.687702

>  <RMSD>
6.000

$$$$

 OpenBabel11021811403D
libRbt.so/2013.1/901 2013/11/27
 23 25  0  0  0  0  0  0  0  0999 V2000
  -25.8828    6.7790    8.4882 S   0  0  0  0  0  0  0  0  0  0  0  0
  -23.1579    7.0194    9.6657 N   0  0  0  0  0  0  0  0  0  0  0  0
  -23.7570    8.4672   11.4984 C   0  0  0  0  0  0  0  0  0  0  0  0
  -24.7471    9.1751   12.1924 C   0  0  0  0  0  0  0  0  0  0  0  0
  -26.0684    9.1413   11.7568 C   0  0  0  0  0  0  0  0  0  0  0  0
  -26.4073    8.4061   10.6261 C   0  0  0  0  0  0  0  0  0  0  0  0
  -25.4311    7.7007    9.9271 C   0  0  0  0  0  0  0  0  0  0  0  0
  -24.0995    7.7260   10.3587 C   0  0  0  0  0  0  0  0  0  0  0  0
  -24.4114    7.2683    7.6453 C   0  0  0  0  0  0  0  0  0  0  0  0
  -24.4561    7.5875    6.2851 C   0  0  0  0  0  0  0  0  0  0  0  0
  -23.2875    7.9697    5.6200 C   0  0  0  0  0  0  0  0  0  0  0  0
  -22.0764    8.0274    6.3173 C   0  0  0  0  0  0  0  0  0  0  0  0
  -22.0388    7.7068    7.6748 C   0  0  0  0  0  0  0  0  0  0  0  0
  -23.1979    7.3310    8.3397 C   0  0  0  0  0  0  0  0  0  0  0  0
  -21.8540    6.6959   10.2960 C   0  0  0  0  0  0  0  0  0  0  0  0
  -21.8588    5.6230   11.4356 C   0  0  0  0  0  0  0  0  0  0  0  0
  -20.4298    5.2900   11.9854 C   0  0  0  0  0  0  0  0  0  0  0  0
  -20.3128    4.1972   12.9844 N   0  3  0  0  0  0  0  0  0  0  0  0
  -18.9684    4.1802   13.6168 C   0  0  0  0  0  0  0  0  0  0  0  0
  -20.6495    2.8709   12.3604 C   0  0  0  0  0  0  0  0  0  0  0  0
  -24.3908    9.9799   13.4098 C   0  0  0  0  0  0  0  0  0  0  0  0
  -22.9579   10.2007   13.8300 C   0  0  0  0  0  0  0  0  0  0  0  0
  -25.2774   10.5239   14.0486 O   0  0  0  0  0  0  0  0  0  0  0  0
  1  7  1  0  0  0  0
  1  9  1  0  0  0  0
  2  8  1  0  0  0  0
  2 14  1  0  0  0  0
  2 15  1  0  0  0  0
  3  4  2  0  0  0  0
  3  8  1  0  0  0  0
  4  5  1  0  0  0  0
  4 21  1  0  0  0  0
  5  6  2  0  0  0  0
  6  7  1  0  0  0  0
  7  8  2  0  0  0  0
  9 10  2  0  0  0  0
  9 14  1  0  0  0  0
 10 11  1  0  0  0  0
 11 12  2  0  0  0  0
 12 13  1  0  0  0  0
 13 14  2  0  0  0  0
 15 16  1  0  0  0  0
 16 17  1  0  0  0  0
 17 18  1  0  0  0  0
 18 19  1  0  0  0  0
 18 20  1  0  0  0  0
 21 22  1  0  0  0  0
 21 23  2  0  0  0  0
M  CHG  1  18   1
M  END
>  <CHROM.1>
71.32758973,7.76700249,176.80878831,-174.68886328,-48.30257561,-23.36169270
7.29951690,10.44640429,-2.57173127,-0.75688955,1.35072812

>  <Name>


>  <RI>
0

>  <Rbt.Current_Directory>
/home/itssahil/PROJECTS/Mol_Feturizer/New_Systems/rnas/1lvj

>  <Rbt.Executable>
rbdock ($Id: //depot/dev/client3/rdock/2013.1/src/exe/rbdock.cxx#4 $)

>  <Rbt.Library>
libRbt.so (2013.1, Build901 2013/11/27)

>  <Rbt.Parameter_File>
/export/apps/rDock/src/rDock_2013.1_src/data/scripts/dock_solv.prm

>  <Rbt.Receptor>
prm/pocket_docking_8.prm

>  <SCORE>
-34.0072

>  <SCORE.INTER>
-28.5163

>  <SCORE.INTER.CONST>
1

>  <SCORE.INTER.POLAR>
0

>  <SCORE.INTER.ROT>
5

>  <SCORE.INTER.SOLV>
9.01762

>  <SCORE.INTER.VDW>
-28.9501

>  <SCORE.INTER.norm>
-1.23984

>  <SCORE.INTRA>
-5.49083

>  <SCORE.INTRA.DIHEDRAL>
-6.67132

>  <SCORE.INTRA.DIHEDRAL.0>
8.06479

>  <SCORE.INTRA.POLAR>
0

>  <SCORE.INTRA.POLAR.0>
0

>  <SCORE.INTRA.REPUL>
0

>  <SCORE.INTRA.REPUL.0>
0

>  <SCORE.INTRA.SOLV>
0.363767

>  <SCORE.INTRA.SOLV.lig_0>
-29.8054

>  <SCORE.INTRA.VDW>
-2.33705

>  <SCORE.INTRA.VDW.0>
2.61447

>  <SCORE.INTRA.norm>
-0.238732

>  <SCORE.RESTR>
0

>  <SCORE.RESTR.CAVITY>
0

>  <SCORE.RESTR.norm>
0

>  <SCORE.SYSTEM>
0

>  <SCORE.SYSTEM.CONST>
0

>  <SCORE.SYSTEM.DIHEDRAL>
0

>  <SCORE.SYSTEM.SOLV>
0

>  <SCORE.SYSTEM.norm>
0

>  <SCORE.heavy>
23

>  <SCORE.norm>
-1.47857

>  <RMSD>
6.005

$$$$

 OpenBabel11021811403D
libRbt.so/2013.1/901 2013/11/27
 23 25  0  0  0  0  0  0  0  0999 V2000
  -25.8000    6.8251    8.1745 S   0  0  0  0  0  0  0  0  0  0  0  0
  -23.1621    6.9103    9.5542 N   0  0  0  0  0  0  0  0  0  0  0  0
  -23.8492    8.2792   11.4165 C   0  0  0  0  0  0  0  0  0  0  0  0
  -24.8655    8.9829   12.0762 C   0  0  0  0  0  0  0  0  0  0  0  0
  -26.1519    9.0170   11.5465 C   0  0  0  0  0  0  0  0  0  0  0  0
  -26.4295    8.3543   10.3559 C   0  0  0  0  0  0  0  0  0  0  0  0
  -25.4267    7.6539    9.6904 C   0  0  0  0  0  0  0  0  0  0  0  0
  -24.1300    7.6111   10.2163 C   0  0  0  0  0  0  0  0  0  0  0  0
  -24.2570    7.3077    7.4666 C   0  0  0  0  0  0  0  0  0  0  0  0
  -24.1929    7.6994    6.1262 C   0  0  0  0  0  0  0  0  0  0  0  0
  -22.9680    8.0761    5.5679 C   0  0  0  0  0  0  0  0  0  0  0  0
  -21.8098    8.0558    6.3517 C   0  0  0  0  0  0  0  0  0  0  0  0
  -21.8807    7.6630    7.6888 C   0  0  0  0  0  0  0  0  0  0  0  0
  -23.0960    7.2925    8.2478 C   0  0  0  0  0  0  0  0  0  0  0  0
  -21.9179    6.5098   10.2569 C   0  0  0  0  0  0  0  0  0  0  0  0
  -22.0649    5.5192   11.4598 C   0  0  0  0  0  0  0  0  0  0  0  0
  -20.9819    5.7247   12.5734 C   0  0  0  0  0  0  0  0  0  0  0  0
  -21.1107    4.9225   13.8167 N   0  3  0  0  0  0  0  0  0  0  0  0
  -20.4073    5.5676   14.9554 C   0  0  0  0  0  0  0  0  0  0  0  0
  -20.6285    3.5158   13.5916 C   0  0  0  0  0  0  0  0  0  0  0  0
  -24.5747    9.7099   13.3581 C   0  0  0  0  0  0  0  0  0  0  0  0
  -23.1736   10.1166   13.7456 C   0  0  0  0  0  0  0  0  0  0  0  0
  -25.4999   10.0373   14.0841 O   0  0  0  0  0  0  0  0  0  0  0  0
  1  7  1  0  0  0  0
  1  9  1  0  0  0  0
  2  8  1  0  0  0  0
  2 14  1  0  0  0  0
  2 15  1  0  0  0  0
  3  4  2  0  0  0  0
  3  8  1  0  0  0  0
  4  5  1  0  0  0  0
  4 21  1  0  0  0  0
  5  6  2  0  0  0  0
  6  7  1  0  0  0  0
  7  8  2  0  0  0  0
  9 10  2  0  0  0  0
  9 14  1  0  0  0  0
 10 11  1  0  0  0  0
 11 12  2  0  0  0  0
 12 13  1  0  0  0  0
 13 14  2  0  0  0  0
 15 16  1  0  0  0  0
 16 17  1  0  0  0  0
 17 18  1  0  0  0  0
 18 19  1  0  0  0  0
 18 20  1  0  0  0  0
 21 22  1  0  0  0  0
 21 23  2  0  0  0  0
M  CHG  1  18   1
M  END
>  <CHROM.1>
63.46837254,21.00952249,-148.89919083,174.30053787,-37.06090399,-23.48279347
7.37453703,10.52917765,2.01499517,0.70896861,-1.67602155

>  <Name>


>  <RI>
0

>  <Rbt.Current_Directory>
/home/itssahil/PROJECTS/Mol_Feturizer/New_Systems/rnas/1lvj

>  <Rbt.Executable>
rbdock ($Id: //depot/dev/client3/rdock/2013.1/src/exe/rbdock.cxx#4 $)

>  <Rbt.Library>
libRbt.so (2013.1, Build901 2013/11/27)

>  <Rbt.Parameter_File>
/export/apps/rDock/src/rDock_2013.1_src/data/scripts/dock_solv.prm

>  <Rbt.Receptor>
prm/pocket_docking_5.prm

>  <SCORE>
-29.7862

>  <SCORE.INTER>
-26.1433

>  <SCORE.INTER.CONST>
1

>  <SCORE.INTER.POLAR>
0

>  <SCORE.INTER.ROT>
5

>  <SCORE.INTER.SOLV>
8.43314

>  <SCORE.INTER.VDW>
-27.1732

>  <SCORE.INTER.norm>
-1.13667

>  <SCORE.INTRA>
-3.66068

>  <SCORE.INTRA.DIHEDRAL>
-2.08711

>  <SCORE.INTRA.DIHEDRAL.0>
8.06479

>  <SCORE.INTRA.POLAR>
0

>  <SCORE.INTRA.POLAR.0>
0

>  <SCORE.INTRA.REPUL>
0

>  <SCORE.INTRA.REPUL.0>
0

>  <SCORE.INTRA.SOLV>
0.550646

>  <SCORE.INTRA.SOLV.lig_0>
-29.8054

>  <SCORE.INTRA.VDW>
-2.89244

>  <SCORE.INTRA.VDW.0>
2.61447

>  <SCORE.INTRA.norm>
-0.15916

>  <SCORE.RESTR>
0.0177949

>  <SCORE.RESTR.CAVITY>
0.0177949

>  <SCORE.RESTR.norm>
0.000773692

>  <SCORE.SYSTEM>
0

>  <SCORE.SYSTEM.CONST>
0

>  <SCORE.SYSTEM.DIHEDRAL>
0

>  <SCORE.SYSTEM.SOLV>
0

>  <SCORE.SYSTEM.norm>
0

>  <SCORE.heavy>
23

>  <SCORE.norm>
-1.29505

>  <RMSD>
6.009

$$$$

 OpenBabel11021811403D
libRbt.so/2013.1/901 2013/11/27
 23 25  0  0  0  0  0  0  0  0999 V2000
  -25.8750    6.7729    8.5072 S   0  0  0  0  0  0  0  0  0  0  0  0
  -23.1950    7.0770    9.7698 N   0  0  0  0  0  0  0  0  0  0  0  0
  -23.8840    8.5162   11.5775 C   0  0  0  0  0  0  0  0  0  0  0  0
  -24.9111    9.2040   12.2372 C   0  0  0  0  0  0  0  0  0  0  0  0
  -26.2167    9.1396   11.7600 C   0  0  0  0  0  0  0  0  0  0  0  0
  -26.5031    8.3940   10.6217 C   0  0  0  0  0  0  0  0  0  0  0  0
  -25.4898    7.7084    9.9565 C   0  0  0  0  0  0  0  0  0  0  0  0
  -24.1735    7.7645   10.4301 C   0  0  0  0  0  0  0  0  0  0  0  0
  -24.3887    7.2924    7.7098 C   0  0  0  0  0  0  0  0  0  0  0  0
  -24.3971    7.6068    6.3477 C   0  0  0  0  0  0  0  0  0  0  0  0
  -23.2167    8.0130    5.7188 C   0  0  0  0  0  0  0  0  0  0  0  0
  -22.0300    8.0995    6.4540 C   0  0  0  0  0  0  0  0  0  0  0  0
  -22.0284    7.7835    7.8131 C   0  0  0  0  0  0  0  0  0  0  0  0
  -23.1996    7.3840    8.4421 C   0  0  0  0  0  0  0  0  0  0  0  0
  -21.9049    6.7842   10.4423 C   0  0  0  0  0  0  0  0  0  0  0  0
  -21.8673    5.5541   11.4094 C   0  0  0  0  0  0  0  0  0  0  0  0
  -20.4195    5.0241   11.6890 C   0  0  0  0  0  0  0  0  0  0  0  0
  -20.2853    3.6982   12.3446 N   0  3  0  0  0  0  0  0  0  0  0  0
  -20.5218    3.7890   13.8087 C   0  0  0  0  0  0  0  0  0  0  0  0
  -18.9460    3.0877   12.0355 C   0  0  0  0  0  0  0  0  0  0  0  0
  -24.6116   10.0198   13.4625 C   0  0  0  0  0  0  0  0  0  0  0  0
  -23.1979   10.2770   13.9249 C   0  0  0  0  0  0  0  0  0  0  0  0
  -25.5302   10.5429   14.0730 O   0  0  0  0  0  0  0  0  0  0  0  0
  1  7  1  0  0  0  0
  1  9  1  0  0  0  0
  2  8  1  0  0  0  0
  2 14  1  0  0  0  0
  2 15  1  0  0  0  0
  3  4  2  0  0  0  0
  3  8  1  0  0  0  0
  4  5  1  0  0  0  0
  4 21  1  0  0  0  0
  5  6  2  0  0  0  0
  6  7  1  0  0  0  0
  7  8  2  0  0  0  0
  9 10  2  0  0  0  0
  9 14  1  0  0  0  0
 10 11  1  0  0  0  0
 11 12  2  0  0  0  0
 12 13  1  0  0  0  0
 13 14  2  0  0  0  0
 15 16  1  0  0  0  0
 16 17  1  0  0  0  0
 17 18  1  0  0  0  0
 18 19  1  0  0  0  0
 18 20  1  0  0  0  0
 21 22  1  0  0  0  0
 21 23  2  0  0  0  0
M  CHG  1  18   1
M  END
>  <CHROM.1>
81.38660909,7.95642126,160.43186655,-167.00657084,41.29313495,-23.40533830
7.27884129,10.44567262,-2.86675919,-0.76073389,1.40324072

>  <Name>


>  <RI>
0

>  <Rbt.Current_Directory>
/home/itssahil/PROJECTS/Mol_Feturizer/New_Systems/rnas/1lvj

>  <Rbt.Executable>
rbdock ($Id: //depot/dev/client3/rdock/2013.1/src/exe/rbdock.cxx#4 $)

>  <Rbt.Library>
libRbt.so (2013.1, Build901 2013/11/27)

>  <Rbt.Parameter_File>
/export/apps/rDock/src/rDock_2013.1_src/data/scripts/dock_solv.prm

>  <Rbt.Receptor>
prm/pocket_docking_6.prm

>  <SCORE>
-32.314

>  <SCORE.INTER>
-28.0592

>  <SCORE.INTER.CONST>
1

>  <SCORE.INTER.POLAR>
0

>  <SCORE.INTER.ROT>
5

>  <SCORE.INTER.SOLV>
10.1614

>  <SCORE.INTER.VDW>
-29.0266

>  <SCORE.INTER.norm>
-1.21997

>  <SCORE.INTRA>
-4.2548

>  <SCORE.INTRA.DIHEDRAL>
-3.67868

>  <SCORE.INTRA.DIHEDRAL.0>
8.06479

>  <SCORE.INTRA.POLAR>
0

>  <SCORE.INTRA.POLAR.0>
0

>  <SCORE.INTRA.REPUL>
0

>  <SCORE.INTRA.REPUL.0>
0

>  <SCORE.INTRA.SOLV>
0.539142

>  <SCORE.INTRA.SOLV.lig_0>
-29.8054

>  <SCORE.INTRA.VDW>
-2.68503

>  <SCORE.INTRA.VDW.0>
2.61447

>  <SCORE.INTRA.norm>
-0.184991

>  <SCORE.RESTR>
0

>  <SCORE.RESTR.CAVITY>
0

>  <SCORE.RESTR.norm>
0

>  <SCORE.SYSTEM>
0

>  <SCORE.SYSTEM.CONST>
0

>  <SCORE.SYSTEM.DIHEDRAL>
0

>  <SCORE.SYSTEM.SOLV>
0

>  <SCORE.SYSTEM.norm>
0

>  <SCORE.heavy>
23

>  <SCORE.norm>
-1.40496

>  <RMSD>
6.019

$$$$

 OpenBabel11021811403D
libRbt.so/2013.1/901 2013/11/27
 23 25  0  0  0  0  0  0  0  0999 V2000
  -25.8396    6.8118    8.4382 S   0  0  0  0  0  0  0  0  0  0  0  0
  -23.1349    7.0313    9.6653 N   0  0  0  0  0  0  0  0  0  0  0  0
  -23.7731    8.4109   11.5370 C   0  0  0  0  0  0  0  0  0  0  0  0
  -24.7792    9.0874   12.2394 C   0  0  0  0  0  0  0  0  0  0  0  0
  -26.0933    9.0590   11.7826 C   0  0  0  0  0  0  0  0  0  0  0  0
  -26.4092    8.3607   10.6222 C   0  0  0  0  0  0  0  0  0  0  0  0
  -25.4170    7.6868    9.9146 C   0  0  0  0  0  0  0  0  0  0  0  0
  -24.0924    7.7069   10.3674 C   0  0  0  0  0  0  0  0  0  0  0  0
  -24.3594    7.3405    7.6355 C   0  0  0  0  0  0  0  0  0  0  0  0
  -24.3858    7.7059    6.2864 C   0  0  0  0  0  0  0  0  0  0  0  0
  -23.2103    8.1192    5.6530 C   0  0  0  0  0  0  0  0  0  0  0  0
  -22.0105    8.1617    6.3706 C   0  0  0  0  0  0  0  0  0  0  0  0
  -21.9910    7.7948    7.7167 C   0  0  0  0  0  0  0  0  0  0  0  0
  -23.1571    7.3881    8.3503 C   0  0  0  0  0  0  0  0  0  0  0  0
  -21.8383    6.6958   10.3042 C   0  0  0  0  0  0  0  0  0  0  0  0
  -21.8595    5.6178   11.4388 C   0  0  0  0  0  0  0  0  0  0  0  0
  -20.4412    5.2995   12.0240 C   0  0  0  0  0  0  0  0  0  0  0  0
  -19.7762    6.3536   12.8317 N   0  3  0  0  0  0  0  0  0  0  0  0
  -20.6521    6.8273   13.9344 C   0  0  0  0  0  0  0  0  0  0  0  0
  -19.3261    7.4886   11.9536 C   0  0  0  0  0  0  0  0  0  0  0  0
  -24.4477    9.8524   13.4890 C   0  0  0  0  0  0  0  0  0  0  0  0
  -25.4730   10.1020   14.5684 C   0  0  0  0  0  0  0  0  0  0  0  0
  -23.3028   10.2349   13.6711 O   0  0  0  0  0  0  0  0  0  0  0  0
  1  7  1  0  0  0  0
  1  9  1  0  0  0  0
  2  8  1  0  0  0  0
  2 14  1  0  0  0  0
  2 15  1  0  0  0  0
  3  4  2  0  0  0  0
  3  8  1  0  0  0  0
  4  5  1  0  0  0  0
  4 21  1  0  0  0  0
  5  6  2  0  0  0  0
  6  7  1  0  0  0  0
  7  8  2  0  0  0  0
  9 10  2  0  0  0  0
  9 14  1  0  0  0  0
 10 11  1  0  0  0  0
 11 12  2  0  0  0  0
 12 13  1  0  0  0  0
 13 14  2  0  0  0  0
 15 16  1  0  0  0  0
 16 17  1  0  0  0  0
 17 18  1  0  0  0  0
 18 19  1  0  0  0  0
 18 20  1  0  0  0  0
 21 22  1  0  0  0  0
 21 23  2  0  0  0  0
M  CHG  1  18   1
M  END
>  <CHROM.1>
69.38912582,-154.09903806,178.31393609,69.41901363,173.40060402,-23.35293806
7.72346755,10.45907033,1.92919059,0.40413397,-1.79630253

>  <Name>


>  <RI>
0

>  <Rbt.Current_Directory>
/home/itssahil/PROJECTS/Mol_Feturizer/New_Systems/rnas/1lvj

>  <Rbt.Executable>
rbdock ($Id: //depot/dev/client3/rdock/2013.1/src/exe/rbdock.cxx#4 $)

>  <Rbt.Library>
libRbt.so (2013.1, Build901 2013/11/27)

>  <Rbt.Parameter_File>
/export/apps/rDock/src/rDock_2013.1_src/data/scripts/dock_solv.prm

>  <Rbt.Receptor>
prm/pocket_docking_6.prm

>  <SCORE>
-31.2192

>  <SCORE.INTER>
-27.6346

>  <SCORE.INTER.CONST>
1

>  <SCORE.INTER.POLAR>
0

>  <SCORE.INTER.ROT>
5

>  <SCORE.INTER.SOLV>
8.76035

>  <SCORE.INTER.VDW>
-28.2765

>  <SCORE.INTER.norm>
-1.20151

>  <SCORE.INTRA>
-3.58654

>  <SCORE.INTRA.DIHEDRAL>
-4.63088

>  <SCORE.INTRA.DIHEDRAL.0>
8.06479

>  <SCORE.INTRA.POLAR>
0

>  <SCORE.INTRA.POLAR.0>
0

>  <SCORE.INTRA.REPUL>
0

>  <SCORE.INTRA.REPUL.0>
0

>  <SCORE.INTRA.SOLV>
-0.386562

>  <SCORE.INTRA.SOLV.lig_0>
-29.8054

>  <SCORE.INTRA.VDW>
-1.07782

>  <SCORE.INTRA.VDW.0>
2.61447

>  <SCORE.INTRA.norm>
-0.155937

>  <SCORE.RESTR>
0.00196757

>  <SCORE.RESTR.CAVITY>
0.00196757

>  <SCORE.RESTR.norm>
8.55466e-05

>  <SCORE.SYSTEM>
0

>  <SCORE.SYSTEM.CONST>
0

>  <SCORE.SYSTEM.DIHEDRAL>
0

>  <SCORE.SYSTEM.SOLV>
0

>  <SCORE.SYSTEM.norm>
0

>  <SCORE.heavy>
23

>  <SCORE.norm>
-1.35736

>  <RMSD>
6.059

$$$$

 OpenBabel11021811403D
libRbt.so/2013.1/901 2013/11/27
 23 25  0  0  0  0  0  0  0  0999 V2000
  -25.5678    8.4274    9.5253 S   0  0  0  0  0  0  0  0  0  0  0  0
  -23.8093    8.3795    7.1223 N   0  0  0  0  0  0  0  0  0  0  0  0
  -25.1576    6.8785    5.8020 C   0  0  0  0  0  0  0  0  0  0  0  0
  -26.3130    6.0947    5.6840 C   0  0  0  0  0  0  0  0  0  0  0  0
  -27.2289    6.0345    6.7300 C   0  0  0  0  0  0  0  0  0  0  0  0
  -26.9950    6.7508    7.8987 C   0  0  0  0  0  0  0  0  0  0  0  0
  -25.8488    7.5311    8.0281 C   0  0  0  0  0  0  0  0  0  0  0  0
  -24.9226    7.6006    6.9806 C   0  0  0  0  0  0  0  0  0  0  0  0
  -23.8433    8.0536    9.4903 C   0  0  0  0  0  0  0  0  0  0  0  0
  -23.1696    7.7417   10.6749 C   0  0  0  0  0  0  0  0  0  0  0  0
  -21.8027    7.4511   10.6435 C   0  0  0  0  0  0  0  0  0  0  0  0
  -21.1128    7.4776    9.4272 C   0  0  0  0  0  0  0  0  0  0  0  0
  -21.7911    7.7905    8.2487 C   0  0  0  0  0  0  0  0  0  0  0  0
  -23.1494    8.0752    8.2751 C   0  0  0  0  0  0  0  0  0  0  0  0
  -23.0311    8.7934    5.9285 C   0  0  0  0  0  0  0  0  0  0  0  0
  -22.1360    7.7049    5.2474 C   0  0  0  0  0  0  0  0  0  0  0  0
  -21.2085    8.2752    4.1205 C   0  0  0  0  0  0  0  0  0  0  0  0
  -20.3572    7.3128    3.3755 N   0  3  0  0  0  0  0  0  0  0  0  0
  -21.1633    6.4807    2.4452 C   0  0  0  0  0  0  0  0  0  0  0  0
  -19.5580    6.4658    4.3272 C   0  0  0  0  0  0  0  0  0  0  0  0
  -26.5712    5.3096    4.4296 C   0  0  0  0  0  0  0  0  0  0  0  0
  -27.8982    4.6404    4.1651 C   0  0  0  0  0  0  0  0  0  0  0  0
  -25.7084    5.2569    3.5678 O   0  0  0  0  0  0  0  0  0  0  0  0
  1  7  1  0  0  0  0
  1  9  1  0  0  0  0
  2  8  1  0  0  0  0
  2 14  1  0  0  0  0
  2 15  1  0  0  0  0
  3  4  2  0  0  0  0
  3  8  1  0  0  0  0
  4  5  1  0  0  0  0
  4 21  1  0  0  0  0
  5  6  2  0  0  0  0
  6  7  1  0  0  0  0
  7  8  2  0  0  0  0
  9 10  2  0  0  0  0
  9 14  1  0  0  0  0
 10 11  1  0  0  0  0
 11 12  2  0  0  0  0
 12 13  1  0  0  0  0
 13 14  2  0  0  0  0
 15 16  1  0  0  0  0
 16 17  1  0  0  0  0
 17 18  1  0  0  0  0
 18 19  1  0  0  0  0
 18 20  1  0  0  0  0
 21 22  1  0  0  0  0
 21 23  2  0  0  0  0
M  CHG  1  18   1
M  END
>  <CHROM.1>
-74.54780278,-169.64513010,-172.23246530,-177.66917974,-167.28776537,-23.87787737
7.20351701,6.65762471,-2.08799543,-0.23298769,-1.86677226

>  <Name>


>  <RI>
0

>  <Rbt.Current_Directory>
/home/itssahil/PROJECTS/Mol_Feturizer/New_Systems/rnas/1lvj

>  <Rbt.Executable>
rbdock ($Id: //depot/dev/client3/rdock/2013.1/src/exe/rbdock.cxx#4 $)

>  <Rbt.Library>
libRbt.so (2013.1, Build901 2013/11/27)

>  <Rbt.Parameter_File>
/export/apps/rDock/src/rDock_2013.1_src/data/scripts/dock_solv.prm

>  <Rbt.Receptor>
prm/blind_docking_100.prm

>  <SCORE>
-8.57674

>  <SCORE.INTER>
-4.65534

>  <SCORE.INTER.CONST>
1

>  <SCORE.INTER.POLAR>
0

>  <SCORE.INTER.ROT>
5

>  <SCORE.INTER.SOLV>
19.6439

>  <SCORE.INTER.VDW>
-16.5849

>  <SCORE.INTER.norm>
-0.202406

>  <SCORE.INTRA>
-4.25581

>  <SCORE.INTRA.DIHEDRAL>
-6.98233

>  <SCORE.INTRA.DIHEDRAL.0>
8.06479

>  <SCORE.INTRA.POLAR>
0

>  <SCORE.INTRA.POLAR.0>
0

>  <SCORE.INTRA.REPUL>
0

>  <SCORE.INTRA.REPUL.0>
0

>  <SCORE.INTRA.SOLV>
-0.59352

>  <SCORE.INTRA.SOLV.lig_0>
-29.8054

>  <SCORE.INTRA.VDW>
-0.467891

>  <SCORE.INTRA.VDW.0>
2.61447

>  <SCORE.INTRA.norm>
-0.185035

>  <SCORE.RESTR>
0.334414

>  <SCORE.RESTR.CAVITY>
0.334414

>  <SCORE.RESTR.norm>
0.0145398

>  <SCORE.SYSTEM>
0

>  <SCORE.SYSTEM.CONST>
0

>  <SCORE.SYSTEM.DIHEDRAL>
0

>  <SCORE.SYSTEM.SOLV>
0

>  <SCORE.SYSTEM.norm>
0

>  <SCORE.heavy>
23

>  <SCORE.norm>
-0.372902

>  <RMSD>
6.063

$$$$

 OpenBabel11021811403D
libRbt.so/2013.1/901 2013/11/27
 23 25  0  0  0  0  0  0  0  0999 V2000
  -25.0426    8.3554   10.9026 S   0  0  0  0  0  0  0  0  0  0  0  0
  -23.0443    7.9345    8.7350 N   0  0  0  0  0  0  0  0  0  0  0  0
  -24.5856    7.1197    7.0693 C   0  0  0  0  0  0  0  0  0  0  0  0
  -25.9003    6.7951    6.7095 C   0  0  0  0  0  0  0  0  0  0  0  0
  -26.9368    6.9542    7.6243 C   0  0  0  0  0  0  0  0  0  0  0  0
  -26.6670    7.4327    8.9018 C   0  0  0  0  0  0  0  0  0  0  0  0
  -25.3639    7.7561    9.2712 C   0  0  0  0  0  0  0  0  0  0  0  0
  -24.3144    7.6023    8.3575 C   0  0  0  0  0  0  0  0  0  0  0  0
  -23.5517    7.4174   11.0132 C   0  0  0  0  0  0  0  0  0  0  0  0
  -23.2103    6.7826   12.2110 C   0  0  0  0  0  0  0  0  0  0  0  0
  -22.0261    6.0448   12.2959 C   0  0  0  0  0  0  0  0  0  0  0  0
  -21.1846    5.9479   11.1829 C   0  0  0  0  0  0  0  0  0  0  0  0
  -21.5310    6.5846    9.9906 C   0  0  0  0  0  0  0  0  0  0  0  0
  -22.7083    7.3145    9.9011 C   0  0  0  0  0  0  0  0  0  0  0  0
  -21.9975    8.1671    7.7093 C   0  0  0  0  0  0  0  0  0  0  0  0
  -22.0697    7.3021    6.4068 C   0  0  0  0  0  0  0  0  0  0  0  0
  -21.5385    8.0452    5.1337 C   0  0  0  0  0  0  0  0  0  0  0  0
  -21.3810    7.2521    3.8879 N   0  3  0  0  0  0  0  0  0  0  0  0
  -22.6755    6.6731    3.4445 C   0  0  0  0  0  0  0  0  0  0  0  0
  -20.3299    6.1911    4.0650 C   0  0  0  0  0  0  0  0  0  0  0  0
  -26.2019    6.2689    5.3353 C   0  0  0  0  0  0  0  0  0  0  0  0
  -27.4778    5.5232    5.0277 C   0  0  0  0  0  0  0  0  0  0  0  0
  -25.4251    6.4990    4.4221 O   0  0  0  0  0  0  0  0  0  0  0  0
  1  7  1  0  0  0  0
  1  9  1  0  0  0  0
  2  8  1  0  0  0  0
  2 14  1  0  0  0  0
  2 15  1  0  0  0  0
  3  4  2  0  0  0  0
  3  8  1  0  0  0  0
  4  5  1  0  0  0  0
  4 21  1  0  0  0  0
  5  6  2  0  0  0  0
  6  7  1  0  0  0  0
  7  8  2  0  0  0  0
  9 10  2  0  0  0  0
  9 14  1  0  0  0  0
 10 11  1  0  0  0  0
 11 12  2  0  0  0  0
 12 13  1  0  0  0  0
 13 14  2  0  0  0  0
 15 16  1  0  0  0  0
 16 17  1  0  0  0  0
 17 18  1  0  0  0  0
 18 19  1  0  0  0  0
 18 20  1  0  0  0  0
 21 22  1  0  0  0  0
 21 23  2  0  0  0  0
M  CHG  1  18   1
M  END
>  <CHROM.1>
-34.14179530,161.04517214,148.15912307,171.40969343,-179.66997183,-23.74042079
7.10685669,7.84294245,1.58079561,0.00765242,1.49316198

>  <Name>


>  <RI>
0

>  <Rbt.Current_Directory>
/home/itssahil/PROJECTS/Mol_Feturizer/New_Systems/rnas/1lvj

>  <Rbt.Executable>
rbdock ($Id: //depot/dev/client3/rdock/2013.1/src/exe/rbdock.cxx#4 $)

>  <Rbt.Library>
libRbt.so (2013.1, Build901 2013/11/27)

>  <Rbt.Parameter_File>
/export/apps/rDock/src/rDock_2013.1_src/data/scripts/dock_solv.prm

>  <Rbt.Receptor>
prm/pocket_docking_3.prm

>  <SCORE>
-19.5244

>  <SCORE.INTER>
-22.6567

>  <SCORE.INTER.CONST>
1

>  <SCORE.INTER.POLAR>
0

>  <SCORE.INTER.ROT>
5

>  <SCORE.INTER.SOLV>
14.8502

>  <SCORE.INTER.VDW>
-26.9879

>  <SCORE.INTER.norm>
-0.985073

>  <SCORE.INTRA>
3.06219

>  <SCORE.INTRA.DIHEDRAL>
-1.59503

>  <SCORE.INTRA.DIHEDRAL.0>
8.06479

>  <SCORE.INTRA.POLAR>
0

>  <SCORE.INTRA.POLAR.0>
0

>  <SCORE.INTRA.REPUL>
0

>  <SCORE.INTRA.REPUL.0>
0

>  <SCORE.INTRA.SOLV>
-0.184317

>  <SCORE.INTRA.SOLV.lig_0>
-29.8054

>  <SCORE.INTRA.VDW>
3.95186

>  <SCORE.INTRA.VDW.0>
2.61447

>  <SCORE.INTRA.norm>
0.133139

>  <SCORE.RESTR>
0.0700867

>  <SCORE.RESTR.CAVITY>
0.0700867

>  <SCORE.RESTR.norm>
0.00304725

>  <SCORE.SYSTEM>
0

>  <SCORE.SYSTEM.CONST>
0

>  <SCORE.SYSTEM.DIHEDRAL>
0

>  <SCORE.SYSTEM.SOLV>
0

>  <SCORE.SYSTEM.norm>
0

>  <SCORE.heavy>
23

>  <SCORE.norm>
-0.848887

>  <RMSD>
6.064

$$$$

 OpenBabel11021811403D
libRbt.so/2013.1/901 2013/11/27
 23 25  0  0  0  0  0  0  0  0999 V2000
  -25.1378    8.6221   10.4071 S   0  0  0  0  0  0  0  0  0  0  0  0
  -23.1689    8.0922    8.2364 N   0  0  0  0  0  0  0  0  0  0  0  0
  -24.7014    7.0393    6.7011 C   0  0  0  0  0  0  0  0  0  0  0  0
  -26.0045    6.6140    6.4111 C   0  0  0  0  0  0  0  0  0  0  0  0
  -27.0273    6.8093    7.3343 C   0  0  0  0  0  0  0  0  0  0  0  0
  -26.7549    7.4246    8.5512 C   0  0  0  0  0  0  0  0  0  0  0  0
  -25.4630    7.8491    8.8513 C   0  0  0  0  0  0  0  0  0  0  0  0
  -24.4276    7.6598    7.9282 C   0  0  0  0  0  0  0  0  0  0  0  0
  -23.5966    7.7771   10.5672 C   0  0  0  0  0  0  0  0  0  0  0  0
  -23.1948    7.2818   11.8112 C   0  0  0  0  0  0  0  0  0  0  0  0
  -21.9711    6.6175   11.9348 C   0  0  0  0  0  0  0  0  0  0  0  0
  -21.1509    6.4544   10.8137 C   0  0  0  0  0  0  0  0  0  0  0  0
  -21.5577    6.9520    9.5751 C   0  0  0  0  0  0  0  0  0  0  0  0
  -22.7741    7.6082    9.4476 C   0  0  0  0  0  0  0  0  0  0  0  0
  -22.1594    8.2758    7.1643 C   0  0  0  0  0  0  0  0  0  0  0  0
  -21.5122    6.9830    6.5645 C   0  0  0  0  0  0  0  0  0  0  0  0
  -20.7694    7.2291    5.2069 C   0  0  0  0  0  0  0  0  0  0  0  0
  -21.5692    7.7464    4.0673 N   0  3  0  0  0  0  0  0  0  0  0  0
  -22.7791    6.9170    3.8313 C   0  0  0  0  0  0  0  0  0  0  0  0
  -20.7203    7.8543    2.8305 C   0  0  0  0  0  0  0  0  0  0  0  0
  -26.3083    5.9400    5.1034 C   0  0  0  0  0  0  0  0  0  0  0  0
  -27.6046    5.2039    4.8663 C   0  0  0  0  0  0  0  0  0  0  0  0
  -25.5145    6.0370    4.1811 O   0  0  0  0  0  0  0  0  0  0  0  0
  1  7  1  0  0  0  0
  1  9  1  0  0  0  0
  2  8  1  0  0  0  0
  2 14  1  0  0  0  0
  2 15  1  0  0  0  0
  3  4  2  0  0  0  0
  3  8  1  0  0  0  0
  4  5  1  0  0  0  0
  4 21  1  0  0  0  0
  5  6  2  0  0  0  0
  6  7  1  0  0  0  0
  7  8  2  0  0  0  0
  9 10  2  0  0  0  0
  9 14  1  0  0  0  0
 10 11  1  0  0  0  0
 11 12  2  0  0  0  0
 12 13  1  0  0  0  0
 13 14  2  0  0  0  0
 15 16  1  0  0  0  0
 16 17  1  0  0  0  0
 17 18  1  0  0  0  0
 18 19  1  0  0  0  0
 18 20  1  0  0  0  0
 21 22  1  0  0  0  0
 21 23  2  0  0  0  0
M  CHG  1  18   1
M  END
>  <CHROM.1>
-75.21707874,166.47218206,164.37867940,-60.41367075,67.84144781,-23.77686073
7.24865685,7.52748168,1.55594613,0.12968906,1.45787115

>  <Name>


>  <RI>
0

>  <Rbt.Current_Directory>
/home/itssahil/PROJECTS/Mol_Feturizer/New_Systems/rnas/1lvj

>  <Rbt.Executable>
rbdock ($Id: //depot/dev/client3/rdock/2013.1/src/exe/rbdock.cxx#4 $)

>  <Rbt.Library>
libRbt.so (2013.1, Build901 2013/11/27)

>  <Rbt.Parameter_File>
/export/apps/rDock/src/rDock_2013.1_src/data/scripts/dock_solv.prm

>  <Rbt.Receptor>
prm/pocket_docking_3.prm

>  <SCORE>
-26.4703

>  <SCORE.INTER>
-23.541

>  <SCORE.INTER.CONST>
1

>  <SCORE.INTER.POLAR>
0

>  <SCORE.INTER.ROT>
5

>  <SCORE.INTER.SOLV>
19.588

>  <SCORE.INTER.VDW>
-29.1567

>  <SCORE.INTER.norm>
-1.02352

>  <SCORE.INTRA>
-3.05515

>  <SCORE.INTRA.DIHEDRAL>
-5.97649

>  <SCORE.INTRA.DIHEDRAL.0>
8.06479

>  <SCORE.INTRA.POLAR>
0

>  <SCORE.INTRA.POLAR.0>
0

>  <SCORE.INTRA.REPUL>
0

>  <SCORE.INTRA.REPUL.0>
0

>  <SCORE.INTRA.SOLV>
2.10831

>  <SCORE.INTRA.SOLV.lig_0>
-29.8054

>  <SCORE.INTRA.VDW>
-1.12106

>  <SCORE.INTRA.VDW.0>
2.61447

>  <SCORE.INTRA.norm>
-0.132833

>  <SCORE.RESTR>
0.125861

>  <SCORE.RESTR.CAVITY>
0.125861

>  <SCORE.RESTR.norm>
0.00547224

>  <SCORE.SYSTEM>
0

>  <SCORE.SYSTEM.CONST>
0

>  <SCORE.SYSTEM.DIHEDRAL>
0

>  <SCORE.SYSTEM.SOLV>
0

>  <SCORE.SYSTEM.norm>
0

>  <SCORE.heavy>
23

>  <SCORE.norm>
-1.15088

>  <RMSD>
6.064

$$$$

 OpenBabel11021811403D
libRbt.so/2013.1/901 2013/11/27
 23 25  0  0  0  0  0  0  0  0999 V2000
  -25.8239    6.6988    8.1850 S   0  0  0  0  0  0  0  0  0  0  0  0
  -23.1554    6.9362    9.4859 N   0  0  0  0  0  0  0  0  0  0  0  0
  -23.8564    8.3010   11.3460 C   0  0  0  0  0  0  0  0  0  0  0  0
  -24.8871    8.9652   12.0240 C   0  0  0  0  0  0  0  0  0  0  0  0
  -26.1881    8.9274   11.5315 C   0  0  0  0  0  0  0  0  0  0  0  0
  -26.4662    8.2320   10.3599 C   0  0  0  0  0  0  0  0  0  0  0  0
  -25.4493    7.5703    9.6763 C   0  0  0  0  0  0  0  0  0  0  0  0
  -24.1376    7.5999   10.1649 C   0  0  0  0  0  0  0  0  0  0  0  0
  -24.3273    7.2443    7.4251 C   0  0  0  0  0  0  0  0  0  0  0  0
  -24.3205    7.6160    6.0775 C   0  0  0  0  0  0  0  0  0  0  0  0
  -23.1320    8.0427    5.4782 C   0  0  0  0  0  0  0  0  0  0  0  0
  -21.9524    8.0923    6.2281 C   0  0  0  0  0  0  0  0  0  0  0  0
  -21.9661    7.7191    7.5726 C   0  0  0  0  0  0  0  0  0  0  0  0
  -23.1452    7.2991    8.1724 C   0  0  0  0  0  0  0  0  0  0  0  0
  -21.8736    6.6090   10.1582 C   0  0  0  0  0  0  0  0  0  0  0  0
  -21.9374    5.6329   11.3801 C   0  0  0  0  0  0  0  0  0  0  0  0
  -20.6080    5.5816   12.2081 C   0  0  0  0  0  0  0  0  0  0  0  0
  -20.1069    6.8542   12.7870 N   0  3  0  0  0  0  0  0  0  0  0  0
  -19.2365    7.5824   11.8280 C   0  0  0  0  0  0  0  0  0  0  0  0
  -19.4045    6.6016   14.0927 C   0  0  0  0  0  0  0  0  0  0  0  0
  -24.5964    9.7270   13.2856 C   0  0  0  0  0  0  0  0  0  0  0  0
  -23.1893   10.0929   13.6915 C   0  0  0  0  0  0  0  0  0  0  0  0
  -25.5239   10.1168   13.9770 O   0  0  0  0  0  0  0  0  0  0  0  0
  1  7  1  0  0  0  0
  1  9  1  0  0  0  0
  2  8  1  0  0  0  0
  2 14  1  0  0  0  0
  2 15  1  0  0  0  0
  3  4  2  0  0  0  0
  3  8  1  0  0  0  0
  4  5  1  0  0  0  0
  4 21  1  0  0  0  0
  5  6  2  0  0  0  0
  6  7  1  0  0  0  0
  7  8  2  0  0  0  0
  9 10  2  0  0  0  0
  9 14  1  0  0  0  0
 10 11  1  0  0  0  0
 11 12  2  0  0  0  0
 12 13  1  0  0  0  0
 13 14  2  0  0  0  0
 15 16  1  0  0  0  0
 16 17  1  0  0  0  0
 17 18  1  0  0  0  0
 18 19  1  0  0  0  0
 18 20  1  0  0  0  0
 21 22  1  0  0  0  0
 21 23  2  0  0  0  0
M  CHG  1  18   1
M  END
>  <CHROM.1>
63.46398940,15.01463292,-167.76220978,58.15057600,32.05686206,-23.33769865
7.67984470,10.29892491,2.02937197,0.35488979,-1.79963838

>  <Name>


>  <RI>
0

>  <Rbt.Current_Directory>
/home/itssahil/PROJECTS/Mol_Feturizer/New_Systems/rnas/1lvj

>  <Rbt.Executable>
rbdock ($Id: //depot/dev/client3/rdock/2013.1/src/exe/rbdock.cxx#4 $)

>  <Rbt.Library>
libRbt.so (2013.1, Build901 2013/11/27)

>  <Rbt.Parameter_File>
/export/apps/rDock/src/rDock_2013.1_src/data/scripts/dock_solv.prm

>  <Rbt.Receptor>
prm/pocket_docking_5.prm

>  <SCORE>
-30.6947

>  <SCORE.INTER>
-27.1127

>  <SCORE.INTER.CONST>
1

>  <SCORE.INTER.POLAR>
0

>  <SCORE.INTER.ROT>
5

>  <SCORE.INTER.SOLV>
9.15054

>  <SCORE.INTER.VDW>
-28.0586

>  <SCORE.INTER.norm>
-1.17881

>  <SCORE.INTRA>
-3.69127

>  <SCORE.INTRA.DIHEDRAL>
-4.5519

>  <SCORE.INTRA.DIHEDRAL.0>
8.06479

>  <SCORE.INTRA.POLAR>
0

>  <SCORE.INTRA.POLAR.0>
0

>  <SCORE.INTRA.REPUL>
0

>  <SCORE.INTRA.REPUL.0>
0

>  <SCORE.INTRA.SOLV>
3.23236

>  <SCORE.INTRA.SOLV.lig_0>
-29.8054

>  <SCORE.INTRA.VDW>
-3.03149

>  <SCORE.INTRA.VDW.0>
2.61447

>  <SCORE.INTRA.norm>
-0.16049

>  <SCORE.RESTR>
0.109215

>  <SCORE.RESTR.CAVITY>
0.109215

>  <SCORE.RESTR.norm>
0.00474848

>  <SCORE.SYSTEM>
0

>  <SCORE.SYSTEM.CONST>
0

>  <SCORE.SYSTEM.DIHEDRAL>
0

>  <SCORE.SYSTEM.SOLV>
0

>  <SCORE.SYSTEM.norm>
0

>  <SCORE.heavy>
23

>  <SCORE.norm>
-1.33455

>  <RMSD>
6.064

$$$$

 OpenBabel11021811403D
libRbt.so/2013.1/901 2013/11/27
 23 25  0  0  0  0  0  0  0  0999 V2000
  -25.0954    8.6408   10.4087 S   0  0  0  0  0  0  0  0  0  0  0  0
  -23.1583    8.0257    8.2319 N   0  0  0  0  0  0  0  0  0  0  0  0
  -24.7299    6.9900    6.7248 C   0  0  0  0  0  0  0  0  0  0  0  0
  -26.0460    6.5947    6.4511 C   0  0  0  0  0  0  0  0  0  0  0  0
  -27.0559    6.8311    7.3788 C   0  0  0  0  0  0  0  0  0  0  0  0
  -26.7580    7.4578    8.5839 C   0  0  0  0  0  0  0  0  0  0  0  0
  -25.4531    7.8527    8.8676 C   0  0  0  0  0  0  0  0  0  0  0  0
  -24.4303    7.6219    7.9399 C   0  0  0  0  0  0  0  0  0  0  0  0
  -23.5757    7.7581   10.5705 C   0  0  0  0  0  0  0  0  0  0  0  0
  -23.1773    7.2716   11.8191 C   0  0  0  0  0  0  0  0  0  0  0  0
  -21.9705    6.5774   11.9439 C   0  0  0  0  0  0  0  0  0  0  0  0
  -21.1637    6.3754   10.8194 C   0  0  0  0  0  0  0  0  0  0  0  0
  -21.5670    6.8643    9.5763 C   0  0  0  0  0  0  0  0  0  0  0  0
  -22.7668    7.5503    9.4475 C   0  0  0  0  0  0  0  0  0  0  0  0
  -22.1528    8.1661    7.1496 C   0  0  0  0  0  0  0  0  0  0  0  0
  -22.6596    8.7041    5.7699 C   0  0  0  0  0  0  0  0  0  0  0  0
  -21.6067    8.5593    4.6186 C   0  0  0  0  0  0  0  0  0  0  0  0
  -21.3725    7.2010    4.0652 N   0  3  0  0  0  0  0  0  0  0  0  0
  -20.2550    6.5146    4.7635 C   0  0  0  0  0  0  0  0  0  0  0  0
  -21.1424    7.2666    2.5804 C   0  0  0  0  0  0  0  0  0  0  0  0
  -26.3776    5.9089    5.1565 C   0  0  0  0  0  0  0  0  0  0  0  0
  -27.6972    5.2092    4.9383 C   0  0  0  0  0  0  0  0  0  0  0  0
  -25.5863    5.9659    4.2287 O   0  0  0  0  0  0  0  0  0  0  0  0
  1  7  1  0  0  0  0
  1  9  1  0  0  0  0
  2  8  1  0  0  0  0
  2 14  1  0  0  0  0
  2 15  1  0  0  0  0
  3  4  2  0  0  0  0
  3  8  1  0  0  0  0
  4  5  1  0  0  0  0
  4 21  1  0  0  0  0
  5  6  2  0  0  0  0
  6  7  1  0  0  0  0
  7  8  2  0  0  0  0
  9 10  2  0  0  0  0
  9 14  1  0  0  0  0
 10 11  1  0  0  0  0
 11 12  2  0  0  0  0
 12 13  1  0  0  0  0
 13 14  2  0  0  0  0
 15 16  1  0  0  0  0
 16 17  1  0  0  0  0
 17 18  1  0  0  0  0
 18 19  1  0  0  0  0
 18 20  1  0  0  0  0
 21 22  1  0  0  0  0
 21 23  2  0  0  0  0
M  CHG  1  18   1
M  END
>  <CHROM.1>
36.58478721,166.77274092,-168.82445883,74.15019739,27.68476003,-23.76620366
7.28101883,7.51367313,1.63136003,0.12740355,1.45854453

>  <Name>


>  <RI>
0

>  <Rbt.Current_Directory>
/home/itssahil/PROJECTS/Mol_Feturizer/New_Systems/rnas/1lvj

>  <Rbt.Executable>
rbdock ($Id: //depot/dev/client3/rdock/2013.1/src/exe/rbdock.cxx#4 $)

>  <Rbt.Library>
libRbt.so (2013.1, Build901 2013/11/27)

>  <Rbt.Parameter_File>
/export/apps/rDock/src/rDock_2013.1_src/data/scripts/dock_solv.prm

>  <Rbt.Receptor>
prm/pocket_docking_5.prm

>  <SCORE>
-25.2927

>  <SCORE.INTER>
-23.3573

>  <SCORE.INTER.CONST>
1

>  <SCORE.INTER.POLAR>
0

>  <SCORE.INTER.ROT>
5

>  <SCORE.INTER.SOLV>
17.858

>  <SCORE.INTER.VDW>
-28.4575

>  <SCORE.INTER.norm>
-1.01553

>  <SCORE.INTRA>
-1.93545

>  <SCORE.INTRA.DIHEDRAL>
-3.47504

>  <SCORE.INTRA.DIHEDRAL.0>
8.06479

>  <SCORE.INTRA.POLAR>
0

>  <SCORE.INTRA.POLAR.0>
0

>  <SCORE.INTRA.REPUL>
0

>  <SCORE.INTRA.REPUL.0>
0

>  <SCORE.INTRA.SOLV>
2.58664

>  <SCORE.INTRA.SOLV.lig_0>
-29.8054

>  <SCORE.INTRA.VDW>
-1.49125

>  <SCORE.INTRA.VDW.0>
2.61447

>  <SCORE.INTRA.norm>
-0.0841499

>  <SCORE.RESTR>
0

>  <SCORE.RESTR.CAVITY>
0

>  <SCORE.RESTR.norm>
0

>  <SCORE.SYSTEM>
0

>  <SCORE.SYSTEM.CONST>
0

>  <SCORE.SYSTEM.DIHEDRAL>
0

>  <SCORE.SYSTEM.SOLV>
0

>  <SCORE.SYSTEM.norm>
0

>  <SCORE.heavy>
23

>  <SCORE.norm>
-1.09968

>  <RMSD>
6.069

$$$$

 OpenBabel11021811403D
libRbt.so/2013.1/901 2013/11/27
 23 25  0  0  0  0  0  0  0  0999 V2000
  -25.4909    8.4176   10.1235 S   0  0  0  0  0  0  0  0  0  0  0  0
  -23.3307    8.0352    8.1095 N   0  0  0  0  0  0  0  0  0  0  0  0
  -24.6916    6.9925    6.4140 C   0  0  0  0  0  0  0  0  0  0  0  0
  -25.9501    6.5364    6.0001 C   0  0  0  0  0  0  0  0  0  0  0  0
  -27.0525    6.6630    6.8400 C   0  0  0  0  0  0  0  0  0  0  0  0
  -26.9044    7.2399    8.0966 C   0  0  0  0  0  0  0  0  0  0  0  0
  -25.6578    7.6944    8.5194 C   0  0  0  0  0  0  0  0  0  0  0  0
  -24.5431    7.5742    7.6810 C   0  0  0  0  0  0  0  0  0  0  0  0
  -23.9393    7.6176   10.3833 C   0  0  0  0  0  0  0  0  0  0  0  0
  -23.6250    7.0885   11.6385 C   0  0  0  0  0  0  0  0  0  0  0  0
  -22.3930    6.4602   11.8414 C   0  0  0  0  0  0  0  0  0  0  0  0
  -21.4770    6.3667   10.7885 C   0  0  0  0  0  0  0  0  0  0  0  0
  -21.7968    6.8977    9.5384 C   0  0  0  0  0  0  0  0  0  0  0  0
  -23.0210    7.5185    9.3318 C   0  0  0  0  0  0  0  0  0  0  0  0
  -22.2426    8.2923    7.1337 C   0  0  0  0  0  0  0  0  0  0  0  0
  -22.6666    8.6731    5.6759 C   0  0  0  0  0  0  0  0  0  0  0  0
  -21.4835    8.6269    4.6495 C   0  0  0  0  0  0  0  0  0  0  0  0
  -21.0814    7.2987    4.1202 N   0  3  0  0  0  0  0  0  0  0  0  0
  -22.0783    6.7751    3.1509 C   0  0  0  0  0  0  0  0  0  0  0  0
  -20.8403    6.3309    5.2460 C   0  0  0  0  0  0  0  0  0  0  0  0
  -26.1199    5.9034    4.6485 C   0  0  0  0  0  0  0  0  0  0  0  0
  -24.9984    5.8630    3.6389 C   0  0  0  0  0  0  0  0  0  0  0  0
  -27.1732    5.3509    4.3739 O   0  0  0  0  0  0  0  0  0  0  0  0
  1  7  1  0  0  0  0
  1  9  1  0  0  0  0
  2  8  1  0  0  0  0
  2 14  1  0  0  0  0
  2 15  1  0  0  0  0
  3  4  2  0  0  0  0
  3  8  1  0  0  0  0
  4  5  1  0  0  0  0
  4 21  1  0  0  0  0
  5  6  2  0  0  0  0
  6  7  1  0  0  0  0
  7  8  2  0  0  0  0
  9 10  2  0  0  0  0
  9 14  1  0  0  0  0
 10 11  1  0  0  0  0
 11 12  2  0  0  0  0
 12 13  1  0  0  0  0
 13 14  2  0  0  0  0
 15 16  1  0  0  0  0
 16 17  1  0  0  0  0
 17 18  1  0  0  0  0
 18 19  1  0  0  0  0
 18 20  1  0  0  0  0
 21 22  1  0  0  0  0
 21 23  2  0  0  0  0
M  CHG  1  18   1
M  END
>  <CHROM.1>
27.90186411,-6.48430477,-167.69131342,79.79980958,-166.87107328,-23.89766056
7.19952059,7.33797244,1.58233385,0.12220920,1.45486876

>  <Name>


>  <RI>
0

>  <Rbt.Current_Directory>
/home/itssahil/PROJECTS/Mol_Feturizer/New_Systems/rnas/1lvj

>  <Rbt.Executable>
rbdock ($Id: //depot/dev/client3/rdock/2013.1/src/exe/rbdock.cxx#4 $)

>  <Rbt.Library>
libRbt.so (2013.1, Build901 2013/11/27)

>  <Rbt.Parameter_File>
/export/apps/rDock/src/rDock_2013.1_src/data/scripts/dock_solv.prm

>  <Rbt.Receptor>
prm/pocket_docking_2.prm

>  <SCORE>
-11.7362

>  <SCORE.INTER>
-15.3738

>  <SCORE.INTER.CONST>
1

>  <SCORE.INTER.POLAR>
0

>  <SCORE.INTER.ROT>
5

>  <SCORE.INTER.SOLV>
17.4339

>  <SCORE.INTER.VDW>
-22.9939

>  <SCORE.INTER.norm>
-0.668427

>  <SCORE.INTRA>
0.842913

>  <SCORE.INTRA.DIHEDRAL>
-4.83006

>  <SCORE.INTRA.DIHEDRAL.0>
8.06479

>  <SCORE.INTRA.POLAR>
0

>  <SCORE.INTRA.POLAR.0>
0

>  <SCORE.INTRA.REPUL>
0

>  <SCORE.INTRA.REPUL.0>
0

>  <SCORE.INTRA.SOLV>
-0.289885

>  <SCORE.INTRA.SOLV.lig_0>
-29.8054

>  <SCORE.INTRA.VDW>
3.40289

>  <SCORE.INTRA.VDW.0>
2.61447

>  <SCORE.INTRA.norm>
0.0366484

>  <SCORE.RESTR>
2.79474

>  <SCORE.RESTR.CAVITY>
2.79474

>  <SCORE.RESTR.norm>
0.12151

>  <SCORE.SYSTEM>
0

>  <SCORE.SYSTEM.CONST>
0

>  <SCORE.SYSTEM.DIHEDRAL>
0

>  <SCORE.SYSTEM.SOLV>
0

>  <SCORE.SYSTEM.norm>
0

>  <SCORE.heavy>
23

>  <SCORE.norm>
-0.510269

>  <RMSD>
6.070

$$$$

 OpenBabel11021811403D
libRbt.so/2013.1/901 2013/11/27
 23 25  0  0  0  0  0  0  0  0999 V2000
  -24.5461    8.5463   11.5322 S   0  0  0  0  0  0  0  0  0  0  0  0
  -22.8580    7.4569    9.3339 N   0  0  0  0  0  0  0  0  0  0  0  0
  -24.6635    6.7361    7.9074 C   0  0  0  0  0  0  0  0  0  0  0  0
  -26.0419    6.6255    7.6819 C   0  0  0  0  0  0  0  0  0  0  0  0
  -26.9469    7.1046    8.6243 C   0  0  0  0  0  0  0  0  0  0  0  0
  -26.4823    7.6911    9.7964 C   0  0  0  0  0  0  0  0  0  0  0  0
  -25.1145    7.8041   10.0323 C   0  0  0  0  0  0  0  0  0  0  0  0
  -24.1958    7.3278    9.0893 C   0  0  0  0  0  0  0  0  0  0  0  0
  -23.2471    7.3621   11.6907 C   0  0  0  0  0  0  0  0  0  0  0  0
  -22.9221    6.8422   12.9470 C   0  0  0  0  0  0  0  0  0  0  0  0
  -21.8893    5.9083   13.0689 C   0  0  0  0  0  0  0  0  0  0  0  0
  -21.1816    5.5003   11.9336 C   0  0  0  0  0  0  0  0  0  0  0  0
  -21.5106    6.0239   10.6827 C   0  0  0  0  0  0  0  0  0  0  0  0
  -22.5385    6.9481   10.5571 C   0  0  0  0  0  0  0  0  0  0  0  0
  -21.8815    7.3415    8.2225 C   0  0  0  0  0  0  0  0  0  0  0  0
  -21.9272    8.4463    7.1147 C   0  0  0  0  0  0  0  0  0  0  0  0
  -22.7400    8.0227    5.8439 C   0  0  0  0  0  0  0  0  0  0  0  0
  -22.2411    6.8631    5.0612 N   0  3  0  0  0  0  0  0  0  0  0  0
  -20.7904    6.9897    4.7665 C   0  0  0  0  0  0  0  0  0  0  0  0
  -23.0492    6.6849    3.8053 C   0  0  0  0  0  0  0  0  0  0  0  0
  -26.5549    5.9856    6.4234 C   0  0  0  0  0  0  0  0  0  0  0  0
  -26.1321    6.4625    5.0551 C   0  0  0  0  0  0  0  0  0  0  0  0
  -27.2885    5.0130    6.5022 O   0  0  0  0  0  0  0  0  0  0  0  0
  1  7  1  0  0  0  0
  1  9  1  0  0  0  0
  2  8  1  0  0  0  0
  2 14  1  0  0  0  0
  2 15  1  0  0  0  0
  3  4  2  0  0  0  0
  3  8  1  0  0  0  0
  4  5  1  0  0  0  0
  4 21  1  0  0  0  0
  5  6  2  0  0  0  0
  6  7  1  0  0  0  0
  7  8  2  0  0  0  0
  9 10  2  0  0  0  0
  9 14  1  0  0  0  0
 10 11  1  0  0  0  0
 11 12  2  0  0  0  0
 12 13  1  0  0  0  0
 13 14  2  0  0  0  0
 15 16  1  0  0  0  0
 16 17  1  0  0  0  0
 17 18  1  0  0  0  0
 18 19  1  0  0  0  0
 18 20  1  0  0  0  0
 21 22  1  0  0  0  0
 21 23  2  0  0  0  0
M  CHG  1  18   1
M  END
>  <CHROM.1>
65.58268975,-54.87539863,-97.42251964,-62.68319738,70.77020105,-23.79833055
7.02072024,8.62750904,1.40120593,0.04003195,1.52118846

>  <Name>


>  <RI>
0

>  <Rbt.Current_Directory>
/home/itssahil/PROJECTS/Mol_Feturizer/New_Systems/rnas/1lvj

>  <Rbt.Executable>
rbdock ($Id: //depot/dev/client3/rdock/2013.1/src/exe/rbdock.cxx#4 $)

>  <Rbt.Library>
libRbt.so (2013.1, Build901 2013/11/27)

>  <Rbt.Parameter_File>
/export/apps/rDock/src/rDock_2013.1_src/data/scripts/dock_solv.prm

>  <Rbt.Receptor>
prm/pocket_docking_3.prm

>  <SCORE>
-16.7595

>  <SCORE.INTER>
-18.4265

>  <SCORE.INTER.CONST>
1

>  <SCORE.INTER.POLAR>
-1.58386

>  <SCORE.INTER.ROT>
5

>  <SCORE.INTER.SOLV>
19.3701

>  <SCORE.INTER.VDW>
-20.3948

>  <SCORE.INTER.norm>
-0.801152

>  <SCORE.INTRA>
1.40666

>  <SCORE.INTRA.DIHEDRAL>
5.44755

>  <SCORE.INTRA.DIHEDRAL.0>
8.06479

>  <SCORE.INTRA.POLAR>
0

>  <SCORE.INTRA.POLAR.0>
0

>  <SCORE.INTRA.REPUL>
0

>  <SCORE.INTRA.REPUL.0>
0

>  <SCORE.INTRA.SOLV>
3.16989

>  <SCORE.INTRA.SOLV.lig_0>
-29.8054

>  <SCORE.INTRA.VDW>
-2.90206

>  <SCORE.INTRA.VDW.0>
2.61447

>  <SCORE.INTRA.norm>
0.061159

>  <SCORE.RESTR>
0.26034

>  <SCORE.RESTR.CAVITY>
0.26034

>  <SCORE.RESTR.norm>
0.0113191

>  <SCORE.SYSTEM>
0

>  <SCORE.SYSTEM.CONST>
0

>  <SCORE.SYSTEM.DIHEDRAL>
0

>  <SCORE.SYSTEM.SOLV>
0

>  <SCORE.SYSTEM.norm>
0

>  <SCORE.heavy>
23

>  <SCORE.norm>
-0.728673

>  <RMSD>
6.071

$$$$

 OpenBabel11021811403D
libRbt.so/2013.1/901 2013/11/27
 23 25  0  0  0  0  0  0  0  0999 V2000
  -26.1306    6.9787    8.4013 S   0  0  0  0  0  0  0  0  0  0  0  0
  -23.5351    6.8249    9.8536 N   0  0  0  0  0  0  0  0  0  0  0  0
  -24.1906    8.1396   11.7657 C   0  0  0  0  0  0  0  0  0  0  0  0
  -25.1801    8.8729   12.4338 C   0  0  0  0  0  0  0  0  0  0  0  0
  -26.4454    9.0161   11.8724 C   0  0  0  0  0  0  0  0  0  0  0  0
  -26.7282    8.4334   10.6418 C   0  0  0  0  0  0  0  0  0  0  0  0
  -25.7517    7.7045    9.9677 C   0  0  0  0  0  0  0  0  0  0  0  0
  -24.4765    7.5522   10.5252 C   0  0  0  0  0  0  0  0  0  0  0  0
  -24.5398    7.3964    7.7610 C   0  0  0  0  0  0  0  0  0  0  0  0
  -24.4110    7.8502    6.4450 C   0  0  0  0  0  0  0  0  0  0  0  0
  -23.1488    8.1751    5.9402 C   0  0  0  0  0  0  0  0  0  0  0  0
  -22.0181    8.0411    6.7526 C   0  0  0  0  0  0  0  0  0  0  0  0
  -22.1537    7.5869    8.0649 C   0  0  0  0  0  0  0  0  0  0  0  0
  -23.4060    7.2674    8.5712 C   0  0  0  0  0  0  0  0  0  0  0  0
  -22.3401    6.3106   10.5675 C   0  0  0  0  0  0  0  0  0  0  0  0
  -22.5773    5.2112   11.6560 C   0  0  0  0  0  0  0  0  0  0  0  0
  -21.3322    4.9634   12.5745 C   0  0  0  0  0  0  0  0  0  0  0  0
  -20.8884    6.0781   13.4499 N   0  3  0  0  0  0  0  0  0  0  0  0
  -19.8552    6.9135   12.7848 C   0  0  0  0  0  0  0  0  0  0  0  0
  -20.4086    5.5522   14.7747 C   0  0  0  0  0  0  0  0  0  0  0  0
  -24.8829    9.5143   13.7592 C   0  0  0  0  0  0  0  0  0  0  0  0
  -25.9181    9.6013   14.8544 C   0  0  0  0  0  0  0  0  0  0  0  0
  -23.7563    9.9257   13.9863 O   0  0  0  0  0  0  0  0  0  0  0  0
  1  7  1  0  0  0  0
  1  9  1  0  0  0  0
  2  8  1  0  0  0  0
  2 14  1  0  0  0  0
  2 15  1  0  0  0  0
  3  4  2  0  0  0  0
  3  8  1  0  0  0  0
  4  5  1  0  0  0  0
  4 21  1  0  0  0  0
  5  6  2  0  0  0  0
  6  7  1  0  0  0  0
  7  8  2  0  0  0  0
  9 10  2  0  0  0  0
  9 14  1  0  0  0  0
 10 11  1  0  0  0  0
 11 12  2  0  0  0  0
 12 13  1  0  0  0  0
 13 14  2  0  0  0  0
 15 16  1  0  0  0  0
 16 17  1  0  0  0  0
 17 18  1  0  0  0  0
 18 19  1  0  0  0  0
 18 20  1  0  0  0  0
 21 22  1  0  0  0  0
 21 23  2  0  0  0  0
M  CHG  1  18   1
M  END
>  <CHROM.1>
66.90591837,-144.09763916,-166.88325470,64.67798605,27.79155170,-23.72208416
7.50755637,10.73842530,1.93897653,0.49646616,-1.69520367

>  <Name>


>  <RI>
0

>  <Rbt.Current_Directory>
/home/itssahil/PROJECTS/Mol_Feturizer/New_Systems/rnas/1lvj

>  <Rbt.Executable>
rbdock ($Id: //depot/dev/client3/rdock/2013.1/src/exe/rbdock.cxx#4 $)

>  <Rbt.Library>
libRbt.so (2013.1, Build901 2013/11/27)

>  <Rbt.Parameter_File>
/export/apps/rDock/src/rDock_2013.1_src/data/scripts/dock_solv.prm

>  <Rbt.Receptor>
prm/pocket_docking_5.prm

>  <SCORE>
-27.5632

>  <SCORE.INTER>
-25.0593

>  <SCORE.INTER.CONST>
1

>  <SCORE.INTER.POLAR>
0

>  <SCORE.INTER.ROT>
5

>  <SCORE.INTER.SOLV>
7.61687

>  <SCORE.INTER.VDW>
-26.1785

>  <SCORE.INTER.norm>
-1.08954

>  <SCORE.INTRA>
-2.50518

>  <SCORE.INTRA.DIHEDRAL>
-0.498681

>  <SCORE.INTRA.DIHEDRAL.0>
8.06479

>  <SCORE.INTRA.POLAR>
0

>  <SCORE.INTRA.POLAR.0>
0

>  <SCORE.INTRA.REPUL>
0

>  <SCORE.INTRA.REPUL.0>
0

>  <SCORE.INTRA.SOLV>
2.41662

>  <SCORE.INTRA.SOLV.lig_0>
-29.8054

>  <SCORE.INTRA.VDW>
-3.46415

>  <SCORE.INTRA.VDW.0>
2.61447

>  <SCORE.INTRA.norm>
-0.108921

>  <SCORE.RESTR>
0.00132496

>  <SCORE.RESTR.CAVITY>
0.00132496

>  <SCORE.RESTR.norm>
5.76068e-05

>  <SCORE.SYSTEM>
0

>  <SCORE.SYSTEM.CONST>
0

>  <SCORE.SYSTEM.DIHEDRAL>
0

>  <SCORE.SYSTEM.SOLV>
0

>  <SCORE.SYSTEM.norm>
0

>  <SCORE.heavy>
23

>  <SCORE.norm>
-1.1984

>  <RMSD>
6.082

$$$$

 OpenBabel11021811403D
libRbt.so/2013.1/901 2013/11/27
 23 25  0  0  0  0  0  0  0  0999 V2000
  -26.9701    4.3741   11.6363 S   0  0  0  0  0  0  0  0  0  0  0  0
  -25.3165    6.5760   10.5021 N   0  0  0  0  0  0  0  0  0  0  0  0
  -23.1727    5.7243   11.2040 C   0  0  0  0  0  0  0  0  0  0  0  0
  -22.4332    4.7252   11.8506 C   0  0  0  0  0  0  0  0  0  0  0  0
  -23.0795    3.6309   12.4175 C   0  0  0  0  0  0  0  0  0  0  0  0
  -24.4647    3.5302   12.3464 C   0  0  0  0  0  0  0  0  0  0  0  0
  -25.2100    4.5185   11.7084 C   0  0  0  0  0  0  0  0  0  0  0  0
  -24.5691    5.6220   11.1325 C   0  0  0  0  0  0  0  0  0  0  0  0
  -27.1789    6.1028   11.9243 C   0  0  0  0  0  0  0  0  0  0  0  0
  -28.2065    6.5555   12.7570 C   0  0  0  0  0  0  0  0  0  0  0  0
  -28.3716    7.9257   12.9784 C   0  0  0  0  0  0  0  0  0  0  0  0
  -27.5103    8.8395   12.3625 C   0  0  0  0  0  0  0  0  0  0  0  0
  -26.4871    8.3809   11.5319 C   0  0  0  0  0  0  0  0  0  0  0  0
  -26.3173    7.0208   11.3131 C   0  0  0  0  0  0  0  0  0  0  0  0
  -24.6749    7.5221    9.5559 C   0  0  0  0  0  0  0  0  0  0  0  0
  -25.5656    8.0907    8.4012 C   0  0  0  0  0  0  0  0  0  0  0  0
  -26.3034    6.9805    7.5775 C   0  0  0  0  0  0  0  0  0  0  0  0
  -26.4825    7.2072    6.1207 N   0  3  0  0  0  0  0  0  0  0  0  0
  -27.5613    6.3497    5.5655 C   0  0  0  0  0  0  0  0  0  0  0  0
  -25.1832    7.0075    5.3901 C   0  0  0  0  0  0  0  0  0  0  0  0
  -20.9374    4.8283   11.9413 C   0  0  0  0  0  0  0  0  0  0  0  0
  -20.0902    3.7009   12.4798 C   0  0  0  0  0  0  0  0  0  0  0  0
  -20.3788    5.8260   11.5137 O   0  0  0  0  0  0  0  0  0  0  0  0
  1  7  1  0  0  0  0
  1  9  1  0  0  0  0
  2  8  1  0  0  0  0
  2 14  1  0  0  0  0
  2 15  1  0  0  0  0
  3  4  2  0  0  0  0
  3  8  1  0  0  0  0
  4  5  1  0  0  0  0
  4 21  1  0  0  0  0
  5  6  2  0  0  0  0
  6  7  1  0  0  0  0
  7  8  2  0  0  0  0
  9 10  2  0  0  0  0
  9 14  1  0  0  0  0
 10 11  1  0  0  0  0
 11 12  2  0  0  0  0
 12 13  1  0  0  0  0
 13 14  2  0  0  0  0
 15 16  1  0  0  0  0
 16 17  1  0  0  0  0
 17 18  1  0  0  0  0
 18 19  1  0  0  0  0
 18 20  1  0  0  0  0
 21 22  1  0  0  0  0
 21 23  2  0  0  0  0
M  CHG  1  18   1
M  END
>  <CHROM.1>
151.51684114,-172.53871583,-52.07577517,-144.66773121,-40.60529875,-25.14320406
6.05491397,10.56672622,0.73437179,-0.34755028,1.79415202

>  <Name>


>  <RI>
0

>  <Rbt.Current_Directory>
/home/itssahil/PROJECTS/Mol_Feturizer/New_Systems/rnas/1lvj

>  <Rbt.Executable>
rbdock ($Id: //depot/dev/client3/rdock/2013.1/src/exe/rbdock.cxx#4 $)

>  <Rbt.Library>
libRbt.so (2013.1, Build901 2013/11/27)

>  <Rbt.Parameter_File>
/export/apps/rDock/src/rDock_2013.1_src/data/scripts/dock_solv.prm

>  <Rbt.Receptor>
prm/pocket_docking_7.prm

>  <SCORE>
-32.8598

>  <SCORE.INTER>
-29.0982

>  <SCORE.INTER.CONST>
1

>  <SCORE.INTER.POLAR>
-1.61555

>  <SCORE.INTER.ROT>
5

>  <SCORE.INTER.SOLV>
18.9433

>  <SCORE.INTER.VDW>
-27.2614

>  <SCORE.INTER.norm>
-1.26514

>  <SCORE.INTRA>
-3.76164

>  <SCORE.INTRA.DIHEDRAL>
-2.8526

>  <SCORE.INTRA.DIHEDRAL.0>
8.06479

>  <SCORE.INTRA.POLAR>
0

>  <SCORE.INTRA.POLAR.0>
0

>  <SCORE.INTRA.REPUL>
0

>  <SCORE.INTRA.REPUL.0>
0

>  <SCORE.INTRA.SOLV>
0.600013

>  <SCORE.INTRA.SOLV.lig_0>
-29.8054

>  <SCORE.INTRA.VDW>
-2.63535

>  <SCORE.INTRA.VDW.0>
2.61447

>  <SCORE.INTRA.norm>
-0.16355

>  <SCORE.RESTR>
0

>  <SCORE.RESTR.CAVITY>
0

>  <SCORE.RESTR.norm>
0

>  <SCORE.SYSTEM>
0

>  <SCORE.SYSTEM.CONST>
0

>  <SCORE.SYSTEM.DIHEDRAL>
0

>  <SCORE.SYSTEM.SOLV>
0

>  <SCORE.SYSTEM.norm>
0

>  <SCORE.heavy>
23

>  <SCORE.norm>
-1.42869

>  <RMSD>
6.086

$$$$

 OpenBabel11021811403D
libRbt.so/2013.1/901 2013/11/27
 23 25  0  0  0  0  0  0  0  0999 V2000
  -22.6053    7.5421   10.5361 S   0  0  0  0  0  0  0  0  0  0  0  0
  -25.3916    6.4964   10.4262 N   0  0  0  0  0  0  0  0  0  0  0  0
  -25.6665    6.6448    8.0353 C   0  0  0  0  0  0  0  0  0  0  0  0
  -25.1266    6.9735    6.7848 C   0  0  0  0  0  0  0  0  0  0  0  0
  -23.8279    7.4641    6.6893 C   0  0  0  0  0  0  0  0  0  0  0  0
  -23.0640    7.6332    7.8389 C   0  0  0  0  0  0  0  0  0  0  0  0
  -23.5912    7.3122    9.0872 C   0  0  0  0  0  0  0  0  0  0  0  0
  -24.8957    6.8153    9.1939 C   0  0  0  0  0  0  0  0  0  0  0  0
  -23.9909    8.1404   11.4510 C   0  0  0  0  0  0  0  0  0  0  0  0
  -23.8362    9.2100   12.3378 C   0  0  0  0  0  0  0  0  0  0  0  0
  -24.9350    9.6776   13.0642 C   0  0  0  0  0  0  0  0  0  0  0  0
  -26.1850    9.0707   12.9043 C   0  0  0  0  0  0  0  0  0  0  0  0
  -26.3322    8.0030   12.0181 C   0  0  0  0  0  0  0  0  0  0  0  0
  -25.2444    7.5387   11.2916 C   0  0  0  0  0  0  0  0  0  0  0  0
  -26.5792    5.6149   10.5476 C   0  0  0  0  0  0  0  0  0  0  0  0
  -26.6374    4.6628   11.7885 C   0  0  0  0  0  0  0  0  0  0  0  0
  -27.8097    3.6250   11.7246 C   0  0  0  0  0  0  0  0  0  0  0  0
  -29.1965    4.1539   11.6693 N   0  3  0  0  0  0  0  0  0  0  0  0
  -29.6317    4.6778   12.9898 C   0  0  0  0  0  0  0  0  0  0  0  0
  -30.1422    3.1069   11.1484 C   0  0  0  0  0  0  0  0  0  0  0  0
  -25.9459    6.8034    5.5373 C   0  0  0  0  0  0  0  0  0  0  0  0
  -27.4432    6.6177    5.5841 C   0  0  0  0  0  0  0  0  0  0  0  0
  -25.4001    6.8761    4.4478 O   0  0  0  0  0  0  0  0  0  0  0  0
  1  7  1  0  0  0  0
  1  9  1  0  0  0  0
  2  8  1  0  0  0  0
  2 14  1  0  0  0  0
  2 15  1  0  0  0  0
  3  4  2  0  0  0  0
  3  8  1  0  0  0  0
  4  5  1  0  0  0  0
  4 21  1  0  0  0  0
  5  6  2  0  0  0  0
  6  7  1  0  0  0  0
  7  8  2  0  0  0  0
  9 10  2  0  0  0  0
  9 14  1  0  0  0  0
 10 11  1  0  0  0  0
 11 12  2  0  0  0  0
 12 13  1  0  0  0  0
 13 14  2  0  0  0  0
 15 16  1  0  0  0  0
 16 17  1  0  0  0  0
 17 18  1  0  0  0  0
 18 19  1  0  0  0  0
 18 20  1  0  0  0  0
 21 22  1  0  0  0  0
 21 23  2  0  0  0  0
M  CHG  1  18   1
M  END
>  <CHROM.1>
146.48832148,15.59043204,-171.40386589,-60.80450634,45.49074174,-25.72341868
6.69445999,9.90584283,-0.73131687,0.65497135,1.44911875

>  <Name>


>  <RI>
0

>  <Rbt.Current_Directory>
/home/itssahil/PROJECTS/Mol_Feturizer/New_Systems/rnas/1lvj

>  <Rbt.Executable>
rbdock ($Id: //depot/dev/client3/rdock/2013.1/src/exe/rbdock.cxx#4 $)

>  <Rbt.Library>
libRbt.so (2013.1, Build901 2013/11/27)

>  <Rbt.Parameter_File>
/export/apps/rDock/src/rDock_2013.1_src/data/scripts/dock_solv.prm

>  <Rbt.Receptor>
prm/pocket_docking_6.prm

>  <SCORE>
-33.6832

>  <SCORE.INTER>
-29.0743

>  <SCORE.INTER.CONST>
1

>  <SCORE.INTER.POLAR>
-1.1619

>  <SCORE.INTER.ROT>
5

>  <SCORE.INTER.SOLV>
14.2256

>  <SCORE.INTER.VDW>
-27.1851

>  <SCORE.INTER.norm>
-1.2641

>  <SCORE.INTRA>
-4.60884

>  <SCORE.INTRA.DIHEDRAL>
-5.61544

>  <SCORE.INTRA.DIHEDRAL.0>
8.06479

>  <SCORE.INTRA.POLAR>
0

>  <SCORE.INTRA.POLAR.0>
0

>  <SCORE.INTRA.REPUL>
0

>  <SCORE.INTRA.REPUL.0>
0

>  <SCORE.INTRA.SOLV>
2.04561

>  <SCORE.INTRA.SOLV.lig_0>
-29.8054

>  <SCORE.INTRA.VDW>
-2.82393

>  <SCORE.INTRA.VDW.0>
2.61447

>  <SCORE.INTRA.norm>
-0.200384

>  <SCORE.RESTR>
0

>  <SCORE.RESTR.CAVITY>
0

>  <SCORE.RESTR.norm>
0

>  <SCORE.SYSTEM>
0

>  <SCORE.SYSTEM.CONST>
0

>  <SCORE.SYSTEM.DIHEDRAL>
0

>  <SCORE.SYSTEM.SOLV>
0

>  <SCORE.SYSTEM.norm>
0

>  <SCORE.heavy>
23

>  <SCORE.norm>
-1.46449

>  <RMSD>
6.093

$$$$

 OpenBabel11021811403D
libRbt.so/2013.1/901 2013/11/27
 23 25  0  0  0  0  0  0  0  0999 V2000
  -20.6937    6.2307    6.0040 S   0  0  0  0  0  0  0  0  0  0  0  0
  -23.0940    6.5933    4.2787 N   0  0  0  0  0  0  0  0  0  0  0  0
  -21.9473    7.5242    2.3728 C   0  0  0  0  0  0  0  0  0  0  0  0
  -20.7449    7.9253    1.7757 C   0  0  0  0  0  0  0  0  0  0  0  0
  -19.5435    7.8010    2.4670 C   0  0  0  0  0  0  0  0  0  0  0  0
  -19.5361    7.2811    3.7568 C   0  0  0  0  0  0  0  0  0  0  0  0
  -20.7254    6.8817    4.3610 C   0  0  0  0  0  0  0  0  0  0  0  0
  -21.9390    7.0000    3.6731 C   0  0  0  0  0  0  0  0  0  0  0  0
  -22.1771    7.0863    6.4308 C   0  0  0  0  0  0  0  0  0  0  0  0
  -22.3082    7.6759    7.6915 C   0  0  0  0  0  0  0  0  0  0  0  0
  -23.4867    8.3484    8.0274 C   0  0  0  0  0  0  0  0  0  0  0  0
  -24.5326    8.4253    7.1020 C   0  0  0  0  0  0  0  0  0  0  0  0
  -24.3955    7.8338    5.8457 C   0  0  0  0  0  0  0  0  0  0  0  0
  -23.2251    7.1690    5.5069 C   0  0  0  0  0  0  0  0  0  0  0  0
  -24.3085    6.3283    3.4682 C   0  0  0  0  0  0  0  0  0  0  0  0
  -25.5196    5.6554    4.1963 C   0  0  0  0  0  0  0  0  0  0  0  0
  -26.5549    6.6841    4.7666 C   0  0  0  0  0  0  0  0  0  0  0  0
  -27.4416    6.2310    5.8686 N   0  3  0  0  0  0  0  0  0  0  0  0
  -26.7383    6.2551    7.1772 C   0  0  0  0  0  0  0  0  0  0  0  0
  -28.0075    4.8705    5.5676 C   0  0  0  0  0  0  0  0  0  0  0  0
  -20.7422    8.4966    0.3865 C   0  0  0  0  0  0  0  0  0  0  0  0
  -19.6334    9.3949   -0.1057 C   0  0  0  0  0  0  0  0  0  0  0  0
  -21.6281    8.1818   -0.3922 O   0  0  0  0  0  0  0  0  0  0  0  0
  1  7  1  0  0  0  0
  1  9  1  0  0  0  0
  2  8  1  0  0  0  0
  2 14  1  0  0  0  0
  2 15  1  0  0  0  0
  3  4  2  0  0  0  0
  3  8  1  0  0  0  0
  4  5  1  0  0  0  0
  4 21  1  0  0  0  0
  5  6  2  0  0  0  0
  6  7  1  0  0  0  0
  7  8  2  0  0  0  0
  9 10  2  0  0  0  0
  9 14  1  0  0  0  0
 10 11  1  0  0  0  0
 11 12  2  0  0  0  0
 12 13  1  0  0  0  0
 13 14  2  0  0  0  0
 15 16  1  0  0  0  0
 16 17  1  0  0  0  0
 17 18  1  0  0  0  0
 18 19  1  0  0  0  0
 18 20  1  0  0  0  0
 21 22  1  0  0  0  0
 21 23  2  0  0  0  0
M  CHG  1  18   1
M  END
>  <CHROM.1>
170.70279244,156.66514544,93.02916755,-158.01543815,-160.61539276,-22.96202090
7.13774093,4.42701263,-0.69724305,0.20588820,1.66012606

>  <Name>


>  <RI>
0

>  <Rbt.Current_Directory>
/home/itssahil/PROJECTS/Mol_Feturizer/New_Systems/rnas/1lvj

>  <Rbt.Executable>
rbdock ($Id: //depot/dev/client3/rdock/2013.1/src/exe/rbdock.cxx#4 $)

>  <Rbt.Library>
libRbt.so (2013.1, Build901 2013/11/27)

>  <Rbt.Parameter_File>
/export/apps/rDock/src/rDock_2013.1_src/data/scripts/dock_solv.prm

>  <Rbt.Receptor>
prm/blind_docking_100.prm

>  <SCORE>
20.1501

>  <SCORE.INTER>
11.7555

>  <SCORE.INTER.CONST>
1

>  <SCORE.INTER.POLAR>
-0.0249066

>  <SCORE.INTER.ROT>
5

>  <SCORE.INTER.SOLV>
22.4555

>  <SCORE.INTER.VDW>
-6.4985

>  <SCORE.INTER.norm>
0.511107

>  <SCORE.INTRA>
3.85654

>  <SCORE.INTRA.DIHEDRAL>
-0.00627696

>  <SCORE.INTRA.DIHEDRAL.0>
8.06479

>  <SCORE.INTRA.POLAR>
0

>  <SCORE.INTRA.POLAR.0>
0

>  <SCORE.INTRA.REPUL>
0

>  <SCORE.INTRA.REPUL.0>
0

>  <SCORE.INTRA.SOLV>
-0.129876

>  <SCORE.INTRA.SOLV.lig_0>
-29.8054

>  <SCORE.INTRA.VDW>
3.92462

>  <SCORE.INTRA.VDW.0>
2.61447

>  <SCORE.INTRA.norm>
0.167676

>  <SCORE.RESTR>
4.53807

>  <SCORE.RESTR.CAVITY>
4.53807

>  <SCORE.RESTR.norm>
0.197307

>  <SCORE.SYSTEM>
0

>  <SCORE.SYSTEM.CONST>
0

>  <SCORE.SYSTEM.DIHEDRAL>
0

>  <SCORE.SYSTEM.SOLV>
0

>  <SCORE.SYSTEM.norm>
0

>  <SCORE.heavy>
23

>  <SCORE.norm>
0.87609

>  <RMSD>
6.095

$$$$

 OpenBabel11021811403D
libRbt.so/2013.1/901 2013/11/27
 23 25  0  0  0  0  0  0  0  0999 V2000
  -25.1405    8.6226   10.3315 S   0  0  0  0  0  0  0  0  0  0  0  0
  -23.0284    7.8616    8.3747 N   0  0  0  0  0  0  0  0  0  0  0  0
  -24.5000    6.9614    6.6900 C   0  0  0  0  0  0  0  0  0  0  0  0
  -25.8047    6.6744    6.2676 C   0  0  0  0  0  0  0  0  0  0  0  0
  -26.8896    6.9880    7.0807 C   0  0  0  0  0  0  0  0  0  0  0  0
  -26.6786    7.5841    8.3192 C   0  0  0  0  0  0  0  0  0  0  0  0
  -25.3861    7.8716    8.7505 C   0  0  0  0  0  0  0  0  0  0  0  0
  -24.2880    7.5626    7.9387 C   0  0  0  0  0  0  0  0  0  0  0  0
  -23.7234    7.6197   10.6492 C   0  0  0  0  0  0  0  0  0  0  0  0
  -23.5063    7.0981   11.9279 C   0  0  0  0  0  0  0  0  0  0  0  0
  -22.3801    6.3085   12.1767 C   0  0  0  0  0  0  0  0  0  0  0  0
  -21.4718    6.0464   11.1458 C   0  0  0  0  0  0  0  0  0  0  0  0
  -21.6941    6.5708    9.8720 C   0  0  0  0  0  0  0  0  0  0  0  0
  -22.8137    7.3517    9.6201 C   0  0  0  0  0  0  0  0  0  0  0  0
  -21.9007    7.9245    7.4121 C   0  0  0  0  0  0  0  0  0  0  0  0
  -22.2624    7.9435    5.8894 C   0  0  0  0  0  0  0  0  0  0  0  0
  -21.2393    7.1633    4.9951 C   0  0  0  0  0  0  0  0  0  0  0  0
  -21.3830    7.2793    3.5214 N   0  3  0  0  0  0  0  0  0  0  0  0
  -21.3796    8.6995    3.0848 C   0  0  0  0  0  0  0  0  0  0  0  0
  -22.6155    6.5570    3.0511 C   0  0  0  0  0  0  0  0  0  0  0  0
  -26.0438    6.0223    4.9356 C   0  0  0  0  0  0  0  0  0  0  0  0
  -27.3164    5.2696    4.6317 C   0  0  0  0  0  0  0  0  0  0  0  0
  -25.2154    6.1513    4.0483 O   0  0  0  0  0  0  0  0  0  0  0  0
  1  7  1  0  0  0  0
  1  9  1  0  0  0  0
  2  8  1  0  0  0  0
  2 14  1  0  0  0  0
  2 15  1  0  0  0  0
  3  4  2  0  0  0  0
  3  8  1  0  0  0  0
  4  5  1  0  0  0  0
  4 21  1  0  0  0  0
  5  6  2  0  0  0  0
  6  7  1  0  0  0  0
  7  8  2  0  0  0  0
  9 10  2  0  0  0  0
  9 14  1  0  0  0  0
 10 11  1  0  0  0  0
 11 12  2  0  0  0  0
 12 13  1  0  0  0  0
 13 14  2  0  0  0  0
 15 16  1  0  0  0  0
 16 17  1  0  0  0  0
 17 18  1  0  0  0  0
 18 19  1  0  0  0  0
 18 20  1  0  0  0  0
 21 22  1  0  0  0  0
 21 23  2  0  0  0  0
M  CHG  1  18   1
M  END
>  <CHROM.1>
12.75580111,158.35557510,-144.38611758,-171.59883122,174.64474280,-23.80685056
7.21391916,7.44432218,1.58381560,0.11415987,1.50599167

>  <Name>


>  <RI>
0

>  <Rbt.Current_Directory>
/home/itssahil/PROJECTS/Mol_Feturizer/New_Systems/rnas/1lvj

>  <Rbt.Executable>
rbdock ($Id: //depot/dev/client3/rdock/2013.1/src/exe/rbdock.cxx#4 $)

>  <Rbt.Library>
libRbt.so (2013.1, Build901 2013/11/27)

>  <Rbt.Parameter_File>
/export/apps/rDock/src/rDock_2013.1_src/data/scripts/dock_solv.prm

>  <Rbt.Receptor>
prm/pocket_docking_2.prm

>  <SCORE>
-11.2744

>  <SCORE.INTER>
-20.0848

>  <SCORE.INTER.CONST>
1

>  <SCORE.INTER.POLAR>
0

>  <SCORE.INTER.ROT>
5

>  <SCORE.INTER.SOLV>
14.3734

>  <SCORE.INTER.VDW>
-25.1143

>  <SCORE.INTER.norm>
-0.873251

>  <SCORE.INTRA>
5.45623

>  <SCORE.INTRA.DIHEDRAL>
-0.616571

>  <SCORE.INTRA.DIHEDRAL.0>
8.06479

>  <SCORE.INTRA.POLAR>
0

>  <SCORE.INTRA.POLAR.0>
0

>  <SCORE.INTRA.REPUL>
0

>  <SCORE.INTRA.REPUL.0>
0

>  <SCORE.INTRA.SOLV>
-0.134984

>  <SCORE.INTRA.SOLV.lig_0>
-29.8054

>  <SCORE.INTRA.VDW>
5.83201

>  <SCORE.INTRA.VDW.0>
2.61447

>  <SCORE.INTRA.norm>
0.237227

>  <SCORE.RESTR>
3.35415

>  <SCORE.RESTR.CAVITY>
3.35415

>  <SCORE.RESTR.norm>
0.145833

>  <SCORE.SYSTEM>
0

>  <SCORE.SYSTEM.CONST>
0

>  <SCORE.SYSTEM.DIHEDRAL>
0

>  <SCORE.SYSTEM.SOLV>
0

>  <SCORE.SYSTEM.norm>
0

>  <SCORE.heavy>
23

>  <SCORE.norm>
-0.490191

>  <RMSD>
6.095

$$$$

 OpenBabel11021811403D
libRbt.so/2013.1/901 2013/11/27
 23 25  0  0  0  0  0  0  0  0999 V2000
  -25.3754    8.5091   10.0210 S   0  0  0  0  0  0  0  0  0  0  0  0
  -23.3526    8.1078    7.8724 N   0  0  0  0  0  0  0  0  0  0  0  0
  -24.7962    6.9564    6.3218 C   0  0  0  0  0  0  0  0  0  0  0  0
  -26.0655    6.4468    6.0181 C   0  0  0  0  0  0  0  0  0  0  0  0
  -27.1089    6.5753    6.9299 C   0  0  0  0  0  0  0  0  0  0  0  0
  -26.8906    7.2077    8.1491 C   0  0  0  0  0  0  0  0  0  0  0  0
  -25.6325    7.7157    8.4626 C   0  0  0  0  0  0  0  0  0  0  0  0
  -24.5769    7.5940    7.5510 C   0  0  0  0  0  0  0  0  0  0  0  0
  -23.7842    7.7666   10.1988 C   0  0  0  0  0  0  0  0  0  0  0  0
  -23.3645    7.2992   11.4477 C   0  0  0  0  0  0  0  0  0  0  0  0
  -22.1015    6.7163   11.5853 C   0  0  0  0  0  0  0  0  0  0  0  0
  -21.2602    6.6066   10.4734 C   0  0  0  0  0  0  0  0  0  0  0  0
  -21.6850    7.0759    9.2299 C   0  0  0  0  0  0  0  0  0  0  0  0
  -22.9403    7.6513    9.0884 C   0  0  0  0  0  0  0  0  0  0  0  0
  -22.3456    8.3564    6.8112 C   0  0  0  0  0  0  0  0  0  0  0  0
  -21.6693    7.1033    6.1614 C   0  0  0  0  0  0  0  0  0  0  0  0
  -20.8924    7.4282    4.8400 C   0  0  0  0  0  0  0  0  0  0  0  0
  -21.6859    7.5840    3.5942 N   0  3  0  0  0  0  0  0  0  0  0  0
  -21.5548    6.3945    2.7136 C   0  0  0  0  0  0  0  0  0  0  0  0
  -21.3036    8.8499    2.8777 C   0  0  0  0  0  0  0  0  0  0  0  0
  -26.3103    5.7538    4.7080 C   0  0  0  0  0  0  0  0  0  0  0  0
  -27.5781    4.9800    4.4384 C   0  0  0  0  0  0  0  0  0  0  0  0
  -25.4916    5.8651    3.8095 O   0  0  0  0  0  0  0  0  0  0  0  0
  1  7  1  0  0  0  0
  1  9  1  0  0  0  0
  2  8  1  0  0  0  0
  2 14  1  0  0  0  0
  2 15  1  0  0  0  0
  3  4  2  0  0  0  0
  3  8  1  0  0  0  0
  4  5  1  0  0  0  0
  4 21  1  0  0  0  0
  5  6  2  0  0  0  0
  6  7  1  0  0  0  0
  7  8  2  0  0  0  0
  9 10  2  0  0  0  0
  9 14  1  0  0  0  0
 10 11  1  0  0  0  0
 11 12  2  0  0  0  0
 12 13  1  0  0  0  0
 13 14  2  0  0  0  0
 15 16  1  0  0  0  0
 16 17  1  0  0  0  0
 17 18  1  0  0  0  0
 18 19  1  0  0  0  0
 18 20  1  0  0  0  0
 21 22  1  0  0  0  0
 21 23  2  0  0  0  0
M  CHG  1  18   1
M  END
>  <CHROM.1>
-71.75211416,168.95093003,166.16424243,-79.25039536,15.38078460,-23.86436136
7.22374826,7.13103121,1.63070886,0.19262557,1.44686693

>  <Name>


>  <RI>
0

>  <Rbt.Current_Directory>
/home/itssahil/PROJECTS/Mol_Feturizer/New_Systems/rnas/1lvj

>  <Rbt.Executable>
rbdock ($Id: //depot/dev/client3/rdock/2013.1/src/exe/rbdock.cxx#4 $)

>  <Rbt.Library>
libRbt.so (2013.1, Build901 2013/11/27)

>  <Rbt.Parameter_File>
/export/apps/rDock/src/rDock_2013.1_src/data/scripts/dock_solv.prm

>  <Rbt.Receptor>
prm/pocket_docking_2.prm

>  <SCORE>
-19.2479

>  <SCORE.INTER>
-21.1304

>  <SCORE.INTER.CONST>
1

>  <SCORE.INTER.POLAR>
0

>  <SCORE.INTER.ROT>
5

>  <SCORE.INTER.SOLV>
18.8454

>  <SCORE.INTER.VDW>
-27.3021

>  <SCORE.INTER.norm>
-0.918714

>  <SCORE.INTRA>
-2.11922

>  <SCORE.INTRA.DIHEDRAL>
-2.11206

>  <SCORE.INTRA.DIHEDRAL.0>
8.06479

>  <SCORE.INTRA.POLAR>
0

>  <SCORE.INTRA.POLAR.0>
0

>  <SCORE.INTRA.REPUL>
0

>  <SCORE.INTRA.REPUL.0>
0

>  <SCORE.INTRA.SOLV>
3.27823

>  <SCORE.INTRA.SOLV.lig_0>
-29.8054

>  <SCORE.INTRA.VDW>
-2.70231

>  <SCORE.INTRA.VDW.0>
2.61447

>  <SCORE.INTRA.norm>
-0.0921401

>  <SCORE.RESTR>
4.00171

>  <SCORE.RESTR.CAVITY>
4.00171

>  <SCORE.RESTR.norm>
0.173987

>  <SCORE.SYSTEM>
0

>  <SCORE.SYSTEM.CONST>
0

>  <SCORE.SYSTEM.DIHEDRAL>
0

>  <SCORE.SYSTEM.SOLV>
0

>  <SCORE.SYSTEM.norm>
0

>  <SCORE.heavy>
23

>  <SCORE.norm>
-0.836867

>  <RMSD>
6.096

$$$$

 OpenBabel11021811403D
libRbt.so/2013.1/901 2013/11/27
 23 25  0  0  0  0  0  0  0  0999 V2000
  -22.6094    7.5638   10.5245 S   0  0  0  0  0  0  0  0  0  0  0  0
  -25.3909    6.5042   10.4265 N   0  0  0  0  0  0  0  0  0  0  0  0
  -25.6733    6.6425    8.0359 C   0  0  0  0  0  0  0  0  0  0  0  0
  -25.1387    6.9693    6.7827 C   0  0  0  0  0  0  0  0  0  0  0  0
  -23.8427    7.4658    6.6816 C   0  0  0  0  0  0  0  0  0  0  0  0
  -23.0763    7.6429    7.8284 C   0  0  0  0  0  0  0  0  0  0  0  0
  -23.5983    7.3238    9.0793 C   0  0  0  0  0  0  0  0  0  0  0  0
  -24.9001    6.8210    9.1917 C   0  0  0  0  0  0  0  0  0  0  0  0
  -23.9952    8.1587   11.4413 C   0  0  0  0  0  0  0  0  0  0  0  0
  -23.8432    9.2322   12.3237 C   0  0  0  0  0  0  0  0  0  0  0  0
  -24.9422    9.6971   13.0517 C   0  0  0  0  0  0  0  0  0  0  0  0
  -26.1896    9.0835   12.8976 C   0  0  0  0  0  0  0  0  0  0  0  0
  -26.3342    8.0120   12.0156 C   0  0  0  0  0  0  0  0  0  0  0  0
  -25.2462    7.5503   11.2877 C   0  0  0  0  0  0  0  0  0  0  0  0
  -26.5737    5.6173   10.5545 C   0  0  0  0  0  0  0  0  0  0  0  0
  -26.6022    4.6372   11.7745 C   0  0  0  0  0  0  0  0  0  0  0  0
  -27.7784    3.6035   11.7174 C   0  0  0  0  0  0  0  0  0  0  0  0
  -29.1646    4.1365   11.7039 N   0  3  0  0  0  0  0  0  0  0  0  0
  -29.5485    4.6872   13.0294 C   0  0  0  0  0  0  0  0  0  0  0  0
  -30.1324    3.0832   11.2391 C   0  0  0  0  0  0  0  0  0  0  0  0
  -25.9607    6.7906    5.5382 C   0  0  0  0  0  0  0  0  0  0  0  0
  -27.4614    6.6349    5.5876 C   0  0  0  0  0  0  0  0  0  0  0  0
  -25.4133    6.8314    4.4478 O   0  0  0  0  0  0  0  0  0  0  0  0
  1  7  1  0  0  0  0
  1  9  1  0  0  0  0
  2  8  1  0  0  0  0
  2 14  1  0  0  0  0
  2 15  1  0  0  0  0
  3  4  2  0  0  0  0
  3  8  1  0  0  0  0
  4  5  1  0  0  0  0
  4 21  1  0  0  0  0
  5  6  2  0  0  0  0
  6  7  1  0  0  0  0
  7  8  2  0  0  0  0
  9 10  2  0  0  0  0
  9 14  1  0  0  0  0
 10 11  1  0  0  0  0
 11 12  2  0  0  0  0
 12 13  1  0  0  0  0
 13 14  2  0  0  0  0
 15 16  1  0  0  0  0
 16 17  1  0  0  0  0
 17 18  1  0  0  0  0
 18 19  1  0  0  0  0
 18 20  1  0  0  0  0
 21 22  1  0  0  0  0
 21 23  2  0  0  0  0
M  CHG  1  18   1
M  END
>  <CHROM.1>
144.59989047,17.26622597,-171.72210401,-60.52527632,47.84998074,-25.72032240
6.69611140,9.90875495,-0.74041774,0.66352463,1.44780064

>  <Name>


>  <RI>
0

>  <Rbt.Current_Directory>
/home/itssahil/PROJECTS/Mol_Feturizer/New_Systems/rnas/1lvj

>  <Rbt.Executable>
rbdock ($Id: //depot/dev/client3/rdock/2013.1/src/exe/rbdock.cxx#4 $)

>  <Rbt.Library>
libRbt.so (2013.1, Build901 2013/11/27)

>  <Rbt.Parameter_File>
/export/apps/rDock/src/rDock_2013.1_src/data/scripts/dock_solv.prm

>  <Rbt.Receptor>
prm/pocket_docking_6.prm

>  <SCORE>
-33.6396

>  <SCORE.INTER>
-29.0649

>  <SCORE.INTER.CONST>
1

>  <SCORE.INTER.POLAR>
-1.1619

>  <SCORE.INTER.ROT>
5

>  <SCORE.INTER.SOLV>
14.0531

>  <SCORE.INTER.VDW>
-27.1213

>  <SCORE.INTER.norm>
-1.26369

>  <SCORE.INTRA>
-4.57475

>  <SCORE.INTRA.DIHEDRAL>
-5.51529

>  <SCORE.INTRA.DIHEDRAL.0>
8.06479

>  <SCORE.INTRA.POLAR>
0

>  <SCORE.INTRA.POLAR.0>
0

>  <SCORE.INTRA.REPUL>
0

>  <SCORE.INTRA.REPUL.0>
0

>  <SCORE.INTRA.SOLV>
2.01737

>  <SCORE.INTRA.SOLV.lig_0>
-29.8054

>  <SCORE.INTRA.VDW>
-2.82579

>  <SCORE.INTRA.VDW.0>
2.61447

>  <SCORE.INTRA.norm>
-0.198902

>  <SCORE.RESTR>
0

>  <SCORE.RESTR.CAVITY>
0

>  <SCORE.RESTR.norm>
0

>  <SCORE.SYSTEM>
0

>  <SCORE.SYSTEM.CONST>
0

>  <SCORE.SYSTEM.DIHEDRAL>
0

>  <SCORE.SYSTEM.SOLV>
0

>  <SCORE.SYSTEM.norm>
0

>  <SCORE.heavy>
23

>  <SCORE.norm>
-1.46259

>  <RMSD>
6.098

$$$$

 OpenBabel11021811403D
libRbt.so/2013.1/901 2013/11/27
 23 25  0  0  0  0  0  0  0  0999 V2000
  -25.8360    6.8615    8.5407 S   0  0  0  0  0  0  0  0  0  0  0  0
  -23.1048    6.9925    9.7208 N   0  0  0  0  0  0  0  0  0  0  0  0
  -23.6507    8.4498   11.5626 C   0  0  0  0  0  0  0  0  0  0  0  0
  -24.6142    9.1898   12.2607 C   0  0  0  0  0  0  0  0  0  0  0  0
  -25.9355    9.2080   11.8244 C   0  0  0  0  0  0  0  0  0  0  0  0
  -26.3008    8.4933   10.6888 C   0  0  0  0  0  0  0  0  0  0  0  0
  -25.3512    7.7565    9.9856 C   0  0  0  0  0  0  0  0  0  0  0  0
  -24.0198    7.7293   10.4179 C   0  0  0  0  0  0  0  0  0  0  0  0
  -24.3468    7.3009    7.7016 C   0  0  0  0  0  0  0  0  0  0  0  0
  -24.3787    7.6303    6.3434 C   0  0  0  0  0  0  0  0  0  0  0  0
  -23.1963    7.9729    5.6813 C   0  0  0  0  0  0  0  0  0  0  0  0
  -21.9843    7.9809    6.3795 C   0  0  0  0  0  0  0  0  0  0  0  0
  -21.9595    7.6504    7.7348 C   0  0  0  0  0  0  0  0  0  0  0  0
  -23.1323    7.3139    8.3968 C   0  0  0  0  0  0  0  0  0  0  0  0
  -21.8143    6.6165   10.3495 C   0  0  0  0  0  0  0  0  0  0  0  0
  -21.8809    5.7775   11.6692 C   0  0  0  0  0  0  0  0  0  0  0  0
  -20.4872    5.5889   12.3600 C   0  0  0  0  0  0  0  0  0  0  0  0
  -20.4300    4.7386   13.5763 N   0  3  0  0  0  0  0  0  0  0  0  0
  -19.1187    4.8608   14.2641 C   0  0  0  0  0  0  0  0  0  0  0  0
  -20.7481    3.3081   13.2378 C   0  0  0  0  0  0  0  0  0  0  0  0
  -24.2289    9.9728   13.4833 C   0  0  0  0  0  0  0  0  0  0  0  0
  -25.2577   10.4757   14.4668 C   0  0  0  0  0  0  0  0  0  0  0  0
  -23.0475   10.1605   13.7267 O   0  0  0  0  0  0  0  0  0  0  0  0
  1  7  1  0  0  0  0
  1  9  1  0  0  0  0
  2  8  1  0  0  0  0
  2 14  1  0  0  0  0
  2 15  1  0  0  0  0
  3  4  2  0  0  0  0
  3  8  1  0  0  0  0
  4  5  1  0  0  0  0
  4 21  1  0  0  0  0
  5  6  2  0  0  0  0
  6  7  1  0  0  0  0
  7  8  2  0  0  0  0
  9 10  2  0  0  0  0
  9 14  1  0  0  0  0
 10 11  1  0  0  0  0
 11 12  2  0  0  0  0
 12 13  1  0  0  0  0
 13 14  2  0  0  0  0
 15 16  1  0  0  0  0
 16 17  1  0  0  0  0
 17 18  1  0  0  0  0
 18 19  1  0  0  0  0
 18 20  1  0  0  0  0
 21 22  1  0  0  0  0
 21 23  2  0  0  0  0
M  CHG  1  18   1
M  END
>  <CHROM.1>
58.75352897,-163.44941947,-172.40728293,-176.42360810,-49.09695179,-23.32140846
7.40012927,10.62365478,2.26702882,0.72693973,-1.77082723

>  <Name>


>  <RI>
0

>  <Rbt.Current_Directory>
/home/itssahil/PROJECTS/Mol_Feturizer/New_Systems/rnas/1lvj

>  <Rbt.Executable>
rbdock ($Id: //depot/dev/client3/rdock/2013.1/src/exe/rbdock.cxx#4 $)

>  <Rbt.Library>
libRbt.so (2013.1, Build901 2013/11/27)

>  <Rbt.Parameter_File>
/export/apps/rDock/src/rDock_2013.1_src/data/scripts/dock_solv.prm

>  <Rbt.Receptor>
prm/pocket_docking_8.prm

>  <SCORE>
-32.0689

>  <SCORE.INTER>
-26.9534

>  <SCORE.INTER.CONST>
1

>  <SCORE.INTER.POLAR>
0

>  <SCORE.INTER.ROT>
5

>  <SCORE.INTER.SOLV>
8.26689

>  <SCORE.INTER.VDW>
-27.6579

>  <SCORE.INTER.norm>
-1.17189

>  <SCORE.INTRA>
-5.11544

>  <SCORE.INTRA.DIHEDRAL>
-6.37115

>  <SCORE.INTRA.DIHEDRAL.0>
8.06479

>  <SCORE.INTRA.POLAR>
0

>  <SCORE.INTRA.POLAR.0>
0

>  <SCORE.INTRA.REPUL>
0

>  <SCORE.INTRA.REPUL.0>
0

>  <SCORE.INTRA.SOLV>
0.354279

>  <SCORE.INTRA.SOLV.lig_0>
-29.8054

>  <SCORE.INTRA.VDW>
-2.107

>  <SCORE.INTRA.VDW.0>
2.61447

>  <SCORE.INTRA.norm>
-0.22241

>  <SCORE.RESTR>
0

>  <SCORE.RESTR.CAVITY>
0

>  <SCORE.RESTR.norm>
0

>  <SCORE.SYSTEM>
0

>  <SCORE.SYSTEM.CONST>
0

>  <SCORE.SYSTEM.DIHEDRAL>
0

>  <SCORE.SYSTEM.SOLV>
0

>  <SCORE.SYSTEM.norm>
0

>  <SCORE.heavy>
23

>  <SCORE.norm>
-1.3943

>  <RMSD>
6.105

$$$$

 OpenBabel11021811403D
libRbt.so/2013.1/901 2013/11/27
 23 25  0  0  0  0  0  0  0  0999 V2000
  -22.3794    7.4688   10.8577 S   0  0  0  0  0  0  0  0  0  0  0  0
  -25.2716    6.7719   10.7192 N   0  0  0  0  0  0  0  0  0  0  0  0
  -25.4770    6.8483    8.3179 C   0  0  0  0  0  0  0  0  0  0  0  0
  -24.8750    7.0528    7.0694 C   0  0  0  0  0  0  0  0  0  0  0  0
  -23.5235    7.3744    6.9872 C   0  0  0  0  0  0  0  0  0  0  0  0
  -22.7682    7.4979    8.1482 C   0  0  0  0  0  0  0  0  0  0  0  0
  -23.3565    7.2994    9.3946 C   0  0  0  0  0  0  0  0  0  0  0  0
  -24.7147    6.9728    9.4880 C   0  0  0  0  0  0  0  0  0  0  0  0
  -23.6980    8.2733   11.7116 C   0  0  0  0  0  0  0  0  0  0  0  0
  -23.4294    9.3533   12.5576 C   0  0  0  0  0  0  0  0  0  0  0  0
  -24.4760    9.9845   13.2359 C   0  0  0  0  0  0  0  0  0  0  0  0
  -25.7883    9.5304   13.0689 C   0  0  0  0  0  0  0  0  0  0  0  0
  -26.0493    8.4514   12.2235 C   0  0  0  0  0  0  0  0  0  0  0  0
  -25.0132    7.8248   11.5448 C   0  0  0  0  0  0  0  0  0  0  0  0
  -26.5619    6.0501   10.8460 C   0  0  0  0  0  0  0  0  0  0  0  0
  -26.4946    4.5111   11.1229 C   0  0  0  0  0  0  0  0  0  0  0  0
  -27.5508    4.0186   12.1704 C   0  0  0  0  0  0  0  0  0  0  0  0
  -28.9872    4.1857   11.8319 N   0  3  0  0  0  0  0  0  0  0  0  0
  -29.8469    4.0741   13.0386 C   0  0  0  0  0  0  0  0  0  0  0  0
  -29.3974    3.2074   10.7657 C   0  0  0  0  0  0  0  0  0  0  0  0
  -25.6834    6.9309    5.8092 C   0  0  0  0  0  0  0  0  0  0  0  0
  -27.1895    6.8323    5.8329 C   0  0  0  0  0  0  0  0  0  0  0  0
  -25.1176    6.9721    4.7283 O   0  0  0  0  0  0  0  0  0  0  0  0
  1  7  1  0  0  0  0
  1  9  1  0  0  0  0
  2  8  1  0  0  0  0
  2 14  1  0  0  0  0
  2 15  1  0  0  0  0
  3  4  2  0  0  0  0
  3  8  1  0  0  0  0
  4  5  1  0  0  0  0
  4 21  1  0  0  0  0
  5  6  2  0  0  0  0
  6  7  1  0  0  0  0
  7  8  2  0  0  0  0
  9 10  2  0  0  0  0
  9 14  1  0  0  0  0
 10 11  1  0  0  0  0
 11 12  2  0  0  0  0
 12 13  1  0  0  0  0
 13 14  2  0  0  0  0
 15 16  1  0  0  0  0
 16 17  1  0  0  0  0
 17 18  1  0  0  0  0
 18 19  1  0  0  0  0
 18 20  1  0  0  0  0
 21 22  1  0  0  0  0
 21 23  2  0  0  0  0
M  CHG  1  18   1
M  END
>  <CHROM.1>
94.26740808,11.02762975,138.82807461,62.31085109,-42.64528654,-25.47300579
6.80286405,10.09824592,-0.56764308,0.66903902,1.42518432

>  <Name>


>  <RI>
0

>  <Rbt.Current_Directory>
/home/itssahil/PROJECTS/Mol_Feturizer/New_Systems/rnas/1lvj

>  <Rbt.Executable>
rbdock ($Id: //depot/dev/client3/rdock/2013.1/src/exe/rbdock.cxx#4 $)

>  <Rbt.Library>
libRbt.so (2013.1, Build901 2013/11/27)

>  <Rbt.Parameter_File>
/export/apps/rDock/src/rDock_2013.1_src/data/scripts/dock_solv.prm

>  <Rbt.Receptor>
prm/pocket_docking_6.prm

>  <SCORE>
-31.1556

>  <SCORE.INTER>
-29.0597

>  <SCORE.INTER.CONST>
1

>  <SCORE.INTER.POLAR>
-1.1619

>  <SCORE.INTER.ROT>
5

>  <SCORE.INTER.SOLV>
12.9061

>  <SCORE.INTER.VDW>
-26.7355

>  <SCORE.INTER.norm>
-1.26346

>  <SCORE.INTRA>
-2.09591

>  <SCORE.INTRA.DIHEDRAL>
-0.892153

>  <SCORE.INTRA.DIHEDRAL.0>
8.06479

>  <SCORE.INTRA.POLAR>
0

>  <SCORE.INTRA.POLAR.0>
0

>  <SCORE.INTRA.REPUL>
0

>  <SCORE.INTRA.REPUL.0>
0

>  <SCORE.INTRA.SOLV>
2.06806

>  <SCORE.INTRA.SOLV.lig_0>
-29.8054

>  <SCORE.INTRA.VDW>
-2.68386

>  <SCORE.INTRA.VDW.0>
2.61447

>  <SCORE.INTRA.norm>
-0.0911266

>  <SCORE.RESTR>
0

>  <SCORE.RESTR.CAVITY>
0

>  <SCORE.RESTR.norm>
0

>  <SCORE.SYSTEM>
0

>  <SCORE.SYSTEM.CONST>
0

>  <SCORE.SYSTEM.DIHEDRAL>
0

>  <SCORE.SYSTEM.SOLV>
0

>  <SCORE.SYSTEM.norm>
0

>  <SCORE.heavy>
23

>  <SCORE.norm>
-1.35459

>  <RMSD>
6.109

$$$$

 OpenBabel11021811403D
libRbt.so/2013.1/901 2013/11/27
 23 25  0  0  0  0  0  0  0  0999 V2000
  -25.8098    8.0711    9.5346 S   0  0  0  0  0  0  0  0  0  0  0  0
  -23.2475    6.9004   10.5008 N   0  0  0  0  0  0  0  0  0  0  0  0
  -23.0285    8.2648   12.4768 C   0  0  0  0  0  0  0  0  0  0  0  0
  -23.5443    9.2755   13.2987 C   0  0  0  0  0  0  0  0  0  0  0  0
  -24.7427    9.9021   12.9708 C   0  0  0  0  0  0  0  0  0  0  0  0
  -25.4292    9.5276   11.8209 C   0  0  0  0  0  0  0  0  0  0  0  0
  -24.9247    8.5261   10.9952 C   0  0  0  0  0  0  0  0  0  0  0  0
  -23.7212    7.8876   11.3177 C   0  0  0  0  0  0  0  0  0  0  0  0
  -24.3138    7.9069    8.6126 C   0  0  0  0  0  0  0  0  0  0  0  0
  -24.2552    8.3479    7.2874 C   0  0  0  0  0  0  0  0  0  0  0  0
  -23.0699    8.2115    6.5591 C   0  0  0  0  0  0  0  0  0  0  0  0
  -21.9476    7.6301    7.1580 C   0  0  0  0  0  0  0  0  0  0  0  0
  -22.0131    7.1913    8.4809 C   0  0  0  0  0  0  0  0  0  0  0  0
  -23.1870    7.3291    9.2087 C   0  0  0  0  0  0  0  0  0  0  0  0
  -22.2244    5.9473   10.9977 C   0  0  0  0  0  0  0  0  0  0  0  0
  -22.7372    4.6995   11.7914 C   0  0  0  0  0  0  0  0  0  0  0  0
  -21.6268    3.6245   12.0496 C   0  0  0  0  0  0  0  0  0  0  0  0
  -21.9745    2.4680   12.9142 N   0  3  0  0  0  0  0  0  0  0  0  0
  -22.0046    2.8516   14.3493 C   0  0  0  0  0  0  0  0  0  0  0  0
  -21.0351    1.3200   12.6660 C   0  0  0  0  0  0  0  0  0  0  0  0
  -22.8066    9.6944   14.5384 C   0  0  0  0  0  0  0  0  0  0  0  0
  -23.3190   10.7906   15.4409 C   0  0  0  0  0  0  0  0  0  0  0  0
  -21.7941    9.0952   14.8641 O   0  0  0  0  0  0  0  0  0  0  0  0
  1  7  1  0  0  0  0
  1  9  1  0  0  0  0
  2  8  1  0  0  0  0
  2 14  1  0  0  0  0
  2 15  1  0  0  0  0
  3  4  2  0  0  0  0
  3  8  1  0  0  0  0
  4  5  1  0  0  0  0
  4 21  1  0  0  0  0
  5  6  2  0  0  0  0
  6  7  1  0  0  0  0
  7  8  2  0  0  0  0
  9 10  2  0  0  0  0
  9 14  1  0  0  0  0
 10 11  1  0  0  0  0
 11 12  2  0  0  0  0
 12 13  1  0  0  0  0
 13 14  2  0  0  0  0
 15 16  1  0  0  0  0
 16 17  1  0  0  0  0
 17 18  1  0  0  0  0
 18 19  1  0  0  0  0
 18 20  1  0  0  0  0
 21 22  1  0  0  0  0
 21 23  2  0  0  0  0
M  CHG  1  18   1
M  END
>  <CHROM.1>
84.77208539,179.20761898,169.53733128,173.84001574,44.17356589,-23.26152959
7.14537603,11.28883928,-3.01747265,-1.19151045,1.17999941

>  <Name>


>  <RI>
0

>  <Rbt.Current_Directory>
/home/itssahil/PROJECTS/Mol_Feturizer/New_Systems/rnas/1lvj

>  <Rbt.Executable>
rbdock ($Id: //depot/dev/client3/rdock/2013.1/src/exe/rbdock.cxx#4 $)

>  <Rbt.Library>
libRbt.so (2013.1, Build901 2013/11/27)

>  <Rbt.Parameter_File>
/export/apps/rDock/src/rDock_2013.1_src/data/scripts/dock_solv.prm

>  <Rbt.Receptor>
prm/pocket_docking_7.prm

>  <SCORE>
-33.8864

>  <SCORE.INTER>
-28.9543

>  <SCORE.INTER.CONST>
1

>  <SCORE.INTER.POLAR>
-0.889033

>  <SCORE.INTER.ROT>
5

>  <SCORE.INTER.SOLV>
11.3376

>  <SCORE.INTER.VDW>
-27.052

>  <SCORE.INTER.norm>
-1.25888

>  <SCORE.INTRA>
-4.93211

>  <SCORE.INTRA.DIHEDRAL>
-5.26289

>  <SCORE.INTRA.DIHEDRAL.0>
8.06479

>  <SCORE.INTRA.POLAR>
0

>  <SCORE.INTRA.POLAR.0>
0

>  <SCORE.INTRA.REPUL>
0

>  <SCORE.INTRA.REPUL.0>
0

>  <SCORE.INTRA.SOLV>
0.406936

>  <SCORE.INTRA.SOLV.lig_0>
-29.8054

>  <SCORE.INTRA.VDW>
-2.50413

>  <SCORE.INTRA.VDW.0>
2.61447

>  <SCORE.INTRA.norm>
-0.214439

>  <SCORE.RESTR>
0

>  <SCORE.RESTR.CAVITY>
0

>  <SCORE.RESTR.norm>
0

>  <SCORE.SYSTEM>
0

>  <SCORE.SYSTEM.CONST>
0

>  <SCORE.SYSTEM.DIHEDRAL>
0

>  <SCORE.SYSTEM.SOLV>
0

>  <SCORE.SYSTEM.norm>
0

>  <SCORE.heavy>
23

>  <SCORE.norm>
-1.47332

>  <RMSD>
6.114

$$$$

 OpenBabel11021811403D
libRbt.so/2013.1/901 2013/11/27
 23 25  0  0  0  0  0  0  0  0999 V2000
  -25.8097    6.8474    8.5455 S   0  0  0  0  0  0  0  0  0  0  0  0
  -23.0701    7.0177    9.7008 N   0  0  0  0  0  0  0  0  0  0  0  0
  -23.6201    8.4671   11.5475 C   0  0  0  0  0  0  0  0  0  0  0  0
  -24.5877    9.1932   12.2544 C   0  0  0  0  0  0  0  0  0  0  0  0
  -25.9130    9.1925   11.8302 C   0  0  0  0  0  0  0  0  0  0  0  0
  -26.2784    8.4725   10.6979 C   0  0  0  0  0  0  0  0  0  0  0  0
  -25.3247    7.7493    9.9861 C   0  0  0  0  0  0  0  0  0  0  0  0
  -23.9892    7.7413   10.4062 C   0  0  0  0  0  0  0  0  0  0  0  0
  -24.3347    7.3082    7.6929 C   0  0  0  0  0  0  0  0  0  0  0  0
  -24.3836    7.6370    6.3351 C   0  0  0  0  0  0  0  0  0  0  0  0
  -23.2123    7.9965    5.6623 C   0  0  0  0  0  0  0  0  0  0  0  0
  -21.9943    8.0219    6.3495 C   0  0  0  0  0  0  0  0  0  0  0  0
  -21.9524    7.6919    7.7045 C   0  0  0  0  0  0  0  0  0  0  0  0
  -23.1142    7.3386    8.3771 C   0  0  0  0  0  0  0  0  0  0  0  0
  -21.7686    6.6603   10.3177 C   0  0  0  0  0  0  0  0  0  0  0  0
  -21.7928    5.6076   11.4757 C   0  0  0  0  0  0  0  0  0  0  0  0
  -20.3872    5.3575   12.1214 C   0  0  0  0  0  0  0  0  0  0  0  0
  -20.3016    4.3668   13.2246 N   0  3  0  0  0  0  0  0  0  0  0  0
  -21.0934    4.7982   14.4055 C   0  0  0  0  0  0  0  0  0  0  0  0
  -18.8664    4.0995   13.5861 C   0  0  0  0  0  0  0  0  0  0  0  0
  -24.2026    9.9818   13.4736 C   0  0  0  0  0  0  0  0  0  0  0  0
  -25.2314   10.4875   14.4556 C   0  0  0  0  0  0  0  0  0  0  0  0
  -23.0212   10.1719   13.7154 O   0  0  0  0  0  0  0  0  0  0  0  0
  1  7  1  0  0  0  0
  1  9  1  0  0  0  0
  2  8  1  0  0  0  0
  2 14  1  0  0  0  0
  2 15  1  0  0  0  0
  3  4  2  0  0  0  0
  3  8  1  0  0  0  0
  4  5  1  0  0  0  0
  4 21  1  0  0  0  0
  5  6  2  0  0  0  0
  6  7  1  0  0  0  0
  7  8  2  0  0  0  0
  9 10  2  0  0  0  0
  9 14  1  0  0  0  0
 10 11  1  0  0  0  0
 11 12  2  0  0  0  0
 12 13  1  0  0  0  0
 13 14  2  0  0  0  0
 15 16  1  0  0  0  0
 16 17  1  0  0  0  0
 17 18  1  0  0  0  0
 18 19  1  0  0  0  0
 18 20  1  0  0  0  0
 21 22  1  0  0  0  0
 21 23  2  0  0  0  0
M  CHG  1  18   1
M  END
>  <CHROM.1>
69.80455612,-164.37689949,-176.55676420,-179.56710915,56.39027065,-23.29488944
7.40394239,10.60023246,2.26182280,0.71217194,-1.75043339

>  <Name>


>  <RI>
0

>  <Rbt.Current_Directory>
/home/itssahil/PROJECTS/Mol_Feturizer/New_Systems/rnas/1lvj

>  <Rbt.Executable>
rbdock ($Id: //depot/dev/client3/rdock/2013.1/src/exe/rbdock.cxx#4 $)

>  <Rbt.Library>
libRbt.so (2013.1, Build901 2013/11/27)

>  <Rbt.Parameter_File>
/export/apps/rDock/src/rDock_2013.1_src/data/scripts/dock_solv.prm

>  <Rbt.Receptor>
prm/pocket_docking_7.prm

>  <SCORE>
-32.1577

>  <SCORE.INTER>
-26.8518

>  <SCORE.INTER.CONST>
1

>  <SCORE.INTER.POLAR>
0

>  <SCORE.INTER.ROT>
5

>  <SCORE.INTER.SOLV>
8.43037

>  <SCORE.INTER.VDW>
-27.6447

>  <SCORE.INTER.norm>
-1.16747

>  <SCORE.INTRA>
-5.30588

>  <SCORE.INTRA.DIHEDRAL>
-6.41678

>  <SCORE.INTRA.DIHEDRAL.0>
8.06479

>  <SCORE.INTRA.POLAR>
0

>  <SCORE.INTRA.POLAR.0>
0

>  <SCORE.INTRA.REPUL>
0

>  <SCORE.INTRA.REPUL.0>
0

>  <SCORE.INTRA.SOLV>
0.274729

>  <SCORE.INTRA.SOLV.lig_0>
-29.8054

>  <SCORE.INTRA.VDW>
-2.23485

>  <SCORE.INTRA.VDW.0>
2.61447

>  <SCORE.INTRA.norm>
-0.23069

>  <SCORE.RESTR>
0

>  <SCORE.RESTR.CAVITY>
0

>  <SCORE.RESTR.norm>
0

>  <SCORE.SYSTEM>
0

>  <SCORE.SYSTEM.CONST>
0

>  <SCORE.SYSTEM.DIHEDRAL>
0

>  <SCORE.SYSTEM.SOLV>
0

>  <SCORE.SYSTEM.norm>
0

>  <SCORE.heavy>
23

>  <SCORE.norm>
-1.39816

>  <RMSD>
6.117

$$$$

 OpenBabel11021811403D
libRbt.so/2013.1/901 2013/11/27
 23 25  0  0  0  0  0  0  0  0999 V2000
  -25.9686    7.0153    8.6625 S   0  0  0  0  0  0  0  0  0  0  0  0
  -23.2111    7.0383    9.7872 N   0  0  0  0  0  0  0  0  0  0  0  0
  -23.6808    8.4477   11.6864 C   0  0  0  0  0  0  0  0  0  0  0  0
  -24.6101    9.1884   12.4287 C   0  0  0  0  0  0  0  0  0  0  0  0
  -25.9392    9.2544   12.0217 C   0  0  0  0  0  0  0  0  0  0  0  0
  -26.3463    8.5869   10.8717 C   0  0  0  0  0  0  0  0  0  0  0  0
  -25.4309    7.8498   10.1249 C   0  0  0  0  0  0  0  0  0  0  0  0
  -24.0921    7.7747   10.5273 C   0  0  0  0  0  0  0  0  0  0  0  0
  -24.4861    7.4444    7.8062 C   0  0  0  0  0  0  0  0  0  0  0  0
  -24.5375    7.8189    6.4603 C   0  0  0  0  0  0  0  0  0  0  0  0
  -23.3606    8.1531    5.7844 C   0  0  0  0  0  0  0  0  0  0  0  0
  -22.1346    8.1075    6.4562 C   0  0  0  0  0  0  0  0  0  0  0  0
  -22.0904    7.7321    7.7994 C   0  0  0  0  0  0  0  0  0  0  0  0
  -23.2575    7.4037    8.4752 C   0  0  0  0  0  0  0  0  0  0  0  0
  -21.9180    6.6094   10.3755 C   0  0  0  0  0  0  0  0  0  0  0  0
  -21.9756    5.5698   11.5442 C   0  0  0  0  0  0  0  0  0  0  0  0
  -20.5660    5.1983   12.1190 C   0  0  0  0  0  0  0  0  0  0  0  0
  -20.5144    4.2399   13.2525 N   0  3  0  0  0  0  0  0  0  0  0  0
  -21.0767    4.8340   14.4929 C   0  0  0  0  0  0  0  0  0  0  0  0
  -19.1106    3.7427   13.4620 C   0  0  0  0  0  0  0  0  0  0  0  0
  -24.1794    9.9209   13.6674 C   0  0  0  0  0  0  0  0  0  0  0  0
  -25.1731   10.5892   14.5863 C   0  0  0  0  0  0  0  0  0  0  0  0
  -22.9990    9.9291   13.9784 O   0  0  0  0  0  0  0  0  0  0  0  0
  1  7  1  0  0  0  0
  1  9  1  0  0  0  0
  2  8  1  0  0  0  0
  2 14  1  0  0  0  0
  2 15  1  0  0  0  0
  3  4  2  0  0  0  0
  3  8  1  0  0  0  0
  4  5  1  0  0  0  0
  4 21  1  0  0  0  0
  5  6  2  0  0  0  0
  6  7  1  0  0  0  0
  7  8  2  0  0  0  0
  9 10  2  0  0  0  0
  9 14  1  0  0  0  0
 10 11  1  0  0  0  0
 11 12  2  0  0  0  0
 12 13  1  0  0  0  0
 13 14  2  0  0  0  0
 15 16  1  0  0  0  0
 16 17  1  0  0  0  0
 17 18  1  0  0  0  0
 18 19  1  0  0  0  0
 18 20  1  0  0  0  0
 21 22  1  0  0  0  0
 21 23  2  0  0  0  0
M  CHG  1  18   1
M  END
>  <CHROM.1>
67.08503987,-172.41865914,-178.89239843,178.71230455,51.22697687,-23.40302938
7.41768972,10.70805176,2.28782259,0.74335034,-1.74286972

>  <Name>


>  <RI>
0

>  <Rbt.Current_Directory>
/home/itssahil/PROJECTS/Mol_Feturizer/New_Systems/rnas/1lvj

>  <Rbt.Executable>
rbdock ($Id: //depot/dev/client3/rdock/2013.1/src/exe/rbdock.cxx#4 $)

>  <Rbt.Library>
libRbt.so (2013.1, Build901 2013/11/27)

>  <Rbt.Parameter_File>
/export/apps/rDock/src/rDock_2013.1_src/data/scripts/dock_solv.prm

>  <Rbt.Receptor>
prm/pocket_docking_8.prm

>  <SCORE>
-32.1135

>  <SCORE.INTER>
-26.4858

>  <SCORE.INTER.CONST>
1

>  <SCORE.INTER.POLAR>
0

>  <SCORE.INTER.ROT>
5

>  <SCORE.INTER.SOLV>
7.97165

>  <SCORE.INTER.VDW>
-27.2478

>  <SCORE.INTER.norm>
-1.15156

>  <SCORE.INTRA>
-5.62773

>  <SCORE.INTRA.DIHEDRAL>
-6.99445

>  <SCORE.INTRA.DIHEDRAL.0>
8.06479

>  <SCORE.INTRA.POLAR>
0

>  <SCORE.INTRA.POLAR.0>
0

>  <SCORE.INTRA.REPUL>
0

>  <SCORE.INTRA.REPUL.0>
0

>  <SCORE.INTRA.SOLV>
0.3359

>  <SCORE.INTRA.SOLV.lig_0>
-29.8054

>  <SCORE.INTRA.VDW>
-2.29845

>  <SCORE.INTRA.VDW.0>
2.61447

>  <SCORE.INTRA.norm>
-0.244684

>  <SCORE.RESTR>
0

>  <SCORE.RESTR.CAVITY>
0

>  <SCORE.RESTR.norm>
0

>  <SCORE.SYSTEM>
0

>  <SCORE.SYSTEM.CONST>
0

>  <SCORE.SYSTEM.DIHEDRAL>
0

>  <SCORE.SYSTEM.SOLV>
0

>  <SCORE.SYSTEM.norm>
0

>  <SCORE.heavy>
23

>  <SCORE.norm>
-1.39624

>  <RMSD>
6.124

$$$$

 OpenBabel11021811403D
libRbt.so/2013.1/901 2013/11/27
 23 25  0  0  0  0  0  0  0  0999 V2000
  -24.6015    8.7847   11.2567 S   0  0  0  0  0  0  0  0  0  0  0  0
  -22.9111    7.7963    9.0128 N   0  0  0  0  0  0  0  0  0  0  0  0
  -24.6990    6.8763    7.6820 C   0  0  0  0  0  0  0  0  0  0  0  0
  -26.0694    6.6344    7.5186 C   0  0  0  0  0  0  0  0  0  0  0  0
  -26.9755    7.0534    8.4880 C   0  0  0  0  0  0  0  0  0  0  0  0
  -26.5196    7.7107    9.6255 C   0  0  0  0  0  0  0  0  0  0  0  0
  -25.1596    7.9543    9.7997 C   0  0  0  0  0  0  0  0  0  0  0  0
  -24.2401    7.5392    8.8290 C   0  0  0  0  0  0  0  0  0  0  0  0
  -23.1933    7.7287   11.3858 C   0  0  0  0  0  0  0  0  0  0  0  0
  -22.7707    7.2739   12.6383 C   0  0  0  0  0  0  0  0  0  0  0  0
  -21.6519    6.4418   12.7366 C   0  0  0  0  0  0  0  0  0  0  0  0
  -20.9564    6.0703   11.5813 C   0  0  0  0  0  0  0  0  0  0  0  0
  -21.3832    6.5284   10.3343 C   0  0  0  0  0  0  0  0  0  0  0  0
  -22.4963    7.3513   10.2322 C   0  0  0  0  0  0  0  0  0  0  0  0
  -21.9743    7.7413    7.8633 C   0  0  0  0  0  0  0  0  0  0  0  0
  -22.4606    8.3713    6.5155 C   0  0  0  0  0  0  0  0  0  0  0  0
  -21.4261    8.2227    5.3480 C   0  0  0  0  0  0  0  0  0  0  0  0
  -21.3602    6.9147    4.6475 N   0  3  0  0  0  0  0  0  0  0  0  0
  -19.9845    6.6236    4.1676 C   0  0  0  0  0  0  0  0  0  0  0  0
  -22.3616    6.8634    3.5265 C   0  0  0  0  0  0  0  0  0  0  0  0
  -26.5720    5.9172    6.2981 C   0  0  0  0  0  0  0  0  0  0  0  0
  -26.1007    6.2764    4.9098 C   0  0  0  0  0  0  0  0  0  0  0  0
  -27.3385    4.9762    6.4295 O   0  0  0  0  0  0  0  0  0  0  0  0
  1  7  1  0  0  0  0
  1  9  1  0  0  0  0
  2  8  1  0  0  0  0
  2 14  1  0  0  0  0
  2 15  1  0  0  0  0
  3  4  2  0  0  0  0
  3  8  1  0  0  0  0
  4  5  1  0  0  0  0
  4 21  1  0  0  0  0
  5  6  2  0  0  0  0
  6  7  1  0  0  0  0
  7  8  2  0  0  0  0
  9 10  2  0  0  0  0
  9 14  1  0  0  0  0
 10 11  1  0  0  0  0
 11 12  2  0  0  0  0
 12 13  1  0  0  0  0
 13 14  2  0  0  0  0
 15 16  1  0  0  0  0
 16 17  1  0  0  0  0
 17 18  1  0  0  0  0
 18 19  1  0  0  0  0
 18 20  1  0  0  0  0
 21 22  1  0  0  0  0
 21 23  2  0  0  0  0
M  CHG  1  18   1
M  END
>  <CHROM.1>
41.99198509,-46.30167719,-178.02109466,79.57394450,-28.23600004,-23.64497721
7.18953607,8.32905052,1.58568832,0.08408942,1.45492759

>  <Name>


>  <RI>
0

>  <Rbt.Current_Directory>
/home/itssahil/PROJECTS/Mol_Feturizer/New_Systems/rnas/1lvj

>  <Rbt.Executable>
rbdock ($Id: //depot/dev/client3/rdock/2013.1/src/exe/rbdock.cxx#4 $)

>  <Rbt.Library>
libRbt.so (2013.1, Build901 2013/11/27)

>  <Rbt.Parameter_File>
/export/apps/rDock/src/rDock_2013.1_src/data/scripts/dock_solv.prm

>  <Rbt.Receptor>
prm/pocket_docking_4.prm

>  <SCORE>
-23.8353

>  <SCORE.INTER>
-23.1348

>  <SCORE.INTER.CONST>
1

>  <SCORE.INTER.POLAR>
-0.151653

>  <SCORE.INTER.ROT>
5

>  <SCORE.INTER.SOLV>
18.9032

>  <SCORE.INTER.VDW>
-28.1521

>  <SCORE.INTER.norm>
-1.00586

>  <SCORE.INTRA>
-0.700584

>  <SCORE.INTRA.DIHEDRAL>
2.40149

>  <SCORE.INTRA.DIHEDRAL.0>
8.06479

>  <SCORE.INTRA.POLAR>
0

>  <SCORE.INTRA.POLAR.0>
0

>  <SCORE.INTRA.REPUL>
0

>  <SCORE.INTRA.REPUL.0>
0

>  <SCORE.INTRA.SOLV>
2.05722

>  <SCORE.INTRA.SOLV.lig_0>
-29.8054

>  <SCORE.INTRA.VDW>
-2.92994

>  <SCORE.INTRA.VDW.0>
2.61447

>  <SCORE.INTRA.norm>
-0.0304602

>  <SCORE.RESTR>
0

>  <SCORE.RESTR.CAVITY>
0

>  <SCORE.RESTR.norm>
0

>  <SCORE.SYSTEM>
0

>  <SCORE.SYSTEM.CONST>
0

>  <SCORE.SYSTEM.DIHEDRAL>
0

>  <SCORE.SYSTEM.SOLV>
0

>  <SCORE.SYSTEM.norm>
0

>  <SCORE.heavy>
23

>  <SCORE.norm>
-1.03632

>  <RMSD>
6.125

$$$$

 OpenBabel11021811403D
libRbt.so/2013.1/901 2013/11/27
 23 25  0  0  0  0  0  0  0  0999 V2000
  -25.1738    8.6006   10.3587 S   0  0  0  0  0  0  0  0  0  0  0  0
  -23.1838    8.0969    8.2010 N   0  0  0  0  0  0  0  0  0  0  0  0
  -24.6959    7.0399    6.6484 C   0  0  0  0  0  0  0  0  0  0  0  0
  -25.9933    6.6060    6.3460 C   0  0  0  0  0  0  0  0  0  0  0  0
  -27.0248    6.7887    7.2620 C   0  0  0  0  0  0  0  0  0  0  0  0
  -26.7669    7.4000    8.4841 C   0  0  0  0  0  0  0  0  0  0  0  0
  -25.4807    7.8330    8.7965 C   0  0  0  0  0  0  0  0  0  0  0  0
  -24.4366    7.6563    7.8807 C   0  0  0  0  0  0  0  0  0  0  0  0
  -23.6273    7.7668   10.5268 C   0  0  0  0  0  0  0  0  0  0  0  0
  -23.2315    7.2684   11.7714 C   0  0  0  0  0  0  0  0  0  0  0  0
  -22.0037    6.6130   11.9014 C   0  0  0  0  0  0  0  0  0  0  0  0
  -21.1734    6.4619   10.7860 C   0  0  0  0  0  0  0  0  0  0  0  0
  -21.5743    6.9625    9.5468 C   0  0  0  0  0  0  0  0  0  0  0  0
  -22.7948    7.6100    9.4129 C   0  0  0  0  0  0  0  0  0  0  0  0
  -22.1673    8.2938    7.1379 C   0  0  0  0  0  0  0  0  0  0  0  0
  -21.6587    7.0155    6.3914 C   0  0  0  0  0  0  0  0  0  0  0  0
  -21.9686    7.0249    4.8555 C   0  0  0  0  0  0  0  0  0  0  0  0
  -20.9212    7.5520    3.9439 N   0  3  0  0  0  0  0  0  0  0  0  0
  -21.4612    7.8033    2.5827 C   0  0  0  0  0  0  0  0  0  0  0  0
  -19.7356    6.6272    3.9087 C   0  0  0  0  0  0  0  0  0  0  0  0
  -26.2815    5.9363    5.0326 C   0  0  0  0  0  0  0  0  0  0  0  0
  -27.5736    5.1983    4.7789 C   0  0  0  0  0  0  0  0  0  0  0  0
  -25.4780    6.0384    4.1193 O   0  0  0  0  0  0  0  0  0  0  0  0
  1  7  1  0  0  0  0
  1  9  1  0  0  0  0
  2  8  1  0  0  0  0
  2 14  1  0  0  0  0
  2 15  1  0  0  0  0
  3  4  2  0  0  0  0
  3  8  1  0  0  0  0
  4  5  1  0  0  0  0
  4 21  1  0  0  0  0
  5  6  2  0  0  0  0
  6  7  1  0  0  0  0
  7  8  2  0  0  0  0
  9 10  2  0  0  0  0
  9 14  1  0  0  0  0
 10 11  1  0  0  0  0
 11 12  2  0  0  0  0
 12 13  1  0  0  0  0
 13 14  2  0  0  0  0
 15 16  1  0  0  0  0
 16 17  1  0  0  0  0
 17 18  1  0  0  0  0
 18 19  1  0  0  0  0
 18 20  1  0  0  0  0
 21 22  1  0  0  0  0
 21 23  2  0  0  0  0
M  CHG  1  18   1
M  END
>  <CHROM.1>
-66.51734500,166.84116015,118.20935371,93.33066007,-46.38757375,-23.70429461
7.21197238,7.45337655,1.70945402,0.09807216,1.44014691

>  <Name>


>  <RI>
0

>  <Rbt.Current_Directory>
/home/itssahil/PROJECTS/Mol_Feturizer/New_Systems/rnas/1lvj

>  <Rbt.Executable>
rbdock ($Id: //depot/dev/client3/rdock/2013.1/src/exe/rbdock.cxx#4 $)

>  <Rbt.Library>
libRbt.so (2013.1, Build901 2013/11/27)

>  <Rbt.Parameter_File>
/export/apps/rDock/src/rDock_2013.1_src/data/scripts/dock_solv.prm

>  <Rbt.Receptor>
prm/pocket_docking_5.prm

>  <SCORE>
-24.8142

>  <SCORE.INTER>
-24.5601

>  <SCORE.INTER.CONST>
1

>  <SCORE.INTER.POLAR>
0

>  <SCORE.INTER.ROT>
5

>  <SCORE.INTER.SOLV>
20.7497

>  <SCORE.INTER.VDW>
-30.2233

>  <SCORE.INTER.norm>
-1.06783

>  <SCORE.INTRA>
-0.254066

>  <SCORE.INTRA.DIHEDRAL>
2.11634

>  <SCORE.INTRA.DIHEDRAL.0>
8.06479

>  <SCORE.INTRA.POLAR>
0

>  <SCORE.INTRA.POLAR.0>
0

>  <SCORE.INTRA.REPUL>
0

>  <SCORE.INTRA.REPUL.0>
0

>  <SCORE.INTRA.SOLV>
1.66857

>  <SCORE.INTRA.SOLV.lig_0>
-29.8054

>  <SCORE.INTRA.VDW>
-2.14652

>  <SCORE.INTRA.VDW.0>
2.61447

>  <SCORE.INTRA.norm>
-0.0110464

>  <SCORE.RESTR>
0

>  <SCORE.RESTR.CAVITY>
0

>  <SCORE.RESTR.norm>
0

>  <SCORE.SYSTEM>
0

>  <SCORE.SYSTEM.CONST>
0

>  <SCORE.SYSTEM.DIHEDRAL>
0

>  <SCORE.SYSTEM.SOLV>
0

>  <SCORE.SYSTEM.norm>
0

>  <SCORE.heavy>
23

>  <SCORE.norm>
-1.07888

>  <RMSD>
6.127

$$$$

 OpenBabel11021811403D
libRbt.so/2013.1/901 2013/11/27
 23 25  0  0  0  0  0  0  0  0999 V2000
  -25.4898    8.4251   10.0617 S   0  0  0  0  0  0  0  0  0  0  0  0
  -23.2891    8.0901    8.0833 N   0  0  0  0  0  0  0  0  0  0  0  0
  -24.6067    7.0499    6.3524 C   0  0  0  0  0  0  0  0  0  0  0  0
  -25.8520    6.5836    5.9108 C   0  0  0  0  0  0  0  0  0  0  0  0
  -26.9707    6.6880    6.7318 C   0  0  0  0  0  0  0  0  0  0  0  0
  -26.8523    7.2530    7.9970 C   0  0  0  0  0  0  0  0  0  0  0  0
  -25.6191    7.7175    8.4472 C   0  0  0  0  0  0  0  0  0  0  0  0
  -24.4881    7.6196    7.6280 C   0  0  0  0  0  0  0  0  0  0  0  0
  -23.9337    7.6407   10.3411 C   0  0  0  0  0  0  0  0  0  0  0  0
  -23.6358    7.1017   11.5961 C   0  0  0  0  0  0  0  0  0  0  0  0
  -22.4002    6.4858   11.8147 C   0  0  0  0  0  0  0  0  0  0  0  0
  -21.4643    6.4146   10.7777 C   0  0  0  0  0  0  0  0  0  0  0  0
  -21.7678    6.9553    9.5277 C   0  0  0  0  0  0  0  0  0  0  0  0
  -22.9954    7.5638    9.3055 C   0  0  0  0  0  0  0  0  0  0  0  0
  -22.1868    8.3706    7.1303 C   0  0  0  0  0  0  0  0  0  0  0  0
  -21.5071    7.1396    6.4429 C   0  0  0  0  0  0  0  0  0  0  0  0
  -22.0704    6.8334    5.0131 C   0  0  0  0  0  0  0  0  0  0  0  0
  -21.2571    7.2598    3.8458 N   0  3  0  0  0  0  0  0  0  0  0  0
  -21.4237    8.7097    3.5675 C   0  0  0  0  0  0  0  0  0  0  0  0
  -21.5821    6.4221    2.6397 C   0  0  0  0  0  0  0  0  0  0  0  0
  -25.9897    5.9633    4.5497 C   0  0  0  0  0  0  0  0  0  0  0  0
  -24.8392    5.9157    3.5735 C   0  0  0  0  0  0  0  0  0  0  0  0
  -27.0416    5.4272    4.2395 O   0  0  0  0  0  0  0  0  0  0  0  0
  1  7  1  0  0  0  0
  1  9  1  0  0  0  0
  2  8  1  0  0  0  0
  2 14  1  0  0  0  0
  2 15  1  0  0  0  0
  3  4  2  0  0  0  0
  3  8  1  0  0  0  0
  4  5  1  0  0  0  0
  4 21  1  0  0  0  0
  5  6  2  0  0  0  0
  6  7  1  0  0  0  0
  7  8  2  0  0  0  0
  9 10  2  0  0  0  0
  9 14  1  0  0  0  0
 10 11  1  0  0  0  0
 11 12  2  0  0  0  0
 12 13  1  0  0  0  0
 13 14  2  0  0  0  0
 15 16  1  0  0  0  0
 16 17  1  0  0  0  0
 17 18  1  0  0  0  0
 18 19  1  0  0  0  0
 18 20  1  0  0  0  0
 21 22  1  0  0  0  0
 21 23  2  0  0  0  0
M  CHG  1  18   1
M  END
>  <CHROM.1>
-69.80845863,-4.88733108,97.06585547,102.24131789,40.41425146,-23.84431622
7.17850922,7.23009302,1.62913077,0.11181440,1.45365767

>  <Name>


>  <RI>
0

>  <Rbt.Current_Directory>
/home/itssahil/PROJECTS/Mol_Feturizer/New_Systems/rnas/1lvj

>  <Rbt.Executable>
rbdock ($Id: //depot/dev/client3/rdock/2013.1/src/exe/rbdock.cxx#4 $)

>  <Rbt.Library>
libRbt.so (2013.1, Build901 2013/11/27)

>  <Rbt.Parameter_File>
/export/apps/rDock/src/rDock_2013.1_src/data/scripts/dock_solv.prm

>  <Rbt.Receptor>
prm/pocket_docking_2.prm

>  <SCORE>
-15.0646

>  <SCORE.INTER>
-18.3082

>  <SCORE.INTER.CONST>
1

>  <SCORE.INTER.POLAR>
0

>  <SCORE.INTER.ROT>
5

>  <SCORE.INTER.SOLV>
16.9726

>  <SCORE.INTER.VDW>
-24.7963

>  <SCORE.INTER.norm>
-0.796007

>  <SCORE.INTRA>
0.028725

>  <SCORE.INTRA.DIHEDRAL>
1.49291

>  <SCORE.INTRA.DIHEDRAL.0>
8.06479

>  <SCORE.INTRA.POLAR>
0

>  <SCORE.INTRA.POLAR.0>
0

>  <SCORE.INTRA.REPUL>
0

>  <SCORE.INTRA.REPUL.0>
0

>  <SCORE.INTRA.SOLV>
1.00357

>  <SCORE.INTRA.SOLV.lig_0>
-29.8054

>  <SCORE.INTRA.VDW>
-1.21952

>  <SCORE.INTRA.VDW.0>
2.61447

>  <SCORE.INTRA.norm>
0.00124891

>  <SCORE.RESTR>
3.21482

>  <SCORE.RESTR.CAVITY>
3.21482

>  <SCORE.RESTR.norm>
0.139775

>  <SCORE.SYSTEM>
0

>  <SCORE.SYSTEM.CONST>
0

>  <SCORE.SYSTEM.DIHEDRAL>
0

>  <SCORE.SYSTEM.SOLV>
0

>  <SCORE.SYSTEM.norm>
0

>  <SCORE.heavy>
23

>  <SCORE.norm>
-0.654984

>  <RMSD>
6.128

$$$$

 OpenBabel11021811403D
libRbt.so/2013.1/901 2013/11/27
 23 25  0  0  0  0  0  0  0  0999 V2000
  -25.3378    8.3973   10.3740 S   0  0  0  0  0  0  0  0  0  0  0  0
  -23.2758    8.0535    8.2530 N   0  0  0  0  0  0  0  0  0  0  0  0
  -24.7115    7.0235    6.6123 C   0  0  0  0  0  0  0  0  0  0  0  0
  -25.9860    6.5648    6.2541 C   0  0  0  0  0  0  0  0  0  0  0  0
  -27.0470    6.6740    7.1479 C   0  0  0  0  0  0  0  0  0  0  0  0
  -26.8414    7.2362    8.4031 C   0  0  0  0  0  0  0  0  0  0  0  0
  -25.5784    7.6931    8.7708 C   0  0  0  0  0  0  0  0  0  0  0  0
  -24.5050    7.5903    7.8779 C   0  0  0  0  0  0  0  0  0  0  0  0
  -23.7710    7.6038   10.5481 C   0  0  0  0  0  0  0  0  0  0  0  0
  -23.3932    7.0611   11.7797 C   0  0  0  0  0  0  0  0  0  0  0  0
  -22.1493    6.4380   11.9147 C   0  0  0  0  0  0  0  0  0  0  0  0
  -21.2850    6.3633   10.8176 C   0  0  0  0  0  0  0  0  0  0  0  0
  -21.6680    6.9078    9.5913 C   0  0  0  0  0  0  0  0  0  0  0  0
  -22.9043    7.5235    9.4522 C   0  0  0  0  0  0  0  0  0  0  0  0
  -22.2378    8.3295    7.2290 C   0  0  0  0  0  0  0  0  0  0  0  0
  -21.8726    7.1636    6.2506 C   0  0  0  0  0  0  0  0  0  0  0  0
  -21.0040    7.6222    5.0297 C   0  0  0  0  0  0  0  0  0  0  0  0
  -21.0048    6.7600    3.8204 N   0  3  0  0  0  0  0  0  0  0  0  0
  -19.9476    7.1693    2.8600 C   0  0  0  0  0  0  0  0  0  0  0  0
  -22.3647    6.7501    3.1780 C   0  0  0  0  0  0  0  0  0  0  0  0
  -26.2176    5.9476    4.9043 C   0  0  0  0  0  0  0  0  0  0  0  0
  -27.4621    5.1523    4.5925 C   0  0  0  0  0  0  0  0  0  0  0  0
  -25.4086    6.1407    4.0107 O   0  0  0  0  0  0  0  0  0  0  0  0
  1  7  1  0  0  0  0
  1  9  1  0  0  0  0
  2  8  1  0  0  0  0
  2 14  1  0  0  0  0
  2 15  1  0  0  0  0
  3  4  2  0  0  0  0
  3  8  1  0  0  0  0
  4  5  1  0  0  0  0
  4 21  1  0  0  0  0
  5  6  2  0  0  0  0
  6  7  1  0  0  0  0
  7  8  2  0  0  0  0
  9 10  2  0  0  0  0
  9 14  1  0  0  0  0
 10 11  1  0  0  0  0
 11 12  2  0  0  0  0
 12 13  1  0  0  0  0
 13 14  2  0  0  0  0
 15 16  1  0  0  0  0
 16 17  1  0  0  0  0
 17 18  1  0  0  0  0
 18 19  1  0  0  0  0
 18 20  1  0  0  0  0
 21 22  1  0  0  0  0
 21 23  2  0  0  0  0
M  CHG  1  18   1
M  END
>  <CHROM.1>
-54.78478646,165.19653410,167.89229472,-158.58682583,-48.90400726,-23.77989203
7.11033503,7.40959339,1.71565029,0.09521214,1.43816284

>  <Name>


>  <RI>
0

>  <Rbt.Current_Directory>
/home/itssahil/PROJECTS/Mol_Feturizer/New_Systems/rnas/1lvj

>  <Rbt.Executable>
rbdock ($Id: //depot/dev/client3/rdock/2013.1/src/exe/rbdock.cxx#4 $)

>  <Rbt.Library>
libRbt.so (2013.1, Build901 2013/11/27)

>  <Rbt.Parameter_File>
/export/apps/rDock/src/rDock_2013.1_src/data/scripts/dock_solv.prm

>  <Rbt.Receptor>
prm/pocket_docking_2.prm

>  <SCORE>
-21.0421

>  <SCORE.INTER>
-22.3378

>  <SCORE.INTER.CONST>
1

>  <SCORE.INTER.POLAR>
0

>  <SCORE.INTER.ROT>
5

>  <SCORE.INTER.SOLV>
17.5527

>  <SCORE.INTER.VDW>
-27.6761

>  <SCORE.INTER.norm>
-0.971209

>  <SCORE.INTRA>
-3.1699

>  <SCORE.INTRA.DIHEDRAL>
-4.14904

>  <SCORE.INTRA.DIHEDRAL.0>
8.06479

>  <SCORE.INTRA.POLAR>
0

>  <SCORE.INTRA.POLAR.0>
0

>  <SCORE.INTRA.REPUL>
0

>  <SCORE.INTRA.REPUL.0>
0

>  <SCORE.INTRA.SOLV>
0.59005

>  <SCORE.INTRA.SOLV.lig_0>
-29.8054

>  <SCORE.INTRA.VDW>
-1.3904

>  <SCORE.INTRA.VDW.0>
2.61447

>  <SCORE.INTRA.norm>
-0.137822

>  <SCORE.RESTR>
4.46561

>  <SCORE.RESTR.CAVITY>
4.46561

>  <SCORE.RESTR.norm>
0.194157

>  <SCORE.SYSTEM>
0

>  <SCORE.SYSTEM.CONST>
0

>  <SCORE.SYSTEM.DIHEDRAL>
0

>  <SCORE.SYSTEM.SOLV>
0

>  <SCORE.SYSTEM.norm>
0

>  <SCORE.heavy>
23

>  <SCORE.norm>
-0.914874

>  <RMSD>
6.134

$$$$

 OpenBabel11021811403D
libRbt.so/2013.1/901 2013/11/27
 23 25  0  0  0  0  0  0  0  0999 V2000
  -25.4420    8.6606    9.8277 S   0  0  0  0  0  0  0  0  0  0  0  0
  -23.4135    8.1930    7.6979 N   0  0  0  0  0  0  0  0  0  0  0  0
  -24.8389    6.9483    6.2035 C   0  0  0  0  0  0  0  0  0  0  0  0
  -26.1000    6.4050    5.9249 C   0  0  0  0  0  0  0  0  0  0  0  0
  -27.1450    6.5588    6.8309 C   0  0  0  0  0  0  0  0  0  0  0  0
  -26.9366    7.2501    8.0193 C   0  0  0  0  0  0  0  0  0  0  0  0
  -25.6867    7.7922    8.3078 C   0  0  0  0  0  0  0  0  0  0  0  0
  -24.6295    7.6454    7.4018 C   0  0  0  0  0  0  0  0  0  0  0  0
  -23.8390    7.9526   10.0380 C   0  0  0  0  0  0  0  0  0  0  0  0
  -23.4116    7.5501   11.3067 C   0  0  0  0  0  0  0  0  0  0  0  0
  -22.1394    6.9945   11.4698 C   0  0  0  0  0  0  0  0  0  0  0  0
  -21.2967    6.8470   10.3633 C   0  0  0  0  0  0  0  0  0  0  0  0
  -21.7293    7.2516    9.0999 C   0  0  0  0  0  0  0  0  0  0  0  0
  -22.9936    7.7997    8.9332 C   0  0  0  0  0  0  0  0  0  0  0  0
  -22.4109    8.4084    6.6253 C   0  0  0  0  0  0  0  0  0  0  0  0
  -21.7582    7.1344    5.9921 C   0  0  0  0  0  0  0  0  0  0  0  0
  -21.8869    7.0773    4.4316 C   0  0  0  0  0  0  0  0  0  0  0  0
  -20.7320    7.5508    3.6267 N   0  3  0  0  0  0  0  0  0  0  0  0
  -21.1185    7.7966    2.2133 C   0  0  0  0  0  0  0  0  0  0  0  0
  -19.5840    6.5845    3.7283 C   0  0  0  0  0  0  0  0  0  0  0  0
  -26.3340    5.6484    4.6485 C   0  0  0  0  0  0  0  0  0  0  0  0
  -27.6168    4.8961    4.3895 C   0  0  0  0  0  0  0  0  0  0  0  0
  -25.4916    5.6880    3.7658 O   0  0  0  0  0  0  0  0  0  0  0  0
  1  7  1  0  0  0  0
  1  9  1  0  0  0  0
  2  8  1  0  0  0  0
  2 14  1  0  0  0  0
  2 15  1  0  0  0  0
  3  4  2  0  0  0  0
  3  8  1  0  0  0  0
  4  5  1  0  0  0  0
  4 21  1  0  0  0  0
  5  6  2  0  0  0  0
  6  7  1  0  0  0  0
  7  8  2  0  0  0  0
  9 10  2  0  0  0  0
  9 14  1  0  0  0  0
 10 11  1  0  0  0  0
 11 12  2  0  0  0  0
 12 13  1  0  0  0  0
 13 14  2  0  0  0  0
 15 16  1  0  0  0  0
 16 17  1  0  0  0  0
 17 18  1  0  0  0  0
 18 19  1  0  0  0  0
 18 20  1  0  0  0  0
 21 22  1  0  0  0  0
 21 23  2  0  0  0  0
M  CHG  1  18   1
M  END
>  <CHROM.1>
-69.28341131,171.88430731,125.79104658,97.00362727,-44.16759582,-23.79924371
7.22922682,7.02373422,1.82206102,0.15856097,1.37538202

>  <Name>


>  <RI>
0

>  <Rbt.Current_Directory>
/home/itssahil/PROJECTS/Mol_Feturizer/New_Systems/rnas/1lvj

>  <Rbt.Executable>
rbdock ($Id: //depot/dev/client3/rdock/2013.1/src/exe/rbdock.cxx#4 $)

>  <Rbt.Library>
libRbt.so (2013.1, Build901 2013/11/27)

>  <Rbt.Parameter_File>
/export/apps/rDock/src/rDock_2013.1_src/data/scripts/dock_solv.prm

>  <Rbt.Receptor>
prm/blind_docking_100.prm

>  <SCORE>
-21.3778

>  <SCORE.INTER>
-22.3591

>  <SCORE.INTER.CONST>
1

>  <SCORE.INTER.POLAR>
0

>  <SCORE.INTER.ROT>
5

>  <SCORE.INTER.SOLV>
21.2691

>  <SCORE.INTER.VDW>
-28.9291

>  <SCORE.INTER.norm>
-0.972133

>  <SCORE.INTRA>
-0.273798

>  <SCORE.INTRA.DIHEDRAL>
2.15384

>  <SCORE.INTRA.DIHEDRAL.0>
8.06479

>  <SCORE.INTRA.POLAR>
0

>  <SCORE.INTRA.POLAR.0>
0

>  <SCORE.INTRA.REPUL>
0

>  <SCORE.INTRA.REPUL.0>
0

>  <SCORE.INTRA.SOLV>
1.56534

>  <SCORE.INTRA.SOLV.lig_0>
-29.8054

>  <SCORE.INTRA.VDW>
-2.13339

>  <SCORE.INTRA.VDW.0>
2.61447

>  <SCORE.INTRA.norm>
-0.0119042

>  <SCORE.RESTR>
1.25504

>  <SCORE.RESTR.CAVITY>
1.25504

>  <SCORE.RESTR.norm>
0.054567

>  <SCORE.SYSTEM>
0

>  <SCORE.SYSTEM.CONST>
0

>  <SCORE.SYSTEM.DIHEDRAL>
0

>  <SCORE.SYSTEM.SOLV>
0

>  <SCORE.SYSTEM.norm>
0

>  <SCORE.heavy>
23

>  <SCORE.norm>
-0.92947

>  <RMSD>
6.142

$$$$

 OpenBabel11021811403D
libRbt.so/2013.1/901 2013/11/27
 23 25  0  0  0  0  0  0  0  0999 V2000
  -25.4729    8.5653    9.8811 S   0  0  0  0  0  0  0  0  0  0  0  0
  -23.4624    8.2678    7.7043 N   0  0  0  0  0  0  0  0  0  0  0  0
  -24.8534    7.0077    6.1905 C   0  0  0  0  0  0  0  0  0  0  0  0
  -26.0921    6.4144    5.9134 C   0  0  0  0  0  0  0  0  0  0  0  0
  -27.1271    6.4872    6.8407 C   0  0  0  0  0  0  0  0  0  0  0  0
  -26.9307    7.1471    8.0489 C   0  0  0  0  0  0  0  0  0  0  0  0
  -25.7030    7.7382    8.3361 C   0  0  0  0  0  0  0  0  0  0  0  0
  -24.6562    7.6730    7.4088 C   0  0  0  0  0  0  0  0  0  0  0  0
  -23.8349    7.9282   10.0411 C   0  0  0  0  0  0  0  0  0  0  0  0
  -23.3666    7.5038   11.2881 C   0  0  0  0  0  0  0  0  0  0  0  0
  -22.0669    7.0045   11.4115 C   0  0  0  0  0  0  0  0  0  0  0  0
  -21.2378    6.9351   10.2873 C   0  0  0  0  0  0  0  0  0  0  0  0
  -21.7112    7.3611    9.0457 C   0  0  0  0  0  0  0  0  0  0  0  0
  -23.0027    7.8534    8.9184 C   0  0  0  0  0  0  0  0  0  0  0  0
  -22.4901    8.5672    6.6240 C   0  0  0  0  0  0  0  0  0  0  0  0
  -22.0539    7.3767    5.7062 C   0  0  0  0  0  0  0  0  0  0  0  0
  -21.4327    7.8348    4.3426 C   0  0  0  0  0  0  0  0  0  0  0  0
  -20.8626    6.7869    3.4580 N   0  3  0  0  0  0  0  0  0  0  0  0
  -19.5381    6.3239    3.9469 C   0  0  0  0  0  0  0  0  0  0  0  0
  -20.7901    7.2751    2.0373 C   0  0  0  0  0  0  0  0  0  0  0  0
  -26.3125    5.6913    4.6153 C   0  0  0  0  0  0  0  0  0  0  0  0
  -27.5732    4.9075    4.3417 C   0  0  0  0  0  0  0  0  0  0  0  0
  -25.4788    5.7849    3.7286 O   0  0  0  0  0  0  0  0  0  0  0  0
  1  7  1  0  0  0  0
  1  9  1  0  0  0  0
  2  8  1  0  0  0  0
  2 14  1  0  0  0  0
  2 15  1  0  0  0  0
  3  4  2  0  0  0  0
  3  8  1  0  0  0  0
  4  5  1  0  0  0  0
  4 21  1  0  0  0  0
  5  6  2  0  0  0  0
  6  7  1  0  0  0  0
  7  8  2  0  0  0  0
  9 10  2  0  0  0  0
  9 14  1  0  0  0  0
 10 11  1  0  0  0  0
 11 12  2  0  0  0  0
 12 13  1  0  0  0  0
 13 14  2  0  0  0  0
 15 16  1  0  0  0  0
 16 17  1  0  0  0  0
 17 18  1  0  0  0  0
 18 19  1  0  0  0  0
 18 20  1  0  0  0  0
 21 22  1  0  0  0  0
 21 23  2  0  0  0  0
M  CHG  1  18   1
M  END
>  <CHROM.1>
-54.76350951,172.97338270,160.74196968,174.02028464,43.58533839,-23.78271622
7.20581416,6.99407933,1.85678486,0.14044505,1.35570909

>  <Name>


>  <RI>
0

>  <Rbt.Current_Directory>
/home/itssahil/PROJECTS/Mol_Feturizer/New_Systems/rnas/1lvj

>  <Rbt.Executable>
rbdock ($Id: //depot/dev/client3/rdock/2013.1/src/exe/rbdock.cxx#4 $)

>  <Rbt.Library>
libRbt.so (2013.1, Build901 2013/11/27)

>  <Rbt.Parameter_File>
/export/apps/rDock/src/rDock_2013.1_src/data/scripts/dock_solv.prm

>  <Rbt.Receptor>
prm/blind_docking_100.prm

>  <SCORE>
-24.1117

>  <SCORE.INTER>
-21.8231

>  <SCORE.INTER.CONST>
1

>  <SCORE.INTER.POLAR>
0

>  <SCORE.INTER.ROT>
5

>  <SCORE.INTER.SOLV>
18.3505

>  <SCORE.INTER.VDW>
-27.5989

>  <SCORE.INTER.norm>
-0.94883

>  <SCORE.INTRA>
-3.5985

>  <SCORE.INTRA.DIHEDRAL>
-5.03194

>  <SCORE.INTRA.DIHEDRAL.0>
8.06479

>  <SCORE.INTRA.POLAR>
0

>  <SCORE.INTRA.POLAR.0>
0

>  <SCORE.INTRA.REPUL>
0

>  <SCORE.INTRA.REPUL.0>
0

>  <SCORE.INTRA.SOLV>
0.475082

>  <SCORE.INTRA.SOLV.lig_0>
-29.8054

>  <SCORE.INTRA.VDW>
-1.32007

>  <SCORE.INTRA.VDW.0>
2.61447

>  <SCORE.INTRA.norm>
-0.156457

>  <SCORE.RESTR>
1.30992

>  <SCORE.RESTR.CAVITY>
1.30992

>  <SCORE.RESTR.norm>
0.0569529

>  <SCORE.SYSTEM>
0

>  <SCORE.SYSTEM.CONST>
0

>  <SCORE.SYSTEM.DIHEDRAL>
0

>  <SCORE.SYSTEM.SOLV>
0

>  <SCORE.SYSTEM.norm>
0

>  <SCORE.heavy>
23

>  <SCORE.norm>
-1.04833

>  <RMSD>
6.146

$$$$

 OpenBabel11021811403D
libRbt.so/2013.1/901 2013/11/27
 23 25  0  0  0  0  0  0  0  0999 V2000
  -25.4243    8.3952   10.2906 S   0  0  0  0  0  0  0  0  0  0  0  0
  -23.3374    8.0700    8.1910 N   0  0  0  0  0  0  0  0  0  0  0  0
  -24.7415    7.0068    6.5441 C   0  0  0  0  0  0  0  0  0  0  0  0
  -26.0053    6.5259    6.1772 C   0  0  0  0  0  0  0  0  0  0  0  0
  -27.0761    6.6243    7.0604 C   0  0  0  0  0  0  0  0  0  0  0  0
  -26.8910    7.1978    8.3137 C   0  0  0  0  0  0  0  0  0  0  0  0
  -25.6388    7.6769    8.6900 C   0  0  0  0  0  0  0  0  0  0  0  0
  -24.5557    7.5851    7.8077 C   0  0  0  0  0  0  0  0  0  0  0  0
  -23.8470    7.6276   10.4845 C   0  0  0  0  0  0  0  0  0  0  0  0
  -23.4723    7.0989   11.7231 C   0  0  0  0  0  0  0  0  0  0  0  0
  -22.2201    6.4963   11.8738 C   0  0  0  0  0  0  0  0  0  0  0  0
  -21.3445    6.4281   10.7852 C   0  0  0  0  0  0  0  0  0  0  0  0
  -21.7245    6.9585    9.5518 C   0  0  0  0  0  0  0  0  0  0  0  0
  -22.9689    7.5537    9.3972 C   0  0  0  0  0  0  0  0  0  0  0  0
  -22.2944    8.3555    7.1749 C   0  0  0  0  0  0  0  0  0  0  0  0
  -21.9148    7.1947    6.1960 C   0  0  0  0  0  0  0  0  0  0  0  0
  -21.0975    7.6730    4.9476 C   0  0  0  0  0  0  0  0  0  0  0  0
  -20.9461    6.7219    3.8169 N   0  3  0  0  0  0  0  0  0  0  0  0
  -19.7435    7.0332    3.0018 C   0  0  0  0  0  0  0  0  0  0  0  0
  -22.1937    6.6944    2.9775 C   0  0  0  0  0  0  0  0  0  0  0  0
  -26.2145    5.8963    4.8295 C   0  0  0  0  0  0  0  0  0  0  0  0
  -27.4461    5.0841    4.5098 C   0  0  0  0  0  0  0  0  0  0  0  0
  -25.3980    6.0925    3.9435 O   0  0  0  0  0  0  0  0  0  0  0  0
  1  7  1  0  0  0  0
  1  9  1  0  0  0  0
  2  8  1  0  0  0  0
  2 14  1  0  0  0  0
  2 15  1  0  0  0  0
  3  4  2  0  0  0  0
  3  8  1  0  0  0  0
  4  5  1  0  0  0  0
  4 21  1  0  0  0  0
  5  6  2  0  0  0  0
  6  7  1  0  0  0  0
  7  8  2  0  0  0  0
  9 10  2  0  0  0  0
  9 14  1  0  0  0  0
 10 11  1  0  0  0  0
 11 12  2  0  0  0  0
 12 13  1  0  0  0  0
 13 14  2  0  0  0  0
 15 16  1  0  0  0  0
 16 17  1  0  0  0  0
 17 18  1  0  0  0  0
 18 19  1  0  0  0  0
 18 20  1  0  0  0  0
 21 22  1  0  0  0  0
 21 23  2  0  0  0  0
M  CHG  1  18   1
M  END
>  <CHROM.1>
-54.03053927,165.44325377,165.21604350,-166.76576298,-36.08208669,-23.80301841
7.10160230,7.34901284,1.74864445,0.09932355,1.42288206

>  <Name>


>  <RI>
0

>  <Rbt.Current_Directory>
/home/itssahil/PROJECTS/Mol_Feturizer/New_Systems/rnas/1lvj

>  <Rbt.Executable>
rbdock ($Id: //depot/dev/client3/rdock/2013.1/src/exe/rbdock.cxx#4 $)

>  <Rbt.Library>
libRbt.so (2013.1, Build901 2013/11/27)

>  <Rbt.Parameter_File>
/export/apps/rDock/src/rDock_2013.1_src/data/scripts/dock_solv.prm

>  <Rbt.Receptor>
prm/pocket_docking_2.prm

>  <SCORE>
-20.3377

>  <SCORE.INTER>
-21.4615

>  <SCORE.INTER.CONST>
1

>  <SCORE.INTER.POLAR>
0

>  <SCORE.INTER.ROT>
5

>  <SCORE.INTER.SOLV>
17.8895

>  <SCORE.INTER.VDW>
-27.2042

>  <SCORE.INTER.norm>
-0.933107

>  <SCORE.INTRA>
-3.22708

>  <SCORE.INTRA.DIHEDRAL>
-3.95081

>  <SCORE.INTRA.DIHEDRAL.0>
8.06479

>  <SCORE.INTRA.POLAR>
0

>  <SCORE.INTRA.POLAR.0>
0

>  <SCORE.INTRA.REPUL>
0

>  <SCORE.INTRA.REPUL.0>
0

>  <SCORE.INTRA.SOLV>
0.720316

>  <SCORE.INTRA.SOLV.lig_0>
-29.8054

>  <SCORE.INTRA.VDW>
-1.61183

>  <SCORE.INTRA.VDW.0>
2.61447

>  <SCORE.INTRA.norm>
-0.140308

>  <SCORE.RESTR>
4.35081

>  <SCORE.RESTR.CAVITY>
4.35081

>  <SCORE.RESTR.norm>
0.189166

>  <SCORE.SYSTEM>
0

>  <SCORE.SYSTEM.CONST>
0

>  <SCORE.SYSTEM.DIHEDRAL>
0

>  <SCORE.SYSTEM.SOLV>
0

>  <SCORE.SYSTEM.norm>
0

>  <SCORE.heavy>
23

>  <SCORE.norm>
-0.884249

>  <RMSD>
6.147

$$$$

 OpenBabel11021811403D
libRbt.so/2013.1/901 2013/11/27
 23 25  0  0  0  0  0  0  0  0999 V2000
  -25.5540    8.6485    9.4633 S   0  0  0  0  0  0  0  0  0  0  0  0
  -23.6271    8.2784    7.2229 N   0  0  0  0  0  0  0  0  0  0  0  0
  -25.0255    6.8593    5.8648 C   0  0  0  0  0  0  0  0  0  0  0  0
  -26.2480    6.1985    5.6860 C   0  0  0  0  0  0  0  0  0  0  0  0
  -27.2448    6.2952    6.6522 C   0  0  0  0  0  0  0  0  0  0  0  0
  -27.0258    7.0464    7.8018 C   0  0  0  0  0  0  0  0  0  0  0  0
  -25.8137    7.7053    7.9912 C   0  0  0  0  0  0  0  0  0  0  0  0
  -24.8055    7.6167    7.0239 C   0  0  0  0  0  0  0  0  0  0  0  0
  -23.8846    8.0907    9.5922 C   0  0  0  0  0  0  0  0  0  0  0  0
  -23.3457    7.7749   10.8429 C   0  0  0  0  0  0  0  0  0  0  0  0
  -22.0215    7.3383   10.9412 C   0  0  0  0  0  0  0  0  0  0  0  0
  -21.2388    7.2227    9.7878 C   0  0  0  0  0  0  0  0  0  0  0  0
  -21.7827    7.5403    8.5427 C   0  0  0  0  0  0  0  0  0  0  0  0
  -23.0986    7.9700    8.4406 C   0  0  0  0  0  0  0  0  0  0  0  0
  -22.7156    8.5393    6.0814 C   0  0  0  0  0  0  0  0  0  0  0  0
  -22.1714    7.2948    5.3037 C   0  0  0  0  0  0  0  0  0  0  0  0
  -20.6079    7.2524    5.2093 C   0  0  0  0  0  0  0  0  0  0  0  0
  -20.0013    7.1467    3.8577 N   0  3  0  0  0  0  0  0  0  0  0  0
  -20.6053    8.1215    2.9130 C   0  0  0  0  0  0  0  0  0  0  0  0
  -20.1014    5.7378    3.3411 C   0  0  0  0  0  0  0  0  0  0  0  0
  -26.4920    5.3769    4.4523 C   0  0  0  0  0  0  0  0  0  0  0  0
  -27.8112    4.6882    4.1993 C   0  0  0  0  0  0  0  0  0  0  0  0
  -25.6238    5.3086    3.5968 O   0  0  0  0  0  0  0  0  0  0  0  0
  1  7  1  0  0  0  0
  1  9  1  0  0  0  0
  2  8  1  0  0  0  0
  2 14  1  0  0  0  0
  2 15  1  0  0  0  0
  3  4  2  0  0  0  0
  3  8  1  0  0  0  0
  4  5  1  0  0  0  0
  4 21  1  0  0  0  0
  5  6  2  0  0  0  0
  6  7  1  0  0  0  0
  7  8  2  0  0  0  0
  9 10  2  0  0  0  0
  9 14  1  0  0  0  0
 10 11  1  0  0  0  0
 11 12  2  0  0  0  0
 12 13  1  0  0  0  0
 13 14  2  0  0  0  0
 15 16  1  0  0  0  0
 16 17  1  0  0  0  0
 17 18  1  0  0  0  0
 18 19  1  0  0  0  0
 18 20  1  0  0  0  0
 21 22  1  0  0  0  0
 21 23  2  0  0  0  0
M  CHG  1  18   1
M  END
>  <CHROM.1>
-59.79309616,-177.87360203,-125.39791927,-124.98327043,167.64782231,-23.81071256
7.19546530,6.76564396,-2.12881168,-0.18372945,-1.87234220

>  <Name>


>  <RI>
0

>  <Rbt.Current_Directory>
/home/itssahil/PROJECTS/Mol_Feturizer/New_Systems/rnas/1lvj

>  <Rbt.Executable>
rbdock ($Id: //depot/dev/client3/rdock/2013.1/src/exe/rbdock.cxx#4 $)

>  <Rbt.Library>
libRbt.so (2013.1, Build901 2013/11/27)

>  <Rbt.Parameter_File>
/export/apps/rDock/src/rDock_2013.1_src/data/scripts/dock_solv.prm

>  <Rbt.Receptor>
prm/blind_docking_100.prm

>  <SCORE>
-9.92587

>  <SCORE.INTER>
-12.0404

>  <SCORE.INTER.CONST>
1

>  <SCORE.INTER.POLAR>
0

>  <SCORE.INTER.ROT>
5

>  <SCORE.INTER.SOLV>
22.5784

>  <SCORE.INTER.VDW>
-22.4864

>  <SCORE.INTER.norm>
-0.523495

>  <SCORE.INTRA>
1.43682

>  <SCORE.INTRA.DIHEDRAL>
3.64007

>  <SCORE.INTRA.DIHEDRAL.0>
8.06479

>  <SCORE.INTRA.POLAR>
0

>  <SCORE.INTRA.POLAR.0>
0

>  <SCORE.INTRA.REPUL>
0

>  <SCORE.INTRA.REPUL.0>
0

>  <SCORE.INTRA.SOLV>
-0.521557

>  <SCORE.INTRA.SOLV.lig_0>
-29.8054

>  <SCORE.INTRA.VDW>
-0.122438

>  <SCORE.INTRA.VDW.0>
2.61447

>  <SCORE.INTRA.norm>
0.0624705

>  <SCORE.RESTR>
0.677692

>  <SCORE.RESTR.CAVITY>
0.677692

>  <SCORE.RESTR.norm>
0.0294649

>  <SCORE.SYSTEM>
0

>  <SCORE.SYSTEM.CONST>
0

>  <SCORE.SYSTEM.DIHEDRAL>
0

>  <SCORE.SYSTEM.SOLV>
0

>  <SCORE.SYSTEM.norm>
0

>  <SCORE.heavy>
23

>  <SCORE.norm>
-0.431559

>  <RMSD>
6.155

$$$$

 OpenBabel11021811403D
libRbt.so/2013.1/901 2013/11/27
 23 25  0  0  0  0  0  0  0  0999 V2000
  -25.6351    8.4429    9.3644 S   0  0  0  0  0  0  0  0  0  0  0  0
  -23.7797    8.3899    7.0355 N   0  0  0  0  0  0  0  0  0  0  0  0
  -25.1177    6.9614    5.6271 C   0  0  0  0  0  0  0  0  0  0  0  0
  -26.2910    6.2179    5.4438 C   0  0  0  0  0  0  0  0  0  0  0  0
  -27.2513    6.1648    6.4496 C   0  0  0  0  0  0  0  0  0  0  0  0
  -27.0444    6.8481    7.6429 C   0  0  0  0  0  0  0  0  0  0  0  0
  -25.8809    7.5882    7.8370 C   0  0  0  0  0  0  0  0  0  0  0  0
  -24.9098    7.6503    6.8304 C   0  0  0  0  0  0  0  0  0  0  0  0
  -23.9231    8.0148    9.3921 C   0  0  0  0  0  0  0  0  0  0  0  0
  -23.3097    7.6562   10.5960 C   0  0  0  0  0  0  0  0  0  0  0  0
  -21.9524    7.3227   10.6145 C   0  0  0  0  0  0  0  0  0  0  0  0
  -21.2116    7.3529    9.4285 C   0  0  0  0  0  0  0  0  0  0  0  0
  -21.8299    7.7125    8.2304 C   0  0  0  0  0  0  0  0  0  0  0  0
  -23.1786    8.0401    8.2074 C   0  0  0  0  0  0  0  0  0  0  0  0
  -22.9396    8.8040    5.8845 C   0  0  0  0  0  0  0  0  0  0  0  0
  -21.9859    7.7246    5.2721 C   0  0  0  0  0  0  0  0  0  0  0  0
  -21.1104    8.2639    4.0897 C   0  0  0  0  0  0  0  0  0  0  0  0
  -20.2484    7.2914    3.3707 N   0  3  0  0  0  0  0  0  0  0  0  0
  -21.0377    6.4605    2.4251 C   0  0  0  0  0  0  0  0  0  0  0  0
  -19.4792    6.4433    4.3460 C   0  0  0  0  0  0  0  0  0  0  0  0
  -26.5208    5.4684    4.1624 C   0  0  0  0  0  0  0  0  0  0  0  0
  -25.4978    5.4514    3.0526 C   0  0  0  0  0  0  0  0  0  0  0  0
  -27.5357    4.8029    4.0316 O   0  0  0  0  0  0  0  0  0  0  0  0
  1  7  1  0  0  0  0
  1  9  1  0  0  0  0
  2  8  1  0  0  0  0
  2 14  1  0  0  0  0
  2 15  1  0  0  0  0
  3  4  2  0  0  0  0
  3  8  1  0  0  0  0
  4  5  1  0  0  0  0
  4 21  1  0  0  0  0
  5  6  2  0  0  0  0
  6  7  1  0  0  0  0
  7  8  2  0  0  0  0
  9 10  2  0  0  0  0
  9 14  1  0  0  0  0
 10 11  1  0  0  0  0
 11 12  2  0  0  0  0
 12 13  1  0  0  0  0
 13 14  2  0  0  0  0
 15 16  1  0  0  0  0
 16 17  1  0  0  0  0
 17 18  1  0  0  0  0
 18 19  1  0  0  0  0
 18 20  1  0  0  0  0
 21 22  1  0  0  0  0
 21 23  2  0  0  0  0
M  CHG  1  18   1
M  END
>  <CHROM.1>
-78.19831981,1.79571686,-178.35513586,-175.34950513,-162.57053286,-23.85359724
7.22570215,6.53691139,-2.07320385,-0.19531894,-1.85260047

>  <Name>


>  <RI>
0

>  <Rbt.Current_Directory>
/home/itssahil/PROJECTS/Mol_Feturizer/New_Systems/rnas/1lvj

>  <Rbt.Executable>
rbdock ($Id: //depot/dev/client3/rdock/2013.1/src/exe/rbdock.cxx#4 $)

>  <Rbt.Library>
libRbt.so (2013.1, Build901 2013/11/27)

>  <Rbt.Parameter_File>
/export/apps/rDock/src/rDock_2013.1_src/data/scripts/dock_solv.prm

>  <Rbt.Receptor>
prm/blind_docking_100.prm

>  <SCORE>
3.34284

>  <SCORE.INTER>
6.96211

>  <SCORE.INTER.CONST>
1

>  <SCORE.INTER.POLAR>
0

>  <SCORE.INTER.ROT>
5

>  <SCORE.INTER.SOLV>
19.6713

>  <SCORE.INTER.VDW>
-8.84903

>  <SCORE.INTER.norm>
0.3027

>  <SCORE.INTRA>
-4.05574

>  <SCORE.INTRA.DIHEDRAL>
-7.09943

>  <SCORE.INTRA.DIHEDRAL.0>
8.06479

>  <SCORE.INTRA.POLAR>
0

>  <SCORE.INTRA.POLAR.0>
0

>  <SCORE.INTRA.REPUL>
0

>  <SCORE.INTRA.REPUL.0>
0

>  <SCORE.INTRA.SOLV>
-0.589347

>  <SCORE.INTRA.SOLV.lig_0>
-29.8054

>  <SCORE.INTRA.VDW>
-0.211347

>  <SCORE.INTRA.VDW.0>
2.61447

>  <SCORE.INTRA.norm>
-0.176336

>  <SCORE.RESTR>
0.436471

>  <SCORE.RESTR.CAVITY>
0.436471

>  <SCORE.RESTR.norm>
0.018977

>  <SCORE.SYSTEM>
0

>  <SCORE.SYSTEM.CONST>
0

>  <SCORE.SYSTEM.DIHEDRAL>
0

>  <SCORE.SYSTEM.SOLV>
0

>  <SCORE.SYSTEM.norm>
0

>  <SCORE.heavy>
23

>  <SCORE.norm>
0.145341

>  <RMSD>
6.157

$$$$

 OpenBabel11021811403D
libRbt.so/2013.1/901 2013/11/27
 23 25  0  0  0  0  0  0  0  0999 V2000
  -25.5803    8.2042   10.0031 S   0  0  0  0  0  0  0  0  0  0  0  0
  -23.0067    7.0754   10.9886 N   0  0  0  0  0  0  0  0  0  0  0  0
  -22.7008    8.6047   12.8276 C   0  0  0  0  0  0  0  0  0  0  0  0
  -23.1730    9.6936   13.5722 C   0  0  0  0  0  0  0  0  0  0  0  0
  -24.3715   10.3112   13.2277 C   0  0  0  0  0  0  0  0  0  0  0  0
  -25.1014    9.8496   12.1377 C   0  0  0  0  0  0  0  0  0  0  0  0
  -24.6404    8.7697   11.3890 C   0  0  0  0  0  0  0  0  0  0  0  0
  -23.4373    8.1396   11.7290 C   0  0  0  0  0  0  0  0  0  0  0  0
  -24.1183    7.9310    9.0529 C   0  0  0  0  0  0  0  0  0  0  0  0
  -24.0964    8.2520    7.6925 C   0  0  0  0  0  0  0  0  0  0  0  0
  -22.9381    8.0294    6.9424 C   0  0  0  0  0  0  0  0  0  0  0  0
  -21.8061    7.4822    7.5550 C   0  0  0  0  0  0  0  0  0  0  0  0
  -21.8350    7.1633    8.9131 C   0  0  0  0  0  0  0  0  0  0  0  0
  -22.9819    7.3870    9.6622 C   0  0  0  0  0  0  0  0  0  0  0  0
  -21.9831    6.1508   11.5359 C   0  0  0  0  0  0  0  0  0  0  0  0
  -22.3330    4.6252   11.5482 C   0  0  0  0  0  0  0  0  0  0  0  0
  -23.6337    4.2897   12.3551 C   0  0  0  0  0  0  0  0  0  0  0  0
  -23.5135    4.1474   13.8286 N   0  3  0  0  0  0  0  0  0  0  0  0
  -22.7770    2.9108   14.1972 C   0  0  0  0  0  0  0  0  0  0  0  0
  -24.8689    4.2007   14.4780 C   0  0  0  0  0  0  0  0  0  0  0  0
  -22.3883   10.2063   14.7460 C   0  0  0  0  0  0  0  0  0  0  0  0
  -22.8978   11.3273   15.6192 C   0  0  0  0  0  0  0  0  0  0  0  0
  -21.3350    9.6661   15.0443 O   0  0  0  0  0  0  0  0  0  0  0  0
  1  7  1  0  0  0  0
  1  9  1  0  0  0  0
  2  8  1  0  0  0  0
  2 14  1  0  0  0  0
  2 15  1  0  0  0  0
  3  4  2  0  0  0  0
  3  8  1  0  0  0  0
  4  5  1  0  0  0  0
  4 21  1  0  0  0  0
  5  6  2  0  0  0  0
  6  7  1  0  0  0  0
  7  8  2  0  0  0  0
  9 10  2  0  0  0  0
  9 14  1  0  0  0  0
 10 11  1  0  0  0  0
 11 12  2  0  0  0  0
 12 13  1  0  0  0  0
 13 14  2  0  0  0  0
 15 16  1  0  0  0  0
 16 17  1  0  0  0  0
 17 18  1  0  0  0  0
 18 19  1  0  0  0  0
 18 20  1  0  0  0  0
 21 22  1  0  0  0  0
 21 23  2  0  0  0  0
M  CHG  1  18   1
M  END
>  <CHROM.1>
126.28548087,-176.60262195,-58.14694234,-82.79715006,49.48498557,-23.39344507
7.54778750,11.69937654,2.53543110,1.48266423,-2.60839682

>  <Name>


>  <RI>
0

>  <Rbt.Current_Directory>
/home/itssahil/PROJECTS/Mol_Feturizer/New_Systems/rnas/1lvj

>  <Rbt.Executable>
rbdock ($Id: //depot/dev/client3/rdock/2013.1/src/exe/rbdock.cxx#4 $)

>  <Rbt.Library>
libRbt.so (2013.1, Build901 2013/11/27)

>  <Rbt.Parameter_File>
/export/apps/rDock/src/rDock_2013.1_src/data/scripts/dock_solv.prm

>  <Rbt.Receptor>
prm/pocket_docking_8.prm

>  <SCORE>
-27.3142

>  <SCORE.INTER>
-23.3805

>  <SCORE.INTER.CONST>
1

>  <SCORE.INTER.POLAR>
0

>  <SCORE.INTER.ROT>
5

>  <SCORE.INTER.SOLV>
7.14851

>  <SCORE.INTER.VDW>
-24.9032

>  <SCORE.INTER.norm>
-1.01654

>  <SCORE.INTRA>
-3.93367

>  <SCORE.INTRA.DIHEDRAL>
-4.12917

>  <SCORE.INTRA.DIHEDRAL.0>
8.06479

>  <SCORE.INTRA.POLAR>
0

>  <SCORE.INTRA.POLAR.0>
0

>  <SCORE.INTRA.REPUL>
0

>  <SCORE.INTRA.REPUL.0>
0

>  <SCORE.INTRA.SOLV>
2.2233

>  <SCORE.INTRA.SOLV.lig_0>
-29.8054

>  <SCORE.INTRA.VDW>
-2.98074

>  <SCORE.INTRA.VDW.0>
2.61447

>  <SCORE.INTRA.norm>
-0.171029

>  <SCORE.RESTR>
0

>  <SCORE.RESTR.CAVITY>
0

>  <SCORE.RESTR.norm>
0

>  <SCORE.SYSTEM>
0

>  <SCORE.SYSTEM.CONST>
0

>  <SCORE.SYSTEM.DIHEDRAL>
0

>  <SCORE.SYSTEM.SOLV>
0

>  <SCORE.SYSTEM.norm>
0

>  <SCORE.heavy>
23

>  <SCORE.norm>
-1.18757

>  <RMSD>
6.165

$$$$

 OpenBabel11021811403D
libRbt.so/2013.1/901 2013/11/27
 23 25  0  0  0  0  0  0  0  0999 V2000
  -25.4584    8.1915   10.3087 S   0  0  0  0  0  0  0  0  0  0  0  0
  -23.2855    7.9825    8.2829 N   0  0  0  0  0  0  0  0  0  0  0  0
  -24.6329    7.0770    6.5000 C   0  0  0  0  0  0  0  0  0  0  0  0
  -25.8873    6.6519    6.0429 C   0  0  0  0  0  0  0  0  0  0  0  0
  -26.9948    6.7056    6.8838 C   0  0  0  0  0  0  0  0  0  0  0  0
  -26.8559    7.1785    8.1841 C   0  0  0  0  0  0  0  0  0  0  0  0
  -25.6136    7.6012    8.6500 C   0  0  0  0  0  0  0  0  0  0  0  0
  -24.4937    7.5538    7.8111 C   0  0  0  0  0  0  0  0  0  0  0  0
  -23.9051    7.3784   10.5114 C   0  0  0  0  0  0  0  0  0  0  0  0
  -23.5957    6.7496   11.7210 C   0  0  0  0  0  0  0  0  0  0  0  0
  -22.3624    6.1111   11.8791 C   0  0  0  0  0  0  0  0  0  0  0  0
  -21.4402    6.1072   10.8275 C   0  0  0  0  0  0  0  0  0  0  0  0
  -21.7551    6.7374    9.6231 C   0  0  0  0  0  0  0  0  0  0  0  0
  -22.9806    7.3687    9.4608 C   0  0  0  0  0  0  0  0  0  0  0  0
  -22.1931    8.3222    7.3377 C   0  0  0  0  0  0  0  0  0  0  0  0
  -22.0247    7.4037    6.0816 C   0  0  0  0  0  0  0  0  0  0  0  0
  -21.5434    8.1743    4.8049 C   0  0  0  0  0  0  0  0  0  0  0  0
  -20.9212    7.3809    3.7144 N   0  3  0  0  0  0  0  0  0  0  0  0
  -21.9397    6.6178    2.9478 C   0  0  0  0  0  0  0  0  0  0  0  0
  -19.8480    6.4801    4.2610 C   0  0  0  0  0  0  0  0  0  0  0  0
  -26.0470    6.1308    4.6431 C   0  0  0  0  0  0  0  0  0  0  0  0
  -24.8730    5.9886    3.7049 C   0  0  0  0  0  0  0  0  0  0  0  0
  -27.1450    5.7533    4.2662 O   0  0  0  0  0  0  0  0  0  0  0  0
  1  7  1  0  0  0  0
  1  9  1  0  0  0  0
  2  8  1  0  0  0  0
  2 14  1  0  0  0  0
  2 15  1  0  0  0  0
  3  4  2  0  0  0  0
  3  8  1  0  0  0  0
  4  5  1  0  0  0  0
  4 21  1  0  0  0  0
  5  6  2  0  0  0  0
  6  7  1  0  0  0  0
  7  8  2  0  0  0  0
  9 10  2  0  0  0  0
  9 14  1  0  0  0  0
 10 11  1  0  0  0  0
 11 12  2  0  0  0  0
 12 13  1  0  0  0  0
 13 14  2  0  0  0  0
 15 16  1  0  0  0  0
 16 17  1  0  0  0  0
 17 18  1  0  0  0  0
 18 19  1  0  0  0  0
 18 20  1  0  0  0  0
 21 22  1  0  0  0  0
 21 23  2  0  0  0  0
M  CHG  1  18   1
M  END
>  <CHROM.1>
-39.26864468,2.67440192,145.90402290,159.88887940,-164.98117367,-23.77715681
7.08585055,7.35910425,1.71443700,0.05011991,1.48999005

>  <Name>


>  <RI>
0

>  <Rbt.Current_Directory>
/home/itssahil/PROJECTS/Mol_Feturizer/New_Systems/rnas/1lvj

>  <Rbt.Executable>
rbdock ($Id: //depot/dev/client3/rdock/2013.1/src/exe/rbdock.cxx#4 $)

>  <Rbt.Library>
libRbt.so (2013.1, Build901 2013/11/27)

>  <Rbt.Parameter_File>
/export/apps/rDock/src/rDock_2013.1_src/data/scripts/dock_solv.prm

>  <Rbt.Receptor>
prm/pocket_docking_2.prm

>  <SCORE>
-15.6072

>  <SCORE.INTER>
-22.1117

>  <SCORE.INTER.CONST>
1

>  <SCORE.INTER.POLAR>
-0.0759443

>  <SCORE.INTER.ROT>
5

>  <SCORE.INTER.SOLV>
16.6472

>  <SCORE.INTER.VDW>
-26.9704

>  <SCORE.INTER.norm>
-0.961377

>  <SCORE.INTRA>
2.8839

>  <SCORE.INTRA.DIHEDRAL>
-1.55983

>  <SCORE.INTRA.DIHEDRAL.0>
8.06479

>  <SCORE.INTRA.POLAR>
0

>  <SCORE.INTRA.POLAR.0>
0

>  <SCORE.INTRA.REPUL>
0

>  <SCORE.INTRA.REPUL.0>
0

>  <SCORE.INTRA.SOLV>
-0.546897

>  <SCORE.INTRA.SOLV.lig_0>
-29.8054

>  <SCORE.INTRA.VDW>
3.93726

>  <SCORE.INTRA.VDW.0>
2.61447

>  <SCORE.INTRA.norm>
0.125387

>  <SCORE.RESTR>
3.62058

>  <SCORE.RESTR.CAVITY>
3.62058

>  <SCORE.RESTR.norm>
0.157417

>  <SCORE.SYSTEM>
0

>  <SCORE.SYSTEM.CONST>
0

>  <SCORE.SYSTEM.DIHEDRAL>
0

>  <SCORE.SYSTEM.SOLV>
0

>  <SCORE.SYSTEM.norm>
0

>  <SCORE.heavy>
23

>  <SCORE.norm>
-0.678574

>  <RMSD>
6.178

$$$$

 OpenBabel11021811403D
libRbt.so/2013.1/901 2013/11/27
 23 25  0  0  0  0  0  0  0  0999 V2000
  -25.5996    8.9984    8.0361 S   0  0  0  0  0  0  0  0  0  0  0  0
  -23.8318    7.6930    6.0261 N   0  0  0  0  0  0  0  0  0  0  0  0
  -25.5112    6.2738    5.0363 C   0  0  0  0  0  0  0  0  0  0  0  0
  -26.8435    5.8420    4.9961 C   0  0  0  0  0  0  0  0  0  0  0  0
  -27.7807    6.3779    5.8741 C   0  0  0  0  0  0  0  0  0  0  0  0
  -27.3934    7.3423    6.7980 C   0  0  0  0  0  0  0  0  0  0  0  0
  -26.0715    7.7772    6.8487 C   0  0  0  0  0  0  0  0  0  0  0  0
  -25.1215    7.2463    5.9680 C   0  0  0  0  0  0  0  0  0  0  0  0
  -24.0704    8.1770    8.3550 C   0  0  0  0  0  0  0  0  0  0  0  0
  -23.5776    8.0953    9.6607 C   0  0  0  0  0  0  0  0  0  0  0  0
  -22.3636    7.4483    9.9084 C   0  0  0  0  0  0  0  0  0  0  0  0
  -21.6439    6.8881    8.8479 C   0  0  0  0  0  0  0  0  0  0  0  0
  -22.1411    6.9738    7.5470 C   0  0  0  0  0  0  0  0  0  0  0  0
  -23.3485    7.6118    7.2977 C   0  0  0  0  0  0  0  0  0  0  0  0
  -22.9114    7.4668    4.8843 C   0  0  0  0  0  0  0  0  0  0  0  0
  -21.5506    8.2400    4.9005 C   0  0  0  0  0  0  0  0  0  0  0  0
  -20.4468    7.5797    4.0055 C   0  0  0  0  0  0  0  0  0  0  0  0
  -20.6603    7.5790    2.5357 N   0  3  0  0  0  0  0  0  0  0  0  0
  -21.0549    8.9240    2.0429 C   0  0  0  0  0  0  0  0  0  0  0  0
  -21.6642    6.5288    2.1469 C   0  0  0  0  0  0  0  0  0  0  0  0
  -27.2710    4.7942    4.0082 C   0  0  0  0  0  0  0  0  0  0  0  0
  -28.6296    4.1397    4.0757 C   0  0  0  0  0  0  0  0  0  0  0  0
  -26.5267    4.5013    3.0861 O   0  0  0  0  0  0  0  0  0  0  0  0
  1  7  1  0  0  0  0
  1  9  1  0  0  0  0
  2  8  1  0  0  0  0
  2 14  1  0  0  0  0
  2 15  1  0  0  0  0
  3  4  2  0  0  0  0
  3  8  1  0  0  0  0
  4  5  1  0  0  0  0
  4 21  1  0  0  0  0
  5  6  2  0  0  0  0
  6  7  1  0  0  0  0
  7  8  2  0  0  0  0
  9 10  2  0  0  0  0
  9 14  1  0  0  0  0
 10 11  1  0  0  0  0
 11 12  2  0  0  0  0
 12 13  1  0  0  0  0
 13 14  2  0  0  0  0
 15 16  1  0  0  0  0
 16 17  1  0  0  0  0
 17 18  1  0  0  0  0
 18 19  1  0  0  0  0
 18 20  1  0  0  0  0
 21 22  1  0  0  0  0
 21 23  2  0  0  0  0
M  CHG  1  18   1
M  END
>  <CHROM.1>
168.36055212,169.86946403,158.39635288,66.77598357,168.20981119,-24.19939672
7.15789578,5.78864659,-3.05873825,-0.32138472,-1.87078321

>  <Name>


>  <RI>
0

>  <Rbt.Current_Directory>
/home/itssahil/PROJECTS/Mol_Feturizer/New_Systems/rnas/1lvj

>  <Rbt.Executable>
rbdock ($Id: //depot/dev/client3/rdock/2013.1/src/exe/rbdock.cxx#4 $)

>  <Rbt.Library>
libRbt.so (2013.1, Build901 2013/11/27)

>  <Rbt.Parameter_File>
/export/apps/rDock/src/rDock_2013.1_src/data/scripts/dock_solv.prm

>  <Rbt.Receptor>
prm/blind_docking_100.prm

>  <SCORE>
1.71292

>  <SCORE.INTER>
3.56749

>  <SCORE.INTER.CONST>
1

>  <SCORE.INTER.POLAR>
0

>  <SCORE.INTER.ROT>
5

>  <SCORE.INTER.SOLV>
17.7492

>  <SCORE.INTER.VDW>
-10.4714

>  <SCORE.INTER.norm>
0.155108

>  <SCORE.INTRA>
-2.43239

>  <SCORE.INTRA.DIHEDRAL>
-5.12706

>  <SCORE.INTRA.DIHEDRAL.0>
8.06479

>  <SCORE.INTRA.POLAR>
0

>  <SCORE.INTRA.POLAR.0>
0

>  <SCORE.INTRA.REPUL>
0

>  <SCORE.INTRA.REPUL.0>
0

>  <SCORE.INTRA.SOLV>
-0.420848

>  <SCORE.INTRA.SOLV.lig_0>
-29.8054

>  <SCORE.INTRA.VDW>
0.341562

>  <SCORE.INTRA.VDW.0>
2.61447

>  <SCORE.INTRA.norm>
-0.105756

>  <SCORE.RESTR>
0.577821

>  <SCORE.RESTR.CAVITY>
0.577821

>  <SCORE.RESTR.norm>
0.0251227

>  <SCORE.SYSTEM>
0

>  <SCORE.SYSTEM.CONST>
0

>  <SCORE.SYSTEM.DIHEDRAL>
0

>  <SCORE.SYSTEM.SOLV>
0

>  <SCORE.SYSTEM.norm>
0

>  <SCORE.heavy>
23

>  <SCORE.norm>
0.0744748

>  <RMSD>
6.182

$$$$

 OpenBabel11021811403D
libRbt.so/2013.1/901 2013/11/27
 23 25  0  0  0  0  0  0  0  0999 V2000
  -25.6078    9.0051    8.0444 S   0  0  0  0  0  0  0  0  0  0  0  0
  -23.8385    7.6970    6.0374 N   0  0  0  0  0  0  0  0  0  0  0  0
  -25.5174    6.2771    5.0477 C   0  0  0  0  0  0  0  0  0  0  0  0
  -26.8497    5.8455    5.0068 C   0  0  0  0  0  0  0  0  0  0  0  0
  -27.7876    6.3827    5.8833 C   0  0  0  0  0  0  0  0  0  0  0  0
  -27.4009    7.3480    6.8066 C   0  0  0  0  0  0  0  0  0  0  0  0
  -26.0790    7.7826    6.8579 C   0  0  0  0  0  0  0  0  0  0  0  0
  -25.1283    7.2505    5.9786 C   0  0  0  0  0  0  0  0  0  0  0  0
  -24.0791    8.1836    8.3656 C   0  0  0  0  0  0  0  0  0  0  0  0
  -23.5875    8.1033    9.6718 C   0  0  0  0  0  0  0  0  0  0  0  0
  -22.3739    7.4562    9.9212 C   0  0  0  0  0  0  0  0  0  0  0  0
  -21.6534    6.8948    8.8621 C   0  0  0  0  0  0  0  0  0  0  0  0
  -22.1494    6.9791    7.5606 C   0  0  0  0  0  0  0  0  0  0  0  0
  -23.3564    7.6171    7.3095 C   0  0  0  0  0  0  0  0  0  0  0  0
  -22.9172    7.4693    4.8966 C   0  0  0  0  0  0  0  0  0  0  0  0
  -21.5474    8.2262    4.9235 C   0  0  0  0  0  0  0  0  0  0  0  0
  -20.4310    7.5267    4.0752 C   0  0  0  0  0  0  0  0  0  0  0  0
  -20.5947    7.5111    2.5992 N   0  3  0  0  0  0  0  0  0  0  0  0
  -20.9353    8.8592    2.0755 C   0  0  0  0  0  0  0  0  0  0  0  0
  -21.6134    6.4830    2.1902 C   0  0  0  0  0  0  0  0  0  0  0  0
  -27.2766    4.7967    4.0197 C   0  0  0  0  0  0  0  0  0  0  0  0
  -28.6327    4.1375    4.0910 C   0  0  0  0  0  0  0  0  0  0  0  0
  -26.5341    4.5069    3.0951 O   0  0  0  0  0  0  0  0  0  0  0  0
  1  7  1  0  0  0  0
  1  9  1  0  0  0  0
  2  8  1  0  0  0  0
  2 14  1  0  0  0  0
  2 15  1  0  0  0  0
  3  4  2  0  0  0  0
  3  8  1  0  0  0  0
  4  5  1  0  0  0  0
  4 21  1  0  0  0  0
  5  6  2  0  0  0  0
  6  7  1  0  0  0  0
  7  8  2  0  0  0  0
  9 10  2  0  0  0  0
  9 14  1  0  0  0  0
 10 11  1  0  0  0  0
 11 12  2  0  0  0  0
 12 13  1  0  0  0  0
 13 14  2  0  0  0  0
 15 16  1  0  0  0  0
 16 17  1  0  0  0  0
 17 18  1  0  0  0  0
 18 19  1  0  0  0  0
 18 20  1  0  0  0  0
 21 22  1  0  0  0  0
 21 23  2  0  0  0  0
M  CHG  1  18   1
M  END
>  <CHROM.1>
169.22142666,169.54488545,155.93592316,68.06585240,168.34676587,-24.19346432
7.15051163,5.80767719,-3.05716051,-0.31238857,-1.88155492

>  <Name>


>  <RI>
0

>  <Rbt.Current_Directory>
/home/itssahil/PROJECTS/Mol_Feturizer/New_Systems/rnas/1lvj

>  <Rbt.Executable>
rbdock ($Id: //depot/dev/client3/rdock/2013.1/src/exe/rbdock.cxx#4 $)

>  <Rbt.Library>
libRbt.so (2013.1, Build901 2013/11/27)

>  <Rbt.Parameter_File>
/export/apps/rDock/src/rDock_2013.1_src/data/scripts/dock_solv.prm

>  <Rbt.Receptor>
prm/blind_docking_100.prm

>  <SCORE>
1.98836

>  <SCORE.INTER>
3.63698

>  <SCORE.INTER.CONST>
1

>  <SCORE.INTER.POLAR>
0

>  <SCORE.INTER.ROT>
5

>  <SCORE.INTER.SOLV>
17.7575

>  <SCORE.INTER.VDW>
-10.4278

>  <SCORE.INTER.norm>
0.158129

>  <SCORE.INTRA>
-2.2216

>  <SCORE.INTRA.DIHEDRAL>
-4.70441

>  <SCORE.INTRA.DIHEDRAL.0>
8.06479

>  <SCORE.INTRA.POLAR>
0

>  <SCORE.INTRA.POLAR.0>
0

>  <SCORE.INTRA.REPUL>
0

>  <SCORE.INTRA.REPUL.0>
0

>  <SCORE.INTRA.SOLV>
-0.430903

>  <SCORE.INTRA.SOLV.lig_0>
-29.8054

>  <SCORE.INTRA.VDW>
0.346059

>  <SCORE.INTRA.VDW.0>
2.61447

>  <SCORE.INTRA.norm>
-0.0965913

>  <SCORE.RESTR>
0.572983

>  <SCORE.RESTR.CAVITY>
0.572983

>  <SCORE.RESTR.norm>
0.0249123

>  <SCORE.SYSTEM>
0

>  <SCORE.SYSTEM.CONST>
0

>  <SCORE.SYSTEM.DIHEDRAL>
0

>  <SCORE.SYSTEM.SOLV>
0

>  <SCORE.SYSTEM.norm>
0

>  <SCORE.heavy>
23

>  <SCORE.norm>
0.0864504

>  <RMSD>
6.185

$$$$

 OpenBabel11021811403D
libRbt.so/2013.1/901 2013/11/27
 23 25  0  0  0  0  0  0  0  0999 V2000
  -25.6006    8.9960    7.9228 S   0  0  0  0  0  0  0  0  0  0  0  0
  -23.8730    7.6252    5.9214 N   0  0  0  0  0  0  0  0  0  0  0  0
  -25.5736    6.1817    5.0058 C   0  0  0  0  0  0  0  0  0  0  0  0
  -26.9074    5.7527    5.0029 C   0  0  0  0  0  0  0  0  0  0  0  0
  -27.8272    6.3178    5.8811 C   0  0  0  0  0  0  0  0  0  0  0  0
  -27.4208    7.3085    6.7683 C   0  0  0  0  0  0  0  0  0  0  0  0
  -26.0971    7.7409    6.7817 C   0  0  0  0  0  0  0  0  0  0  0  0
  -25.1646    7.1808    5.9003 C   0  0  0  0  0  0  0  0  0  0  0  0
  -24.0678    8.1801    8.2386 C   0  0  0  0  0  0  0  0  0  0  0  0
  -23.5515    8.1365    9.5369 C   0  0  0  0  0  0  0  0  0  0  0  0
  -22.3348    7.4937    9.7820 C   0  0  0  0  0  0  0  0  0  0  0  0
  -21.6359    6.8996    8.7261 C   0  0  0  0  0  0  0  0  0  0  0  0
  -22.1566    6.9474    7.4324 C   0  0  0  0  0  0  0  0  0  0  0  0
  -23.3667    7.5810    7.1859 C   0  0  0  0  0  0  0  0  0  0  0  0
  -22.9742    7.3619    4.7704 C   0  0  0  0  0  0  0  0  0  0  0  0
  -21.6098    8.1283    4.7404 C   0  0  0  0  0  0  0  0  0  0  0  0
  -20.4649    7.3368    4.0207 C   0  0  0  0  0  0  0  0  0  0  0  0
  -20.4956    7.2767    2.5370 N   0  3  0  0  0  0  0  0  0  0  0  0
  -20.5556    8.6354    1.9388 C   0  0  0  0  0  0  0  0  0  0  0  0
  -21.6321    6.4119    2.0654 C   0  0  0  0  0  0  0  0  0  0  0  0
  -27.3554    4.6768    4.0552 C   0  0  0  0  0  0  0  0  0  0  0  0
  -28.7781    4.1729    4.0337 C   0  0  0  0  0  0  0  0  0  0  0  0
  -26.5666    4.2346    3.2351 O   0  0  0  0  0  0  0  0  0  0  0  0
  1  7  1  0  0  0  0
  1  9  1  0  0  0  0
  2  8  1  0  0  0  0
  2 14  1  0  0  0  0
  2 15  1  0  0  0  0
  3  4  2  0  0  0  0
  3  8  1  0  0  0  0
  4  5  1  0  0  0  0
  4 21  1  0  0  0  0
  5  6  2  0  0  0  0
  6  7  1  0  0  0  0
  7  8  2  0  0  0  0
  9 10  2  0  0  0  0
  9 14  1  0  0  0  0
 10 11  1  0  0  0  0
 11 12  2  0  0  0  0
 12 13  1  0  0  0  0
 13 14  2  0  0  0  0
 15 16  1  0  0  0  0
 16 17  1  0  0  0  0
 17 18  1  0  0  0  0
 18 19  1  0  0  0  0
 18 20  1  0  0  0  0
 21 22  1  0  0  0  0
 21 23  2  0  0  0  0
M  CHG  1  18   1
M  END
>  <CHROM.1>
168.51791968,179.11982447,149.98157964,75.48748036,174.65856617,-24.19619980
7.07364042,5.72647733,-3.02663478,-0.30620732,-1.91481509

>  <Name>


>  <RI>
0

>  <Rbt.Current_Directory>
/home/itssahil/PROJECTS/Mol_Feturizer/New_Systems/rnas/1lvj

>  <Rbt.Executable>
rbdock ($Id: //depot/dev/client3/rdock/2013.1/src/exe/rbdock.cxx#4 $)

>  <Rbt.Library>
libRbt.so (2013.1, Build901 2013/11/27)

>  <Rbt.Parameter_File>
/export/apps/rDock/src/rDock_2013.1_src/data/scripts/dock_solv.prm

>  <Rbt.Receptor>
prm/blind_docking_100.prm

>  <SCORE>
1.33865

>  <SCORE.INTER>
2.79949

>  <SCORE.INTER.CONST>
1

>  <SCORE.INTER.POLAR>
0

>  <SCORE.INTER.ROT>
5

>  <SCORE.INTER.SOLV>
17.285

>  <SCORE.INTER.VDW>
-10.8287

>  <SCORE.INTER.norm>
0.121717

>  <SCORE.INTRA>
-2.17746

>  <SCORE.INTRA.DIHEDRAL>
-4.07067

>  <SCORE.INTRA.DIHEDRAL.0>
8.06479

>  <SCORE.INTRA.POLAR>
0

>  <SCORE.INTRA.POLAR.0>
0

>  <SCORE.INTRA.REPUL>
0

>  <SCORE.INTRA.REPUL.0>
0

>  <SCORE.INTRA.SOLV>
-0.465625

>  <SCORE.INTRA.SOLV.lig_0>
-29.8054

>  <SCORE.INTRA.VDW>
0.090686

>  <SCORE.INTRA.VDW.0>
2.61447

>  <SCORE.INTRA.norm>
-0.0946723

>  <SCORE.RESTR>
0.716622

>  <SCORE.RESTR.CAVITY>
0.716622

>  <SCORE.RESTR.norm>
0.0311575

>  <SCORE.SYSTEM>
0

>  <SCORE.SYSTEM.CONST>
0

>  <SCORE.SYSTEM.DIHEDRAL>
0

>  <SCORE.SYSTEM.SOLV>
0

>  <SCORE.SYSTEM.norm>
0

>  <SCORE.heavy>
23

>  <SCORE.norm>
0.0582023

>  <RMSD>
6.187

$$$$

 OpenBabel11021811403D
libRbt.so/2013.1/901 2013/11/27
 23 25  0  0  0  0  0  0  0  0999 V2000
  -25.9701    6.8983    9.0058 S   0  0  0  0  0  0  0  0  0  0  0  0
  -23.1944    7.1592   10.0529 N   0  0  0  0  0  0  0  0  0  0  0  0
  -23.6977    8.7006   11.8375 C   0  0  0  0  0  0  0  0  0  0  0  0
  -24.6491    9.4537   12.5381 C   0  0  0  0  0  0  0  0  0  0  0  0
  -25.9882    9.4163   12.1615 C   0  0  0  0  0  0  0  0  0  0  0  0
  -26.3838    8.6325   11.0831 C   0  0  0  0  0  0  0  0  0  0  0  0
  -25.4465    7.8818   10.3779 C   0  0  0  0  0  0  0  0  0  0  0  0
  -24.0973    7.9103   10.7505 C   0  0  0  0  0  0  0  0  0  0  0  0
  -24.5313    7.3276    8.0782 C   0  0  0  0  0  0  0  0  0  0  0  0
  -24.6314    7.5820    6.7073 C   0  0  0  0  0  0  0  0  0  0  0  0
  -23.4886    7.9167    5.9753 C   0  0  0  0  0  0  0  0  0  0  0  0
  -22.2479    7.9919    6.6167 C   0  0  0  0  0  0  0  0  0  0  0  0
  -22.1550    7.7360    7.9852 C   0  0  0  0  0  0  0  0  0  0  0  0
  -23.2883    7.4076    8.7163 C   0  0  0  0  0  0  0  0  0  0  0  0
  -21.8680    6.8492   10.6418 C   0  0  0  0  0  0  0  0  0  0  0  0
  -21.7128    5.4694   11.3643 C   0  0  0  0  0  0  0  0  0  0  0  0
  -20.2226    5.0792   11.6511 C   0  0  0  0  0  0  0  0  0  0  0  0
  -19.9446    3.6827   12.0734 N   0  3  0  0  0  0  0  0  0  0  0  0
  -20.3341    3.4549   13.4890 C   0  0  0  0  0  0  0  0  0  0  0  0
  -18.5018    3.3336   11.8315 C   0  0  0  0  0  0  0  0  0  0  0  0
  -24.2316   10.3110   13.6988 C   0  0  0  0  0  0  0  0  0  0  0  0
  -22.7830   10.4756   14.0900 C   0  0  0  0  0  0  0  0  0  0  0  0
  -25.0775   10.9433   14.3111 O   0  0  0  0  0  0  0  0  0  0  0  0
  1  7  1  0  0  0  0
  1  9  1  0  0  0  0
  2  8  1  0  0  0  0
  2 14  1  0  0  0  0
  2 15  1  0  0  0  0
  3  4  2  0  0  0  0
  3  8  1  0  0  0  0
  4  5  1  0  0  0  0
  4 21  1  0  0  0  0
  5  6  2  0  0  0  0
  6  7  1  0  0  0  0
  7  8  2  0  0  0  0
  9 10  2  0  0  0  0
  9 14  1  0  0  0  0
 10 11  1  0  0  0  0
 11 12  2  0  0  0  0
 12 13  1  0  0  0  0
 13 14  2  0  0  0  0
 15 16  1  0  0  0  0
 16 17  1  0  0  0  0
 17 18  1  0  0  0  0
 18 19  1  0  0  0  0
 18 20  1  0  0  0  0
 21 22  1  0  0  0  0
 21 23  2  0  0  0  0
M  CHG  1  18   1
M  END
>  <CHROM.1>
96.35847819,4.53776821,166.28371102,-167.70182857,44.49125076,-23.30486670
7.37062281,10.64666628,3.07219007,-0.75514168,1.26842248

>  <Name>


>  <RI>
0

>  <Rbt.Current_Directory>
/home/itssahil/PROJECTS/Mol_Feturizer/New_Systems/rnas/1lvj

>  <Rbt.Executable>
rbdock ($Id: //depot/dev/client3/rdock/2013.1/src/exe/rbdock.cxx#4 $)

>  <Rbt.Library>
libRbt.so (2013.1, Build901 2013/11/27)

>  <Rbt.Parameter_File>
/export/apps/rDock/src/rDock_2013.1_src/data/scripts/dock_solv.prm

>  <Rbt.Receptor>
prm/pocket_docking_8.prm

>  <SCORE>
-31.9995

>  <SCORE.INTER>
-27.5631

>  <SCORE.INTER.CONST>
1

>  <SCORE.INTER.POLAR>
0

>  <SCORE.INTER.ROT>
5

>  <SCORE.INTER.SOLV>
10.4379

>  <SCORE.INTER.VDW>
-28.788

>  <SCORE.INTER.norm>
-1.1984

>  <SCORE.INTRA>
-4.43636

>  <SCORE.INTRA.DIHEDRAL>
-4.1067

>  <SCORE.INTRA.DIHEDRAL.0>
8.06479

>  <SCORE.INTRA.POLAR>
0

>  <SCORE.INTRA.POLAR.0>
0

>  <SCORE.INTRA.REPUL>
0

>  <SCORE.INTRA.REPUL.0>
0

>  <SCORE.INTRA.SOLV>
0.498775

>  <SCORE.INTRA.SOLV.lig_0>
-29.8054

>  <SCORE.INTRA.VDW>
-2.6324

>  <SCORE.INTRA.VDW.0>
2.61447

>  <SCORE.INTRA.norm>
-0.192885

>  <SCORE.RESTR>
0

>  <SCORE.RESTR.CAVITY>
0

>  <SCORE.RESTR.norm>
0

>  <SCORE.SYSTEM>
0

>  <SCORE.SYSTEM.CONST>
0

>  <SCORE.SYSTEM.DIHEDRAL>
0

>  <SCORE.SYSTEM.SOLV>
0

>  <SCORE.SYSTEM.norm>
0

>  <SCORE.heavy>
23

>  <SCORE.norm>
-1.39128

>  <RMSD>
6.187

$$$$

 OpenBabel11021811403D
libRbt.so/2013.1/901 2013/11/27
 23 25  0  0  0  0  0  0  0  0999 V2000
  -25.6220    8.9954    8.0416 S   0  0  0  0  0  0  0  0  0  0  0  0
  -23.8432    7.6903    6.0412 N   0  0  0  0  0  0  0  0  0  0  0  0
  -25.5174    6.2724    5.0409 C   0  0  0  0  0  0  0  0  0  0  0  0
  -26.8496    5.8411    4.9928 C   0  0  0  0  0  0  0  0  0  0  0  0
  -27.7917    6.3769    5.8656 C   0  0  0  0  0  0  0  0  0  0  0  0
  -27.4094    7.3407    6.7923 C   0  0  0  0  0  0  0  0  0  0  0  0
  -26.0876    7.7750    6.8509 C   0  0  0  0  0  0  0  0  0  0  0  0
  -25.1327    7.2442    5.9753 C   0  0  0  0  0  0  0  0  0  0  0  0
  -24.0950    8.1732    8.3689 C   0  0  0  0  0  0  0  0  0  0  0  0
  -23.6098    8.0907    9.6774 C   0  0  0  0  0  0  0  0  0  0  0  0
  -22.3976    7.4430    9.9317 C   0  0  0  0  0  0  0  0  0  0  0  0
  -21.6720    6.8831    8.8751 C   0  0  0  0  0  0  0  0  0  0  0  0
  -22.1616    6.9697    7.5714 C   0  0  0  0  0  0  0  0  0  0  0  0
  -23.3672    7.6083    7.3154 C   0  0  0  0  0  0  0  0  0  0  0  0
  -22.9163    7.4644    4.9045 C   0  0  0  0  0  0  0  0  0  0  0  0
  -21.4894    8.0991    5.0102 C   0  0  0  0  0  0  0  0  0  0  0  0
  -20.4109    7.3568    4.1494 C   0  0  0  0  0  0  0  0  0  0  0  0
  -20.5446    7.4209    2.6716 N   0  3  0  0  0  0  0  0  0  0  0  0
  -20.8047    8.8085    2.2087 C   0  0  0  0  0  0  0  0  0  0  0  0
  -21.6061    6.4683    2.1942 C   0  0  0  0  0  0  0  0  0  0  0  0
  -27.2718    4.7940    4.0019 C   0  0  0  0  0  0  0  0  0  0  0  0
  -28.6257    4.1300    4.0696 C   0  0  0  0  0  0  0  0  0  0  0  0
  -26.5273    4.5096    3.0773 O   0  0  0  0  0  0  0  0  0  0  0  0
  1  7  1  0  0  0  0
  1  9  1  0  0  0  0
  2  8  1  0  0  0  0
  2 14  1  0  0  0  0
  2 15  1  0  0  0  0
  3  4  2  0  0  0  0
  3  8  1  0  0  0  0
  4  5  1  0  0  0  0
  4 21  1  0  0  0  0
  5  6  2  0  0  0  0
  6  7  1  0  0  0  0
  7  8  2  0  0  0  0
  9 10  2  0  0  0  0
  9 14  1  0  0  0  0
 10 11  1  0  0  0  0
 11 12  2  0  0  0  0
 12 13  1  0  0  0  0
 13 14  2  0  0  0  0
 15 16  1  0  0  0  0
 16 17  1  0  0  0  0
 17 18  1  0  0  0  0
 18 19  1  0  0  0  0
 18 20  1  0  0  0  0
 21 22  1  0  0  0  0
 21 23  2  0  0  0  0
M  CHG  1  18   1
M  END
>  <CHROM.1>
175.48365866,169.23836443,155.22572024,67.05920825,167.01266727,-24.18724432
7.12488112,5.82139046,-3.08151077,-0.29723874,-1.89281193

>  <Name>


>  <RI>
0

>  <Rbt.Current_Directory>
/home/itssahil/PROJECTS/Mol_Feturizer/New_Systems/rnas/1lvj

>  <Rbt.Executable>
rbdock ($Id: //depot/dev/client3/rdock/2013.1/src/exe/rbdock.cxx#4 $)

>  <Rbt.Library>
libRbt.so (2013.1, Build901 2013/11/27)

>  <Rbt.Parameter_File>
/export/apps/rDock/src/rDock_2013.1_src/data/scripts/dock_solv.prm

>  <Rbt.Receptor>
prm/blind_docking_80.prm

>  <SCORE>
2.62807

>  <SCORE.INTER>
3.13238

>  <SCORE.INTER.CONST>
1

>  <SCORE.INTER.POLAR>
0

>  <SCORE.INTER.ROT>
5

>  <SCORE.INTER.SOLV>
17.652

>  <SCORE.INTER.VDW>
-10.7291

>  <SCORE.INTER.norm>
0.13619

>  <SCORE.INTRA>
-1.45013

>  <SCORE.INTRA.DIHEDRAL>
-4.48726

>  <SCORE.INTRA.DIHEDRAL.0>
8.06479

>  <SCORE.INTRA.POLAR>
0

>  <SCORE.INTRA.POLAR.0>
0

>  <SCORE.INTRA.REPUL>
0

>  <SCORE.INTRA.REPUL.0>
0

>  <SCORE.INTRA.SOLV>
-0.424309

>  <SCORE.INTRA.SOLV.lig_0>
-29.8054

>  <SCORE.INTRA.VDW>
1.00565

>  <SCORE.INTRA.VDW.0>
2.61447

>  <SCORE.INTRA.norm>
-0.0630492

>  <SCORE.RESTR>
0.945822

>  <SCORE.RESTR.CAVITY>
0.945822

>  <SCORE.RESTR.norm>
0.0411227

>  <SCORE.SYSTEM>
0

>  <SCORE.SYSTEM.CONST>
0

>  <SCORE.SYSTEM.DIHEDRAL>
0

>  <SCORE.SYSTEM.SOLV>
0

>  <SCORE.SYSTEM.norm>
0

>  <SCORE.heavy>
23

>  <SCORE.norm>
0.114264

>  <RMSD>
6.190

$$$$

 OpenBabel11021811403D
libRbt.so/2013.1/901 2013/11/27
 23 25  0  0  0  0  0  0  0  0999 V2000
  -22.4617    7.4244   10.5182 S   0  0  0  0  0  0  0  0  0  0  0  0
  -25.2929    6.5297   10.7479 N   0  0  0  0  0  0  0  0  0  0  0  0
  -25.8487    6.7117    8.4086 C   0  0  0  0  0  0  0  0  0  0  0  0
  -25.4482    7.0212    7.1021 C   0  0  0  0  0  0  0  0  0  0  0  0
  -24.1463    7.4425    6.8494 C   0  0  0  0  0  0  0  0  0  0  0  0
  -23.2400    7.5614    7.8974 C   0  0  0  0  0  0  0  0  0  0  0  0
  -23.6277    7.2590    9.2002 C   0  0  0  0  0  0  0  0  0  0  0  0
  -24.9344    6.8316    9.4647 C   0  0  0  0  0  0  0  0  0  0  0  0
  -23.6911    8.0884   11.5963 C   0  0  0  0  0  0  0  0  0  0  0  0
  -23.3721    9.1410   12.4592 C   0  0  0  0  0  0  0  0  0  0  0  0
  -24.3474    9.6607   13.3150 C   0  0  0  0  0  0  0  0  0  0  0  0
  -25.6384    9.1227   13.3080 C   0  0  0  0  0  0  0  0  0  0  0  0
  -25.9499    8.0715   12.4449 C   0  0  0  0  0  0  0  0  0  0  0  0
  -24.9853    7.5557   11.5904 C   0  0  0  0  0  0  0  0  0  0  0  0
  -26.5027    5.7119   11.0120 C   0  0  0  0  0  0  0  0  0  0  0  0
  -26.2849    4.1903   11.3076 C   0  0  0  0  0  0  0  0  0  0  0  0
  -27.4321    3.5499   12.1614 C   0  0  0  0  0  0  0  0  0  0  0  0
  -28.8311    3.9128   11.8192 N   0  3  0  0  0  0  0  0  0  0  0  0
  -29.5852    4.3619   13.0180 C   0  0  0  0  0  0  0  0  0  0  0  0
  -29.5202    2.7697   11.1260 C   0  0  0  0  0  0  0  0  0  0  0  0
  -26.4214    6.9050    5.9637 C   0  0  0  0  0  0  0  0  0  0  0  0
  -26.0344    6.2870    4.6419 C   0  0  0  0  0  0  0  0  0  0  0  0
  -27.5769    7.2641    6.1246 O   0  0  0  0  0  0  0  0  0  0  0  0
  1  7  1  0  0  0  0
  1  9  1  0  0  0  0
  2  8  1  0  0  0  0
  2 14  1  0  0  0  0
  2 15  1  0  0  0  0
  3  4  2  0  0  0  0
  3  8  1  0  0  0  0
  4  5  1  0  0  0  0
  4 21  1  0  0  0  0
  5  6  2  0  0  0  0
  6  7  1  0  0  0  0
  7  8  2  0  0  0  0
  9 10  2  0  0  0  0
  9 14  1  0  0  0  0
 10 11  1  0  0  0  0
 11 12  2  0  0  0  0
 12 13  1  0  0  0  0
 13 14  2  0  0  0  0
 15 16  1  0  0  0  0
 16 17  1  0  0  0  0
 17 18  1  0  0  0  0
 18 19  1  0  0  0  0
 18 20  1  0  0  0  0
 21 22  1  0  0  0  0
 21 23  2  0  0  0  0
M  CHG  1  18   1
M  END
>  <CHROM.1>
99.45187333,-136.60555187,154.60790924,42.70917732,-8.94913408,-25.62431037
6.63095907,10.11064551,-0.64846575,0.69432137,1.54320406

>  <Name>


>  <RI>
0

>  <Rbt.Current_Directory>
/home/itssahil/PROJECTS/Mol_Feturizer/New_Systems/rnas/1lvj

>  <Rbt.Executable>
rbdock ($Id: //depot/dev/client3/rdock/2013.1/src/exe/rbdock.cxx#4 $)

>  <Rbt.Library>
libRbt.so (2013.1, Build901 2013/11/27)

>  <Rbt.Parameter_File>
/export/apps/rDock/src/rDock_2013.1_src/data/scripts/dock_solv.prm

>  <Rbt.Receptor>
prm/pocket_docking_5.prm

>  <SCORE>
-27.7059

>  <SCORE.INTER>
-28.7813

>  <SCORE.INTER.CONST>
1

>  <SCORE.INTER.POLAR>
-1.1619

>  <SCORE.INTER.ROT>
5

>  <SCORE.INTER.SOLV>
12.3952

>  <SCORE.INTER.VDW>
-26.3796

>  <SCORE.INTER.norm>
-1.25136

>  <SCORE.INTRA>
1.07401

>  <SCORE.INTRA.DIHEDRAL>
6.18403

>  <SCORE.INTRA.DIHEDRAL.0>
8.06479

>  <SCORE.INTRA.POLAR>
0

>  <SCORE.INTRA.POLAR.0>
0

>  <SCORE.INTRA.REPUL>
0

>  <SCORE.INTRA.REPUL.0>
0

>  <SCORE.INTRA.SOLV>
2.51848

>  <SCORE.INTRA.SOLV.lig_0>
-29.8054

>  <SCORE.INTRA.VDW>
-3.27725

>  <SCORE.INTRA.VDW.0>
2.61447

>  <SCORE.INTRA.norm>
0.0466959

>  <SCORE.RESTR>
0.00140004

>  <SCORE.RESTR.CAVITY>
0.00140004

>  <SCORE.RESTR.norm>
6.08713e-05

>  <SCORE.SYSTEM>
0

>  <SCORE.SYSTEM.CONST>
0

>  <SCORE.SYSTEM.DIHEDRAL>
0

>  <SCORE.SYSTEM.SOLV>
0

>  <SCORE.SYSTEM.norm>
0

>  <SCORE.heavy>
23

>  <SCORE.norm>
-1.2046

>  <RMSD>
6.190

$$$$

 OpenBabel11021811403D
libRbt.so/2013.1/901 2013/11/27
 23 25  0  0  0  0  0  0  0  0999 V2000
  -25.1667    8.6207   10.3491 S   0  0  0  0  0  0  0  0  0  0  0  0
  -23.1841    8.1157    8.1849 N   0  0  0  0  0  0  0  0  0  0  0  0
  -24.7019    7.0596    6.6373 C   0  0  0  0  0  0  0  0  0  0  0  0
  -26.0006    6.6265    6.3391 C   0  0  0  0  0  0  0  0  0  0  0  0
  -27.0290    6.8098    7.2585 C   0  0  0  0  0  0  0  0  0  0  0  0
  -26.7666    7.4210    8.4798 C   0  0  0  0  0  0  0  0  0  0  0  0
  -25.4792    7.8532    8.7879 C   0  0  0  0  0  0  0  0  0  0  0  0
  -24.4382    7.6759    7.8687 C   0  0  0  0  0  0  0  0  0  0  0  0
  -23.6202    7.7859   10.5121 C   0  0  0  0  0  0  0  0  0  0  0  0
  -23.2206    7.2873   11.7555 C   0  0  0  0  0  0  0  0  0  0  0  0
  -21.9928    6.6312   11.8814 C   0  0  0  0  0  0  0  0  0  0  0  0
  -21.1663    6.4796   10.7633 C   0  0  0  0  0  0  0  0  0  0  0  0
  -21.5709    6.9804    9.5254 C   0  0  0  0  0  0  0  0  0  0  0  0
  -22.7914    7.6286    9.3955 C   0  0  0  0  0  0  0  0  0  0  0  0
  -22.1710    8.3119    7.1185 C   0  0  0  0  0  0  0  0  0  0  0  0
  -21.8087    7.0677    6.2407 C   0  0  0  0  0  0  0  0  0  0  0  0
  -20.6074    7.3196    5.2666 C   0  0  0  0  0  0  0  0  0  0  0  0
  -20.4079    6.3558    4.1543 N   0  3  0  0  0  0  0  0  0  0  0  0
  -19.0904    6.5505    3.4958 C   0  0  0  0  0  0  0  0  0  0  0  0
  -21.5399    6.4439    3.1680 C   0  0  0  0  0  0  0  0  0  0  0  0
  -26.2935    5.9569    5.0267 C   0  0  0  0  0  0  0  0  0  0  0  0
  -27.5741    5.1946    4.7871 C   0  0  0  0  0  0  0  0  0  0  0  0
  -25.5047    6.0788    4.1030 O   0  0  0  0  0  0  0  0  0  0  0  0
  1  7  1  0  0  0  0
  1  9  1  0  0  0  0
  2  8  1  0  0  0  0
  2 14  1  0  0  0  0
  2 15  1  0  0  0  0
  3  4  2  0  0  0  0
  3  8  1  0  0  0  0
  4  5  1  0  0  0  0
  4 21  1  0  0  0  0
  5  6  2  0  0  0  0
  6  7  1  0  0  0  0
  7  8  2  0  0  0  0
  9 10  2  0  0  0  0
  9 14  1  0  0  0  0
 10 11  1  0  0  0  0
 11 12  2  0  0  0  0
 12 13  1  0  0  0  0
 13 14  2  0  0  0  0
 15 16  1  0  0  0  0
 16 17  1  0  0  0  0
 17 18  1  0  0  0  0
 18 19  1  0  0  0  0
 18 20  1  0  0  0  0
 21 22  1  0  0  0  0
 21 23  2  0  0  0  0
M  CHG  1  18   1
M  END
>  <CHROM.1>
-58.44354389,165.50906917,-172.70931136,-164.27409458,-48.11902381,-23.60433523
7.11551650,7.47285123,1.87367491,0.03510932,1.36692238

>  <Name>


>  <RI>
0

>  <Rbt.Current_Directory>
/home/itssahil/PROJECTS/Mol_Feturizer/New_Systems/rnas/1lvj

>  <Rbt.Executable>
rbdock ($Id: //depot/dev/client3/rdock/2013.1/src/exe/rbdock.cxx#4 $)

>  <Rbt.Library>
libRbt.so (2013.1, Build901 2013/11/27)

>  <Rbt.Parameter_File>
/export/apps/rDock/src/rDock_2013.1_src/data/scripts/dock_solv.prm

>  <Rbt.Receptor>
prm/pocket_docking_3.prm

>  <SCORE>
-32.4625

>  <SCORE.INTER>
-29.3531

>  <SCORE.INTER.CONST>
1

>  <SCORE.INTER.POLAR>
-1.23936

>  <SCORE.INTER.ROT>
5

>  <SCORE.INTER.SOLV>
20.8624

>  <SCORE.INTER.VDW>
-29.325

>  <SCORE.INTER.norm>
-1.27622

>  <SCORE.INTRA>
-3.93363

>  <SCORE.INTRA.DIHEDRAL>
-5.29704

>  <SCORE.INTRA.DIHEDRAL.0>
8.06479

>  <SCORE.INTRA.POLAR>
0

>  <SCORE.INTRA.POLAR.0>
0

>  <SCORE.INTRA.REPUL>
0

>  <SCORE.INTRA.REPUL.0>
0

>  <SCORE.INTRA.SOLV>
0.440709

>  <SCORE.INTRA.SOLV.lig_0>
-29.8054

>  <SCORE.INTRA.VDW>
-1.50547

>  <SCORE.INTRA.VDW.0>
2.61447

>  <SCORE.INTRA.norm>
-0.171027

>  <SCORE.RESTR>
0.824304

>  <SCORE.RESTR.CAVITY>
0.824304

>  <SCORE.RESTR.norm>
0.0358393

>  <SCORE.SYSTEM>
0

>  <SCORE.SYSTEM.CONST>
0

>  <SCORE.SYSTEM.DIHEDRAL>
0

>  <SCORE.SYSTEM.SOLV>
0

>  <SCORE.SYSTEM.norm>
0

>  <SCORE.heavy>
23

>  <SCORE.norm>
-1.41141

>  <RMSD>
6.194

$$$$

 OpenBabel11021811403D
libRbt.so/2013.1/901 2013/11/27
 23 25  0  0  0  0  0  0  0  0999 V2000
  -25.4828    8.5999    9.7340 S   0  0  0  0  0  0  0  0  0  0  0  0
  -23.5216    8.2769    7.5162 N   0  0  0  0  0  0  0  0  0  0  0  0
  -24.9234    6.9437    6.0770 C   0  0  0  0  0  0  0  0  0  0  0  0
  -26.1560    6.3175    5.8495 C   0  0  0  0  0  0  0  0  0  0  0  0
  -27.1688    6.3976    6.8005 C   0  0  0  0  0  0  0  0  0  0  0  0
  -26.9561    7.0976    7.9830 C   0  0  0  0  0  0  0  0  0  0  0  0
  -25.7342    7.7218    8.2209 C   0  0  0  0  0  0  0  0  0  0  0  0
  -24.7097    7.6495    7.2694 C   0  0  0  0  0  0  0  0  0  0  0  0
  -23.8283    8.0010    9.8710 C   0  0  0  0  0  0  0  0  0  0  0  0
  -23.3202    7.6242   11.1176 C   0  0  0  0  0  0  0  0  0  0  0  0
  -22.0077    7.1551   11.2225 C   0  0  0  0  0  0  0  0  0  0  0  0
  -21.2057    7.0683   10.0800 C   0  0  0  0  0  0  0  0  0  0  0  0
  -21.7188    7.4467    8.8388 C   0  0  0  0  0  0  0  0  0  0  0  0
  -23.0231    7.9089    8.7300 C   0  0  0  0  0  0  0  0  0  0  0  0
  -22.5831    8.5629    6.4029 C   0  0  0  0  0  0  0  0  0  0  0  0
  -21.8573    7.3398    5.7493 C   0  0  0  0  0  0  0  0  0  0  0  0
  -20.9150    7.7350    4.5614 C   0  0  0  0  0  0  0  0  0  0  0  0
  -20.3912    6.6415    3.7037 N   0  3  0  0  0  0  0  0  0  0  0  0
  -18.9671    6.3465    4.0078 C   0  0  0  0  0  0  0  0  0  0  0  0
  -20.5923    6.9669    2.2491 C   0  0  0  0  0  0  0  0  0  0  0  0
  -26.3937    5.5510    4.5797 C   0  0  0  0  0  0  0  0  0  0  0  0
  -27.6870    4.8172    4.3198 C   0  0  0  0  0  0  0  0  0  0  0  0
  -25.5447    5.5668    3.7028 O   0  0  0  0  0  0  0  0  0  0  0  0
  1  7  1  0  0  0  0
  1  9  1  0  0  0  0
  2  8  1  0  0  0  0
  2 14  1  0  0  0  0
  2 15  1  0  0  0  0
  3  4  2  0  0  0  0
  3  8  1  0  0  0  0
  4  5  1  0  0  0  0
  4 21  1  0  0  0  0
  5  6  2  0  0  0  0
  6  7  1  0  0  0  0
  7  8  2  0  0  0  0
  9 10  2  0  0  0  0
  9 14  1  0  0  0  0
 10 11  1  0  0  0  0
 11 12  2  0  0  0  0
 12 13  1  0  0  0  0
 13 14  2  0  0  0  0
 15 16  1  0  0  0  0
 16 17  1  0  0  0  0
 17 18  1  0  0  0  0
 18 19  1  0  0  0  0
 18 20  1  0  0  0  0
 21 22  1  0  0  0  0
 21 23  2  0  0  0  0
M  CHG  1  18   1
M  END
>  <CHROM.1>
-70.21296333,177.56428071,178.57507698,-168.15487486,15.83760866,-23.72007324
7.17476050,6.92983945,-2.06490679,-0.13822230,-1.83829754

>  <Name>


>  <RI>
0

>  <Rbt.Current_Directory>
/home/itssahil/PROJECTS/Mol_Feturizer/New_Systems/rnas/1lvj

>  <Rbt.Executable>
rbdock ($Id: //depot/dev/client3/rdock/2013.1/src/exe/rbdock.cxx#4 $)

>  <Rbt.Library>
libRbt.so (2013.1, Build901 2013/11/27)

>  <Rbt.Parameter_File>
/export/apps/rDock/src/rDock_2013.1_src/data/scripts/dock_solv.prm

>  <Rbt.Receptor>
prm/blind_docking_100.prm

>  <SCORE>
-22.0469

>  <SCORE.INTER>
-19.4213

>  <SCORE.INTER.CONST>
1

>  <SCORE.INTER.POLAR>
0

>  <SCORE.INTER.ROT>
5

>  <SCORE.INTER.SOLV>
19.0702

>  <SCORE.INTER.VDW>
-26.2376

>  <SCORE.INTER.norm>
-0.844403

>  <SCORE.INTRA>
-3.8128

>  <SCORE.INTRA.DIHEDRAL>
-4.14585

>  <SCORE.INTRA.DIHEDRAL.0>
8.06479

>  <SCORE.INTRA.POLAR>
0

>  <SCORE.INTRA.POLAR.0>
0

>  <SCORE.INTRA.REPUL>
0

>  <SCORE.INTRA.REPUL.0>
0

>  <SCORE.INTRA.SOLV>
0.72466

>  <SCORE.INTRA.SOLV.lig_0>
-29.8054

>  <SCORE.INTRA.VDW>
-2.1022

>  <SCORE.INTRA.VDW.0>
2.61447

>  <SCORE.INTRA.norm>
-0.165774

>  <SCORE.RESTR>
1.18718

>  <SCORE.RESTR.CAVITY>
1.18718

>  <SCORE.RESTR.norm>
0.0516166

>  <SCORE.SYSTEM>
0

>  <SCORE.SYSTEM.CONST>
0

>  <SCORE.SYSTEM.DIHEDRAL>
0

>  <SCORE.SYSTEM.SOLV>
0

>  <SCORE.SYSTEM.norm>
0

>  <SCORE.heavy>
23

>  <SCORE.norm>
-0.95856

>  <RMSD>
6.196

$$$$

 OpenBabel11021811403D
libRbt.so/2013.1/901 2013/11/27
 23 25  0  0  0  0  0  0  0  0999 V2000
  -25.4872    8.6195    9.6765 S   0  0  0  0  0  0  0  0  0  0  0  0
  -23.2611    8.2151    7.7400 N   0  0  0  0  0  0  0  0  0  0  0  0
  -24.5413    7.0516    6.0603 C   0  0  0  0  0  0  0  0  0  0  0  0
  -25.7730    6.5362    5.6355 C   0  0  0  0  0  0  0  0  0  0  0  0
  -26.9016    6.6655    6.4393 C   0  0  0  0  0  0  0  0  0  0  0  0
  -26.8065    7.3042    7.6708 C   0  0  0  0  0  0  0  0  0  0  0  0
  -25.5869    7.8180    8.1044 C   0  0  0  0  0  0  0  0  0  0  0  0
  -24.4462    7.6956    7.3020 C   0  0  0  0  0  0  0  0  0  0  0  0
  -23.9191    7.8832   10.0142 C   0  0  0  0  0  0  0  0  0  0  0  0
  -23.6233    7.4231   11.3006 C   0  0  0  0  0  0  0  0  0  0  0  0
  -22.3783    6.8451   11.5650 C   0  0  0  0  0  0  0  0  0  0  0  0
  -21.4311    6.7331   10.5421 C   0  0  0  0  0  0  0  0  0  0  0  0
  -21.7326    7.1952    9.2605 C   0  0  0  0  0  0  0  0  0  0  0  0
  -22.9694    7.7656    8.9930 C   0  0  0  0  0  0  0  0  0  0  0  0
  -22.1550    8.4622    6.7820 C   0  0  0  0  0  0  0  0  0  0  0  0
  -21.3770    7.2117    6.2522 C   0  0  0  0  0  0  0  0  0  0  0  0
  -21.7370    6.8322    4.7752 C   0  0  0  0  0  0  0  0  0  0  0  0
  -20.8481    7.3364    3.6975 N   0  3  0  0  0  0  0  0  0  0  0  0
  -21.3378    8.6270    3.1479 C   0  0  0  0  0  0  0  0  0  0  0  0
  -20.6830    6.3008    2.6194 C   0  0  0  0  0  0  0  0  0  0  0  0
  -25.8854    5.8363    4.3111 C   0  0  0  0  0  0  0  0  0  0  0  0
  -24.7384    5.7931    3.3306 C   0  0  0  0  0  0  0  0  0  0  0  0
  -26.9103    5.2320    4.0381 O   0  0  0  0  0  0  0  0  0  0  0  0
  1  7  1  0  0  0  0
  1  9  1  0  0  0  0
  2  8  1  0  0  0  0
  2 14  1  0  0  0  0
  2 15  1  0  0  0  0
  3  4  2  0  0  0  0
  3  8  1  0  0  0  0
  4  5  1  0  0  0  0
  4 21  1  0  0  0  0
  5  6  2  0  0  0  0
  6  7  1  0  0  0  0
  7  8  2  0  0  0  0
  9 10  2  0  0  0  0
  9 14  1  0  0  0  0
 10 11  1  0  0  0  0
 11 12  2  0  0  0  0
 12 13  1  0  0  0  0
 13 14  2  0  0  0  0
 15 16  1  0  0  0  0
 16 17  1  0  0  0  0
 17 18  1  0  0  0  0
 18 19  1  0  0  0  0
 18 20  1  0  0  0  0
 21 22  1  0  0  0  0
 21 23  2  0  0  0  0
M  CHG  1  18   1
M  END
>  <CHROM.1>
-74.12471171,-6.86404505,105.29109418,96.14548328,26.89995655,-23.72458915
7.25666040,6.95230120,1.70901349,0.12618009,1.39581101

>  <Name>


>  <RI>
0

>  <Rbt.Current_Directory>
/home/itssahil/PROJECTS/Mol_Feturizer/New_Systems/rnas/1lvj

>  <Rbt.Executable>
rbdock ($Id: //depot/dev/client3/rdock/2013.1/src/exe/rbdock.cxx#4 $)

>  <Rbt.Library>
libRbt.so (2013.1, Build901 2013/11/27)

>  <Rbt.Parameter_File>
/export/apps/rDock/src/rDock_2013.1_src/data/scripts/dock_solv.prm

>  <Rbt.Receptor>
prm/blind_docking_100.prm

>  <SCORE>
-18.737

>  <SCORE.INTER>
-19.7275

>  <SCORE.INTER.CONST>
1

>  <SCORE.INTER.POLAR>
0

>  <SCORE.INTER.ROT>
5

>  <SCORE.INTER.SOLV>
19.6657

>  <SCORE.INTER.VDW>
-26.6403

>  <SCORE.INTER.norm>
-0.857719

>  <SCORE.INTRA>
-0.478543

>  <SCORE.INTRA.DIHEDRAL>
3.04951

>  <SCORE.INTRA.DIHEDRAL.0>
8.06479

>  <SCORE.INTRA.POLAR>
0

>  <SCORE.INTRA.POLAR.0>
0

>  <SCORE.INTRA.REPUL>
0

>  <SCORE.INTRA.REPUL.0>
0

>  <SCORE.INTRA.SOLV>
1.27191

>  <SCORE.INTRA.SOLV.lig_0>
-29.8054

>  <SCORE.INTRA.VDW>
-2.63925

>  <SCORE.INTRA.VDW.0>
2.61447

>  <SCORE.INTRA.norm>
-0.0208062

>  <SCORE.RESTR>
1.4691

>  <SCORE.RESTR.CAVITY>
1.4691

>  <SCORE.RESTR.norm>
0.0638737

>  <SCORE.SYSTEM>
0

>  <SCORE.SYSTEM.CONST>
0

>  <SCORE.SYSTEM.DIHEDRAL>
0

>  <SCORE.SYSTEM.SOLV>
0

>  <SCORE.SYSTEM.norm>
0

>  <SCORE.heavy>
23

>  <SCORE.norm>
-0.814651

>  <RMSD>
6.196

$$$$

 OpenBabel11021811403D
libRbt.so/2013.1/901 2013/11/27
 23 25  0  0  0  0  0  0  0  0999 V2000
  -25.4798    8.6362    9.7316 S   0  0  0  0  0  0  0  0  0  0  0  0
  -23.4985    8.2228    7.5469 N   0  0  0  0  0  0  0  0  0  0  0  0
  -24.9214    6.9161    6.1040 C   0  0  0  0  0  0  0  0  0  0  0  0
  -26.1699    6.3263    5.8663 C   0  0  0  0  0  0  0  0  0  0  0  0
  -27.1931    6.4506    6.8013 C   0  0  0  0  0  0  0  0  0  0  0  0
  -26.9750    7.1588    7.9781 C   0  0  0  0  0  0  0  0  0  0  0  0
  -25.7374    7.7471    8.2259 C   0  0  0  0  0  0  0  0  0  0  0  0
  -24.7023    7.6302    7.2905 C   0  0  0  0  0  0  0  0  0  0  0  0
  -23.8472    7.9871    9.9001 C   0  0  0  0  0  0  0  0  0  0  0  0
  -23.3692    7.6106   11.1587 C   0  0  0  0  0  0  0  0  0  0  0  0
  -22.0738    7.1016   11.2886 C   0  0  0  0  0  0  0  0  0  0  0  0
  -21.2588    6.9748   10.1590 C   0  0  0  0  0  0  0  0  0  0  0  0
  -21.7420    7.3533    8.9059 C   0  0  0  0  0  0  0  0  0  0  0  0
  -23.0293    7.8550    8.7722 C   0  0  0  0  0  0  0  0  0  0  0  0
  -22.5356    8.4646    6.4439 C   0  0  0  0  0  0  0  0  0  0  0  0
  -21.8583    7.2091    5.7998 C   0  0  0  0  0  0  0  0  0  0  0  0
  -20.7750    7.5666    4.7256 C   0  0  0  0  0  0  0  0  0  0  0  0
  -20.3014    6.4766    3.8347 N   0  3  0  0  0  0  0  0  0  0  0  0
  -18.8177    6.4316    3.7719 C   0  0  0  0  0  0  0  0  0  0  0  0
  -20.9112    6.6086    2.4663 C   0  0  0  0  0  0  0  0  0  0  0  0
  -26.4137    5.5514    4.6028 C   0  0  0  0  0  0  0  0  0  0  0  0
  -27.7168    4.8345    4.3443 C   0  0  0  0  0  0  0  0  0  0  0  0
  -25.5610    5.5463    3.7294 O   0  0  0  0  0  0  0  0  0  0  0  0
  1  7  1  0  0  0  0
  1  9  1  0  0  0  0
  2  8  1  0  0  0  0
  2 14  1  0  0  0  0
  2 15  1  0  0  0  0
  3  4  2  0  0  0  0
  3  8  1  0  0  0  0
  4  5  1  0  0  0  0
  4 21  1  0  0  0  0
  5  6  2  0  0  0  0
  6  7  1  0  0  0  0
  7  8  2  0  0  0  0
  9 10  2  0  0  0  0
  9 14  1  0  0  0  0
 10 11  1  0  0  0  0
 11 12  2  0  0  0  0
 12 13  1  0  0  0  0
 13 14  2  0  0  0  0
 15 16  1  0  0  0  0
 16 17  1  0  0  0  0
 17 18  1  0  0  0  0
 18 19  1  0  0  0  0
 18 20  1  0  0  0  0
 21 22  1  0  0  0  0
 21 23  2  0  0  0  0
M  CHG  1  18   1
M  END
>  <CHROM.1>
-69.19583048,176.42164813,-175.37353770,-166.07567663,-11.19669020,-23.72725717
7.12993963,6.96604972,-2.06920309,-0.11403440,-1.84984734

>  <Name>


>  <RI>
0

>  <Rbt.Current_Directory>
/home/itssahil/PROJECTS/Mol_Feturizer/New_Systems/rnas/1lvj

>  <Rbt.Executable>
rbdock ($Id: //depot/dev/client3/rdock/2013.1/src/exe/rbdock.cxx#4 $)

>  <Rbt.Library>
libRbt.so (2013.1, Build901 2013/11/27)

>  <Rbt.Parameter_File>
/export/apps/rDock/src/rDock_2013.1_src/data/scripts/dock_solv.prm

>  <Rbt.Receptor>
prm/blind_docking_100.prm

>  <SCORE>
-23.5662

>  <SCORE.INTER>
-21.0476

>  <SCORE.INTER.CONST>
1

>  <SCORE.INTER.POLAR>
0

>  <SCORE.INTER.ROT>
5

>  <SCORE.INTER.SOLV>
20.0997

>  <SCORE.INTER.VDW>
-27.6649

>  <SCORE.INTER.norm>
-0.915112

>  <SCORE.INTRA>
-3.66664

>  <SCORE.INTRA.DIHEDRAL>
-3.75219

>  <SCORE.INTRA.DIHEDRAL.0>
8.06479

>  <SCORE.INTRA.POLAR>
0

>  <SCORE.INTRA.POLAR.0>
0

>  <SCORE.INTRA.REPUL>
0

>  <SCORE.INTRA.REPUL.0>
0

>  <SCORE.INTRA.SOLV>
0.716407

>  <SCORE.INTRA.SOLV.lig_0>
-29.8054

>  <SCORE.INTRA.VDW>
-2.14875

>  <SCORE.INTRA.VDW.0>
2.61447

>  <SCORE.INTRA.norm>
-0.159419

>  <SCORE.RESTR>
1.14804

>  <SCORE.RESTR.CAVITY>
1.14804

>  <SCORE.RESTR.norm>
0.0499146

>  <SCORE.SYSTEM>
0

>  <SCORE.SYSTEM.CONST>
0

>  <SCORE.SYSTEM.DIHEDRAL>
0

>  <SCORE.SYSTEM.SOLV>
0

>  <SCORE.SYSTEM.norm>
0

>  <SCORE.heavy>
23

>  <SCORE.norm>
-1.02462

>  <RMSD>
6.196

$$$$

 OpenBabel11021811403D
libRbt.so/2013.1/901 2013/11/27
 23 25  0  0  0  0  0  0  0  0999 V2000
  -25.2212    8.6281   10.2121 S   0  0  0  0  0  0  0  0  0  0  0  0
  -23.2137    8.1063    8.0750 N   0  0  0  0  0  0  0  0  0  0  0  0
  -24.7053    7.0039    6.5343 C   0  0  0  0  0  0  0  0  0  0  0  0
  -25.9962    6.5500    6.2329 C   0  0  0  0  0  0  0  0  0  0  0  0
  -27.0347    6.7383    7.1398 C   0  0  0  0  0  0  0  0  0  0  0  0
  -26.7904    7.3751    8.3517 C   0  0  0  0  0  0  0  0  0  0  0  0
  -25.5109    7.8281    8.6629 C   0  0  0  0  0  0  0  0  0  0  0  0
  -24.4597    7.6460    7.7562 C   0  0  0  0  0  0  0  0  0  0  0  0
  -23.6667    7.8147   10.4041 C   0  0  0  0  0  0  0  0  0  0  0  0
  -23.2724    7.3440   11.6600 C   0  0  0  0  0  0  0  0  0  0  0  0
  -22.0382    6.7048   11.8088 C   0  0  0  0  0  0  0  0  0  0  0  0
  -21.2000    6.5422   10.7010 C   0  0  0  0  0  0  0  0  0  0  0  0
  -21.5994    7.0151    9.4504 C   0  0  0  0  0  0  0  0  0  0  0  0
  -22.8261    7.6464    9.2978 C   0  0  0  0  0  0  0  0  0  0  0  0
  -22.1935    8.2946    7.0139 C   0  0  0  0  0  0  0  0  0  0  0  0
  -21.6426    7.0060    6.3168 C   0  0  0  0  0  0  0  0  0  0  0  0
  -20.5596    7.3021    5.2238 C   0  0  0  0  0  0  0  0  0  0  0  0
  -20.9382    7.0914    3.8032 N   0  3  0  0  0  0  0  0  0  0  0  0
  -19.8196    6.5001    3.0243 C   0  0  0  0  0  0  0  0  0  0  0  0
  -21.4247    8.3751    3.1889 C   0  0  0  0  0  0  0  0  0  0  0  0
  -26.2696    5.8528    4.9308 C   0  0  0  0  0  0  0  0  0  0  0  0
  -27.5665    5.1254    4.6711 C   0  0  0  0  0  0  0  0  0  0  0  0
  -25.4486    5.9228    4.0300 O   0  0  0  0  0  0  0  0  0  0  0  0
  1  7  1  0  0  0  0
  1  9  1  0  0  0  0
  2  8  1  0  0  0  0
  2 14  1  0  0  0  0
  2 15  1  0  0  0  0
  3  4  2  0  0  0  0
  3  8  1  0  0  0  0
  4  5  1  0  0  0  0
  4 21  1  0  0  0  0
  5  6  2  0  0  0  0
  6  7  1  0  0  0  0
  7  8  2  0  0  0  0
  9 10  2  0  0  0  0
  9 14  1  0  0  0  0
 10 11  1  0  0  0  0
 11 12  2  0  0  0  0
 12 13  1  0  0  0  0
 13 14  2  0  0  0  0
 15 16  1  0  0  0  0
 16 17  1  0  0  0  0
 17 18  1  0  0  0  0
 18 19  1  0  0  0  0
 18 20  1  0  0  0  0
 21 22  1  0  0  0  0
 21 23  2  0  0  0  0
M  CHG  1  18   1
M  END
>  <CHROM.1>
-67.87530541,168.41660868,-179.32342785,-109.27564148,-21.06756225,-23.66599283
7.21719461,7.35504470,1.79143780,0.11168460,1.41753124

>  <Name>


>  <RI>
0

>  <Rbt.Current_Directory>
/home/itssahil/PROJECTS/Mol_Feturizer/New_Systems/rnas/1lvj

>  <Rbt.Executable>
rbdock ($Id: //depot/dev/client3/rdock/2013.1/src/exe/rbdock.cxx#4 $)

>  <Rbt.Library>
libRbt.so (2013.1, Build901 2013/11/27)

>  <Rbt.Parameter_File>
/export/apps/rDock/src/rDock_2013.1_src/data/scripts/dock_solv.prm

>  <Rbt.Receptor>
prm/pocket_docking_4.prm

>  <SCORE>
-26.9115

>  <SCORE.INTER>
-25.3793

>  <SCORE.INTER.CONST>
1

>  <SCORE.INTER.POLAR>
0

>  <SCORE.INTER.ROT>
5

>  <SCORE.INTER.SOLV>
16.9396

>  <SCORE.INTER.VDW>
-29.4994

>  <SCORE.INTER.norm>
-1.10345

>  <SCORE.INTRA>
-1.53219

>  <SCORE.INTRA.DIHEDRAL>
0.402104

>  <SCORE.INTRA.DIHEDRAL.0>
8.06479

>  <SCORE.INTRA.POLAR>
0

>  <SCORE.INTRA.POLAR.0>
0

>  <SCORE.INTRA.REPUL>
0

>  <SCORE.INTRA.REPUL.0>
0

>  <SCORE.INTRA.SOLV>
1.29

>  <SCORE.INTRA.SOLV.lig_0>
-29.8054

>  <SCORE.INTRA.VDW>
-2.37824

>  <SCORE.INTRA.VDW.0>
2.61447

>  <SCORE.INTRA.norm>
-0.0666168

>  <SCORE.RESTR>
0

>  <SCORE.RESTR.CAVITY>
0

>  <SCORE.RESTR.norm>
0

>  <SCORE.SYSTEM>
0

>  <SCORE.SYSTEM.CONST>
0

>  <SCORE.SYSTEM.DIHEDRAL>
0

>  <SCORE.SYSTEM.SOLV>
0

>  <SCORE.SYSTEM.norm>
0

>  <SCORE.heavy>
23

>  <SCORE.norm>
-1.17007

>  <RMSD>
6.198

$$$$

 OpenBabel11021811403D
libRbt.so/2013.1/901 2013/11/27
 23 25  0  0  0  0  0  0  0  0999 V2000
  -25.8408    6.7990    8.5142 S   0  0  0  0  0  0  0  0  0  0  0  0
  -23.1193    7.0567    9.6957 N   0  0  0  0  0  0  0  0  0  0  0  0
  -23.7297    8.5035   11.5255 C   0  0  0  0  0  0  0  0  0  0  0  0
  -24.7250    9.2067   12.2169 C   0  0  0  0  0  0  0  0  0  0  0  0
  -26.0453    9.1646   11.7793 C   0  0  0  0  0  0  0  0  0  0  0  0
  -26.3781    8.4260   10.6490 C   0  0  0  0  0  0  0  0  0  0  0  0
  -25.3968    7.7253    9.9525 C   0  0  0  0  0  0  0  0  0  0  0  0
  -24.0660    7.7588   10.3862 C   0  0  0  0  0  0  0  0  0  0  0  0
  -24.3709    7.2957    7.6730 C   0  0  0  0  0  0  0  0  0  0  0  0
  -24.4152    7.6128    6.3122 C   0  0  0  0  0  0  0  0  0  0  0  0
  -23.2478    8.0008    5.6486 C   0  0  0  0  0  0  0  0  0  0  0  0
  -22.0382    8.0664    6.3478 C   0  0  0  0  0  0  0  0  0  0  0  0
  -22.0009    7.7478    7.7057 C   0  0  0  0  0  0  0  0  0  0  0  0
  -23.1589    7.3663    8.3692 C   0  0  0  0  0  0  0  0  0  0  0  0
  -21.8145    6.7415   10.3285 C   0  0  0  0  0  0  0  0  0  0  0  0
  -21.8110    5.6519   11.4522 C   0  0  0  0  0  0  0  0  0  0  0  0
  -20.3818    5.3378   12.0126 C   0  0  0  0  0  0  0  0  0  0  0  0
  -19.7109    6.3895   12.8187 N   0  3  0  0  0  0  0  0  0  0  0  0
  -19.2060    7.4927   11.9612 C   0  0  0  0  0  0  0  0  0  0  0  0
  -18.6152    5.7939   13.6593 C   0  0  0  0  0  0  0  0  0  0  0  0
  -24.3753   10.0151   13.4338 C   0  0  0  0  0  0  0  0  0  0  0  0
  -22.9446   10.2394   13.8597 C   0  0  0  0  0  0  0  0  0  0  0  0
  -25.2656   10.5592   14.0674 O   0  0  0  0  0  0  0  0  0  0  0  0
  1  7  1  0  0  0  0
  1  9  1  0  0  0  0
  2  8  1  0  0  0  0
  2 14  1  0  0  0  0
  2 15  1  0  0  0  0
  3  4  2  0  0  0  0
  3  8  1  0  0  0  0
  4  5  1  0  0  0  0
  4 21  1  0  0  0  0
  5  6  2  0  0  0  0
  6  7  1  0  0  0  0
  7  8  2  0  0  0  0
  9 10  2  0  0  0  0
  9 14  1  0  0  0  0
 10 11  1  0  0  0  0
 11 12  2  0  0  0  0
 12 13  1  0  0  0  0
 13 14  2  0  0  0  0
 15 16  1  0  0  0  0
 16 17  1  0  0  0  0
 17 18  1  0  0  0  0
 18 19  1  0  0  0  0
 18 20  1  0  0  0  0
 21 22  1  0  0  0  0
 21 23  2  0  0  0  0
M  CHG  1  18   1
M  END
>  <CHROM.1>
72.38266823,7.47726237,177.24139687,69.30032807,45.10618939,-23.22258769
7.71484603,10.44496963,2.24372908,0.43736995,-1.85274656

>  <Name>


>  <RI>
0

>  <Rbt.Current_Directory>
/home/itssahil/PROJECTS/Mol_Feturizer/New_Systems/rnas/1lvj

>  <Rbt.Executable>
rbdock ($Id: //depot/dev/client3/rdock/2013.1/src/exe/rbdock.cxx#4 $)

>  <Rbt.Library>
libRbt.so (2013.1, Build901 2013/11/27)

>  <Rbt.Parameter_File>
/export/apps/rDock/src/rDock_2013.1_src/data/scripts/dock_solv.prm

>  <Rbt.Receptor>
prm/pocket_docking_7.prm

>  <SCORE>
-33.2377

>  <SCORE.INTER>
-28.5292

>  <SCORE.INTER.CONST>
1

>  <SCORE.INTER.POLAR>
0

>  <SCORE.INTER.ROT>
5

>  <SCORE.INTER.SOLV>
9.15794

>  <SCORE.INTER.VDW>
-29.0054

>  <SCORE.INTER.norm>
-1.2404

>  <SCORE.INTRA>
-4.70857

>  <SCORE.INTRA.DIHEDRAL>
-6.04643

>  <SCORE.INTRA.DIHEDRAL.0>
8.06479

>  <SCORE.INTRA.POLAR>
0

>  <SCORE.INTRA.POLAR.0>
0

>  <SCORE.INTRA.REPUL>
0

>  <SCORE.INTRA.REPUL.0>
0

>  <SCORE.INTRA.SOLV>
1.34459

>  <SCORE.INTRA.SOLV.lig_0>
-29.8054

>  <SCORE.INTRA.VDW>
-2.35765

>  <SCORE.INTRA.VDW.0>
2.61447

>  <SCORE.INTRA.norm>
-0.20472

>  <SCORE.RESTR>
0

>  <SCORE.RESTR.CAVITY>
0

>  <SCORE.RESTR.norm>
0

>  <SCORE.SYSTEM>
0

>  <SCORE.SYSTEM.CONST>
0

>  <SCORE.SYSTEM.DIHEDRAL>
0

>  <SCORE.SYSTEM.SOLV>
0

>  <SCORE.SYSTEM.norm>
0

>  <SCORE.heavy>
23

>  <SCORE.norm>
-1.44512

>  <RMSD>
6.202

$$$$

 OpenBabel11021811403D
libRbt.so/2013.1/901 2013/11/27
 23 25  0  0  0  0  0  0  0  0999 V2000
  -25.6100    8.9977    8.0355 S   0  0  0  0  0  0  0  0  0  0  0  0
  -23.8435    7.6982    6.0205 N   0  0  0  0  0  0  0  0  0  0  0  0
  -25.5216    6.2756    5.0333 C   0  0  0  0  0  0  0  0  0  0  0  0
  -26.8529    5.8405    4.9958 C   0  0  0  0  0  0  0  0  0  0  0  0
  -27.7895    6.3735    5.8763 C   0  0  0  0  0  0  0  0  0  0  0  0
  -27.4025    7.3381    6.8002 C   0  0  0  0  0  0  0  0  0  0  0  0
  -26.0816    7.7762    6.8482 C   0  0  0  0  0  0  0  0  0  0  0  0
  -25.1322    7.2484    5.9649 C   0  0  0  0  0  0  0  0  0  0  0  0
  -24.0781    8.1798    8.3503 C   0  0  0  0  0  0  0  0  0  0  0  0
  -23.5821    8.0984    9.6548 C   0  0  0  0  0  0  0  0  0  0  0  0
  -22.3660    7.4541    9.8992 C   0  0  0  0  0  0  0  0  0  0  0  0
  -21.6473    6.8966    8.8367 C   0  0  0  0  0  0  0  0  0  0  0  0
  -22.1476    6.9821    7.5370 C   0  0  0  0  0  0  0  0  0  0  0  0
  -23.3571    7.6172    7.2909 C   0  0  0  0  0  0  0  0  0  0  0  0
  -22.9251    7.4753    4.8764 C   0  0  0  0  0  0  0  0  0  0  0  0
  -21.6701    8.4052    4.7769 C   0  0  0  0  0  0  0  0  0  0  0  0
  -20.9007    8.2720    3.4184 C   0  0  0  0  0  0  0  0  0  0  0  0
  -20.5002    6.9095    2.9836 N   0  3  0  0  0  0  0  0  0  0  0  0
  -19.1179    6.8968    2.4389 C   0  0  0  0  0  0  0  0  0  0  0  0
  -21.4909    6.3562    1.9965 C   0  0  0  0  0  0  0  0  0  0  0  0
  -27.2800    4.7924    4.0081 C   0  0  0  0  0  0  0  0  0  0  0  0
  -28.6395    4.1396    4.0739 C   0  0  0  0  0  0  0  0  0  0  0  0
  -26.5345    4.4980    3.0874 O   0  0  0  0  0  0  0  0  0  0  0  0
  1  7  1  0  0  0  0
  1  9  1  0  0  0  0
  2  8  1  0  0  0  0
  2 14  1  0  0  0  0
  2 15  1  0  0  0  0
  3  4  2  0  0  0  0
  3  8  1  0  0  0  0
  4  5  1  0  0  0  0
  4 21  1  0  0  0  0
  5  6  2  0  0  0  0
  6  7  1  0  0  0  0
  7  8  2  0  0  0  0
  9 10  2  0  0  0  0
  9 14  1  0  0  0  0
 10 11  1  0  0  0  0
 11 12  2  0  0  0  0
 12 13  1  0  0  0  0
 13 14  2  0  0  0  0
 15 16  1  0  0  0  0
 16 17  1  0  0  0  0
 17 18  1  0  0  0  0
 18 19  1  0  0  0  0
 18 20  1  0  0  0  0
 21 22  1  0  0  0  0
 21 23  2  0  0  0  0
M  CHG  1  18   1
M  END
>  <CHROM.1>
159.42014531,170.18876011,-169.81175814,-52.44581562,-17.30139990,-24.12924562
7.06315513,5.79126344,-2.91036944,-0.24853232,-1.95331311

>  <Name>


>  <RI>
0

>  <Rbt.Current_Directory>
/home/itssahil/PROJECTS/Mol_Feturizer/New_Systems/rnas/1lvj

>  <Rbt.Executable>
rbdock ($Id: //depot/dev/client3/rdock/2013.1/src/exe/rbdock.cxx#4 $)

>  <Rbt.Library>
libRbt.so (2013.1, Build901 2013/11/27)

>  <Rbt.Parameter_File>
/export/apps/rDock/src/rDock_2013.1_src/data/scripts/dock_solv.prm

>  <Rbt.Receptor>
prm/blind_docking_100.prm

>  <SCORE>
2.18006

>  <SCORE.INTER>
4.86689

>  <SCORE.INTER.CONST>
1

>  <SCORE.INTER.POLAR>
0

>  <SCORE.INTER.ROT>
5

>  <SCORE.INTER.SOLV>
19.0731

>  <SCORE.INTER.VDW>
-10.0464

>  <SCORE.INTER.norm>
0.211604

>  <SCORE.INTRA>
-3.2684

>  <SCORE.INTRA.DIHEDRAL>
-3.85722

>  <SCORE.INTRA.DIHEDRAL.0>
8.06479

>  <SCORE.INTRA.POLAR>
0

>  <SCORE.INTRA.POLAR.0>
0

>  <SCORE.INTRA.REPUL>
0

>  <SCORE.INTRA.REPUL.0>
0

>  <SCORE.INTRA.SOLV>
2.13216

>  <SCORE.INTRA.SOLV.lig_0>
-29.8054

>  <SCORE.INTRA.VDW>
-2.40586

>  <SCORE.INTRA.VDW.0>
2.61447

>  <SCORE.INTRA.norm>
-0.142104

>  <SCORE.RESTR>
0.581569

>  <SCORE.RESTR.CAVITY>
0.581569

>  <SCORE.RESTR.norm>
0.0252856

>  <SCORE.SYSTEM>
0

>  <SCORE.SYSTEM.CONST>
0

>  <SCORE.SYSTEM.DIHEDRAL>
0

>  <SCORE.SYSTEM.SOLV>
0

>  <SCORE.SYSTEM.norm>
0

>  <SCORE.heavy>
23

>  <SCORE.norm>
0.0947851

>  <RMSD>
6.204

$$$$

 OpenBabel11021811403D
libRbt.so/2013.1/901 2013/11/27
 23 25  0  0  0  0  0  0  0  0999 V2000
  -21.8853    7.1915   11.1176 S   0  0  0  0  0  0  0  0  0  0  0  0
  -24.6852    6.9056   10.1437 N   0  0  0  0  0  0  0  0  0  0  0  0
  -24.2022    7.1305    7.7921 C   0  0  0  0  0  0  0  0  0  0  0  0
  -23.2561    7.3132    6.7749 C   0  0  0  0  0  0  0  0  0  0  0  0
  -21.9072    7.4501    7.0887 C   0  0  0  0  0  0  0  0  0  0  0  0
  -21.4966    7.4102    8.4167 C   0  0  0  0  0  0  0  0  0  0  0  0
  -22.4284    7.2316    9.4361 C   0  0  0  0  0  0  0  0  0  0  0  0
  -23.7874    7.0901    9.1308 C   0  0  0  0  0  0  0  0  0  0  0  0
  -23.2853    8.1250   11.6498 C   0  0  0  0  0  0  0  0  0  0  0  0
  -23.1379    9.1139   12.6269 C   0  0  0  0  0  0  0  0  0  0  0  0
  -24.2502    9.8476   13.0493 C   0  0  0  0  0  0  0  0  0  0  0  0
  -25.5078    9.5868   12.4956 C   0  0  0  0  0  0  0  0  0  0  0  0
  -25.6480    8.5978   11.5213 C   0  0  0  0  0  0  0  0  0  0  0  0
  -24.5451    7.8701   11.0961 C   0  0  0  0  0  0  0  0  0  0  0  0
  -26.0354    6.3621    9.8546 C   0  0  0  0  0  0  0  0  0  0  0  0
  -26.7658    5.6098   11.0168 C   0  0  0  0  0  0  0  0  0  0  0  0
  -25.9213    4.4423   11.6325 C   0  0  0  0  0  0  0  0  0  0  0  0
  -26.5429    3.6387   12.7158 N   0  3  0  0  0  0  0  0  0  0  0  0
  -27.0748    4.5053   13.7991 C   0  0  0  0  0  0  0  0  0  0  0  0
  -25.5698    2.6218   13.2457 C   0  0  0  0  0  0  0  0  0  0  0  0
  -23.6895    7.3670    5.3377 C   0  0  0  0  0  0  0  0  0  0  0  0
  -25.0013    6.7797    4.8764 C   0  0  0  0  0  0  0  0  0  0  0  0
  -22.9938    7.9534    4.5239 O   0  0  0  0  0  0  0  0  0  0  0  0
  1  7  1  0  0  0  0
  1  9  1  0  0  0  0
  2  8  1  0  0  0  0
  2 14  1  0  0  0  0
  2 15  1  0  0  0  0
  3  4  2  0  0  0  0
  3  8  1  0  0  0  0
  4  5  1  0  0  0  0
  4 21  1  0  0  0  0
  5  6  2  0  0  0  0
  6  7  1  0  0  0  0
  7  8  2  0  0  0  0
  9 10  2  0  0  0  0
  9 14  1  0  0  0  0
 10 11  1  0  0  0  0
 11 12  2  0  0  0  0
 12 13  1  0  0  0  0
 13 14  2  0  0  0  0
 15 16  1  0  0  0  0
 16 17  1  0  0  0  0
 17 18  1  0  0  0  0
 18 19  1  0  0  0  0
 18 20  1  0  0  0  0
 21 22  1  0  0  0  0
 21 23  2  0  0  0  0
M  CHG  1  18   1
M  END
>  <CHROM.1>
154.24531758,-21.28045368,-54.35909909,-178.18717332,68.27709203,-24.25533892
6.89632884,10.04457734,-2.20396793,-0.91177565,-1.79334262

>  <Name>


>  <RI>
0

>  <Rbt.Current_Directory>
/home/itssahil/PROJECTS/Mol_Feturizer/New_Systems/rnas/1lvj

>  <Rbt.Executable>
rbdock ($Id: //depot/dev/client3/rdock/2013.1/src/exe/rbdock.cxx#4 $)

>  <Rbt.Library>
libRbt.so (2013.1, Build901 2013/11/27)

>  <Rbt.Parameter_File>
/export/apps/rDock/src/rDock_2013.1_src/data/scripts/dock_solv.prm

>  <Rbt.Receptor>
prm/pocket_docking_4.prm

>  <SCORE>
-24.0908

>  <SCORE.INTER>
-19.8732

>  <SCORE.INTER.CONST>
1

>  <SCORE.INTER.POLAR>
-0.0368614

>  <SCORE.INTER.ROT>
5

>  <SCORE.INTER.SOLV>
11.619

>  <SCORE.INTER.VDW>
-23.9323

>  <SCORE.INTER.norm>
-0.864053

>  <SCORE.INTRA>
-4.65351

>  <SCORE.INTRA.DIHEDRAL>
-5.39725

>  <SCORE.INTRA.DIHEDRAL.0>
8.06479

>  <SCORE.INTRA.POLAR>
0

>  <SCORE.INTRA.POLAR.0>
0

>  <SCORE.INTRA.REPUL>
0

>  <SCORE.INTRA.REPUL.0>
0

>  <SCORE.INTRA.SOLV>
0.239283

>  <SCORE.INTRA.SOLV.lig_0>
-29.8054

>  <SCORE.INTRA.VDW>
-2.07453

>  <SCORE.INTRA.VDW.0>
2.61447

>  <SCORE.INTRA.norm>
-0.202327

>  <SCORE.RESTR>
0.435906

>  <SCORE.RESTR.CAVITY>
0.435906

>  <SCORE.RESTR.norm>
0.0189524

>  <SCORE.SYSTEM>
0

>  <SCORE.SYSTEM.CONST>
0

>  <SCORE.SYSTEM.DIHEDRAL>
0

>  <SCORE.SYSTEM.SOLV>
0

>  <SCORE.SYSTEM.norm>
0

>  <SCORE.heavy>
23

>  <SCORE.norm>
-1.04743

>  <RMSD>
6.205

$$$$

 OpenBabel11021811403D
libRbt.so/2013.1/901 2013/11/27
 23 25  0  0  0  0  0  0  0  0999 V2000
  -25.9060    6.7701    8.6321 S   0  0  0  0  0  0  0  0  0  0  0  0
  -23.1247    7.0726    9.6530 N   0  0  0  0  0  0  0  0  0  0  0  0
  -23.6465    8.5374   11.4959 C   0  0  0  0  0  0  0  0  0  0  0  0
  -24.6087    9.2392   12.2339 C   0  0  0  0  0  0  0  0  0  0  0  0
  -25.9512    9.1772   11.8728 C   0  0  0  0  0  0  0  0  0  0  0  0
  -26.3394    8.4200   10.7730 C   0  0  0  0  0  0  0  0  0  0  0  0
  -25.3914    7.7204   10.0307 C   0  0  0  0  0  0  0  0  0  0  0  0
  -24.0386    7.7739   10.3873 C   0  0  0  0  0  0  0  0  0  0  0  0
  -24.4920    7.2709    7.7021 C   0  0  0  0  0  0  0  0  0  0  0  0
  -24.6173    7.5692    6.3421 C   0  0  0  0  0  0  0  0  0  0  0  0
  -23.4941    7.9606    5.6080 C   0  0  0  0  0  0  0  0  0  0  0  0
  -22.2475    8.0485    6.2361 C   0  0  0  0  0  0  0  0  0  0  0  0
  -22.1293    7.7486    7.5937 C   0  0  0  0  0  0  0  0  0  0  0  0
  -23.2433    7.3638    8.3270 C   0  0  0  0  0  0  0  0  0  0  0  0
  -21.7826    6.7799   10.2144 C   0  0  0  0  0  0  0  0  0  0  0  0
  -21.7314    6.0645   11.6056 C   0  0  0  0  0  0  0  0  0  0  0  0
  -20.5007    6.4859   12.4792 C   0  0  0  0  0  0  0  0  0  0  0  0
  -19.1457    6.2738   11.9093 N   0  3  0  0  0  0  0  0  0  0  0  0
  -18.8187    4.8280   11.8079 C   0  0  0  0  0  0  0  0  0  0  0  0
  -18.1129    7.0219   12.7066 C   0  0  0  0  0  0  0  0  0  0  0  0
  -24.1996   10.0676   13.4182 C   0  0  0  0  0  0  0  0  0  0  0  0
  -22.7538   10.2218   13.8240 C   0  0  0  0  0  0  0  0  0  0  0  0
  -25.0497   10.6852   14.0395 O   0  0  0  0  0  0  0  0  0  0  0  0
  1  7  1  0  0  0  0
  1  9  1  0  0  0  0
  2  8  1  0  0  0  0
  2 14  1  0  0  0  0
  2 15  1  0  0  0  0
  3  4  2  0  0  0  0
  3  8  1  0  0  0  0
  4  5  1  0  0  0  0
  4 21  1  0  0  0  0
  5  6  2  0  0  0  0
  6  7  1  0  0  0  0
  7  8  2  0  0  0  0
  9 10  2  0  0  0  0
  9 14  1  0  0  0  0
 10 11  1  0  0  0  0
 11 12  2  0  0  0  0
 12 13  1  0  0  0  0
 13 14  2  0  0  0  0
 15 16  1  0  0  0  0
 16 17  1  0  0  0  0
 17 18  1  0  0  0  0
 18 19  1  0  0  0  0
 18 20  1  0  0  0  0
 21 22  1  0  0  0  0
 21 23  2  0  0  0  0
M  CHG  1  18   1
M  END
>  <CHROM.1>
54.14261956,2.46568941,-147.24792560,-57.97389556,51.07334048,-23.15959228
7.71541663,10.37661348,2.44363295,0.41241292,-1.89629958

>  <Name>


>  <RI>
0

>  <Rbt.Current_Directory>
/home/itssahil/PROJECTS/Mol_Feturizer/New_Systems/rnas/1lvj

>  <Rbt.Executable>
rbdock ($Id: //depot/dev/client3/rdock/2013.1/src/exe/rbdock.cxx#4 $)

>  <Rbt.Library>
libRbt.so (2013.1, Build901 2013/11/27)

>  <Rbt.Parameter_File>
/export/apps/rDock/src/rDock_2013.1_src/data/scripts/dock_solv.prm

>  <Rbt.Receptor>
prm/pocket_docking_6.prm

>  <SCORE>
-36.4763

>  <SCORE.INTER>
-32.9434

>  <SCORE.INTER.CONST>
1

>  <SCORE.INTER.POLAR>
-1.30379

>  <SCORE.INTER.ROT>
5

>  <SCORE.INTER.SOLV>
12.7165

>  <SCORE.INTER.VDW>
-28.7885

>  <SCORE.INTER.norm>
-1.43232

>  <SCORE.INTRA>
-3.53296

>  <SCORE.INTRA.DIHEDRAL>
-4.35112

>  <SCORE.INTRA.DIHEDRAL.0>
8.06479

>  <SCORE.INTRA.POLAR>
0

>  <SCORE.INTRA.POLAR.0>
0

>  <SCORE.INTRA.REPUL>
0

>  <SCORE.INTRA.REPUL.0>
0

>  <SCORE.INTRA.SOLV>
2.01342

>  <SCORE.INTRA.SOLV.lig_0>
-29.8054

>  <SCORE.INTRA.VDW>
-2.36411

>  <SCORE.INTRA.VDW.0>
2.61447

>  <SCORE.INTRA.norm>
-0.153607

>  <SCORE.RESTR>
0

>  <SCORE.RESTR.CAVITY>
0

>  <SCORE.RESTR.norm>
0

>  <SCORE.SYSTEM>
0

>  <SCORE.SYSTEM.CONST>
0

>  <SCORE.SYSTEM.DIHEDRAL>
0

>  <SCORE.SYSTEM.SOLV>
0

>  <SCORE.SYSTEM.norm>
0

>  <SCORE.heavy>
23

>  <SCORE.norm>
-1.58593

>  <RMSD>
6.206

$$$$

 OpenBabel11021811403D
libRbt.so/2013.1/901 2013/11/27
 23 25  0  0  0  0  0  0  0  0999 V2000
  -25.4248    8.6642    9.7764 S   0  0  0  0  0  0  0  0  0  0  0  0
  -23.3911    8.1906    7.6530 N   0  0  0  0  0  0  0  0  0  0  0  0
  -24.8153    6.9496    6.1545 C   0  0  0  0  0  0  0  0  0  0  0  0
  -26.0770    6.4097    5.8721 C   0  0  0  0  0  0  0  0  0  0  0  0
  -27.1244    6.5666    6.7748 C   0  0  0  0  0  0  0  0  0  0  0  0
  -26.9177    7.2575    7.9637 C   0  0  0  0  0  0  0  0  0  0  0  0
  -25.6672    7.7962    8.2560 C   0  0  0  0  0  0  0  0  0  0  0  0
  -24.6077    7.6463    7.3533 C   0  0  0  0  0  0  0  0  0  0  0  0
  -23.8245    7.9518    9.9919 C   0  0  0  0  0  0  0  0  0  0  0  0
  -23.4020    7.5483   11.2619 C   0  0  0  0  0  0  0  0  0  0  0  0
  -22.1319    6.9892   11.4290 C   0  0  0  0  0  0  0  0  0  0  0  0
  -21.2862    6.8392   10.3252 C   0  0  0  0  0  0  0  0  0  0  0  0
  -21.7138    7.2448    9.0604 C   0  0  0  0  0  0  0  0  0  0  0  0
  -22.9761    7.7963    8.8897 C   0  0  0  0  0  0  0  0  0  0  0  0
  -22.3845    8.4031    6.5835 C   0  0  0  0  0  0  0  0  0  0  0  0
  -21.8350    7.1300    5.8575 C   0  0  0  0  0  0  0  0  0  0  0  0
  -20.6527    7.4332    4.8750 C   0  0  0  0  0  0  0  0  0  0  0  0
  -20.1922    6.3330    3.9899 N   0  3  0  0  0  0  0  0  0  0  0  0
  -18.7609    6.4921    3.6242 C   0  0  0  0  0  0  0  0  0  0  0  0
  -21.0684    6.2315    2.7717 C   0  0  0  0  0  0  0  0  0  0  0  0
  -26.3092    5.6536    4.5950 C   0  0  0  0  0  0  0  0  0  0  0  0
  -27.5854    4.8888    4.3403 C   0  0  0  0  0  0  0  0  0  0  0  0
  -25.4714    5.7037    3.7086 O   0  0  0  0  0  0  0  0  0  0  0  0
  1  7  1  0  0  0  0
  1  9  1  0  0  0  0
  2  8  1  0  0  0  0
  2 14  1  0  0  0  0
  2 15  1  0  0  0  0
  3  4  2  0  0  0  0
  3  8  1  0  0  0  0
  4  5  1  0  0  0  0
  4 21  1  0  0  0  0
  5  6  2  0  0  0  0
  6  7  1  0  0  0  0
  7  8  2  0  0  0  0
  9 10  2  0  0  0  0
  9 14  1  0  0  0  0
 10 11  1  0  0  0  0
 11 12  2  0  0  0  0
 12 13  1  0  0  0  0
 13 14  2  0  0  0  0
 15 16  1  0  0  0  0
 16 17  1  0  0  0  0
 17 18  1  0  0  0  0
 18 19  1  0  0  0  0
 18 20  1  0  0  0  0
 21 22  1  0  0  0  0
 21 23  2  0  0  0  0
M  CHG  1  18   1
M  END
>  <CHROM.1>
-63.55888174,171.00714456,-172.74637170,-171.21395426,-32.66200601,-23.67136388
7.10760577,7.03719876,2.02229652,0.07783963,1.29585641

>  <Name>


>  <RI>
0

>  <Rbt.Current_Directory>
/home/itssahil/PROJECTS/Mol_Feturizer/New_Systems/rnas/1lvj

>  <Rbt.Executable>
rbdock ($Id: //depot/dev/client3/rdock/2013.1/src/exe/rbdock.cxx#4 $)

>  <Rbt.Library>
libRbt.so (2013.1, Build901 2013/11/27)

>  <Rbt.Parameter_File>
/export/apps/rDock/src/rDock_2013.1_src/data/scripts/dock_solv.prm

>  <Rbt.Receptor>
prm/blind_docking_100.prm

>  <SCORE>
-31.1585

>  <SCORE.INTER>
-27.9628

>  <SCORE.INTER.CONST>
1

>  <SCORE.INTER.POLAR>
-1.27279

>  <SCORE.INTER.ROT>
5

>  <SCORE.INTER.SOLV>
21.2617

>  <SCORE.INTER.VDW>
-28.4198

>  <SCORE.INTER.norm>
-1.21578

>  <SCORE.INTRA>
-4.41174

>  <SCORE.INTRA.DIHEDRAL>
-5.44375

>  <SCORE.INTRA.DIHEDRAL.0>
8.06479

>  <SCORE.INTRA.POLAR>
0

>  <SCORE.INTRA.POLAR.0>
0

>  <SCORE.INTRA.REPUL>
0

>  <SCORE.INTRA.REPUL.0>
0

>  <SCORE.INTRA.SOLV>
0.576278

>  <SCORE.INTRA.SOLV.lig_0>
-29.8054

>  <SCORE.INTRA.VDW>
-1.97801

>  <SCORE.INTRA.VDW.0>
2.61447

>  <SCORE.INTRA.norm>
-0.191815

>  <SCORE.RESTR>
1.21609

>  <SCORE.RESTR.CAVITY>
1.21609

>  <SCORE.RESTR.norm>
0.0528736

>  <SCORE.SYSTEM>
0

>  <SCORE.SYSTEM.CONST>
0

>  <SCORE.SYSTEM.DIHEDRAL>
0

>  <SCORE.SYSTEM.SOLV>
0

>  <SCORE.SYSTEM.norm>
0

>  <SCORE.heavy>
23

>  <SCORE.norm>
-1.35472

>  <RMSD>
6.212

$$$$

 OpenBabel11021811403D
libRbt.so/2013.1/901 2013/11/27
 23 25  0  0  0  0  0  0  0  0999 V2000
  -25.6461    9.0230    8.0280 S   0  0  0  0  0  0  0  0  0  0  0  0
  -23.8772    7.6466    6.0670 N   0  0  0  0  0  0  0  0  0  0  0  0
  -25.5643    6.2203    5.1009 C   0  0  0  0  0  0  0  0  0  0  0  0
  -26.9009    5.8019    5.0612 C   0  0  0  0  0  0  0  0  0  0  0  0
  -27.8390    6.3707    5.9173 C   0  0  0  0  0  0  0  0  0  0  0  0
  -27.4484    7.3546    6.8190 C   0  0  0  0  0  0  0  0  0  0  0  0
  -26.1222    7.7764    6.8690 C   0  0  0  0  0  0  0  0  0  0  0  0
  -25.1712    7.2125    6.0101 C   0  0  0  0  0  0  0  0  0  0  0  0
  -24.1286    8.1937    8.3806 C   0  0  0  0  0  0  0  0  0  0  0  0
  -23.6470    8.1409    9.6918 C   0  0  0  0  0  0  0  0  0  0  0  0
  -22.4421    7.4875    9.9661 C   0  0  0  0  0  0  0  0  0  0  0  0
  -21.7204    6.8921    8.9264 C   0  0  0  0  0  0  0  0  0  0  0  0
  -22.2064    6.9492    7.6197 C   0  0  0  0  0  0  0  0  0  0  0  0
  -23.4047    7.5934    7.3441 C   0  0  0  0  0  0  0  0  0  0  0  0
  -22.9504    7.3808    4.9389 C   0  0  0  0  0  0  0  0  0  0  0  0
  -21.5484    8.0749    4.9883 C   0  0  0  0  0  0  0  0  0  0  0  0
  -20.4778    7.3847    4.0758 C   0  0  0  0  0  0  0  0  0  0  0  0
  -20.6781    7.4523    2.6057 N   0  3  0  0  0  0  0  0  0  0  0  0
  -21.6887    6.4638    2.1486 C   0  0  0  0  0  0  0  0  0  0  0  0
  -19.3693    7.2821    1.8845 C   0  0  0  0  0  0  0  0  0  0  0  0
  -27.3321    4.7333    4.0975 C   0  0  0  0  0  0  0  0  0  0  0  0
  -28.7561    4.2355    4.0417 C   0  0  0  0  0  0  0  0  0  0  0  0
  -26.5272    4.2925    3.2926 O   0  0  0  0  0  0  0  0  0  0  0  0
  1  7  1  0  0  0  0
  1  9  1  0  0  0  0
  2  8  1  0  0  0  0
  2 14  1  0  0  0  0
  2 15  1  0  0  0  0
  3  4  2  0  0  0  0
  3  8  1  0  0  0  0
  4  5  1  0  0  0  0
  4 21  1  0  0  0  0
  5  6  2  0  0  0  0
  6  7  1  0  0  0  0
  7  8  2  0  0  0  0
  9 10  2  0  0  0  0
  9 14  1  0  0  0  0
 10 11  1  0  0  0  0
 11 12  2  0  0  0  0
 12 13  1  0  0  0  0
 13 14  2  0  0  0  0
 15 16  1  0  0  0  0
 16 17  1  0  0  0  0
 17 18  1  0  0  0  0
 18 19  1  0  0  0  0
 18 20  1  0  0  0  0
 21 22  1  0  0  0  0
 21 23  2  0  0  0  0
M  CHG  1  18   1
M  END
>  <CHROM.1>
171.81231738,178.78401228,159.91350466,67.04821038,41.33635324,-24.17314900
7.04850284,5.82916398,-2.87288026,-0.26082229,-1.93857072

>  <Name>


>  <RI>
0

>  <Rbt.Current_Directory>
/home/itssahil/PROJECTS/Mol_Feturizer/New_Systems/rnas/1lvj

>  <Rbt.Executable>
rbdock ($Id: //depot/dev/client3/rdock/2013.1/src/exe/rbdock.cxx#4 $)

>  <Rbt.Library>
libRbt.so (2013.1, Build901 2013/11/27)

>  <Rbt.Parameter_File>
/export/apps/rDock/src/rDock_2013.1_src/data/scripts/dock_solv.prm

>  <Rbt.Receptor>
prm/blind_docking_100.prm

>  <SCORE>
2.26226

>  <SCORE.INTER>
4.53926

>  <SCORE.INTER.CONST>
1

>  <SCORE.INTER.POLAR>
0

>  <SCORE.INTER.ROT>
5

>  <SCORE.INTER.SOLV>
18.5573

>  <SCORE.INTER.VDW>
-10.0929

>  <SCORE.INTER.norm>
0.197359

>  <SCORE.INTRA>
-3.051

>  <SCORE.INTRA.DIHEDRAL>
-5.29619

>  <SCORE.INTRA.DIHEDRAL.0>
8.06479

>  <SCORE.INTRA.POLAR>
0

>  <SCORE.INTRA.POLAR.0>
0

>  <SCORE.INTRA.REPUL>
0

>  <SCORE.INTRA.REPUL.0>
0

>  <SCORE.INTRA.SOLV>
1.40138

>  <SCORE.INTRA.SOLV.lig_0>
-29.8054

>  <SCORE.INTRA.VDW>
-1.1036

>  <SCORE.INTRA.VDW.0>
2.61447

>  <SCORE.INTRA.norm>
-0.132652

>  <SCORE.RESTR>
0.773999

>  <SCORE.RESTR.CAVITY>
0.773999

>  <SCORE.RESTR.norm>
0.0336521

>  <SCORE.SYSTEM>
0

>  <SCORE.SYSTEM.CONST>
0

>  <SCORE.SYSTEM.DIHEDRAL>
0

>  <SCORE.SYSTEM.SOLV>
0

>  <SCORE.SYSTEM.norm>
0

>  <SCORE.heavy>
23

>  <SCORE.norm>
0.0983591

>  <RMSD>
6.212

$$$$

 OpenBabel11021811403D
libRbt.so/2013.1/901 2013/11/27
 23 25  0  0  0  0  0  0  0  0999 V2000
  -21.8101    7.2335    9.2523 S   0  0  0  0  0  0  0  0  0  0  0  0
  -23.2952    8.5971   11.4442 N   0  0  0  0  0  0  0  0  0  0  0  0
  -22.4124    7.2795   13.2604 C   0  0  0  0  0  0  0  0  0  0  0  0
  -21.5707    6.2463   13.6931 C   0  0  0  0  0  0  0  0  0  0  0  0
  -20.8091    5.5314   12.7736 C   0  0  0  0  0  0  0  0  0  0  0  0
  -20.8865    5.8399   11.4199 C   0  0  0  0  0  0  0  0  0  0  0  0
  -21.7215    6.8631   10.9783 C   0  0  0  0  0  0  0  0  0  0  0  0
  -22.4897    7.5902   11.8955 C   0  0  0  0  0  0  0  0  0  0  0  0
  -23.5539    7.4909    9.3407 C   0  0  0  0  0  0  0  0  0  0  0  0
  -24.3825    7.0366    8.3106 C   0  0  0  0  0  0  0  0  0  0  0  0
  -25.7625    7.2470    8.3820 C   0  0  0  0  0  0  0  0  0  0  0  0
  -26.3091    7.9152    9.4825 C   0  0  0  0  0  0  0  0  0  0  0  0
  -25.4762    8.3666   10.5069 C   0  0  0  0  0  0  0  0  0  0  0  0
  -24.1058    8.1557   10.4416 C   0  0  0  0  0  0  0  0  0  0  0  0
  -23.8001    9.6275   12.3851 C   0  0  0  0  0  0  0  0  0  0  0  0
  -24.8527    9.1683   13.4487 C   0  0  0  0  0  0  0  0  0  0  0  0
  -26.3315    9.4899   13.0426 C   0  0  0  0  0  0  0  0  0  0  0  0
  -27.3936    9.2364   14.0494 N   0  3  0  0  0  0  0  0  0  0  0  0
  -28.7417    9.2187   13.4250 C   0  0  0  0  0  0  0  0  0  0  0  0
  -27.3130   10.2386   15.1679 C   0  0  0  0  0  0  0  0  0  0  0  0
  -21.4862    5.8984   15.1519 C   0  0  0  0  0  0  0  0  0  0  0  0
  -22.3492    6.5789   16.1867 C   0  0  0  0  0  0  0  0  0  0  0  0
  -20.7433    4.9988   15.5110 O   0  0  0  0  0  0  0  0  0  0  0  0
  1  7  1  0  0  0  0
  1  9  1  0  0  0  0
  2  8  1  0  0  0  0
  2 14  1  0  0  0  0
  2 15  1  0  0  0  0
  3  4  2  0  0  0  0
  3  8  1  0  0  0  0
  4  5  1  0  0  0  0
  4 21  1  0  0  0  0
  5  6  2  0  0  0  0
  6  7  1  0  0  0  0
  7  8  2  0  0  0  0
  9 10  2  0  0  0  0
  9 14  1  0  0  0  0
 10 11  1  0  0  0  0
 11 12  2  0  0  0  0
 12 13  1  0  0  0  0
 13 14  2  0  0  0  0
 15 16  1  0  0  0  0
 16 17  1  0  0  0  0
 17 18  1  0  0  0  0
 18 19  1  0  0  0  0
 18 20  1  0  0  0  0
 21 22  1  0  0  0  0
 21 23  2  0  0  0  0
M  CHG  1  18   1
M  END
>  <CHROM.1>
-69.16480980,3.64373219,-98.29200133,-173.16596303,-44.16868848,-23.76255323
7.65406235,12.08993451,-0.00471817,0.49593169,-1.57890172

>  <Name>


>  <RI>
0

>  <Rbt.Current_Directory>
/home/itssahil/PROJECTS/Mol_Feturizer/New_Systems/rnas/1lvj

>  <Rbt.Executable>
rbdock ($Id: //depot/dev/client3/rdock/2013.1/src/exe/rbdock.cxx#4 $)

>  <Rbt.Library>
libRbt.so (2013.1, Build901 2013/11/27)

>  <Rbt.Parameter_File>
/export/apps/rDock/src/rDock_2013.1_src/data/scripts/dock_solv.prm

>  <Rbt.Receptor>
prm/pocket_docking_8.prm

>  <SCORE>
-20.4377

>  <SCORE.INTER>
-17.8532

>  <SCORE.INTER.CONST>
1

>  <SCORE.INTER.POLAR>
-0.52124

>  <SCORE.INTER.ROT>
5

>  <SCORE.INTER.SOLV>
6.25409

>  <SCORE.INTER.VDW>
-19.1827

>  <SCORE.INTER.norm>
-0.776227

>  <SCORE.INTRA>
-2.58446

>  <SCORE.INTRA.DIHEDRAL>
-3.2395

>  <SCORE.INTRA.DIHEDRAL.0>
8.06479

>  <SCORE.INTRA.POLAR>
0

>  <SCORE.INTRA.POLAR.0>
0

>  <SCORE.INTRA.REPUL>
0

>  <SCORE.INTRA.REPUL.0>
0

>  <SCORE.INTRA.SOLV>
0.530581

>  <SCORE.INTRA.SOLV.lig_0>
-29.8054

>  <SCORE.INTRA.VDW>
-1.23

>  <SCORE.INTRA.VDW.0>
2.61447

>  <SCORE.INTRA.norm>
-0.112368

>  <SCORE.RESTR>
0

>  <SCORE.RESTR.CAVITY>
0

>  <SCORE.RESTR.norm>
0

>  <SCORE.SYSTEM>
0

>  <SCORE.SYSTEM.CONST>
0

>  <SCORE.SYSTEM.DIHEDRAL>
0

>  <SCORE.SYSTEM.SOLV>
0

>  <SCORE.SYSTEM.norm>
0

>  <SCORE.heavy>
23

>  <SCORE.norm>
-0.888595

>  <RMSD>
6.215

$$$$

 OpenBabel11021811403D
libRbt.so/2013.1/901 2013/11/27
 23 25  0  0  0  0  0  0  0  0999 V2000
  -25.5982    8.9910    8.0329 S   0  0  0  0  0  0  0  0  0  0  0  0
  -23.8401    7.6931    6.0096 N   0  0  0  0  0  0  0  0  0  0  0  0
  -25.5229    6.2733    5.0265 C   0  0  0  0  0  0  0  0  0  0  0  0
  -26.8547    5.8393    4.9932 C   0  0  0  0  0  0  0  0  0  0  0  0
  -27.7876    6.3717    5.8779 C   0  0  0  0  0  0  0  0  0  0  0  0
  -27.3965    7.3347    6.8017 C   0  0  0  0  0  0  0  0  0  0  0  0
  -26.0751    7.7717    6.8456 C   0  0  0  0  0  0  0  0  0  0  0  0
  -25.1293    7.2444    5.9581 C   0  0  0  0  0  0  0  0  0  0  0  0
  -24.0658    8.1715    8.3410 C   0  0  0  0  0  0  0  0  0  0  0  0
  -23.5652    8.0878    9.6435 C   0  0  0  0  0  0  0  0  0  0  0  0
  -22.3487    7.4422    9.8826 C   0  0  0  0  0  0  0  0  0  0  0  0
  -21.6343    6.8857    8.8166 C   0  0  0  0  0  0  0  0  0  0  0  0
  -22.1393    6.9735    7.5189 C   0  0  0  0  0  0  0  0  0  0  0  0
  -23.3491    7.6099    7.2781 C   0  0  0  0  0  0  0  0  0  0  0  0
  -22.9261    7.4711    4.8619 C   0  0  0  0  0  0  0  0  0  0  0  0
  -21.6000    8.3022    4.8344 C   0  0  0  0  0  0  0  0  0  0  0  0
  -20.7106    8.0170    3.5763 C   0  0  0  0  0  0  0  0  0  0  0  0
  -20.3370    6.6060    3.3016 N   0  3  0  0  0  0  0  0  0  0  0  0
  -18.8748    6.3911    3.4539 C   0  0  0  0  0  0  0  0  0  0  0  0
  -20.8211    6.1853    1.9412 C   0  0  0  0  0  0  0  0  0  0  0  0
  -27.2862    4.7930    4.0055 C   0  0  0  0  0  0  0  0  0  0  0  0
  -28.6429    4.1355    4.0800 C   0  0  0  0  0  0  0  0  0  0  0  0
  -26.5472    4.5040    3.0779 O   0  0  0  0  0  0  0  0  0  0  0  0
  1  7  1  0  0  0  0
  1  9  1  0  0  0  0
  2  8  1  0  0  0  0
  2 14  1  0  0  0  0
  2 15  1  0  0  0  0
  3  4  2  0  0  0  0
  3  8  1  0  0  0  0
  4  5  1  0  0  0  0
  4 21  1  0  0  0  0
  5  6  2  0  0  0  0
  6  7  1  0  0  0  0
  7  8  2  0  0  0  0
  9 10  2  0  0  0  0
  9 14  1  0  0  0  0
 10 11  1  0  0  0  0
 11 12  2  0  0  0  0
 12 13  1  0  0  0  0
 13 14  2  0  0  0  0
 15 16  1  0  0  0  0
 16 17  1  0  0  0  0
 17 18  1  0  0  0  0
 18 19  1  0  0  0  0
 18 20  1  0  0  0  0
 21 22  1  0  0  0  0
 21 23  2  0  0  0  0
M  CHG  1  18   1
M  END
>  <CHROM.1>
165.27889327,169.82864927,-179.12563301,-54.39609518,6.16565258,-24.06631286
6.99908116,5.85305851,-3.01170189,-0.19232402,-1.99648571

>  <Name>


>  <RI>
0

>  <Rbt.Current_Directory>
/home/itssahil/PROJECTS/Mol_Feturizer/New_Systems/rnas/1lvj

>  <Rbt.Executable>
rbdock ($Id: //depot/dev/client3/rdock/2013.1/src/exe/rbdock.cxx#4 $)

>  <Rbt.Library>
libRbt.so (2013.1, Build901 2013/11/27)

>  <Rbt.Parameter_File>
/export/apps/rDock/src/rDock_2013.1_src/data/scripts/dock_solv.prm

>  <Rbt.Receptor>
prm/blind_docking_100.prm

>  <SCORE>
1.51585

>  <SCORE.INTER>
3.74565

>  <SCORE.INTER.CONST>
1

>  <SCORE.INTER.POLAR>
0

>  <SCORE.INTER.ROT>
5

>  <SCORE.INTER.SOLV>
20.1479

>  <SCORE.INTER.VDW>
-11.1522

>  <SCORE.INTER.norm>
0.162854

>  <SCORE.INTRA>
-2.81536

>  <SCORE.INTRA.DIHEDRAL>
-3.64324

>  <SCORE.INTRA.DIHEDRAL.0>
8.06479

>  <SCORE.INTRA.POLAR>
0

>  <SCORE.INTRA.POLAR.0>
0

>  <SCORE.INTRA.REPUL>
0

>  <SCORE.INTRA.REPUL.0>
0

>  <SCORE.INTRA.SOLV>
2.56402

>  <SCORE.INTRA.SOLV.lig_0>
-29.8054

>  <SCORE.INTRA.VDW>
-2.27575

>  <SCORE.INTRA.VDW.0>
2.61447

>  <SCORE.INTRA.norm>
-0.122407

>  <SCORE.RESTR>
0.585557

>  <SCORE.RESTR.CAVITY>
0.585557

>  <SCORE.RESTR.norm>
0.025459

>  <SCORE.SYSTEM>
0

>  <SCORE.SYSTEM.CONST>
0

>  <SCORE.SYSTEM.DIHEDRAL>
0

>  <SCORE.SYSTEM.SOLV>
0

>  <SCORE.SYSTEM.norm>
0

>  <SCORE.heavy>
23

>  <SCORE.norm>
0.0659063

>  <RMSD>
6.217

$$$$

 OpenBabel11021811403D
libRbt.so/2013.1/901 2013/11/27
 23 25  0  0  0  0  0  0  0  0999 V2000
  -25.4876    8.6081    9.7276 S   0  0  0  0  0  0  0  0  0  0  0  0
  -23.2705    8.2088    7.7798 N   0  0  0  0  0  0  0  0  0  0  0  0
  -24.5616    7.0621    6.0969 C   0  0  0  0  0  0  0  0  0  0  0  0
  -25.7969    6.5545    5.6731 C   0  0  0  0  0  0  0  0  0  0  0  0
  -26.9219    6.6824    6.4821 C   0  0  0  0  0  0  0  0  0  0  0  0
  -26.8196    7.3121    7.7177 C   0  0  0  0  0  0  0  0  0  0  0  0
  -25.5965    7.8181    8.1503 C   0  0  0  0  0  0  0  0  0  0  0  0
  -24.4593    7.6970    7.3427 C   0  0  0  0  0  0  0  0  0  0  0  0
  -23.9212    7.8634   10.0541 C   0  0  0  0  0  0  0  0  0  0  0  0
  -23.6223    7.3930   11.3361 C   0  0  0  0  0  0  0  0  0  0  0  0
  -22.3786    6.8085   11.5917 C   0  0  0  0  0  0  0  0  0  0  0  0
  -21.4357    6.7000   10.5644 C   0  0  0  0  0  0  0  0  0  0  0  0
  -21.7402    7.1722    9.2872 C   0  0  0  0  0  0  0  0  0  0  0  0
  -22.9758    7.7494    9.0285 C   0  0  0  0  0  0  0  0  0  0  0  0
  -22.1671    8.4584    6.8194 C   0  0  0  0  0  0  0  0  0  0  0  0
  -21.4439    7.2054    6.2219 C   0  0  0  0  0  0  0  0  0  0  0  0
  -21.7561    6.9690    4.7047 C   0  0  0  0  0  0  0  0  0  0  0  0
  -20.7292    7.3867    3.7163 N   0  3  0  0  0  0  0  0  0  0  0  0
  -21.3040    7.5028    2.3511 C   0  0  0  0  0  0  0  0  0  0  0  0
  -19.5537    6.4490    3.7457 C   0  0  0  0  0  0  0  0  0  0  0  0
  -25.9169    5.8644    4.3442 C   0  0  0  0  0  0  0  0  0  0  0  0
  -24.7659    5.8022    3.3696 C   0  0  0  0  0  0  0  0  0  0  0  0
  -26.9529    5.2835    4.0625 O   0  0  0  0  0  0  0  0  0  0  0  0
  1  7  1  0  0  0  0
  1  9  1  0  0  0  0
  2  8  1  0  0  0  0
  2 14  1  0  0  0  0
  2 15  1  0  0  0  0
  3  4  2  0  0  0  0
  3  8  1  0  0  0  0
  4  5  1  0  0  0  0
  4 21  1  0  0  0  0
  5  6  2  0  0  0  0
  6  7  1  0  0  0  0
  7  8  2  0  0  0  0
  9 10  2  0  0  0  0
  9 14  1  0  0  0  0
 10 11  1  0  0  0  0
 11 12  2  0  0  0  0
 12 13  1  0  0  0  0
 13 14  2  0  0  0  0
 15 16  1  0  0  0  0
 16 17  1  0  0  0  0
 17 18  1  0  0  0  0
 18 19  1  0  0  0  0
 18 20  1  0  0  0  0
 21 22  1  0  0  0  0
 21 23  2  0  0  0  0
M  CHG  1  18   1
M  END
>  <CHROM.1>
-71.08960762,-5.73917067,109.42572677,101.60858262,-42.28344029,-23.68119072
7.22040590,6.99292474,1.77516079,0.08540559,1.39114685

>  <Name>


>  <RI>
0

>  <Rbt.Current_Directory>
/home/itssahil/PROJECTS/Mol_Feturizer/New_Systems/rnas/1lvj

>  <Rbt.Executable>
rbdock ($Id: //depot/dev/client3/rdock/2013.1/src/exe/rbdock.cxx#4 $)

>  <Rbt.Library>
libRbt.so (2013.1, Build901 2013/11/27)

>  <Rbt.Parameter_File>
/export/apps/rDock/src/rDock_2013.1_src/data/scripts/dock_solv.prm

>  <Rbt.Receptor>
prm/blind_docking_100.prm

>  <SCORE>
-20.5624

>  <SCORE.INTER>
-21.7093

>  <SCORE.INTER.CONST>
1

>  <SCORE.INTER.POLAR>
0

>  <SCORE.INTER.ROT>
5

>  <SCORE.INTER.SOLV>
20.6771

>  <SCORE.INTER.VDW>
-28.2986

>  <SCORE.INTER.norm>
-0.943883

>  <SCORE.INTRA>
-0.357763

>  <SCORE.INTRA.DIHEDRAL>
2.41858

>  <SCORE.INTRA.DIHEDRAL.0>
8.06479

>  <SCORE.INTRA.POLAR>
0

>  <SCORE.INTRA.POLAR.0>
0

>  <SCORE.INTRA.REPUL>
0

>  <SCORE.INTRA.REPUL.0>
0

>  <SCORE.INTRA.SOLV>
1.46776

>  <SCORE.INTRA.SOLV.lig_0>
-29.8054

>  <SCORE.INTRA.VDW>
-2.30094

>  <SCORE.INTRA.VDW.0>
2.61447

>  <SCORE.INTRA.norm>
-0.0155549

>  <SCORE.RESTR>
1.5047

>  <SCORE.RESTR.CAVITY>
1.5047

>  <SCORE.RESTR.norm>
0.0654219

>  <SCORE.SYSTEM>
0

>  <SCORE.SYSTEM.CONST>
0

>  <SCORE.SYSTEM.DIHEDRAL>
0

>  <SCORE.SYSTEM.SOLV>
0

>  <SCORE.SYSTEM.norm>
0

>  <SCORE.heavy>
23

>  <SCORE.norm>
-0.894017

>  <RMSD>
6.219

$$$$

 OpenBabel11021811403D
libRbt.so/2013.1/901 2013/11/27
 23 25  0  0  0  0  0  0  0  0999 V2000
  -25.4237    8.6857    9.7344 S   0  0  0  0  0  0  0  0  0  0  0  0
  -23.4078    8.1622    7.6058 N   0  0  0  0  0  0  0  0  0  0  0  0
  -24.8533    6.9145    6.1334 C   0  0  0  0  0  0  0  0  0  0  0  0
  -26.1219    6.3832    5.8662 C   0  0  0  0  0  0  0  0  0  0  0  0
  -27.1622    6.5631    6.7729 C   0  0  0  0  0  0  0  0  0  0  0  0
  -26.9414    7.2687    7.9507 C   0  0  0  0  0  0  0  0  0  0  0  0
  -25.6840    7.7989    8.2279 C   0  0  0  0  0  0  0  0  0  0  0  0
  -24.6315    7.6259    7.3210 C   0  0  0  0  0  0  0  0  0  0  0  0
  -23.8292    7.9606    9.9503 C   0  0  0  0  0  0  0  0  0  0  0  0
  -23.4030    7.5708   11.2234 C   0  0  0  0  0  0  0  0  0  0  0  0
  -22.1375    7.0015   11.3908 C   0  0  0  0  0  0  0  0  0  0  0  0
  -21.3000    6.8276   10.2841 C   0  0  0  0  0  0  0  0  0  0  0  0
  -21.7313    7.2196    9.0163 C   0  0  0  0  0  0  0  0  0  0  0  0
  -22.9891    7.7813    8.8454 C   0  0  0  0  0  0  0  0  0  0  0  0
  -22.4058    8.3496    6.5274 C   0  0  0  0  0  0  0  0  0  0  0  0
  -21.7486    7.0599    5.9318 C   0  0  0  0  0  0  0  0  0  0  0  0
  -20.4922    7.3533    5.0426 C   0  0  0  0  0  0  0  0  0  0  0  0
  -20.1439    6.3621    3.9928 N   0  3  0  0  0  0  0  0  0  0  0  0
  -18.7448    6.5358    3.5237 C   0  0  0  0  0  0  0  0  0  0  0  0
  -21.1238    6.4306    2.8539 C   0  0  0  0  0  0  0  0  0  0  0  0
  -26.3694    5.6116    4.6014 C   0  0  0  0  0  0  0  0  0  0  0  0
  -27.6593    4.8657    4.3601 C   0  0  0  0  0  0  0  0  0  0  0  0
  -25.5321    5.6330    3.7133 O   0  0  0  0  0  0  0  0  0  0  0  0
  1  7  1  0  0  0  0
  1  9  1  0  0  0  0
  2  8  1  0  0  0  0
  2 14  1  0  0  0  0
  2 15  1  0  0  0  0
  3  4  2  0  0  0  0
  3  8  1  0  0  0  0
  4  5  1  0  0  0  0
  4 21  1  0  0  0  0
  5  6  2  0  0  0  0
  6  7  1  0  0  0  0
  7  8  2  0  0  0  0
  9 10  2  0  0  0  0
  9 14  1  0  0  0  0
 10 11  1  0  0  0  0
 11 12  2  0  0  0  0
 12 13  1  0  0  0  0
 13 14  2  0  0  0  0
 15 16  1  0  0  0  0
 16 17  1  0  0  0  0
 17 18  1  0  0  0  0
 18 19  1  0  0  0  0
 18 20  1  0  0  0  0
 21 22  1  0  0  0  0
 21 23  2  0  0  0  0
M  CHG  1  18   1
M  END
>  <CHROM.1>
-70.55563316,171.54066053,-167.12740833,-154.35788503,-42.54173234,-23.67968077
7.10304201,7.02593397,-2.07645065,-0.08345908,-1.84785339

>  <Name>


>  <RI>
0

>  <Rbt.Current_Directory>
/home/itssahil/PROJECTS/Mol_Feturizer/New_Systems/rnas/1lvj

>  <Rbt.Executable>
rbdock ($Id: //depot/dev/client3/rdock/2013.1/src/exe/rbdock.cxx#4 $)

>  <Rbt.Library>
libRbt.so (2013.1, Build901 2013/11/27)

>  <Rbt.Parameter_File>
/export/apps/rDock/src/rDock_2013.1_src/data/scripts/dock_solv.prm

>  <Rbt.Receptor>
prm/blind_docking_100.prm

>  <SCORE>
-30.2409

>  <SCORE.INTER>
-27.6195

>  <SCORE.INTER.CONST>
1

>  <SCORE.INTER.POLAR>
-1.27279

>  <SCORE.INTER.ROT>
5

>  <SCORE.INTER.SOLV>
21.1692

>  <SCORE.INTER.VDW>
-28.1601

>  <SCORE.INTER.norm>
-1.20085

>  <SCORE.INTRA>
-3.76635

>  <SCORE.INTRA.DIHEDRAL>
-4.12213

>  <SCORE.INTRA.DIHEDRAL.0>
8.06479

>  <SCORE.INTRA.POLAR>
0

>  <SCORE.INTRA.POLAR.0>
0

>  <SCORE.INTRA.REPUL>
0

>  <SCORE.INTRA.REPUL.0>
0

>  <SCORE.INTRA.SOLV>
0.449067

>  <SCORE.INTRA.SOLV.lig_0>
-29.8054

>  <SCORE.INTRA.VDW>
-1.92982

>  <SCORE.INTRA.VDW.0>
2.61447

>  <SCORE.INTRA.norm>
-0.163754

>  <SCORE.RESTR>
1.14491

>  <SCORE.RESTR.CAVITY>
1.14491

>  <SCORE.RESTR.norm>
0.0497787

>  <SCORE.SYSTEM>
0

>  <SCORE.SYSTEM.CONST>
0

>  <SCORE.SYSTEM.DIHEDRAL>
0

>  <SCORE.SYSTEM.SOLV>
0

>  <SCORE.SYSTEM.norm>
0

>  <SCORE.heavy>
23

>  <SCORE.norm>
-1.31482

>  <RMSD>
6.219

$$$$

 OpenBabel11021811403D
libRbt.so/2013.1/901 2013/11/27
 23 25  0  0  0  0  0  0  0  0999 V2000
  -25.5878    9.0063    7.9259 S   0  0  0  0  0  0  0  0  0  0  0  0
  -23.8689    7.6228    5.9258 N   0  0  0  0  0  0  0  0  0  0  0  0
  -25.5775    6.1859    5.0146 C   0  0  0  0  0  0  0  0  0  0  0  0
  -26.9135    5.7636    5.0139 C   0  0  0  0  0  0  0  0  0  0  0  0
  -27.8296    6.3350    5.8918 C   0  0  0  0  0  0  0  0  0  0  0  0
  -27.4174    7.3256    6.7765 C   0  0  0  0  0  0  0  0  0  0  0  0
  -26.0916    7.7513    6.7878 C   0  0  0  0  0  0  0  0  0  0  0  0
  -25.1627    7.1848    5.9068 C   0  0  0  0  0  0  0  0  0  0  0  0
  -24.0588    8.1834    8.2420 C   0  0  0  0  0  0  0  0  0  0  0  0
  -23.5415    8.1400    9.5399 C   0  0  0  0  0  0  0  0  0  0  0  0
  -22.3278    7.4916    9.7852 C   0  0  0  0  0  0  0  0  0  0  0  0
  -21.6328    6.8919    8.7298 C   0  0  0  0  0  0  0  0  0  0  0  0
  -22.1545    6.9396    7.4365 C   0  0  0  0  0  0  0  0  0  0  0  0
  -23.3617    7.5788    7.1898 C   0  0  0  0  0  0  0  0  0  0  0  0
  -22.9725    7.3527    4.7745 C   0  0  0  0  0  0  0  0  0  0  0  0
  -21.6551    8.1929    4.6832 C   0  0  0  0  0  0  0  0  0  0  0  0
  -20.5341    7.5055    3.8311 C   0  0  0  0  0  0  0  0  0  0  0  0
  -20.7030    7.4875    2.3556 N   0  3  0  0  0  0  0  0  0  0  0  0
  -21.6363    6.4133    1.9282 C   0  0  0  0  0  0  0  0  0  0  0  0
  -19.3690    7.3685    1.6713 C   0  0  0  0  0  0  0  0  0  0  0  0
  -27.3677    4.6880    4.0688 C   0  0  0  0  0  0  0  0  0  0  0  0
  -28.7926    4.1903    4.0505 C   0  0  0  0  0  0  0  0  0  0  0  0
  -26.5822    4.2408    3.2483 O   0  0  0  0  0  0  0  0  0  0  0  0
  1  7  1  0  0  0  0
  1  9  1  0  0  0  0
  2  8  1  0  0  0  0
  2 14  1  0  0  0  0
  2 15  1  0  0  0  0
  3  4  2  0  0  0  0
  3  8  1  0  0  0  0
  4  5  1  0  0  0  0
  4 21  1  0  0  0  0
  5  6  2  0  0  0  0
  6  7  1  0  0  0  0
  7  8  2  0  0  0  0
  9 10  2  0  0  0  0
  9 14  1  0  0  0  0
 10 11  1  0  0  0  0
 11 12  2  0  0  0  0
 12 13  1  0  0  0  0
 13 14  2  0  0  0  0
 15 16  1  0  0  0  0
 16 17  1  0  0  0  0
 17 18  1  0  0  0  0
 18 19  1  0  0  0  0
 18 20  1  0  0  0  0
 21 22  1  0  0  0  0
 21 23  2  0  0  0  0
M  CHG  1  18   1
M  END
>  <CHROM.1>
163.91983806,179.06675315,157.15817541,73.60951582,40.15111984,-24.15908799
7.04331039,5.69447788,-2.85064096,-0.28348610,-1.93374763

>  <Name>


>  <RI>
0

>  <Rbt.Current_Directory>
/home/itssahil/PROJECTS/Mol_Feturizer/New_Systems/rnas/1lvj

>  <Rbt.Executable>
rbdock ($Id: //depot/dev/client3/rdock/2013.1/src/exe/rbdock.cxx#4 $)

>  <Rbt.Library>
libRbt.so (2013.1, Build901 2013/11/27)

>  <Rbt.Parameter_File>
/export/apps/rDock/src/rDock_2013.1_src/data/scripts/dock_solv.prm

>  <Rbt.Receptor>
prm/pocket_docking_6.prm

>  <SCORE>
1.24889

>  <SCORE.INTER>
3.96835

>  <SCORE.INTER.CONST>
1

>  <SCORE.INTER.POLAR>
0

>  <SCORE.INTER.ROT>
5

>  <SCORE.INTER.SOLV>
18.4697

>  <SCORE.INTER.VDW>
-10.4443

>  <SCORE.INTER.norm>
0.172537

>  <SCORE.INTRA>
-3.42477

>  <SCORE.INTRA.DIHEDRAL>
-4.34404

>  <SCORE.INTRA.DIHEDRAL.0>
8.06479

>  <SCORE.INTRA.POLAR>
0

>  <SCORE.INTRA.POLAR.0>
0

>  <SCORE.INTRA.REPUL>
0

>  <SCORE.INTRA.REPUL.0>
0

>  <SCORE.INTRA.SOLV>
1.30137

>  <SCORE.INTRA.SOLV.lig_0>
-29.8054

>  <SCORE.INTRA.VDW>
-1.90343

>  <SCORE.INTRA.VDW.0>
2.61447

>  <SCORE.INTRA.norm>
-0.148903

>  <SCORE.RESTR>
0.7053

>  <SCORE.RESTR.CAVITY>
0.7053

>  <SCORE.RESTR.norm>
0.0306652

>  <SCORE.SYSTEM>
0

>  <SCORE.SYSTEM.CONST>
0

>  <SCORE.SYSTEM.DIHEDRAL>
0

>  <SCORE.SYSTEM.SOLV>
0

>  <SCORE.SYSTEM.norm>
0

>  <SCORE.heavy>
23

>  <SCORE.norm>
0.0542995

>  <RMSD>
6.219

$$$$

 OpenBabel11021811403D
libRbt.so/2013.1/901 2013/11/27
 23 25  0  0  0  0  0  0  0  0999 V2000
  -25.4908    8.6010    9.7147 S   0  0  0  0  0  0  0  0  0  0  0  0
  -23.2756    8.2080    7.7634 N   0  0  0  0  0  0  0  0  0  0  0  0
  -24.5638    7.0485    6.0870 C   0  0  0  0  0  0  0  0  0  0  0  0
  -25.7971    6.5326    5.6676 C   0  0  0  0  0  0  0  0  0  0  0  0
  -26.9210    6.6567    6.4786 C   0  0  0  0  0  0  0  0  0  0  0  0
  -26.8197    7.2910    7.7119 C   0  0  0  0  0  0  0  0  0  0  0  0
  -25.5985    7.8054    8.1402 C   0  0  0  0  0  0  0  0  0  0  0  0
  -24.4624    7.6881    7.3306 C   0  0  0  0  0  0  0  0  0  0  0  0
  -23.9195    7.8664   10.0402 C   0  0  0  0  0  0  0  0  0  0  0  0
  -23.6152    7.4019   11.3232 C   0  0  0  0  0  0  0  0  0  0  0  0
  -22.3676    6.8252   11.5780 C   0  0  0  0  0  0  0  0  0  0  0  0
  -21.4263    6.7188   10.5489 C   0  0  0  0  0  0  0  0  0  0  0  0
  -21.7362    7.1851    9.2709 C   0  0  0  0  0  0  0  0  0  0  0  0
  -22.9756    7.7543    9.0129 C   0  0  0  0  0  0  0  0  0  0  0  0
  -22.1757    8.4607    6.7998 C   0  0  0  0  0  0  0  0  0  0  0  0
  -21.4780    7.2097    6.1691 C   0  0  0  0  0  0  0  0  0  0  0  0
  -21.7749    7.0337    4.6407 C   0  0  0  0  0  0  0  0  0  0  0  0
  -20.7258    7.4625    3.6807 N   0  3  0  0  0  0  0  0  0  0  0  0
  -21.2581    7.5487    2.2962 C   0  0  0  0  0  0  0  0  0  0  0  0
  -19.5312    6.5523    3.7604 C   0  0  0  0  0  0  0  0  0  0  0  0
  -25.9161    5.8375    4.3412 C   0  0  0  0  0  0  0  0  0  0  0  0
  -24.7736    5.7966    3.3555 C   0  0  0  0  0  0  0  0  0  0  0  0
  -26.9428    5.2351    4.0707 O   0  0  0  0  0  0  0  0  0  0  0  0
  1  7  1  0  0  0  0
  1  9  1  0  0  0  0
  2  8  1  0  0  0  0
  2 14  1  0  0  0  0
  2 15  1  0  0  0  0
  3  4  2  0  0  0  0
  3  8  1  0  0  0  0
  4  5  1  0  0  0  0
  4 21  1  0  0  0  0
  5  6  2  0  0  0  0
  6  7  1  0  0  0  0
  7  8  2  0  0  0  0
  9 10  2  0  0  0  0
  9 14  1  0  0  0  0
 10 11  1  0  0  0  0
 11 12  2  0  0  0  0
 12 13  1  0  0  0  0
 13 14  2  0  0  0  0
 15 16  1  0  0  0  0
 16 17  1  0  0  0  0
 17 18  1  0  0  0  0
 18 19  1  0  0  0  0
 18 20  1  0  0  0  0
 21 22  1  0  0  0  0
 21 23  2  0  0  0  0
M  CHG  1  18   1
M  END
>  <CHROM.1>
-69.13674705,-6.68481486,110.97212173,101.33620181,-46.20895218,-23.67990733
7.22806589,6.97609991,1.78076588,0.10117114,1.39383797

>  <Name>


>  <RI>
0

>  <Rbt.Current_Directory>
/home/itssahil/PROJECTS/Mol_Feturizer/New_Systems/rnas/1lvj

>  <Rbt.Executable>
rbdock ($Id: //depot/dev/client3/rdock/2013.1/src/exe/rbdock.cxx#4 $)

>  <Rbt.Library>
libRbt.so (2013.1, Build901 2013/11/27)

>  <Rbt.Parameter_File>
/export/apps/rDock/src/rDock_2013.1_src/data/scripts/dock_solv.prm

>  <Rbt.Receptor>
prm/blind_docking_100.prm

>  <SCORE>
-20.4577

>  <SCORE.INTER>
-21.6042

>  <SCORE.INTER.CONST>
1

>  <SCORE.INTER.POLAR>
0

>  <SCORE.INTER.ROT>
5

>  <SCORE.INTER.SOLV>
20.8133

>  <SCORE.INTER.VDW>
-28.2739

>  <SCORE.INTER.norm>
-0.939312

>  <SCORE.INTRA>
-0.331807

>  <SCORE.INTRA.DIHEDRAL>
2.31189

>  <SCORE.INTRA.DIHEDRAL.0>
8.06479

>  <SCORE.INTRA.POLAR>
0

>  <SCORE.INTRA.POLAR.0>
0

>  <SCORE.INTRA.REPUL>
0

>  <SCORE.INTRA.REPUL.0>
0

>  <SCORE.INTRA.SOLV>
1.4323

>  <SCORE.INTRA.SOLV.lig_0>
-29.8054

>  <SCORE.INTRA.VDW>
-2.2039

>  <SCORE.INTRA.VDW.0>
2.61447

>  <SCORE.INTRA.norm>
-0.0144264

>  <SCORE.RESTR>
1.47833

>  <SCORE.RESTR.CAVITY>
1.47833

>  <SCORE.RESTR.norm>
0.0642753

>  <SCORE.SYSTEM>
0

>  <SCORE.SYSTEM.CONST>
0

>  <SCORE.SYSTEM.DIHEDRAL>
0

>  <SCORE.SYSTEM.SOLV>
0

>  <SCORE.SYSTEM.norm>
0

>  <SCORE.heavy>
23

>  <SCORE.norm>
-0.889464

>  <RMSD>
6.224

$$$$

 OpenBabel11021811403D
libRbt.so/2013.1/901 2013/11/27
 23 25  0  0  0  0  0  0  0  0999 V2000
  -25.3237    8.4907   10.1812 S   0  0  0  0  0  0  0  0  0  0  0  0
  -23.1646    8.0476    8.1784 N   0  0  0  0  0  0  0  0  0  0  0  0
  -24.5570    7.1062    6.4495 C   0  0  0  0  0  0  0  0  0  0  0  0
  -25.8317    6.7193    6.0152 C   0  0  0  0  0  0  0  0  0  0  0  0
  -26.9349    6.8809    6.8479 C   0  0  0  0  0  0  0  0  0  0  0  0
  -26.7717    7.4240    8.1176 C   0  0  0  0  0  0  0  0  0  0  0  0
  -25.5092    7.8097    8.5608 C   0  0  0  0  0  0  0  0  0  0  0  0
  -24.3934    7.6539    7.7297 C   0  0  0  0  0  0  0  0  0  0  0  0
  -23.8144    7.6125   10.4375 C   0  0  0  0  0  0  0  0  0  0  0  0
  -23.5377    7.0432   11.6839 C   0  0  0  0  0  0  0  0  0  0  0  0
  -22.3390    6.3527   11.8842 C   0  0  0  0  0  0  0  0  0  0  0  0
  -21.4183    6.2376   10.8376 C   0  0  0  0  0  0  0  0  0  0  0  0
  -21.7004    6.8089    9.5962 C   0  0  0  0  0  0  0  0  0  0  0  0
  -22.8917    7.4915    9.3922 C   0  0  0  0  0  0  0  0  0  0  0  0
  -22.0562    8.2727    7.2178 C   0  0  0  0  0  0  0  0  0  0  0  0
  -21.5489    7.0318    6.4098 C   0  0  0  0  0  0  0  0  0  0  0  0
  -21.8874    7.1012    4.8815 C   0  0  0  0  0  0  0  0  0  0  0  0
  -20.8335    7.6048    3.9641 N   0  3  0  0  0  0  0  0  0  0  0  0
  -21.4197    8.3416    2.8147 C   0  0  0  0  0  0  0  0  0  0  0  0
  -19.9467    6.4790    3.5077 C   0  0  0  0  0  0  0  0  0  0  0  0
  -26.0182    6.1232    4.6490 C   0  0  0  0  0  0  0  0  0  0  0  0
  -24.8694    5.9660    3.6825 C   0  0  0  0  0  0  0  0  0  0  0  0
  -27.1155    5.6966    4.3264 O   0  0  0  0  0  0  0  0  0  0  0  0
  1  7  1  0  0  0  0
  1  9  1  0  0  0  0
  2  8  1  0  0  0  0
  2 14  1  0  0  0  0
  2 15  1  0  0  0  0
  3  4  2  0  0  0  0
  3  8  1  0  0  0  0
  4  5  1  0  0  0  0
  4 21  1  0  0  0  0
  5  6  2  0  0  0  0
  6  7  1  0  0  0  0
  7  8  2  0  0  0  0
  9 10  2  0  0  0  0
  9 14  1  0  0  0  0
 10 11  1  0  0  0  0
 11 12  2  0  0  0  0
 12 13  1  0  0  0  0
 13 14  2  0  0  0  0
 15 16  1  0  0  0  0
 16 17  1  0  0  0  0
 17 18  1  0  0  0  0
 18 19  1  0  0  0  0
 18 20  1  0  0  0  0
 21 22  1  0  0  0  0
 21 23  2  0  0  0  0
M  CHG  1  18   1
M  END
>  <CHROM.1>
-64.11379556,-2.31334431,111.19603406,96.72351618,-27.09656930,-23.68967207
7.21328009,7.31022720,1.73167836,0.05786863,1.48651521

>  <Name>


>  <RI>
0

>  <Rbt.Current_Directory>
/home/itssahil/PROJECTS/Mol_Feturizer/New_Systems/rnas/1lvj

>  <Rbt.Executable>
rbdock ($Id: //depot/dev/client3/rdock/2013.1/src/exe/rbdock.cxx#4 $)

>  <Rbt.Library>
libRbt.so (2013.1, Build901 2013/11/27)

>  <Rbt.Parameter_File>
/export/apps/rDock/src/rDock_2013.1_src/data/scripts/dock_solv.prm

>  <Rbt.Receptor>
prm/pocket_docking_3.prm

>  <SCORE>
-21.9985

>  <SCORE.INTER>
-22.0968

>  <SCORE.INTER.CONST>
1

>  <SCORE.INTER.POLAR>
-0.0514335

>  <SCORE.INTER.ROT>
5

>  <SCORE.INTER.SOLV>
21.3369

>  <SCORE.INTER.VDW>
-28.6054

>  <SCORE.INTER.norm>
-0.960732

>  <SCORE.INTRA>
0.0982956

>  <SCORE.INTRA.DIHEDRAL>
3.15102

>  <SCORE.INTRA.DIHEDRAL.0>
8.06479

>  <SCORE.INTRA.POLAR>
0

>  <SCORE.INTRA.POLAR.0>
0

>  <SCORE.INTRA.REPUL>
0

>  <SCORE.INTRA.REPUL.0>
0

>  <SCORE.INTRA.SOLV>
1.64211

>  <SCORE.INTRA.SOLV.lig_0>
-29.8054

>  <SCORE.INTRA.VDW>
-2.29827

>  <SCORE.INTRA.VDW.0>
2.61447

>  <SCORE.INTRA.norm>
0.00427372

>  <SCORE.RESTR>
0

>  <SCORE.RESTR.CAVITY>
0

>  <SCORE.RESTR.norm>
0

>  <SCORE.SYSTEM>
0

>  <SCORE.SYSTEM.CONST>
0

>  <SCORE.SYSTEM.DIHEDRAL>
0

>  <SCORE.SYSTEM.SOLV>
0

>  <SCORE.SYSTEM.norm>
0

>  <SCORE.heavy>
23

>  <SCORE.norm>
-0.956458

>  <RMSD>
6.224

$$$$

 OpenBabel11021811403D
libRbt.so/2013.1/901 2013/11/27
 23 25  0  0  0  0  0  0  0  0999 V2000
  -25.3352    8.5899   10.0022 S   0  0  0  0  0  0  0  0  0  0  0  0
  -23.3691    8.1935    7.8008 N   0  0  0  0  0  0  0  0  0  0  0  0
  -24.8299    6.9756    6.3186 C   0  0  0  0  0  0  0  0  0  0  0  0
  -26.0948    6.4291    6.0644 C   0  0  0  0  0  0  0  0  0  0  0  0
  -27.1129    6.5512    7.0052 C   0  0  0  0  0  0  0  0  0  0  0  0
  -26.8736    7.2137    8.2042 C   0  0  0  0  0  0  0  0  0  0  0  0
  -25.6196    7.7585    8.4686 C   0  0  0  0  0  0  0  0  0  0  0  0
  -24.5894    7.6436    7.5276 C   0  0  0  0  0  0  0  0  0  0  0  0
  -23.7214    7.8901   10.1457 C   0  0  0  0  0  0  0  0  0  0  0  0
  -23.2526    7.4589   11.3901 C   0  0  0  0  0  0  0  0  0  0  0  0
  -21.9719    6.9099   11.5004 C   0  0  0  0  0  0  0  0  0  0  0  0
  -21.1621    6.7976   10.3655 C   0  0  0  0  0  0  0  0  0  0  0  0
  -21.6360    7.2306    9.1266 C   0  0  0  0  0  0  0  0  0  0  0  0
  -22.9089    7.7724    9.0123 C   0  0  0  0  0  0  0  0  0  0  0  0
  -22.4012    8.4445    6.7043 C   0  0  0  0  0  0  0  0  0  0  0  0
  -21.7789    7.1922    6.0010 C   0  0  0  0  0  0  0  0  0  0  0  0
  -20.5471    7.5331    5.0946 C   0  0  0  0  0  0  0  0  0  0  0  0
  -20.3122    6.6807    3.9013 N   0  3  0  0  0  0  0  0  0  0  0  0
  -18.8829    6.2926    3.7831 C   0  0  0  0  0  0  0  0  0  0  0  0
  -20.8065    7.3646    2.6564 C   0  0  0  0  0  0  0  0  0  0  0  0
  -26.3619    5.7035    4.7766 C   0  0  0  0  0  0  0  0  0  0  0  0
  -27.6669    4.9906    4.5172 C   0  0  0  0  0  0  0  0  0  0  0  0
  -25.5277    5.7373    3.8860 O   0  0  0  0  0  0  0  0  0  0  0  0
  1  7  1  0  0  0  0
  1  9  1  0  0  0  0
  2  8  1  0  0  0  0
  2 14  1  0  0  0  0
  2 15  1  0  0  0  0
  3  4  2  0  0  0  0
  3  8  1  0  0  0  0
  4  5  1  0  0  0  0
  4 21  1  0  0  0  0
  5  6  2  0  0  0  0
  6  7  1  0  0  0  0
  7  8  2  0  0  0  0
  9 10  2  0  0  0  0
  9 14  1  0  0  0  0
 10 11  1  0  0  0  0
 11 12  2  0  0  0  0
 12 13  1  0  0  0  0
 13 14  2  0  0  0  0
 15 16  1  0  0  0  0
 16 17  1  0  0  0  0
 17 18  1  0  0  0  0
 18 19  1  0  0  0  0
 18 20  1  0  0  0  0
 21 22  1  0  0  0  0
 21 23  2  0  0  0  0
M  CHG  1  18   1
M  END
>  <CHROM.1>
-68.16383710,174.20661055,-166.98389948,-149.24447819,-14.31974106,-23.63434107
7.16211022,7.17530065,-2.05366014,-0.10666055,-1.79572195

>  <Name>


>  <RI>
0

>  <Rbt.Current_Directory>
/home/itssahil/PROJECTS/Mol_Feturizer/New_Systems/rnas/1lvj

>  <Rbt.Executable>
rbdock ($Id: //depot/dev/client3/rdock/2013.1/src/exe/rbdock.cxx#4 $)

>  <Rbt.Library>
libRbt.so (2013.1, Build901 2013/11/27)

>  <Rbt.Parameter_File>
/export/apps/rDock/src/rDock_2013.1_src/data/scripts/dock_solv.prm

>  <Rbt.Receptor>
prm/pocket_docking_5.prm

>  <SCORE>
-25.166

>  <SCORE.INTER>
-22.8114

>  <SCORE.INTER.CONST>
1

>  <SCORE.INTER.POLAR>
0

>  <SCORE.INTER.ROT>
5

>  <SCORE.INTER.SOLV>
18.7142

>  <SCORE.INTER.VDW>
-28.379

>  <SCORE.INTER.norm>
-0.991802

>  <SCORE.INTRA>
-2.35456

>  <SCORE.INTRA.DIHEDRAL>
-1.13315

>  <SCORE.INTRA.DIHEDRAL.0>
8.06479

>  <SCORE.INTRA.POLAR>
0

>  <SCORE.INTRA.POLAR.0>
0

>  <SCORE.INTRA.REPUL>
0

>  <SCORE.INTRA.REPUL.0>
0

>  <SCORE.INTRA.SOLV>
0.764319

>  <SCORE.INTRA.SOLV.lig_0>
-29.8054

>  <SCORE.INTRA.VDW>
-2.17014

>  <SCORE.INTRA.VDW.0>
2.61447

>  <SCORE.INTRA.norm>
-0.102372

>  <SCORE.RESTR>
0

>  <SCORE.RESTR.CAVITY>
0

>  <SCORE.RESTR.norm>
0

>  <SCORE.SYSTEM>
0

>  <SCORE.SYSTEM.CONST>
0

>  <SCORE.SYSTEM.DIHEDRAL>
0

>  <SCORE.SYSTEM.SOLV>
0

>  <SCORE.SYSTEM.norm>
0

>  <SCORE.heavy>
23

>  <SCORE.norm>
-1.09417

>  <RMSD>
6.232

$$$$

 OpenBabel11021811403D
libRbt.so/2013.1/901 2013/11/27
 23 25  0  0  0  0  0  0  0  0999 V2000
  -25.6315    8.9933    8.1684 S   0  0  0  0  0  0  0  0  0  0  0  0
  -23.8193    7.7119    6.1826 N   0  0  0  0  0  0  0  0  0  0  0  0
  -25.4773    6.3098    5.1344 C   0  0  0  0  0  0  0  0  0  0  0  0
  -26.8090    5.8812    5.0570 C   0  0  0  0  0  0  0  0  0  0  0  0
  -27.7657    6.4070    5.9200 C   0  0  0  0  0  0  0  0  0  0  0  0
  -27.3986    7.3579    6.8660 C   0  0  0  0  0  0  0  0  0  0  0  0
  -26.0775    7.7894    6.9536 C   0  0  0  0  0  0  0  0  0  0  0  0
  -25.1080    7.2687    6.0882 C   0  0  0  0  0  0  0  0  0  0  0  0
  -24.1116    8.1645    8.5118 C   0  0  0  0  0  0  0  0  0  0  0  0
  -23.6498    8.0640    9.8274 C   0  0  0  0  0  0  0  0  0  0  0  0
  -22.4430    7.4112   10.0945 C   0  0  0  0  0  0  0  0  0  0  0  0
  -21.6996    6.8642    9.0437 C   0  0  0  0  0  0  0  0  0  0  0  0
  -22.1660    6.9687    7.7327 C   0  0  0  0  0  0  0  0  0  0  0  0
  -23.3660    7.6124    7.4640 C   0  0  0  0  0  0  0  0  0  0  0  0
  -22.8727    7.4995    5.0597 C   0  0  0  0  0  0  0  0  0  0  0  0
  -21.4415    8.1160    5.2064 C   0  0  0  0  0  0  0  0  0  0  0  0
  -20.3932    7.5026    4.2165 C   0  0  0  0  0  0  0  0  0  0  0  0
  -20.6619    7.6304    2.7614 N   0  3  0  0  0  0  0  0  0  0  0  0
  -21.6687    6.6376    2.3050 C   0  0  0  0  0  0  0  0  0  0  0  0
  -19.3836    7.5259    1.9757 C   0  0  0  0  0  0  0  0  0  0  0  0
  -27.2150    4.8478    4.0451 C   0  0  0  0  0  0  0  0  0  0  0  0
  -28.5600    4.1646    4.0967 C   0  0  0  0  0  0  0  0  0  0  0  0
  -26.4647    4.5914    3.1170 O   0  0  0  0  0  0  0  0  0  0  0  0
  1  7  1  0  0  0  0
  1  9  1  0  0  0  0
  2  8  1  0  0  0  0
  2 14  1  0  0  0  0
  2 15  1  0  0  0  0
  3  4  2  0  0  0  0
  3  8  1  0  0  0  0
  4  5  1  0  0  0  0
  4 21  1  0  0  0  0
  5  6  2  0  0  0  0
  6  7  1  0  0  0  0
  7  8  2  0  0  0  0
  9 10  2  0  0  0  0
  9 14  1  0  0  0  0
 10 11  1  0  0  0  0
 11 12  2  0  0  0  0
 12 13  1  0  0  0  0
 13 14  2  0  0  0  0
 15 16  1  0  0  0  0
 16 17  1  0  0  0  0
 17 18  1  0  0  0  0
 18 19  1  0  0  0  0
 18 20  1  0  0  0  0
 21 22  1  0  0  0  0
 21 23  2  0  0  0  0
M  CHG  1  18   1
M  END
>  <CHROM.1>
176.19436020,167.96357091,162.65501577,59.83529124,41.70568976,-24.12044428
7.10693311,5.91707942,-2.87688718,-0.26425433,-1.90454377

>  <Name>


>  <RI>
0

>  <Rbt.Current_Directory>
/home/itssahil/PROJECTS/Mol_Feturizer/New_Systems/rnas/1lvj

>  <Rbt.Executable>
rbdock ($Id: //depot/dev/client3/rdock/2013.1/src/exe/rbdock.cxx#4 $)

>  <Rbt.Library>
libRbt.so (2013.1, Build901 2013/11/27)

>  <Rbt.Parameter_File>
/export/apps/rDock/src/rDock_2013.1_src/data/scripts/dock_solv.prm

>  <Rbt.Receptor>
prm/blind_docking_100.prm

>  <SCORE>
2.32218

>  <SCORE.INTER>
4.05278

>  <SCORE.INTER.CONST>
1

>  <SCORE.INTER.POLAR>
0

>  <SCORE.INTER.ROT>
5

>  <SCORE.INTER.SOLV>
19.2363

>  <SCORE.INTER.VDW>
-10.6436

>  <SCORE.INTER.norm>
0.176208

>  <SCORE.INTRA>
-2.27623

>  <SCORE.INTRA.DIHEDRAL>
-5.09893

>  <SCORE.INTRA.DIHEDRAL.0>
8.06479

>  <SCORE.INTRA.POLAR>
0

>  <SCORE.INTRA.POLAR.0>
0

>  <SCORE.INTRA.REPUL>
0

>  <SCORE.INTRA.REPUL.0>
0

>  <SCORE.INTRA.SOLV>
1.52829

>  <SCORE.INTRA.SOLV.lig_0>
-29.8054

>  <SCORE.INTRA.VDW>
-0.490914

>  <SCORE.INTRA.VDW.0>
2.61447

>  <SCORE.INTRA.norm>
-0.0989666

>  <SCORE.RESTR>
0.545635

>  <SCORE.RESTR.CAVITY>
0.545635

>  <SCORE.RESTR.norm>
0.0237232

>  <SCORE.SYSTEM>
0

>  <SCORE.SYSTEM.CONST>
0

>  <SCORE.SYSTEM.DIHEDRAL>
0

>  <SCORE.SYSTEM.SOLV>
0

>  <SCORE.SYSTEM.norm>
0

>  <SCORE.heavy>
23

>  <SCORE.norm>
0.100964

>  <RMSD>
6.233

$$$$

 OpenBabel11021811403D
libRbt.so/2013.1/901 2013/11/27
 23 25  0  0  0  0  0  0  0  0999 V2000
  -25.3073    8.5661   10.1398 S   0  0  0  0  0  0  0  0  0  0  0  0
  -23.3363    8.1840    7.9402 N   0  0  0  0  0  0  0  0  0  0  0  0
  -24.8076    7.0176    6.4274 C   0  0  0  0  0  0  0  0  0  0  0  0
  -26.0791    6.4952    6.1564 C   0  0  0  0  0  0  0  0  0  0  0  0
  -27.1000    6.6138    7.0946 C   0  0  0  0  0  0  0  0  0  0  0  0
  -26.8569    7.2489    8.3076 C   0  0  0  0  0  0  0  0  0  0  0  0
  -25.5963    7.7696    8.5887 C   0  0  0  0  0  0  0  0  0  0  0  0
  -24.5632    7.6579    7.6504 C   0  0  0  0  0  0  0  0  0  0  0  0
  -23.7048    7.8396   10.2770 C   0  0  0  0  0  0  0  0  0  0  0  0
  -23.2486    7.3769   11.5148 C   0  0  0  0  0  0  0  0  0  0  0  0
  -21.9768    6.8067   11.6202 C   0  0  0  0  0  0  0  0  0  0  0  0
  -21.1632    6.7048   10.4871 C   0  0  0  0  0  0  0  0  0  0  0  0
  -21.6243    7.1693    9.2548 C   0  0  0  0  0  0  0  0  0  0  0  0
  -22.8884    7.7321    9.1454 C   0  0  0  0  0  0  0  0  0  0  0  0
  -22.3592    8.4421    6.8535 C   0  0  0  0  0  0  0  0  0  0  0  0
  -21.7560    7.1949    6.1251 C   0  0  0  0  0  0  0  0  0  0  0  0
  -20.8837    7.5628    4.8765 C   0  0  0  0  0  0  0  0  0  0  0  0
  -20.1420    6.4646    4.2059 N   0  3  0  0  0  0  0  0  0  0  0  0
  -18.6834    6.7432    4.1585 C   0  0  0  0  0  0  0  0  0  0  0  0
  -20.7029    6.2073    2.8343 C   0  0  0  0  0  0  0  0  0  0  0  0
  -26.3505    5.7993    4.8531 C   0  0  0  0  0  0  0  0  0  0  0  0
  -27.6294    5.0363    4.6062 C   0  0  0  0  0  0  0  0  0  0  0  0
  -25.5446    5.8991    3.9417 O   0  0  0  0  0  0  0  0  0  0  0  0
  1  7  1  0  0  0  0
  1  9  1  0  0  0  0
  2  8  1  0  0  0  0
  2 14  1  0  0  0  0
  2 15  1  0  0  0  0
  3  4  2  0  0  0  0
  3  8  1  0  0  0  0
  4  5  1  0  0  0  0
  4 21  1  0  0  0  0
  5  6  2  0  0  0  0
  6  7  1  0  0  0  0
  7  8  2  0  0  0  0
  9 10  2  0  0  0  0
  9 14  1  0  0  0  0
 10 11  1  0  0  0  0
 11 12  2  0  0  0  0
 12 13  1  0  0  0  0
 13 14  2  0  0  0  0
 15 16  1  0  0  0  0
 16 17  1  0  0  0  0
 17 18  1  0  0  0  0
 18 19  1  0  0  0  0
 18 20  1  0  0  0  0
 21 22  1  0  0  0  0
 21 23  2  0  0  0  0
M  CHG  1  18   1
M  END
>  <CHROM.1>
-67.95292214,170.22232452,172.45233901,173.28897447,-2.79305592,-23.61134182
7.12385178,7.30104446,-2.05885697,-0.07407196,-1.80464757

>  <Name>


>  <RI>
0

>  <Rbt.Current_Directory>
/home/itssahil/PROJECTS/Mol_Feturizer/New_Systems/rnas/1lvj

>  <Rbt.Executable>
rbdock ($Id: //depot/dev/client3/rdock/2013.1/src/exe/rbdock.cxx#4 $)

>  <Rbt.Library>
libRbt.so (2013.1, Build901 2013/11/27)

>  <Rbt.Parameter_File>
/export/apps/rDock/src/rDock_2013.1_src/data/scripts/dock_solv.prm

>  <Rbt.Receptor>
prm/pocket_docking_3.prm

>  <SCORE>
-29.6686

>  <SCORE.INTER>
-27.7261

>  <SCORE.INTER.CONST>
1

>  <SCORE.INTER.POLAR>
-1.23773

>  <SCORE.INTER.ROT>
5

>  <SCORE.INTER.SOLV>
20.688

>  <SCORE.INTER.VDW>
-28.1876

>  <SCORE.INTER.norm>
-1.20548

>  <SCORE.INTRA>
-3.55541

>  <SCORE.INTRA.DIHEDRAL>
-3.41172

>  <SCORE.INTRA.DIHEDRAL.0>
8.06479

>  <SCORE.INTRA.POLAR>
0

>  <SCORE.INTRA.POLAR.0>
0

>  <SCORE.INTRA.REPUL>
0

>  <SCORE.INTRA.REPUL.0>
0

>  <SCORE.INTRA.SOLV>
0.734179

>  <SCORE.INTRA.SOLV.lig_0>
-29.8054

>  <SCORE.INTRA.VDW>
-2.21663

>  <SCORE.INTRA.VDW.0>
2.61447

>  <SCORE.INTRA.norm>
-0.154583

>  <SCORE.RESTR>
1.61288

>  <SCORE.RESTR.CAVITY>
1.61288

>  <SCORE.RESTR.norm>
0.0701252

>  <SCORE.SYSTEM>
0

>  <SCORE.SYSTEM.CONST>
0

>  <SCORE.SYSTEM.DIHEDRAL>
0

>  <SCORE.SYSTEM.SOLV>
0

>  <SCORE.SYSTEM.norm>
0

>  <SCORE.heavy>
23

>  <SCORE.norm>
-1.28994

>  <RMSD>
6.233

$$$$

 OpenBabel11021811403D
libRbt.so/2013.1/901 2013/11/27
 23 25  0  0  0  0  0  0  0  0999 V2000
  -25.3624    8.3207   10.2550 S   0  0  0  0  0  0  0  0  0  0  0  0
  -23.2026    8.0454    8.2231 N   0  0  0  0  0  0  0  0  0  0  0  0
  -24.5662    7.1042    6.4713 C   0  0  0  0  0  0  0  0  0  0  0  0
  -25.8259    6.6762    6.0321 C   0  0  0  0  0  0  0  0  0  0  0  0
  -26.9282    6.7588    6.8775 C   0  0  0  0  0  0  0  0  0  0  0  0
  -26.7788    7.2636    8.1646 C   0  0  0  0  0  0  0  0  0  0  0  0
  -25.5310    7.6895    8.6127 C   0  0  0  0  0  0  0  0  0  0  0  0
  -24.4163    7.6132    7.7691 C   0  0  0  0  0  0  0  0  0  0  0  0
  -23.8135    7.5024   10.4697 C   0  0  0  0  0  0  0  0  0  0  0  0
  -23.5014    6.9025   11.6931 C   0  0  0  0  0  0  0  0  0  0  0  0
  -22.2715    6.2597   11.8606 C   0  0  0  0  0  0  0  0  0  0  0  0
  -21.3553    6.2228   10.8044 C   0  0  0  0  0  0  0  0  0  0  0  0
  -21.6729    6.8243    9.5861 C   0  0  0  0  0  0  0  0  0  0  0  0
  -22.8951    7.4597    9.4145 C   0  0  0  0  0  0  0  0  0  0  0  0
  -22.1133    8.3536    7.2636 C   0  0  0  0  0  0  0  0  0  0  0  0
  -21.8449    7.3092    6.1291 C   0  0  0  0  0  0  0  0  0  0  0  0
  -21.2305    7.9397    4.8329 C   0  0  0  0  0  0  0  0  0  0  0  0
  -21.1411    7.0812    3.6242 N   0  3  0  0  0  0  0  0  0  0  0  0
  -19.9004    6.2638    3.6284 C   0  0  0  0  0  0  0  0  0  0  0  0
  -21.2546    7.9115    2.3754 C   0  0  0  0  0  0  0  0  0  0  0  0
  -25.9971    6.1208    4.6469 C   0  0  0  0  0  0  0  0  0  0  0  0
  -24.8373    5.9904    3.6897 C   0  0  0  0  0  0  0  0  0  0  0  0
  -27.0911    5.7055    4.2991 O   0  0  0  0  0  0  0  0  0  0  0  0
  1  7  1  0  0  0  0
  1  9  1  0  0  0  0
  2  8  1  0  0  0  0
  2 14  1  0  0  0  0
  2 15  1  0  0  0  0
  3  4  2  0  0  0  0
  3  8  1  0  0  0  0
  4  5  1  0  0  0  0
  4 21  1  0  0  0  0
  5  6  2  0  0  0  0
  6  7  1  0  0  0  0
  7  8  2  0  0  0  0
  9 10  2  0  0  0  0
  9 14  1  0  0  0  0
 10 11  1  0  0  0  0
 11 12  2  0  0  0  0
 12 13  1  0  0  0  0
 13 14  2  0  0  0  0
 15 16  1  0  0  0  0
 16 17  1  0  0  0  0
 17 18  1  0  0  0  0
 18 19  1  0  0  0  0
 18 20  1  0  0  0  0
 21 22  1  0  0  0  0
 21 23  2  0  0  0  0
M  CHG  1  18   1
M  END
>  <CHROM.1>
-46.55253635,0.56406511,152.58124290,-170.36021803,34.57708845,-23.68153918
7.15853069,7.28186406,1.75849452,0.06116219,1.48964584

>  <Name>


>  <RI>
0

>  <Rbt.Current_Directory>
/home/itssahil/PROJECTS/Mol_Feturizer/New_Systems/rnas/1lvj

>  <Rbt.Executable>
rbdock ($Id: //depot/dev/client3/rdock/2013.1/src/exe/rbdock.cxx#4 $)

>  <Rbt.Library>
libRbt.so (2013.1, Build901 2013/11/27)

>  <Rbt.Parameter_File>
/export/apps/rDock/src/rDock_2013.1_src/data/scripts/dock_solv.prm

>  <Rbt.Receptor>
prm/pocket_docking_3.prm

>  <SCORE>
-24.3674

>  <SCORE.INTER>
-23.6813

>  <SCORE.INTER.CONST>
1

>  <SCORE.INTER.POLAR>
-0.0653847

>  <SCORE.INTER.ROT>
5

>  <SCORE.INTER.SOLV>
16.2418

>  <SCORE.INTER.VDW>
-27.9168

>  <SCORE.INTER.norm>
-1.02962

>  <SCORE.INTRA>
-0.962821

>  <SCORE.INTRA.DIHEDRAL>
-2.85796

>  <SCORE.INTRA.DIHEDRAL.0>
8.06479

>  <SCORE.INTRA.POLAR>
0

>  <SCORE.INTRA.POLAR.0>
0

>  <SCORE.INTRA.REPUL>
0

>  <SCORE.INTRA.REPUL.0>
0

>  <SCORE.INTRA.SOLV>
2.46495

>  <SCORE.INTRA.SOLV.lig_0>
-29.8054

>  <SCORE.INTRA.VDW>
-0.766318

>  <SCORE.INTRA.VDW.0>
2.61447

>  <SCORE.INTRA.norm>
-0.0418618

>  <SCORE.RESTR>
0.276701

>  <SCORE.RESTR.CAVITY>
0.276701

>  <SCORE.RESTR.norm>
0.0120305

>  <SCORE.SYSTEM>
0

>  <SCORE.SYSTEM.CONST>
0

>  <SCORE.SYSTEM.DIHEDRAL>
0

>  <SCORE.SYSTEM.SOLV>
0

>  <SCORE.SYSTEM.norm>
0

>  <SCORE.heavy>
23

>  <SCORE.norm>
-1.05945

>  <RMSD>
6.237

$$$$

 OpenBabel11021811403D
libRbt.so/2013.1/901 2013/11/27
 23 25  0  0  0  0  0  0  0  0999 V2000
  -25.3501    8.5458    9.9021 S   0  0  0  0  0  0  0  0  0  0  0  0
  -23.1761    8.0955    7.9171 N   0  0  0  0  0  0  0  0  0  0  0  0
  -24.5362    7.0453    6.2257 C   0  0  0  0  0  0  0  0  0  0  0  0
  -25.7975    6.6019    5.8066 C   0  0  0  0  0  0  0  0  0  0  0  0
  -26.9061    6.7599    6.6328 C   0  0  0  0  0  0  0  0  0  0  0  0
  -26.7615    7.3558    7.8810 C   0  0  0  0  0  0  0  0  0  0  0  0
  -25.5123    7.7980    8.3089 C   0  0  0  0  0  0  0  0  0  0  0  0
  -24.3913    7.6462    7.4841 C   0  0  0  0  0  0  0  0  0  0  0  0
  -23.8139    7.7263   10.1913 C   0  0  0  0  0  0  0  0  0  0  0  0
  -23.5206    7.2138   11.4584 C   0  0  0  0  0  0  0  0  0  0  0  0
  -22.3007    6.5700   11.6846 C   0  0  0  0  0  0  0  0  0  0  0  0
  -21.3758    6.4443   10.6429 C   0  0  0  0  0  0  0  0  0  0  0  0
  -21.6747    6.9588    9.3808 C   0  0  0  0  0  0  0  0  0  0  0  0
  -22.8868    7.5950    9.1512 C   0  0  0  0  0  0  0  0  0  0  0  0
  -22.0744    8.3190    6.9484 C   0  0  0  0  0  0  0  0  0  0  0  0
  -21.7773    7.1700    5.9279 C   0  0  0  0  0  0  0  0  0  0  0  0
  -20.4499    7.3787    5.1219 C   0  0  0  0  0  0  0  0  0  0  0  0
  -20.5553    7.5373    3.6490 N   0  3  0  0  0  0  0  0  0  0  0  0
  -21.4312    8.6814    3.2865 C   0  0  0  0  0  0  0  0  0  0  0  0
  -21.0212    6.2576    3.0106 C   0  0  0  0  0  0  0  0  0  0  0  0
  -25.9637    5.9486    4.4642 C   0  0  0  0  0  0  0  0  0  0  0  0
  -24.8240    5.8451    3.4797 C   0  0  0  0  0  0  0  0  0  0  0  0
  -27.0316    5.4313    4.1779 O   0  0  0  0  0  0  0  0  0  0  0  0
  1  7  1  0  0  0  0
  1  9  1  0  0  0  0
  2  8  1  0  0  0  0
  2 14  1  0  0  0  0
  2 15  1  0  0  0  0
  3  4  2  0  0  0  0
  3  8  1  0  0  0  0
  4  5  1  0  0  0  0
  4 21  1  0  0  0  0
  5  6  2  0  0  0  0
  6  7  1  0  0  0  0
  7  8  2  0  0  0  0
  9 10  2  0  0  0  0
  9 14  1  0  0  0  0
 10 11  1  0  0  0  0
 11 12  2  0  0  0  0
 12 13  1  0  0  0  0
 13 14  2  0  0  0  0
 15 16  1  0  0  0  0
 16 17  1  0  0  0  0
 17 18  1  0  0  0  0
 18 19  1  0  0  0  0
 18 20  1  0  0  0  0
 21 22  1  0  0  0  0
 21 23  2  0  0  0  0
M  CHG  1  18   1
M  END
>  <CHROM.1>
-48.60549539,-5.03471501,-169.68590595,-117.07789802,177.60858305,-23.66103037
7.23912623,7.10430106,1.72221676,0.11542103,1.44634657

>  <Name>


>  <RI>
0

>  <Rbt.Current_Directory>
/home/itssahil/PROJECTS/Mol_Feturizer/New_Systems/rnas/1lvj

>  <Rbt.Executable>
rbdock ($Id: //depot/dev/client3/rdock/2013.1/src/exe/rbdock.cxx#4 $)

>  <Rbt.Library>
libRbt.so (2013.1, Build901 2013/11/27)

>  <Rbt.Parameter_File>
/export/apps/rDock/src/rDock_2013.1_src/data/scripts/dock_solv.prm

>  <Rbt.Receptor>
prm/pocket_docking_3.prm

>  <SCORE>
-19.7113

>  <SCORE.INTER>
-19.2282

>  <SCORE.INTER.CONST>
1

>  <SCORE.INTER.POLAR>
0

>  <SCORE.INTER.ROT>
5

>  <SCORE.INTER.SOLV>
18.5149

>  <SCORE.INTER.VDW>
-25.9238

>  <SCORE.INTER.norm>
-0.836008

>  <SCORE.INTRA>
-0.57519

>  <SCORE.INTRA.DIHEDRAL>
-1.11578

>  <SCORE.INTRA.DIHEDRAL.0>
8.06479

>  <SCORE.INTRA.POLAR>
0

>  <SCORE.INTRA.POLAR.0>
0

>  <SCORE.INTRA.REPUL>
0

>  <SCORE.INTRA.REPUL.0>
0

>  <SCORE.INTRA.SOLV>
-0.613463

>  <SCORE.INTRA.SOLV.lig_0>
-29.8054

>  <SCORE.INTRA.VDW>
0.289429

>  <SCORE.INTRA.VDW.0>
2.61447

>  <SCORE.INTRA.norm>
-0.0250083

>  <SCORE.RESTR>
0.0920751

>  <SCORE.RESTR.CAVITY>
0.0920751

>  <SCORE.RESTR.norm>
0.00400327

>  <SCORE.SYSTEM>
0

>  <SCORE.SYSTEM.CONST>
0

>  <SCORE.SYSTEM.DIHEDRAL>
0

>  <SCORE.SYSTEM.SOLV>
0

>  <SCORE.SYSTEM.norm>
0

>  <SCORE.heavy>
23

>  <SCORE.norm>
-0.857013

>  <RMSD>
6.238

$$$$

 OpenBabel11021811403D
libRbt.so/2013.1/901 2013/11/27
 23 25  0  0  0  0  0  0  0  0999 V2000
  -24.3027    8.8220   11.5230 S   0  0  0  0  0  0  0  0  0  0  0  0
  -22.6643    7.5564    9.3823 N   0  0  0  0  0  0  0  0  0  0  0  0
  -24.5001    6.8416    7.9919 C   0  0  0  0  0  0  0  0  0  0  0  0
  -25.8822    6.7772    7.7712 C   0  0  0  0  0  0  0  0  0  0  0  0
  -26.7652    7.3393    8.6882 C   0  0  0  0  0  0  0  0  0  0  0  0
  -26.2751    7.9632    9.8302 C   0  0  0  0  0  0  0  0  0  0  0  0
  -24.9035    8.0309   10.0611 C   0  0  0  0  0  0  0  0  0  0  0  0
  -24.0066    7.4710    9.1434 C   0  0  0  0  0  0  0  0  0  0  0  0
  -23.0537    7.5943   11.7407 C   0  0  0  0  0  0  0  0  0  0  0  0
  -22.7488    7.1240   13.0213 C   0  0  0  0  0  0  0  0  0  0  0  0
  -21.7554    6.1552   13.1899 C   0  0  0  0  0  0  0  0  0  0  0  0
  -21.0668    5.6627   12.0765 C   0  0  0  0  0  0  0  0  0  0  0  0
  -21.3756    6.1370   10.8011 C   0  0  0  0  0  0  0  0  0  0  0  0
  -22.3645    7.0958   10.6293 C   0  0  0  0  0  0  0  0  0  0  0  0
  -21.6949    7.3458    8.2786 C   0  0  0  0  0  0  0  0  0  0  0  0
  -22.1072    7.8598    6.8588 C   0  0  0  0  0  0  0  0  0  0  0  0
  -21.1611    7.3589    5.7146 C   0  0  0  0  0  0  0  0  0  0  0  0
  -21.5522    7.6621    4.3143 N   0  3  0  0  0  0  0  0  0  0  0  0
  -22.7639    6.9024    3.9115 C   0  0  0  0  0  0  0  0  0  0  0  0
  -20.4028    7.4113    3.3773 C   0  0  0  0  0  0  0  0  0  0  0  0
  -26.4230    6.0977    6.5456 C   0  0  0  0  0  0  0  0  0  0  0  0
  -25.9996    6.5037    5.1547 C   0  0  0  0  0  0  0  0  0  0  0  0
  -27.1816    5.1496    6.6719 O   0  0  0  0  0  0  0  0  0  0  0  0
  1  7  1  0  0  0  0
  1  9  1  0  0  0  0
  2  8  1  0  0  0  0
  2 14  1  0  0  0  0
  2 15  1  0  0  0  0
  3  4  2  0  0  0  0
  3  8  1  0  0  0  0
  4  5  1  0  0  0  0
  4 21  1  0  0  0  0
  5  6  2  0  0  0  0
  6  7  1  0  0  0  0
  7  8  2  0  0  0  0
  9 10  2  0  0  0  0
  9 14  1  0  0  0  0
 10 11  1  0  0  0  0
 11 12  2  0  0  0  0
 12 13  1  0  0  0  0
 13 14  2  0  0  0  0
 15 16  1  0  0  0  0
 16 17  1  0  0  0  0
 17 18  1  0  0  0  0
 18 19  1  0  0  0  0
 18 20  1  0  0  0  0
 21 22  1  0  0  0  0
 21 23  2  0  0  0  0
M  CHG  1  18   1
M  END
>  <CHROM.1>
35.49774986,-55.89025893,-168.96699310,173.21524738,51.38039478,-23.54173463
7.17228251,8.57308386,1.56119465,0.05189699,1.52620896

>  <Name>


>  <RI>
0

>  <Rbt.Current_Directory>
/home/itssahil/PROJECTS/Mol_Feturizer/New_Systems/rnas/1lvj

>  <Rbt.Executable>
rbdock ($Id: //depot/dev/client3/rdock/2013.1/src/exe/rbdock.cxx#4 $)

>  <Rbt.Library>
libRbt.so (2013.1, Build901 2013/11/27)

>  <Rbt.Parameter_File>
/export/apps/rDock/src/rDock_2013.1_src/data/scripts/dock_solv.prm

>  <Rbt.Receptor>
prm/pocket_docking_4.prm

>  <SCORE>
-26.13

>  <SCORE.INTER>
-25.6266

>  <SCORE.INTER.CONST>
1

>  <SCORE.INTER.POLAR>
-0.105397

>  <SCORE.INTER.ROT>
5

>  <SCORE.INTER.SOLV>
17.5335

>  <SCORE.INTER.VDW>
-29.5109

>  <SCORE.INTER.norm>
-1.1142

>  <SCORE.INTRA>
-0.503382

>  <SCORE.INTRA.DIHEDRAL>
2.34467

>  <SCORE.INTRA.DIHEDRAL.0>
8.06479

>  <SCORE.INTRA.POLAR>
0

>  <SCORE.INTRA.POLAR.0>
0

>  <SCORE.INTRA.REPUL>
0

>  <SCORE.INTRA.REPUL.0>
0

>  <SCORE.INTRA.SOLV>
0.313751

>  <SCORE.INTRA.SOLV.lig_0>
-29.8054

>  <SCORE.INTRA.VDW>
-1.83259

>  <SCORE.INTRA.VDW.0>
2.61447

>  <SCORE.INTRA.norm>
-0.0218862

>  <SCORE.RESTR>
0

>  <SCORE.RESTR.CAVITY>
0

>  <SCORE.RESTR.norm>
0

>  <SCORE.SYSTEM>
0

>  <SCORE.SYSTEM.CONST>
0

>  <SCORE.SYSTEM.DIHEDRAL>
0

>  <SCORE.SYSTEM.SOLV>
0

>  <SCORE.SYSTEM.norm>
0

>  <SCORE.heavy>
23

>  <SCORE.norm>
-1.13609

>  <RMSD>
6.242

$$$$

 OpenBabel11021811403D
libRbt.so/2013.1/901 2013/11/27
 23 25  0  0  0  0  0  0  0  0999 V2000
  -25.4647    8.7187    9.5949 S   0  0  0  0  0  0  0  0  0  0  0  0
  -23.4492    8.1270    7.4838 N   0  0  0  0  0  0  0  0  0  0  0  0
  -24.8999    6.8481    6.0436 C   0  0  0  0  0  0  0  0  0  0  0  0
  -26.1712    6.3169    5.7891 C   0  0  0  0  0  0  0  0  0  0  0  0
  -27.2115    6.5269    6.6892 C   0  0  0  0  0  0  0  0  0  0  0  0
  -26.9882    7.2626    7.8479 C   0  0  0  0  0  0  0  0  0  0  0  0
  -25.7281    7.7931    8.1124 C   0  0  0  0  0  0  0  0  0  0  0  0
  -24.6755    7.5900    7.2119 C   0  0  0  0  0  0  0  0  0  0  0  0
  -23.8745    7.9908    9.8323 C   0  0  0  0  0  0  0  0  0  0  0  0
  -23.4520    7.6331   11.1160 C   0  0  0  0  0  0  0  0  0  0  0  0
  -22.1898    7.0615   11.3003 C   0  0  0  0  0  0  0  0  0  0  0  0
  -21.3520    6.8533   10.1998 C   0  0  0  0  0  0  0  0  0  0  0  0
  -21.7797    7.2134    8.9213 C   0  0  0  0  0  0  0  0  0  0  0  0
  -23.0341    7.7772    8.7337 C   0  0  0  0  0  0  0  0  0  0  0  0
  -22.4449    8.2798    6.4020 C   0  0  0  0  0  0  0  0  0  0  0  0
  -21.6422    7.0016    5.9877 C   0  0  0  0  0  0  0  0  0  0  0  0
  -20.3889    7.3122    5.1000 C   0  0  0  0  0  0  0  0  0  0  0  0
  -20.5201    7.1255    3.6324 N   0  3  0  0  0  0  0  0  0  0  0  0
  -19.2097    6.8161    3.0042 C   0  0  0  0  0  0  0  0  0  0  0  0
  -21.1681    8.3273    3.0016 C   0  0  0  0  0  0  0  0  0  0  0  0
  -26.4214    5.5129    4.5451 C   0  0  0  0  0  0  0  0  0  0  0  0
  -27.7275    4.7944    4.3076 C   0  0  0  0  0  0  0  0  0  0  0  0
  -25.5713    5.4842    3.6695 O   0  0  0  0  0  0  0  0  0  0  0  0
  1  7  1  0  0  0  0
  1  9  1  0  0  0  0
  2  8  1  0  0  0  0
  2 14  1  0  0  0  0
  2 15  1  0  0  0  0
  3  4  2  0  0  0  0
  3  8  1  0  0  0  0
  4  5  1  0  0  0  0
  4 21  1  0  0  0  0
  5  6  2  0  0  0  0
  6  7  1  0  0  0  0
  7  8  2  0  0  0  0
  9 10  2  0  0  0  0
  9 14  1  0  0  0  0
 10 11  1  0  0  0  0
 11 12  2  0  0  0  0
 12 13  1  0  0  0  0
 13 14  2  0  0  0  0
 15 16  1  0  0  0  0
 16 17  1  0  0  0  0
 17 18  1  0  0  0  0
 18 19  1  0  0  0  0
 18 20  1  0  0  0  0
 21 22  1  0  0  0  0
 21 23  2  0  0  0  0
M  CHG  1  18   1
M  END
>  <CHROM.1>
-79.31330082,173.00550813,-166.29007275,-99.49306992,-32.93027483,-23.74941873
7.21714086,6.91912995,-2.05781770,-0.16767109,-1.79507250

>  <Name>


>  <RI>
0

>  <Rbt.Current_Directory>
/home/itssahil/PROJECTS/Mol_Feturizer/New_Systems/rnas/1lvj

>  <Rbt.Executable>
rbdock ($Id: //depot/dev/client3/rdock/2013.1/src/exe/rbdock.cxx#4 $)

>  <Rbt.Library>
libRbt.so (2013.1, Build901 2013/11/27)

>  <Rbt.Parameter_File>
/export/apps/rDock/src/rDock_2013.1_src/data/scripts/dock_solv.prm

>  <Rbt.Receptor>
prm/blind_docking_100.prm

>  <SCORE>
-20.8735

>  <SCORE.INTER>
-19.8298

>  <SCORE.INTER.CONST>
1

>  <SCORE.INTER.POLAR>
0

>  <SCORE.INTER.ROT>
5

>  <SCORE.INTER.SOLV>
17.469

>  <SCORE.INTER.VDW>
-25.9762

>  <SCORE.INTER.norm>
-0.862165

>  <SCORE.INTRA>
-1.99228

>  <SCORE.INTRA.DIHEDRAL>
-1.34046

>  <SCORE.INTRA.DIHEDRAL.0>
8.06479

>  <SCORE.INTRA.POLAR>
0

>  <SCORE.INTRA.POLAR.0>
0

>  <SCORE.INTRA.REPUL>
0

>  <SCORE.INTRA.REPUL.0>
0

>  <SCORE.INTRA.SOLV>
1.02528

>  <SCORE.INTRA.SOLV.lig_0>
-29.8054

>  <SCORE.INTRA.VDW>
-1.8347

>  <SCORE.INTRA.VDW.0>
2.61447

>  <SCORE.INTRA.norm>
-0.0866211

>  <SCORE.RESTR>
0.948585

>  <SCORE.RESTR.CAVITY>
0.948585

>  <SCORE.RESTR.norm>
0.0412428

>  <SCORE.SYSTEM>
0

>  <SCORE.SYSTEM.CONST>
0

>  <SCORE.SYSTEM.DIHEDRAL>
0

>  <SCORE.SYSTEM.SOLV>
0

>  <SCORE.SYSTEM.norm>
0

>  <SCORE.heavy>
23

>  <SCORE.norm>
-0.907543

>  <RMSD>
6.243

$$$$

 OpenBabel11021811403D
libRbt.so/2013.1/901 2013/11/27
 23 25  0  0  0  0  0  0  0  0999 V2000
  -25.4669    8.6519    9.7445 S   0  0  0  0  0  0  0  0  0  0  0  0
  -23.4381    8.1637    7.6196 N   0  0  0  0  0  0  0  0  0  0  0  0
  -24.8655    6.9116    6.1335 C   0  0  0  0  0  0  0  0  0  0  0  0
  -26.1277    6.3693    5.8580 C   0  0  0  0  0  0  0  0  0  0  0  0
  -27.1730    6.5323    6.7620 C   0  0  0  0  0  0  0  0  0  0  0  0
  -26.9637    7.2318    7.9455 C   0  0  0  0  0  0  0  0  0  0  0  0
  -25.7127    7.7730    8.2309 C   0  0  0  0  0  0  0  0  0  0  0  0
  -24.6552    7.6169    7.3267 C   0  0  0  0  0  0  0  0  0  0  0  0
  -23.8658    7.9416    9.9612 C   0  0  0  0  0  0  0  0  0  0  0  0
  -23.4403    7.5474   11.2331 C   0  0  0  0  0  0  0  0  0  0  0  0
  -22.1695    6.9899   11.4012 C   0  0  0  0  0  0  0  0  0  0  0  0
  -21.3264    6.8323   10.2964 C   0  0  0  0  0  0  0  0  0  0  0  0
  -21.7572    7.2286    9.0298 C   0  0  0  0  0  0  0  0  0  0  0  0
  -23.0200    7.7785    8.8582 C   0  0  0  0  0  0  0  0  0  0  0  0
  -22.4342    8.3688    6.5462 C   0  0  0  0  0  0  0  0  0  0  0  0
  -21.8187    7.0878    5.8905 C   0  0  0  0  0  0  0  0  0  0  0  0
  -20.4886    7.3641    5.1096 C   0  0  0  0  0  0  0  0  0  0  0  0
  -20.2889    6.6599    3.8172 N   0  3  0  0  0  0  0  0  0  0  0  0
  -18.8526    6.3688    3.5729 C   0  0  0  0  0  0  0  0  0  0  0  0
  -20.8962    7.4448    2.6872 C   0  0  0  0  0  0  0  0  0  0  0  0
  -26.3627    5.6040    4.5869 C   0  0  0  0  0  0  0  0  0  0  0  0
  -27.6478    4.8543    4.3319 C   0  0  0  0  0  0  0  0  0  0  0  0
  -25.5190    5.6338    3.7052 O   0  0  0  0  0  0  0  0  0  0  0  0
  1  7  1  0  0  0  0
  1  9  1  0  0  0  0
  2  8  1  0  0  0  0
  2 14  1  0  0  0  0
  2 15  1  0  0  0  0
  3  4  2  0  0  0  0
  3  8  1  0  0  0  0
  4  5  1  0  0  0  0
  4 21  1  0  0  0  0
  5  6  2  0  0  0  0
  6  7  1  0  0  0  0
  7  8  2  0  0  0  0
  9 10  2  0  0  0  0
  9 14  1  0  0  0  0
 10 11  1  0  0  0  0
 11 12  2  0  0  0  0
 12 13  1  0  0  0  0
 13 14  2  0  0  0  0
 15 16  1  0  0  0  0
 16 17  1  0  0  0  0
 17 18  1  0  0  0  0
 18 19  1  0  0  0  0
 18 20  1  0  0  0  0
 21 22  1  0  0  0  0
 21 23  2  0  0  0  0
M  CHG  1  18   1
M  END
>  <CHROM.1>
-67.33935975,171.96077245,-162.25450265,-139.80056664,-27.90956991,-23.70150144
7.14800686,7.01471141,-2.07845636,-0.11116587,-1.81580229

>  <Name>


>  <RI>
0

>  <Rbt.Current_Directory>
/home/itssahil/PROJECTS/Mol_Feturizer/New_Systems/rnas/1lvj

>  <Rbt.Executable>
rbdock ($Id: //depot/dev/client3/rdock/2013.1/src/exe/rbdock.cxx#4 $)

>  <Rbt.Library>
libRbt.so (2013.1, Build901 2013/11/27)

>  <Rbt.Parameter_File>
/export/apps/rDock/src/rDock_2013.1_src/data/scripts/dock_solv.prm

>  <Rbt.Receptor>
prm/blind_docking_100.prm

>  <SCORE>
-23.2441

>  <SCORE.INTER>
-22.3706

>  <SCORE.INTER.CONST>
1

>  <SCORE.INTER.POLAR>
0

>  <SCORE.INTER.ROT>
5

>  <SCORE.INTER.SOLV>
18.8765

>  <SCORE.INTER.VDW>
-28.1392

>  <SCORE.INTER.norm>
-0.972636

>  <SCORE.INTRA>
-1.99202

>  <SCORE.INTRA.DIHEDRAL>
-0.346752

>  <SCORE.INTRA.DIHEDRAL.0>
8.06479

>  <SCORE.INTRA.POLAR>
0

>  <SCORE.INTRA.POLAR.0>
0

>  <SCORE.INTRA.REPUL>
0

>  <SCORE.INTRA.REPUL.0>
0

>  <SCORE.INTRA.SOLV>
0.688679

>  <SCORE.INTRA.SOLV.lig_0>
-29.8054

>  <SCORE.INTRA.VDW>
-2.16299

>  <SCORE.INTRA.VDW.0>
2.61447

>  <SCORE.INTRA.norm>
-0.0866098

>  <SCORE.RESTR>
1.11858

>  <SCORE.RESTR.CAVITY>
1.11858

>  <SCORE.RESTR.norm>
0.0486339

>  <SCORE.SYSTEM>
0

>  <SCORE.SYSTEM.CONST>
0

>  <SCORE.SYSTEM.DIHEDRAL>
0

>  <SCORE.SYSTEM.SOLV>
0

>  <SCORE.SYSTEM.norm>
0

>  <SCORE.heavy>
23

>  <SCORE.norm>
-1.01061

>  <RMSD>
6.246

$$$$

 OpenBabel11021811403D
libRbt.so/2013.1/901 2013/11/27
 23 25  0  0  0  0  0  0  0  0999 V2000
  -25.6254    8.9930    8.1187 S   0  0  0  0  0  0  0  0  0  0  0  0
  -23.8401    7.7147    6.1067 N   0  0  0  0  0  0  0  0  0  0  0  0
  -25.5085    6.3017    5.0899 C   0  0  0  0  0  0  0  0  0  0  0  0
  -26.8392    5.8665    5.0358 C   0  0  0  0  0  0  0  0  0  0  0  0
  -27.7840    6.3902    5.9131 C   0  0  0  0  0  0  0  0  0  0  0  0
  -27.4059    7.3455    6.8502 C   0  0  0  0  0  0  0  0  0  0  0  0
  -26.0856    7.7835    6.9147 C   0  0  0  0  0  0  0  0  0  0  0  0
  -25.1280    7.2650    6.0348 C   0  0  0  0  0  0  0  0  0  0  0  0
  -24.0961    8.1724    8.4391 C   0  0  0  0  0  0  0  0  0  0  0  0
  -23.6120    8.0779    9.7472 C   0  0  0  0  0  0  0  0  0  0  0  0
  -22.3979    7.4316    9.9961 C   0  0  0  0  0  0  0  0  0  0  0  0
  -21.6693    6.8852    8.9345 C   0  0  0  0  0  0  0  0  0  0  0  0
  -22.1578    6.9837    7.6312 C   0  0  0  0  0  0  0  0  0  0  0  0
  -23.3653    7.6209    7.3806 C   0  0  0  0  0  0  0  0  0  0  0  0
  -22.9112    7.5037    4.9688 C   0  0  0  0  0  0  0  0  0  0  0  0
  -21.7763    8.5628    4.7681 C   0  0  0  0  0  0  0  0  0  0  0  0
  -20.9674    8.3667    3.4406 C   0  0  0  0  0  0  0  0  0  0  0  0
  -20.4333    7.0112    3.1524 N   0  3  0  0  0  0  0  0  0  0  0  0
  -19.6661    6.4726    4.3053 C   0  0  0  0  0  0  0  0  0  0  0  0
  -19.6093    7.0231    1.8943 C   0  0  0  0  0  0  0  0  0  0  0  0
  -27.2569    4.8284    4.0336 C   0  0  0  0  0  0  0  0  0  0  0  0
  -28.6080    4.1581    4.0938 C   0  0  0  0  0  0  0  0  0  0  0  0
  -26.5110    4.5572    3.1061 O   0  0  0  0  0  0  0  0  0  0  0  0
  1  7  1  0  0  0  0
  1  9  1  0  0  0  0
  2  8  1  0  0  0  0
  2 14  1  0  0  0  0
  2 15  1  0  0  0  0
  3  4  2  0  0  0  0
  3  8  1  0  0  0  0
  4  5  1  0  0  0  0
  4 21  1  0  0  0  0
  5  6  2  0  0  0  0
  6  7  1  0  0  0  0
  7  8  2  0  0  0  0
  9 10  2  0  0  0  0
  9 14  1  0  0  0  0
 10 11  1  0  0  0  0
 11 12  2  0  0  0  0
 12 13  1  0  0  0  0
 13 14  2  0  0  0  0
 15 16  1  0  0  0  0
 16 17  1  0  0  0  0
 17 18  1  0  0  0  0
 18 19  1  0  0  0  0
 18 20  1  0  0  0  0
 21 22  1  0  0  0  0
 21 23  2  0  0  0  0
M  CHG  1  18   1
M  END
>  <CHROM.1>
150.61045246,169.16182340,-172.30081496,-50.49107964,68.66996786,-24.07551095
7.09786472,5.92998272,-3.01552654,-0.23250100,-1.94623023

>  <Name>


>  <RI>
0

>  <Rbt.Current_Directory>
/home/itssahil/PROJECTS/Mol_Feturizer/New_Systems/rnas/1lvj

>  <Rbt.Executable>
rbdock ($Id: //depot/dev/client3/rdock/2013.1/src/exe/rbdock.cxx#4 $)

>  <Rbt.Library>
libRbt.so (2013.1, Build901 2013/11/27)

>  <Rbt.Parameter_File>
/export/apps/rDock/src/rDock_2013.1_src/data/scripts/dock_solv.prm

>  <Rbt.Receptor>
prm/blind_docking_100.prm

>  <SCORE>
1.51542

>  <SCORE.INTER>
4.75226

>  <SCORE.INTER.CONST>
1

>  <SCORE.INTER.POLAR>
0

>  <SCORE.INTER.ROT>
5

>  <SCORE.INTER.SOLV>
19.0773

>  <SCORE.INTER.VDW>
-10.1242

>  <SCORE.INTER.norm>
0.20662

>  <SCORE.INTRA>
-3.77806

>  <SCORE.INTRA.DIHEDRAL>
-6.15673

>  <SCORE.INTRA.DIHEDRAL.0>
8.06479

>  <SCORE.INTRA.POLAR>
0

>  <SCORE.INTRA.POLAR.0>
0

>  <SCORE.INTRA.REPUL>
0

>  <SCORE.INTRA.REPUL.0>
0

>  <SCORE.INTRA.SOLV>
1.7655

>  <SCORE.INTRA.SOLV.lig_0>
-29.8054

>  <SCORE.INTRA.VDW>
-1.58244

>  <SCORE.INTRA.VDW.0>
2.61447

>  <SCORE.INTRA.norm>
-0.164263

>  <SCORE.RESTR>
0.541215

>  <SCORE.RESTR.CAVITY>
0.541215

>  <SCORE.RESTR.norm>
0.0235311

>  <SCORE.SYSTEM>
0

>  <SCORE.SYSTEM.CONST>
0

>  <SCORE.SYSTEM.DIHEDRAL>
0

>  <SCORE.SYSTEM.SOLV>
0

>  <SCORE.SYSTEM.norm>
0

>  <SCORE.heavy>
23

>  <SCORE.norm>
0.0658878

>  <RMSD>
6.247

$$$$

 OpenBabel11021811403D
libRbt.so/2013.1/901 2013/11/27
 23 25  0  0  0  0  0  0  0  0999 V2000
  -24.6045    8.7195   11.1701 S   0  0  0  0  0  0  0  0  0  0  0  0
  -22.6836    7.6334    9.1701 N   0  0  0  0  0  0  0  0  0  0  0  0
  -24.3137    7.0102    7.5062 C   0  0  0  0  0  0  0  0  0  0  0  0
  -25.6550    6.9510    7.1054 C   0  0  0  0  0  0  0  0  0  0  0  0
  -26.6578    7.4345    7.9403 C   0  0  0  0  0  0  0  0  0  0  0  0
  -26.3289    7.9744    9.1789 C   0  0  0  0  0  0  0  0  0  0  0  0
  -24.9994    8.0361    9.5886 C   0  0  0  0  0  0  0  0  0  0  0  0
  -23.9827    7.5549    8.7550 C   0  0  0  0  0  0  0  0  0  0  0  0
  -23.3714    7.4894   11.4551 C   0  0  0  0  0  0  0  0  0  0  0  0
  -23.2239    6.9262   12.7261 C   0  0  0  0  0  0  0  0  0  0  0  0
  -22.2427    5.9559   12.9489 C   0  0  0  0  0  0  0  0  0  0  0  0
  -21.4088    5.5550   11.9000 C   0  0  0  0  0  0  0  0  0  0  0  0
  -21.5609    6.1218   10.6341 C   0  0  0  0  0  0  0  0  0  0  0  0
  -22.5370    7.0824   10.4078 C   0  0  0  0  0  0  0  0  0  0  0  0
  -21.5777    7.5152    8.1877 C   0  0  0  0  0  0  0  0  0  0  0  0
  -21.8854    7.9378    6.7124 C   0  0  0  0  0  0  0  0  0  0  0  0
  -21.0007    7.1959    5.6531 C   0  0  0  0  0  0  0  0  0  0  0  0
  -21.2152    7.5280    4.2215 N   0  3  0  0  0  0  0  0  0  0  0  0
  -22.4992    6.9728    3.7210 C   0  0  0  0  0  0  0  0  0  0  0  0
  -20.0495    7.0667    3.3905 C   0  0  0  0  0  0  0  0  0  0  0  0
  -26.0226    6.3616    5.7736 C   0  0  0  0  0  0  0  0  0  0  0  0
  -27.4344    5.9357    5.4508 C   0  0  0  0  0  0  0  0  0  0  0  0
  -25.1730    6.2766    4.9012 O   0  0  0  0  0  0  0  0  0  0  0  0
  1  7  1  0  0  0  0
  1  9  1  0  0  0  0
  2  8  1  0  0  0  0
  2 14  1  0  0  0  0
  2 15  1  0  0  0  0
  3  4  2  0  0  0  0
  3  8  1  0  0  0  0
  4  5  1  0  0  0  0
  4 21  1  0  0  0  0
  5  6  2  0  0  0  0
  6  7  1  0  0  0  0
  7  8  2  0  0  0  0
  9 10  2  0  0  0  0
  9 14  1  0  0  0  0
 10 11  1  0  0  0  0
 11 12  2  0  0  0  0
 12 13  1  0  0  0  0
 13 14  2  0  0  0  0
 15 16  1  0  0  0  0
 16 17  1  0  0  0  0
 17 18  1  0  0  0  0
 18 19  1  0  0  0  0
 18 20  1  0  0  0  0
 21 22  1  0  0  0  0
 21 23  2  0  0  0  0
M  CHG  1  18   1
M  END
>  <CHROM.1>
26.69559079,163.22162173,-152.54408167,-179.95318746,47.86304867,-23.52135085
7.18468963,8.21842106,1.62644758,-0.03107892,1.53418867

>  <Name>


>  <RI>
0

>  <Rbt.Current_Directory>
/home/itssahil/PROJECTS/Mol_Feturizer/New_Systems/rnas/1lvj

>  <Rbt.Executable>
rbdock ($Id: //depot/dev/client3/rdock/2013.1/src/exe/rbdock.cxx#4 $)

>  <Rbt.Library>
libRbt.so (2013.1, Build901 2013/11/27)

>  <Rbt.Parameter_File>
/export/apps/rDock/src/rDock_2013.1_src/data/scripts/dock_solv.prm

>  <Rbt.Receptor>
prm/pocket_docking_4.prm

>  <SCORE>
-27.6941

>  <SCORE.INTER>
-26.9834

>  <SCORE.INTER.CONST>
1

>  <SCORE.INTER.POLAR>
0

>  <SCORE.INTER.ROT>
5

>  <SCORE.INTER.SOLV>
17.4127

>  <SCORE.INTER.VDW>
-30.7265

>  <SCORE.INTER.norm>
-1.17319

>  <SCORE.INTRA>
-0.710647

>  <SCORE.INTRA.DIHEDRAL>
-3.14602

>  <SCORE.INTRA.DIHEDRAL.0>
8.06479

>  <SCORE.INTRA.POLAR>
0

>  <SCORE.INTRA.POLAR.0>
0

>  <SCORE.INTRA.REPUL>
0

>  <SCORE.INTRA.REPUL.0>
0

>  <SCORE.INTRA.SOLV>
0.760682

>  <SCORE.INTRA.SOLV.lig_0>
-29.8054

>  <SCORE.INTRA.VDW>
0.482019

>  <SCORE.INTRA.VDW.0>
2.61447

>  <SCORE.INTRA.norm>
-0.0308977

>  <SCORE.RESTR>
0

>  <SCORE.RESTR.CAVITY>
0

>  <SCORE.RESTR.norm>
0

>  <SCORE.SYSTEM>
0

>  <SCORE.SYSTEM.CONST>
0

>  <SCORE.SYSTEM.DIHEDRAL>
0

>  <SCORE.SYSTEM.SOLV>
0

>  <SCORE.SYSTEM.norm>
0

>  <SCORE.heavy>
23

>  <SCORE.norm>
-1.20409

>  <RMSD>
6.257

$$$$

 OpenBabel11021811403D
libRbt.so/2013.1/901 2013/11/27
 23 25  0  0  0  0  0  0  0  0999 V2000
  -24.6442    8.6759   11.1538 S   0  0  0  0  0  0  0  0  0  0  0  0
  -22.7068    7.6319    9.1474 N   0  0  0  0  0  0  0  0  0  0  0  0
  -24.3268    6.9981    7.4776 C   0  0  0  0  0  0  0  0  0  0  0  0
  -25.6668    6.9230    7.0754 C   0  0  0  0  0  0  0  0  0  0  0  0
  -26.6770    7.3862    7.9130 C   0  0  0  0  0  0  0  0  0  0  0  0
  -26.3565    7.9214    9.1558 C   0  0  0  0  0  0  0  0  0  0  0  0
  -25.0283    7.9988    9.5670 C   0  0  0  0  0  0  0  0  0  0  0  0
  -24.0044    7.5381    8.7307 C   0  0  0  0  0  0  0  0  0  0  0  0
  -23.3940    7.4613   11.4308 C   0  0  0  0  0  0  0  0  0  0  0  0
  -23.2395    6.8908   12.6976 C   0  0  0  0  0  0  0  0  0  0  0  0
  -22.2448    5.9328   12.9140 C   0  0  0  0  0  0  0  0  0  0  0  0
  -21.4047    5.5514   11.8628 C   0  0  0  0  0  0  0  0  0  0  0  0
  -21.5639    6.1254   10.6010 C   0  0  0  0  0  0  0  0  0  0  0  0
  -22.5533    7.0738   10.3811 C   0  0  0  0  0  0  0  0  0  0  0  0
  -21.5986    7.5366    8.1651 C   0  0  0  0  0  0  0  0  0  0  0  0
  -21.9130    7.9598    6.6913 C   0  0  0  0  0  0  0  0  0  0  0  0
  -20.9664    7.2936    5.6352 C   0  0  0  0  0  0  0  0  0  0  0  0
  -21.2137    7.5931    4.2017 N   0  3  0  0  0  0  0  0  0  0  0  0
  -22.4777    6.9734    3.7268 C   0  0  0  0  0  0  0  0  0  0  0  0
  -20.0391    7.1713    3.3623 C   0  0  0  0  0  0  0  0  0  0  0  0
  -26.0252    6.3384    5.7389 C   0  0  0  0  0  0  0  0  0  0  0  0
  -27.4149    5.8339    5.4345 C   0  0  0  0  0  0  0  0  0  0  0  0
  -25.1899    6.3222    4.8488 O   0  0  0  0  0  0  0  0  0  0  0  0
  1  7  1  0  0  0  0
  1  9  1  0  0  0  0
  2  8  1  0  0  0  0
  2 14  1  0  0  0  0
  2 15  1  0  0  0  0
  3  4  2  0  0  0  0
  3  8  1  0  0  0  0
  4  5  1  0  0  0  0
  4 21  1  0  0  0  0
  5  6  2  0  0  0  0
  6  7  1  0  0  0  0
  7  8  2  0  0  0  0
  9 10  2  0  0  0  0
  9 14  1  0  0  0  0
 10 11  1  0  0  0  0
 11 12  2  0  0  0  0
 12 13  1  0  0  0  0
 13 14  2  0  0  0  0
 15 16  1  0  0  0  0
 16 17  1  0  0  0  0
 17 18  1  0  0  0  0
 18 19  1  0  0  0  0
 18 20  1  0  0  0  0
 21 22  1  0  0  0  0
 21 23  2  0  0  0  0
M  CHG  1  18   1
M  END
>  <CHROM.1>
26.43496768,160.21853689,-155.52546675,177.86758771,50.65519982,-23.53223143
7.17972797,8.19355328,1.63264349,-0.01237444,1.54214966

>  <Name>


>  <RI>
0

>  <Rbt.Current_Directory>
/home/itssahil/PROJECTS/Mol_Feturizer/New_Systems/rnas/1lvj

>  <Rbt.Executable>
rbdock ($Id: //depot/dev/client3/rdock/2013.1/src/exe/rbdock.cxx#4 $)

>  <Rbt.Library>
libRbt.so (2013.1, Build901 2013/11/27)

>  <Rbt.Parameter_File>
/export/apps/rDock/src/rDock_2013.1_src/data/scripts/dock_solv.prm

>  <Rbt.Receptor>
prm/pocket_docking_7.prm

>  <SCORE>
-27.7365

>  <SCORE.INTER>
-27.0169

>  <SCORE.INTER.CONST>
1

>  <SCORE.INTER.POLAR>
0

>  <SCORE.INTER.ROT>
5

>  <SCORE.INTER.SOLV>
17.5639

>  <SCORE.INTER.VDW>
-30.7992

>  <SCORE.INTER.norm>
-1.17465

>  <SCORE.INTRA>
-0.719602

>  <SCORE.INTRA.DIHEDRAL>
-3.26664

>  <SCORE.INTRA.DIHEDRAL.0>
8.06479

>  <SCORE.INTRA.POLAR>
0

>  <SCORE.INTRA.POLAR.0>
0

>  <SCORE.INTRA.REPUL>
0

>  <SCORE.INTRA.REPUL.0>
0

>  <SCORE.INTRA.SOLV>
0.703689

>  <SCORE.INTRA.SOLV.lig_0>
-29.8054

>  <SCORE.INTRA.VDW>
0.561871

>  <SCORE.INTRA.VDW.0>
2.61447

>  <SCORE.INTRA.norm>
-0.031287

>  <SCORE.RESTR>
0

>  <SCORE.RESTR.CAVITY>
0

>  <SCORE.RESTR.norm>
0

>  <SCORE.SYSTEM>
0

>  <SCORE.SYSTEM.CONST>
0

>  <SCORE.SYSTEM.DIHEDRAL>
0

>  <SCORE.SYSTEM.SOLV>
0

>  <SCORE.SYSTEM.norm>
0

>  <SCORE.heavy>
23

>  <SCORE.norm>
-1.20593

>  <RMSD>
6.260

$$$$

 OpenBabel11021811403D
libRbt.so/2013.1/901 2013/11/27
 23 25  0  0  0  0  0  0  0  0999 V2000
  -23.4869   10.1315   12.7839 S   0  0  0  0  0  0  0  0  0  0  0  0
  -25.3808    8.3928   11.2809 N   0  0  0  0  0  0  0  0  0  0  0  0
  -27.3053    8.7752   12.6824 C   0  0  0  0  0  0  0  0  0  0  0  0
  -27.8700    9.4122   13.7953 C   0  0  0  0  0  0  0  0  0  0  0  0
  -27.0992   10.2629   14.5818 C   0  0  0  0  0  0  0  0  0  0  0  0
  -25.7623   10.4786   14.2655 C   0  0  0  0  0  0  0  0  0  0  0  0
  -25.1899    9.8489   13.1632 C   0  0  0  0  0  0  0  0  0  0  0  0
  -25.9575    8.9933   12.3639 C   0  0  0  0  0  0  0  0  0  0  0  0
  -23.2446    8.4372   12.3531 C   0  0  0  0  0  0  0  0  0  0  0  0
  -22.0656    7.7822   12.7208 C   0  0  0  0  0  0  0  0  0  0  0  0
  -21.8755    6.4417   12.3733 C   0  0  0  0  0  0  0  0  0  0  0  0
  -22.8643    5.7614   11.6550 C   0  0  0  0  0  0  0  0  0  0  0  0
  -24.0384    6.4214   11.2905 C   0  0  0  0  0  0  0  0  0  0  0  0
  -24.2326    7.7513   11.6376 C   0  0  0  0  0  0  0  0  0  0  0  0
  -26.2284    7.8195   10.2061 C   0  0  0  0  0  0  0  0  0  0  0  0
  -25.7164    7.9732    8.7350 C   0  0  0  0  0  0  0  0  0  0  0  0
  -26.4006    6.9852    7.7296 C   0  0  0  0  0  0  0  0  0  0  0  0
  -26.2698    7.2771    6.2792 N   0  3  0  0  0  0  0  0  0  0  0  0
  -27.0746    6.3343    5.4600 C   0  0  0  0  0  0  0  0  0  0  0  0
  -24.8234    7.2753    5.8671 C   0  0  0  0  0  0  0  0  0  0  0  0
  -29.3106    9.1794   14.1516 C   0  0  0  0  0  0  0  0  0  0  0  0
  -29.9832    9.9187   15.2828 C   0  0  0  0  0  0  0  0  0  0  0  0
  -29.9795    8.4159   13.4734 O   0  0  0  0  0  0  0  0  0  0  0  0
  1  7  1  0  0  0  0
  1  9  1  0  0  0  0
  2  8  1  0  0  0  0
  2 14  1  0  0  0  0
  2 15  1  0  0  0  0
  3  4  2  0  0  0  0
  3  8  1  0  0  0  0
  4  5  1  0  0  0  0
  4 21  1  0  0  0  0
  5  6  2  0  0  0  0
  6  7  1  0  0  0  0
  7  8  2  0  0  0  0
  9 10  2  0  0  0  0
  9 14  1  0  0  0  0
 10 11  1  0  0  0  0
 11 12  2  0  0  0  0
 12 13  1  0  0  0  0
 13 14  2  0  0  0  0
 15 16  1  0  0  0  0
 16 17  1  0  0  0  0
 17 18  1  0  0  0  0
 18 19  1  0  0  0  0
 18 20  1  0  0  0  0
 21 22  1  0  0  0  0
 21 23  2  0  0  0  0
M  CHG  1  18   1
M  END
>  <CHROM.1>
142.55158407,-175.64702229,161.93572008,164.01906320,-54.54959381,-25.68421684
8.34470506,11.44620604,-1.83682267,0.13782276,-1.90663563

>  <Name>


>  <RI>
0

>  <Rbt.Current_Directory>
/home/itssahil/PROJECTS/Mol_Feturizer/New_Systems/rnas/1lvj

>  <Rbt.Executable>
rbdock ($Id: //depot/dev/client3/rdock/2013.1/src/exe/rbdock.cxx#4 $)

>  <Rbt.Library>
libRbt.so (2013.1, Build901 2013/11/27)

>  <Rbt.Parameter_File>
/export/apps/rDock/src/rDock_2013.1_src/data/scripts/dock_solv.prm

>  <Rbt.Receptor>
prm/pocket_docking_8.prm

>  <SCORE>
-30.853

>  <SCORE.INTER>
-26.6149

>  <SCORE.INTER.CONST>
1

>  <SCORE.INTER.POLAR>
-1.6114

>  <SCORE.INTER.ROT>
5

>  <SCORE.INTER.SOLV>
17.3761

>  <SCORE.INTER.VDW>
-25.0973

>  <SCORE.INTER.norm>
-1.15717

>  <SCORE.INTRA>
-4.23805

>  <SCORE.INTRA.DIHEDRAL>
-4.92359

>  <SCORE.INTRA.DIHEDRAL.0>
8.06479

>  <SCORE.INTRA.POLAR>
0

>  <SCORE.INTRA.POLAR.0>
0

>  <SCORE.INTRA.REPUL>
0

>  <SCORE.INTRA.REPUL.0>
0

>  <SCORE.INTRA.SOLV>
0.41238

>  <SCORE.INTRA.SOLV.lig_0>
-29.8054

>  <SCORE.INTRA.VDW>
-1.98245

>  <SCORE.INTRA.VDW.0>
2.61447

>  <SCORE.INTRA.norm>
-0.184263

>  <SCORE.RESTR>
0

>  <SCORE.RESTR.CAVITY>
0

>  <SCORE.RESTR.norm>
0

>  <SCORE.SYSTEM>
0

>  <SCORE.SYSTEM.CONST>
0

>  <SCORE.SYSTEM.DIHEDRAL>
0

>  <SCORE.SYSTEM.SOLV>
0

>  <SCORE.SYSTEM.norm>
0

>  <SCORE.heavy>
23

>  <SCORE.norm>
-1.34143

>  <RMSD>
6.260

$$$$

 OpenBabel11021811403D
libRbt.so/2013.1/901 2013/11/27
 23 25  0  0  0  0  0  0  0  0999 V2000
  -25.3855    8.4705   10.1702 S   0  0  0  0  0  0  0  0  0  0  0  0
  -23.2168    8.0222    8.1790 N   0  0  0  0  0  0  0  0  0  0  0  0
  -24.5990    7.0655    6.4504 C   0  0  0  0  0  0  0  0  0  0  0  0
  -25.8706    6.6717    6.0132 C   0  0  0  0  0  0  0  0  0  0  0  0
  -26.9777    6.8347    6.8404 C   0  0  0  0  0  0  0  0  0  0  0  0
  -26.8216    7.3862    8.1074 C   0  0  0  0  0  0  0  0  0  0  0  0
  -25.5622    7.7788    8.5534 C   0  0  0  0  0  0  0  0  0  0  0  0
  -24.4424    7.6216    7.7278 C   0  0  0  0  0  0  0  0  0  0  0  0
  -23.8744    7.5990   10.4381 C   0  0  0  0  0  0  0  0  0  0  0  0
  -23.6010    7.0382   11.6892 C   0  0  0  0  0  0  0  0  0  0  0  0
  -22.4008    6.3531   11.8986 C   0  0  0  0  0  0  0  0  0  0  0  0
  -21.4755    6.2345   10.8565 C   0  0  0  0  0  0  0  0  0  0  0  0
  -21.7543    6.7972    9.6105 C   0  0  0  0  0  0  0  0  0  0  0  0
  -22.9470    7.4746    9.3974 C   0  0  0  0  0  0  0  0  0  0  0  0
  -22.1052    8.2451    7.2216 C   0  0  0  0  0  0  0  0  0  0  0  0
  -21.7614    7.0737    6.2420 C   0  0  0  0  0  0  0  0  0  0  0  0
  -20.7500    7.4784    5.1156 C   0  0  0  0  0  0  0  0  0  0  0  0
  -20.5233    6.5105    4.0122 N   0  3  0  0  0  0  0  0  0  0  0  0
  -19.2535    6.7922    3.2941 C   0  0  0  0  0  0  0  0  0  0  0  0
  -21.6990    6.4917    3.0745 C   0  0  0  0  0  0  0  0  0  0  0  0
  -26.0495    6.0665    4.6500 C   0  0  0  0  0  0  0  0  0  0  0  0
  -24.9055    5.9478    3.6724 C   0  0  0  0  0  0  0  0  0  0  0  0
  -27.1343    5.6009    4.3391 O   0  0  0  0  0  0  0  0  0  0  0  0
  1  7  1  0  0  0  0
  1  9  1  0  0  0  0
  2  8  1  0  0  0  0
  2 14  1  0  0  0  0
  2 15  1  0  0  0  0
  3  4  2  0  0  0  0
  3  8  1  0  0  0  0
  4  5  1  0  0  0  0
  4 21  1  0  0  0  0
  5  6  2  0  0  0  0
  6  7  1  0  0  0  0
  7  8  2  0  0  0  0
  9 10  2  0  0  0  0
  9 14  1  0  0  0  0
 10 11  1  0  0  0  0
 11 12  2  0  0  0  0
 12 13  1  0  0  0  0
 13 14  2  0  0  0  0
 15 16  1  0  0  0  0
 16 17  1  0  0  0  0
 17 18  1  0  0  0  0
 18 19  1  0  0  0  0
 18 20  1  0  0  0  0
 21 22  1  0  0  0  0
 21 23  2  0  0  0  0
M  CHG  1  18   1
M  END
>  <CHROM.1>
-53.41849512,-4.32306025,170.20860733,-170.51577419,-40.77019156,-23.65684334
7.08296455,7.31753618,1.83985172,0.01544770,1.42281413

>  <Name>


>  <RI>
0

>  <Rbt.Current_Directory>
/home/itssahil/PROJECTS/Mol_Feturizer/New_Systems/rnas/1lvj

>  <Rbt.Executable>
rbdock ($Id: //depot/dev/client3/rdock/2013.1/src/exe/rbdock.cxx#4 $)

>  <Rbt.Library>
libRbt.so (2013.1, Build901 2013/11/27)

>  <Rbt.Parameter_File>
/export/apps/rDock/src/rDock_2013.1_src/data/scripts/dock_solv.prm

>  <Rbt.Receptor>
prm/pocket_docking_2.prm

>  <SCORE>
-22.695

>  <SCORE.INTER>
-23.8868

>  <SCORE.INTER.CONST>
1

>  <SCORE.INTER.POLAR>
-0.602817

>  <SCORE.INTER.ROT>
5

>  <SCORE.INTER.SOLV>
19.1415

>  <SCORE.INTER.VDW>
-27.229

>  <SCORE.INTER.norm>
-1.03856

>  <SCORE.INTRA>
-3.74794

>  <SCORE.INTRA.DIHEDRAL>
-5.89094

>  <SCORE.INTRA.DIHEDRAL.0>
8.06479

>  <SCORE.INTRA.POLAR>
0

>  <SCORE.INTRA.POLAR.0>
0

>  <SCORE.INTRA.REPUL>
0

>  <SCORE.INTRA.REPUL.0>
0

>  <SCORE.INTRA.SOLV>
0.461667

>  <SCORE.INTRA.SOLV.lig_0>
-29.8054

>  <SCORE.INTRA.VDW>
-1.03331

>  <SCORE.INTRA.VDW.0>
2.61447

>  <SCORE.INTRA.norm>
-0.162954

>  <SCORE.RESTR>
4.93975

>  <SCORE.RESTR.CAVITY>
4.93975

>  <SCORE.RESTR.norm>
0.214772

>  <SCORE.SYSTEM>
0

>  <SCORE.SYSTEM.CONST>
0

>  <SCORE.SYSTEM.DIHEDRAL>
0

>  <SCORE.SYSTEM.SOLV>
0

>  <SCORE.SYSTEM.norm>
0

>  <SCORE.heavy>
23

>  <SCORE.norm>
-0.986739

>  <RMSD>
6.266

$$$$

 OpenBabel11021811403D
libRbt.so/2013.1/901 2013/11/27
 23 25  0  0  0  0  0  0  0  0999 V2000
  -21.8900    7.2643   11.4143 S   0  0  0  0  0  0  0  0  0  0  0  0
  -24.7446    7.0636   10.5896 N   0  0  0  0  0  0  0  0  0  0  0  0
  -24.3730    7.2008    8.2111 C   0  0  0  0  0  0  0  0  0  0  0  0
  -23.4733    7.3157    7.1432 C   0  0  0  0  0  0  0  0  0  0  0  0
  -22.1060    7.4071    7.3855 C   0  0  0  0  0  0  0  0  0  0  0  0
  -21.6305    7.3890    8.6921 C   0  0  0  0  0  0  0  0  0  0  0  0
  -22.5156    7.2778    9.7613 C   0  0  0  0  0  0  0  0  0  0  0  0
  -23.8928    7.1824    9.5282 C   0  0  0  0  0  0  0  0  0  0  0  0
  -23.2239    8.2686   11.9861 C   0  0  0  0  0  0  0  0  0  0  0  0
  -22.9889    9.2786   12.9237 C   0  0  0  0  0  0  0  0  0  0  0  0
  -24.0490   10.0685   13.3778 C   0  0  0  0  0  0  0  0  0  0  0  0
  -25.3423    9.8427   12.8953 C   0  0  0  0  0  0  0  0  0  0  0  0
  -25.5699    8.8324   11.9602 C   0  0  0  0  0  0  0  0  0  0  0  0
  -24.5191    8.0489   11.5036 C   0  0  0  0  0  0  0  0  0  0  0  0
  -26.1278    6.5669   10.3845 C   0  0  0  0  0  0  0  0  0  0  0  0
  -26.8083    5.8330   11.5880 C   0  0  0  0  0  0  0  0  0  0  0  0
  -26.1348    4.4642   11.9458 C   0  0  0  0  0  0  0  0  0  0  0  0
  -26.7874    3.6249   12.9829 N   0  3  0  0  0  0  0  0  0  0  0  0
  -25.8955    2.5252   13.4330 C   0  0  0  0  0  0  0  0  0  0  0  0
  -28.1073    3.1014   12.4869 C   0  0  0  0  0  0  0  0  0  0  0  0
  -23.9766    7.3454    5.7281 C   0  0  0  0  0  0  0  0  0  0  0  0
  -25.3886    6.9460    5.3740 C   0  0  0  0  0  0  0  0  0  0  0  0
  -23.2470    7.7601    4.8416 O   0  0  0  0  0  0  0  0  0  0  0  0
  1  7  1  0  0  0  0
  1  9  1  0  0  0  0
  2  8  1  0  0  0  0
  2 14  1  0  0  0  0
  2 15  1  0  0  0  0
  3  4  2  0  0  0  0
  3  8  1  0  0  0  0
  4  5  1  0  0  0  0
  4 21  1  0  0  0  0
  5  6  2  0  0  0  0
  6  7  1  0  0  0  0
  7  8  2  0  0  0  0
  9 10  2  0  0  0  0
  9 14  1  0  0  0  0
 10 11  1  0  0  0  0
 11 12  2  0  0  0  0
 12 13  1  0  0  0  0
 13 14  2  0  0  0  0
 15 16  1  0  0  0  0
 16 17  1  0  0  0  0
 17 18  1  0  0  0  0
 18 19  1  0  0  0  0
 18 20  1  0  0  0  0
 21 22  1  0  0  0  0
 21 23  2  0  0  0  0
M  CHG  1  18   1
M  END
>  <CHROM.1>
152.10830395,-14.12726867,-66.81013208,-173.99311547,-47.26321022,-24.39410857
6.91286104,10.33508454,-0.85477352,0.89332768,1.37687060

>  <Name>


>  <RI>
0

>  <Rbt.Current_Directory>
/home/itssahil/PROJECTS/Mol_Feturizer/New_Systems/rnas/1lvj

>  <Rbt.Executable>
rbdock ($Id: //depot/dev/client3/rdock/2013.1/src/exe/rbdock.cxx#4 $)

>  <Rbt.Library>
libRbt.so (2013.1, Build901 2013/11/27)

>  <Rbt.Parameter_File>
/export/apps/rDock/src/rDock_2013.1_src/data/scripts/dock_solv.prm

>  <Rbt.Receptor>
prm/pocket_docking_8.prm

>  <SCORE>
-28.3379

>  <SCORE.INTER>
-23.0642

>  <SCORE.INTER.CONST>
1

>  <SCORE.INTER.POLAR>
-0.00535885

>  <SCORE.INTER.ROT>
5

>  <SCORE.INTER.SOLV>
8.9201

>  <SCORE.INTER.VDW>
-25.2649

>  <SCORE.INTER.norm>
-1.00279

>  <SCORE.INTRA>
-5.27377

>  <SCORE.INTRA.DIHEDRAL>
-5.94505

>  <SCORE.INTRA.DIHEDRAL.0>
8.06479

>  <SCORE.INTRA.POLAR>
0

>  <SCORE.INTRA.POLAR.0>
0

>  <SCORE.INTRA.REPUL>
0

>  <SCORE.INTRA.REPUL.0>
0

>  <SCORE.INTRA.SOLV>
0.477163

>  <SCORE.INTRA.SOLV.lig_0>
-29.8054

>  <SCORE.INTRA.VDW>
-2.53982

>  <SCORE.INTRA.VDW.0>
2.61447

>  <SCORE.INTRA.norm>
-0.229294

>  <SCORE.RESTR>
0

>  <SCORE.RESTR.CAVITY>
0

>  <SCORE.RESTR.norm>
0

>  <SCORE.SYSTEM>
0

>  <SCORE.SYSTEM.CONST>
0

>  <SCORE.SYSTEM.DIHEDRAL>
0

>  <SCORE.SYSTEM.SOLV>
0

>  <SCORE.SYSTEM.norm>
0

>  <SCORE.heavy>
23

>  <SCORE.norm>
-1.23208

>  <RMSD>
6.267

$$$$

 OpenBabel11021811403D
libRbt.so/2013.1/901 2013/11/27
 23 25  0  0  0  0  0  0  0  0999 V2000
  -25.5100    8.5469    9.7627 S   0  0  0  0  0  0  0  0  0  0  0  0
  -23.3102    8.2389    7.7790 N   0  0  0  0  0  0  0  0  0  0  0  0
  -24.5897    7.0724    6.1009 C   0  0  0  0  0  0  0  0  0  0  0  0
  -25.8148    6.5318    5.6886 C   0  0  0  0  0  0  0  0  0  0  0  0
  -26.9313    6.6155    6.5149 C   0  0  0  0  0  0  0  0  0  0  0  0
  -26.8306    7.2337    7.7564 C   0  0  0  0  0  0  0  0  0  0  0  0
  -25.6174    7.7723    8.1776 C   0  0  0  0  0  0  0  0  0  0  0  0
  -24.4889    7.6957    7.3527 C   0  0  0  0  0  0  0  0  0  0  0  0
  -23.9169    7.8473   10.0580 C   0  0  0  0  0  0  0  0  0  0  0  0
  -23.5851    7.3716   11.3300 C   0  0  0  0  0  0  0  0  0  0  0  0
  -22.3205    6.8228   11.5609 C   0  0  0  0  0  0  0  0  0  0  0  0
  -21.3896    6.7554   10.5191 C   0  0  0  0  0  0  0  0  0  0  0  0
  -21.7270    7.2328    9.2521 C   0  0  0  0  0  0  0  0  0  0  0  0
  -22.9834    7.7744    9.0178 C   0  0  0  0  0  0  0  0  0  0  0  0
  -22.2290    8.5335    6.8062 C   0  0  0  0  0  0  0  0  0  0  0  0
  -21.8060    7.3788    5.8380 C   0  0  0  0  0  0  0  0  0  0  0  0
  -21.1877    7.8884    4.4914 C   0  0  0  0  0  0  0  0  0  0  0  0
  -20.7406    6.8687    3.5085 N   0  3  0  0  0  0  0  0  0  0  0  0
  -19.4197    6.2984    3.8794 C   0  0  0  0  0  0  0  0  0  0  0  0
  -20.7267    7.4432    2.1186 C   0  0  0  0  0  0  0  0  0  0  0  0
  -25.9329    5.8537    4.3533 C   0  0  0  0  0  0  0  0  0  0  0  0
  -24.7764    5.7889    3.3854 C   0  0  0  0  0  0  0  0  0  0  0  0
  -26.9724    5.2847    4.0604 O   0  0  0  0  0  0  0  0  0  0  0  0
  1  7  1  0  0  0  0
  1  9  1  0  0  0  0
  2  8  1  0  0  0  0
  2 14  1  0  0  0  0
  2 15  1  0  0  0  0
  3  4  2  0  0  0  0
  3  8  1  0  0  0  0
  4  5  1  0  0  0  0
  4 21  1  0  0  0  0
  5  6  2  0  0  0  0
  6  7  1  0  0  0  0
  7  8  2  0  0  0  0
  9 10  2  0  0  0  0
  9 14  1  0  0  0  0
 10 11  1  0  0  0  0
 11 12  2  0  0  0  0
 12 13  1  0  0  0  0
 13 14  2  0  0  0  0
 15 16  1  0  0  0  0
 16 17  1  0  0  0  0
 17 18  1  0  0  0  0
 18 19  1  0  0  0  0
 18 20  1  0  0  0  0
 21 22  1  0  0  0  0
 21 23  2  0  0  0  0
M  CHG  1  18   1
M  END
>  <CHROM.1>
-51.14870504,-3.14935432,154.01169042,179.38396124,41.05828472,-23.65042332
7.22303302,6.95615600,1.85392392,0.09984032,1.38747323

>  <Name>


>  <RI>
0

>  <Rbt.Current_Directory>
/home/itssahil/PROJECTS/Mol_Feturizer/New_Systems/rnas/1lvj

>  <Rbt.Executable>
rbdock ($Id: //depot/dev/client3/rdock/2013.1/src/exe/rbdock.cxx#4 $)

>  <Rbt.Library>
libRbt.so (2013.1, Build901 2013/11/27)

>  <Rbt.Parameter_File>
/export/apps/rDock/src/rDock_2013.1_src/data/scripts/dock_solv.prm

>  <Rbt.Receptor>
prm/blind_docking_100.prm

>  <SCORE>
-23.341

>  <SCORE.INTER>
-22.2169

>  <SCORE.INTER.CONST>
1

>  <SCORE.INTER.POLAR>
0

>  <SCORE.INTER.ROT>
5

>  <SCORE.INTER.SOLV>
17.3247

>  <SCORE.INTER.VDW>
-27.5195

>  <SCORE.INTER.norm>
-0.96595

>  <SCORE.INTRA>
-2.6057

>  <SCORE.INTRA.DIHEDRAL>
-4.11348

>  <SCORE.INTRA.DIHEDRAL.0>
8.06479

>  <SCORE.INTRA.POLAR>
0

>  <SCORE.INTRA.POLAR.0>
0

>  <SCORE.INTRA.REPUL>
0

>  <SCORE.INTRA.REPUL.0>
0

>  <SCORE.INTRA.SOLV>
1.59855

>  <SCORE.INTRA.SOLV.lig_0>
-29.8054

>  <SCORE.INTRA.VDW>
-1.34824

>  <SCORE.INTRA.VDW.0>
2.61447

>  <SCORE.INTRA.norm>
-0.113291

>  <SCORE.RESTR>
1.48158

>  <SCORE.RESTR.CAVITY>
1.48158

>  <SCORE.RESTR.norm>
0.0644164

>  <SCORE.SYSTEM>
0

>  <SCORE.SYSTEM.CONST>
0

>  <SCORE.SYSTEM.DIHEDRAL>
0

>  <SCORE.SYSTEM.SOLV>
0

>  <SCORE.SYSTEM.norm>
0

>  <SCORE.heavy>
23

>  <SCORE.norm>
-1.01483

>  <RMSD>
6.270

$$$$

 OpenBabel11021811403D
libRbt.so/2013.1/901 2013/11/27
 23 25  0  0  0  0  0  0  0  0999 V2000
  -21.5816    7.1335   11.5517 S   0  0  0  0  0  0  0  0  0  0  0  0
  -24.4494    6.7945   10.8236 N   0  0  0  0  0  0  0  0  0  0  0  0
  -24.1867    7.1015    8.4464 C   0  0  0  0  0  0  0  0  0  0  0  0
  -23.3414    7.3411    7.3550 C   0  0  0  0  0  0  0  0  0  0  0  0
  -21.9739    7.5081    7.5511 C   0  0  0  0  0  0  0  0  0  0  0  0
  -21.4442    7.4416    8.8352 C   0  0  0  0  0  0  0  0  0  0  0  0
  -22.2751    7.2065    9.9276 C   0  0  0  0  0  0  0  0  0  0  0  0
  -23.6519    7.0344    9.7407 C   0  0  0  0  0  0  0  0  0  0  0  0
  -22.9520    8.0101   12.2362 C   0  0  0  0  0  0  0  0  0  0  0  0
  -22.7433    8.9741   13.2268 C   0  0  0  0  0  0  0  0  0  0  0  0
  -23.8318    9.6625   13.7699 C   0  0  0  0  0  0  0  0  0  0  0  0
  -25.1270    9.3813   13.3229 C   0  0  0  0  0  0  0  0  0  0  0  0
  -25.3284    8.4173   12.3344 C   0  0  0  0  0  0  0  0  0  0  0  0
  -24.2495    7.7347   11.7896 C   0  0  0  0  0  0  0  0  0  0  0  0
  -25.8054    6.2206   10.6394 C   0  0  0  0  0  0  0  0  0  0  0  0
  -25.9964    4.7101   11.0025 C   0  0  0  0  0  0  0  0  0  0  0  0
  -27.4877    4.2345   10.9299 C   0  0  0  0  0  0  0  0  0  0  0  0
  -28.2876    4.2803   12.1805 N   0  3  0  0  0  0  0  0  0  0  0  0
  -28.3927    5.6652   12.7083 C   0  0  0  0  0  0  0  0  0  0  0  0
  -27.7217    3.3369   13.2060 C   0  0  0  0  0  0  0  0  0  0  0  0
  -23.9040    7.4239    5.9647 C   0  0  0  0  0  0  0  0  0  0  0  0
  -23.0365    7.2570    4.7407 C   0  0  0  0  0  0  0  0  0  0  0  0
  -25.1063    7.5706    5.8129 O   0  0  0  0  0  0  0  0  0  0  0  0
  1  7  1  0  0  0  0
  1  9  1  0  0  0  0
  2  8  1  0  0  0  0
  2 14  1  0  0  0  0
  2 15  1  0  0  0  0
  3  4  2  0  0  0  0
  3  8  1  0  0  0  0
  4  5  1  0  0  0  0
  4 21  1  0  0  0  0
  5  6  2  0  0  0  0
  6  7  1  0  0  0  0
  7  8  2  0  0  0  0
  9 10  2  0  0  0  0
  9 14  1  0  0  0  0
 10 11  1  0  0  0  0
 11 12  2  0  0  0  0
 12 13  1  0  0  0  0
 13 14  2  0  0  0  0
 15 16  1  0  0  0  0
 16 17  1  0  0  0  0
 17 18  1  0  0  0  0
 18 19  1  0  0  0  0
 18 20  1  0  0  0  0
 21 22  1  0  0  0  0
 21 23  2  0  0  0  0
M  CHG  1  18   1
M  END
>  <CHROM.1>
104.70479644,-160.94684422,173.54162036,-93.26991730,-179.21751891,-24.40976304
6.91684243,10.41032698,-0.80973043,0.60140258,1.41019538

>  <Name>


>  <RI>
0

>  <Rbt.Current_Directory>
/home/itssahil/PROJECTS/Mol_Feturizer/New_Systems/rnas/1lvj

>  <Rbt.Executable>
rbdock ($Id: //depot/dev/client3/rdock/2013.1/src/exe/rbdock.cxx#4 $)

>  <Rbt.Library>
libRbt.so (2013.1, Build901 2013/11/27)

>  <Rbt.Parameter_File>
/export/apps/rDock/src/rDock_2013.1_src/data/scripts/dock_solv.prm

>  <Rbt.Receptor>
prm/pocket_docking_4.prm

>  <SCORE>
-21.7227

>  <SCORE.INTER>
-19.5354

>  <SCORE.INTER.CONST>
1

>  <SCORE.INTER.POLAR>
0

>  <SCORE.INTER.ROT>
5

>  <SCORE.INTER.SOLV>
9.02438

>  <SCORE.INTER.VDW>
-22.9651

>  <SCORE.INTER.norm>
-0.849367

>  <SCORE.INTRA>
-2.47946

>  <SCORE.INTRA.DIHEDRAL>
-1.32988

>  <SCORE.INTRA.DIHEDRAL.0>
8.06479

>  <SCORE.INTRA.POLAR>
0

>  <SCORE.INTRA.POLAR.0>
0

>  <SCORE.INTRA.REPUL>
0

>  <SCORE.INTRA.REPUL.0>
0

>  <SCORE.INTRA.SOLV>
-0.570708

>  <SCORE.INTRA.SOLV.lig_0>
-29.8054

>  <SCORE.INTRA.VDW>
-1.52917

>  <SCORE.INTRA.VDW.0>
2.61447

>  <SCORE.INTRA.norm>
-0.107803

>  <SCORE.RESTR>
0.292246

>  <SCORE.RESTR.CAVITY>
0.292246

>  <SCORE.RESTR.norm>
0.0127063

>  <SCORE.SYSTEM>
0

>  <SCORE.SYSTEM.CONST>
0

>  <SCORE.SYSTEM.DIHEDRAL>
0

>  <SCORE.SYSTEM.SOLV>
0

>  <SCORE.SYSTEM.norm>
0

>  <SCORE.heavy>
23

>  <SCORE.norm>
-0.944464

>  <RMSD>
6.274

$$$$

 OpenBabel11021811403D
libRbt.so/2013.1/901 2013/11/27
 23 25  0  0  0  0  0  0  0  0999 V2000
  -25.6869    8.2368    9.7739 S   0  0  0  0  0  0  0  0  0  0  0  0
  -23.1006    7.0177   10.6070 N   0  0  0  0  0  0  0  0  0  0  0  0
  -22.7246    8.4163   12.5348 C   0  0  0  0  0  0  0  0  0  0  0  0
  -23.1624    9.4573   13.3641 C   0  0  0  0  0  0  0  0  0  0  0  0
  -24.3624   10.1091   13.0964 C   0  0  0  0  0  0  0  0  0  0  0  0
  -25.1282    9.7295   11.9995 C   0  0  0  0  0  0  0  0  0  0  0  0
  -24.7016    8.6979   11.1670 C   0  0  0  0  0  0  0  0  0  0  0  0
  -23.4973    8.0340   11.4292 C   0  0  0  0  0  0  0  0  0  0  0  0
  -24.2556    8.0132    8.7658 C   0  0  0  0  0  0  0  0  0  0  0  0
  -24.2679    8.4249    7.4300 C   0  0  0  0  0  0  0  0  0  0  0  0
  -23.1339    8.2415    6.6336 C   0  0  0  0  0  0  0  0  0  0  0  0
  -21.9919    7.6425    7.1752 C   0  0  0  0  0  0  0  0  0  0  0  0
  -21.9866    7.2332    8.5091 C   0  0  0  0  0  0  0  0  0  0  0  0
  -23.1093    7.4177    9.3044 C   0  0  0  0  0  0  0  0  0  0  0  0
  -22.0734    6.0478   11.0613 C   0  0  0  0  0  0  0  0  0  0  0  0
  -22.5846    4.7208   11.7153 C   0  0  0  0  0  0  0  0  0  0  0  0
  -23.3487    4.9440   13.0649 C   0  0  0  0  0  0  0  0  0  0  0  0
  -22.5593    4.8875   14.3217 N   0  3  0  0  0  0  0  0  0  0  0  0
  -23.4401    4.8990   15.5182 C   0  0  0  0  0  0  0  0  0  0  0  0
  -21.5508    6.0025   14.3641 C   0  0  0  0  0  0  0  0  0  0  0  0
  -22.3388    9.8817   14.5465 C   0  0  0  0  0  0  0  0  0  0  0  0
  -22.7660   11.0100   15.4539 C   0  0  0  0  0  0  0  0  0  0  0  0
  -21.3239    9.2623   14.8228 O   0  0  0  0  0  0  0  0  0  0  0  0
  1  7  1  0  0  0  0
  1  9  1  0  0  0  0
  2  8  1  0  0  0  0
  2 14  1  0  0  0  0
  2 15  1  0  0  0  0
  3  4  2  0  0  0  0
  3  8  1  0  0  0  0
  4  5  1  0  0  0  0
  4 21  1  0  0  0  0
  5  6  2  0  0  0  0
  6  7  1  0  0  0  0
  7  8  2  0  0  0  0
  9 10  2  0  0  0  0
  9 14  1  0  0  0  0
 10 11  1  0  0  0  0
 11 12  2  0  0  0  0
 12 13  1  0  0  0  0
 13 14  2  0  0  0  0
 15 16  1  0  0  0  0
 16 17  1  0  0  0  0
 17 18  1  0  0  0  0
 18 19  1  0  0  0  0
 18 20  1  0  0  0  0
 21 22  1  0  0  0  0
 21 23  2  0  0  0  0
M  CHG  1  18   1
M  END
>  <CHROM.1>
94.10839516,179.19843794,-64.72024121,-91.92590877,-50.93789345,-23.27956600
7.72603319,11.60240247,2.17758050,1.25690496,-2.10467190

>  <Name>


>  <RI>
0

>  <Rbt.Current_Directory>
/home/itssahil/PROJECTS/Mol_Feturizer/New_Systems/rnas/1lvj

>  <Rbt.Executable>
rbdock ($Id: //depot/dev/client3/rdock/2013.1/src/exe/rbdock.cxx#4 $)

>  <Rbt.Library>
libRbt.so (2013.1, Build901 2013/11/27)

>  <Rbt.Parameter_File>
/export/apps/rDock/src/rDock_2013.1_src/data/scripts/dock_solv.prm

>  <Rbt.Receptor>
prm/pocket_docking_8.prm

>  <SCORE>
-27.4668

>  <SCORE.INTER>
-23.5467

>  <SCORE.INTER.CONST>
1

>  <SCORE.INTER.POLAR>
0

>  <SCORE.INTER.ROT>
5

>  <SCORE.INTER.SOLV>
6.89688

>  <SCORE.INTER.VDW>
-24.9301

>  <SCORE.INTER.norm>
-1.02377

>  <SCORE.INTRA>
-3.92002

>  <SCORE.INTRA.DIHEDRAL>
-2.84189

>  <SCORE.INTRA.DIHEDRAL.0>
8.06479

>  <SCORE.INTRA.POLAR>
0

>  <SCORE.INTRA.POLAR.0>
0

>  <SCORE.INTRA.REPUL>
0

>  <SCORE.INTRA.REPUL.0>
0

>  <SCORE.INTRA.SOLV>
1.22221

>  <SCORE.INTRA.SOLV.lig_0>
-29.8054

>  <SCORE.INTRA.VDW>
-3.11018

>  <SCORE.INTRA.VDW.0>
2.61447

>  <SCORE.INTRA.norm>
-0.170436

>  <SCORE.RESTR>
0

>  <SCORE.RESTR.CAVITY>
0

>  <SCORE.RESTR.norm>
0

>  <SCORE.SYSTEM>
0

>  <SCORE.SYSTEM.CONST>
0

>  <SCORE.SYSTEM.DIHEDRAL>
0

>  <SCORE.SYSTEM.SOLV>
0

>  <SCORE.SYSTEM.norm>
0

>  <SCORE.heavy>
23

>  <SCORE.norm>
-1.19421

>  <RMSD>
6.280

$$$$

 OpenBabel11021811403D
libRbt.so/2013.1/901 2013/11/27
 23 25  0  0  0  0  0  0  0  0999 V2000
  -25.6120    9.0110    8.0942 S   0  0  0  0  0  0  0  0  0  0  0  0
  -23.8203    7.6990    6.1099 N   0  0  0  0  0  0  0  0  0  0  0  0
  -25.4917    6.2903    5.0921 C   0  0  0  0  0  0  0  0  0  0  0  0
  -26.8255    5.8656    5.0306 C   0  0  0  0  0  0  0  0  0  0  0  0
  -27.7734    6.4054    5.8947 C   0  0  0  0  0  0  0  0  0  0  0  0
  -27.3953    7.3664    6.8260 C   0  0  0  0  0  0  0  0  0  0  0  0
  -26.0720    7.7941    6.8978 C   0  0  0  0  0  0  0  0  0  0  0  0
  -25.1113    7.2593    6.0311 C   0  0  0  0  0  0  0  0  0  0  0  0
  -24.0924    8.1809    8.4356 C   0  0  0  0  0  0  0  0  0  0  0  0
  -23.6204    8.0948    9.7486 C   0  0  0  0  0  0  0  0  0  0  0  0
  -22.4139    7.4408   10.0141 C   0  0  0  0  0  0  0  0  0  0  0  0
  -21.6808    6.8784    8.9641 C   0  0  0  0  0  0  0  0  0  0  0  0
  -22.1573    6.9686    7.6558 C   0  0  0  0  0  0  0  0  0  0  0  0
  -23.3572    7.6133    7.3887 C   0  0  0  0  0  0  0  0  0  0  0  0
  -22.8835    7.4695    4.9822 C   0  0  0  0  0  0  0  0  0  0  0  0
  -21.5045    8.2077    5.0384 C   0  0  0  0  0  0  0  0  0  0  0  0
  -20.3600    7.4506    4.2818 C   0  0  0  0  0  0  0  0  0  0  0  0
  -20.5512    7.1815    2.8338 N   0  3  0  0  0  0  0  0  0  0  0  0
  -19.4523    6.3446    2.2864 C   0  0  0  0  0  0  0  0  0  0  0  0
  -20.7011    8.4691    2.0712 C   0  0  0  0  0  0  0  0  0  0  0  0
  -27.2432    4.8216    4.0346 C   0  0  0  0  0  0  0  0  0  0  0  0
  -28.5940    4.1509    4.0995 C   0  0  0  0  0  0  0  0  0  0  0  0
  -26.4978    4.5454    3.1082 O   0  0  0  0  0  0  0  0  0  0  0  0
  1  7  1  0  0  0  0
  1  9  1  0  0  0  0
  2  8  1  0  0  0  0
  2 14  1  0  0  0  0
  2 15  1  0  0  0  0
  3  4  2  0  0  0  0
  3  8  1  0  0  0  0
  4  5  1  0  0  0  0
  4 21  1  0  0  0  0
  5  6  2  0  0  0  0
  6  7  1  0  0  0  0
  7  8  2  0  0  0  0
  9 10  2  0  0  0  0
  9 14  1  0  0  0  0
 10 11  1  0  0  0  0
 11 12  2  0  0  0  0
 12 13  1  0  0  0  0
 13 14  2  0  0  0  0
 15 16  1  0  0  0  0
 16 17  1  0  0  0  0
 17 18  1  0  0  0  0
 18 19  1  0  0  0  0
 18 20  1  0  0  0  0
 21 22  1  0  0  0  0
 21 23  2  0  0  0  0
M  CHG  1  18   1
M  END
>  <CHROM.1>
169.83622725,168.39830763,152.04552498,58.96600466,-54.40852985,-24.07662535
7.11197706,5.87784623,-2.90583300,-0.25686675,-1.92251005

>  <Name>


>  <RI>
0

>  <Rbt.Current_Directory>
/home/itssahil/PROJECTS/Mol_Feturizer/New_Systems/rnas/1lvj

>  <Rbt.Executable>
rbdock ($Id: //depot/dev/client3/rdock/2013.1/src/exe/rbdock.cxx#4 $)

>  <Rbt.Library>
libRbt.so (2013.1, Build901 2013/11/27)

>  <Rbt.Parameter_File>
/export/apps/rDock/src/rDock_2013.1_src/data/scripts/dock_solv.prm

>  <Rbt.Receptor>
prm/blind_docking_100.prm

>  <SCORE>
1.17044

>  <SCORE.INTER>
3.21292

>  <SCORE.INTER.CONST>
1

>  <SCORE.INTER.POLAR>
0

>  <SCORE.INTER.ROT>
5

>  <SCORE.INTER.SOLV>
18.2761

>  <SCORE.INTER.VDW>
-10.8834

>  <SCORE.INTER.norm>
0.139692

>  <SCORE.INTRA>
-2.58023

>  <SCORE.INTRA.DIHEDRAL>
-4.65761

>  <SCORE.INTRA.DIHEDRAL.0>
8.06479

>  <SCORE.INTRA.POLAR>
0

>  <SCORE.INTRA.POLAR.0>
0

>  <SCORE.INTRA.REPUL>
0

>  <SCORE.INTRA.REPUL.0>
0

>  <SCORE.INTRA.SOLV>
1.95153

>  <SCORE.INTRA.SOLV.lig_0>
-29.8054

>  <SCORE.INTRA.VDW>
-1.22719

>  <SCORE.INTRA.VDW.0>
2.61447

>  <SCORE.INTRA.norm>
-0.112184

>  <SCORE.RESTR>
0.537742

>  <SCORE.RESTR.CAVITY>
0.537742

>  <SCORE.RESTR.norm>
0.0233801

>  <SCORE.SYSTEM>
0

>  <SCORE.SYSTEM.CONST>
0

>  <SCORE.SYSTEM.DIHEDRAL>
0

>  <SCORE.SYSTEM.SOLV>
0

>  <SCORE.SYSTEM.norm>
0

>  <SCORE.heavy>
23

>  <SCORE.norm>
0.0508886

>  <RMSD>
6.283

$$$$

 OpenBabel11021811403D
libRbt.so/2013.1/901 2013/11/27
 23 25  0  0  0  0  0  0  0  0999 V2000
  -25.5853    8.9949    7.9320 S   0  0  0  0  0  0  0  0  0  0  0  0
  -23.8740    7.6328    5.9109 N   0  0  0  0  0  0  0  0  0  0  0  0
  -25.5812    6.1910    5.0049 C   0  0  0  0  0  0  0  0  0  0  0  0
  -26.9146    5.7609    5.0121 C   0  0  0  0  0  0  0  0  0  0  0  0
  -27.8272    6.3219    5.9003 C   0  0  0  0  0  0  0  0  0  0  0  0
  -27.4139    7.3099    6.7874 C   0  0  0  0  0  0  0  0  0  0  0  0
  -26.0906    7.7434    6.7909 C   0  0  0  0  0  0  0  0  0  0  0  0
  -25.1653    7.1873    5.8994 C   0  0  0  0  0  0  0  0  0  0  0  0
  -24.0491    8.1792    8.2316 C   0  0  0  0  0  0  0  0  0  0  0  0
  -23.5215    8.1316    9.5253 C   0  0  0  0  0  0  0  0  0  0  0  0
  -22.3021    7.4889    9.7574 C   0  0  0  0  0  0  0  0  0  0  0  0
  -21.6119    6.8993    8.6933 C   0  0  0  0  0  0  0  0  0  0  0  0
  -22.1438    6.9512    7.4044 C   0  0  0  0  0  0  0  0  0  0  0  0
  -23.3566    7.5846    7.1707 C   0  0  0  0  0  0  0  0  0  0  0  0
  -22.9849    7.3744    4.7511 C   0  0  0  0  0  0  0  0  0  0  0  0
  -21.7224    8.2875    4.6023 C   0  0  0  0  0  0  0  0  0  0  0  0
  -21.0663    8.2186    3.1811 C   0  0  0  0  0  0  0  0  0  0  0  0
  -19.9158    7.2975    2.9967 N   0  3  0  0  0  0  0  0  0  0  0  0
  -19.1155    7.6599    1.7986 C   0  0  0  0  0  0  0  0  0  0  0  0
  -20.3846    5.8695    2.9400 C   0  0  0  0  0  0  0  0  0  0  0  0
  -27.3698    4.6879    4.0645 C   0  0  0  0  0  0  0  0  0  0  0  0
  -28.7956    4.1925    4.0442 C   0  0  0  0  0  0  0  0  0  0  0  0
  -26.5845    4.2412    3.2436 O   0  0  0  0  0  0  0  0  0  0  0  0
  1  7  1  0  0  0  0
  1  9  1  0  0  0  0
  2  8  1  0  0  0  0
  2 14  1  0  0  0  0
  2 15  1  0  0  0  0
  3  4  2  0  0  0  0
  3  8  1  0  0  0  0
  4  5  1  0  0  0  0
  4 21  1  0  0  0  0
  5  6  2  0  0  0  0
  6  7  1  0  0  0  0
  7  8  2  0  0  0  0
  9 10  2  0  0  0  0
  9 14  1  0  0  0  0
 10 11  1  0  0  0  0
 11 12  2  0  0  0  0
 12 13  1  0  0  0  0
 13 14  2  0  0  0  0
 15 16  1  0  0  0  0
 16 17  1  0  0  0  0
 17 18  1  0  0  0  0
 18 19  1  0  0  0  0
 18 20  1  0  0  0  0
 21 22  1  0  0  0  0
 21 23  2  0  0  0  0
M  CHG  1  18   1
M  END
>  <CHROM.1>
159.94902890,179.74397552,-164.27066632,-96.35054959,-40.40416013,-24.07380382
7.05449198,5.74124541,-2.95063818,-0.27076853,-1.96584165

>  <Name>


>  <RI>
0

>  <Rbt.Current_Directory>
/home/itssahil/PROJECTS/Mol_Feturizer/New_Systems/rnas/1lvj

>  <Rbt.Executable>
rbdock ($Id: //depot/dev/client3/rdock/2013.1/src/exe/rbdock.cxx#4 $)

>  <Rbt.Library>
libRbt.so (2013.1, Build901 2013/11/27)

>  <Rbt.Parameter_File>
/export/apps/rDock/src/rDock_2013.1_src/data/scripts/dock_solv.prm

>  <Rbt.Receptor>
prm/blind_docking_100.prm

>  <SCORE>
4.20336

>  <SCORE.INTER>
6.00415

>  <SCORE.INTER.CONST>
1

>  <SCORE.INTER.POLAR>
0

>  <SCORE.INTER.ROT>
5

>  <SCORE.INTER.SOLV>
22.2265

>  <SCORE.INTER.VDW>
-10.3394

>  <SCORE.INTER.norm>
0.26105

>  <SCORE.INTRA>
-2.90342

>  <SCORE.INTRA.DIHEDRAL>
-2.43827

>  <SCORE.INTRA.DIHEDRAL.0>
8.06479

>  <SCORE.INTRA.POLAR>
0

>  <SCORE.INTRA.POLAR.0>
0

>  <SCORE.INTRA.REPUL>
0

>  <SCORE.INTRA.REPUL.0>
0

>  <SCORE.INTRA.SOLV>
0.92837

>  <SCORE.INTRA.SOLV.lig_0>
-29.8054

>  <SCORE.INTRA.VDW>
-2.14847

>  <SCORE.INTRA.VDW.0>
2.61447

>  <SCORE.INTRA.norm>
-0.126236

>  <SCORE.RESTR>
1.10263

>  <SCORE.RESTR.CAVITY>
1.10263

>  <SCORE.RESTR.norm>
0.0479406

>  <SCORE.SYSTEM>
0

>  <SCORE.SYSTEM.CONST>
0

>  <SCORE.SYSTEM.DIHEDRAL>
0

>  <SCORE.SYSTEM.SOLV>
0

>  <SCORE.SYSTEM.norm>
0

>  <SCORE.heavy>
23

>  <SCORE.norm>
0.182755

>  <RMSD>
6.290

$$$$

 OpenBabel11021811403D
libRbt.so/2013.1/901 2013/11/27
 23 25  0  0  0  0  0  0  0  0999 V2000
  -25.5861    8.6411    9.3799 S   0  0  0  0  0  0  0  0  0  0  0  0
  -23.4890    8.1777    7.3168 N   0  0  0  0  0  0  0  0  0  0  0  0
  -24.8588    6.9175    5.7840 C   0  0  0  0  0  0  0  0  0  0  0  0
  -26.1071    6.3648    5.4685 C   0  0  0  0  0  0  0  0  0  0  0  0
  -27.1810    6.5156    6.3406 C   0  0  0  0  0  0  0  0  0  0  0  0
  -27.0143    7.2133    7.5319 C   0  0  0  0  0  0  0  0  0  0  0  0
  -25.7775    7.7647    7.8570 C   0  0  0  0  0  0  0  0  0  0  0  0
  -24.6916    7.6210    6.9852 C   0  0  0  0  0  0  0  0  0  0  0  0
  -23.9860    7.9445    9.6435 C   0  0  0  0  0  0  0  0  0  0  0  0
  -23.5960    7.5501   10.9267 C   0  0  0  0  0  0  0  0  0  0  0  0
  -22.3260    7.0034   11.1320 C   0  0  0  0  0  0  0  0  0  0  0  0
  -21.4481    6.8568   10.0531 C   0  0  0  0  0  0  0  0  0  0  0  0
  -21.8435    7.2532    8.7750 C   0  0  0  0  0  0  0  0  0  0  0  0
  -23.1055    7.7924    8.5664 C   0  0  0  0  0  0  0  0  0  0  0  0
  -22.4546    8.3952    6.2752 C   0  0  0  0  0  0  0  0  0  0  0  0
  -21.3908    7.2640    6.0786 C   0  0  0  0  0  0  0  0  0  0  0  0
  -20.4149    7.5262    4.8810 C   0  0  0  0  0  0  0  0  0  0  0  0
  -20.0852    6.3794    3.9966 N   0  3  0  0  0  0  0  0  0  0  0  0
  -18.6701    6.4292    3.5466 C   0  0  0  0  0  0  0  0  0  0  0  0
  -21.0359    6.3177    2.8329 C   0  0  0  0  0  0  0  0  0  0  0  0
  -26.2961    5.6014    4.1886 C   0  0  0  0  0  0  0  0  0  0  0  0
  -25.2431    5.5818    3.1073 C   0  0  0  0  0  0  0  0  0  0  0  0
  -27.3020    4.9267    4.0368 O   0  0  0  0  0  0  0  0  0  0  0  0
  1  7  1  0  0  0  0
  1  9  1  0  0  0  0
  2  8  1  0  0  0  0
  2 14  1  0  0  0  0
  2 15  1  0  0  0  0
  3  4  2  0  0  0  0
  3  8  1  0  0  0  0
  4  5  1  0  0  0  0
  4 21  1  0  0  0  0
  5  6  2  0  0  0  0
  6  7  1  0  0  0  0
  7  8  2  0  0  0  0
  9 10  2  0  0  0  0
  9 14  1  0  0  0  0
 10 11  1  0  0  0  0
 11 12  2  0  0  0  0
 12 13  1  0  0  0  0
 13 14  2  0  0  0  0
 15 16  1  0  0  0  0
 16 17  1  0  0  0  0
 17 18  1  0  0  0  0
 18 19  1  0  0  0  0
 18 20  1  0  0  0  0
 21 22  1  0  0  0  0
 21 23  2  0  0  0  0
M  CHG  1  18   1
M  END
>  <CHROM.1>
-93.27538025,-9.79684783,175.18060406,-137.47795843,-23.26868947,-23.68983822
7.10184373,6.76064209,-2.12839659,-0.07304348,-1.85679520

>  <Name>


>  <RI>
0

>  <Rbt.Current_Directory>
/home/itssahil/PROJECTS/Mol_Feturizer/New_Systems/rnas/1lvj

>  <Rbt.Executable>
rbdock ($Id: //depot/dev/client3/rdock/2013.1/src/exe/rbdock.cxx#4 $)

>  <Rbt.Library>
libRbt.so (2013.1, Build901 2013/11/27)

>  <Rbt.Parameter_File>
/export/apps/rDock/src/rDock_2013.1_src/data/scripts/dock_solv.prm

>  <Rbt.Receptor>
prm/blind_docking_100.prm

>  <SCORE>
-11.4741

>  <SCORE.INTER>
-12.4233

>  <SCORE.INTER.CONST>
1

>  <SCORE.INTER.POLAR>
-1.27279

>  <SCORE.INTER.ROT>
5

>  <SCORE.INTER.SOLV>
21.802

>  <SCORE.INTER.VDW>
-18.2402

>  <SCORE.INTER.norm>
-0.540143

>  <SCORE.INTRA>
0.15697

>  <SCORE.INTRA.DIHEDRAL>
0.0377634

>  <SCORE.INTRA.DIHEDRAL.0>
8.06479

>  <SCORE.INTRA.POLAR>
0

>  <SCORE.INTRA.POLAR.0>
0

>  <SCORE.INTRA.REPUL>
0

>  <SCORE.INTRA.REPUL.0>
0

>  <SCORE.INTRA.SOLV>
0.748413

>  <SCORE.INTRA.SOLV.lig_0>
-29.8054

>  <SCORE.INTRA.VDW>
-0.236119

>  <SCORE.INTRA.VDW.0>
2.61447

>  <SCORE.INTRA.norm>
0.00682477

>  <SCORE.RESTR>
0.792258

>  <SCORE.RESTR.CAVITY>
0.792258

>  <SCORE.RESTR.norm>
0.034446

>  <SCORE.SYSTEM>
0

>  <SCORE.SYSTEM.CONST>
0

>  <SCORE.SYSTEM.DIHEDRAL>
0

>  <SCORE.SYSTEM.SOLV>
0

>  <SCORE.SYSTEM.norm>
0

>  <SCORE.heavy>
23

>  <SCORE.norm>
-0.498872

>  <RMSD>
6.295

$$$$

 OpenBabel11021811403D
libRbt.so/2013.1/901 2013/11/27
 23 25  0  0  0  0  0  0  0  0999 V2000
  -25.6305    9.0035    8.0359 S   0  0  0  0  0  0  0  0  0  0  0  0
  -23.8467    7.6952    6.0419 N   0  0  0  0  0  0  0  0  0  0  0  0
  -25.5178    6.2734    5.0419 C   0  0  0  0  0  0  0  0  0  0  0  0
  -26.8496    5.8408    4.9923 C   0  0  0  0  0  0  0  0  0  0  0  0
  -27.7938    6.3779    5.8621 C   0  0  0  0  0  0  0  0  0  0  0  0
  -27.4140    7.3442    6.7872 C   0  0  0  0  0  0  0  0  0  0  0  0
  -26.0927    7.7798    6.8472 C   0  0  0  0  0  0  0  0  0  0  0  0
  -25.1357    7.2478    5.9747 C   0  0  0  0  0  0  0  0  0  0  0  0
  -24.1034    8.1834    8.3680 C   0  0  0  0  0  0  0  0  0  0  0  0
  -23.6206    8.1044    9.6776 C   0  0  0  0  0  0  0  0  0  0  0  0
  -22.4082    7.4584    9.9357 C   0  0  0  0  0  0  0  0  0  0  0  0
  -21.6802    6.8966    8.8819 C   0  0  0  0  0  0  0  0  0  0  0  0
  -22.1674    6.9797    7.5770 C   0  0  0  0  0  0  0  0  0  0  0  0
  -23.3731    7.6166    7.3173 C   0  0  0  0  0  0  0  0  0  0  0  0
  -22.9175    7.4673    4.9076 C   0  0  0  0  0  0  0  0  0  0  0  0
  -21.5536    8.2346    4.9371 C   0  0  0  0  0  0  0  0  0  0  0  0
  -20.3791    7.4460    4.2633 C   0  0  0  0  0  0  0  0  0  0  0  0
  -20.4833    7.1636    2.8089 N   0  3  0  0  0  0  0  0  0  0  0  0
  -19.3676    6.3012    2.3411 C   0  0  0  0  0  0  0  0  0  0  0  0
  -20.5609    8.4448    2.0249 C   0  0  0  0  0  0  0  0  0  0  0  0
  -27.2690    4.7909    4.0032 C   0  0  0  0  0  0  0  0  0  0  0  0
  -28.6227    4.1263    4.0696 C   0  0  0  0  0  0  0  0  0  0  0  0
  -26.5223    4.5047    3.0808 O   0  0  0  0  0  0  0  0  0  0  0  0
  1  7  1  0  0  0  0
  1  9  1  0  0  0  0
  2  8  1  0  0  0  0
  2 14  1  0  0  0  0
  2 15  1  0  0  0  0
  3  4  2  0  0  0  0
  3  8  1  0  0  0  0
  4  5  1  0  0  0  0
  4 21  1  0  0  0  0
  5  6  2  0  0  0  0
  6  7  1  0  0  0  0
  7  8  2  0  0  0  0
  9 10  2  0  0  0  0
  9 14  1  0  0  0  0
 10 11  1  0  0  0  0
 11 12  2  0  0  0  0
 12 13  1  0  0  0  0
 13 14  2  0  0  0  0
 15 16  1  0  0  0  0
 16 17  1  0  0  0  0
 17 18  1  0  0  0  0
 18 19  1  0  0  0  0
 18 20  1  0  0  0  0
 21 22  1  0  0  0  0
 21 23  2  0  0  0  0
M  CHG  1  18   1
M  END
>  <CHROM.1>
168.71847669,169.25985303,148.18669127,63.87429693,-54.53845432,-24.08021987
7.10177057,5.82851849,-2.92622583,-0.25766723,-1.93348963

>  <Name>


>  <RI>
0

>  <Rbt.Current_Directory>
/home/itssahil/PROJECTS/Mol_Feturizer/New_Systems/rnas/1lvj

>  <Rbt.Executable>
rbdock ($Id: //depot/dev/client3/rdock/2013.1/src/exe/rbdock.cxx#4 $)

>  <Rbt.Library>
libRbt.so (2013.1, Build901 2013/11/27)

>  <Rbt.Parameter_File>
/export/apps/rDock/src/rDock_2013.1_src/data/scripts/dock_solv.prm

>  <Rbt.Receptor>
prm/blind_docking_40.prm

>  <SCORE>
1.35782

>  <SCORE.INTER>
3.09783

>  <SCORE.INTER.CONST>
1

>  <SCORE.INTER.POLAR>
0

>  <SCORE.INTER.ROT>
5

>  <SCORE.INTER.SOLV>
18.232

>  <SCORE.INTER.VDW>
-10.9455

>  <SCORE.INTER.norm>
0.134688

>  <SCORE.INTRA>
-2.46715

>  <SCORE.INTRA.DIHEDRAL>
-4.13573

>  <SCORE.INTRA.DIHEDRAL.0>
8.06479

>  <SCORE.INTRA.POLAR>
0

>  <SCORE.INTRA.POLAR.0>
0

>  <SCORE.INTRA.REPUL>
0

>  <SCORE.INTRA.REPUL.0>
0

>  <SCORE.INTRA.SOLV>
1.88442

>  <SCORE.INTRA.SOLV.lig_0>
-29.8054

>  <SCORE.INTRA.VDW>
-1.3415

>  <SCORE.INTRA.VDW.0>
2.61447

>  <SCORE.INTRA.norm>
-0.107267

>  <SCORE.RESTR>
0.727142

>  <SCORE.RESTR.CAVITY>
0.727142

>  <SCORE.RESTR.norm>
0.0316149

>  <SCORE.SYSTEM>
0

>  <SCORE.SYSTEM.CONST>
0

>  <SCORE.SYSTEM.DIHEDRAL>
0

>  <SCORE.SYSTEM.SOLV>
0

>  <SCORE.SYSTEM.norm>
0

>  <SCORE.heavy>
23

>  <SCORE.norm>
0.0590356

>  <RMSD>
6.298

$$$$

 OpenBabel11021811403D
libRbt.so/2013.1/901 2013/11/27
 23 25  0  0  0  0  0  0  0  0999 V2000
  -25.3230    8.5529   10.0620 S   0  0  0  0  0  0  0  0  0  0  0  0
  -23.1602    8.0538    8.0765 N   0  0  0  0  0  0  0  0  0  0  0  0
  -24.5517    7.0775    6.3663 C   0  0  0  0  0  0  0  0  0  0  0  0
  -25.8267    6.6856    5.9375 C   0  0  0  0  0  0  0  0  0  0  0  0
  -26.9315    6.8713    6.7630 C   0  0  0  0  0  0  0  0  0  0  0  0
  -26.7697    7.4436    8.0200 C   0  0  0  0  0  0  0  0  0  0  0  0
  -25.5068    7.8345    8.4576 C   0  0  0  0  0  0  0  0  0  0  0  0
  -24.3893    7.6546    7.6337 C   0  0  0  0  0  0  0  0  0  0  0  0
  -23.8181    7.6748   10.3433 C   0  0  0  0  0  0  0  0  0  0  0  0
  -23.5473    7.1340   11.6036 C   0  0  0  0  0  0  0  0  0  0  0  0
  -22.3520    6.4436   11.8237 C   0  0  0  0  0  0  0  0  0  0  0  0
  -21.4289    6.3000   10.7827 C   0  0  0  0  0  0  0  0  0  0  0  0
  -21.7051    6.8430    9.5274 C   0  0  0  0  0  0  0  0  0  0  0  0
  -22.8930    7.5254    9.3039 C   0  0  0  0  0  0  0  0  0  0  0  0
  -22.0482    8.2516    7.1140 C   0  0  0  0  0  0  0  0  0  0  0  0
  -21.6906    7.0480    6.1794 C   0  0  0  0  0  0  0  0  0  0  0  0
  -20.5388    7.3657    5.1657 C   0  0  0  0  0  0  0  0  0  0  0  0
  -20.2739    6.3757    4.0907 N   0  3  0  0  0  0  0  0  0  0  0  0
  -18.9123    6.5437    3.5202 C   0  0  0  0  0  0  0  0  0  0  0  0
  -21.3346    6.4523    3.0272 C   0  0  0  0  0  0  0  0  0  0  0  0
  -26.0118    6.0582    4.5853 C   0  0  0  0  0  0  0  0  0  0  0  0
  -24.8715    5.9204    3.6058 C   0  0  0  0  0  0  0  0  0  0  0  0
  -27.0987    5.5900    4.2860 O   0  0  0  0  0  0  0  0  0  0  0  0
  1  7  1  0  0  0  0
  1  9  1  0  0  0  0
  2  8  1  0  0  0  0
  2 14  1  0  0  0  0
  2 15  1  0  0  0  0
  3  4  2  0  0  0  0
  3  8  1  0  0  0  0
  4  5  1  0  0  0  0
  4 21  1  0  0  0  0
  5  6  2  0  0  0  0
  6  7  1  0  0  0  0
  7  8  2  0  0  0  0
  9 10  2  0  0  0  0
  9 14  1  0  0  0  0
 10 11  1  0  0  0  0
 11 12  2  0  0  0  0
 12 13  1  0  0  0  0
 13 14  2  0  0  0  0
 15 16  1  0  0  0  0
 16 17  1  0  0  0  0
 17 18  1  0  0  0  0
 18 19  1  0  0  0  0
 18 20  1  0  0  0  0
 21 22  1  0  0  0  0
 21 23  2  0  0  0  0
M  CHG  1  18   1
M  END
>  <CHROM.1>
-54.92635334,-4.64700528,178.02974984,-170.20076433,-40.13013863,-23.56231925
7.08968656,7.26202800,1.90014445,-0.00432225,1.39790406

>  <Name>


>  <RI>
0

>  <Rbt.Current_Directory>
/home/itssahil/PROJECTS/Mol_Feturizer/New_Systems/rnas/1lvj

>  <Rbt.Executable>
rbdock ($Id: //depot/dev/client3/rdock/2013.1/src/exe/rbdock.cxx#4 $)

>  <Rbt.Library>
libRbt.so (2013.1, Build901 2013/11/27)

>  <Rbt.Parameter_File>
/export/apps/rDock/src/rDock_2013.1_src/data/scripts/dock_solv.prm

>  <Rbt.Receptor>
prm/pocket_docking_4.prm

>  <SCORE>
-32.1633

>  <SCORE.INTER>
-27.7394

>  <SCORE.INTER.CONST>
1

>  <SCORE.INTER.POLAR>
-1.28839

>  <SCORE.INTER.ROT>
5

>  <SCORE.INTER.SOLV>
20.3358

>  <SCORE.INTER.VDW>
-27.9102

>  <SCORE.INTER.norm>
-1.20606

>  <SCORE.INTRA>
-4.42948

>  <SCORE.INTRA.DIHEDRAL>
-6.20702

>  <SCORE.INTRA.DIHEDRAL.0>
8.06479

>  <SCORE.INTRA.POLAR>
0

>  <SCORE.INTRA.POLAR.0>
0

>  <SCORE.INTRA.REPUL>
0

>  <SCORE.INTRA.REPUL.0>
0

>  <SCORE.INTRA.SOLV>
0.443772

>  <SCORE.INTRA.SOLV.lig_0>
-29.8054

>  <SCORE.INTRA.VDW>
-1.54786

>  <SCORE.INTRA.VDW.0>
2.61447

>  <SCORE.INTRA.norm>
-0.192586

>  <SCORE.RESTR>
0.00561813

>  <SCORE.RESTR.CAVITY>
0.00561813

>  <SCORE.RESTR.norm>
0.000244267

>  <SCORE.SYSTEM>
0

>  <SCORE.SYSTEM.CONST>
0

>  <SCORE.SYSTEM.DIHEDRAL>
0

>  <SCORE.SYSTEM.SOLV>
0

>  <SCORE.SYSTEM.norm>
0

>  <SCORE.heavy>
23

>  <SCORE.norm>
-1.3984

>  <RMSD>
6.301

$$$$

 OpenBabel11021811403D
libRbt.so/2013.1/901 2013/11/27
 23 25  0  0  0  0  0  0  0  0999 V2000
  -25.3099    8.5271   10.1088 S   0  0  0  0  0  0  0  0  0  0  0  0
  -23.1511    8.0764    8.1073 N   0  0  0  0  0  0  0  0  0  0  0  0
  -24.5403    7.1083    6.3906 C   0  0  0  0  0  0  0  0  0  0  0  0
  -25.8132    6.7090    5.9623 C   0  0  0  0  0  0  0  0  0  0  0  0
  -26.9161    6.8724    6.7951 C   0  0  0  0  0  0  0  0  0  0  0  0
  -26.7544    7.4298    8.0588 C   0  0  0  0  0  0  0  0  0  0  0  0
  -25.4936    7.8279    8.4959 C   0  0  0  0  0  0  0  0  0  0  0  0
  -24.3781    7.6704    7.6647 C   0  0  0  0  0  0  0  0  0  0  0  0
  -23.7947    7.6610   10.3719 C   0  0  0  0  0  0  0  0  0  0  0  0
  -23.5127    7.1065   11.6237 C   0  0  0  0  0  0  0  0  0  0  0  0
  -22.3093    6.4257   11.8293 C   0  0  0  0  0  0  0  0  0  0  0  0
  -21.3896    6.3052   10.7825 C   0  0  0  0  0  0  0  0  0  0  0  0
  -21.6771    6.8618    9.5357 C   0  0  0  0  0  0  0  0  0  0  0  0
  -22.8729    7.5348    9.3264 C   0  0  0  0  0  0  0  0  0  0  0  0
  -22.0456    8.2983    7.1426 C   0  0  0  0  0  0  0  0  0  0  0  0
  -21.5835    7.0686    6.2915 C   0  0  0  0  0  0  0  0  0  0  0  0
  -20.6130    7.4487    5.1215 C   0  0  0  0  0  0  0  0  0  0  0  0
  -20.2930    6.3976    4.1221 N   0  3  0  0  0  0  0  0  0  0  0  0
  -18.9097    6.5461    3.6006 C   0  0  0  0  0  0  0  0  0  0  0  0
  -21.3076    6.3960    3.0119 C   0  0  0  0  0  0  0  0  0  0  0  0
  -25.9981    6.0974    4.6028 C   0  0  0  0  0  0  0  0  0  0  0  0
  -24.8473    5.9252    3.6412 C   0  0  0  0  0  0  0  0  0  0  0  0
  -27.0959    5.6705    4.2824 O   0  0  0  0  0  0  0  0  0  0  0  0
  1  7  1  0  0  0  0
  1  9  1  0  0  0  0
  2  8  1  0  0  0  0
  2 14  1  0  0  0  0
  2 15  1  0  0  0  0
  3  4  2  0  0  0  0
  3  8  1  0  0  0  0
  4  5  1  0  0  0  0
  4 21  1  0  0  0  0
  5  6  2  0  0  0  0
  6  7  1  0  0  0  0
  7  8  2  0  0  0  0
  9 10  2  0  0  0  0
  9 14  1  0  0  0  0
 10 11  1  0  0  0  0
 11 12  2  0  0  0  0
 12 13  1  0  0  0  0
 13 14  2  0  0  0  0
 15 16  1  0  0  0  0
 16 17  1  0  0  0  0
 17 18  1  0  0  0  0
 18 19  1  0  0  0  0
 18 20  1  0  0  0  0
 21 22  1  0  0  0  0
 21 23  2  0  0  0  0
M  CHG  1  18   1
M  END
>  <CHROM.1>
-60.92694037,-1.71894409,169.05285776,-170.18485881,-27.25645615,-23.54651965
7.09965140,7.28919464,1.89349658,-0.00635808,1.40224814

>  <Name>


>  <RI>
0

>  <Rbt.Current_Directory>
/home/itssahil/PROJECTS/Mol_Feturizer/New_Systems/rnas/1lvj

>  <Rbt.Executable>
rbdock ($Id: //depot/dev/client3/rdock/2013.1/src/exe/rbdock.cxx#4 $)

>  <Rbt.Library>
libRbt.so (2013.1, Build901 2013/11/27)

>  <Rbt.Parameter_File>
/export/apps/rDock/src/rDock_2013.1_src/data/scripts/dock_solv.prm

>  <Rbt.Receptor>
prm/pocket_docking_4.prm

>  <SCORE>
-31.9963

>  <SCORE.INTER>
-27.608

>  <SCORE.INTER.CONST>
1

>  <SCORE.INTER.POLAR>
-1.29261

>  <SCORE.INTER.ROT>
5

>  <SCORE.INTER.SOLV>
20.5028

>  <SCORE.INTER.VDW>
-27.8642

>  <SCORE.INTER.norm>
-1.20035

>  <SCORE.INTRA>
-4.40442

>  <SCORE.INTRA.DIHEDRAL>
-4.95217

>  <SCORE.INTRA.DIHEDRAL.0>
8.06479

>  <SCORE.INTRA.POLAR>
0

>  <SCORE.INTRA.POLAR.0>
0

>  <SCORE.INTRA.REPUL>
0

>  <SCORE.INTRA.REPUL.0>
0

>  <SCORE.INTRA.SOLV>
0.57431

>  <SCORE.INTRA.SOLV.lig_0>
-29.8054

>  <SCORE.INTRA.VDW>
-2.21549

>  <SCORE.INTRA.VDW.0>
2.61447

>  <SCORE.INTRA.norm>
-0.191496

>  <SCORE.RESTR>
0.0160608

>  <SCORE.RESTR.CAVITY>
0.0160608

>  <SCORE.RESTR.norm>
0.000698298

>  <SCORE.SYSTEM>
0

>  <SCORE.SYSTEM.CONST>
0

>  <SCORE.SYSTEM.DIHEDRAL>
0

>  <SCORE.SYSTEM.SOLV>
0

>  <SCORE.SYSTEM.norm>
0

>  <SCORE.heavy>
23

>  <SCORE.norm>
-1.39114

>  <RMSD>
6.301

$$$$

 OpenBabel11021811403D
libRbt.so/2013.1/901 2013/11/27
 23 25  0  0  0  0  0  0  0  0999 V2000
  -26.9008    4.5683   11.6038 S   0  0  0  0  0  0  0  0  0  0  0  0
  -24.9766    6.4587   10.3417 N   0  0  0  0  0  0  0  0  0  0  0  0
  -22.9624    5.4231   11.1693 C   0  0  0  0  0  0  0  0  0  0  0  0
  -22.3590    4.4017   11.9148 C   0  0  0  0  0  0  0  0  0  0  0  0
  -23.1412    3.4419   12.5501 C   0  0  0  0  0  0  0  0  0  0  0  0
  -24.5269    3.4987   12.4490 C   0  0  0  0  0  0  0  0  0  0  0  0
  -25.1376    4.5108   11.7128 C   0  0  0  0  0  0  0  0  0  0  0  0
  -24.3596    5.4796   11.0676 C   0  0  0  0  0  0  0  0  0  0  0  0
  -26.9073    6.3275   11.7452 C   0  0  0  0  0  0  0  0  0  0  0  0
  -27.8884    6.9656   12.5098 C   0  0  0  0  0  0  0  0  0  0  0  0
  -27.8930    8.3594   12.6151 C   0  0  0  0  0  0  0  0  0  0  0  0
  -26.9180    9.1112   11.9515 C   0  0  0  0  0  0  0  0  0  0  0  0
  -25.9421    8.4680   11.1894 C   0  0  0  0  0  0  0  0  0  0  0  0
  -25.9316    7.0839   11.0860 C   0  0  0  0  0  0  0  0  0  0  0  0
  -24.2099    7.2406    9.3402 C   0  0  0  0  0  0  0  0  0  0  0  0
  -25.0074    7.8194    8.1241 C   0  0  0  0  0  0  0  0  0  0  0  0
  -24.0915    8.4507    7.0206 C   0  0  0  0  0  0  0  0  0  0  0  0
  -23.3266    7.5248    6.1468 N   0  3  0  0  0  0  0  0  0  0  0  0
  -22.1317    8.1888    5.5648 C   0  0  0  0  0  0  0  0  0  0  0  0
  -24.2158    6.9476    5.0799 C   0  0  0  0  0  0  0  0  0  0  0  0
  -20.8634    4.3359   12.0382 C   0  0  0  0  0  0  0  0  0  0  0  0
  -20.1642    3.1478   12.6531 C   0  0  0  0  0  0  0  0  0  0  0  0
  -20.1840    5.2387   11.5762 O   0  0  0  0  0  0  0  0  0  0  0  0
  1  7  1  0  0  0  0
  1  9  1  0  0  0  0
  2  8  1  0  0  0  0
  2 14  1  0  0  0  0
  2 15  1  0  0  0  0
  3  4  2  0  0  0  0
  3  8  1  0  0  0  0
  4  5  1  0  0  0  0
  4 21  1  0  0  0  0
  5  6  2  0  0  0  0
  6  7  1  0  0  0  0
  7  8  2  0  0  0  0
  9 10  2  0  0  0  0
  9 14  1  0  0  0  0
 10 11  1  0  0  0  0
 11 12  2  0  0  0  0
 12 13  1  0  0  0  0
 13 14  2  0  0  0  0
 15 16  1  0  0  0  0
 16 17  1  0  0  0  0
 17 18  1  0  0  0  0
 18 19  1  0  0  0  0
 18 20  1  0  0  0  0
 21 22  1  0  0  0  0
 21 23  2  0  0  0  0
M  CHG  1  18   1
M  END
>  <CHROM.1>
151.91648270,-170.72533218,-171.77070994,74.23168634,-36.57317686,-24.41687136
6.14714806,10.45434084,1.56884012,-0.41824997,2.10456889

>  <Name>


>  <RI>
0

>  <Rbt.Current_Directory>
/home/itssahil/PROJECTS/Mol_Feturizer/New_Systems/rnas/1lvj

>  <Rbt.Executable>
rbdock ($Id: //depot/dev/client3/rdock/2013.1/src/exe/rbdock.cxx#4 $)

>  <Rbt.Library>
libRbt.so (2013.1, Build901 2013/11/27)

>  <Rbt.Parameter_File>
/export/apps/rDock/src/rDock_2013.1_src/data/scripts/dock_solv.prm

>  <Rbt.Receptor>
prm/pocket_docking_5.prm

>  <SCORE>
-33.1686

>  <SCORE.INTER>
-28.9965

>  <SCORE.INTER.CONST>
1

>  <SCORE.INTER.POLAR>
-1.40712

>  <SCORE.INTER.ROT>
5

>  <SCORE.INTER.SOLV>
13.4555

>  <SCORE.INTER.VDW>
-26.0591

>  <SCORE.INTER.norm>
-1.26072

>  <SCORE.INTRA>
-4.17217

>  <SCORE.INTRA.DIHEDRAL>
-5.22052

>  <SCORE.INTRA.DIHEDRAL.0>
8.06479

>  <SCORE.INTRA.POLAR>
0

>  <SCORE.INTRA.POLAR.0>
0

>  <SCORE.INTRA.REPUL>
0

>  <SCORE.INTRA.REPUL.0>
0

>  <SCORE.INTRA.SOLV>
1.90516

>  <SCORE.INTRA.SOLV.lig_0>
-29.8054

>  <SCORE.INTRA.VDW>
-2.51449

>  <SCORE.INTRA.VDW.0>
2.61447

>  <SCORE.INTRA.norm>
-0.181399

>  <SCORE.RESTR>
0

>  <SCORE.RESTR.CAVITY>
0

>  <SCORE.RESTR.norm>
0

>  <SCORE.SYSTEM>
0

>  <SCORE.SYSTEM.CONST>
0

>  <SCORE.SYSTEM.DIHEDRAL>
0

>  <SCORE.SYSTEM.SOLV>
0

>  <SCORE.SYSTEM.norm>
0

>  <SCORE.heavy>
23

>  <SCORE.norm>
-1.44211

>  <RMSD>
6.302

$$$$

 OpenBabel11021811403D
libRbt.so/2013.1/901 2013/11/27
 23 25  0  0  0  0  0  0  0  0999 V2000
  -21.0637    7.1850   10.8673 S   0  0  0  0  0  0  0  0  0  0  0  0
  -23.8697    6.2051   11.0553 N   0  0  0  0  0  0  0  0  0  0  0  0
  -24.4949    6.6664    8.7726 C   0  0  0  0  0  0  0  0  0  0  0  0
  -24.1377    7.1461    7.5056 C   0  0  0  0  0  0  0  0  0  0  0  0
  -22.8516    7.6250    7.2745 C   0  0  0  0  0  0  0  0  0  0  0  0
  -21.9185    7.6320    8.3055 C   0  0  0  0  0  0  0  0  0  0  0  0
  -22.2632    7.1599    9.5695 C   0  0  0  0  0  0  0  0  0  0  0  0
  -23.5535    6.6735    9.8115 C   0  0  0  0  0  0  0  0  0  0  0  0
  -22.2745    7.6808   12.0518 C   0  0  0  0  0  0  0  0  0  0  0  0
  -21.9513    8.6238   13.0318 C   0  0  0  0  0  0  0  0  0  0  0  0
  -22.9117    9.0100   13.9711 C   0  0  0  0  0  0  0  0  0  0  0  0
  -24.1919    8.4482   13.9296 C   0  0  0  0  0  0  0  0  0  0  0  0
  -24.5076    7.5068   12.9492 C   0  0  0  0  0  0  0  0  0  0  0  0
  -23.5579    7.1241   12.0120 C   0  0  0  0  0  0  0  0  0  0  0  0
  -25.0556    5.3336   11.2454 C   0  0  0  0  0  0  0  0  0  0  0  0
  -25.0742    4.4211   12.5169 C   0  0  0  0  0  0  0  0  0  0  0  0
  -26.1406    3.2751   12.4473 C   0  0  0  0  0  0  0  0  0  0  0  0
  -27.5593    3.6649   12.2446 N   0  3  0  0  0  0  0  0  0  0  0  0
  -27.8500    3.9341   10.8126 C   0  0  0  0  0  0  0  0  0  0  0  0
  -27.9150    4.8398   13.1136 C   0  0  0  0  0  0  0  0  0  0  0  0
  -25.1403    7.1517    6.3870 C   0  0  0  0  0  0  0  0  0  0  0  0
  -26.6240    7.0447    6.6437 C   0  0  0  0  0  0  0  0  0  0  0  0
  -24.7558    7.3071    5.2389 O   0  0  0  0  0  0  0  0  0  0  0  0
  1  7  1  0  0  0  0
  1  9  1  0  0  0  0
  2  8  1  0  0  0  0
  2 14  1  0  0  0  0
  2 15  1  0  0  0  0
  3  4  2  0  0  0  0
  3  8  1  0  0  0  0
  4  5  1  0  0  0  0
  4 21  1  0  0  0  0
  5  6  2  0  0  0  0
  6  7  1  0  0  0  0
  7  8  2  0  0  0  0
  9 10  2  0  0  0  0
  9 14  1  0  0  0  0
 10 11  1  0  0  0  0
 11 12  2  0  0  0  0
 12 13  1  0  0  0  0
 13 14  2  0  0  0  0
 15 16  1  0  0  0  0
 16 17  1  0  0  0  0
 17 18  1  0  0  0  0
 18 19  1  0  0  0  0
 18 20  1  0  0  0  0
 21 22  1  0  0  0  0
 21 23  2  0  0  0  0
M  CHG  1  18   1
M  END
>  <CHROM.1>
157.94003432,18.30165876,-164.35026786,-57.42235382,-158.84888366,-24.25049466
6.55783844,10.52317031,-1.10379783,0.59395056,1.67857861

>  <Name>


>  <RI>
0

>  <Rbt.Current_Directory>
/home/itssahil/PROJECTS/Mol_Feturizer/New_Systems/rnas/1lvj

>  <Rbt.Executable>
rbdock ($Id: //depot/dev/client3/rdock/2013.1/src/exe/rbdock.cxx#4 $)

>  <Rbt.Library>
libRbt.so (2013.1, Build901 2013/11/27)

>  <Rbt.Parameter_File>
/export/apps/rDock/src/rDock_2013.1_src/data/scripts/dock_solv.prm

>  <Rbt.Receptor>
prm/pocket_docking_4.prm

>  <SCORE>
-22.7423

>  <SCORE.INTER>
-20.0677

>  <SCORE.INTER.CONST>
1

>  <SCORE.INTER.POLAR>
0

>  <SCORE.INTER.ROT>
5

>  <SCORE.INTER.SOLV>
9.83127

>  <SCORE.INTER.VDW>
-23.5889

>  <SCORE.INTER.norm>
-0.872509

>  <SCORE.INTRA>
-2.67458

>  <SCORE.INTRA.DIHEDRAL>
-4.86679

>  <SCORE.INTRA.DIHEDRAL.0>
8.06479

>  <SCORE.INTRA.POLAR>
0

>  <SCORE.INTRA.POLAR.0>
0

>  <SCORE.INTRA.REPUL>
0

>  <SCORE.INTRA.REPUL.0>
0

>  <SCORE.INTRA.SOLV>
-0.340985

>  <SCORE.INTRA.SOLV.lig_0>
-29.8054

>  <SCORE.INTRA.VDW>
-0.07069

>  <SCORE.INTRA.VDW.0>
2.61447

>  <SCORE.INTRA.norm>
-0.116286

>  <SCORE.RESTR>
0

>  <SCORE.RESTR.CAVITY>
0

>  <SCORE.RESTR.norm>
0

>  <SCORE.SYSTEM>
0

>  <SCORE.SYSTEM.CONST>
0

>  <SCORE.SYSTEM.DIHEDRAL>
0

>  <SCORE.SYSTEM.SOLV>
0

>  <SCORE.SYSTEM.norm>
0

>  <SCORE.heavy>
23

>  <SCORE.norm>
-0.988795

>  <RMSD>
6.311

$$$$

 OpenBabel11021811403D
libRbt.so/2013.1/901 2013/11/27
 23 25  0  0  0  0  0  0  0  0999 V2000
  -22.6171    7.5393   10.5215 S   0  0  0  0  0  0  0  0  0  0  0  0
  -25.4038    6.4926   10.4331 N   0  0  0  0  0  0  0  0  0  0  0  0
  -25.6941    6.6329    8.0435 C   0  0  0  0  0  0  0  0  0  0  0  0
  -25.1624    6.9576    6.7885 C   0  0  0  0  0  0  0  0  0  0  0  0
  -23.8645    7.4481    6.6829 C   0  0  0  0  0  0  0  0  0  0  0  0
  -23.0933    7.6213    7.8271 C   0  0  0  0  0  0  0  0  0  0  0  0
  -23.6122    7.3043    9.0798 C   0  0  0  0  0  0  0  0  0  0  0  0
  -24.9160    6.8075    9.1966 C   0  0  0  0  0  0  0  0  0  0  0  0
  -23.9969    8.1404   11.4433 C   0  0  0  0  0  0  0  0  0  0  0  0
  -23.8368    9.2129   12.3255 C   0  0  0  0  0  0  0  0  0  0  0  0
  -24.9310    9.6827   13.0575 C   0  0  0  0  0  0  0  0  0  0  0  0
  -26.1819    9.0750   12.9077 C   0  0  0  0  0  0  0  0  0  0  0  0
  -26.3345    8.0043   12.0260 C   0  0  0  0  0  0  0  0  0  0  0  0
  -25.2512    7.5379   11.2941 C   0  0  0  0  0  0  0  0  0  0  0  0
  -26.5904    5.6112   10.5651 C   0  0  0  0  0  0  0  0  0  0  0  0
  -26.7063    4.7617   11.8746 C   0  0  0  0  0  0  0  0  0  0  0  0
  -27.9502    3.8091   11.8925 C   0  0  0  0  0  0  0  0  0  0  0  0
  -28.1917    3.0136   13.1233 N   0  3  0  0  0  0  0  0  0  0  0  0
  -29.1204    1.8827   12.8663 C   0  0  0  0  0  0  0  0  0  0  0  0
  -28.6865    3.8965   14.2358 C   0  0  0  0  0  0  0  0  0  0  0  0
  -25.9897    6.7831    5.5469 C   0  0  0  0  0  0  0  0  0  0  0  0
  -27.4908    6.6340    5.6016 C   0  0  0  0  0  0  0  0  0  0  0  0
  -25.4460    6.8219    4.4546 O   0  0  0  0  0  0  0  0  0  0  0  0
  1  7  1  0  0  0  0
  1  9  1  0  0  0  0
  2  8  1  0  0  0  0
  2 14  1  0  0  0  0
  2 15  1  0  0  0  0
  3  4  2  0  0  0  0
  3  8  1  0  0  0  0
  4  5  1  0  0  0  0
  4 21  1  0  0  0  0
  5  6  2  0  0  0  0
  6  7  1  0  0  0  0
  7  8  2  0  0  0  0
  9 10  2  0  0  0  0
  9 14  1  0  0  0  0
 10 11  1  0  0  0  0
 11 12  2  0  0  0  0
 12 13  1  0  0  0  0
 13 14  2  0  0  0  0
 15 16  1  0  0  0  0
 16 17  1  0  0  0  0
 17 18  1  0  0  0  0
 18 19  1  0  0  0  0
 18 20  1  0  0  0  0
 21 22  1  0  0  0  0
 21 23  2  0  0  0  0
M  CHG  1  18   1
M  END
>  <CHROM.1>
152.04933415,17.24986907,-177.04570913,-176.74210549,-42.76306671,-25.60821406
6.55328183,10.12274643,-0.88966534,0.82278020,1.51000118

>  <Name>


>  <RI>
0

>  <Rbt.Current_Directory>
/home/itssahil/PROJECTS/Mol_Feturizer/New_Systems/rnas/1lvj

>  <Rbt.Executable>
rbdock ($Id: //depot/dev/client3/rdock/2013.1/src/exe/rbdock.cxx#4 $)

>  <Rbt.Library>
libRbt.so (2013.1, Build901 2013/11/27)

>  <Rbt.Parameter_File>
/export/apps/rDock/src/rDock_2013.1_src/data/scripts/dock_solv.prm

>  <Rbt.Receptor>
prm/pocket_docking_7.prm

>  <SCORE>
-27.2859

>  <SCORE.INTER>
-22.0734

>  <SCORE.INTER.CONST>
1

>  <SCORE.INTER.POLAR>
0

>  <SCORE.INTER.ROT>
5

>  <SCORE.INTER.SOLV>
9.73687

>  <SCORE.INTER.VDW>
-24.8946

>  <SCORE.INTER.norm>
-0.959713

>  <SCORE.INTRA>
-5.21254

>  <SCORE.INTRA.DIHEDRAL>
-5.9128

>  <SCORE.INTRA.DIHEDRAL.0>
8.06479

>  <SCORE.INTRA.POLAR>
0

>  <SCORE.INTRA.POLAR.0>
0

>  <SCORE.INTRA.REPUL>
0

>  <SCORE.INTRA.REPUL.0>
0

>  <SCORE.INTRA.SOLV>
0.444833

>  <SCORE.INTRA.SOLV.lig_0>
-29.8054

>  <SCORE.INTRA.VDW>
-2.47855

>  <SCORE.INTRA.VDW.0>
2.61447

>  <SCORE.INTRA.norm>
-0.226632

>  <SCORE.RESTR>
0

>  <SCORE.RESTR.CAVITY>
0

>  <SCORE.RESTR.norm>
0

>  <SCORE.SYSTEM>
0

>  <SCORE.SYSTEM.CONST>
0

>  <SCORE.SYSTEM.DIHEDRAL>
0

>  <SCORE.SYSTEM.SOLV>
0

>  <SCORE.SYSTEM.norm>
0

>  <SCORE.heavy>
23

>  <SCORE.norm>
-1.18634

>  <RMSD>
6.319

$$$$

 OpenBabel11021811403D
libRbt.so/2013.1/901 2013/11/27
 23 25  0  0  0  0  0  0  0  0999 V2000
  -25.4323    8.6443    9.7162 S   0  0  0  0  0  0  0  0  0  0  0  0
  -23.2183    8.1458    7.7878 N   0  0  0  0  0  0  0  0  0  0  0  0
  -24.5406    7.0378    6.1032 C   0  0  0  0  0  0  0  0  0  0  0  0
  -25.7914    6.5753    5.6737 C   0  0  0  0  0  0  0  0  0  0  0  0
  -26.9165    6.7523    6.4734 C   0  0  0  0  0  0  0  0  0  0  0  0
  -26.7988    7.3864    7.7054 C   0  0  0  0  0  0  0  0  0  0  0  0
  -25.5602    7.8479    8.1435 C   0  0  0  0  0  0  0  0  0  0  0  0
  -24.4227    7.6772    7.3453 C   0  0  0  0  0  0  0  0  0  0  0  0
  -23.8981    7.8421   10.0595 C   0  0  0  0  0  0  0  0  0  0  0  0
  -23.6269    7.3697   11.3469 C   0  0  0  0  0  0  0  0  0  0  0  0
  -22.4086    6.7394   11.6158 C   0  0  0  0  0  0  0  0  0  0  0  0
  -21.4632    6.5873   10.5963 C   0  0  0  0  0  0  0  0  0  0  0  0
  -21.7400    7.0618    9.3137 C   0  0  0  0  0  0  0  0  0  0  0  0
  -22.9505    7.6843    9.0417 C   0  0  0  0  0  0  0  0  0  0  0  0
  -22.0992    8.3458    6.8340 C   0  0  0  0  0  0  0  0  0  0  0  0
  -21.6167    7.0942    6.0273 C   0  0  0  0  0  0  0  0  0  0  0  0
  -20.5013    7.4209    4.9764 C   0  0  0  0  0  0  0  0  0  0  0  0
  -20.1516    6.3657    3.9915 N   0  3  0  0  0  0  0  0  0  0  0  0
  -18.7482    6.5024    3.5232 C   0  0  0  0  0  0  0  0  0  0  0  0
  -21.1229    6.3705    2.8431 C   0  0  0  0  0  0  0  0  0  0  0  0
  -25.9286    5.8809    4.3487 C   0  0  0  0  0  0  0  0  0  0  0  0
  -24.7775    5.7788    3.3775 C   0  0  0  0  0  0  0  0  0  0  0  0
  -26.9806    5.3291    4.0678 O   0  0  0  0  0  0  0  0  0  0  0  0
  1  7  1  0  0  0  0
  1  9  1  0  0  0  0
  2  8  1  0  0  0  0
  2 14  1  0  0  0  0
  2 15  1  0  0  0  0
  3  4  2  0  0  0  0
  3  8  1  0  0  0  0
  4  5  1  0  0  0  0
  4 21  1  0  0  0  0
  5  6  2  0  0  0  0
  6  7  1  0  0  0  0
  7  8  2  0  0  0  0
  9 10  2  0  0  0  0
  9 14  1  0  0  0  0
 10 11  1  0  0  0  0
 11 12  2  0  0  0  0
 12 13  1  0  0  0  0
 13 14  2  0  0  0  0
 15 16  1  0  0  0  0
 16 17  1  0  0  0  0
 17 18  1  0  0  0  0
 18 19  1  0  0  0  0
 18 20  1  0  0  0  0
 21 22  1  0  0  0  0
 21 23  2  0  0  0  0
M  CHG  1  18   1
M  END
>  <CHROM.1>
-58.77272219,-6.32922370,176.01915168,-169.01712021,-32.82029220,-23.55223032
7.12108602,7.02602417,1.94381922,0.02413457,1.34777493

>  <Name>


>  <RI>
0

>  <Rbt.Current_Directory>
/home/itssahil/PROJECTS/Mol_Feturizer/New_Systems/rnas/1lvj

>  <Rbt.Executable>
rbdock ($Id: //depot/dev/client3/rdock/2013.1/src/exe/rbdock.cxx#4 $)

>  <Rbt.Library>
libRbt.so (2013.1, Build901 2013/11/27)

>  <Rbt.Parameter_File>
/export/apps/rDock/src/rDock_2013.1_src/data/scripts/dock_solv.prm

>  <Rbt.Receptor>
prm/blind_docking_100.prm

>  <SCORE>
-30.5239

>  <SCORE.INTER>
-27.5544

>  <SCORE.INTER.CONST>
1

>  <SCORE.INTER.POLAR>
-1.27279

>  <SCORE.INTER.ROT>
5

>  <SCORE.INTER.SOLV>
20.6859

>  <SCORE.INTER.VDW>
-27.9556

>  <SCORE.INTER.norm>
-1.19802

>  <SCORE.INTRA>
-4.51233

>  <SCORE.INTRA.DIHEDRAL>
-5.4996

>  <SCORE.INTRA.DIHEDRAL.0>
8.06479

>  <SCORE.INTRA.POLAR>
0

>  <SCORE.INTRA.POLAR.0>
0

>  <SCORE.INTRA.REPUL>
0

>  <SCORE.INTRA.REPUL.0>
0

>  <SCORE.INTRA.SOLV>
0.519805

>  <SCORE.INTRA.SOLV.lig_0>
-29.8054

>  <SCORE.INTRA.VDW>
-2.02243

>  <SCORE.INTRA.VDW.0>
2.61447

>  <SCORE.INTRA.norm>
-0.196188

>  <SCORE.RESTR>
1.54281

>  <SCORE.RESTR.CAVITY>
1.54281

>  <SCORE.RESTR.norm>
0.0670785

>  <SCORE.SYSTEM>
0

>  <SCORE.SYSTEM.CONST>
0

>  <SCORE.SYSTEM.DIHEDRAL>
0

>  <SCORE.SYSTEM.SOLV>
0

>  <SCORE.SYSTEM.norm>
0

>  <SCORE.heavy>
23

>  <SCORE.norm>
-1.32713

>  <RMSD>
6.321

$$$$

 OpenBabel11021811403D
libRbt.so/2013.1/901 2013/11/27
 23 25  0  0  0  0  0  0  0  0999 V2000
  -25.4290    8.6715    9.6820 S   0  0  0  0  0  0  0  0  0  0  0  0
  -23.2183    8.1615    7.7529 N   0  0  0  0  0  0  0  0  0  0  0  0
  -24.5422    7.0373    6.0803 C   0  0  0  0  0  0  0  0  0  0  0  0
  -25.7931    6.5689    5.6573 C   0  0  0  0  0  0  0  0  0  0  0  0
  -26.9167    6.7504    6.4580 C   0  0  0  0  0  0  0  0  0  0  0  0
  -26.7976    7.3947    7.6845 C   0  0  0  0  0  0  0  0  0  0  0  0
  -25.5589    7.8621    8.1162 C   0  0  0  0  0  0  0  0  0  0  0  0
  -24.4228    7.6870    7.3169 C   0  0  0  0  0  0  0  0  0  0  0  0
  -23.8926    7.8750   10.0284 C   0  0  0  0  0  0  0  0  0  0  0  0
  -23.6177    7.4136   11.3191 C   0  0  0  0  0  0  0  0  0  0  0  0
  -22.3976    6.7878   11.5904 C   0  0  0  0  0  0  0  0  0  0  0  0
  -21.4542    6.6292   10.5701 C   0  0  0  0  0  0  0  0  0  0  0  0
  -21.7347    7.0927    9.2843 C   0  0  0  0  0  0  0  0  0  0  0  0
  -22.9469    7.7107    9.0099 C   0  0  0  0  0  0  0  0  0  0  0  0
  -22.1016    8.3557    6.7950 C   0  0  0  0  0  0  0  0  0  0  0  0
  -21.5939    7.0912    6.0248 C   0  0  0  0  0  0  0  0  0  0  0  0
  -20.4390    7.3995    5.0116 C   0  0  0  0  0  0  0  0  0  0  0  0
  -20.1231    6.3673    3.9915 N   0  3  0  0  0  0  0  0  0  0  0  0
  -18.7228    6.4895    3.5099 C   0  0  0  0  0  0  0  0  0  0  0  0
  -21.1077    6.4261    2.8561 C   0  0  0  0  0  0  0  0  0  0  0  0
  -25.9318    5.8635    4.3383 C   0  0  0  0  0  0  0  0  0  0  0  0
  -24.7826    5.7556    3.3655 C   0  0  0  0  0  0  0  0  0  0  0  0
  -26.9833    5.3074    4.0642 O   0  0  0  0  0  0  0  0  0  0  0  0
  1  7  1  0  0  0  0
  1  9  1  0  0  0  0
  2  8  1  0  0  0  0
  2 14  1  0  0  0  0
  2 15  1  0  0  0  0
  3  4  2  0  0  0  0
  3  8  1  0  0  0  0
  4  5  1  0  0  0  0
  4 21  1  0  0  0  0
  5  6  2  0  0  0  0
  6  7  1  0  0  0  0
  7  8  2  0  0  0  0
  9 10  2  0  0  0  0
  9 14  1  0  0  0  0
 10 11  1  0  0  0  0
 11 12  2  0  0  0  0
 12 13  1  0  0  0  0
 13 14  2  0  0  0  0
 15 16  1  0  0  0  0
 16 17  1  0  0  0  0
 17 18  1  0  0  0  0
 18 19  1  0  0  0  0
 18 20  1  0  0  0  0
 21 22  1  0  0  0  0
 21 23  2  0  0  0  0
M  CHG  1  18   1
M  END
>  <CHROM.1>
-60.31655992,-6.33038921,178.57143592,-164.66842372,-35.59763845,-23.54407151
7.13263047,7.00809111,1.95374599,0.02674961,1.34052514

>  <Name>


>  <RI>
0

>  <Rbt.Current_Directory>
/home/itssahil/PROJECTS/Mol_Feturizer/New_Systems/rnas/1lvj

>  <Rbt.Executable>
rbdock ($Id: //depot/dev/client3/rdock/2013.1/src/exe/rbdock.cxx#4 $)

>  <Rbt.Library>
libRbt.so (2013.1, Build901 2013/11/27)

>  <Rbt.Parameter_File>
/export/apps/rDock/src/rDock_2013.1_src/data/scripts/dock_solv.prm

>  <Rbt.Receptor>
prm/blind_docking_100.prm

>  <SCORE>
-30.0025

>  <SCORE.INTER>
-26.8954

>  <SCORE.INTER.CONST>
1

>  <SCORE.INTER.POLAR>
-1.26957

>  <SCORE.INTER.ROT>
5

>  <SCORE.INTER.SOLV>
20.756

>  <SCORE.INTER.VDW>
-27.5504

>  <SCORE.INTER.norm>
-1.16937

>  <SCORE.INTRA>
-4.57255

>  <SCORE.INTRA.DIHEDRAL>
-5.44735

>  <SCORE.INTRA.DIHEDRAL.0>
8.06479

>  <SCORE.INTRA.POLAR>
0

>  <SCORE.INTRA.POLAR.0>
0

>  <SCORE.INTRA.REPUL>
0

>  <SCORE.INTRA.REPUL.0>
0

>  <SCORE.INTRA.SOLV>
0.486309

>  <SCORE.INTRA.SOLV.lig_0>
-29.8054

>  <SCORE.INTRA.VDW>
-2.09203

>  <SCORE.INTRA.VDW.0>
2.61447

>  <SCORE.INTRA.norm>
-0.198807

>  <SCORE.RESTR>
1.46544

>  <SCORE.RESTR.CAVITY>
1.46544

>  <SCORE.RESTR.norm>
0.0637148

>  <SCORE.SYSTEM>
0

>  <SCORE.SYSTEM.CONST>
0

>  <SCORE.SYSTEM.DIHEDRAL>
0

>  <SCORE.SYSTEM.SOLV>
0

>  <SCORE.SYSTEM.norm>
0

>  <SCORE.heavy>
23

>  <SCORE.norm>
-1.30446

>  <RMSD>
6.324

$$$$

 OpenBabel11021811403D
libRbt.so/2013.1/901 2013/11/27
 23 25  0  0  0  0  0  0  0  0999 V2000
  -26.9921    4.6066   11.6176 S   0  0  0  0  0  0  0  0  0  0  0  0
  -25.0100    6.4365   10.3560 N   0  0  0  0  0  0  0  0  0  0  0  0
  -23.0303    5.3666   11.2221 C   0  0  0  0  0  0  0  0  0  0  0  0
  -22.4595    4.3417   11.9881 C   0  0  0  0  0  0  0  0  0  0  0  0
  -23.2710    3.4081   12.6257 C   0  0  0  0  0  0  0  0  0  0  0  0
  -24.6538    3.4949   12.5063 C   0  0  0  0  0  0  0  0  0  0  0  0
  -25.2322    4.5108   11.7496 C   0  0  0  0  0  0  0  0  0  0  0  0
  -24.4245    5.4533   11.1020 C   0  0  0  0  0  0  0  0  0  0  0  0
  -26.9604    6.3672   11.7365 C   0  0  0  0  0  0  0  0  0  0  0  0
  -27.9362    7.0371   12.4804 C   0  0  0  0  0  0  0  0  0  0  0  0
  -27.9105    8.4319   12.5679 C   0  0  0  0  0  0  0  0  0  0  0  0
  -26.9105    9.1529   11.9072 C   0  0  0  0  0  0  0  0  0  0  0  0
  -25.9401    8.4780   11.1657 C   0  0  0  0  0  0  0  0  0  0  0  0
  -25.9597    7.0927   11.0801 C   0  0  0  0  0  0  0  0  0  0  0  0
  -24.2134    7.1879    9.3544 C   0  0  0  0  0  0  0  0  0  0  0  0
  -24.9762    7.7385    8.1034 C   0  0  0  0  0  0  0  0  0  0  0  0
  -24.0372    8.4182    7.0491 C   0  0  0  0  0  0  0  0  0  0  0  0
  -23.2384    7.5320    6.1646 N   0  3  0  0  0  0  0  0  0  0  0  0
  -22.0518    8.2379    5.6157 C   0  0  0  0  0  0  0  0  0  0  0  0
  -24.0988    6.9601    5.0716 C   0  0  0  0  0  0  0  0  0  0  0  0
  -20.9674    4.2438   12.1314 C   0  0  0  0  0  0  0  0  0  0  0  0
  -20.0485    5.3608   11.6996 C   0  0  0  0  0  0  0  0  0  0  0  0
  -20.4803    3.2605   12.6663 O   0  0  0  0  0  0  0  0  0  0  0  0
  1  7  1  0  0  0  0
  1  9  1  0  0  0  0
  2  8  1  0  0  0  0
  2 14  1  0  0  0  0
  2 15  1  0  0  0  0
  3  4  2  0  0  0  0
  3  8  1  0  0  0  0
  4  5  1  0  0  0  0
  4 21  1  0  0  0  0
  5  6  2  0  0  0  0
  6  7  1  0  0  0  0
  7  8  2  0  0  0  0
  9 10  2  0  0  0  0
  9 14  1  0  0  0  0
 10 11  1  0  0  0  0
 11 12  2  0  0  0  0
 12 13  1  0  0  0  0
 13 14  2  0  0  0  0
 15 16  1  0  0  0  0
 16 17  1  0  0  0  0
 17 18  1  0  0  0  0
 18 19  1  0  0  0  0
 18 20  1  0  0  0  0
 21 22  1  0  0  0  0
 21 23  2  0  0  0  0
M  CHG  1  18   1
M  END
>  <CHROM.1>
150.45687756,11.98178884,-175.46358570,77.13656474,-37.86017001,-24.45121811
6.15019172,10.47928738,1.65445093,-0.41368749,2.11546043

>  <Name>


>  <RI>
0

>  <Rbt.Current_Directory>
/home/itssahil/PROJECTS/Mol_Feturizer/New_Systems/rnas/1lvj

>  <Rbt.Executable>
rbdock ($Id: //depot/dev/client3/rdock/2013.1/src/exe/rbdock.cxx#4 $)

>  <Rbt.Library>
libRbt.so (2013.1, Build901 2013/11/27)

>  <Rbt.Parameter_File>
/export/apps/rDock/src/rDock_2013.1_src/data/scripts/dock_solv.prm

>  <Rbt.Receptor>
prm/pocket_docking_8.prm

>  <SCORE>
-33.3033

>  <SCORE.INTER>
-29.1124

>  <SCORE.INTER.CONST>
1

>  <SCORE.INTER.POLAR>
-1.40712

>  <SCORE.INTER.ROT>
5

>  <SCORE.INTER.SOLV>
13.3053

>  <SCORE.INTER.VDW>
-26.0863

>  <SCORE.INTER.norm>
-1.26576

>  <SCORE.INTRA>
-4.19093

>  <SCORE.INTRA.DIHEDRAL>
-4.94889

>  <SCORE.INTRA.DIHEDRAL.0>
8.06479

>  <SCORE.INTRA.POLAR>
0

>  <SCORE.INTRA.POLAR.0>
0

>  <SCORE.INTRA.REPUL>
0

>  <SCORE.INTRA.REPUL.0>
0

>  <SCORE.INTRA.SOLV>
1.84807

>  <SCORE.INTRA.SOLV.lig_0>
-29.8054

>  <SCORE.INTRA.VDW>
-2.64052

>  <SCORE.INTRA.VDW.0>
2.61447

>  <SCORE.INTRA.norm>
-0.182214

>  <SCORE.RESTR>
0

>  <SCORE.RESTR.CAVITY>
0

>  <SCORE.RESTR.norm>
0

>  <SCORE.SYSTEM>
0

>  <SCORE.SYSTEM.CONST>
0

>  <SCORE.SYSTEM.DIHEDRAL>
0

>  <SCORE.SYSTEM.SOLV>
0

>  <SCORE.SYSTEM.norm>
0

>  <SCORE.heavy>
23

>  <SCORE.norm>
-1.44797

>  <RMSD>
6.325

$$$$

 OpenBabel11021811403D
libRbt.so/2013.1/901 2013/11/27
 23 25  0  0  0  0  0  0  0  0999 V2000
  -25.4527    8.6693    9.6648 S   0  0  0  0  0  0  0  0  0  0  0  0
  -23.2225    8.1679    7.7558 N   0  0  0  0  0  0  0  0  0  0  0  0
  -24.5270    7.0398    6.0707 C   0  0  0  0  0  0  0  0  0  0  0  0
  -25.7723    6.5672    5.6360 C   0  0  0  0  0  0  0  0  0  0  0  0
  -26.9039    6.7444    6.4264 C   0  0  0  0  0  0  0  0  0  0  0  0
  -26.7983    7.3885    7.6543 C   0  0  0  0  0  0  0  0  0  0  0  0
  -25.5653    7.8601    8.0975 C   0  0  0  0  0  0  0  0  0  0  0  0
  -24.4213    7.6894    7.3086 C   0  0  0  0  0  0  0  0  0  0  0  0
  -23.9167    7.8781   10.0250 C   0  0  0  0  0  0  0  0  0  0  0  0
  -23.6520    7.4171   11.3179 C   0  0  0  0  0  0  0  0  0  0  0  0
  -22.4323    6.7955   11.6002 C   0  0  0  0  0  0  0  0  0  0  0  0
  -21.4789    6.6406   10.5886 C   0  0  0  0  0  0  0  0  0  0  0  0
  -21.7493    7.1037    9.3004 C   0  0  0  0  0  0  0  0  0  0  0  0
  -22.9611    7.7176    9.0152 C   0  0  0  0  0  0  0  0  0  0  0  0
  -22.0978    8.3666    6.8084 C   0  0  0  0  0  0  0  0  0  0  0  0
  -21.6019    7.1111    6.0160 C   0  0  0  0  0  0  0  0  0  0  0  0
  -20.5193    7.4440    4.9332 C   0  0  0  0  0  0  0  0  0  0  0  0
  -20.1375    6.3658    3.9858 N   0  3  0  0  0  0  0  0  0  0  0  0
  -18.7195    6.4924    3.5607 C   0  0  0  0  0  0  0  0  0  0  0  0
  -21.0706    6.3423    2.8065 C   0  0  0  0  0  0  0  0  0  0  0  0
  -25.8964    5.8619    4.3156 C   0  0  0  0  0  0  0  0  0  0  0  0
  -24.7464    5.7834    3.3408 C   0  0  0  0  0  0  0  0  0  0  0  0
  -26.9350    5.2819    4.0416 O   0  0  0  0  0  0  0  0  0  0  0  0
  1  7  1  0  0  0  0
  1  9  1  0  0  0  0
  2  8  1  0  0  0  0
  2 14  1  0  0  0  0
  2 15  1  0  0  0  0
  3  4  2  0  0  0  0
  3  8  1  0  0  0  0
  4  5  1  0  0  0  0
  4 21  1  0  0  0  0
  5  6  2  0  0  0  0
  6  7  1  0  0  0  0
  7  8  2  0  0  0  0
  9 10  2  0  0  0  0
  9 14  1  0  0  0  0
 10 11  1  0  0  0  0
 11 12  2  0  0  0  0
 12 13  1  0  0  0  0
 13 14  2  0  0  0  0
 15 16  1  0  0  0  0
 16 17  1  0  0  0  0
 17 18  1  0  0  0  0
 18 19  1  0  0  0  0
 18 20  1  0  0  0  0
 21 22  1  0  0  0  0
 21 23  2  0  0  0  0
M  CHG  1  18   1
M  END
>  <CHROM.1>
-58.84148519,-7.63169601,173.86425486,-170.69468048,-28.86621855,-23.54771958
7.13344851,6.99739817,1.94795752,0.02673152,1.33929709

>  <Name>


>  <RI>
0

>  <Rbt.Current_Directory>
/home/itssahil/PROJECTS/Mol_Feturizer/New_Systems/rnas/1lvj

>  <Rbt.Executable>
rbdock ($Id: //depot/dev/client3/rdock/2013.1/src/exe/rbdock.cxx#4 $)

>  <Rbt.Library>
libRbt.so (2013.1, Build901 2013/11/27)

>  <Rbt.Parameter_File>
/export/apps/rDock/src/rDock_2013.1_src/data/scripts/dock_solv.prm

>  <Rbt.Receptor>
prm/blind_docking_100.prm

>  <SCORE>
-30.3212

>  <SCORE.INTER>
-27.4456

>  <SCORE.INTER.CONST>
1

>  <SCORE.INTER.POLAR>
-1.26695

>  <SCORE.INTER.ROT>
5

>  <SCORE.INTER.SOLV>
20.8006

>  <SCORE.INTER.VDW>
-27.9408

>  <SCORE.INTER.norm>
-1.19329

>  <SCORE.INTRA>
-4.3708

>  <SCORE.INTRA.DIHEDRAL>
-5.09122

>  <SCORE.INTRA.DIHEDRAL.0>
8.06479

>  <SCORE.INTRA.POLAR>
0

>  <SCORE.INTRA.POLAR.0>
0

>  <SCORE.INTRA.REPUL>
0

>  <SCORE.INTRA.REPUL.0>
0

>  <SCORE.INTRA.SOLV>
0.560216

>  <SCORE.INTRA.SOLV.lig_0>
-29.8054

>  <SCORE.INTRA.VDW>
-2.1053

>  <SCORE.INTRA.VDW.0>
2.61447

>  <SCORE.INTRA.norm>
-0.190035

>  <SCORE.RESTR>
1.49517

>  <SCORE.RESTR.CAVITY>
1.49517

>  <SCORE.RESTR.norm>
0.0650076

>  <SCORE.SYSTEM>
0

>  <SCORE.SYSTEM.CONST>
0

>  <SCORE.SYSTEM.DIHEDRAL>
0

>  <SCORE.SYSTEM.SOLV>
0

>  <SCORE.SYSTEM.norm>
0

>  <SCORE.heavy>
23

>  <SCORE.norm>
-1.31831

>  <RMSD>
6.326

$$$$

 OpenBabel11021811403D
libRbt.so/2013.1/901 2013/11/27
 23 25  0  0  0  0  0  0  0  0999 V2000
  -25.4699    8.6313    9.6503 S   0  0  0  0  0  0  0  0  0  0  0  0
  -23.2318    8.1487    7.7457 N   0  0  0  0  0  0  0  0  0  0  0  0
  -24.5233    7.0093    6.0582 C   0  0  0  0  0  0  0  0  0  0  0  0
  -25.7637    6.5261    5.6212 C   0  0  0  0  0  0  0  0  0  0  0  0
  -26.8983    6.6936    6.4093 C   0  0  0  0  0  0  0  0  0  0  0  0
  -26.8006    7.3388    7.6373 C   0  0  0  0  0  0  0  0  0  0  0  0
  -25.5725    7.8210    8.0829 C   0  0  0  0  0  0  0  0  0  0  0  0
  -24.4256    7.6600    7.2962 C   0  0  0  0  0  0  0  0  0  0  0  0
  -23.9279    7.8533   10.0136 C   0  0  0  0  0  0  0  0  0  0  0  0
  -23.6618    7.3947   11.3071 C   0  0  0  0  0  0  0  0  0  0  0  0
  -22.4374    6.7836   11.5918 C   0  0  0  0  0  0  0  0  0  0  0  0
  -21.4808    6.6367   10.5821 C   0  0  0  0  0  0  0  0  0  0  0  0
  -21.7526    7.0973    9.2933 C   0  0  0  0  0  0  0  0  0  0  0  0
  -22.9691    7.7008    9.0056 C   0  0  0  0  0  0  0  0  0  0  0  0
  -22.1070    8.3568    6.8004 C   0  0  0  0  0  0  0  0  0  0  0  0
  -21.5897    7.1028    6.0195 C   0  0  0  0  0  0  0  0  0  0  0  0
  -20.5273    7.4466    4.9203 C   0  0  0  0  0  0  0  0  0  0  0  0
  -20.1367    6.3674    3.9775 N   0  3  0  0  0  0  0  0  0  0  0  0
  -18.7218    6.5078    3.5464 C   0  0  0  0  0  0  0  0  0  0  0  0
  -21.0738    6.3265    2.8019 C   0  0  0  0  0  0  0  0  0  0  0  0
  -25.8791    5.8195    4.3006 C   0  0  0  0  0  0  0  0  0  0  0  0
  -24.7327    5.7667    3.3201 C   0  0  0  0  0  0  0  0  0  0  0  0
  -26.9064    5.2176    4.0312 O   0  0  0  0  0  0  0  0  0  0  0  0
  1  7  1  0  0  0  0
  1  9  1  0  0  0  0
  2  8  1  0  0  0  0
  2 14  1  0  0  0  0
  2 15  1  0  0  0  0
  3  4  2  0  0  0  0
  3  8  1  0  0  0  0
  4  5  1  0  0  0  0
  4 21  1  0  0  0  0
  5  6  2  0  0  0  0
  6  7  1  0  0  0  0
  7  8  2  0  0  0  0
  9 10  2  0  0  0  0
  9 14  1  0  0  0  0
 10 11  1  0  0  0  0
 11 12  2  0  0  0  0
 12 13  1  0  0  0  0
 13 14  2  0  0  0  0
 15 16  1  0  0  0  0
 16 17  1  0  0  0  0
 17 18  1  0  0  0  0
 18 19  1  0  0  0  0
 18 20  1  0  0  0  0
 21 22  1  0  0  0  0
 21 23  2  0  0  0  0
M  CHG  1  18   1
M  END
>  <CHROM.1>
-59.41784200,-8.47491962,172.83407815,-170.30109283,-28.16930665,-23.54885981
7.11031476,6.98609512,1.94761453,0.03437467,1.33875472

>  <Name>


>  <RI>
0

>  <Rbt.Current_Directory>
/home/itssahil/PROJECTS/Mol_Feturizer/New_Systems/rnas/1lvj

>  <Rbt.Executable>
rbdock ($Id: //depot/dev/client3/rdock/2013.1/src/exe/rbdock.cxx#4 $)

>  <Rbt.Library>
libRbt.so (2013.1, Build901 2013/11/27)

>  <Rbt.Parameter_File>
/export/apps/rDock/src/rDock_2013.1_src/data/scripts/dock_solv.prm

>  <Rbt.Receptor>
prm/blind_docking_100.prm

>  <SCORE>
-30.3752

>  <SCORE.INTER>
-27.5501

>  <SCORE.INTER.CONST>
1

>  <SCORE.INTER.POLAR>
-1.27087

>  <SCORE.INTER.ROT>
5

>  <SCORE.INTER.SOLV>
20.7669

>  <SCORE.INTER.VDW>
-27.9861

>  <SCORE.INTER.norm>
-1.19783

>  <SCORE.INTRA>
-4.32926

>  <SCORE.INTRA.DIHEDRAL>
-4.90397

>  <SCORE.INTRA.DIHEDRAL.0>
8.06479

>  <SCORE.INTRA.POLAR>
0

>  <SCORE.INTRA.POLAR.0>
0

>  <SCORE.INTRA.REPUL>
0

>  <SCORE.INTRA.REPUL.0>
0

>  <SCORE.INTRA.SOLV>
0.565807

>  <SCORE.INTRA.SOLV.lig_0>
-29.8054

>  <SCORE.INTRA.VDW>
-2.16018

>  <SCORE.INTRA.VDW.0>
2.61447

>  <SCORE.INTRA.norm>
-0.188229

>  <SCORE.RESTR>
1.50416

>  <SCORE.RESTR.CAVITY>
1.50416

>  <SCORE.RESTR.norm>
0.065398

>  <SCORE.SYSTEM>
0

>  <SCORE.SYSTEM.CONST>
0

>  <SCORE.SYSTEM.DIHEDRAL>
0

>  <SCORE.SYSTEM.SOLV>
0

>  <SCORE.SYSTEM.norm>
0

>  <SCORE.heavy>
23

>  <SCORE.norm>
-1.32066

>  <RMSD>
6.328

$$$$

 OpenBabel11021811403D
libRbt.so/2013.1/901 2013/11/27
 23 25  0  0  0  0  0  0  0  0999 V2000
  -21.8558    7.3678   11.5793 S   0  0  0  0  0  0  0  0  0  0  0  0
  -24.7924    7.1971   11.1139 N   0  0  0  0  0  0  0  0  0  0  0  0
  -24.7114    7.2554    8.7048 C   0  0  0  0  0  0  0  0  0  0  0  0
  -23.9469    7.3208    7.5324 C   0  0  0  0  0  0  0  0  0  0  0  0
  -22.5590    7.3933    7.6040 C   0  0  0  0  0  0  0  0  0  0  0  0
  -21.9281    7.4054    8.8431 C   0  0  0  0  0  0  0  0  0  0  0  0
  -22.6780    7.3434   10.0149 C   0  0  0  0  0  0  0  0  0  0  0  0
  -24.0746    7.2675    9.9538 C   0  0  0  0  0  0  0  0  0  0  0  0
  -23.0945    8.4143   12.2761 C   0  0  0  0  0  0  0  0  0  0  0  0
  -22.7315    9.4473   13.1452 C   0  0  0  0  0  0  0  0  0  0  0  0
  -23.7161   10.2707   13.6988 C   0  0  0  0  0  0  0  0  0  0  0  0
  -25.0619   10.0553   13.3844 C   0  0  0  0  0  0  0  0  0  0  0  0
  -25.4173    9.0219   12.5168 C   0  0  0  0  0  0  0  0  0  0  0  0
  -24.4421    8.2049   11.9616 C   0  0  0  0  0  0  0  0  0  0  0  0
  -26.1978    6.7210   11.0944 C   0  0  0  0  0  0  0  0  0  0  0  0
  -26.4354    5.2118   10.7543 C   0  0  0  0  0  0  0  0  0  0  0  0
  -27.1359    4.4150   11.9075 C   0  0  0  0  0  0  0  0  0  0  0  0
  -28.5016    4.8395   12.3081 N   0  3  0  0  0  0  0  0  0  0  0  0
  -28.4582    5.9338   13.3122 C   0  0  0  0  0  0  0  0  0  0  0  0
  -29.2979    3.6635   12.8028 C   0  0  0  0  0  0  0  0  0  0  0  0
  -24.6183    7.3175    6.1887 C   0  0  0  0  0  0  0  0  0  0  0  0
  -26.1115    7.1516    6.0423 C   0  0  0  0  0  0  0  0  0  0  0  0
  -23.9513    7.5138    5.1854 O   0  0  0  0  0  0  0  0  0  0  0  0
  1  7  1  0  0  0  0
  1  9  1  0  0  0  0
  2  8  1  0  0  0  0
  2 14  1  0  0  0  0
  2 15  1  0  0  0  0
  3  4  2  0  0  0  0
  3  8  1  0  0  0  0
  4  5  1  0  0  0  0
  4 21  1  0  0  0  0
  5  6  2  0  0  0  0
  6  7  1  0  0  0  0
  7  8  2  0  0  0  0
  9 10  2  0  0  0  0
  9 14  1  0  0  0  0
 10 11  1  0  0  0  0
 11 12  2  0  0  0  0
 12 13  1  0  0  0  0
 13 14  2  0  0  0  0
 15 16  1  0  0  0  0
 16 17  1  0  0  0  0
 17 18  1  0  0  0  0
 18 19  1  0  0  0  0
 18 20  1  0  0  0  0
 21 22  1  0  0  0  0
 21 23  2  0  0  0  0
M  CHG  1  18   1
M  END
>  <CHROM.1>
68.30501027,-4.18545747,118.95248000,62.14741991,34.15625585,-24.79065668
7.19001580,10.56825560,-0.74904304,0.58858108,1.37088448

>  <Name>


>  <RI>
0

>  <Rbt.Current_Directory>
/home/itssahil/PROJECTS/Mol_Feturizer/New_Systems/rnas/1lvj

>  <Rbt.Executable>
rbdock ($Id: //depot/dev/client3/rdock/2013.1/src/exe/rbdock.cxx#4 $)

>  <Rbt.Library>
libRbt.so (2013.1, Build901 2013/11/27)

>  <Rbt.Parameter_File>
/export/apps/rDock/src/rDock_2013.1_src/data/scripts/dock_solv.prm

>  <Rbt.Receptor>
prm/pocket_docking_8.prm

>  <SCORE>
-29.3563

>  <SCORE.INTER>
-27.4567

>  <SCORE.INTER.CONST>
1

>  <SCORE.INTER.POLAR>
-1.1619

>  <SCORE.INTER.ROT>
5

>  <SCORE.INTER.SOLV>
11.6038

>  <SCORE.INTER.VDW>
-25.2327

>  <SCORE.INTER.norm>
-1.19377

>  <SCORE.INTRA>
-1.89964

>  <SCORE.INTRA.DIHEDRAL>
-0.137798

>  <SCORE.INTRA.DIHEDRAL.0>
8.06479

>  <SCORE.INTRA.POLAR>
0

>  <SCORE.INTRA.POLAR.0>
0

>  <SCORE.INTRA.REPUL>
0

>  <SCORE.INTRA.REPUL.0>
0

>  <SCORE.INTRA.SOLV>
1.6725

>  <SCORE.INTRA.SOLV.lig_0>
-29.8054

>  <SCORE.INTRA.VDW>
-2.66699

>  <SCORE.INTRA.VDW.0>
2.61447

>  <SCORE.INTRA.norm>
-0.082593

>  <SCORE.RESTR>
0

>  <SCORE.RESTR.CAVITY>
0

>  <SCORE.RESTR.norm>
0

>  <SCORE.SYSTEM>
0

>  <SCORE.SYSTEM.CONST>
0

>  <SCORE.SYSTEM.DIHEDRAL>
0

>  <SCORE.SYSTEM.SOLV>
0

>  <SCORE.SYSTEM.norm>
0

>  <SCORE.heavy>
23

>  <SCORE.norm>
-1.27636

>  <RMSD>
6.329

$$$$

 OpenBabel11021811403D
libRbt.so/2013.1/901 2013/11/27
 23 25  0  0  0  0  0  0  0  0999 V2000
  -21.8257    7.3520   11.6961 S   0  0  0  0  0  0  0  0  0  0  0  0
  -24.7657    7.2927   11.2251 N   0  0  0  0  0  0  0  0  0  0  0  0
  -24.6778    7.3440    8.8160 C   0  0  0  0  0  0  0  0  0  0  0  0
  -23.9091    7.3783    7.6451 C   0  0  0  0  0  0  0  0  0  0  0  0
  -22.5196    7.3979    7.7193 C   0  0  0  0  0  0  0  0  0  0  0  0
  -21.8911    7.3880    8.9598 C   0  0  0  0  0  0  0  0  0  0  0  0
  -22.6451    7.3565   10.1301 C   0  0  0  0  0  0  0  0  0  0  0  0
  -24.0435    7.3338   10.0663 C   0  0  0  0  0  0  0  0  0  0  0  0
  -23.0249    8.4460   12.3888 C   0  0  0  0  0  0  0  0  0  0  0  0
  -22.6244    9.4659   13.2571 C   0  0  0  0  0  0  0  0  0  0  0  0
  -23.5779   10.3271   13.8075 C   0  0  0  0  0  0  0  0  0  0  0  0
  -24.9303   10.1627   13.4907 C   0  0  0  0  0  0  0  0  0  0  0  0
  -25.3232    9.1422   12.6240 C   0  0  0  0  0  0  0  0  0  0  0  0
  -24.3788    8.2878   12.0720 C   0  0  0  0  0  0  0  0  0  0  0  0
  -26.1882    6.8706   11.2034 C   0  0  0  0  0  0  0  0  0  0  0  0
  -26.5155    5.4995   10.5230 C   0  0  0  0  0  0  0  0  0  0  0  0
  -26.0503    4.2600   11.3611 C   0  0  0  0  0  0  0  0  0  0  0  0
  -26.8648    3.8827   12.5443 N   0  3  0  0  0  0  0  0  0  0  0  0
  -26.2310    2.7793   13.3114 C   0  0  0  0  0  0  0  0  0  0  0  0
  -28.2691    3.5366   12.1318 C   0  0  0  0  0  0  0  0  0  0  0  0
  -24.5775    7.3985    6.3000 C   0  0  0  0  0  0  0  0  0  0  0  0
  -26.0722    7.2517    6.1486 C   0  0  0  0  0  0  0  0  0  0  0  0
  -23.9060    7.5988    5.3005 O   0  0  0  0  0  0  0  0  0  0  0  0
  1  7  1  0  0  0  0
  1  9  1  0  0  0  0
  2  8  1  0  0  0  0
  2 14  1  0  0  0  0
  2 15  1  0  0  0  0
  3  4  2  0  0  0  0
  3  8  1  0  0  0  0
  4  5  1  0  0  0  0
  4 21  1  0  0  0  0
  5  6  2  0  0  0  0
  6  7  1  0  0  0  0
  7  8  2  0  0  0  0
  9 10  2  0  0  0  0
  9 14  1  0  0  0  0
 10 11  1  0  0  0  0
 11 12  2  0  0  0  0
 12 13  1  0  0  0  0
 13 14  2  0  0  0  0
 15 16  1  0  0  0  0
 16 17  1  0  0  0  0
 17 18  1  0  0  0  0
 18 19  1  0  0  0  0
 18 20  1  0  0  0  0
 21 22  1  0  0  0  0
 21 23  2  0  0  0  0
M  CHG  1  18   1
M  END
>  <CHROM.1>
53.16530370,-5.89092100,72.23700745,76.18554882,-54.43469027,-24.48007454
7.04754093,10.60631396,-1.01032379,0.85602194,1.47165765

>  <Name>


>  <RI>
0

>  <Rbt.Current_Directory>
/home/itssahil/PROJECTS/Mol_Feturizer/New_Systems/rnas/1lvj

>  <Rbt.Executable>
rbdock ($Id: //depot/dev/client3/rdock/2013.1/src/exe/rbdock.cxx#4 $)

>  <Rbt.Library>
libRbt.so (2013.1, Build901 2013/11/27)

>  <Rbt.Parameter_File>
/export/apps/rDock/src/rDock_2013.1_src/data/scripts/dock_solv.prm

>  <Rbt.Receptor>
prm/pocket_docking_6.prm

>  <SCORE>
-27.9515

>  <SCORE.INTER>
-23.7096

>  <SCORE.INTER.CONST>
1

>  <SCORE.INTER.POLAR>
0

>  <SCORE.INTER.ROT>
5

>  <SCORE.INTER.SOLV>
8.61801

>  <SCORE.INTER.VDW>
-25.6124

>  <SCORE.INTER.norm>
-1.03085

>  <SCORE.INTRA>
-4.24197

>  <SCORE.INTRA.DIHEDRAL>
-6.06872

>  <SCORE.INTRA.DIHEDRAL.0>
8.06479

>  <SCORE.INTRA.POLAR>
0

>  <SCORE.INTRA.POLAR.0>
0

>  <SCORE.INTRA.REPUL>
0

>  <SCORE.INTRA.REPUL.0>
0

>  <SCORE.INTRA.SOLV>
1.86368

>  <SCORE.INTRA.SOLV.lig_0>
-29.8054

>  <SCORE.INTRA.VDW>
-2.13945

>  <SCORE.INTRA.VDW.0>
2.61447

>  <SCORE.INTRA.norm>
-0.184433

>  <SCORE.RESTR>
0

>  <SCORE.RESTR.CAVITY>
0

>  <SCORE.RESTR.norm>
0

>  <SCORE.SYSTEM>
0

>  <SCORE.SYSTEM.CONST>
0

>  <SCORE.SYSTEM.DIHEDRAL>
0

>  <SCORE.SYSTEM.SOLV>
0

>  <SCORE.SYSTEM.norm>
0

>  <SCORE.heavy>
23

>  <SCORE.norm>
-1.21528

>  <RMSD>
6.333

$$$$

 OpenBabel11021811403D
libRbt.so/2013.1/901 2013/11/27
 23 25  0  0  0  0  0  0  0  0999 V2000
  -23.6955    8.2211   10.8224 S   0  0  0  0  0  0  0  0  0  0  0  0
  -26.0071    6.3616   10.5615 N   0  0  0  0  0  0  0  0  0  0  0  0
  -26.1392    6.3939    8.1541 C   0  0  0  0  0  0  0  0  0  0  0  0
  -25.6375    6.8616    6.9324 C   0  0  0  0  0  0  0  0  0  0  0  0
  -24.5503    7.7299    6.9075 C   0  0  0  0  0  0  0  0  0  0  0  0
  -23.9620    8.1389    8.0992 C   0  0  0  0  0  0  0  0  0  0  0  0
  -24.4538    7.6825    9.3195 C   0  0  0  0  0  0  0  0  0  0  0  0
  -25.5454    6.8065    9.3553 C   0  0  0  0  0  0  0  0  0  0  0  0
  -25.2609    8.3690   11.6239 C   0  0  0  0  0  0  0  0  0  0  0  0
  -25.5091    9.4424   12.4844 C   0  0  0  0  0  0  0  0  0  0  0  0
  -26.7485    9.5532   13.1211 C   0  0  0  0  0  0  0  0  0  0  0  0
  -27.7349    8.5869   12.8981 C   0  0  0  0  0  0  0  0  0  0  0  0
  -27.4803    7.5176   12.0386 C   0  0  0  0  0  0  0  0  0  0  0  0
  -26.2523    7.4066   11.4011 C   0  0  0  0  0  0  0  0  0  0  0  0
  -26.8700    5.1564   10.6320 C   0  0  0  0  0  0  0  0  0  0  0  0
  -26.9192    4.3927   11.9973 C   0  0  0  0  0  0  0  0  0  0  0  0
  -27.8994    3.1702   11.9937 C   0  0  0  0  0  0  0  0  0  0  0  0
  -29.3568    3.4550   12.0195 N   0  3  0  0  0  0  0  0  0  0  0  0
  -30.0912    2.4583   12.8409 C   0  0  0  0  0  0  0  0  0  0  0  0
  -29.9055    3.5345   10.6214 C   0  0  0  0  0  0  0  0  0  0  0  0
  -26.2710    6.4335    5.6393 C   0  0  0  0  0  0  0  0  0  0  0  0
  -27.5230    5.5911    5.6037 C   0  0  0  0  0  0  0  0  0  0  0  0
  -25.7995    6.8241    4.5833 O   0  0  0  0  0  0  0  0  0  0  0  0
  1  7  1  0  0  0  0
  1  9  1  0  0  0  0
  2  8  1  0  0  0  0
  2 14  1  0  0  0  0
  2 15  1  0  0  0  0
  3  4  2  0  0  0  0
  3  8  1  0  0  0  0
  4  5  1  0  0  0  0
  4 21  1  0  0  0  0
  5  6  2  0  0  0  0
  6  7  1  0  0  0  0
  7  8  2  0  0  0  0
  9 10  2  0  0  0  0
  9 14  1  0  0  0  0
 10 11  1  0  0  0  0
 11 12  2  0  0  0  0
 12 13  1  0  0  0  0
 13 14  2  0  0  0  0
 15 16  1  0  0  0  0
 16 17  1  0  0  0  0
 17 18  1  0  0  0  0
 18 19  1  0  0  0  0
 18 20  1  0  0  0  0
 21 22  1  0  0  0  0
 21 23  2  0  0  0  0
M  CHG  1  18   1
M  END
>  <CHROM.1>
157.45868389,5.19409479,177.64685783,-73.36924314,-23.38773298,-26.42471021
6.52659000,10.02592918,-0.62908920,0.86815223,1.31752723

>  <Name>


>  <RI>
0

>  <Rbt.Current_Directory>
/home/itssahil/PROJECTS/Mol_Feturizer/New_Systems/rnas/1lvj

>  <Rbt.Executable>
rbdock ($Id: //depot/dev/client3/rdock/2013.1/src/exe/rbdock.cxx#4 $)

>  <Rbt.Library>
libRbt.so (2013.1, Build901 2013/11/27)

>  <Rbt.Parameter_File>
/export/apps/rDock/src/rDock_2013.1_src/data/scripts/dock_solv.prm

>  <Rbt.Receptor>
prm/pocket_docking_7.prm

>  <SCORE>
-26.8971

>  <SCORE.INTER>
-22.9018

>  <SCORE.INTER.CONST>
1

>  <SCORE.INTER.POLAR>
0

>  <SCORE.INTER.ROT>
5

>  <SCORE.INTER.SOLV>
10.7064

>  <SCORE.INTER.VDW>
-25.77

>  <SCORE.INTER.norm>
-0.99573

>  <SCORE.INTRA>
-3.99532

>  <SCORE.INTRA.DIHEDRAL>
-4.69776

>  <SCORE.INTRA.DIHEDRAL.0>
8.06479

>  <SCORE.INTRA.POLAR>
0

>  <SCORE.INTRA.POLAR.0>
0

>  <SCORE.INTRA.REPUL>
0

>  <SCORE.INTRA.REPUL.0>
0

>  <SCORE.INTRA.SOLV>
2.03403

>  <SCORE.INTRA.SOLV.lig_0>
-29.8054

>  <SCORE.INTRA.VDW>
-2.66346

>  <SCORE.INTRA.VDW.0>
2.61447

>  <SCORE.INTRA.norm>
-0.17371

>  <SCORE.RESTR>
0

>  <SCORE.RESTR.CAVITY>
0

>  <SCORE.RESTR.norm>
0

>  <SCORE.SYSTEM>
0

>  <SCORE.SYSTEM.CONST>
0

>  <SCORE.SYSTEM.DIHEDRAL>
0

>  <SCORE.SYSTEM.SOLV>
0

>  <SCORE.SYSTEM.norm>
0

>  <SCORE.heavy>
23

>  <SCORE.norm>
-1.16944

>  <RMSD>
6.333

$$$$

 OpenBabel11021811403D
libRbt.so/2013.1/901 2013/11/27
 23 25  0  0  0  0  0  0  0  0999 V2000
  -25.4096    8.6446    9.7253 S   0  0  0  0  0  0  0  0  0  0  0  0
  -23.3168    8.2634    7.6411 N   0  0  0  0  0  0  0  0  0  0  0  0
  -24.6943    7.0794    6.0553 C   0  0  0  0  0  0  0  0  0  0  0  0
  -25.9456    6.5475    5.7170 C   0  0  0  0  0  0  0  0  0  0  0  0
  -27.0179    6.6645    6.5962 C   0  0  0  0  0  0  0  0  0  0  0  0
  -26.8466    7.3076    7.8172 C   0  0  0  0  0  0  0  0  0  0  0  0
  -25.6068    7.8379    8.1651 C   0  0  0  0  0  0  0  0  0  0  0  0
  -24.5224    7.7279    7.2864 C   0  0  0  0  0  0  0  0  0  0  0  0
  -23.8127    7.9291    9.9557 C   0  0  0  0  0  0  0  0  0  0  0  0
  -23.4234    7.4760   11.2196 C   0  0  0  0  0  0  0  0  0  0  0  0
  -22.1560    6.9145   11.3988 C   0  0  0  0  0  0  0  0  0  0  0  0
  -21.2799    6.8118   10.3134 C   0  0  0  0  0  0  0  0  0  0  0  0
  -21.6745    7.2667    9.0547 C   0  0  0  0  0  0  0  0  0  0  0  0
  -22.9340    7.8208    8.8718 C   0  0  0  0  0  0  0  0  0  0  0  0
  -22.2823    8.5220    6.6090 C   0  0  0  0  0  0  0  0  0  0  0  0
  -21.7921    7.2968    5.7672 C   0  0  0  0  0  0  0  0  0  0  0  0
  -20.3595    7.4884    5.1622 C   0  0  0  0  0  0  0  0  0  0  0  0
  -19.9995    6.6763    3.9718 N   0  3  0  0  0  0  0  0  0  0  0  0
  -18.5675    6.2811    3.9960 C   0  0  0  0  0  0  0  0  0  0  0  0
  -20.3523    7.4074    2.7057 C   0  0  0  0  0  0  0  0  0  0  0  0
  -26.1397    5.8428    4.4046 C   0  0  0  0  0  0  0  0  0  0  0  0
  -25.0122    5.6713    3.4157 C   0  0  0  0  0  0  0  0  0  0  0  0
  -27.2221    5.3395    4.1494 O   0  0  0  0  0  0  0  0  0  0  0  0
  1  7  1  0  0  0  0
  1  9  1  0  0  0  0
  2  8  1  0  0  0  0
  2 14  1  0  0  0  0
  2 15  1  0  0  0  0
  3  4  2  0  0  0  0
  3  8  1  0  0  0  0
  4  5  1  0  0  0  0
  4 21  1  0  0  0  0
  5  6  2  0  0  0  0
  6  7  1  0  0  0  0
  7  8  2  0  0  0  0
  9 10  2  0  0  0  0
  9 14  1  0  0  0  0
 10 11  1  0  0  0  0
 11 12  2  0  0  0  0
 12 13  1  0  0  0  0
 13 14  2  0  0  0  0
 15 16  1  0  0  0  0
 16 17  1  0  0  0  0
 17 18  1  0  0  0  0
 18 19  1  0  0  0  0
 18 20  1  0  0  0  0
 21 22  1  0  0  0  0
 21 23  2  0  0  0  0
M  CHG  1  18   1
M  END
>  <CHROM.1>
-58.72246612,0.46349211,-155.96701041,-157.38963529,-24.70773913,-23.53588484
7.22328364,6.99110831,-2.11765260,-0.06957929,-1.79579926

>  <Name>


>  <RI>
0

>  <Rbt.Current_Directory>
/home/itssahil/PROJECTS/Mol_Feturizer/New_Systems/rnas/1lvj

>  <Rbt.Executable>
rbdock ($Id: //depot/dev/client3/rdock/2013.1/src/exe/rbdock.cxx#4 $)

>  <Rbt.Library>
libRbt.so (2013.1, Build901 2013/11/27)

>  <Rbt.Parameter_File>
/export/apps/rDock/src/rDock_2013.1_src/data/scripts/dock_solv.prm

>  <Rbt.Receptor>
prm/blind_docking_100.prm

>  <SCORE>
-11.1936

>  <SCORE.INTER>
-9.8127

>  <SCORE.INTER.CONST>
1

>  <SCORE.INTER.POLAR>
0

>  <SCORE.INTER.ROT>
5

>  <SCORE.INTER.SOLV>
19.0647

>  <SCORE.INTER.VDW>
-19.83

>  <SCORE.INTER.norm>
-0.426639

>  <SCORE.INTRA>
-2.57487

>  <SCORE.INTRA.DIHEDRAL>
-1.85543

>  <SCORE.INTRA.DIHEDRAL.0>
8.06479

>  <SCORE.INTRA.POLAR>
0

>  <SCORE.INTRA.POLAR.0>
0

>  <SCORE.INTRA.REPUL>
0

>  <SCORE.INTRA.REPUL.0>
0

>  <SCORE.INTRA.SOLV>
0.635529

>  <SCORE.INTRA.SOLV.lig_0>
-29.8054

>  <SCORE.INTRA.VDW>
-1.96492

>  <SCORE.INTRA.VDW.0>
2.61447

>  <SCORE.INTRA.norm>
-0.111951

>  <SCORE.RESTR>
1.19396

>  <SCORE.RESTR.CAVITY>
1.19396

>  <SCORE.RESTR.norm>
0.0519114

>  <SCORE.SYSTEM>
0

>  <SCORE.SYSTEM.CONST>
0

>  <SCORE.SYSTEM.DIHEDRAL>
0

>  <SCORE.SYSTEM.SOLV>
0

>  <SCORE.SYSTEM.norm>
0

>  <SCORE.heavy>
23

>  <SCORE.norm>
-0.486679

>  <RMSD>
6.353

$$$$

 OpenBabel11021811403D
libRbt.so/2013.1/901 2013/11/27
 23 25  0  0  0  0  0  0  0  0999 V2000
  -21.9287    7.2877   11.3875 S   0  0  0  0  0  0  0  0  0  0  0  0
  -24.7701    7.0563   10.5258 N   0  0  0  0  0  0  0  0  0  0  0  0
  -24.3688    7.1940    8.1522 C   0  0  0  0  0  0  0  0  0  0  0  0
  -23.4565    7.3167    7.0959 C   0  0  0  0  0  0  0  0  0  0  0  0
  -22.0935    7.4226    7.3559 C   0  0  0  0  0  0  0  0  0  0  0  0
  -21.6349    7.4113    8.6687 C   0  0  0  0  0  0  0  0  0  0  0  0
  -22.5328    7.2923    9.7265 C   0  0  0  0  0  0  0  0  0  0  0  0
  -23.9058    7.1824    9.4755 C   0  0  0  0  0  0  0  0  0  0  0  0
  -23.2803    8.2790   11.9403 C   0  0  0  0  0  0  0  0  0  0  0  0
  -23.0681    9.2926   12.8793 C   0  0  0  0  0  0  0  0  0  0  0  0
  -24.1421   10.0721   13.3183 C   0  0  0  0  0  0  0  0  0  0  0  0
  -25.4265    9.8323   12.8193 C   0  0  0  0  0  0  0  0  0  0  0  0
  -25.6315    8.8184   11.8828 C   0  0  0  0  0  0  0  0  0  0  0  0
  -24.5667    8.0451   11.4412 C   0  0  0  0  0  0  0  0  0  0  0  0
  -26.1453    6.5450   10.3035 C   0  0  0  0  0  0  0  0  0  0  0  0
  -26.5053    5.1631   10.9444 C   0  0  0  0  0  0  0  0  0  0  0  0
  -26.5169    5.1858   12.5111 C   0  0  0  0  0  0  0  0  0  0  0  0
  -27.7768    5.5904   13.1854 N   0  3  0  0  0  0  0  0  0  0  0  0
  -28.0751    7.0288   12.9628 C   0  0  0  0  0  0  0  0  0  0  0  0
  -27.7247    5.2546   14.6505 C   0  0  0  0  0  0  0  0  0  0  0  0
  -23.9414    7.3392    5.6744 C   0  0  0  0  0  0  0  0  0  0  0  0
  -25.3479    6.9354    5.3038 C   0  0  0  0  0  0  0  0  0  0  0  0
  -23.2013    7.7516    4.7956 O   0  0  0  0  0  0  0  0  0  0  0  0
  1  7  1  0  0  0  0
  1  9  1  0  0  0  0
  2  8  1  0  0  0  0
  2 14  1  0  0  0  0
  2 15  1  0  0  0  0
  3  4  2  0  0  0  0
  3  8  1  0  0  0  0
  4  5  1  0  0  0  0
  4 21  1  0  0  0  0
  5  6  2  0  0  0  0
  6  7  1  0  0  0  0
  7  8  2  0  0  0  0
  9 10  2  0  0  0  0
  9 14  1  0  0  0  0
 10 11  1  0  0  0  0
 11 12  2  0  0  0  0
 12 13  1  0  0  0  0
 13 14  2  0  0  0  0
 15 16  1  0  0  0  0
 16 17  1  0  0  0  0
 17 18  1  0  0  0  0
 18 19  1  0  0  0  0
 18 20  1  0  0  0  0
 21 22  1  0  0  0  0
 21 23  2  0  0  0  0
M  CHG  1  18   1
M  END
>  <CHROM.1>
113.96952025,-13.62306114,66.19374181,86.86473469,51.62990743,-24.54373333
7.30909066,10.37534499,-1.03981959,0.50899927,1.37379771

>  <Name>


>  <RI>
0

>  <Rbt.Current_Directory>
/home/itssahil/PROJECTS/Mol_Feturizer/New_Systems/rnas/1lvj

>  <Rbt.Executable>
rbdock ($Id: //depot/dev/client3/rdock/2013.1/src/exe/rbdock.cxx#4 $)

>  <Rbt.Library>
libRbt.so (2013.1, Build901 2013/11/27)

>  <Rbt.Parameter_File>
/export/apps/rDock/src/rDock_2013.1_src/data/scripts/dock_solv.prm

>  <Rbt.Receptor>
prm/pocket_docking_8.prm

>  <SCORE>
-25.9293

>  <SCORE.INTER>
-22.1965

>  <SCORE.INTER.CONST>
1

>  <SCORE.INTER.POLAR>
-0.00798535

>  <SCORE.INTER.ROT>
5

>  <SCORE.INTER.SOLV>
9.33312

>  <SCORE.INTER.VDW>
-24.8154

>  <SCORE.INTER.norm>
-0.965065

>  <SCORE.INTRA>
-3.73283

>  <SCORE.INTRA.DIHEDRAL>
-2.31885

>  <SCORE.INTRA.DIHEDRAL.0>
8.06479

>  <SCORE.INTRA.POLAR>
0

>  <SCORE.INTRA.POLAR.0>
0

>  <SCORE.INTRA.REPUL>
0

>  <SCORE.INTRA.REPUL.0>
0

>  <SCORE.INTRA.SOLV>
1.07346

>  <SCORE.INTRA.SOLV.lig_0>
-29.8054

>  <SCORE.INTRA.VDW>
-3.11013

>  <SCORE.INTRA.VDW.0>
2.61447

>  <SCORE.INTRA.norm>
-0.162297

>  <SCORE.RESTR>
0

>  <SCORE.RESTR.CAVITY>
0

>  <SCORE.RESTR.norm>
0

>  <SCORE.SYSTEM>
0

>  <SCORE.SYSTEM.CONST>
0

>  <SCORE.SYSTEM.DIHEDRAL>
0

>  <SCORE.SYSTEM.SOLV>
0

>  <SCORE.SYSTEM.norm>
0

>  <SCORE.heavy>
23

>  <SCORE.norm>
-1.12736

>  <RMSD>
6.358

$$$$

 OpenBabel11021811403D
libRbt.so/2013.1/901 2013/11/27
 23 25  0  0  0  0  0  0  0  0999 V2000
  -22.5770    7.5317   10.7517 S   0  0  0  0  0  0  0  0  0  0  0  0
  -25.4605    6.8139   10.9508 N   0  0  0  0  0  0  0  0  0  0  0  0
  -25.9465    6.8948    8.5904 C   0  0  0  0  0  0  0  0  0  0  0  0
  -25.4964    7.1068    7.2806 C   0  0  0  0  0  0  0  0  0  0  0  0
  -24.1662    7.4384    7.0417 C   0  0  0  0  0  0  0  0  0  0  0  0
  -23.2809    7.5646    8.1065 C   0  0  0  0  0  0  0  0  0  0  0  0
  -23.7177    7.3587    9.4127 C   0  0  0  0  0  0  0  0  0  0  0  0
  -25.0532    7.0220    9.6635 C   0  0  0  0  0  0  0  0  0  0  0  0
  -23.7920    8.3243   11.7569 C   0  0  0  0  0  0  0  0  0  0  0  0
  -23.4337    9.4041   12.5692 C   0  0  0  0  0  0  0  0  0  0  0  0
  -24.3979   10.0259   13.3676 C   0  0  0  0  0  0  0  0  0  0  0  0
  -25.7175    9.5626   13.3540 C   0  0  0  0  0  0  0  0  0  0  0  0
  -26.0683    8.4838   12.5415 C   0  0  0  0  0  0  0  0  0  0  0  0
  -25.1145    7.8666   11.7439 C   0  0  0  0  0  0  0  0  0  0  0  0
  -26.7220    6.0823   11.2255 C   0  0  0  0  0  0  0  0  0  0  0  0
  -26.7497    4.5547   10.8857 C   0  0  0  0  0  0  0  0  0  0  0  0
  -28.0206    3.8172   11.4298 C   0  0  0  0  0  0  0  0  0  0  0  0
  -28.1700    3.6961   12.9025 N   0  3  0  0  0  0  0  0  0  0  0  0
  -28.5894    2.3261   13.2957 C   0  0  0  0  0  0  0  0  0  0  0  0
  -29.1191    4.7388   13.4259 C   0  0  0  0  0  0  0  0  0  0  0  0
  -26.4462    6.9821    6.1235 C   0  0  0  0  0  0  0  0  0  0  0  0
  -26.0199    6.3943    4.8000 C   0  0  0  0  0  0  0  0  0  0  0  0
  -27.6135    7.3081    6.2690 O   0  0  0  0  0  0  0  0  0  0  0  0
  1  7  1  0  0  0  0
  1  9  1  0  0  0  0
  2  8  1  0  0  0  0
  2 14  1  0  0  0  0
  2 15  1  0  0  0  0
  3  4  2  0  0  0  0
  3  8  1  0  0  0  0
  4  5  1  0  0  0  0
  4 21  1  0  0  0  0
  5  6  2  0  0  0  0
  6  7  1  0  0  0  0
  7  8  2  0  0  0  0
  9 10  2  0  0  0  0
  9 14  1  0  0  0  0
 10 11  1  0  0  0  0
 11 12  2  0  0  0  0
 12 13  1  0  0  0  0
 13 14  2  0  0  0  0
 15 16  1  0  0  0  0
 16 17  1  0  0  0  0
 17 18  1  0  0  0  0
 18 19  1  0  0  0  0
 18 20  1  0  0  0  0
 21 22  1  0  0  0  0
 21 23  2  0  0  0  0
M  CHG  1  18   1
M  END
>  <CHROM.1>
68.65868018,-142.91561339,170.11919052,-66.89412230,-15.23438635,-25.63864107
6.79170403,10.36202292,-0.90044913,0.78401857,1.53287349

>  <Name>


>  <RI>
0

>  <Rbt.Current_Directory>
/home/itssahil/PROJECTS/Mol_Feturizer/New_Systems/rnas/1lvj

>  <Rbt.Executable>
rbdock ($Id: //depot/dev/client3/rdock/2013.1/src/exe/rbdock.cxx#4 $)

>  <Rbt.Library>
libRbt.so (2013.1, Build901 2013/11/27)

>  <Rbt.Parameter_File>
/export/apps/rDock/src/rDock_2013.1_src/data/scripts/dock_solv.prm

>  <Rbt.Receptor>
prm/pocket_docking_6.prm

>  <SCORE>
-24.6046

>  <SCORE.INTER>
-22.3739

>  <SCORE.INTER.CONST>
1

>  <SCORE.INTER.POLAR>
0

>  <SCORE.INTER.ROT>
5

>  <SCORE.INTER.SOLV>
9.3411

>  <SCORE.INTER.VDW>
-24.9629

>  <SCORE.INTER.norm>
-0.972776

>  <SCORE.INTRA>
-2.23072

>  <SCORE.INTRA.DIHEDRAL>
0.439353

>  <SCORE.INTRA.DIHEDRAL.0>
8.06479

>  <SCORE.INTRA.POLAR>
0

>  <SCORE.INTRA.POLAR.0>
0

>  <SCORE.INTRA.REPUL>
0

>  <SCORE.INTRA.REPUL.0>
0

>  <SCORE.INTRA.SOLV>
1.8308

>  <SCORE.INTRA.SOLV.lig_0>
-29.8054

>  <SCORE.INTRA.VDW>
-3.36579

>  <SCORE.INTRA.VDW.0>
2.61447

>  <SCORE.INTRA.norm>
-0.0969878

>  <SCORE.RESTR>
0

>  <SCORE.RESTR.CAVITY>
0

>  <SCORE.RESTR.norm>
0

>  <SCORE.SYSTEM>
0

>  <SCORE.SYSTEM.CONST>
0

>  <SCORE.SYSTEM.DIHEDRAL>
0

>  <SCORE.SYSTEM.SOLV>
0

>  <SCORE.SYSTEM.norm>
0

>  <SCORE.heavy>
23

>  <SCORE.norm>
-1.06976

>  <RMSD>
6.369

$$$$

 OpenBabel11021811403D
libRbt.so/2013.1/901 2013/11/27
 23 25  0  0  0  0  0  0  0  0999 V2000
  -22.0131    7.3548   11.2190 S   0  0  0  0  0  0  0  0  0  0  0  0
  -24.8352    6.9217   10.3720 N   0  0  0  0  0  0  0  0  0  0  0  0
  -24.4546    7.0720    7.9958 C   0  0  0  0  0  0  0  0  0  0  0  0
  -23.5574    7.2510    6.9346 C   0  0  0  0  0  0  0  0  0  0  0  0
  -22.2039    7.4527    7.1875 C   0  0  0  0  0  0  0  0  0  0  0  0
  -21.7401    7.4814    8.4982 C   0  0  0  0  0  0  0  0  0  0  0  0
  -22.6231    7.3072    9.5608 C   0  0  0  0  0  0  0  0  0  0  0  0
  -23.9862    7.1008    9.3169 C   0  0  0  0  0  0  0  0  0  0  0  0
  -23.4278    8.2535   11.7722 C   0  0  0  0  0  0  0  0  0  0  0  0
  -23.2823    9.2853   12.7041 C   0  0  0  0  0  0  0  0  0  0  0  0
  -24.4059    9.9913   13.1434 C   0  0  0  0  0  0  0  0  0  0  0  0
  -25.6728    9.6599   12.6519 C   0  0  0  0  0  0  0  0  0  0  0  0
  -25.8109    8.6284   11.7225 C   0  0  0  0  0  0  0  0  0  0  0  0
  -24.6970    7.9280   11.2805 C   0  0  0  0  0  0  0  0  0  0  0  0
  -26.1726    6.3150   10.1592 C   0  0  0  0  0  0  0  0  0  0  0  0
  -26.5500    5.0874   11.0539 C   0  0  0  0  0  0  0  0  0  0  0  0
  -26.5971    5.4214   12.5841 C   0  0  0  0  0  0  0  0  0  0  0  0
  -26.8973    4.3107   13.5233 N   0  3  0  0  0  0  0  0  0  0  0  0
  -27.1605    4.8152   14.8958 C   0  0  0  0  0  0  0  0  0  0  0  0
  -25.7912    3.2917   13.5091 C   0  0  0  0  0  0  0  0  0  0  0  0
  -24.0488    7.2309    5.5152 C   0  0  0  0  0  0  0  0  0  0  0  0
  -25.4665    6.8477    5.1661 C   0  0  0  0  0  0  0  0  0  0  0  0
  -23.3033    7.5911    4.6182 O   0  0  0  0  0  0  0  0  0  0  0  0
  1  7  1  0  0  0  0
  1  9  1  0  0  0  0
  2  8  1  0  0  0  0
  2 14  1  0  0  0  0
  2 15  1  0  0  0  0
  3  4  2  0  0  0  0
  3  8  1  0  0  0  0
  4  5  1  0  0  0  0
  4 21  1  0  0  0  0
  5  6  2  0  0  0  0
  6  7  1  0  0  0  0
  7  8  2  0  0  0  0
  9 10  2  0  0  0  0
  9 14  1  0  0  0  0
 10 11  1  0  0  0  0
 11 12  2  0  0  0  0
 12 13  1  0  0  0  0
 13 14  2  0  0  0  0
 15 16  1  0  0  0  0
 16 17  1  0  0  0  0
 17 18  1  0  0  0  0
 18 19  1  0  0  0  0
 18 20  1  0  0  0  0
 21 22  1  0  0  0  0
 21 23  2  0  0  0  0
M  CHG  1  18   1
M  END
>  <CHROM.1>
127.17855513,-7.94644904,62.11875533,-177.79883449,-49.30884746,-24.47279345
7.01189009,10.30854079,-1.03729244,0.82985882,1.37606210

>  <Name>


>  <RI>
0

>  <Rbt.Current_Directory>
/home/itssahil/PROJECTS/Mol_Feturizer/New_Systems/rnas/1lvj

>  <Rbt.Executable>
rbdock ($Id: //depot/dev/client3/rdock/2013.1/src/exe/rbdock.cxx#4 $)

>  <Rbt.Library>
libRbt.so (2013.1, Build901 2013/11/27)

>  <Rbt.Parameter_File>
/export/apps/rDock/src/rDock_2013.1_src/data/scripts/dock_solv.prm

>  <Rbt.Receptor>
prm/pocket_docking_8.prm

>  <SCORE>
-27.0335

>  <SCORE.INTER>
-21.5622

>  <SCORE.INTER.CONST>
1

>  <SCORE.INTER.POLAR>
0

>  <SCORE.INTER.ROT>
5

>  <SCORE.INTER.SOLV>
8.96992

>  <SCORE.INTER.VDW>
-24.2981

>  <SCORE.INTER.norm>
-0.937487

>  <SCORE.INTRA>
-5.47135

>  <SCORE.INTRA.DIHEDRAL>
-5.69966

>  <SCORE.INTRA.DIHEDRAL.0>
8.06479

>  <SCORE.INTRA.POLAR>
0

>  <SCORE.INTRA.POLAR.0>
0

>  <SCORE.INTRA.REPUL>
0

>  <SCORE.INTRA.REPUL.0>
0

>  <SCORE.INTRA.SOLV>
0.493493

>  <SCORE.INTRA.SOLV.lig_0>
-29.8054

>  <SCORE.INTRA.VDW>
-2.86826

>  <SCORE.INTRA.VDW.0>
2.61447

>  <SCORE.INTRA.norm>
-0.237885

>  <SCORE.RESTR>
0

>  <SCORE.RESTR.CAVITY>
0

>  <SCORE.RESTR.norm>
0

>  <SCORE.SYSTEM>
0

>  <SCORE.SYSTEM.CONST>
0

>  <SCORE.SYSTEM.DIHEDRAL>
0

>  <SCORE.SYSTEM.SOLV>
0

>  <SCORE.SYSTEM.norm>
0

>  <SCORE.heavy>
23

>  <SCORE.norm>
-1.17537

>  <RMSD>
6.381

$$$$

 OpenBabel11021811403D
libRbt.so/2013.1/901 2013/11/27
 23 25  0  0  0  0  0  0  0  0999 V2000
  -26.5060    4.0022   11.3503 S   0  0  0  0  0  0  0  0  0  0  0  0
  -25.5585    6.7908   10.9089 N   0  0  0  0  0  0  0  0  0  0  0  0
  -23.3024    6.4617   11.6937 C   0  0  0  0  0  0  0  0  0  0  0  0
  -22.3281    5.5996   12.2140 C   0  0  0  0  0  0  0  0  0  0  0  0
  -22.6329    4.2641   12.4590 C   0  0  0  0  0  0  0  0  0  0  0  0
  -23.9101    3.7837   12.1911 C   0  0  0  0  0  0  0  0  0  0  0  0
  -24.8871    4.6321   11.6763 C   0  0  0  0  0  0  0  0  0  0  0  0
  -24.5898    5.9766   11.4236 C   0  0  0  0  0  0  0  0  0  0  0  0
  -27.2619    5.4785   11.9535 C   0  0  0  0  0  0  0  0  0  0  0  0
  -28.4279    5.4057   12.7213 C   0  0  0  0  0  0  0  0  0  0  0  0
  -29.0262    6.5776   13.1929 C   0  0  0  0  0  0  0  0  0  0  0  0
  -28.4583    7.8196   12.8913 C   0  0  0  0  0  0  0  0  0  0  0  0
  -27.2948    7.8852   12.1239 C   0  0  0  0  0  0  0  0  0  0  0  0
  -26.6953    6.7234   11.6575 C   0  0  0  0  0  0  0  0  0  0  0  0
  -25.1890    8.0757   10.2650 C   0  0  0  0  0  0  0  0  0  0  0  0
  -25.5182    8.2317    8.7427 C   0  0  0  0  0  0  0  0  0  0  0  0
  -24.5220    7.4654    7.8070 C   0  0  0  0  0  0  0  0  0  0  0  0
  -24.6286    7.7026    6.3447 N   0  3  0  0  0  0  0  0  0  0  0  0
  -25.7914    6.9854    5.7608 C   0  0  0  0  0  0  0  0  0  0  0  0
  -23.3447    7.3339    5.6535 C   0  0  0  0  0  0  0  0  0  0  0  0
  -20.9479    6.1099   12.5156 C   0  0  0  0  0  0  0  0  0  0  0  0
  -19.8854    5.2274   13.1248 C   0  0  0  0  0  0  0  0  0  0  0  0
  -20.6513    7.2531   12.2069 O   0  0  0  0  0  0  0  0  0  0  0  0
  1  7  1  0  0  0  0
  1  9  1  0  0  0  0
  2  8  1  0  0  0  0
  2 14  1  0  0  0  0
  2 15  1  0  0  0  0
  3  4  2  0  0  0  0
  3  8  1  0  0  0  0
  4  5  1  0  0  0  0
  4 21  1  0  0  0  0
  5  6  2  0  0  0  0
  6  7  1  0  0  0  0
  7  8  2  0  0  0  0
  9 10  2  0  0  0  0
  9 14  1  0  0  0  0
 10 11  1  0  0  0  0
 11 12  2  0  0  0  0
 12 13  1  0  0  0  0
 13 14  2  0  0  0  0
 15 16  1  0  0  0  0
 16 17  1  0  0  0  0
 17 18  1  0  0  0  0
 18 19  1  0  0  0  0
 18 20  1  0  0  0  0
 21 22  1  0  0  0  0
 21 23  2  0  0  0  0
M  CHG  1  18   1
M  END
>  <CHROM.1>
116.70061421,177.66005415,-76.71605363,-171.55711699,43.77626364,-24.87697429
6.25243707,10.82994189,0.91786819,-0.06789428,1.92291863

>  <Name>


>  <RI>
0

>  <Rbt.Current_Directory>
/home/itssahil/PROJECTS/Mol_Feturizer/New_Systems/rnas/1lvj

>  <Rbt.Executable>
rbdock ($Id: //depot/dev/client3/rdock/2013.1/src/exe/rbdock.cxx#4 $)

>  <Rbt.Library>
libRbt.so (2013.1, Build901 2013/11/27)

>  <Rbt.Parameter_File>
/export/apps/rDock/src/rDock_2013.1_src/data/scripts/dock_solv.prm

>  <Rbt.Receptor>
prm/pocket_docking_7.prm

>  <SCORE>
-22.1419

>  <SCORE.INTER>
-17.6817

>  <SCORE.INTER.CONST>
1

>  <SCORE.INTER.POLAR>
0

>  <SCORE.INTER.ROT>
5

>  <SCORE.INTER.SOLV>
14.3607

>  <SCORE.INTER.VDW>
-23.508

>  <SCORE.INTER.norm>
-0.76877

>  <SCORE.INTRA>
-4.46015

>  <SCORE.INTRA.DIHEDRAL>
-3.89806

>  <SCORE.INTRA.DIHEDRAL.0>
8.06479

>  <SCORE.INTRA.POLAR>
0

>  <SCORE.INTRA.POLAR.0>
0

>  <SCORE.INTRA.REPUL>
0

>  <SCORE.INTRA.REPUL.0>
0

>  <SCORE.INTRA.SOLV>
0.566767

>  <SCORE.INTRA.SOLV.lig_0>
-29.8054

>  <SCORE.INTRA.VDW>
-2.79451

>  <SCORE.INTRA.VDW.0>
2.61447

>  <SCORE.INTRA.norm>
-0.19392

>  <SCORE.RESTR>
0

>  <SCORE.RESTR.CAVITY>
0

>  <SCORE.RESTR.norm>
0

>  <SCORE.SYSTEM>
0

>  <SCORE.SYSTEM.CONST>
0

>  <SCORE.SYSTEM.DIHEDRAL>
0

>  <SCORE.SYSTEM.SOLV>
0

>  <SCORE.SYSTEM.norm>
0

>  <SCORE.heavy>
23

>  <SCORE.norm>
-0.96269

>  <RMSD>
6.386

$$$$

 OpenBabel11021811403D
libRbt.so/2013.1/901 2013/11/27
 23 25  0  0  0  0  0  0  0  0999 V2000
  -21.9475    7.4093   11.5382 S   0  0  0  0  0  0  0  0  0  0  0  0
  -24.9130    7.1936   11.3690 N   0  0  0  0  0  0  0  0  0  0  0  0
  -25.0719    7.2169    8.9631 C   0  0  0  0  0  0  0  0  0  0  0  0
  -24.4283    7.2746    7.7199 C   0  0  0  0  0  0  0  0  0  0  0  0
  -23.0414    7.3661    7.6523 C   0  0  0  0  0  0  0  0  0  0  0  0
  -22.2910    7.4050    8.8224 C   0  0  0  0  0  0  0  0  0  0  0  0
  -22.9202    7.3508   10.0636 C   0  0  0  0  0  0  0  0  0  0  0  0
  -24.3147    7.2559   10.1424 C   0  0  0  0  0  0  0  0  0  0  0  0
  -23.1259    8.4499   12.3402 C   0  0  0  0  0  0  0  0  0  0  0  0
  -22.6935    9.5005   13.1548 C   0  0  0  0  0  0  0  0  0  0  0  0
  -23.6301   10.3193   13.7921 C   0  0  0  0  0  0  0  0  0  0  0  0
  -24.9971   10.0818   13.6159 C   0  0  0  0  0  0  0  0  0  0  0  0
  -25.4219    9.0310   12.8020 C   0  0  0  0  0  0  0  0  0  0  0  0
  -24.4949    8.2185   12.1639 C   0  0  0  0  0  0  0  0  0  0  0  0
  -26.3064    6.6992   11.4955 C   0  0  0  0  0  0  0  0  0  0  0  0
  -26.6467    5.8394   12.7584 C   0  0  0  0  0  0  0  0  0  0  0  0
  -28.1851    5.6543   12.9915 C   0  0  0  0  0  0  0  0  0  0  0  0
  -28.9231    4.7704   12.0535 N   0  3  0  0  0  0  0  0  0  0  0  0
  -30.3644    4.6875   12.4046 C   0  0  0  0  0  0  0  0  0  0  0  0
  -28.2863    3.4091   11.9969 C   0  0  0  0  0  0  0  0  0  0  0  0
  -25.2295    7.2425    6.4496 C   0  0  0  0  0  0  0  0  0  0  0  0
  -26.7363    7.1530    6.4577 C   0  0  0  0  0  0  0  0  0  0  0  0
  -24.6565    7.3517    5.3772 O   0  0  0  0  0  0  0  0  0  0  0  0
  1  7  1  0  0  0  0
  1  9  1  0  0  0  0
  2  8  1  0  0  0  0
  2 14  1  0  0  0  0
  2 15  1  0  0  0  0
  3  4  2  0  0  0  0
  3  8  1  0  0  0  0
  4  5  1  0  0  0  0
  4 21  1  0  0  0  0
  5  6  2  0  0  0  0
  6  7  1  0  0  0  0
  7  8  2  0  0  0  0
  9 10  2  0  0  0  0
  9 14  1  0  0  0  0
 10 11  1  0  0  0  0
 11 12  2  0  0  0  0
 12 13  1  0  0  0  0
 13 14  2  0  0  0  0
 15 16  1  0  0  0  0
 16 17  1  0  0  0  0
 17 18  1  0  0  0  0
 18 19  1  0  0  0  0
 18 20  1  0  0  0  0
 21 22  1  0  0  0  0
 21 23  2  0  0  0  0
M  CHG  1  18   1
M  END
>  <CHROM.1>
143.12842646,0.21466433,166.06489217,71.36847894,-60.35878244,-25.08666143
7.19317161,10.73322211,-0.42806186,0.54963160,1.40472268

>  <Name>


>  <RI>
0

>  <Rbt.Current_Directory>
/home/itssahil/PROJECTS/Mol_Feturizer/New_Systems/rnas/1lvj

>  <Rbt.Executable>
rbdock ($Id: //depot/dev/client3/rdock/2013.1/src/exe/rbdock.cxx#4 $)

>  <Rbt.Library>
libRbt.so (2013.1, Build901 2013/11/27)

>  <Rbt.Parameter_File>
/export/apps/rDock/src/rDock_2013.1_src/data/scripts/dock_solv.prm

>  <Rbt.Receptor>
prm/pocket_docking_8.prm

>  <SCORE>
-29.2749

>  <SCORE.INTER>
-25.2811

>  <SCORE.INTER.CONST>
1

>  <SCORE.INTER.POLAR>
-1.16149

>  <SCORE.INTER.ROT>
5

>  <SCORE.INTER.SOLV>
12.076

>  <SCORE.INTER.VDW>
-23.9411

>  <SCORE.INTER.norm>
-1.09918

>  <SCORE.INTRA>
-3.99385

>  <SCORE.INTRA.DIHEDRAL>
-5.88121

>  <SCORE.INTRA.DIHEDRAL.0>
8.06479

>  <SCORE.INTRA.POLAR>
0

>  <SCORE.INTRA.POLAR.0>
0

>  <SCORE.INTRA.REPUL>
0

>  <SCORE.INTRA.REPUL.0>
0

>  <SCORE.INTRA.SOLV>
1.66467

>  <SCORE.INTRA.SOLV.lig_0>
-29.8054

>  <SCORE.INTRA.VDW>
-1.88558

>  <SCORE.INTRA.VDW.0>
2.61447

>  <SCORE.INTRA.norm>
-0.173646

>  <SCORE.RESTR>
0

>  <SCORE.RESTR.CAVITY>
0

>  <SCORE.RESTR.norm>
0

>  <SCORE.SYSTEM>
0

>  <SCORE.SYSTEM.CONST>
0

>  <SCORE.SYSTEM.DIHEDRAL>
0

>  <SCORE.SYSTEM.SOLV>
0

>  <SCORE.SYSTEM.norm>
0

>  <SCORE.heavy>
23

>  <SCORE.norm>
-1.27282

>  <RMSD>
6.389

$$$$

 OpenBabel11021811403D
libRbt.so/2013.1/901 2013/11/27
 23 25  0  0  0  0  0  0  0  0999 V2000
  -21.9642    7.3363   11.3579 S   0  0  0  0  0  0  0  0  0  0  0  0
  -24.7918    6.9729   10.4965 N   0  0  0  0  0  0  0  0  0  0  0  0
  -24.3954    7.1132    8.1222 C   0  0  0  0  0  0  0  0  0  0  0  0
  -23.4886    7.2697    7.0656 C   0  0  0  0  0  0  0  0  0  0  0  0
  -22.1319    7.4379    7.3255 C   0  0  0  0  0  0  0  0  0  0  0  0
  -21.6743    7.4554    8.6385 C   0  0  0  0  0  0  0  0  0  0  0  0
  -22.5667    7.3033    9.6966 C   0  0  0  0  0  0  0  0  0  0  0  0
  -23.9332    7.1307    9.4458 C   0  0  0  0  0  0  0  0  0  0  0  0
  -23.3590    8.2698   11.9038 C   0  0  0  0  0  0  0  0  0  0  0  0
  -23.1929    9.2978   12.8364 C   0  0  0  0  0  0  0  0  0  0  0  0
  -24.3009   10.0315   13.2698 C   0  0  0  0  0  0  0  0  0  0  0  0
  -25.5730    9.7314   12.7719 C   0  0  0  0  0  0  0  0  0  0  0  0
  -25.7319    8.7034   11.8418 C   0  0  0  0  0  0  0  0  0  0  0  0
  -24.6334    7.9756   11.4057 C   0  0  0  0  0  0  0  0  0  0  0  0
  -26.1427    6.3994   10.2769 C   0  0  0  0  0  0  0  0  0  0  0  0
  -26.4861    5.0722   11.0323 C   0  0  0  0  0  0  0  0  0  0  0  0
  -26.4055    5.2028   12.5917 C   0  0  0  0  0  0  0  0  0  0  0  0
  -26.1607    3.9652   13.3755 N   0  3  0  0  0  0  0  0  0  0  0  0
  -27.3142    3.0324   13.2933 C   0  0  0  0  0  0  0  0  0  0  0  0
  -25.8184    4.3003   14.8011 C   0  0  0  0  0  0  0  0  0  0  0  0
  -23.9731    7.2615    5.6438 C   0  0  0  0  0  0  0  0  0  0  0  0
  -25.3935    6.8964    5.2860 C   0  0  0  0  0  0  0  0  0  0  0  0
  -23.2190    7.6168    4.7520 O   0  0  0  0  0  0  0  0  0  0  0  0
  1  7  1  0  0  0  0
  1  9  1  0  0  0  0
  2  8  1  0  0  0  0
  2 14  1  0  0  0  0
  2 15  1  0  0  0  0
  3  4  2  0  0  0  0
  3  8  1  0  0  0  0
  4  5  1  0  0  0  0
  4 21  1  0  0  0  0
  5  6  2  0  0  0  0
  6  7  1  0  0  0  0
  7  8  2  0  0  0  0
  9 10  2  0  0  0  0
  9 14  1  0  0  0  0
 10 11  1  0  0  0  0
 11 12  2  0  0  0  0
 12 13  1  0  0  0  0
 13 14  2  0  0  0  0
 15 16  1  0  0  0  0
 16 17  1  0  0  0  0
 17 18  1  0  0  0  0
 18 19  1  0  0  0  0
 18 20  1  0  0  0  0
 21 22  1  0  0  0  0
 21 23  2  0  0  0  0
M  CHG  1  18   1
M  END
>  <CHROM.1>
119.40758196,-8.73721943,60.01958842,-155.65290490,52.60536609,-24.37912203
6.97109817,10.38732932,-2.11932537,-0.88673387,-1.75141503

>  <Name>


>  <RI>
0

>  <Rbt.Current_Directory>
/home/itssahil/PROJECTS/Mol_Feturizer/New_Systems/rnas/1lvj

>  <Rbt.Executable>
rbdock ($Id: //depot/dev/client3/rdock/2013.1/src/exe/rbdock.cxx#4 $)

>  <Rbt.Library>
libRbt.so (2013.1, Build901 2013/11/27)

>  <Rbt.Parameter_File>
/export/apps/rDock/src/rDock_2013.1_src/data/scripts/dock_solv.prm

>  <Rbt.Receptor>
prm/pocket_docking_5.prm

>  <SCORE>
-25.993

>  <SCORE.INTER>
-21.6258

>  <SCORE.INTER.CONST>
1

>  <SCORE.INTER.POLAR>
-0.000917165

>  <SCORE.INTER.ROT>
5

>  <SCORE.INTER.SOLV>
9.47112

>  <SCORE.INTER.VDW>
-24.5045

>  <SCORE.INTER.norm>
-0.940252

>  <SCORE.INTRA>
-4.36719

>  <SCORE.INTRA.DIHEDRAL>
-3.44517

>  <SCORE.INTRA.DIHEDRAL.0>
8.06479

>  <SCORE.INTRA.POLAR>
0

>  <SCORE.INTRA.POLAR.0>
0

>  <SCORE.INTRA.REPUL>
0

>  <SCORE.INTRA.REPUL.0>
0

>  <SCORE.INTRA.SOLV>
0.633425

>  <SCORE.INTRA.SOLV.lig_0>
-29.8054

>  <SCORE.INTRA.VDW>
-2.96132

>  <SCORE.INTRA.VDW.0>
2.61447

>  <SCORE.INTRA.norm>
-0.189878

>  <SCORE.RESTR>
0

>  <SCORE.RESTR.CAVITY>
0

>  <SCORE.RESTR.norm>
0

>  <SCORE.SYSTEM>
0

>  <SCORE.SYSTEM.CONST>
0

>  <SCORE.SYSTEM.DIHEDRAL>
0

>  <SCORE.SYSTEM.SOLV>
0

>  <SCORE.SYSTEM.norm>
0

>  <SCORE.heavy>
23

>  <SCORE.norm>
-1.13013

>  <RMSD>
6.390

$$$$

 OpenBabel11021811403D
libRbt.so/2013.1/901 2013/11/27
 23 25  0  0  0  0  0  0  0  0999 V2000
  -21.9354    7.3449   11.2065 S   0  0  0  0  0  0  0  0  0  0  0  0
  -24.7694    6.8877   10.4138 N   0  0  0  0  0  0  0  0  0  0  0  0
  -24.4377    7.0523    8.0311 C   0  0  0  0  0  0  0  0  0  0  0  0
  -23.5636    7.2449    6.9532 C   0  0  0  0  0  0  0  0  0  0  0  0
  -22.2074    7.4588    7.1801 C   0  0  0  0  0  0  0  0  0  0  0  0
  -21.7179    7.4863    8.4814 C   0  0  0  0  0  0  0  0  0  0  0  0
  -22.5778    7.2986    9.5606 C   0  0  0  0  0  0  0  0  0  0  0  0
  -23.9434    7.0799    9.3428 C   0  0  0  0  0  0  0  0  0  0  0  0
  -23.3475    8.2271   11.7919 C   0  0  0  0  0  0  0  0  0  0  0  0
  -23.1936    9.2561   12.7255 C   0  0  0  0  0  0  0  0  0  0  0  0
  -24.3151    9.9489   13.1904 C   0  0  0  0  0  0  0  0  0  0  0  0
  -25.5882    9.6072   12.7226 C   0  0  0  0  0  0  0  0  0  0  0  0
  -25.7347    8.5786   11.7913 C   0  0  0  0  0  0  0  0  0  0  0  0
  -24.6230    7.8912   11.3240 C   0  0  0  0  0  0  0  0  0  0  0  0
  -26.1048    6.2687   10.2247 C   0  0  0  0  0  0  0  0  0  0  0  0
  -26.7508    5.5716   11.4684 C   0  0  0  0  0  0  0  0  0  0  0  0
  -25.8380    4.4727   12.1121 C   0  0  0  0  0  0  0  0  0  0  0  0
  -26.2667    3.8946   13.4113 N   0  3  0  0  0  0  0  0  0  0  0  0
  -26.1332    4.8799   14.5154 C   0  0  0  0  0  0  0  0  0  0  0  0
  -25.5096    2.6282   13.7029 C   0  0  0  0  0  0  0  0  0  0  0  0
  -24.0830    7.2263    5.5438 C   0  0  0  0  0  0  0  0  0  0  0  0
  -25.5093    6.8502    5.2230 C   0  0  0  0  0  0  0  0  0  0  0  0
  -23.3535    7.5820    4.6319 O   0  0  0  0  0  0  0  0  0  0  0  0
  1  7  1  0  0  0  0
  1  9  1  0  0  0  0
  2  8  1  0  0  0  0
  2 14  1  0  0  0  0
  2 15  1  0  0  0  0
  3  4  2  0  0  0  0
  3  8  1  0  0  0  0
  4  5  1  0  0  0  0
  4 21  1  0  0  0  0
  5  6  2  0  0  0  0
  6  7  1  0  0  0  0
  7  8  2  0  0  0  0
  9 10  2  0  0  0  0
  9 14  1  0  0  0  0
 10 11  1  0  0  0  0
 11 12  2  0  0  0  0
 12 13  1  0  0  0  0
 13 14  2  0  0  0  0
 15 16  1  0  0  0  0
 16 17  1  0  0  0  0
 17 18  1  0  0  0  0
 18 19  1  0  0  0  0
 18 20  1  0  0  0  0
 21 22  1  0  0  0  0
 21 23  2  0  0  0  0
M  CHG  1  18   1
M  END
>  <CHROM.1>
156.56367915,-7.03162096,-55.21988549,171.07752999,49.63585478,-24.32907509
6.93029207,10.31352011,-2.07840167,-0.96507701,-1.74871809

>  <Name>


>  <RI>
0

>  <Rbt.Current_Directory>
/home/itssahil/PROJECTS/Mol_Feturizer/New_Systems/rnas/1lvj

>  <Rbt.Executable>
rbdock ($Id: //depot/dev/client3/rdock/2013.1/src/exe/rbdock.cxx#4 $)

>  <Rbt.Library>
libRbt.so (2013.1, Build901 2013/11/27)

>  <Rbt.Parameter_File>
/export/apps/rDock/src/rDock_2013.1_src/data/scripts/dock_solv.prm

>  <Rbt.Receptor>
prm/pocket_docking_8.prm

>  <SCORE>
-27.3828

>  <SCORE.INTER>
-21.506

>  <SCORE.INTER.CONST>
1

>  <SCORE.INTER.POLAR>
0

>  <SCORE.INTER.ROT>
5

>  <SCORE.INTER.SOLV>
9.31263

>  <SCORE.INTER.VDW>
-24.3749

>  <SCORE.INTER.norm>
-0.935042

>  <SCORE.INTRA>
-5.87683

>  <SCORE.INTRA.DIHEDRAL>
-6.63511

>  <SCORE.INTRA.DIHEDRAL.0>
8.06479

>  <SCORE.INTRA.POLAR>
0

>  <SCORE.INTRA.POLAR.0>
0

>  <SCORE.INTRA.REPUL>
0

>  <SCORE.INTRA.REPUL.0>
0

>  <SCORE.INTRA.SOLV>
0.460396

>  <SCORE.INTRA.SOLV.lig_0>
-29.8054

>  <SCORE.INTRA.VDW>
-2.78948

>  <SCORE.INTRA.VDW.0>
2.61447

>  <SCORE.INTRA.norm>
-0.255515

>  <SCORE.RESTR>
0

>  <SCORE.RESTR.CAVITY>
0

>  <SCORE.RESTR.norm>
0

>  <SCORE.SYSTEM>
0

>  <SCORE.SYSTEM.CONST>
0

>  <SCORE.SYSTEM.DIHEDRAL>
0

>  <SCORE.SYSTEM.SOLV>
0

>  <SCORE.SYSTEM.norm>
0

>  <SCORE.heavy>
23

>  <SCORE.norm>
-1.19056

>  <RMSD>
6.404

$$$$

 OpenBabel11021811403D
libRbt.so/2013.1/901 2013/11/27
 23 25  0  0  0  0  0  0  0  0999 V2000
  -26.0894    7.0672    8.5082 S   0  0  0  0  0  0  0  0  0  0  0  0
  -23.4610    6.8400    9.8900 N   0  0  0  0  0  0  0  0  0  0  0  0
  -24.0152    8.2030   11.8003 C   0  0  0  0  0  0  0  0  0  0  0  0
  -24.9587    8.9803   12.4848 C   0  0  0  0  0  0  0  0  0  0  0  0
  -26.2335    9.1613   11.9568 C   0  0  0  0  0  0  0  0  0  0  0  0
  -26.5714    8.5725   10.7431 C   0  0  0  0  0  0  0  0  0  0  0  0
  -25.6409    7.8000   10.0528 C   0  0  0  0  0  0  0  0  0  0  0  0
  -24.3567    7.6095   10.5768 C   0  0  0  0  0  0  0  0  0  0  0  0
  -24.5035    7.4188    7.8180 C   0  0  0  0  0  0  0  0  0  0  0  0
  -24.3959    7.8499    6.4926 C   0  0  0  0  0  0  0  0  0  0  0  0
  -23.1377    8.1225    5.9482 C   0  0  0  0  0  0  0  0  0  0  0  0
  -21.9900    7.9590    6.7308 C   0  0  0  0  0  0  0  0  0  0  0  0
  -22.1045    7.5277    8.0528 C   0  0  0  0  0  0  0  0  0  0  0  0
  -23.3525    7.2602    8.5982 C   0  0  0  0  0  0  0  0  0  0  0  0
  -22.2653    6.2928   10.5778 C   0  0  0  0  0  0  0  0  0  0  0  0
  -21.1937    7.3208   11.0725 C   0  0  0  0  0  0  0  0  0  0  0  0
  -20.0868    6.6813   11.9786 C   0  0  0  0  0  0  0  0  0  0  0  0
  -19.1003    7.5943   12.6102 N   0  3  0  0  0  0  0  0  0  0  0  0
  -18.1472    8.1410   11.6101 C   0  0  0  0  0  0  0  0  0  0  0  0
  -18.3853    6.9027   13.7382 C   0  0  0  0  0  0  0  0  0  0  0  0
  -24.6016    9.6284   13.7921 C   0  0  0  0  0  0  0  0  0  0  0  0
  -23.1689    9.7856   14.2407 C   0  0  0  0  0  0  0  0  0  0  0  0
  -25.4869   10.0975   14.4896 O   0  0  0  0  0  0  0  0  0  0  0  0
  1  7  1  0  0  0  0
  1  9  1  0  0  0  0
  2  8  1  0  0  0  0
  2 14  1  0  0  0  0
  2 15  1  0  0  0  0
  3  4  2  0  0  0  0
  3  8  1  0  0  0  0
  4  5  1  0  0  0  0
  4 21  1  0  0  0  0
  5  6  2  0  0  0  0
  6  7  1  0  0  0  0
  7  8  2  0  0  0  0
  9 10  2  0  0  0  0
  9 14  1  0  0  0  0
 10 11  1  0  0  0  0
 11 12  2  0  0  0  0
 12 13  1  0  0  0  0
 13 14  2  0  0  0  0
 15 16  1  0  0  0  0
 16 17  1  0  0  0  0
 17 18  1  0  0  0  0
 18 19  1  0  0  0  0
 18 20  1  0  0  0  0
 21 22  1  0  0  0  0
 21 23  2  0  0  0  0
M  CHG  1  18   1
M  END
>  <CHROM.1>
-66.28841422,16.31262260,170.90587201,-174.04013504,48.07639971,-23.24721800
7.90574988,10.57820185,2.39590503,0.20018660,-1.82433202

>  <Name>


>  <RI>
0

>  <Rbt.Current_Directory>
/home/itssahil/PROJECTS/Mol_Feturizer/New_Systems/rnas/1lvj

>  <Rbt.Executable>
rbdock ($Id: //depot/dev/client3/rdock/2013.1/src/exe/rbdock.cxx#4 $)

>  <Rbt.Library>
libRbt.so (2013.1, Build901 2013/11/27)

>  <Rbt.Parameter_File>
/export/apps/rDock/src/rDock_2013.1_src/data/scripts/dock_solv.prm

>  <Rbt.Receptor>
prm/pocket_docking_6.prm

>  <SCORE>
-31.6364

>  <SCORE.INTER>
-26.776

>  <SCORE.INTER.CONST>
1

>  <SCORE.INTER.POLAR>
0

>  <SCORE.INTER.ROT>
5

>  <SCORE.INTER.SOLV>
8.37514

>  <SCORE.INTER.VDW>
-27.5757

>  <SCORE.INTER.norm>
-1.16417

>  <SCORE.INTRA>
-4.86458

>  <SCORE.INTRA.DIHEDRAL>
-6.10086

>  <SCORE.INTRA.DIHEDRAL.0>
8.06479

>  <SCORE.INTRA.POLAR>
0

>  <SCORE.INTRA.POLAR.0>
0

>  <SCORE.INTRA.REPUL>
0

>  <SCORE.INTRA.REPUL.0>
0

>  <SCORE.INTRA.SOLV>
0.806629

>  <SCORE.INTRA.SOLV.lig_0>
-29.8054

>  <SCORE.INTRA.VDW>
-2.21747

>  <SCORE.INTRA.VDW.0>
2.61447

>  <SCORE.INTRA.norm>
-0.211504

>  <SCORE.RESTR>
0.00410712

>  <SCORE.RESTR.CAVITY>
0.00410712

>  <SCORE.RESTR.norm>
0.000178571

>  <SCORE.SYSTEM>
0

>  <SCORE.SYSTEM.CONST>
0

>  <SCORE.SYSTEM.DIHEDRAL>
0

>  <SCORE.SYSTEM.SOLV>
0

>  <SCORE.SYSTEM.norm>
0

>  <SCORE.heavy>
23

>  <SCORE.norm>
-1.3755

>  <RMSD>
6.431

$$$$

 OpenBabel11021811403D
libRbt.so/2013.1/901 2013/11/27
 23 25  0  0  0  0  0  0  0  0999 V2000
  -22.6354    7.5456   10.5442 S   0  0  0  0  0  0  0  0  0  0  0  0
  -25.4473    6.5816   10.7263 N   0  0  0  0  0  0  0  0  0  0  0  0
  -25.9502    6.6974    8.3710 C   0  0  0  0  0  0  0  0  0  0  0  0
  -25.5261    6.9886    7.0677 C   0  0  0  0  0  0  0  0  0  0  0  0
  -24.2297    7.4386    6.8367 C   0  0  0  0  0  0  0  0  0  0  0  0
  -23.3528    7.6045    7.9031 C   0  0  0  0  0  0  0  0  0  0  0  0
  -23.7642    7.3205    9.2028 C   0  0  0  0  0  0  0  0  0  0  0  0
  -25.0654    6.8646    9.4456 C   0  0  0  0  0  0  0  0  0  0  0  0
  -23.9077    8.2003   11.5774 C   0  0  0  0  0  0  0  0  0  0  0  0
  -23.6373    9.2797   12.4236 C   0  0  0  0  0  0  0  0  0  0  0  0
  -24.6464    9.7920   13.2440 C   0  0  0  0  0  0  0  0  0  0  0  0
  -25.9225    9.2199   13.2184 C   0  0  0  0  0  0  0  0  0  0  0  0
  -26.1854    8.1422   12.3719 C   0  0  0  0  0  0  0  0  0  0  0  0
  -25.1871    7.6336   11.5526 C   0  0  0  0  0  0  0  0  0  0  0  0
  -26.6414    5.7379   10.9800 C   0  0  0  0  0  0  0  0  0  0  0  0
  -26.5802    4.7637   12.2035 C   0  0  0  0  0  0  0  0  0  0  0  0
  -27.7051    3.6730   12.1898 C   0  0  0  0  0  0  0  0  0  0  0  0
  -27.7959    2.7615   13.3589 N   0  3  0  0  0  0  0  0  0  0  0  0
  -26.5422    1.9856   13.5422 C   0  0  0  0  0  0  0  0  0  0  0  0
  -28.9936    1.8601   13.2358 C   0  0  0  0  0  0  0  0  0  0  0  0
  -26.4678    6.8218    5.9093 C   0  0  0  0  0  0  0  0  0  0  0  0
  -26.0213    6.2255    4.5964 C   0  0  0  0  0  0  0  0  0  0  0  0
  -27.6438    7.1194    6.0458 O   0  0  0  0  0  0  0  0  0  0  0  0
  1  7  1  0  0  0  0
  1  9  1  0  0  0  0
  2  8  1  0  0  0  0
  2 14  1  0  0  0  0
  2 15  1  0  0  0  0
  3  4  2  0  0  0  0
  3  8  1  0  0  0  0
  4  5  1  0  0  0  0
  4 21  1  0  0  0  0
  5  6  2  0  0  0  0
  6  7  1  0  0  0  0
  7  8  2  0  0  0  0
  9 10  2  0  0  0  0
  9 14  1  0  0  0  0
 10 11  1  0  0  0  0
 11 12  2  0  0  0  0
 12 13  1  0  0  0  0
 13 14  2  0  0  0  0
 15 16  1  0  0  0  0
 16 17  1  0  0  0  0
 17 18  1  0  0  0  0
 18 19  1  0  0  0  0
 18 20  1  0  0  0  0
 21 22  1  0  0  0  0
 21 23  2  0  0  0  0
M  CHG  1  18   1
M  END
>  <CHROM.1>
143.90329133,-138.58778033,-165.49516762,-175.58090368,60.05863129,-25.55466654
6.48637662,10.32232306,-0.99743962,0.92996776,1.66826153

>  <Name>


>  <RI>
0

>  <Rbt.Current_Directory>
/home/itssahil/PROJECTS/Mol_Feturizer/New_Systems/rnas/1lvj

>  <Rbt.Executable>
rbdock ($Id: //depot/dev/client3/rdock/2013.1/src/exe/rbdock.cxx#4 $)

>  <Rbt.Library>
libRbt.so (2013.1, Build901 2013/11/27)

>  <Rbt.Parameter_File>
/export/apps/rDock/src/rDock_2013.1_src/data/scripts/dock_solv.prm

>  <Rbt.Receptor>
prm/pocket_docking_8.prm

>  <SCORE>
-24.727

>  <SCORE.INTER>
-21.7203

>  <SCORE.INTER.CONST>
1

>  <SCORE.INTER.POLAR>
0

>  <SCORE.INTER.ROT>
5

>  <SCORE.INTER.SOLV>
9.02412

>  <SCORE.INTER.VDW>
-24.4216

>  <SCORE.INTER.norm>
-0.94436

>  <SCORE.INTRA>
-3.00669

>  <SCORE.INTRA.DIHEDRAL>
-1.03421

>  <SCORE.INTRA.DIHEDRAL.0>
8.06479

>  <SCORE.INTRA.POLAR>
0

>  <SCORE.INTRA.POLAR.0>
0

>  <SCORE.INTRA.REPUL>
0

>  <SCORE.INTRA.REPUL.0>
0

>  <SCORE.INTRA.SOLV>
0.242028

>  <SCORE.INTRA.SOLV.lig_0>
-29.8054

>  <SCORE.INTRA.VDW>
-2.61059

>  <SCORE.INTRA.VDW.0>
2.61447

>  <SCORE.INTRA.norm>
-0.130725

>  <SCORE.RESTR>
0

>  <SCORE.RESTR.CAVITY>
0

>  <SCORE.RESTR.norm>
0

>  <SCORE.SYSTEM>
0

>  <SCORE.SYSTEM.CONST>
0

>  <SCORE.SYSTEM.DIHEDRAL>
0

>  <SCORE.SYSTEM.SOLV>
0

>  <SCORE.SYSTEM.norm>
0

>  <SCORE.heavy>
23

>  <SCORE.norm>
-1.07509

>  <RMSD>
6.448

$$$$

 OpenBabel11021811403D
libRbt.so/2013.1/901 2013/11/27
 23 25  0  0  0  0  0  0  0  0999 V2000
  -21.9268    7.4974   11.7672 S   0  0  0  0  0  0  0  0  0  0  0  0
  -24.8952    7.3735   11.5616 N   0  0  0  0  0  0  0  0  0  0  0  0
  -25.0200    7.3100    9.1544 C   0  0  0  0  0  0  0  0  0  0  0  0
  -24.3577    7.2989    7.9198 C   0  0  0  0  0  0  0  0  0  0  0  0
  -22.9677    7.3418    7.8697 C   0  0  0  0  0  0  0  0  0  0  0  0
  -22.2327    7.4006    9.0487 C   0  0  0  0  0  0  0  0  0  0  0  0
  -22.8804    7.4148   10.2814 C   0  0  0  0  0  0  0  0  0  0  0  0
  -24.2784    7.3691   10.3427 C   0  0  0  0  0  0  0  0  0  0  0  0
  -23.0806    8.6063   12.5115 C   0  0  0  0  0  0  0  0  0  0  0  0
  -22.6244    9.6724   13.2923 C   0  0  0  0  0  0  0  0  0  0  0  0
  -23.5417   10.5455   13.8841 C   0  0  0  0  0  0  0  0  0  0  0  0
  -24.9134   10.3467   13.6963 C   0  0  0  0  0  0  0  0  0  0  0  0
  -25.3619    9.2802   12.9164 C   0  0  0  0  0  0  0  0  0  0  0  0
  -24.4540    8.4137   12.3235 C   0  0  0  0  0  0  0  0  0  0  0  0
  -26.3061    6.9306   11.6857 C   0  0  0  0  0  0  0  0  0  0  0  0
  -26.6983    6.1533   12.9864 C   0  0  0  0  0  0  0  0  0  0  0  0
  -28.2216    5.7941   13.0635 C   0  0  0  0  0  0  0  0  0  0  0  0
  -28.7548    4.8333   12.0643 N   0  3  0  0  0  0  0  0  0  0  0  0
  -30.1837    4.5179   12.3218 C   0  0  0  0  0  0  0  0  0  0  0  0
  -27.9105    3.5894   12.0228 C   0  0  0  0  0  0  0  0  0  0  0  0
  -25.1419    7.2447    6.6397 C   0  0  0  0  0  0  0  0  0  0  0  0
  -26.6494    7.1674    6.6291 C   0  0  0  0  0  0  0  0  0  0  0  0
  -24.5536    7.3254    5.5731 O   0  0  0  0  0  0  0  0  0  0  0  0
  1  7  1  0  0  0  0
  1  9  1  0  0  0  0
  2  8  1  0  0  0  0
  2 14  1  0  0  0  0
  2 15  1  0  0  0  0
  3  4  2  0  0  0  0
  3  8  1  0  0  0  0
  4  5  1  0  0  0  0
  4 21  1  0  0  0  0
  5  6  2  0  0  0  0
  6  7  1  0  0  0  0
  7  8  2  0  0  0  0
  9 10  2  0  0  0  0
  9 14  1  0  0  0  0
 10 11  1  0  0  0  0
 11 12  2  0  0  0  0
 12 13  1  0  0  0  0
 13 14  2  0  0  0  0
 15 16  1  0  0  0  0
 16 17  1  0  0  0  0
 17 18  1  0  0  0  0
 18 19  1  0  0  0  0
 18 20  1  0  0  0  0
 21 22  1  0  0  0  0
 21 23  2  0  0  0  0
M  CHG  1  18   1
M  END
>  <CHROM.1>
144.17193820,-1.49195053,176.91119403,65.82268899,-64.09220750,-25.01431645
7.30089742,10.88413723,-0.27136398,0.56267603,1.36658040

>  <Name>


>  <RI>
0

>  <Rbt.Current_Directory>
/home/itssahil/PROJECTS/Mol_Feturizer/New_Systems/rnas/1lvj

>  <Rbt.Executable>
rbdock ($Id: //depot/dev/client3/rdock/2013.1/src/exe/rbdock.cxx#4 $)

>  <Rbt.Library>
libRbt.so (2013.1, Build901 2013/11/27)

>  <Rbt.Parameter_File>
/export/apps/rDock/src/rDock_2013.1_src/data/scripts/dock_solv.prm

>  <Rbt.Receptor>
prm/pocket_docking_7.prm

>  <SCORE>
-29.203

>  <SCORE.INTER>
-24.9728

>  <SCORE.INTER.CONST>
1

>  <SCORE.INTER.POLAR>
-1.1619

>  <SCORE.INTER.ROT>
5

>  <SCORE.INTER.SOLV>
11.7686

>  <SCORE.INTER.VDW>
-23.6317

>  <SCORE.INTER.norm>
-1.08577

>  <SCORE.INTRA>
-4.23015

>  <SCORE.INTRA.DIHEDRAL>
-6.84867

>  <SCORE.INTRA.DIHEDRAL.0>
8.06479

>  <SCORE.INTRA.POLAR>
0

>  <SCORE.INTRA.POLAR.0>
0

>  <SCORE.INTRA.REPUL>
0

>  <SCORE.INTRA.REPUL.0>
0

>  <SCORE.INTRA.SOLV>
1.67452

>  <SCORE.INTRA.SOLV.lig_0>
-29.8054

>  <SCORE.INTRA.VDW>
-1.64307

>  <SCORE.INTRA.VDW.0>
2.61447

>  <SCORE.INTRA.norm>
-0.183919

>  <SCORE.RESTR>
0

>  <SCORE.RESTR.CAVITY>
0

>  <SCORE.RESTR.norm>
0

>  <SCORE.SYSTEM>
0

>  <SCORE.SYSTEM.CONST>
0

>  <SCORE.SYSTEM.DIHEDRAL>
0

>  <SCORE.SYSTEM.SOLV>
0

>  <SCORE.SYSTEM.norm>
0

>  <SCORE.heavy>
23

>  <SCORE.norm>
-1.26969

>  <RMSD>
6.455

$$$$

 OpenBabel11021811403D
libRbt.so/2013.1/901 2013/11/27
 23 25  0  0  0  0  0  0  0  0999 V2000
  -27.1436    4.3633   11.4119 S   0  0  0  0  0  0  0  0  0  0  0  0
  -25.5975    6.8653   10.9441 N   0  0  0  0  0  0  0  0  0  0  0  0
  -23.4475    6.0135   11.6268 C   0  0  0  0  0  0  0  0  0  0  0  0
  -22.6776    4.9424   12.0990 C   0  0  0  0  0  0  0  0  0  0  0  0
  -23.2718    3.7093   12.3500 C   0  0  0  0  0  0  0  0  0  0  0  0
  -24.6354    3.5401   12.1362 C   0  0  0  0  0  0  0  0  0  0  0  0
  -25.4108    4.5984   11.6695 C   0  0  0  0  0  0  0  0  0  0  0  0
  -24.8222    5.8421   11.4112 C   0  0  0  0  0  0  0  0  0  0  0  0
  -27.5127    5.9646   12.0558 C   0  0  0  0  0  0  0  0  0  0  0  0
  -28.6310    6.1504   12.8738 C   0  0  0  0  0  0  0  0  0  0  0  0
  -28.9226    7.4211   13.3776 C   0  0  0  0  0  0  0  0  0  0  0  0
  -28.0965    8.5036   13.0580 C   0  0  0  0  0  0  0  0  0  0  0  0
  -26.9823    8.3113   12.2403 C   0  0  0  0  0  0  0  0  0  0  0  0
  -26.6869    7.0500   11.7417 C   0  0  0  0  0  0  0  0  0  0  0  0
  -24.9687    8.0403   10.2914 C   0  0  0  0  0  0  0  0  0  0  0  0
  -25.3276    8.2997    8.7901 C   0  0  0  0  0  0  0  0  0  0  0  0
  -24.5334    7.3894    7.7922 C   0  0  0  0  0  0  0  0  0  0  0  0
  -24.7249    7.6287    6.3389 N   0  3  0  0  0  0  0  0  0  0  0  0
  -25.9479    6.9535    5.8331 C   0  0  0  0  0  0  0  0  0  0  0  0
  -23.5022    7.2129    5.5682 C   0  0  0  0  0  0  0  0  0  0  0  0
  -21.2055    5.1164   12.3421 C   0  0  0  0  0  0  0  0  0  0  0  0
  -20.3141    3.9555   12.7112 C   0  0  0  0  0  0  0  0  0  0  0  0
  -20.6975    6.2145   12.1801 O   0  0  0  0  0  0  0  0  0  0  0  0
  1  7  1  0  0  0  0
  1  9  1  0  0  0  0
  2  8  1  0  0  0  0
  2 14  1  0  0  0  0
  2 15  1  0  0  0  0
  3  4  2  0  0  0  0
  3  8  1  0  0  0  0
  4  5  1  0  0  0  0
  4 21  1  0  0  0  0
  5  6  2  0  0  0  0
  6  7  1  0  0  0  0
  7  8  2  0  0  0  0
  9 10  2  0  0  0  0
  9 14  1  0  0  0  0
 10 11  1  0  0  0  0
 11 12  2  0  0  0  0
 12 13  1  0  0  0  0
 13 14  2  0  0  0  0
 15 16  1  0  0  0  0
 16 17  1  0  0  0  0
 17 18  1  0  0  0  0
 18 19  1  0  0  0  0
 18 20  1  0  0  0  0
 21 22  1  0  0  0  0
 21 23  2  0  0  0  0
M  CHG  1  18   1
M  END
>  <CHROM.1>
117.30769990,-173.49982391,-79.64810454,-175.44382031,37.38063313,-25.06069120
6.19037986,10.82989846,1.10174088,-0.29883406,1.94528737

>  <Name>


>  <RI>
0

>  <Rbt.Current_Directory>
/home/itssahil/PROJECTS/Mol_Feturizer/New_Systems/rnas/1lvj

>  <Rbt.Executable>
rbdock ($Id: //depot/dev/client3/rdock/2013.1/src/exe/rbdock.cxx#4 $)

>  <Rbt.Library>
libRbt.so (2013.1, Build901 2013/11/27)

>  <Rbt.Parameter_File>
/export/apps/rDock/src/rDock_2013.1_src/data/scripts/dock_solv.prm

>  <Rbt.Receptor>
prm/pocket_docking_5.prm

>  <SCORE>
-21.7419

>  <SCORE.INTER>
-17.5684

>  <SCORE.INTER.CONST>
1

>  <SCORE.INTER.POLAR>
0

>  <SCORE.INTER.ROT>
5

>  <SCORE.INTER.SOLV>
14.0764

>  <SCORE.INTER.VDW>
-23.3377

>  <SCORE.INTER.norm>
-0.763842

>  <SCORE.INTRA>
-4.17355

>  <SCORE.INTRA.DIHEDRAL>
-3.18876

>  <SCORE.INTRA.DIHEDRAL.0>
8.06479

>  <SCORE.INTRA.POLAR>
0

>  <SCORE.INTRA.POLAR.0>
0

>  <SCORE.INTRA.REPUL>
0

>  <SCORE.INTRA.REPUL.0>
0

>  <SCORE.INTRA.SOLV>
0.610174

>  <SCORE.INTRA.SOLV.lig_0>
-29.8054

>  <SCORE.INTRA.VDW>
-2.88426

>  <SCORE.INTRA.VDW.0>
2.61447

>  <SCORE.INTRA.norm>
-0.181459

>  <SCORE.RESTR>
0

>  <SCORE.RESTR.CAVITY>
0

>  <SCORE.RESTR.norm>
0

>  <SCORE.SYSTEM>
0

>  <SCORE.SYSTEM.CONST>
0

>  <SCORE.SYSTEM.DIHEDRAL>
0

>  <SCORE.SYSTEM.SOLV>
0

>  <SCORE.SYSTEM.norm>
0

>  <SCORE.heavy>
23

>  <SCORE.norm>
-0.945301

>  <RMSD>
6.463

$$$$

 OpenBabel11021811403D
libRbt.so/2013.1/901 2013/11/27
 23 25  0  0  0  0  0  0  0  0999 V2000
  -25.1665    3.3350   12.5838 S   0  0  0  0  0  0  0  0  0  0  0  0
  -25.1388    5.9447   11.1493 N   0  0  0  0  0  0  0  0  0  0  0  0
  -22.8965    6.5899   11.7577 C   0  0  0  0  0  0  0  0  0  0  0  0
  -21.7034    6.2904   12.4284 C   0  0  0  0  0  0  0  0  0  0  0  0
  -21.5753    5.0963   13.1313 C   0  0  0  0  0  0  0  0  0  0  0  0
  -22.6365    4.1985   13.1726 C   0  0  0  0  0  0  0  0  0  0  0  0
  -23.8279    4.4869   12.5119 C   0  0  0  0  0  0  0  0  0  0  0  0
  -23.9659    5.6842   11.7995 C   0  0  0  0  0  0  0  0  0  0  0  0
  -26.3496    4.6352   12.7412 C   0  0  0  0  0  0  0  0  0  0  0  0
  -27.4372    4.4920   13.6076 C   0  0  0  0  0  0  0  0  0  0  0  0
  -28.3747    5.5221   13.7256 C   0  0  0  0  0  0  0  0  0  0  0  0
  -28.2233    6.6912   12.9729 C   0  0  0  0  0  0  0  0  0  0  0  0
  -27.1357    6.8272   12.1094 C   0  0  0  0  0  0  0  0  0  0  0  0
  -26.2003    5.8083   11.9928 C   0  0  0  0  0  0  0  0  0  0  0  0
  -25.1877    6.9746   10.0821 C   0  0  0  0  0  0  0  0  0  0  0  0
  -25.7031    6.5209    8.6755 C   0  0  0  0  0  0  0  0  0  0  0  0
  -26.0901    7.7150    7.7376 C   0  0  0  0  0  0  0  0  0  0  0  0
  -26.2410    7.4317    6.2874 N   0  3  0  0  0  0  0  0  0  0  0  0
  -27.1181    6.2559    6.0514 C   0  0  0  0  0  0  0  0  0  0  0  0
  -24.8951    7.2595    5.6387 C   0  0  0  0  0  0  0  0  0  0  0  0
  -20.5539    7.2569   12.3981 C   0  0  0  0  0  0  0  0  0  0  0  0
  -19.1386    6.8245   12.6958 C   0  0  0  0  0  0  0  0  0  0  0  0
  -20.7533    8.4145   12.0656 O   0  0  0  0  0  0  0  0  0  0  0  0
  1  7  1  0  0  0  0
  1  9  1  0  0  0  0
  2  8  1  0  0  0  0
  2 14  1  0  0  0  0
  2 15  1  0  0  0  0
  3  4  2  0  0  0  0
  3  8  1  0  0  0  0
  4  5  1  0  0  0  0
  4 21  1  0  0  0  0
  5  6  2  0  0  0  0
  6  7  1  0  0  0  0
  7  8  2  0  0  0  0
  9 10  2  0  0  0  0
  9 14  1  0  0  0  0
 10 11  1  0  0  0  0
 11 12  2  0  0  0  0
 12 13  1  0  0  0  0
 13 14  2  0  0  0  0
 15 16  1  0  0  0  0
 16 17  1  0  0  0  0
 17 18  1  0  0  0  0
 18 19  1  0  0  0  0
 18 20  1  0  0  0  0
 21 22  1  0  0  0  0
 21 23  2  0  0  0  0
M  CHG  1  18   1
M  END
>  <CHROM.1>
123.61252378,-159.69088643,164.30252684,164.07409243,169.76412572,-24.64006143
5.99765051,11.14642700,0.85282359,0.21845692,1.95344521

>  <Name>


>  <RI>
0

>  <Rbt.Current_Directory>
/home/itssahil/PROJECTS/Mol_Feturizer/New_Systems/rnas/1lvj

>  <Rbt.Executable>
rbdock ($Id: //depot/dev/client3/rdock/2013.1/src/exe/rbdock.cxx#4 $)

>  <Rbt.Library>
libRbt.so (2013.1, Build901 2013/11/27)

>  <Rbt.Parameter_File>
/export/apps/rDock/src/rDock_2013.1_src/data/scripts/dock_solv.prm

>  <Rbt.Receptor>
prm/pocket_docking_4.prm

>  <SCORE>
-18.5899

>  <SCORE.INTER>
-16.6378

>  <SCORE.INTER.CONST>
1

>  <SCORE.INTER.POLAR>
-1.88728

>  <SCORE.INTER.ROT>
5

>  <SCORE.INTER.SOLV>
17.6798

>  <SCORE.INTER.VDW>
-17.6275

>  <SCORE.INTER.norm>
-0.723383

>  <SCORE.INTRA>
-2.81659

>  <SCORE.INTRA.DIHEDRAL>
-2.7058

>  <SCORE.INTRA.DIHEDRAL.0>
8.06479

>  <SCORE.INTRA.POLAR>
0

>  <SCORE.INTRA.POLAR.0>
0

>  <SCORE.INTRA.REPUL>
0

>  <SCORE.INTRA.REPUL.0>
0

>  <SCORE.INTRA.SOLV>
-0.611618

>  <SCORE.INTRA.SOLV.lig_0>
-29.8054

>  <SCORE.INTRA.VDW>
-1.15788

>  <SCORE.INTRA.VDW.0>
2.61447

>  <SCORE.INTRA.norm>
-0.12246

>  <SCORE.RESTR>
0.864478

>  <SCORE.RESTR.CAVITY>
0.864478

>  <SCORE.RESTR.norm>
0.037586

>  <SCORE.SYSTEM>
0

>  <SCORE.SYSTEM.CONST>
0

>  <SCORE.SYSTEM.DIHEDRAL>
0

>  <SCORE.SYSTEM.SOLV>
0

>  <SCORE.SYSTEM.norm>
0

>  <SCORE.heavy>
23

>  <SCORE.norm>
-0.808257

>  <RMSD>
6.464

$$$$

 OpenBabel11021811403D
libRbt.so/2013.1/901 2013/11/27
 23 25  0  0  0  0  0  0  0  0999 V2000
  -26.0531    7.5554    9.4232 S   0  0  0  0  0  0  0  0  0  0  0  0
  -23.2401    7.0445   10.2570 N   0  0  0  0  0  0  0  0  0  0  0  0
  -23.2456    8.4743   12.1986 C   0  0  0  0  0  0  0  0  0  0  0  0
  -23.9413    9.3573   13.0350 C   0  0  0  0  0  0  0  0  0  0  0  0
  -25.2691    9.6763   12.7677 C   0  0  0  0  0  0  0  0  0  0  0  0
  -25.9073    9.1207   11.6641 C   0  0  0  0  0  0  0  0  0  0  0  0
  -25.2249    8.2440   10.8245 C   0  0  0  0  0  0  0  0  0  0  0  0
  -23.8896    7.9144   11.0863 C   0  0  0  0  0  0  0  0  0  0  0  0
  -24.6110    7.7222    8.4195 C   0  0  0  0  0  0  0  0  0  0  0  0
  -24.7276    8.1293    7.0872 C   0  0  0  0  0  0  0  0  0  0  0  0
  -23.5834    8.2554    6.2943 C   0  0  0  0  0  0  0  0  0  0  0  0
  -22.3258    7.9696    6.8357 C   0  0  0  0  0  0  0  0  0  0  0  0
  -22.2167    7.5630    8.1661 C   0  0  0  0  0  0  0  0  0  0  0  0
  -23.3502    7.4409    8.9579 C   0  0  0  0  0  0  0  0  0  0  0  0
  -21.9966    6.3715   10.7074 C   0  0  0  0  0  0  0  0  0  0  0  0
  -20.7681    7.2854   11.0324 C   0  0  0  0  0  0  0  0  0  0  0  0
  -19.8700    6.7346   12.1923 C   0  0  0  0  0  0  0  0  0  0  0  0
  -18.8643    5.6961   11.8518 N   0  3  0  0  0  0  0  0  0  0  0  0
  -19.4848    4.3496   11.7538 C   0  0  0  0  0  0  0  0  0  0  0  0
  -17.7297    5.7139   12.8389 C   0  0  0  0  0  0  0  0  0  0  0  0
  -23.2591    9.9703   14.2247 C   0  0  0  0  0  0  0  0  0  0  0  0
  -21.7708    9.8462   14.4438 C   0  0  0  0  0  0  0  0  0  0  0  0
  -23.9113   10.6401   15.0096 O   0  0  0  0  0  0  0  0  0  0  0  0
  1  7  1  0  0  0  0
  1  9  1  0  0  0  0
  2  8  1  0  0  0  0
  2 14  1  0  0  0  0
  2 15  1  0  0  0  0
  3  4  2  0  0  0  0
  3  8  1  0  0  0  0
  4  5  1  0  0  0  0
  4 21  1  0  0  0  0
  5  6  2  0  0  0  0
  6  7  1  0  0  0  0
  7  8  2  0  0  0  0
  9 10  2  0  0  0  0
  9 14  1  0  0  0  0
 10 11  1  0  0  0  0
 11 12  2  0  0  0  0
 12 13  1  0  0  0  0
 13 14  2  0  0  0  0
 15 16  1  0  0  0  0
 16 17  1  0  0  0  0
 17 18  1  0  0  0  0
 18 19  1  0  0  0  0
 18 20  1  0  0  0  0
 21 22  1  0  0  0  0
 21 23  2  0  0  0  0
M  CHG  1  18   1
M  END
>  <CHROM.1>
-62.60247781,9.93185004,146.75479478,82.27076940,39.71845505,-22.90999480
7.82120363,10.90672316,2.66862172,0.48186853,-1.92403341

>  <Name>


>  <RI>
0

>  <Rbt.Current_Directory>
/home/itssahil/PROJECTS/Mol_Feturizer/New_Systems/rnas/1lvj

>  <Rbt.Executable>
rbdock ($Id: //depot/dev/client3/rdock/2013.1/src/exe/rbdock.cxx#4 $)

>  <Rbt.Library>
libRbt.so (2013.1, Build901 2013/11/27)

>  <Rbt.Parameter_File>
/export/apps/rDock/src/rDock_2013.1_src/data/scripts/dock_solv.prm

>  <Rbt.Receptor>
prm/pocket_docking_8.prm

>  <SCORE>
-33.1063

>  <SCORE.INTER>
-30.7714

>  <SCORE.INTER.CONST>
1

>  <SCORE.INTER.POLAR>
-1.29251

>  <SCORE.INTER.ROT>
5

>  <SCORE.INTER.SOLV>
11.2512

>  <SCORE.INTER.VDW>
-26.8896

>  <SCORE.INTER.norm>
-1.33789

>  <SCORE.INTRA>
-2.33488

>  <SCORE.INTRA.DIHEDRAL>
-1.50908

>  <SCORE.INTRA.DIHEDRAL.0>
8.06479

>  <SCORE.INTRA.POLAR>
0

>  <SCORE.INTRA.POLAR.0>
0

>  <SCORE.INTRA.REPUL>
0

>  <SCORE.INTRA.REPUL.0>
0

>  <SCORE.INTRA.SOLV>
1.16021

>  <SCORE.INTRA.SOLV.lig_0>
-29.8054

>  <SCORE.INTRA.VDW>
-2.16045

>  <SCORE.INTRA.VDW.0>
2.61447

>  <SCORE.INTRA.norm>
-0.101517

>  <SCORE.RESTR>
0

>  <SCORE.RESTR.CAVITY>
0

>  <SCORE.RESTR.norm>
0

>  <SCORE.SYSTEM>
0

>  <SCORE.SYSTEM.CONST>
0

>  <SCORE.SYSTEM.DIHEDRAL>
0

>  <SCORE.SYSTEM.SOLV>
0

>  <SCORE.SYSTEM.norm>
0

>  <SCORE.heavy>
23

>  <SCORE.norm>
-1.43941

>  <RMSD>
6.465

$$$$

 OpenBabel11021811403D
libRbt.so/2013.1/901 2013/11/27
 23 25  0  0  0  0  0  0  0  0999 V2000
  -25.8523    7.0537    8.6581 S   0  0  0  0  0  0  0  0  0  0  0  0
  -23.1640    6.8921    9.9293 N   0  0  0  0  0  0  0  0  0  0  0  0
  -23.6362    8.3396   11.7990 C   0  0  0  0  0  0  0  0  0  0  0  0
  -24.5505    9.1462   12.4894 C   0  0  0  0  0  0  0  0  0  0  0  0
  -25.8482    9.3016   12.0115 C   0  0  0  0  0  0  0  0  0  0  0  0
  -26.2384    8.6582   10.8421 C   0  0  0  0  0  0  0  0  0  0  0  0
  -25.3374    7.8562   10.1463 C   0  0  0  0  0  0  0  0  0  0  0  0
  -24.0304    7.6910   10.6202 C   0  0  0  0  0  0  0  0  0  0  0  0
  -24.3001    7.3754    7.8822 C   0  0  0  0  0  0  0  0  0  0  0  0
  -24.2534    7.7461    6.5351 C   0  0  0  0  0  0  0  0  0  0  0  0
  -23.0217    7.9952    5.9230 C   0  0  0  0  0  0  0  0  0  0  0  0
  -21.8395    7.8684    6.6598 C   0  0  0  0  0  0  0  0  0  0  0  0
  -21.8933    7.4973    8.0038 C   0  0  0  0  0  0  0  0  0  0  0  0
  -23.1148    7.2535    8.6163 C   0  0  0  0  0  0  0  0  0  0  0  0
  -21.9370    6.3779   10.5867 C   0  0  0  0  0  0  0  0  0  0  0  0
  -20.8944    7.4362   11.0795 C   0  0  0  0  0  0  0  0  0  0  0  0
  -19.6273    6.8003   11.7469 C   0  0  0  0  0  0  0  0  0  0  0  0
  -18.6129    7.7224   12.3184 N   0  3  0  0  0  0  0  0  0  0  0  0
  -18.0154    8.5902   11.2708 C   0  0  0  0  0  0  0  0  0  0  0  0
  -17.5606    6.9529   13.0684 C   0  0  0  0  0  0  0  0  0  0  0  0
  -24.1372    9.8532   13.7487 C   0  0  0  0  0  0  0  0  0  0  0  0
  -22.6891    9.9781   14.1560 C   0  0  0  0  0  0  0  0  0  0  0  0
  -24.9865   10.3965   14.4368 O   0  0  0  0  0  0  0  0  0  0  0  0
  1  7  1  0  0  0  0
  1  9  1  0  0  0  0
  2  8  1  0  0  0  0
  2 14  1  0  0  0  0
  2 15  1  0  0  0  0
  3  4  2  0  0  0  0
  3  8  1  0  0  0  0
  4  5  1  0  0  0  0
  4 21  1  0  0  0  0
  5  6  2  0  0  0  0
  6  7  1  0  0  0  0
  7  8  2  0  0  0  0
  9 10  2  0  0  0  0
  9 14  1  0  0  0  0
 10 11  1  0  0  0  0
 11 12  2  0  0  0  0
 12 13  1  0  0  0  0
 13 14  2  0  0  0  0
 15 16  1  0  0  0  0
 16 17  1  0  0  0  0
 17 18  1  0  0  0  0
 18 19  1  0  0  0  0
 18 20  1  0  0  0  0
 21 22  1  0  0  0  0
 21 23  2  0  0  0  0
M  CHG  1  18   1
M  END
>  <CHROM.1>
-61.96376343,13.52666105,-179.43102098,-176.57857028,57.58657718,-22.91227608
7.98999566,10.52852395,2.50730523,0.18123143,-1.88357268

>  <Name>


>  <RI>
0

>  <Rbt.Current_Directory>
/home/itssahil/PROJECTS/Mol_Feturizer/New_Systems/rnas/1lvj

>  <Rbt.Executable>
rbdock ($Id: //depot/dev/client3/rdock/2013.1/src/exe/rbdock.cxx#4 $)

>  <Rbt.Library>
libRbt.so (2013.1, Build901 2013/11/27)

>  <Rbt.Parameter_File>
/export/apps/rDock/src/rDock_2013.1_src/data/scripts/dock_solv.prm

>  <Rbt.Receptor>
prm/pocket_docking_8.prm

>  <SCORE>
-32.4474

>  <SCORE.INTER>
-27.5134

>  <SCORE.INTER.CONST>
1

>  <SCORE.INTER.POLAR>
0

>  <SCORE.INTER.ROT>
5

>  <SCORE.INTER.SOLV>
8.72984

>  <SCORE.INTER.VDW>
-28.1856

>  <SCORE.INTER.norm>
-1.19624

>  <SCORE.INTRA>
-4.934

>  <SCORE.INTRA.DIHEDRAL>
-7.08127

>  <SCORE.INTRA.DIHEDRAL.0>
8.06479

>  <SCORE.INTRA.POLAR>
0

>  <SCORE.INTRA.POLAR.0>
0

>  <SCORE.INTRA.REPUL>
0

>  <SCORE.INTRA.REPUL.0>
0

>  <SCORE.INTRA.SOLV>
0.531808

>  <SCORE.INTRA.SOLV.lig_0>
-29.8054

>  <SCORE.INTRA.VDW>
-1.65926

>  <SCORE.INTRA.VDW.0>
2.61447

>  <SCORE.INTRA.norm>
-0.214522

>  <SCORE.RESTR>
0

>  <SCORE.RESTR.CAVITY>
0

>  <SCORE.RESTR.norm>
0

>  <SCORE.SYSTEM>
0

>  <SCORE.SYSTEM.CONST>
0

>  <SCORE.SYSTEM.DIHEDRAL>
0

>  <SCORE.SYSTEM.SOLV>
0

>  <SCORE.SYSTEM.norm>
0

>  <SCORE.heavy>
23

>  <SCORE.norm>
-1.41076

>  <RMSD>
6.522

$$$$

 OpenBabel11021811403D
libRbt.so/2013.1/901 2013/11/27
 23 25  0  0  0  0  0  0  0  0999 V2000
  -23.6729    8.2115   10.8037 S   0  0  0  0  0  0  0  0  0  0  0  0
  -25.9650    6.3359   10.4916 N   0  0  0  0  0  0  0  0  0  0  0  0
  -26.0885    6.4216    8.0850 C   0  0  0  0  0  0  0  0  0  0  0  0
  -25.5870    6.9218    6.8762 C   0  0  0  0  0  0  0  0  0  0  0  0
  -24.5083    7.8011    6.8753 C   0  0  0  0  0  0  0  0  0  0  0  0
  -23.9285    8.1886    8.0783 C   0  0  0  0  0  0  0  0  0  0  0  0
  -24.4203    7.6998    9.2859 C   0  0  0  0  0  0  0  0  0  0  0  0
  -25.5033    6.8126    9.2976 C   0  0  0  0  0  0  0  0  0  0  0  0
  -25.2427    8.3258   11.6022 C   0  0  0  0  0  0  0  0  0  0  0  0
  -25.5047    9.3769   12.4858 C   0  0  0  0  0  0  0  0  0  0  0  0
  -26.7475    9.4610   13.1200 C   0  0  0  0  0  0  0  0  0  0  0  0
  -27.7234    8.4904   12.8713 C   0  0  0  0  0  0  0  0  0  0  0  0
  -27.4551    7.4435   11.9887 C   0  0  0  0  0  0  0  0  0  0  0  0
  -26.2237    7.3591   11.3537 C   0  0  0  0  0  0  0  0  0  0  0  0
  -26.8163    5.1210   10.5313 C   0  0  0  0  0  0  0  0  0  0  0  0
  -26.5078    4.0696   11.6490 C   0  0  0  0  0  0  0  0  0  0  0  0
  -27.3462    4.2832   12.9554 C   0  0  0  0  0  0  0  0  0  0  0  0
  -28.8088    4.0353   12.8842 N   0  3  0  0  0  0  0  0  0  0  0  0
  -29.5240    4.6705   14.0211 C   0  0  0  0  0  0  0  0  0  0  0  0
  -29.0927    2.5606   12.8041 C   0  0  0  0  0  0  0  0  0  0  0  0
  -26.2113    6.5170    5.5713 C   0  0  0  0  0  0  0  0  0  0  0  0
  -27.5670    5.8563    5.5054 C   0  0  0  0  0  0  0  0  0  0  0  0
  -25.6386    6.7808    4.5260 O   0  0  0  0  0  0  0  0  0  0  0  0
  1  7  1  0  0  0  0
  1  9  1  0  0  0  0
  2  8  1  0  0  0  0
  2 14  1  0  0  0  0
  2 15  1  0  0  0  0
  3  4  2  0  0  0  0
  3  8  1  0  0  0  0
  4  5  1  0  0  0  0
  4 21  1  0  0  0  0
  5  6  2  0  0  0  0
  6  7  1  0  0  0  0
  7  8  2  0  0  0  0
  9 10  2  0  0  0  0
  9 14  1  0  0  0  0
 10 11  1  0  0  0  0
 11 12  2  0  0  0  0
 12 13  1  0  0  0  0
 13 14  2  0  0  0  0
 15 16  1  0  0  0  0
 16 17  1  0  0  0  0
 17 18  1  0  0  0  0
 18 19  1  0  0  0  0
 18 20  1  0  0  0  0
 21 22  1  0  0  0  0
 21 23  2  0  0  0  0
M  CHG  1  18   1
M  END
>  <CHROM.1>
137.00289130,15.19186702,92.52615867,68.24232610,-42.02801571,-26.26816044
6.64439891,10.20760800,-0.90499792,0.90548185,1.31497629

>  <Name>


>  <RI>
0

>  <Rbt.Current_Directory>
/home/itssahil/PROJECTS/Mol_Feturizer/New_Systems/rnas/1lvj

>  <Rbt.Executable>
rbdock ($Id: //depot/dev/client3/rdock/2013.1/src/exe/rbdock.cxx#4 $)

>  <Rbt.Library>
libRbt.so (2013.1, Build901 2013/11/27)

>  <Rbt.Parameter_File>
/export/apps/rDock/src/rDock_2013.1_src/data/scripts/dock_solv.prm

>  <Rbt.Receptor>
prm/pocket_docking_7.prm

>  <SCORE>
-24.5677

>  <SCORE.INTER>
-21.5197

>  <SCORE.INTER.CONST>
1

>  <SCORE.INTER.POLAR>
0

>  <SCORE.INTER.ROT>
5

>  <SCORE.INTER.SOLV>
10.7869

>  <SCORE.INTER.VDW>
-24.8754

>  <SCORE.INTER.norm>
-0.935638

>  <SCORE.INTRA>
-3.04801

>  <SCORE.INTRA.DIHEDRAL>
-2.0576

>  <SCORE.INTRA.DIHEDRAL.0>
8.06479

>  <SCORE.INTRA.POLAR>
0

>  <SCORE.INTRA.POLAR.0>
0

>  <SCORE.INTRA.REPUL>
0

>  <SCORE.INTRA.REPUL.0>
0

>  <SCORE.INTRA.SOLV>
2.79534

>  <SCORE.INTRA.SOLV.lig_0>
-29.8054

>  <SCORE.INTRA.VDW>
-3.41689

>  <SCORE.INTRA.VDW.0>
2.61447

>  <SCORE.INTRA.norm>
-0.132522

>  <SCORE.RESTR>
0

>  <SCORE.RESTR.CAVITY>
0

>  <SCORE.RESTR.norm>
0

>  <SCORE.SYSTEM>
0

>  <SCORE.SYSTEM.CONST>
0

>  <SCORE.SYSTEM.DIHEDRAL>
0

>  <SCORE.SYSTEM.SOLV>
0

>  <SCORE.SYSTEM.norm>
0

>  <SCORE.heavy>
23

>  <SCORE.norm>
-1.06816

>  <RMSD>
6.523

$$$$

 OpenBabel11021811403D
libRbt.so/2013.1/901 2013/11/27
 23 25  0  0  0  0  0  0  0  0999 V2000
  -25.9404    6.7408    9.5398 S   0  0  0  0  0  0  0  0  0  0  0  0
  -23.2678    7.2165   10.7646 N   0  0  0  0  0  0  0  0  0  0  0  0
  -23.9697    8.8794   12.3634 C   0  0  0  0  0  0  0  0  0  0  0  0
  -25.0018    9.6450   12.9216 C   0  0  0  0  0  0  0  0  0  0  0  0
  -26.3048    9.5144   12.4506 C   0  0  0  0  0  0  0  0  0  0  0  0
  -26.5834    8.6245   11.4190 C   0  0  0  0  0  0  0  0  0  0  0  0
  -25.5650    7.8603   10.8550 C   0  0  0  0  0  0  0  0  0  0  0  0
  -24.2514    7.9821   11.3236 C   0  0  0  0  0  0  0  0  0  0  0  0
  -24.4511    7.1551    8.6882 C   0  0  0  0  0  0  0  0  0  0  0  0
  -24.4530    7.2871    7.2965 C   0  0  0  0  0  0  0  0  0  0  0  0
  -23.2702    7.6104    6.6255 C   0  0  0  0  0  0  0  0  0  0  0  0
  -22.0876    7.7966    7.3487 C   0  0  0  0  0  0  0  0  0  0  0  0
  -22.0926    7.6625    8.7376 C   0  0  0  0  0  0  0  0  0  0  0  0
  -23.2661    7.3459    9.4080 C   0  0  0  0  0  0  0  0  0  0  0  0
  -21.9807    7.0188   11.4761 C   0  0  0  0  0  0  0  0  0  0  0  0
  -21.1351    5.7609   11.0856 C   0  0  0  0  0  0  0  0  0  0  0  0
  -19.8404    5.5860   11.9506 C   0  0  0  0  0  0  0  0  0  0  0  0
  -18.7589    4.7254   11.4067 N   0  3  0  0  0  0  0  0  0  0  0  0
  -19.1850    3.3046   11.3224 C   0  0  0  0  0  0  0  0  0  0  0  0
  -17.5010    4.8806   12.2164 C   0  0  0  0  0  0  0  0  0  0  0  0
  -24.7107   10.6161   14.0301 C   0  0  0  0  0  0  0  0  0  0  0  0
  -25.7822   11.0817   14.9860 C   0  0  0  0  0  0  0  0  0  0  0  0
  -23.5647   10.9980   14.2061 O   0  0  0  0  0  0  0  0  0  0  0  0
  1  7  1  0  0  0  0
  1  9  1  0  0  0  0
  2  8  1  0  0  0  0
  2 14  1  0  0  0  0
  2 15  1  0  0  0  0
  3  4  2  0  0  0  0
  3  8  1  0  0  0  0
  4  5  1  0  0  0  0
  4 21  1  0  0  0  0
  5  6  2  0  0  0  0
  6  7  1  0  0  0  0
  7  8  2  0  0  0  0
  9 10  2  0  0  0  0
  9 14  1  0  0  0  0
 10 11  1  0  0  0  0
 11 12  2  0  0  0  0
 12 13  1  0  0  0  0
 13 14  2  0  0  0  0
 15 16  1  0  0  0  0
 16 17  1  0  0  0  0
 17 18  1  0  0  0  0
 18 19  1  0  0  0  0
 18 20  1  0  0  0  0
 21 22  1  0  0  0  0
 21 23  2  0  0  0  0
M  CHG  1  18   1
M  END
>  <CHROM.1>
157.79086795,-157.48259411,-176.33152247,-160.42418380,53.68206919,-23.22060433
7.53204566,10.95511119,2.68073290,-0.52051479,1.14810010

>  <Name>


>  <RI>
0

>  <Rbt.Current_Directory>
/home/itssahil/PROJECTS/Mol_Feturizer/New_Systems/rnas/1lvj

>  <Rbt.Executable>
rbdock ($Id: //depot/dev/client3/rdock/2013.1/src/exe/rbdock.cxx#4 $)

>  <Rbt.Library>
libRbt.so (2013.1, Build901 2013/11/27)

>  <Rbt.Parameter_File>
/export/apps/rDock/src/rDock_2013.1_src/data/scripts/dock_solv.prm

>  <Rbt.Receptor>
prm/pocket_docking_7.prm

>  <SCORE>
-30.6321

>  <SCORE.INTER>
-26.4391

>  <SCORE.INTER.CONST>
1

>  <SCORE.INTER.POLAR>
-1.30767

>  <SCORE.INTER.ROT>
5

>  <SCORE.INTER.SOLV>
14.6636

>  <SCORE.INTER.VDW>
-25.0884

>  <SCORE.INTER.norm>
-1.14953

>  <SCORE.INTRA>
-4.19297

>  <SCORE.INTRA.DIHEDRAL>
-4.51798

>  <SCORE.INTRA.DIHEDRAL.0>
8.06479

>  <SCORE.INTRA.POLAR>
0

>  <SCORE.INTRA.POLAR.0>
0

>  <SCORE.INTRA.REPUL>
0

>  <SCORE.INTRA.REPUL.0>
0

>  <SCORE.INTRA.SOLV>
0.448624

>  <SCORE.INTRA.SOLV.lig_0>
-29.8054

>  <SCORE.INTRA.VDW>
-2.15829

>  <SCORE.INTRA.VDW.0>
2.61447

>  <SCORE.INTRA.norm>
-0.182303

>  <SCORE.RESTR>
0

>  <SCORE.RESTR.CAVITY>
0

>  <SCORE.RESTR.norm>
0

>  <SCORE.SYSTEM>
0

>  <SCORE.SYSTEM.CONST>
0

>  <SCORE.SYSTEM.DIHEDRAL>
0

>  <SCORE.SYSTEM.SOLV>
0

>  <SCORE.SYSTEM.norm>
0

>  <SCORE.heavy>
23

>  <SCORE.norm>
-1.33183

>  <RMSD>
6.561

$$$$

 OpenBabel11021811403D
libRbt.so/2013.1/901 2013/11/27
 23 25  0  0  0  0  0  0  0  0999 V2000
  -22.6491    7.5031   10.5342 S   0  0  0  0  0  0  0  0  0  0  0  0
  -25.4293    6.4559   10.7416 N   0  0  0  0  0  0  0  0  0  0  0  0
  -25.9882    6.6428    8.4035 C   0  0  0  0  0  0  0  0  0  0  0  0
  -25.6017    6.9925    7.1029 C   0  0  0  0  0  0  0  0  0  0  0  0
  -24.3233    7.4861    6.8606 C   0  0  0  0  0  0  0  0  0  0  0  0
  -23.4272    7.6375    7.9132 C   0  0  0  0  0  0  0  0  0  0  0  0
  -23.8014    7.2955    9.2102 C   0  0  0  0  0  0  0  0  0  0  0  0
  -25.0842    6.7955    9.4642 C   0  0  0  0  0  0  0  0  0  0  0  0
  -23.9148    8.0847   11.6180 C   0  0  0  0  0  0  0  0  0  0  0  0
  -23.6543    9.1399   12.4973 C   0  0  0  0  0  0  0  0  0  0  0  0
  -24.6579    9.5943   13.3575 C   0  0  0  0  0  0  0  0  0  0  0  0
  -25.9185    8.9886   13.3385 C   0  0  0  0  0  0  0  0  0  0  0  0
  -26.1715    7.9353   12.4589 C   0  0  0  0  0  0  0  0  0  0  0  0
  -25.1788    7.4842   11.6001 C   0  0  0  0  0  0  0  0  0  0  0  0
  -26.5945    5.5711   10.9898 C   0  0  0  0  0  0  0  0  0  0  0  0
  -26.2937    4.0719   11.3243 C   0  0  0  0  0  0  0  0  0  0  0  0
  -25.5021    3.8777   12.6626 C   0  0  0  0  0  0  0  0  0  0  0  0
  -24.2067    4.5897   12.8070 N   0  3  0  0  0  0  0  0  0  0  0  0
  -23.0638    3.7232   12.4192 C   0  0  0  0  0  0  0  0  0  0  0  0
  -24.0492    5.1243   14.2039 C   0  0  0  0  0  0  0  0  0  0  0  0
  -26.5645    6.8417    5.9598 C   0  0  0  0  0  0  0  0  0  0  0  0
  -26.1666    6.1809    4.6622 C   0  0  0  0  0  0  0  0  0  0  0  0
  -27.7207    7.2079    6.0983 O   0  0  0  0  0  0  0  0  0  0  0  0
  1  7  1  0  0  0  0
  1  9  1  0  0  0  0
  2  8  1  0  0  0  0
  2 14  1  0  0  0  0
  2 15  1  0  0  0  0
  3  4  2  0  0  0  0
  3  8  1  0  0  0  0
  4  5  1  0  0  0  0
  4 21  1  0  0  0  0
  5  6  2  0  0  0  0
  6  7  1  0  0  0  0
  7  8  2  0  0  0  0
  9 10  2  0  0  0  0
  9 14  1  0  0  0  0
 10 11  1  0  0  0  0
 11 12  2  0  0  0  0
 12 13  1  0  0  0  0
 13 14  2  0  0  0  0
 15 16  1  0  0  0  0
 16 17  1  0  0  0  0
 17 18  1  0  0  0  0
 18 19  1  0  0  0  0
 18 20  1  0  0  0  0
 21 22  1  0  0  0  0
 21 23  2  0  0  0  0
M  CHG  1  18   1
M  END
>  <CHROM.1>
102.00574664,-132.44064777,63.71422914,-55.88032155,25.22942150,-24.92216532
6.72332721,10.29943547,-0.91474420,-1.18718577,-0.87416542

>  <Name>


>  <RI>
0

>  <Rbt.Current_Directory>
/home/itssahil/PROJECTS/Mol_Feturizer/New_Systems/rnas/1lvj

>  <Rbt.Executable>
rbdock ($Id: //depot/dev/client3/rdock/2013.1/src/exe/rbdock.cxx#4 $)

>  <Rbt.Library>
libRbt.so (2013.1, Build901 2013/11/27)

>  <Rbt.Parameter_File>
/export/apps/rDock/src/rDock_2013.1_src/data/scripts/dock_solv.prm

>  <Rbt.Receptor>
prm/pocket_docking_4.prm

>  <SCORE>
-26.403

>  <SCORE.INTER>
-23.0724

>  <SCORE.INTER.CONST>
1

>  <SCORE.INTER.POLAR>
0

>  <SCORE.INTER.ROT>
5

>  <SCORE.INTER.SOLV>
9.9379

>  <SCORE.INTER.VDW>
-25.6276

>  <SCORE.INTER.norm>
-1.00315

>  <SCORE.INTRA>
-3.3306

>  <SCORE.INTRA.DIHEDRAL>
3.18741

>  <SCORE.INTRA.DIHEDRAL.0>
8.06479

>  <SCORE.INTRA.POLAR>
-1.24593

>  <SCORE.INTRA.POLAR.0>
0

>  <SCORE.INTRA.REPUL>
0

>  <SCORE.INTRA.REPUL.0>
0

>  <SCORE.INTRA.SOLV>
10.0115

>  <SCORE.INTRA.SOLV.lig_0>
-29.8054

>  <SCORE.INTRA.VDW>
-5.69391

>  <SCORE.INTRA.VDW.0>
2.61447

>  <SCORE.INTRA.norm>
-0.144809

>  <SCORE.RESTR>
0

>  <SCORE.RESTR.CAVITY>
0

>  <SCORE.RESTR.norm>
0

>  <SCORE.SYSTEM>
0

>  <SCORE.SYSTEM.CONST>
0

>  <SCORE.SYSTEM.DIHEDRAL>
0

>  <SCORE.SYSTEM.SOLV>
0

>  <SCORE.SYSTEM.norm>
0

>  <SCORE.heavy>
23

>  <SCORE.norm>
-1.14796

>  <RMSD>
6.622

$$$$

 OpenBabel11021811403D
libRbt.so/2013.1/901 2013/11/27
 23 25  0  0  0  0  0  0  0  0999 V2000
  -26.0596    6.8406    9.4656 S   0  0  0  0  0  0  0  0  0  0  0  0
  -23.3522    7.1843   10.6578 N   0  0  0  0  0  0  0  0  0  0  0  0
  -23.9656    8.8316   12.3083 C   0  0  0  0  0  0  0  0  0  0  0  0
  -24.9591    9.6213   12.9020 C   0  0  0  0  0  0  0  0  0  0  0  0
  -26.2731    9.5518   12.4493 C   0  0  0  0  0  0  0  0  0  0  0  0
  -26.6013    8.6992   11.4009 C   0  0  0  0  0  0  0  0  0  0  0  0
  -25.6216    7.9117   10.8016 C   0  0  0  0  0  0  0  0  0  0  0  0
  -24.2972    7.9721   11.2515 C   0  0  0  0  0  0  0  0  0  0  0  0
  -24.5688    7.2198    8.6002 C   0  0  0  0  0  0  0  0  0  0  0  0
  -24.5872    7.3869    7.2124 C   0  0  0  0  0  0  0  0  0  0  0  0
  -23.4034    7.6821    6.5303 C   0  0  0  0  0  0  0  0  0  0  0  0
  -22.2036    7.8053    7.2385 C   0  0  0  0  0  0  0  0  0  0  0  0
  -22.1922    7.6365    8.6235 C   0  0  0  0  0  0  0  0  0  0  0  0
  -23.3665    7.3476    9.3050 C   0  0  0  0  0  0  0  0  0  0  0  0
  -22.0628    6.9203   11.3432 C   0  0  0  0  0  0  0  0  0  0  0  0
  -21.5137    5.4554   11.2913 C   0  0  0  0  0  0  0  0  0  0  0  0
  -20.2453    5.2323   12.1838 C   0  0  0  0  0  0  0  0  0  0  0  0
  -19.0560    6.0807   11.9160 N   0  3  0  0  0  0  0  0  0  0  0  0
  -17.7924    5.3407   12.1679 C   0  0  0  0  0  0  0  0  0  0  0  0
  -19.1227    7.3533   12.7148 C   0  0  0  0  0  0  0  0  0  0  0  0
  -24.6141   10.5525   14.0291 C   0  0  0  0  0  0  0  0  0  0  0  0
  -23.1913   10.7548   14.4911 C   0  0  0  0  0  0  0  0  0  0  0  0
  -25.4976   11.2131   14.5519 O   0  0  0  0  0  0  0  0  0  0  0  0
  1  7  1  0  0  0  0
  1  9  1  0  0  0  0
  2  8  1  0  0  0  0
  2 14  1  0  0  0  0
  2 15  1  0  0  0  0
  3  4  2  0  0  0  0
  3  8  1  0  0  0  0
  4  5  1  0  0  0  0
  4 21  1  0  0  0  0
  5  6  2  0  0  0  0
  6  7  1  0  0  0  0
  7  8  2  0  0  0  0
  9 10  2  0  0  0  0
  9 14  1  0  0  0  0
 10 11  1  0  0  0  0
 11 12  2  0  0  0  0
 12 13  1  0  0  0  0
 13 14  2  0  0  0  0
 15 16  1  0  0  0  0
 16 17  1  0  0  0  0
 17 18  1  0  0  0  0
 18 19  1  0  0  0  0
 18 20  1  0  0  0  0
 21 22  1  0  0  0  0
 21 23  2  0  0  0  0
M  CHG  1  18   1
M  END
>  <CHROM.1>
137.53551139,4.79762086,-172.95364775,-57.82674773,-26.36063777,-23.29852419
7.78202472,11.00412058,2.84156343,-0.41515003,1.13124631

>  <Name>


>  <RI>
0

>  <Rbt.Current_Directory>
/home/itssahil/PROJECTS/Mol_Feturizer/New_Systems/rnas/1lvj

>  <Rbt.Executable>
rbdock ($Id: //depot/dev/client3/rdock/2013.1/src/exe/rbdock.cxx#4 $)

>  <Rbt.Library>
libRbt.so (2013.1, Build901 2013/11/27)

>  <Rbt.Parameter_File>
/export/apps/rDock/src/rDock_2013.1_src/data/scripts/dock_solv.prm

>  <Rbt.Receptor>
prm/pocket_docking_8.prm

>  <SCORE>
-32.51

>  <SCORE.INTER>
-28.5211

>  <SCORE.INTER.CONST>
1

>  <SCORE.INTER.POLAR>
-1.30767

>  <SCORE.INTER.ROT>
5

>  <SCORE.INTER.SOLV>
11.935

>  <SCORE.INTER.VDW>
-25.5668

>  <SCORE.INTER.norm>
-1.24005

>  <SCORE.INTRA>
-3.98888

>  <SCORE.INTRA.DIHEDRAL>
-4.5657

>  <SCORE.INTRA.DIHEDRAL.0>
8.06479

>  <SCORE.INTRA.POLAR>
0

>  <SCORE.INTRA.POLAR.0>
0

>  <SCORE.INTRA.REPUL>
0

>  <SCORE.INTRA.REPUL.0>
0

>  <SCORE.INTRA.SOLV>
1.94305

>  <SCORE.INTRA.SOLV.lig_0>
-29.8054

>  <SCORE.INTRA.VDW>
-2.67755

>  <SCORE.INTRA.VDW.0>
2.61447

>  <SCORE.INTRA.norm>
-0.173429

>  <SCORE.RESTR>
0

>  <SCORE.RESTR.CAVITY>
0

>  <SCORE.RESTR.norm>
0

>  <SCORE.SYSTEM>
0

>  <SCORE.SYSTEM.CONST>
0

>  <SCORE.SYSTEM.DIHEDRAL>
0

>  <SCORE.SYSTEM.SOLV>
0

>  <SCORE.SYSTEM.norm>
0

>  <SCORE.heavy>
23

>  <SCORE.norm>
-1.41348

>  <RMSD>
6.627

$$$$

 OpenBabel11021811403D
libRbt.so/2013.1/901 2013/11/27
 23 25  0  0  0  0  0  0  0  0999 V2000
  -22.5480    7.5240   10.8307 S   0  0  0  0  0  0  0  0  0  0  0  0
  -25.4550    6.8967   10.9893 N   0  0  0  0  0  0  0  0  0  0  0  0
  -25.8940    6.9393    8.6188 C   0  0  0  0  0  0  0  0  0  0  0  0
  -25.4133    7.1085    7.3136 C   0  0  0  0  0  0  0  0  0  0  0  0
  -24.0695    7.3951    7.0934 C   0  0  0  0  0  0  0  0  0  0  0  0
  -23.2008    7.5188    8.1723 C   0  0  0  0  0  0  0  0  0  0  0  0
  -23.6680    7.3551    9.4739 C   0  0  0  0  0  0  0  0  0  0  0  0
  -25.0176    7.0638    9.7060 C   0  0  0  0  0  0  0  0  0  0  0  0
  -23.7572    8.3746   11.7946 C   0  0  0  0  0  0  0  0  0  0  0  0
  -23.3818    9.4612   12.5900 C   0  0  0  0  0  0  0  0  0  0  0  0
  -24.3417   10.1290   13.3558 C   0  0  0  0  0  0  0  0  0  0  0  0
  -25.6742    9.7048   13.3267 C   0  0  0  0  0  0  0  0  0  0  0  0
  -26.0420    8.6191   12.5312 C   0  0  0  0  0  0  0  0  0  0  0  0
  -25.0924    7.9562   11.7660 C   0  0  0  0  0  0  0  0  0  0  0  0
  -26.7429    6.2092   11.2554 C   0  0  0  0  0  0  0  0  0  0  0  0
  -26.8391    5.3553   12.5636 C   0  0  0  0  0  0  0  0  0  0  0  0
  -25.7210    4.2636   12.6801 C   0  0  0  0  0  0  0  0  0  0  0  0
  -25.7394    3.3827   13.8757 N   0  3  0  0  0  0  0  0  0  0  0  0
  -24.4384    2.6893   14.0603 C   0  0  0  0  0  0  0  0  0  0  0  0
  -26.8819    2.4077   13.7975 C   0  0  0  0  0  0  0  0  0  0  0  0
  -26.3445    6.9862    6.1413 C   0  0  0  0  0  0  0  0  0  0  0  0
  -25.8858    6.4414    4.8103 C   0  0  0  0  0  0  0  0  0  0  0  0
  -27.5219    7.2778    6.2787 O   0  0  0  0  0  0  0  0  0  0  0  0
  1  7  1  0  0  0  0
  1  9  1  0  0  0  0
  2  8  1  0  0  0  0
  2 14  1  0  0  0  0
  2 15  1  0  0  0  0
  3  4  2  0  0  0  0
  3  8  1  0  0  0  0
  4  5  1  0  0  0  0
  4 21  1  0  0  0  0
  5  6  2  0  0  0  0
  6  7  1  0  0  0  0
  7  8  2  0  0  0  0
  9 10  2  0  0  0  0
  9 14  1  0  0  0  0
 10 11  1  0  0  0  0
 11 12  2  0  0  0  0
 12 13  1  0  0  0  0
 13 14  2  0  0  0  0
 15 16  1  0  0  0  0
 16 17  1  0  0  0  0
 17 18  1  0  0  0  0
 18 19  1  0  0  0  0
 18 20  1  0  0  0  0
 21 22  1  0  0  0  0
 21 23  2  0  0  0  0
M  CHG  1  18   1
M  END
>  <CHROM.1>
146.60993542,-147.08542225,-55.29112304,-178.92168065,-43.27264262,-25.10152256
6.77275642,10.60954773,-1.56808852,1.10735788,1.88897413

>  <Name>


>  <RI>
0

>  <Rbt.Current_Directory>
/home/itssahil/PROJECTS/Mol_Feturizer/New_Systems/rnas/1lvj

>  <Rbt.Executable>
rbdock ($Id: //depot/dev/client3/rdock/2013.1/src/exe/rbdock.cxx#4 $)

>  <Rbt.Library>
libRbt.so (2013.1, Build901 2013/11/27)

>  <Rbt.Parameter_File>
/export/apps/rDock/src/rDock_2013.1_src/data/scripts/dock_solv.prm

>  <Rbt.Receptor>
prm/pocket_docking_5.prm

>  <SCORE>
-25.2281

>  <SCORE.INTER>
-20.8615

>  <SCORE.INTER.CONST>
1

>  <SCORE.INTER.POLAR>
0

>  <SCORE.INTER.ROT>
5

>  <SCORE.INTER.SOLV>
8.78475

>  <SCORE.INTER.VDW>
-23.7692

>  <SCORE.INTER.norm>
-0.907021

>  <SCORE.INTRA>
-4.36661

>  <SCORE.INTRA.DIHEDRAL>
-3.17114

>  <SCORE.INTRA.DIHEDRAL.0>
8.06479

>  <SCORE.INTRA.POLAR>
0

>  <SCORE.INTRA.POLAR.0>
0

>  <SCORE.INTRA.REPUL>
0

>  <SCORE.INTRA.REPUL.0>
0

>  <SCORE.INTRA.SOLV>
0.54725

>  <SCORE.INTRA.SOLV.lig_0>
-29.8054

>  <SCORE.INTRA.VDW>
-3.05467

>  <SCORE.INTRA.VDW.0>
2.61447

>  <SCORE.INTRA.norm>
-0.189853

>  <SCORE.RESTR>
0

>  <SCORE.RESTR.CAVITY>
0

>  <SCORE.RESTR.norm>
0

>  <SCORE.SYSTEM>
0

>  <SCORE.SYSTEM.CONST>
0

>  <SCORE.SYSTEM.DIHEDRAL>
0

>  <SCORE.SYSTEM.SOLV>
0

>  <SCORE.SYSTEM.norm>
0

>  <SCORE.heavy>
23

>  <SCORE.norm>
-1.09687

>  <RMSD>
6.658

$$$$

 OpenBabel11021811403D
libRbt.so/2013.1/901 2013/11/27
 23 25  0  0  0  0  0  0  0  0999 V2000
  -27.5084    9.7748   12.7978 S   0  0  0  0  0  0  0  0  0  0  0  0
  -25.4373    8.2929   11.2539 N   0  0  0  0  0  0  0  0  0  0  0  0
  -26.4063    6.0981   11.4948 C   0  0  0  0  0  0  0  0  0  0  0  0
  -27.4361    5.2910   11.9960 C   0  0  0  0  0  0  0  0  0  0  0  0
  -28.4762    5.8559   12.7278 C   0  0  0  0  0  0  0  0  0  0  0  0
  -28.4920    7.2258   12.9669 C   0  0  0  0  0  0  0  0  0  0  0  0
  -27.4724    8.0373   12.4757 C   0  0  0  0  0  0  0  0  0  0  0  0
  -26.4229    7.4791   11.7360 C   0  0  0  0  0  0  0  0  0  0  0  0
  -25.7646    9.8171   13.0663 C   0  0  0  0  0  0  0  0  0  0  0  0
  -25.2319   10.6073   14.0891 C   0  0  0  0  0  0  0  0  0  0  0  0
  -23.8498   10.6419   14.2952 C   0  0  0  0  0  0  0  0  0  0  0  0
  -23.0041    9.8886   13.4743 C   0  0  0  0  0  0  0  0  0  0  0  0
  -23.5424    9.1026   12.4548 C   0  0  0  0  0  0  0  0  0  0  0  0
  -24.9146    9.0623   12.2499 C   0  0  0  0  0  0  0  0  0  0  0  0
  -24.5525    7.8250   10.1583 C   0  0  0  0  0  0  0  0  0  0  0  0
  -24.9234    8.2669    8.7033 C   0  0  0  0  0  0  0  0  0  0  0  0
  -25.8849    7.2678    7.9735 C   0  0  0  0  0  0  0  0  0  0  0  0
  -26.0576    7.4241    6.5067 N   0  3  0  0  0  0  0  0  0  0  0  0
  -27.0651    6.4714    5.9732 C   0  0  0  0  0  0  0  0  0  0  0  0
  -24.7366    7.2882    5.8006 C   0  0  0  0  0  0  0  0  0  0  0  0
  -27.4245    3.8089   11.7516 C   0  0  0  0  0  0  0  0  0  0  0  0
  -28.6295    2.9438   12.0311 C   0  0  0  0  0  0  0  0  0  0  0  0
  -26.4359    3.2913   11.2567 O   0  0  0  0  0  0  0  0  0  0  0  0
  1  7  1  0  0  0  0
  1  9  1  0  0  0  0
  2  8  1  0  0  0  0
  2 14  1  0  0  0  0
  2 15  1  0  0  0  0
  3  4  2  0  0  0  0
  3  8  1  0  0  0  0
  4  5  1  0  0  0  0
  4 21  1  0  0  0  0
  5  6  2  0  0  0  0
  6  7  1  0  0  0  0
  7  8  2  0  0  0  0
  9 10  2  0  0  0  0
  9 14  1  0  0  0  0
 10 11  1  0  0  0  0
 11 12  2  0  0  0  0
 12 13  1  0  0  0  0
 13 14  2  0  0  0  0
 15 16  1  0  0  0  0
 16 17  1  0  0  0  0
 17 18  1  0  0  0  0
 18 19  1  0  0  0  0
 18 20  1  0  0  0  0
 21 22  1  0  0  0  0
 21 23  2  0  0  0  0
M  CHG  1  18   1
M  END
>  <CHROM.1>
97.16503855,-167.82376113,-89.81739274,-166.63815347,-56.09096102,-26.15390667
7.54102803,11.14995430,1.22978884,0.99228008,1.21196924

>  <Name>


>  <RI>
0

>  <Rbt.Current_Directory>
/home/itssahil/PROJECTS/Mol_Feturizer/New_Systems/rnas/1lvj

>  <Rbt.Executable>
rbdock ($Id: //depot/dev/client3/rdock/2013.1/src/exe/rbdock.cxx#4 $)

>  <Rbt.Library>
libRbt.so (2013.1, Build901 2013/11/27)

>  <Rbt.Parameter_File>
/export/apps/rDock/src/rDock_2013.1_src/data/scripts/dock_solv.prm

>  <Rbt.Receptor>
prm/pocket_docking_6.prm

>  <SCORE>
-31.3581

>  <SCORE.INTER>
-28.156

>  <SCORE.INTER.CONST>
1

>  <SCORE.INTER.POLAR>
-1.61555

>  <SCORE.INTER.ROT>
5

>  <SCORE.INTER.SOLV>
18.2943

>  <SCORE.INTER.VDW>
-26.4169

>  <SCORE.INTER.norm>
-1.22417

>  <SCORE.INTRA>
-3.2021

>  <SCORE.INTRA.DIHEDRAL>
-2.19422

>  <SCORE.INTRA.DIHEDRAL.0>
8.06479

>  <SCORE.INTRA.POLAR>
0

>  <SCORE.INTRA.POLAR.0>
0

>  <SCORE.INTRA.REPUL>
0

>  <SCORE.INTRA.REPUL.0>
0

>  <SCORE.INTRA.SOLV>
0.310874

>  <SCORE.INTRA.SOLV.lig_0>
-29.8054

>  <SCORE.INTRA.VDW>
-2.26042

>  <SCORE.INTRA.VDW.0>
2.61447

>  <SCORE.INTRA.norm>
-0.139222

>  <SCORE.RESTR>
0

>  <SCORE.RESTR.CAVITY>
0

>  <SCORE.RESTR.norm>
0

>  <SCORE.SYSTEM>
0

>  <SCORE.SYSTEM.CONST>
0

>  <SCORE.SYSTEM.DIHEDRAL>
0

>  <SCORE.SYSTEM.SOLV>
0

>  <SCORE.SYSTEM.norm>
0

>  <SCORE.heavy>
23

>  <SCORE.norm>
-1.36339

>  <RMSD>
6.692

$$$$

 OpenBabel11021811403D
libRbt.so/2013.1/901 2013/11/27
 23 25  0  0  0  0  0  0  0  0999 V2000
  -23.6305    8.2177   10.8649 S   0  0  0  0  0  0  0  0  0  0  0  0
  -25.9534    6.3781   10.5660 N   0  0  0  0  0  0  0  0  0  0  0  0
  -26.0763    6.4497    8.1590 C   0  0  0  0  0  0  0  0  0  0  0  0
  -25.5670    6.9334    6.9467 C   0  0  0  0  0  0  0  0  0  0  0  0
  -24.4740    7.7947    6.9396 C   0  0  0  0  0  0  0  0  0  0  0  0
  -23.8874    8.1807    8.1398 C   0  0  0  0  0  0  0  0  0  0  0  0
  -24.3867    7.7081    9.3508 C   0  0  0  0  0  0  0  0  0  0  0  0
  -25.4842    6.8391    9.3687 C   0  0  0  0  0  0  0  0  0  0  0  0
  -25.1978    8.3633   11.6630 C   0  0  0  0  0  0  0  0  0  0  0  0
  -25.4421    9.4245   12.5396 C   0  0  0  0  0  0  0  0  0  0  0  0
  -26.6831    9.5334   13.1736 C   0  0  0  0  0  0  0  0  0  0  0  0
  -27.6750    8.5774   12.9316 C   0  0  0  0  0  0  0  0  0  0  0  0
  -27.4244    7.5203   12.0561 C   0  0  0  0  0  0  0  0  0  0  0  0
  -26.1948    7.4112   11.4213 C   0  0  0  0  0  0  0  0  0  0  0  0
  -26.8246    5.1778   10.6141 C   0  0  0  0  0  0  0  0  0  0  0  0
  -26.2237    3.8853   11.2608 C   0  0  0  0  0  0  0  0  0  0  0  0
  -25.7379    4.0933   12.7359 C   0  0  0  0  0  0  0  0  0  0  0  0
  -25.3310    2.8890   13.5041 N   0  3  0  0  0  0  0  0  0  0  0  0
  -26.4937    2.0110   13.7950 C   0  0  0  0  0  0  0  0  0  0  0  0
  -24.6048    3.2831   14.7609 C   0  0  0  0  0  0  0  0  0  0  0  0
  -26.1985    6.5303    5.6447 C   0  0  0  0  0  0  0  0  0  0  0  0
  -27.4941    5.7574    5.5908 C   0  0  0  0  0  0  0  0  0  0  0  0
  -25.6864    6.8859    4.5952 O   0  0  0  0  0  0  0  0  0  0  0  0
  1  7  1  0  0  0  0
  1  9  1  0  0  0  0
  2  8  1  0  0  0  0
  2 14  1  0  0  0  0
  2 15  1  0  0  0  0
  3  4  2  0  0  0  0
  3  8  1  0  0  0  0
  4  5  1  0  0  0  0
  4 21  1  0  0  0  0
  5  6  2  0  0  0  0
  6  7  1  0  0  0  0
  7  8  2  0  0  0  0
  9 10  2  0  0  0  0
  9 14  1  0  0  0  0
 10 11  1  0  0  0  0
 11 12  2  0  0  0  0
 12 13  1  0  0  0  0
 13 14  2  0  0  0  0
 15 16  1  0  0  0  0
 16 17  1  0  0  0  0
 17 18  1  0  0  0  0
 18 19  1  0  0  0  0
 18 20  1  0  0  0  0
 21 22  1  0  0  0  0
 21 23  2  0  0  0  0
M  CHG  1  18   1
M  END
>  <CHROM.1>
111.31337212,8.39144929,57.34460877,171.51130883,51.81071259,-25.65643922
6.50681259,10.34276150,-1.37540106,1.42097722,1.72413336

>  <Name>


>  <RI>
0

>  <Rbt.Current_Directory>
/home/itssahil/PROJECTS/Mol_Feturizer/New_Systems/rnas/1lvj

>  <Rbt.Executable>
rbdock ($Id: //depot/dev/client3/rdock/2013.1/src/exe/rbdock.cxx#4 $)

>  <Rbt.Library>
libRbt.so (2013.1, Build901 2013/11/27)

>  <Rbt.Parameter_File>
/export/apps/rDock/src/rDock_2013.1_src/data/scripts/dock_solv.prm

>  <Rbt.Receptor>
prm/pocket_docking_7.prm

>  <SCORE>
-31.3909

>  <SCORE.INTER>
-26.1813

>  <SCORE.INTER.CONST>
1

>  <SCORE.INTER.POLAR>
-0.994987

>  <SCORE.INTER.ROT>
5

>  <SCORE.INTER.SOLV>
14.261

>  <SCORE.INTER.VDW>
-25.8246

>  <SCORE.INTER.norm>
-1.13832

>  <SCORE.INTRA>
-5.20956

>  <SCORE.INTRA.DIHEDRAL>
-5.15562

>  <SCORE.INTRA.DIHEDRAL.0>
8.06479

>  <SCORE.INTRA.POLAR>
0

>  <SCORE.INTRA.POLAR.0>
0

>  <SCORE.INTRA.REPUL>
0

>  <SCORE.INTRA.REPUL.0>
0

>  <SCORE.INTRA.SOLV>
0.429301

>  <SCORE.INTRA.SOLV.lig_0>
-29.8054

>  <SCORE.INTRA.VDW>
-2.8464

>  <SCORE.INTRA.VDW.0>
2.61447

>  <SCORE.INTRA.norm>
-0.226503

>  <SCORE.RESTR>
0

>  <SCORE.RESTR.CAVITY>
0

>  <SCORE.RESTR.norm>
0

>  <SCORE.SYSTEM>
0

>  <SCORE.SYSTEM.CONST>
0

>  <SCORE.SYSTEM.DIHEDRAL>
0

>  <SCORE.SYSTEM.SOLV>
0

>  <SCORE.SYSTEM.norm>
0

>  <SCORE.heavy>
23

>  <SCORE.norm>
-1.36482

>  <RMSD>
6.736

$$$$

 OpenBabel11021811403D
libRbt.so/2013.1/901 2013/11/27
 23 25  0  0  0  0  0  0  0  0999 V2000
  -26.2373    8.1163    9.8476 S   0  0  0  0  0  0  0  0  0  0  0  0
  -23.4856    7.0091   10.1143 N   0  0  0  0  0  0  0  0  0  0  0  0
  -22.8013    7.3707    7.8307 C   0  0  0  0  0  0  0  0  0  0  0  0
  -23.1088    7.8425    6.5477 C   0  0  0  0  0  0  0  0  0  0  0  0
  -24.3583    8.3962    6.2854 C   0  0  0  0  0  0  0  0  0  0  0  0
  -25.3073    8.4778    7.2985 C   0  0  0  0  0  0  0  0  0  0  0  0
  -25.0136    8.0097    8.5768 C   0  0  0  0  0  0  0  0  0  0  0  0
  -23.7586    7.4535    8.8517 C   0  0  0  0  0  0  0  0  0  0  0  0
  -25.7986    6.5280   10.4799 C   0  0  0  0  0  0  0  0  0  0  0  0
  -26.7931    5.6499   10.9204 C   0  0  0  0  0  0  0  0  0  0  0  0
  -26.4410    4.3948   11.4251 C   0  0  0  0  0  0  0  0  0  0  0  0
  -25.0941    4.0236   11.4914 C   0  0  0  0  0  0  0  0  0  0  0  0
  -24.1065    4.9053   11.0507 C   0  0  0  0  0  0  0  0  0  0  0  0
  -24.4525    6.1507   10.5448 C   0  0  0  0  0  0  0  0  0  0  0  0
  -22.0812    6.7937   10.5424 C   0  0  0  0  0  0  0  0  0  0  0  0
  -21.7631    6.9751   12.0642 C   0  0  0  0  0  0  0  0  0  0  0  0
  -22.2369    5.7716   12.9487 C   0  0  0  0  0  0  0  0  0  0  0  0
  -23.1894    6.0593   14.0513 N   0  3  0  0  0  0  0  0  0  0  0  0
  -23.6264    4.8127   14.7315 C   0  0  0  0  0  0  0  0  0  0  0  0
  -24.3607    6.8553   13.5450 C   0  0  0  0  0  0  0  0  0  0  0  0
  -22.0945    7.7512    5.4435 C   0  0  0  0  0  0  0  0  0  0  0  0
  -20.9933    6.7188    5.4538 C   0  0  0  0  0  0  0  0  0  0  0  0
  -22.1928    8.4908    4.4773 O   0  0  0  0  0  0  0  0  0  0  0  0
  1  7  1  0  0  0  0
  1  9  1  0  0  0  0
  2  8  1  0  0  0  0
  2 14  1  0  0  0  0
  2 15  1  0  0  0  0
  3  4  2  0  0  0  0
  3  8  1  0  0  0  0
  4  5  1  0  0  0  0
  4 21  1  0  0  0  0
  5  6  2  0  0  0  0
  6  7  1  0  0  0  0
  7  8  2  0  0  0  0
  9 10  2  0  0  0  0
  9 14  1  0  0  0  0
 10 11  1  0  0  0  0
 11 12  2  0  0  0  0
 12 13  1  0  0  0  0
 13 14  2  0  0  0  0
 15 16  1  0  0  0  0
 16 17  1  0  0  0  0
 17 18  1  0  0  0  0
 18 19  1  0  0  0  0
 18 20  1  0  0  0  0
 21 22  1  0  0  0  0
 21 23  2  0  0  0  0
M  CHG  1  18   1
M  END
>  <CHROM.1>
150.90864301,25.07513718,76.29276134,-121.87442990,-64.41153126,-23.96072487
6.79252158,9.81971672,1.39855613,0.07664767,-1.23272623

>  <Name>


>  <RI>
0

>  <Rbt.Current_Directory>
/home/itssahil/PROJECTS/Mol_Feturizer/New_Systems/rnas/1lvj

>  <Rbt.Executable>
rbdock ($Id: //depot/dev/client3/rdock/2013.1/src/exe/rbdock.cxx#4 $)

>  <Rbt.Library>
libRbt.so (2013.1, Build901 2013/11/27)

>  <Rbt.Parameter_File>
/export/apps/rDock/src/rDock_2013.1_src/data/scripts/dock_solv.prm

>  <Rbt.Receptor>
prm/pocket_docking_2.prm

>  <SCORE>
-21.2128

>  <SCORE.INTER>
-25.54

>  <SCORE.INTER.CONST>
1

>  <SCORE.INTER.POLAR>
-0.5909

>  <SCORE.INTER.ROT>
5

>  <SCORE.INTER.SOLV>
10.1174

>  <SCORE.INTER.VDW>
-25.3628

>  <SCORE.INTER.norm>
-1.11043

>  <SCORE.INTRA>
0.0289035

>  <SCORE.INTRA.DIHEDRAL>
1.132

>  <SCORE.INTRA.DIHEDRAL.0>
8.06479

>  <SCORE.INTRA.POLAR>
0

>  <SCORE.INTRA.POLAR.0>
0

>  <SCORE.INTRA.REPUL>
0

>  <SCORE.INTRA.REPUL.0>
0

>  <SCORE.INTRA.SOLV>
0.685818

>  <SCORE.INTRA.SOLV.lig_0>
-29.8054

>  <SCORE.INTRA.VDW>
-0.880007

>  <SCORE.INTRA.VDW.0>
2.61447

>  <SCORE.INTRA.norm>
0.00125667

>  <SCORE.RESTR>
4.29827

>  <SCORE.RESTR.CAVITY>
4.29827

>  <SCORE.RESTR.norm>
0.186881

>  <SCORE.SYSTEM>
0

>  <SCORE.SYSTEM.CONST>
0

>  <SCORE.SYSTEM.DIHEDRAL>
0

>  <SCORE.SYSTEM.SOLV>
0

>  <SCORE.SYSTEM.norm>
0

>  <SCORE.heavy>
23

>  <SCORE.norm>
-0.922295

>  <RMSD>
6.796

$$$$

 OpenBabel11021811403D
libRbt.so/2013.1/901 2013/11/27
 23 25  0  0  0  0  0  0  0  0999 V2000
  -26.0994    8.1819    9.9496 S   0  0  0  0  0  0  0  0  0  0  0  0
  -23.3747    6.9944   10.1372 N   0  0  0  0  0  0  0  0  0  0  0  0
  -22.7328    7.3695    7.8434 C   0  0  0  0  0  0  0  0  0  0  0  0
  -23.0559    7.8681    6.5745 C   0  0  0  0  0  0  0  0  0  0  0  0
  -24.2949    8.4603    6.3489 C   0  0  0  0  0  0  0  0  0  0  0  0
  -25.2178    8.5538    7.3849 C   0  0  0  0  0  0  0  0  0  0  0  0
  -24.9084    8.0594    8.6494 C   0  0  0  0  0  0  0  0  0  0  0  0
  -23.6637    7.4643    8.8875 C   0  0  0  0  0  0  0  0  0  0  0  0
  -25.6915    6.5730   10.5497 C   0  0  0  0  0  0  0  0  0  0  0  0
  -26.7001    5.7168   11.0011 C   0  0  0  0  0  0  0  0  0  0  0  0
  -26.3723    4.4453   11.4802 C   0  0  0  0  0  0  0  0  0  0  0  0
  -25.0353    4.0356   11.5101 C   0  0  0  0  0  0  0  0  0  0  0  0
  -24.0334    4.8955   11.0588 C   0  0  0  0  0  0  0  0  0  0  0  0
  -24.3554    6.1573   10.5782 C   0  0  0  0  0  0  0  0  0  0  0  0
  -21.9675    6.7336   10.5295 C   0  0  0  0  0  0  0  0  0  0  0  0
  -21.5491    7.1225   11.9868 C   0  0  0  0  0  0  0  0  0  0  0  0
  -22.3997    6.4083   13.0920 C   0  0  0  0  0  0  0  0  0  0  0  0
  -23.6711    7.0536   13.5081 N   0  3  0  0  0  0  0  0  0  0  0  0
  -23.4335    8.1333   14.5008 C   0  0  0  0  0  0  0  0  0  0  0  0
  -24.6412    6.0274   14.0256 C   0  0  0  0  0  0  0  0  0  0  0  0
  -22.0701    7.7643    5.4459 C   0  0  0  0  0  0  0  0  0  0  0  0
  -20.9681    6.7327    5.4403 C   0  0  0  0  0  0  0  0  0  0  0  0
  -22.1936    8.4924    4.4739 O   0  0  0  0  0  0  0  0  0  0  0  0
  1  7  1  0  0  0  0
  1  9  1  0  0  0  0
  2  8  1  0  0  0  0
  2 14  1  0  0  0  0
  2 15  1  0  0  0  0
  3  4  2  0  0  0  0
  3  8  1  0  0  0  0
  4  5  1  0  0  0  0
  4 21  1  0  0  0  0
  5  6  2  0  0  0  0
  6  7  1  0  0  0  0
  7  8  2  0  0  0  0
  9 10  2  0  0  0  0
  9 14  1  0  0  0  0
 10 11  1  0  0  0  0
 11 12  2  0  0  0  0
 12 13  1  0  0  0  0
 13 14  2  0  0  0  0
 15 16  1  0  0  0  0
 16 17  1  0  0  0  0
 17 18  1  0  0  0  0
 18 19  1  0  0  0  0
 18 20  1  0  0  0  0
 21 22  1  0  0  0  0
 21 23  2  0  0  0  0
M  CHG  1  18   1
M  END
>  <CHROM.1>
140.48929330,22.85168921,58.23272047,-86.82876650,38.10881612,-23.92503367
7.00528738,9.83591791,1.79479190,0.06376283,1.79039446

>  <Name>


>  <RI>
0

>  <Rbt.Current_Directory>
/home/itssahil/PROJECTS/Mol_Feturizer/New_Systems/rnas/1lvj

>  <Rbt.Executable>
rbdock ($Id: //depot/dev/client3/rdock/2013.1/src/exe/rbdock.cxx#4 $)

>  <Rbt.Library>
libRbt.so (2013.1, Build901 2013/11/27)

>  <Rbt.Parameter_File>
/export/apps/rDock/src/rDock_2013.1_src/data/scripts/dock_solv.prm

>  <Rbt.Receptor>
prm/pocket_docking_2.prm

>  <SCORE>
-22.5205

>  <SCORE.INTER>
-26.7754

>  <SCORE.INTER.CONST>
1

>  <SCORE.INTER.POLAR>
-0.595307

>  <SCORE.INTER.ROT>
5

>  <SCORE.INTER.SOLV>
10.0173

>  <SCORE.INTER.VDW>
-26.1384

>  <SCORE.INTER.norm>
-1.16415

>  <SCORE.INTRA>
-0.558666

>  <SCORE.INTRA.DIHEDRAL>
-1.75361

>  <SCORE.INTRA.DIHEDRAL.0>
8.06479

>  <SCORE.INTRA.POLAR>
0

>  <SCORE.INTRA.POLAR.0>
0

>  <SCORE.INTRA.REPUL>
0

>  <SCORE.INTRA.REPUL.0>
0

>  <SCORE.INTRA.SOLV>
8.72743

>  <SCORE.INTRA.SOLV.lig_0>
-29.8054

>  <SCORE.INTRA.VDW>
-4.04557

>  <SCORE.INTRA.VDW.0>
2.61447

>  <SCORE.INTRA.norm>
-0.0242898

>  <SCORE.RESTR>
4.81357

>  <SCORE.RESTR.CAVITY>
4.81357

>  <SCORE.RESTR.norm>
0.209286

>  <SCORE.SYSTEM>
0

>  <SCORE.SYSTEM.CONST>
0

>  <SCORE.SYSTEM.DIHEDRAL>
0

>  <SCORE.SYSTEM.SOLV>
0

>  <SCORE.SYSTEM.norm>
0

>  <SCORE.heavy>
23

>  <SCORE.norm>
-0.979152

>  <RMSD>
6.834

$$$$

 OpenBabel11021811403D
libRbt.so/2013.1/901 2013/11/27
 23 25  0  0  0  0  0  0  0  0999 V2000
  -25.9551    8.0759   10.0537 S   0  0  0  0  0  0  0  0  0  0  0  0
  -23.1550    7.0715   10.1927 N   0  0  0  0  0  0  0  0  0  0  0  0
  -22.5972    7.4362    7.8753 C   0  0  0  0  0  0  0  0  0  0  0  0
  -22.9843    7.8845    6.6056 C   0  0  0  0  0  0  0  0  0  0  0  0
  -24.2645    8.3902    6.4011 C   0  0  0  0  0  0  0  0  0  0  0  0
  -25.1651    8.4469    7.4592 C   0  0  0  0  0  0  0  0  0  0  0  0
  -24.7921    8.0017    8.7249 C   0  0  0  0  0  0  0  0  0  0  0  0
  -23.5056    7.4938    8.9417 C   0  0  0  0  0  0  0  0  0  0  0  0
  -25.4281    6.5105   10.6755 C   0  0  0  0  0  0  0  0  0  0  0  0
  -26.3670    5.6012   11.1713 C   0  0  0  0  0  0  0  0  0  0  0  0
  -25.9450    4.3644   11.6675 C   0  0  0  0  0  0  0  0  0  0  0  0
  -24.5838    4.0428   11.6700 C   0  0  0  0  0  0  0  0  0  0  0  0
  -23.6519    4.9554   11.1745 C   0  0  0  0  0  0  0  0  0  0  0  0
  -24.0676    6.1827   10.6768 C   0  0  0  0  0  0  0  0  0  0  0  0
  -21.7243    6.9109   10.5525 C   0  0  0  0  0  0  0  0  0  0  0  0
  -21.3080    7.2949   12.0117 C   0  0  0  0  0  0  0  0  0  0  0  0
  -22.2163    6.6459   13.1112 C   0  0  0  0  0  0  0  0  0  0  0  0
  -23.2484    7.5037   13.7475 N   0  3  0  0  0  0  0  0  0  0  0  0
  -24.3582    6.6922   14.3106 C   0  0  0  0  0  0  0  0  0  0  0  0
  -23.7524    8.5350   12.7756 C   0  0  0  0  0  0  0  0  0  0  0  0
  -22.0227    7.8196    5.4534 C   0  0  0  0  0  0  0  0  0  0  0  0
  -20.8863    6.8268    5.4164 C   0  0  0  0  0  0  0  0  0  0  0  0
  -22.1945    8.5470    4.4882 O   0  0  0  0  0  0  0  0  0  0  0  0
  1  7  1  0  0  0  0
  1  9  1  0  0  0  0
  2  8  1  0  0  0  0
  2 14  1  0  0  0  0
  2 15  1  0  0  0  0
  3  4  2  0  0  0  0
  3  8  1  0  0  0  0
  4  5  1  0  0  0  0
  4 21  1  0  0  0  0
  5  6  2  0  0  0  0
  6  7  1  0  0  0  0
  7  8  2  0  0  0  0
  9 10  2  0  0  0  0
  9 14  1  0  0  0  0
 10 11  1  0  0  0  0
 11 12  2  0  0  0  0
 12 13  1  0  0  0  0
 13 14  2  0  0  0  0
 15 16  1  0  0  0  0
 16 17  1  0  0  0  0
 17 18  1  0  0  0  0
 18 19  1  0  0  0  0
 18 20  1  0  0  0  0
 21 22  1  0  0  0  0
 21 23  2  0  0  0  0
M  CHG  1  18   1
M  END
>  <CHROM.1>
143.29830880,25.14870462,49.92666957,-102.17477828,-83.62957747,-23.74209144
7.09106838,9.84646990,1.78707498,0.07350333,1.77820045

>  <Name>


>  <RI>
0

>  <Rbt.Current_Directory>
/home/itssahil/PROJECTS/Mol_Feturizer/New_Systems/rnas/1lvj

>  <Rbt.Executable>
rbdock ($Id: //depot/dev/client3/rdock/2013.1/src/exe/rbdock.cxx#4 $)

>  <Rbt.Library>
libRbt.so (2013.1, Build901 2013/11/27)

>  <Rbt.Parameter_File>
/export/apps/rDock/src/rDock_2013.1_src/data/scripts/dock_solv.prm

>  <Rbt.Receptor>
prm/pocket_docking_3.prm

>  <SCORE>
-29.878

>  <SCORE.INTER>
-30.0482

>  <SCORE.INTER.CONST>
1

>  <SCORE.INTER.POLAR>
-0.612393

>  <SCORE.INTER.ROT>
5

>  <SCORE.INTER.SOLV>
9.85368

>  <SCORE.INTER.VDW>
-28.2087

>  <SCORE.INTER.norm>
-1.30644

>  <SCORE.INTRA>
0.0546101

>  <SCORE.INTRA.DIHEDRAL>
1.08166

>  <SCORE.INTRA.DIHEDRAL.0>
8.06479

>  <SCORE.INTRA.POLAR>
0

>  <SCORE.INTRA.POLAR.0>
0

>  <SCORE.INTRA.REPUL>
0

>  <SCORE.INTRA.REPUL.0>
0

>  <SCORE.INTRA.SOLV>
0.701698

>  <SCORE.INTRA.SOLV.lig_0>
-29.8054

>  <SCORE.INTRA.VDW>
-0.837067

>  <SCORE.INTRA.VDW.0>
2.61447

>  <SCORE.INTRA.norm>
0.00237435

>  <SCORE.RESTR>
0.115547

>  <SCORE.RESTR.CAVITY>
0.115547

>  <SCORE.RESTR.norm>
0.00502377

>  <SCORE.SYSTEM>
0

>  <SCORE.SYSTEM.CONST>
0

>  <SCORE.SYSTEM.DIHEDRAL>
0

>  <SCORE.SYSTEM.SOLV>
0

>  <SCORE.SYSTEM.norm>
0

>  <SCORE.heavy>
23

>  <SCORE.norm>
-1.29904

>  <RMSD>
6.857

$$$$

 OpenBabel11021811403D
libRbt.so/2013.1/901 2013/11/27
 23 25  0  0  0  0  0  0  0  0999 V2000
  -26.3364    8.0573    9.8268 S   0  0  0  0  0  0  0  0  0  0  0  0
  -23.5824    6.9646   10.1285 N   0  0  0  0  0  0  0  0  0  0  0  0
  -22.8676    7.3394    7.8564 C   0  0  0  0  0  0  0  0  0  0  0  0
  -23.1594    7.8147    6.5710 C   0  0  0  0  0  0  0  0  0  0  0  0
  -24.4081    8.3624    6.2931 C   0  0  0  0  0  0  0  0  0  0  0  0
  -25.3720    8.4344    7.2928 C   0  0  0  0  0  0  0  0  0  0  0  0
  -25.0939    7.9628    8.5732 C   0  0  0  0  0  0  0  0  0  0  0  0
  -23.8398    7.4125    8.8639 C   0  0  0  0  0  0  0  0  0  0  0  0
  -25.8977    6.4690   10.4589 C   0  0  0  0  0  0  0  0  0  0  0  0
  -26.8933    5.5834   10.8816 C   0  0  0  0  0  0  0  0  0  0  0  0
  -26.5414    4.3283   11.3863 C   0  0  0  0  0  0  0  0  0  0  0  0
  -25.1935    3.9644   11.4704 C   0  0  0  0  0  0  0  0  0  0  0  0
  -24.2047    4.8534   11.0475 C   0  0  0  0  0  0  0  0  0  0  0  0
  -24.5505    6.0990   10.5416 C   0  0  0  0  0  0  0  0  0  0  0  0
  -22.1831    6.7553   10.5758 C   0  0  0  0  0  0  0  0  0  0  0  0
  -21.8872    6.9355   12.1022 C   0  0  0  0  0  0  0  0  0  0  0  0
  -22.3508    5.7200   12.9756 C   0  0  0  0  0  0  0  0  0  0  0  0
  -23.2716    5.9959   14.1078 N   0  3  0  0  0  0  0  0  0  0  0  0
  -24.5718    6.5352   13.6322 C   0  0  0  0  0  0  0  0  0  0  0  0
  -22.6223    6.9135   15.1070 C   0  0  0  0  0  0  0  0  0  0  0  0
  -22.1289    7.7336    5.4811 C   0  0  0  0  0  0  0  0  0  0  0  0
  -20.9948    6.7384    5.5265 C   0  0  0  0  0  0  0  0  0  0  0  0
  -22.2391    8.4492    4.4983 O   0  0  0  0  0  0  0  0  0  0  0  0
  1  7  1  0  0  0  0
  1  9  1  0  0  0  0
  2  8  1  0  0  0  0
  2 14  1  0  0  0  0
  2 15  1  0  0  0  0
  3  4  2  0  0  0  0
  3  8  1  0  0  0  0
  4  5  1  0  0  0  0
  4 21  1  0  0  0  0
  5  6  2  0  0  0  0
  6  7  1  0  0  0  0
  7  8  2  0  0  0  0
  9 10  2  0  0  0  0
  9 14  1  0  0  0  0
 10 11  1  0  0  0  0
 11 12  2  0  0  0  0
 12 13  1  0  0  0  0
 13 14  2  0  0  0  0
 15 16  1  0  0  0  0
 16 17  1  0  0  0  0
 17 18  1  0  0  0  0
 18 19  1  0  0  0  0
 18 20  1  0  0  0  0
 21 22  1  0  0  0  0
 21 23  2  0  0  0  0
M  CHG  1  18   1
M  END
>  <CHROM.1>
150.77042135,22.95533138,77.03213533,-124.71218054,-176.77805817,-24.00000768
6.82957776,9.84887326,1.42129290,-0.03607132,-1.30050539

>  <Name>


>  <RI>
0

>  <Rbt.Current_Directory>
/home/itssahil/PROJECTS/Mol_Feturizer/New_Systems/rnas/1lvj

>  <Rbt.Executable>
rbdock ($Id: //depot/dev/client3/rdock/2013.1/src/exe/rbdock.cxx#4 $)

>  <Rbt.Library>
libRbt.so (2013.1, Build901 2013/11/27)

>  <Rbt.Parameter_File>
/export/apps/rDock/src/rDock_2013.1_src/data/scripts/dock_solv.prm

>  <Rbt.Receptor>
prm/pocket_docking_2.prm

>  <SCORE>
-18.9936

>  <SCORE.INTER>
-23.8503

>  <SCORE.INTER.CONST>
1

>  <SCORE.INTER.POLAR>
-0.566362

>  <SCORE.INTER.ROT>
5

>  <SCORE.INTER.SOLV>
10.1687

>  <SCORE.INTER.VDW>
-24.3353

>  <SCORE.INTER.norm>
-1.03697

>  <SCORE.INTRA>
0.476094

>  <SCORE.INTRA.DIHEDRAL>
0.734535

>  <SCORE.INTRA.DIHEDRAL.0>
8.06479

>  <SCORE.INTRA.POLAR>
0

>  <SCORE.INTRA.POLAR.0>
0

>  <SCORE.INTRA.REPUL>
0

>  <SCORE.INTRA.REPUL.0>
0

>  <SCORE.INTRA.SOLV>
0.850608

>  <SCORE.INTRA.SOLV.lig_0>
-29.8054

>  <SCORE.INTRA.VDW>
-0.316477

>  <SCORE.INTRA.VDW.0>
2.61447

>  <SCORE.INTRA.norm>
0.0206997

>  <SCORE.RESTR>
4.38068

>  <SCORE.RESTR.CAVITY>
4.38068

>  <SCORE.RESTR.norm>
0.190464

>  <SCORE.SYSTEM>
0

>  <SCORE.SYSTEM.CONST>
0

>  <SCORE.SYSTEM.DIHEDRAL>
0

>  <SCORE.SYSTEM.SOLV>
0

>  <SCORE.SYSTEM.norm>
0

>  <SCORE.heavy>
23

>  <SCORE.norm>
-0.825807

>  <RMSD>
6.859

$$$$

 OpenBabel11021811403D
libRbt.so/2013.1/901 2013/11/27
 23 25  0  0  0  0  0  0  0  0999 V2000
  -25.9138    8.1553   10.0884 S   0  0  0  0  0  0  0  0  0  0  0  0
  -23.1465    7.0608   10.2037 N   0  0  0  0  0  0  0  0  0  0  0  0
  -22.5980    7.4048    7.8810 C   0  0  0  0  0  0  0  0  0  0  0  0
  -22.9818    7.8640    6.6141 C   0  0  0  0  0  0  0  0  0  0  0  0
  -24.2467    8.4107    6.4204 C   0  0  0  0  0  0  0  0  0  0  0  0
  -25.1354    8.4976    7.4864 C   0  0  0  0  0  0  0  0  0  0  0  0
  -24.7657    8.0420    8.7493 C   0  0  0  0  0  0  0  0  0  0  0  0
  -23.4945    7.4929    8.9554 C   0  0  0  0  0  0  0  0  0  0  0  0
  -25.4322    6.5743   10.7076 C   0  0  0  0  0  0  0  0  0  0  0  0
  -26.3955    5.6963   11.2129 C   0  0  0  0  0  0  0  0  0  0  0  0
  -26.0093    4.4471   11.7070 C   0  0  0  0  0  0  0  0  0  0  0  0
  -24.6593    4.0816   11.6979 C   0  0  0  0  0  0  0  0  0  0  0  0
  -23.7028    4.9630   11.1928 C   0  0  0  0  0  0  0  0  0  0  0  0
  -24.0830    6.2026   10.6972 C   0  0  0  0  0  0  0  0  0  0  0  0
  -21.7186    6.8544   10.5510 C   0  0  0  0  0  0  0  0  0  0  0  0
  -21.2770    7.2262   12.0058 C   0  0  0  0  0  0  0  0  0  0  0  0
  -22.1989    6.6122   13.1141 C   0  0  0  0  0  0  0  0  0  0  0  0
  -23.2104    7.5015   13.7401 N   0  3  0  0  0  0  0  0  0  0  0  0
  -24.3589    6.7261   14.2760 C   0  0  0  0  0  0  0  0  0  0  0  0
  -23.6592    8.5589   12.7692 C   0  0  0  0  0  0  0  0  0  0  0  0
  -22.0332    7.7668    5.4534 C   0  0  0  0  0  0  0  0  0  0  0  0
  -20.9088    6.7600    5.4229 C   0  0  0  0  0  0  0  0  0  0  0  0
  -22.2065    8.4785    4.4770 O   0  0  0  0  0  0  0  0  0  0  0  0
  1  7  1  0  0  0  0
  1  9  1  0  0  0  0
  2  8  1  0  0  0  0
  2 14  1  0  0  0  0
  2 15  1  0  0  0  0
  3  4  2  0  0  0  0
  3  8  1  0  0  0  0
  4  5  1  0  0  0  0
  4 21  1  0  0  0  0
  5  6  2  0  0  0  0
  6  7  1  0  0  0  0
  7  8  2  0  0  0  0
  9 10  2  0  0  0  0
  9 14  1  0  0  0  0
 10 11  1  0  0  0  0
 11 12  2  0  0  0  0
 12 13  1  0  0  0  0
 13 14  2  0  0  0  0
 15 16  1  0  0  0  0
 16 17  1  0  0  0  0
 17 18  1  0  0  0  0
 18 19  1  0  0  0  0
 18 20  1  0  0  0  0
 21 22  1  0  0  0  0
 21 23  2  0  0  0  0
M  CHG  1  18   1
M  END
>  <CHROM.1>
143.30158829,23.61675189,49.72206875,-101.13818204,-85.43996184,-23.73746491
7.09996091,9.85849082,1.78734586,0.03889085,1.77804675

>  <Name>


>  <RI>
0

>  <Rbt.Current_Directory>
/home/itssahil/PROJECTS/Mol_Feturizer/New_Systems/rnas/1lvj

>  <Rbt.Executable>
rbdock ($Id: //depot/dev/client3/rdock/2013.1/src/exe/rbdock.cxx#4 $)

>  <Rbt.Library>
libRbt.so (2013.1, Build901 2013/11/27)

>  <Rbt.Parameter_File>
/export/apps/rDock/src/rDock_2013.1_src/data/scripts/dock_solv.prm

>  <Rbt.Receptor>
prm/pocket_docking_3.prm

>  <SCORE>
-29.7816

>  <SCORE.INTER>
-30.0619

>  <SCORE.INTER.CONST>
1

>  <SCORE.INTER.POLAR>
-0.586919

>  <SCORE.INTER.ROT>
5

>  <SCORE.INTER.SOLV>
9.67983

>  <SCORE.INTER.VDW>
-28.2448

>  <SCORE.INTER.norm>
-1.30704

>  <SCORE.INTRA>
0.207302

>  <SCORE.INTRA.DIHEDRAL>
0.895577

>  <SCORE.INTRA.DIHEDRAL.0>
8.06479

>  <SCORE.INTRA.POLAR>
0

>  <SCORE.INTRA.POLAR.0>
0

>  <SCORE.INTRA.REPUL>
0

>  <SCORE.INTRA.REPUL.0>
0

>  <SCORE.INTRA.SOLV>
0.693962

>  <SCORE.INTRA.SOLV.lig_0>
-29.8054

>  <SCORE.INTRA.VDW>
-0.587468

>  <SCORE.INTRA.VDW.0>
2.61447

>  <SCORE.INTRA.norm>
0.00901312

>  <SCORE.RESTR>
0.0730485

>  <SCORE.RESTR.CAVITY>
0.0730485

>  <SCORE.RESTR.norm>
0.00317602

>  <SCORE.SYSTEM>
0

>  <SCORE.SYSTEM.CONST>
0

>  <SCORE.SYSTEM.DIHEDRAL>
0

>  <SCORE.SYSTEM.SOLV>
0

>  <SCORE.SYSTEM.norm>
0

>  <SCORE.heavy>
23

>  <SCORE.norm>
-1.29485

>  <RMSD>
6.865

$$$$

 OpenBabel11021811403D
libRbt.so/2013.1/901 2013/11/27
 23 25  0  0  0  0  0  0  0  0999 V2000
  -26.3441    7.6306    9.3396 S   0  0  0  0  0  0  0  0  0  0  0  0
  -23.4251    7.2114    9.7555 N   0  0  0  0  0  0  0  0  0  0  0  0
  -22.7758    7.3492    7.4374 C   0  0  0  0  0  0  0  0  0  0  0  0
  -23.1446    7.5333    6.0983 C   0  0  0  0  0  0  0  0  0  0  0  0
  -24.4773    7.7504    5.7619 C   0  0  0  0  0  0  0  0  0  0  0  0
  -25.4479    7.7804    6.7574 C   0  0  0  0  0  0  0  0  0  0  0  0
  -25.0932    7.5961    8.0914 C   0  0  0  0  0  0  0  0  0  0  0  0
  -23.7548    7.3798    8.4406 C   0  0  0  0  0  0  0  0  0  0  0  0
  -25.5862    6.2978   10.2137 C   0  0  0  0  0  0  0  0  0  0  0  0
  -26.3764    5.3035   10.7978 C   0  0  0  0  0  0  0  0  0  0  0  0
  -25.7725    4.2523   11.4936 C   0  0  0  0  0  0  0  0  0  0  0  0
  -24.3793    4.2013   11.6064 C   0  0  0  0  0  0  0  0  0  0  0  0
  -23.5965    5.1974   11.0217 C   0  0  0  0  0  0  0  0  0  0  0  0
  -24.1924    6.2405   10.3262 C   0  0  0  0  0  0  0  0  0  0  0  0
  -22.0194    7.3801   10.2001 C   0  0  0  0  0  0  0  0  0  0  0  0
  -21.7420    7.2939   11.7381 C   0  0  0  0  0  0  0  0  0  0  0  0
  -22.8922    7.8975   12.6145 C   0  0  0  0  0  0  0  0  0  0  0  0
  -22.9966    7.4416   14.0242 N   0  3  0  0  0  0  0  0  0  0  0  0
  -22.9306    5.9606   14.1230 C   0  0  0  0  0  0  0  0  0  0  0  0
  -24.2433    7.9858   14.6657 C   0  0  0  0  0  0  0  0  0  0  0  0
  -22.1058    7.4938    5.0139 C   0  0  0  0  0  0  0  0  0  0  0  0
  -20.7988    6.7586    5.1863 C   0  0  0  0  0  0  0  0  0  0  0  0
  -22.3433    8.0187    3.9377 O   0  0  0  0  0  0  0  0  0  0  0  0
  1  7  1  0  0  0  0
  1  9  1  0  0  0  0
  2  8  1  0  0  0  0
  2 14  1  0  0  0  0
  2 15  1  0  0  0  0
  3  4  2  0  0  0  0
  3  8  1  0  0  0  0
  4  5  1  0  0  0  0
  4 21  1  0  0  0  0
  5  6  2  0  0  0  0
  6  7  1  0  0  0  0
  7  8  2  0  0  0  0
  9 10  2  0  0  0  0
  9 14  1  0  0  0  0
 10 11  1  0  0  0  0
 11 12  2  0  0  0  0
 12 13  1  0  0  0  0
 13 14  2  0  0  0  0
 15 16  1  0  0  0  0
 16 17  1  0  0  0  0
 17 18  1  0  0  0  0
 18 19  1  0  0  0  0
 18 20  1  0  0  0  0
 21 22  1  0  0  0  0
 21 23  2  0  0  0  0
M  CHG  1  18   1
M  END
>  <CHROM.1>
174.81010547,24.25994952,-35.37991208,157.79525600,71.75850807,-23.84901890
6.93074569,9.55528009,1.44482949,-0.19602593,-1.45725966

>  <Name>


>  <RI>
0

>  <Rbt.Current_Directory>
/home/itssahil/PROJECTS/Mol_Feturizer/New_Systems/rnas/1lvj

>  <Rbt.Executable>
rbdock ($Id: //depot/dev/client3/rdock/2013.1/src/exe/rbdock.cxx#4 $)

>  <Rbt.Library>
libRbt.so (2013.1, Build901 2013/11/27)

>  <Rbt.Parameter_File>
/export/apps/rDock/src/rDock_2013.1_src/data/scripts/dock_solv.prm

>  <Rbt.Receptor>
prm/pocket_docking_3.prm

>  <SCORE>
-26.0092

>  <SCORE.INTER>
-25.1676

>  <SCORE.INTER.CONST>
1

>  <SCORE.INTER.POLAR>
-0.405217

>  <SCORE.INTER.ROT>
5

>  <SCORE.INTER.SOLV>
9.99352

>  <SCORE.INTER.VDW>
-25.6922

>  <SCORE.INTER.norm>
-1.09424

>  <SCORE.INTRA>
-1.59451

>  <SCORE.INTRA.DIHEDRAL>
-1.97656

>  <SCORE.INTRA.DIHEDRAL.0>
8.06479

>  <SCORE.INTRA.POLAR>
0

>  <SCORE.INTRA.POLAR.0>
0

>  <SCORE.INTRA.REPUL>
0

>  <SCORE.INTRA.REPUL.0>
0

>  <SCORE.INTRA.SOLV>
0.362205

>  <SCORE.INTRA.SOLV.lig_0>
-29.8054

>  <SCORE.INTRA.VDW>
-0.787339

>  <SCORE.INTRA.VDW.0>
2.61447

>  <SCORE.INTRA.norm>
-0.0693267

>  <SCORE.RESTR>
0.75294

>  <SCORE.RESTR.CAVITY>
0.75294

>  <SCORE.RESTR.norm>
0.0327365

>  <SCORE.SYSTEM>
0

>  <SCORE.SYSTEM.CONST>
0

>  <SCORE.SYSTEM.DIHEDRAL>
0

>  <SCORE.SYSTEM.SOLV>
0

>  <SCORE.SYSTEM.norm>
0

>  <SCORE.heavy>
23

>  <SCORE.norm>
-1.13083

>  <RMSD>
6.893

$$$$

 OpenBabel11021811403D
libRbt.so/2013.1/901 2013/11/27
 23 25  0  0  0  0  0  0  0  0999 V2000
  -21.3840   10.0783   13.3962 S   0  0  0  0  0  0  0  0  0  0  0  0
  -22.7506    8.2073   11.5251 N   0  0  0  0  0  0  0  0  0  0  0  0
  -25.0108    8.7514   12.1650 C   0  0  0  0  0  0  0  0  0  0  0  0
  -25.8824    9.5066   12.9606 C   0  0  0  0  0  0  0  0  0  0  0  0
  -25.3776   10.4288   13.8724 C   0  0  0  0  0  0  0  0  0  0  0  0
  -24.0032   10.5987   13.9982 C   0  0  0  0  0  0  0  0  0  0  0  0
  -23.1274    9.8517   13.2144 C   0  0  0  0  0  0  0  0  0  0  0  0
  -23.6252    8.9233   12.2922 C   0  0  0  0  0  0  0  0  0  0  0  0
  -21.0863    8.3461   13.2357 C   0  0  0  0  0  0  0  0  0  0  0  0
  -20.1232    7.7235   14.0350 C   0  0  0  0  0  0  0  0  0  0  0  0
  -19.8870    6.3523   13.9013 C   0  0  0  0  0  0  0  0  0  0  0  0
  -20.6125    5.6087   12.9648 C   0  0  0  0  0  0  0  0  0  0  0  0
  -21.5718    6.2366   12.1696 C   0  0  0  0  0  0  0  0  0  0  0  0
  -21.8123    7.5972   12.3026 C   0  0  0  0  0  0  0  0  0  0  0  0
  -23.2210    7.5313   10.2906 C   0  0  0  0  0  0  0  0  0  0  0  0
  -22.1261    6.9786    9.3181 C   0  0  0  0  0  0  0  0  0  0  0  0
  -21.9892    7.8085    7.9961 C   0  0  0  0  0  0  0  0  0  0  0  0
  -23.0046    7.5875    6.9350 N   0  3  0  0  0  0  0  0  0  0  0  0
  -22.5108    8.0367    5.6077 C   0  0  0  0  0  0  0  0  0  0  0  0
  -24.3036    8.2530    7.2983 C   0  0  0  0  0  0  0  0  0  0  0  0
  -27.3686    9.3248   12.8395 C   0  0  0  0  0  0  0  0  0  0  0  0
  -28.3440   10.1976   13.5916 C   0  0  0  0  0  0  0  0  0  0  0  0
  -27.8087    8.4886   12.0667 O   0  0  0  0  0  0  0  0  0  0  0  0
  1  7  1  0  0  0  0
  1  9  1  0  0  0  0
  2  8  1  0  0  0  0
  2 14  1  0  0  0  0
  2 15  1  0  0  0  0
  3  4  2  0  0  0  0
  3  8  1  0  0  0  0
  4  5  1  0  0  0  0
  4 21  1  0  0  0  0
  5  6  2  0  0  0  0
  6  7  1  0  0  0  0
  7  8  2  0  0  0  0
  9 10  2  0  0  0  0
  9 14  1  0  0  0  0
 10 11  1  0  0  0  0
 11 12  2  0  0  0  0
 12 13  1  0  0  0  0
 13 14  2  0  0  0  0
 15 16  1  0  0  0  0
 16 17  1  0  0  0  0
 17 18  1  0  0  0  0
 18 19  1  0  0  0  0
 18 20  1  0  0  0  0
 21 22  1  0  0  0  0
 21 23  2  0  0  0  0
M  CHG  1  18   1
M  END
>  <CHROM.1>
168.02544791,-174.76075725,-107.92633828,-78.15771184,-39.71869634,-23.28276442
8.44807830,11.63107604,-2.15605381,0.33033916,-1.77791595

>  <Name>


>  <RI>
0

>  <Rbt.Current_Directory>
/home/itssahil/PROJECTS/Mol_Feturizer/New_Systems/rnas/1lvj

>  <Rbt.Executable>
rbdock ($Id: //depot/dev/client3/rdock/2013.1/src/exe/rbdock.cxx#4 $)

>  <Rbt.Library>
libRbt.so (2013.1, Build901 2013/11/27)

>  <Rbt.Parameter_File>
/export/apps/rDock/src/rDock_2013.1_src/data/scripts/dock_solv.prm

>  <Rbt.Receptor>
prm/pocket_docking_8.prm

>  <SCORE>
-29.3087

>  <SCORE.INTER>
-28.0193

>  <SCORE.INTER.CONST>
1

>  <SCORE.INTER.POLAR>
-1.98614

>  <SCORE.INTER.ROT>
5

>  <SCORE.INTER.SOLV>
13.8188

>  <SCORE.INTER.VDW>
-23.5987

>  <SCORE.INTER.norm>
-1.21823

>  <SCORE.INTRA>
-1.28939

>  <SCORE.INTRA.DIHEDRAL>
-0.848301

>  <SCORE.INTRA.DIHEDRAL.0>
8.06479

>  <SCORE.INTRA.POLAR>
0

>  <SCORE.INTRA.POLAR.0>
0

>  <SCORE.INTRA.REPUL>
0

>  <SCORE.INTRA.REPUL.0>
0

>  <SCORE.INTRA.SOLV>
1.29712

>  <SCORE.INTRA.SOLV.lig_0>
-29.8054

>  <SCORE.INTRA.VDW>
-1.5138

>  <SCORE.INTRA.VDW.0>
2.61447

>  <SCORE.INTRA.norm>
-0.0560605

>  <SCORE.RESTR>
0

>  <SCORE.RESTR.CAVITY>
0

>  <SCORE.RESTR.norm>
0

>  <SCORE.SYSTEM>
0

>  <SCORE.SYSTEM.CONST>
0

>  <SCORE.SYSTEM.DIHEDRAL>
0

>  <SCORE.SYSTEM.SOLV>
0

>  <SCORE.SYSTEM.norm>
0

>  <SCORE.heavy>
23

>  <SCORE.norm>
-1.27429

>  <RMSD>
6.894

$$$$

 OpenBabel11021811403D
libRbt.so/2013.1/901 2013/11/27
 23 25  0  0  0  0  0  0  0  0999 V2000
  -25.6517    8.3340    9.6047 S   0  0  0  0  0  0  0  0  0  0  0  0
  -22.9435    7.1843   10.0663 N   0  0  0  0  0  0  0  0  0  0  0  0
  -22.1825    7.2998    7.7812 C   0  0  0  0  0  0  0  0  0  0  0  0
  -22.4382    7.6507    6.4490 C   0  0  0  0  0  0  0  0  0  0  0  0
  -23.6622    8.2094    6.0940 C   0  0  0  0  0  0  0  0  0  0  0  0
  -24.6374    8.4163    7.0634 C   0  0  0  0  0  0  0  0  0  0  0  0
  -24.3953    8.0691    8.3901 C   0  0  0  0  0  0  0  0  0  0  0  0
  -23.1661    7.5090    8.7581 C   0  0  0  0  0  0  0  0  0  0  0  0
  -25.2796    6.8046   10.4031 C   0  0  0  0  0  0  0  0  0  0  0  0
  -26.3125    6.0016   10.8956 C   0  0  0  0  0  0  0  0  0  0  0  0
  -26.0132    4.7935   11.5318 C   0  0  0  0  0  0  0  0  0  0  0  0
  -24.6806    4.3943   11.6771 C   0  0  0  0  0  0  0  0  0  0  0  0
  -23.6545    5.2010   11.1839 C   0  0  0  0  0  0  0  0  0  0  0  0
  -23.9479    6.3992   10.5477 C   0  0  0  0  0  0  0  0  0  0  0  0
  -21.5593    6.9743   10.5580 C   0  0  0  0  0  0  0  0  0  0  0  0
  -21.3602    6.8704   12.1070 C   0  0  0  0  0  0  0  0  0  0  0  0
  -21.4621    8.2497   12.8433 C   0  0  0  0  0  0  0  0  0  0  0  0
  -22.7721    8.6186   13.4383 N   0  3  0  0  0  0  0  0  0  0  0  0
  -23.3331    7.5073   14.2494 C   0  0  0  0  0  0  0  0  0  0  0  0
  -23.7317    9.0656   12.3700 C   0  0  0  0  0  0  0  0  0  0  0  0
  -21.3954    7.4232    5.3920 C   0  0  0  0  0  0  0  0  0  0  0  0
  -21.4692    8.0911    4.0403 C   0  0  0  0  0  0  0  0  0  0  0  0
  -20.4260    6.7265    5.6471 O   0  0  0  0  0  0  0  0  0  0  0  0
  1  7  1  0  0  0  0
  1  9  1  0  0  0  0
  2  8  1  0  0  0  0
  2 14  1  0  0  0  0
  2 15  1  0  0  0  0
  3  4  2  0  0  0  0
  3  8  1  0  0  0  0
  4  5  1  0  0  0  0
  4 21  1  0  0  0  0
  5  6  2  0  0  0  0
  6  7  1  0  0  0  0
  7  8  2  0  0  0  0
  9 10  2  0  0  0  0
  9 14  1  0  0  0  0
 10 11  1  0  0  0  0
 11 12  2  0  0  0  0
 12 13  1  0  0  0  0
 13 14  2  0  0  0  0
 15 16  1  0  0  0  0
 16 17  1  0  0  0  0
 17 18  1  0  0  0  0
 18 19  1  0  0  0  0
 18 20  1  0  0  0  0
 21 22  1  0  0  0  0
 21 23  2  0  0  0  0
M  CHG  1  18   1
M  END
>  <CHROM.1>
168.90344613,-163.97343219,-75.00459882,95.85541065,168.37237633,-23.40084876
7.29875281,9.65818589,1.82483897,0.19910134,1.61402293

>  <Name>


>  <RI>
0

>  <Rbt.Current_Directory>
/home/itssahil/PROJECTS/Mol_Feturizer/New_Systems/rnas/1lvj

>  <Rbt.Executable>
rbdock ($Id: //depot/dev/client3/rdock/2013.1/src/exe/rbdock.cxx#4 $)

>  <Rbt.Library>
libRbt.so (2013.1, Build901 2013/11/27)

>  <Rbt.Parameter_File>
/export/apps/rDock/src/rDock_2013.1_src/data/scripts/dock_solv.prm

>  <Rbt.Receptor>
prm/pocket_docking_5.prm

>  <SCORE>
-33.1608

>  <SCORE.INTER>
-30.3517

>  <SCORE.INTER.CONST>
1

>  <SCORE.INTER.POLAR>
0

>  <SCORE.INTER.ROT>
5

>  <SCORE.INTER.SOLV>
10.4421

>  <SCORE.INTER.VDW>
-30.6485

>  <SCORE.INTER.norm>
-1.31964

>  <SCORE.INTRA>
-2.80913

>  <SCORE.INTRA.DIHEDRAL>
-2.22381

>  <SCORE.INTRA.DIHEDRAL.0>
8.06479

>  <SCORE.INTRA.POLAR>
0

>  <SCORE.INTRA.POLAR.0>
0

>  <SCORE.INTRA.REPUL>
0

>  <SCORE.INTRA.REPUL.0>
0

>  <SCORE.INTRA.SOLV>
-0.066217

>  <SCORE.INTRA.SOLV.lig_0>
-29.8054

>  <SCORE.INTRA.VDW>
-1.66411

>  <SCORE.INTRA.VDW.0>
2.61447

>  <SCORE.INTRA.norm>
-0.122136

>  <SCORE.RESTR>
0

>  <SCORE.RESTR.CAVITY>
0

>  <SCORE.RESTR.norm>
0

>  <SCORE.SYSTEM>
0

>  <SCORE.SYSTEM.CONST>
0

>  <SCORE.SYSTEM.DIHEDRAL>
0

>  <SCORE.SYSTEM.SOLV>
0

>  <SCORE.SYSTEM.norm>
0

>  <SCORE.heavy>
23

>  <SCORE.norm>
-1.44177

>  <RMSD>
6.898

$$$$

 OpenBabel11021811403D
libRbt.so/2013.1/901 2013/11/27
 23 25  0  0  0  0  0  0  0  0999 V2000
  -25.6080    8.4530    9.5694 S   0  0  0  0  0  0  0  0  0  0  0  0
  -23.0339    7.0251   10.0217 N   0  0  0  0  0  0  0  0  0  0  0  0
  -22.2155    7.1720    7.7583 C   0  0  0  0  0  0  0  0  0  0  0  0
  -22.4069    7.6075    6.4404 C   0  0  0  0  0  0  0  0  0  0  0  0
  -23.5634    8.2986    6.0917 C   0  0  0  0  0  0  0  0  0  0  0  0
  -24.5351    8.5542    7.0531 C   0  0  0  0  0  0  0  0  0  0  0  0
  -24.3566    8.1239    8.3654 C   0  0  0  0  0  0  0  0  0  0  0  0
  -23.1955    7.4302    8.7271 C   0  0  0  0  0  0  0  0  0  0  0  0
  -25.4026    6.8593   10.2993 C   0  0  0  0  0  0  0  0  0  0  0  0
  -26.5186    6.1386   10.7345 C   0  0  0  0  0  0  0  0  0  0  0  0
  -26.3512    4.8789   11.3166 C   0  0  0  0  0  0  0  0  0  0  0  0
  -25.0667    4.3456   11.4655 C   0  0  0  0  0  0  0  0  0  0  0  0
  -23.9571    5.0706   11.0297 C   0  0  0  0  0  0  0  0  0  0  0  0
  -24.1197    6.3199   10.4471 C   0  0  0  0  0  0  0  0  0  0  0  0
  -21.6875    6.6587   10.5265 C   0  0  0  0  0  0  0  0  0  0  0  0
  -21.2548    7.2589   11.9058 C   0  0  0  0  0  0  0  0  0  0  0  0
  -22.1635    6.8023   13.0979 C   0  0  0  0  0  0  0  0  0  0  0  0
  -22.1329    5.3668   13.4777 N   0  3  0  0  0  0  0  0  0  0  0  0
  -23.2345    5.0289   14.4157 C   0  0  0  0  0  0  0  0  0  0  0  0
  -20.7892    4.9973   14.0433 C   0  0  0  0  0  0  0  0  0  0  0  0
  -21.3681    7.3289    5.3918 C   0  0  0  0  0  0  0  0  0  0  0  0
  -21.3752    8.0290    4.0545 C   0  0  0  0  0  0  0  0  0  0  0  0
  -20.4542    6.5598    5.6436 O   0  0  0  0  0  0  0  0  0  0  0  0
  1  7  1  0  0  0  0
  1  9  1  0  0  0  0
  2  8  1  0  0  0  0
  2 14  1  0  0  0  0
  2 15  1  0  0  0  0
  3  4  2  0  0  0  0
  3  8  1  0  0  0  0
  4  5  1  0  0  0  0
  4 21  1  0  0  0  0
  5  6  2  0  0  0  0
  6  7  1  0  0  0  0
  7  8  2  0  0  0  0
  9 10  2  0  0  0  0
  9 14  1  0  0  0  0
 10 11  1  0  0  0  0
 11 12  2  0  0  0  0
 12 13  1  0  0  0  0
 13 14  2  0  0  0  0
 15 16  1  0  0  0  0
 16 17  1  0  0  0  0
 17 18  1  0  0  0  0
 18 19  1  0  0  0  0
 18 20  1  0  0  0  0
 21 22  1  0  0  0  0
 21 23  2  0  0  0  0
M  CHG  1  18   1
M  END
>  <CHROM.1>
133.01293455,-166.09615474,62.48853126,66.46124138,-48.15933109,-23.31087782
6.77866906,9.69536535,1.45106339,0.12936125,-1.24216356

>  <Name>


>  <RI>
0

>  <Rbt.Current_Directory>
/home/itssahil/PROJECTS/Mol_Feturizer/New_Systems/rnas/1lvj

>  <Rbt.Executable>
rbdock ($Id: //depot/dev/client3/rdock/2013.1/src/exe/rbdock.cxx#4 $)

>  <Rbt.Library>
libRbt.so (2013.1, Build901 2013/11/27)

>  <Rbt.Parameter_File>
/export/apps/rDock/src/rDock_2013.1_src/data/scripts/dock_solv.prm

>  <Rbt.Receptor>
prm/pocket_docking_4.prm

>  <SCORE>
-30.323

>  <SCORE.INTER>
-27.7006

>  <SCORE.INTER.CONST>
1

>  <SCORE.INTER.POLAR>
0

>  <SCORE.INTER.ROT>
5

>  <SCORE.INTER.SOLV>
10.4727

>  <SCORE.INTER.VDW>
-28.8913

>  <SCORE.INTER.norm>
-1.20437

>  <SCORE.INTRA>
-2.76587

>  <SCORE.INTRA.DIHEDRAL>
-5.54384

>  <SCORE.INTRA.DIHEDRAL.0>
8.06479

>  <SCORE.INTRA.POLAR>
0

>  <SCORE.INTRA.POLAR.0>
0

>  <SCORE.INTRA.REPUL>
0

>  <SCORE.INTRA.REPUL.0>
0

>  <SCORE.INTRA.SOLV>
6.11451

>  <SCORE.INTRA.SOLV.lig_0>
-29.8054

>  <SCORE.INTRA.VDW>
-3.0512

>  <SCORE.INTRA.VDW.0>
2.61447

>  <SCORE.INTRA.norm>
-0.120255

>  <SCORE.RESTR>
0.143455

>  <SCORE.RESTR.CAVITY>
0.143455

>  <SCORE.RESTR.norm>
0.00623716

>  <SCORE.SYSTEM>
0

>  <SCORE.SYSTEM.CONST>
0

>  <SCORE.SYSTEM.DIHEDRAL>
0

>  <SCORE.SYSTEM.SOLV>
0

>  <SCORE.SYSTEM.norm>
0

>  <SCORE.heavy>
23

>  <SCORE.norm>
-1.31839

>  <RMSD>
6.906

$$$$

 OpenBabel11021811403D
libRbt.so/2013.1/901 2013/11/27
 23 25  0  0  0  0  0  0  0  0999 V2000
  -26.2605    7.9335   10.2481 S   0  0  0  0  0  0  0  0  0  0  0  0
  -23.4222    7.0503   10.4299 N   0  0  0  0  0  0  0  0  0  0  0  0
  -22.8390    7.4615    8.1267 C   0  0  0  0  0  0  0  0  0  0  0  0
  -23.2222    7.9050    6.8540 C   0  0  0  0  0  0  0  0  0  0  0  0
  -24.5194    8.3566    6.6304 C   0  0  0  0  0  0  0  0  0  0  0  0
  -25.4405    8.3637    7.6721 C   0  0  0  0  0  0  0  0  0  0  0  0
  -25.0715    7.9228    8.9405 C   0  0  0  0  0  0  0  0  0  0  0  0
  -23.7682    7.4692    9.1765 C   0  0  0  0  0  0  0  0  0  0  0  0
  -25.6771    6.3865   10.8656 C   0  0  0  0  0  0  0  0  0  0  0  0
  -26.5842    5.4323   11.3357 C   0  0  0  0  0  0  0  0  0  0  0  0
  -26.1177    4.2104   11.8285 C   0  0  0  0  0  0  0  0  0  0  0  0
  -24.7440    3.9482   11.8534 C   0  0  0  0  0  0  0  0  0  0  0  0
  -23.8440    4.9052   11.3834 C   0  0  0  0  0  0  0  0  0  0  0  0
  -24.3037    6.1181   10.8891 C   0  0  0  0  0  0  0  0  0  0  0  0
  -21.9926    6.9486   10.8147 C   0  0  0  0  0  0  0  0  0  0  0  0
  -21.6551    7.0494   12.3398 C   0  0  0  0  0  0  0  0  0  0  0  0
  -22.2088    8.3495   13.0170 C   0  0  0  0  0  0  0  0  0  0  0  0
  -23.6707    8.5993   12.9374 N   0  3  0  0  0  0  0  0  0  0  0  0
  -23.9797   10.0503   13.0192 C   0  0  0  0  0  0  0  0  0  0  0  0
  -24.4001    7.8160   13.9941 C   0  0  0  0  0  0  0  0  0  0  0  0
  -22.2380    7.8932    5.7193 C   0  0  0  0  0  0  0  0  0  0  0  0
  -21.0742    6.9326    5.6814 C   0  0  0  0  0  0  0  0  0  0  0  0
  -22.4118    8.6381    4.7679 O   0  0  0  0  0  0  0  0  0  0  0  0
  1  7  1  0  0  0  0
  1  9  1  0  0  0  0
  2  8  1  0  0  0  0
  2 14  1  0  0  0  0
  2 15  1  0  0  0  0
  3  4  2  0  0  0  0
  3  8  1  0  0  0  0
  4  5  1  0  0  0  0
  4 21  1  0  0  0  0
  5  6  2  0  0  0  0
  6  7  1  0  0  0  0
  7  8  2  0  0  0  0
  9 10  2  0  0  0  0
  9 14  1  0  0  0  0
 10 11  1  0  0  0  0
 11 12  2  0  0  0  0
 12 13  1  0  0  0  0
 13 14  2  0  0  0  0
 15 16  1  0  0  0  0
 16 17  1  0  0  0  0
 17 18  1  0  0  0  0
 18 19  1  0  0  0  0
 18 20  1  0  0  0  0
 21 22  1  0  0  0  0
 21 23  2  0  0  0  0
M  CHG  1  18   1
M  END
>  <CHROM.1>
155.41649800,26.37090476,-55.11974224,57.33241356,-33.52197737,-23.97731196
7.28878228,9.98349699,1.87171627,0.57639758,1.56868606

>  <Name>


>  <RI>
0

>  <Rbt.Current_Directory>
/home/itssahil/PROJECTS/Mol_Feturizer/New_Systems/rnas/1lvj

>  <Rbt.Executable>
rbdock ($Id: //depot/dev/client3/rdock/2013.1/src/exe/rbdock.cxx#4 $)

>  <Rbt.Library>
libRbt.so (2013.1, Build901 2013/11/27)

>  <Rbt.Parameter_File>
/export/apps/rDock/src/rDock_2013.1_src/data/scripts/dock_solv.prm

>  <Rbt.Receptor>
prm/pocket_docking_4.prm

>  <SCORE>
-37.5806

>  <SCORE.INTER>
-31.4712

>  <SCORE.INTER.CONST>
1

>  <SCORE.INTER.POLAR>
-0.543105

>  <SCORE.INTER.ROT>
5

>  <SCORE.INTER.SOLV>
10.1742

>  <SCORE.INTER.VDW>
-29.4952

>  <SCORE.INTER.norm>
-1.36831

>  <SCORE.INTRA>
-6.1094

>  <SCORE.INTRA.DIHEDRAL>
-3.93012

>  <SCORE.INTRA.DIHEDRAL.0>
8.06479

>  <SCORE.INTRA.POLAR>
-1.20744

>  <SCORE.INTRA.POLAR.0>
0

>  <SCORE.INTRA.REPUL>
0

>  <SCORE.INTRA.REPUL.0>
0

>  <SCORE.INTRA.SOLV>
10.2828

>  <SCORE.INTRA.SOLV.lig_0>
-29.8054

>  <SCORE.INTRA.VDW>
-5.18046

>  <SCORE.INTRA.VDW.0>
2.61447

>  <SCORE.INTRA.norm>
-0.265626

>  <SCORE.RESTR>
0

>  <SCORE.RESTR.CAVITY>
0

>  <SCORE.RESTR.norm>
0

>  <SCORE.SYSTEM>
0

>  <SCORE.SYSTEM.CONST>
0

>  <SCORE.SYSTEM.DIHEDRAL>
0

>  <SCORE.SYSTEM.SOLV>
0

>  <SCORE.SYSTEM.norm>
0

>  <SCORE.heavy>
23

>  <SCORE.norm>
-1.63394

>  <RMSD>
6.946

$$$$

 OpenBabel11021811403D
libRbt.so/2013.1/901 2013/11/27
 23 25  0  0  0  0  0  0  0  0999 V2000
  -25.6249    8.3628    9.5867 S   0  0  0  0  0  0  0  0  0  0  0  0
  -22.9743    7.0874   10.0518 N   0  0  0  0  0  0  0  0  0  0  0  0
  -22.1865    7.2098    7.7762 C   0  0  0  0  0  0  0  0  0  0  0  0
  -22.4135    7.5952    6.4483 C   0  0  0  0  0  0  0  0  0  0  0  0
  -23.6084    8.2133    6.0924 C   0  0  0  0  0  0  0  0  0  0  0  0
  -24.5831    8.4457    7.0567 C   0  0  0  0  0  0  0  0  0  0  0  0
  -24.3694    8.0647    8.3789 C   0  0  0  0  0  0  0  0  0  0  0  0
  -23.1696    7.4446    8.7478 C   0  0  0  0  0  0  0  0  0  0  0  0
  -25.3279    6.8047   10.3606 C   0  0  0  0  0  0  0  0  0  0  0  0
  -26.3997    6.0392   10.8291 C   0  0  0  0  0  0  0  0  0  0  0  0
  -26.1599    4.8080   11.4459 C   0  0  0  0  0  0  0  0  0  0  0  0
  -24.8475    4.3481   11.5960 C   0  0  0  0  0  0  0  0  0  0  0  0
  -23.7823    5.1176   11.1268 C   0  0  0  0  0  0  0  0  0  0  0  0
  -24.0168    6.3387   10.5098 C   0  0  0  0  0  0  0  0  0  0  0  0
  -21.6054    6.8080   10.5521 C   0  0  0  0  0  0  0  0  0  0  0  0
  -21.2371    7.3602   11.9696 C   0  0  0  0  0  0  0  0  0  0  0  0
  -22.0817    6.7240   13.1261 C   0  0  0  0  0  0  0  0  0  0  0  0
  -21.5109    5.5472   13.8298 N   0  3  0  0  0  0  0  0  0  0  0  0
  -21.2494    4.4261   12.8905 C   0  0  0  0  0  0  0  0  0  0  0  0
  -22.4033    5.1244   14.9642 C   0  0  0  0  0  0  0  0  0  0  0  0
  -21.3713    7.3409    5.3968 C   0  0  0  0  0  0  0  0  0  0  0  0
  -21.4068    8.0296    4.0540 C   0  0  0  0  0  0  0  0  0  0  0  0
  -20.4326    6.6028    5.6501 O   0  0  0  0  0  0  0  0  0  0  0  0
  1  7  1  0  0  0  0
  1  9  1  0  0  0  0
  2  8  1  0  0  0  0
  2 14  1  0  0  0  0
  2 15  1  0  0  0  0
  3  4  2  0  0  0  0
  3  8  1  0  0  0  0
  4  5  1  0  0  0  0
  4 21  1  0  0  0  0
  5  6  2  0  0  0  0
  6  7  1  0  0  0  0
  7  8  2  0  0  0  0
  9 10  2  0  0  0  0
  9 14  1  0  0  0  0
 10 11  1  0  0  0  0
 11 12  2  0  0  0  0
 12 13  1  0  0  0  0
 13 14  2  0  0  0  0
 15 16  1  0  0  0  0
 16 17  1  0  0  0  0
 17 18  1  0  0  0  0
 18 19  1  0  0  0  0
 18 20  1  0  0  0  0
 21 22  1  0  0  0  0
 21 23  2  0  0  0  0
M  CHG  1  18   1
M  END
>  <CHROM.1>
138.54604506,-164.31338139,64.33764193,93.88815587,61.00333028,-23.22198235
6.75702237,9.72106566,1.49026660,0.14018429,-1.24651232

>  <Name>


>  <RI>
0

>  <Rbt.Current_Directory>
/home/itssahil/PROJECTS/Mol_Feturizer/New_Systems/rnas/1lvj

>  <Rbt.Executable>
rbdock ($Id: //depot/dev/client3/rdock/2013.1/src/exe/rbdock.cxx#4 $)

>  <Rbt.Library>
libRbt.so (2013.1, Build901 2013/11/27)

>  <Rbt.Parameter_File>
/export/apps/rDock/src/rDock_2013.1_src/data/scripts/dock_solv.prm

>  <Rbt.Receptor>
prm/pocket_docking_4.prm

>  <SCORE>
-32.3654

>  <SCORE.INTER>
-29.1564

>  <SCORE.INTER.CONST>
1

>  <SCORE.INTER.POLAR>
0

>  <SCORE.INTER.ROT>
5

>  <SCORE.INTER.SOLV>
10.2238

>  <SCORE.INTER.VDW>
-29.7789

>  <SCORE.INTER.norm>
-1.26767

>  <SCORE.INTRA>
-3.20897

>  <SCORE.INTRA.DIHEDRAL>
-2.69107

>  <SCORE.INTRA.DIHEDRAL.0>
8.06479

>  <SCORE.INTRA.POLAR>
0

>  <SCORE.INTRA.POLAR.0>
0

>  <SCORE.INTRA.REPUL>
0

>  <SCORE.INTRA.REPUL.0>
0

>  <SCORE.INTRA.SOLV>
0.83492

>  <SCORE.INTRA.SOLV.lig_0>
-29.8054

>  <SCORE.INTRA.VDW>
-2.2809

>  <SCORE.INTRA.VDW.0>
2.61447

>  <SCORE.INTRA.norm>
-0.139521

>  <SCORE.RESTR>
0

>  <SCORE.RESTR.CAVITY>
0

>  <SCORE.RESTR.norm>
0

>  <SCORE.SYSTEM>
0

>  <SCORE.SYSTEM.CONST>
0

>  <SCORE.SYSTEM.DIHEDRAL>
0

>  <SCORE.SYSTEM.SOLV>
0

>  <SCORE.SYSTEM.norm>
0

>  <SCORE.heavy>
23

>  <SCORE.norm>
-1.40719

>  <RMSD>
6.960

$$$$

 OpenBabel11021811403D
libRbt.so/2013.1/901 2013/11/27
 23 25  0  0  0  0  0  0  0  0999 V2000
  -26.2686    7.8367    9.5898 S   0  0  0  0  0  0  0  0  0  0  0  0
  -23.4606    7.1619   10.3170 N   0  0  0  0  0  0  0  0  0  0  0  0
  -22.5444    7.2803    8.0897 C   0  0  0  0  0  0  0  0  0  0  0  0
  -22.7429    7.5166    6.7230 C   0  0  0  0  0  0  0  0  0  0  0  0
  -24.0063    7.8526    6.2462 C   0  0  0  0  0  0  0  0  0  0  0  0
  -25.0772    7.9499    7.1280 C   0  0  0  0  0  0  0  0  0  0  0  0
  -24.8920    7.7148    8.4880 C   0  0  0  0  0  0  0  0  0  0  0  0
  -23.6244    7.3788    8.9782 C   0  0  0  0  0  0  0  0  0  0  0  0
  -25.7283    6.4300   10.5087 C   0  0  0  0  0  0  0  0  0  0  0  0
  -26.6597    5.4980   10.9758 C   0  0  0  0  0  0  0  0  0  0  0  0
  -26.2281    4.3879   11.7074 C   0  0  0  0  0  0  0  0  0  0  0  0
  -24.8657    4.2158   11.9732 C   0  0  0  0  0  0  0  0  0  0  0  0
  -23.9415    5.1503   11.5046 C   0  0  0  0  0  0  0  0  0  0  0  0
  -24.3658    6.2515   10.7740 C   0  0  0  0  0  0  0  0  0  0  0  0
  -22.1049    7.2023   10.9192 C   0  0  0  0  0  0  0  0  0  0  0  0
  -21.3256    5.8482   11.0142 C   0  0  0  0  0  0  0  0  0  0  0  0
  -21.1858    5.3099   12.4791 C   0  0  0  0  0  0  0  0  0  0  0  0
  -20.5971    3.9590   12.6640 N   0  3  0  0  0  0  0  0  0  0  0  0
  -21.4139    2.9136   11.9950 C   0  0  0  0  0  0  0  0  0  0  0  0
  -20.4034    3.6613   14.1255 C   0  0  0  0  0  0  0  0  0  0  0  0
  -21.5952    7.4053    5.7602 C   0  0  0  0  0  0  0  0  0  0  0  0
  -21.5665    8.1713    4.4598 C   0  0  0  0  0  0  0  0  0  0  0  0
  -20.6271    6.7242    6.0585 O   0  0  0  0  0  0  0  0  0  0  0  0
  1  7  1  0  0  0  0
  1  9  1  0  0  0  0
  2  8  1  0  0  0  0
  2 14  1  0  0  0  0
  2 15  1  0  0  0  0
  3  4  2  0  0  0  0
  3  8  1  0  0  0  0
  4  5  1  0  0  0  0
  4 21  1  0  0  0  0
  5  6  2  0  0  0  0
  6  7  1  0  0  0  0
  7  8  2  0  0  0  0
  9 10  2  0  0  0  0
  9 14  1  0  0  0  0
 10 11  1  0  0  0  0
 11 12  2  0  0  0  0
 12 13  1  0  0  0  0
 13 14  2  0  0  0  0
 15 16  1  0  0  0  0
 16 17  1  0  0  0  0
 17 18  1  0  0  0  0
 18 19  1  0  0  0  0
 18 20  1  0  0  0  0
 21 22  1  0  0  0  0
 21 23  2  0  0  0  0
M  CHG  1  18   1
M  END
>  <CHROM.1>
-92.02993554,-153.60399022,-109.30952353,173.31857966,58.86056113,-23.33651792
6.29625250,9.70138254,1.69326376,0.21769083,-1.07837242

>  <Name>


>  <RI>
0

>  <Rbt.Current_Directory>
/home/itssahil/PROJECTS/Mol_Feturizer/New_Systems/rnas/1lvj

>  <Rbt.Executable>
rbdock ($Id: //depot/dev/client3/rdock/2013.1/src/exe/rbdock.cxx#4 $)

>  <Rbt.Library>
libRbt.so (2013.1, Build901 2013/11/27)

>  <Rbt.Parameter_File>
/export/apps/rDock/src/rDock_2013.1_src/data/scripts/dock_solv.prm

>  <Rbt.Receptor>
prm/pocket_docking_5.prm

>  <SCORE>
-25.7033

>  <SCORE.INTER>
-26.5396

>  <SCORE.INTER.CONST>
1

>  <SCORE.INTER.POLAR>
0

>  <SCORE.INTER.ROT>
5

>  <SCORE.INTER.SOLV>
10.726

>  <SCORE.INTER.VDW>
-28.2017

>  <SCORE.INTER.norm>
-1.1539

>  <SCORE.INTRA>
0.836316

>  <SCORE.INTRA.DIHEDRAL>
0.225303

>  <SCORE.INTRA.DIHEDRAL.0>
8.06479

>  <SCORE.INTRA.POLAR>
0

>  <SCORE.INTRA.POLAR.0>
0

>  <SCORE.INTRA.REPUL>
0

>  <SCORE.INTRA.REPUL.0>
0

>  <SCORE.INTRA.SOLV>
0.353722

>  <SCORE.INTRA.SOLV.lig_0>
-29.8054

>  <SCORE.INTRA.VDW>
0.546803

>  <SCORE.INTRA.VDW.0>
2.61447

>  <SCORE.INTRA.norm>
0.0363616

>  <SCORE.RESTR>
0

>  <SCORE.RESTR.CAVITY>
0

>  <SCORE.RESTR.norm>
0

>  <SCORE.SYSTEM>
0

>  <SCORE.SYSTEM.CONST>
0

>  <SCORE.SYSTEM.DIHEDRAL>
0

>  <SCORE.SYSTEM.SOLV>
0

>  <SCORE.SYSTEM.norm>
0

>  <SCORE.heavy>
23

>  <SCORE.norm>
-1.11753

>  <RMSD>
6.962

$$$$

 OpenBabel11021811403D
libRbt.so/2013.1/901 2013/11/27
 23 25  0  0  0  0  0  0  0  0999 V2000
  -26.0330    8.2418   10.0665 S   0  0  0  0  0  0  0  0  0  0  0  0
  -23.3127    7.0397   10.2207 N   0  0  0  0  0  0  0  0  0  0  0  0
  -22.7002    7.4034    7.9171 C   0  0  0  0  0  0  0  0  0  0  0  0
  -23.0380    7.8996    6.6511 C   0  0  0  0  0  0  0  0  0  0  0  0
  -24.2766    8.4979    6.4404 C   0  0  0  0  0  0  0  0  0  0  0  0
  -25.1847    8.6001    7.4886 C   0  0  0  0  0  0  0  0  0  0  0  0
  -24.8607    8.1082    8.7504 C   0  0  0  0  0  0  0  0  0  0  0  0
  -23.6162    7.5070    8.9735 C   0  0  0  0  0  0  0  0  0  0  0  0
  -25.6259    6.6327   10.6664 C   0  0  0  0  0  0  0  0  0  0  0  0
  -26.6330    5.7837   11.1345 C   0  0  0  0  0  0  0  0  0  0  0  0
  -26.3057    4.5120   11.6135 C   0  0  0  0  0  0  0  0  0  0  0  0
  -24.9707    4.0949   11.6265 C   0  0  0  0  0  0  0  0  0  0  0  0
  -23.9704    4.9476   11.1585 C   0  0  0  0  0  0  0  0  0  0  0  0
  -24.2919    6.2096   10.6780 C   0  0  0  0  0  0  0  0  0  0  0  0
  -21.9017    6.7723   10.5947 C   0  0  0  0  0  0  0  0  0  0  0  0
  -21.4213    7.2965   11.9891 C   0  0  0  0  0  0  0  0  0  0  0  0
  -22.3731    6.8967   13.1679 C   0  0  0  0  0  0  0  0  0  0  0  0
  -21.9927    5.7219   13.9931 N   0  3  0  0  0  0  0  0  0  0  0  0
  -21.8202    4.5045   13.1591 C   0  0  0  0  0  0  0  0  0  0  0  0
  -22.9926    5.5028   15.0950 C   0  0  0  0  0  0  0  0  0  0  0  0
  -22.0683    7.7864    5.5094 C   0  0  0  0  0  0  0  0  0  0  0  0
  -20.9509    6.7715    5.5081 C   0  0  0  0  0  0  0  0  0  0  0  0
  -22.2181    8.4917    4.5243 O   0  0  0  0  0  0  0  0  0  0  0  0
  1  7  1  0  0  0  0
  1  9  1  0  0  0  0
  2  8  1  0  0  0  0
  2 14  1  0  0  0  0
  2 15  1  0  0  0  0
  3  4  2  0  0  0  0
  3  8  1  0  0  0  0
  4  5  1  0  0  0  0
  4 21  1  0  0  0  0
  5  6  2  0  0  0  0
  6  7  1  0  0  0  0
  7  8  2  0  0  0  0
  9 10  2  0  0  0  0
  9 14  1  0  0  0  0
 10 11  1  0  0  0  0
 11 12  2  0  0  0  0
 12 13  1  0  0  0  0
 13 14  2  0  0  0  0
 15 16  1  0  0  0  0
 16 17  1  0  0  0  0
 17 18  1  0  0  0  0
 18 19  1  0  0  0  0
 18 20  1  0  0  0  0
 21 22  1  0  0  0  0
 21 23  2  0  0  0  0
M  CHG  1  18   1
M  END
>  <CHROM.1>
134.34535140,21.28207870,50.10092602,98.76528308,63.36629641,-23.65338014
6.81630734,9.92614434,1.51030222,0.08422336,-1.21915252

>  <Name>


>  <RI>
0

>  <Rbt.Current_Directory>
/home/itssahil/PROJECTS/Mol_Feturizer/New_Systems/rnas/1lvj

>  <Rbt.Executable>
rbdock ($Id: //depot/dev/client3/rdock/2013.1/src/exe/rbdock.cxx#4 $)

>  <Rbt.Library>
libRbt.so (2013.1, Build901 2013/11/27)

>  <Rbt.Parameter_File>
/export/apps/rDock/src/rDock_2013.1_src/data/scripts/dock_solv.prm

>  <Rbt.Receptor>
prm/pocket_docking_3.prm

>  <SCORE>
-29.9529

>  <SCORE.INTER>
-28.5125

>  <SCORE.INTER.CONST>
1

>  <SCORE.INTER.POLAR>
-0.578179

>  <SCORE.INTER.ROT>
5

>  <SCORE.INTER.SOLV>
9.81875

>  <SCORE.INTER.VDW>
-27.2873

>  <SCORE.INTER.norm>
-1.23967

>  <SCORE.INTRA>
-2.01922

>  <SCORE.INTRA.DIHEDRAL>
-0.818542

>  <SCORE.INTRA.DIHEDRAL.0>
8.06479

>  <SCORE.INTRA.POLAR>
0

>  <SCORE.INTRA.POLAR.0>
0

>  <SCORE.INTRA.REPUL>
0

>  <SCORE.INTRA.REPUL.0>
0

>  <SCORE.INTRA.SOLV>
0.77859

>  <SCORE.INTRA.SOLV.lig_0>
-29.8054

>  <SCORE.INTRA.VDW>
-1.99924

>  <SCORE.INTRA.VDW.0>
2.61447

>  <SCORE.INTRA.norm>
-0.087792

>  <SCORE.RESTR>
0.57879

>  <SCORE.RESTR.CAVITY>
0.57879

>  <SCORE.RESTR.norm>
0.0251648

>  <SCORE.SYSTEM>
0

>  <SCORE.SYSTEM.CONST>
0

>  <SCORE.SYSTEM.DIHEDRAL>
0

>  <SCORE.SYSTEM.SOLV>
0

>  <SCORE.SYSTEM.norm>
0

>  <SCORE.heavy>
23

>  <SCORE.norm>
-1.3023

>  <RMSD>
6.967

$$$$

 OpenBabel11021811403D
libRbt.so/2013.1/901 2013/11/27
 23 25  0  0  0  0  0  0  0  0999 V2000
  -25.6299    8.3940    9.5026 S   0  0  0  0  0  0  0  0  0  0  0  0
  -22.9935    7.1033   10.0052 N   0  0  0  0  0  0  0  0  0  0  0  0
  -22.1784    7.2088    7.7384 C   0  0  0  0  0  0  0  0  0  0  0  0
  -22.3872    7.5887    6.4060 C   0  0  0  0  0  0  0  0  0  0  0  0
  -23.5737    8.2130    6.0330 C   0  0  0  0  0  0  0  0  0  0  0  0
  -24.5580    8.4568    6.9846 C   0  0  0  0  0  0  0  0  0  0  0  0
  -24.3624    8.0812    8.3112 C   0  0  0  0  0  0  0  0  0  0  0  0
  -23.1711    7.4551    8.6973 C   0  0  0  0  0  0  0  0  0  0  0  0
  -25.3524    6.8379   10.2879 C   0  0  0  0  0  0  0  0  0  0  0  0
  -26.4347    6.0820   10.7476 C   0  0  0  0  0  0  0  0  0  0  0  0
  -26.2104    4.8525   11.3735 C   0  0  0  0  0  0  0  0  0  0  0  0
  -24.9030    4.3846   11.5413 C   0  0  0  0  0  0  0  0  0  0  0  0
  -23.8272    5.1446   11.0807 C   0  0  0  0  0  0  0  0  0  0  0  0
  -24.0462    6.3640   10.4548 C   0  0  0  0  0  0  0  0  0  0  0  0
  -21.6325    6.8175   10.5230 C   0  0  0  0  0  0  0  0  0  0  0  0
  -21.4087    6.9701   12.0646 C   0  0  0  0  0  0  0  0  0  0  0  0
  -20.4907    5.8568   12.6753 C   0  0  0  0  0  0  0  0  0  0  0  0
  -21.0224    4.4706   12.7166 N   0  3  0  0  0  0  0  0  0  0  0  0
  -22.0738    4.3222   13.7558 C   0  0  0  0  0  0  0  0  0  0  0  0
  -19.9066    3.4810   12.9106 C   0  0  0  0  0  0  0  0  0  0  0  0
  -21.3346    7.3221    5.3681 C   0  0  0  0  0  0  0  0  0  0  0  0
  -21.3384    8.0191    4.0292 C   0  0  0  0  0  0  0  0  0  0  0  0
  -20.4128    6.5660    5.6304 O   0  0  0  0  0  0  0  0  0  0  0  0
  1  7  1  0  0  0  0
  1  9  1  0  0  0  0
  2  8  1  0  0  0  0
  2 14  1  0  0  0  0
  2 15  1  0  0  0  0
  3  4  2  0  0  0  0
  3  8  1  0  0  0  0
  4  5  1  0  0  0  0
  4 21  1  0  0  0  0
  5  6  2  0  0  0  0
  6  7  1  0  0  0  0
  7  8  2  0  0  0  0
  9 10  2  0  0  0  0
  9 14  1  0  0  0  0
 10 11  1  0  0  0  0
 11 12  2  0  0  0  0
 12 13  1  0  0  0  0
 13 14  2  0  0  0  0
 15 16  1  0  0  0  0
 16 17  1  0  0  0  0
 17 18  1  0  0  0  0
 18 19  1  0  0  0  0
 18 20  1  0  0  0  0
 21 22  1  0  0  0  0
 21 23  2  0  0  0  0
M  CHG  1  18   1
M  END
>  <CHROM.1>
156.82749226,-163.40361549,140.35191718,-68.34640963,46.96575352,-23.06843717
6.58251914,9.55406973,1.60729129,0.24427109,-1.15029823

>  <Name>


>  <RI>
0

>  <Rbt.Current_Directory>
/home/itssahil/PROJECTS/Mol_Feturizer/New_Systems/rnas/1lvj

>  <Rbt.Executable>
rbdock ($Id: //depot/dev/client3/rdock/2013.1/src/exe/rbdock.cxx#4 $)

>  <Rbt.Library>
libRbt.so (2013.1, Build901 2013/11/27)

>  <Rbt.Parameter_File>
/export/apps/rDock/src/rDock_2013.1_src/data/scripts/dock_solv.prm

>  <Rbt.Receptor>
prm/pocket_docking_5.prm

>  <SCORE>
-30.6693

>  <SCORE.INTER>
-29.0473

>  <SCORE.INTER.CONST>
1

>  <SCORE.INTER.POLAR>
0

>  <SCORE.INTER.ROT>
5

>  <SCORE.INTER.SOLV>
11.8097

>  <SCORE.INTER.VDW>
-30.2348

>  <SCORE.INTER.norm>
-1.26292

>  <SCORE.INTRA>
-1.62929

>  <SCORE.INTRA.DIHEDRAL>
-1.93885

>  <SCORE.INTRA.DIHEDRAL.0>
8.06479

>  <SCORE.INTRA.POLAR>
0

>  <SCORE.INTRA.POLAR.0>
0

>  <SCORE.INTRA.REPUL>
0

>  <SCORE.INTRA.REPUL.0>
0

>  <SCORE.INTRA.SOLV>
4.8245

>  <SCORE.INTRA.SOLV.lig_0>
-29.8054

>  <SCORE.INTRA.VDW>
-3.07211

>  <SCORE.INTRA.VDW.0>
2.61447

>  <SCORE.INTRA.norm>
-0.0708387

>  <SCORE.RESTR>
0.00728903

>  <SCORE.RESTR.CAVITY>
0.00728903

>  <SCORE.RESTR.norm>
0.000316914

>  <SCORE.SYSTEM>
0

>  <SCORE.SYSTEM.CONST>
0

>  <SCORE.SYSTEM.DIHEDRAL>
0

>  <SCORE.SYSTEM.SOLV>
0

>  <SCORE.SYSTEM.norm>
0

>  <SCORE.heavy>
23

>  <SCORE.norm>
-1.33345

>  <RMSD>
6.968

$$$$

 OpenBabel11021811403D
libRbt.so/2013.1/901 2013/11/27
 23 25  0  0  0  0  0  0  0  0999 V2000
  -26.7467    7.2513    9.1520 S   0  0  0  0  0  0  0  0  0  0  0  0
  -23.8523    7.1923    9.8505 N   0  0  0  0  0  0  0  0  0  0  0  0
  -23.0039    7.3770    7.6010 C   0  0  0  0  0  0  0  0  0  0  0  0
  -23.2614    7.4978    6.2291 C   0  0  0  0  0  0  0  0  0  0  0  0
  -24.5719    7.5483    5.7637 C   0  0  0  0  0  0  0  0  0  0  0  0
  -25.6304    7.4741    6.6626 C   0  0  0  0  0  0  0  0  0  0  0  0
  -25.3863    7.3515    8.0281 C   0  0  0  0  0  0  0  0  0  0  0  0
  -24.0716    7.3025    8.5067 C   0  0  0  0  0  0  0  0  0  0  0  0
  -25.9237    6.0310   10.1259 C   0  0  0  0  0  0  0  0  0  0  0  0
  -26.6428    4.9565   10.6574 C   0  0  0  0  0  0  0  0  0  0  0  0
  -25.9881    3.9949   11.4324 C   0  0  0  0  0  0  0  0  0  0  0  0
  -24.6161    4.1136   11.6769 C   0  0  0  0  0  0  0  0  0  0  0  0
  -23.9045    5.1891   11.1440 C   0  0  0  0  0  0  0  0  0  0  0  0
  -24.5503    6.1436   10.3703 C   0  0  0  0  0  0  0  0  0  0  0  0
  -22.5259    7.5350   10.4209 C   0  0  0  0  0  0  0  0  0  0  0  0
  -21.5092    6.3614   10.6184 C   0  0  0  0  0  0  0  0  0  0  0  0
  -20.9387    6.2683   12.0748 C   0  0  0  0  0  0  0  0  0  0  0  0
  -21.8970    6.4074   13.2009 N   0  3  0  0  0  0  0  0  0  0  0  0
  -21.5911    7.6011   14.0310 C   0  0  0  0  0  0  0  0  0  0  0  0
  -21.9299    5.1508   14.0265 C   0  0  0  0  0  0  0  0  0  0  0  0
  -22.1258    7.5696    5.2484 C   0  0  0  0  0  0  0  0  0  0  0  0
  -20.8695    6.7504    5.4196 C   0  0  0  0  0  0  0  0  0  0  0  0
  -22.2395    8.2630    4.2502 O   0  0  0  0  0  0  0  0  0  0  0  0
  1  7  1  0  0  0  0
  1  9  1  0  0  0  0
  2  8  1  0  0  0  0
  2 14  1  0  0  0  0
  2 15  1  0  0  0  0
  3  4  2  0  0  0  0
  3  8  1  0  0  0  0
  4  5  1  0  0  0  0
  4 21  1  0  0  0  0
  5  6  2  0  0  0  0
  6  7  1  0  0  0  0
  7  8  2  0  0  0  0
  9 10  2  0  0  0  0
  9 14  1  0  0  0  0
 10 11  1  0  0  0  0
 11 12  2  0  0  0  0
 12 13  1  0  0  0  0
 13 14  2  0  0  0  0
 15 16  1  0  0  0  0
 16 17  1  0  0  0  0
 17 18  1  0  0  0  0
 18 19  1  0  0  0  0
 18 20  1  0  0  0  0
 21 22  1  0  0  0  0
 21 23  2  0  0  0  0
M  CHG  1  18   1
M  END
>  <CHROM.1>
-94.44224551,37.95218916,-126.65423008,44.58633236,2.78151623,-23.73382355
6.62748452,9.44558978,1.62686367,-0.16879401,-1.30586113

>  <Name>


>  <RI>
0

>  <Rbt.Current_Directory>
/home/itssahil/PROJECTS/Mol_Feturizer/New_Systems/rnas/1lvj

>  <Rbt.Executable>
rbdock ($Id: //depot/dev/client3/rdock/2013.1/src/exe/rbdock.cxx#4 $)

>  <Rbt.Library>
libRbt.so (2013.1, Build901 2013/11/27)

>  <Rbt.Parameter_File>
/export/apps/rDock/src/rDock_2013.1_src/data/scripts/dock_solv.prm

>  <Rbt.Receptor>
prm/pocket_docking_3.prm

>  <SCORE>
-16.5371

>  <SCORE.INTER>
-23.5521

>  <SCORE.INTER.CONST>
1

>  <SCORE.INTER.POLAR>
-0.517578

>  <SCORE.INTER.ROT>
5

>  <SCORE.INTER.SOLV>
10.7539

>  <SCORE.INTER.VDW>
-24.4941

>  <SCORE.INTER.norm>
-1.02401

>  <SCORE.INTRA>
6.38543

>  <SCORE.INTRA.DIHEDRAL>
7.0737

>  <SCORE.INTRA.DIHEDRAL.0>
8.06479

>  <SCORE.INTRA.POLAR>
0

>  <SCORE.INTRA.POLAR.0>
0

>  <SCORE.INTRA.REPUL>
0

>  <SCORE.INTRA.REPUL.0>
0

>  <SCORE.INTRA.SOLV>
6.78826

>  <SCORE.INTRA.SOLV.lig_0>
-29.8054

>  <SCORE.INTRA.VDW>
-0.545548

>  <SCORE.INTRA.VDW.0>
2.61447

>  <SCORE.INTRA.norm>
0.277627

>  <SCORE.RESTR>
0.629599

>  <SCORE.RESTR.CAVITY>
0.629599

>  <SCORE.RESTR.norm>
0.0273739

>  <SCORE.SYSTEM>
0

>  <SCORE.SYSTEM.CONST>
0

>  <SCORE.SYSTEM.DIHEDRAL>
0

>  <SCORE.SYSTEM.SOLV>
0

>  <SCORE.SYSTEM.norm>
0

>  <SCORE.heavy>
23

>  <SCORE.norm>
-0.719005

>  <RMSD>
6.970

$$$$

 OpenBabel11021811403D
libRbt.so/2013.1/901 2013/11/27
 23 25  0  0  0  0  0  0  0  0999 V2000
  -25.6063    8.3658    9.6016 S   0  0  0  0  0  0  0  0  0  0  0  0
  -22.9548    7.0930   10.0697 N   0  0  0  0  0  0  0  0  0  0  0  0
  -22.1729    7.1978    7.7911 C   0  0  0  0  0  0  0  0  0  0  0  0
  -22.4032    7.5730    6.4610 C   0  0  0  0  0  0  0  0  0  0  0  0
  -23.5988    8.1888    6.1035 C   0  0  0  0  0  0  0  0  0  0  0  0
  -24.5709    8.4289    7.0684 C   0  0  0  0  0  0  0  0  0  0  0  0
  -24.3539    8.0579    8.3930 C   0  0  0  0  0  0  0  0  0  0  0  0
  -23.1534    7.4403    8.7635 C   0  0  0  0  0  0  0  0  0  0  0  0
  -25.3078    6.8135   10.3867 C   0  0  0  0  0  0  0  0  0  0  0  0
  -26.3786    6.0520   10.8638 C   0  0  0  0  0  0  0  0  0  0  0  0
  -26.1375    4.8255   11.4894 C   0  0  0  0  0  0  0  0  0  0  0  0
  -24.8249    4.3663   11.6396 C   0  0  0  0  0  0  0  0  0  0  0  0
  -23.7606    5.1318   11.1618 C   0  0  0  0  0  0  0  0  0  0  0  0
  -23.9963    6.3482   10.5361 C   0  0  0  0  0  0  0  0  0  0  0  0
  -21.5848    6.8171   10.5686 C   0  0  0  0  0  0  0  0  0  0  0  0
  -21.2172    7.3681   11.9868 C   0  0  0  0  0  0  0  0  0  0  0  0
  -22.0625    6.7312   13.1422 C   0  0  0  0  0  0  0  0  0  0  0  0
  -21.4924    5.5537   13.8453 N   0  3  0  0  0  0  0  0  0  0  0  0
  -21.2099    4.4412   12.9018 C   0  0  0  0  0  0  0  0  0  0  0  0
  -22.3968    5.1162   14.9645 C   0  0  0  0  0  0  0  0  0  0  0  0
  -21.3638    7.3103    5.4087 C   0  0  0  0  0  0  0  0  0  0  0  0
  -21.3877    8.0084    4.0705 C   0  0  0  0  0  0  0  0  0  0  0  0
  -20.4363    6.5569    5.6580 O   0  0  0  0  0  0  0  0  0  0  0  0
  1  7  1  0  0  0  0
  1  9  1  0  0  0  0
  2  8  1  0  0  0  0
  2 14  1  0  0  0  0
  2 15  1  0  0  0  0
  3  4  2  0  0  0  0
  3  8  1  0  0  0  0
  4  5  1  0  0  0  0
  4 21  1  0  0  0  0
  5  6  2  0  0  0  0
  6  7  1  0  0  0  0
  7  8  2  0  0  0  0
  9 10  2  0  0  0  0
  9 14  1  0  0  0  0
 10 11  1  0  0  0  0
 11 12  2  0  0  0  0
 12 13  1  0  0  0  0
 13 14  2  0  0  0  0
 15 16  1  0  0  0  0
 16 17  1  0  0  0  0
 17 18  1  0  0  0  0
 18 19  1  0  0  0  0
 18 20  1  0  0  0  0
 21 22  1  0  0  0  0
 21 23  2  0  0  0  0
M  CHG  1  18   1
M  END
>  <CHROM.1>
139.12271681,-163.13188521,64.12937503,93.88422227,61.94003319,-23.20493238
6.75469327,9.73949921,1.49085079,0.14617148,-1.25058561

>  <Name>


>  <RI>
0

>  <Rbt.Current_Directory>
/home/itssahil/PROJECTS/Mol_Feturizer/New_Systems/rnas/1lvj

>  <Rbt.Executable>
rbdock ($Id: //depot/dev/client3/rdock/2013.1/src/exe/rbdock.cxx#4 $)

>  <Rbt.Library>
libRbt.so (2013.1, Build901 2013/11/27)

>  <Rbt.Parameter_File>
/export/apps/rDock/src/rDock_2013.1_src/data/scripts/dock_solv.prm

>  <Rbt.Receptor>
prm/pocket_docking_4.prm

>  <SCORE>
-32.336

>  <SCORE.INTER>
-29.2379

>  <SCORE.INTER.CONST>
1

>  <SCORE.INTER.POLAR>
0

>  <SCORE.INTER.ROT>
5

>  <SCORE.INTER.SOLV>
10.1327

>  <SCORE.INTER.VDW>
-29.8029

>  <SCORE.INTER.norm>
-1.27121

>  <SCORE.INTRA>
-3.09807

>  <SCORE.INTRA.DIHEDRAL>
-2.59947

>  <SCORE.INTRA.DIHEDRAL.0>
8.06479

>  <SCORE.INTRA.POLAR>
0

>  <SCORE.INTRA.POLAR.0>
0

>  <SCORE.INTRA.REPUL>
0

>  <SCORE.INTRA.REPUL.0>
0

>  <SCORE.INTRA.SOLV>
0.81936

>  <SCORE.INTRA.SOLV.lig_0>
-29.8054

>  <SCORE.INTRA.VDW>
-2.20801

>  <SCORE.INTRA.VDW.0>
2.61447

>  <SCORE.INTRA.norm>
-0.134699

>  <SCORE.RESTR>
0

>  <SCORE.RESTR.CAVITY>
0

>  <SCORE.RESTR.norm>
0

>  <SCORE.SYSTEM>
0

>  <SCORE.SYSTEM.CONST>
0

>  <SCORE.SYSTEM.DIHEDRAL>
0

>  <SCORE.SYSTEM.SOLV>
0

>  <SCORE.SYSTEM.norm>
0

>  <SCORE.heavy>
23

>  <SCORE.norm>
-1.40591

>  <RMSD>
6.973

$$$$

 OpenBabel11021811403D
libRbt.so/2013.1/901 2013/11/27
 23 25  0  0  0  0  0  0  0  0999 V2000
  -26.0279    8.1994   10.0821 S   0  0  0  0  0  0  0  0  0  0  0  0
  -23.2984    7.0165   10.2222 N   0  0  0  0  0  0  0  0  0  0  0  0
  -22.6962    7.3950    7.9182 C   0  0  0  0  0  0  0  0  0  0  0  0
  -23.0418    7.8942    6.6555 C   0  0  0  0  0  0  0  0  0  0  0  0
  -24.2854    8.4844    6.4516 C   0  0  0  0  0  0  0  0  0  0  0  0
  -25.1908    8.5752    7.5031 C   0  0  0  0  0  0  0  0  0  0  0  0
  -24.8591    8.0802    8.7617 C   0  0  0  0  0  0  0  0  0  0  0  0
  -23.6094    7.4871    8.9780 C   0  0  0  0  0  0  0  0  0  0  0  0
  -25.6071    6.5907   10.6736 C   0  0  0  0  0  0  0  0  0  0  0  0
  -26.6064    5.7322   11.1412 C   0  0  0  0  0  0  0  0  0  0  0  0
  -26.2682    4.4608   11.6135 C   0  0  0  0  0  0  0  0  0  0  0  0
  -24.9302    4.0535   11.6203 C   0  0  0  0  0  0  0  0  0  0  0  0
  -23.9376    4.9156   11.1528 C   0  0  0  0  0  0  0  0  0  0  0  0
  -24.2700    6.1773   10.6790 C   0  0  0  0  0  0  0  0  0  0  0  0
  -21.8843    6.7579   10.5903 C   0  0  0  0  0  0  0  0  0  0  0  0
  -21.4036    7.2780   11.9861 C   0  0  0  0  0  0  0  0  0  0  0  0
  -22.3689    6.8976   13.1603 C   0  0  0  0  0  0  0  0  0  0  0  0
  -21.9945    5.7408   14.0133 N   0  3  0  0  0  0  0  0  0  0  0  0
  -21.8423    4.4999   13.2104 C   0  0  0  0  0  0  0  0  0  0  0  0
  -22.9876    5.5620   15.1286 C   0  0  0  0  0  0  0  0  0  0  0  0
  -22.0751    7.7932    5.5102 C   0  0  0  0  0  0  0  0  0  0  0  0
  -20.9653    6.7702    5.4895 C   0  0  0  0  0  0  0  0  0  0  0  0
  -22.2213    8.5162    4.5375 O   0  0  0  0  0  0  0  0  0  0  0  0
  1  7  1  0  0  0  0
  1  9  1  0  0  0  0
  2  8  1  0  0  0  0
  2 14  1  0  0  0  0
  2 15  1  0  0  0  0
  3  4  2  0  0  0  0
  3  8  1  0  0  0  0
  4  5  1  0  0  0  0
  4 21  1  0  0  0  0
  5  6  2  0  0  0  0
  6  7  1  0  0  0  0
  7  8  2  0  0  0  0
  9 10  2  0  0  0  0
  9 14  1  0  0  0  0
 10 11  1  0  0  0  0
 11 12  2  0  0  0  0
 12 13  1  0  0  0  0
 13 14  2  0  0  0  0
 15 16  1  0  0  0  0
 16 17  1  0  0  0  0
 17 18  1  0  0  0  0
 18 19  1  0  0  0  0
 18 20  1  0  0  0  0
 21 22  1  0  0  0  0
 21 23  2  0  0  0  0
M  CHG  1  18   1
M  END
>  <CHROM.1>
134.40859020,22.39572676,48.54499460,100.33647746,61.83814950,-23.64581260
6.80101347,9.93361115,1.51187383,0.07243134,-1.22076573

>  <Name>


>  <RI>
0

>  <Rbt.Current_Directory>
/home/itssahil/PROJECTS/Mol_Feturizer/New_Systems/rnas/1lvj

>  <Rbt.Executable>
rbdock ($Id: //depot/dev/client3/rdock/2013.1/src/exe/rbdock.cxx#4 $)

>  <Rbt.Library>
libRbt.so (2013.1, Build901 2013/11/27)

>  <Rbt.Parameter_File>
/export/apps/rDock/src/rDock_2013.1_src/data/scripts/dock_solv.prm

>  <Rbt.Receptor>
prm/pocket_docking_3.prm

>  <SCORE>
-29.9724

>  <SCORE.INTER>
-28.726

>  <SCORE.INTER.CONST>
1

>  <SCORE.INTER.POLAR>
-0.589659

>  <SCORE.INTER.ROT>
5

>  <SCORE.INTER.SOLV>
9.83742

>  <SCORE.INTER.VDW>
-27.3976

>  <SCORE.INTER.norm>
-1.24896

>  <SCORE.INTRA>
-1.86014

>  <SCORE.INTRA.DIHEDRAL>
-0.349502

>  <SCORE.INTRA.DIHEDRAL.0>
8.06479

>  <SCORE.INTRA.POLAR>
0

>  <SCORE.INTRA.POLAR.0>
0

>  <SCORE.INTRA.REPUL>
0

>  <SCORE.INTRA.REPUL.0>
0

>  <SCORE.INTRA.SOLV>
0.790243

>  <SCORE.INTRA.SOLV.lig_0>
-29.8054

>  <SCORE.INTRA.VDW>
-2.08051

>  <SCORE.INTRA.VDW.0>
2.61447

>  <SCORE.INTRA.norm>
-0.0808757

>  <SCORE.RESTR>
0.61367

>  <SCORE.RESTR.CAVITY>
0.61367

>  <SCORE.RESTR.norm>
0.0266813

>  <SCORE.SYSTEM>
0

>  <SCORE.SYSTEM.CONST>
0

>  <SCORE.SYSTEM.DIHEDRAL>
0

>  <SCORE.SYSTEM.SOLV>
0

>  <SCORE.SYSTEM.norm>
0

>  <SCORE.heavy>
23

>  <SCORE.norm>
-1.30315

>  <RMSD>
6.974

$$$$

 OpenBabel11021811403D
libRbt.so/2013.1/901 2013/11/27
 23 25  0  0  0  0  0  0  0  0999 V2000
  -25.5530    8.3989    9.2833 S   0  0  0  0  0  0  0  0  0  0  0  0
  -22.9013    7.1657    9.8460 N   0  0  0  0  0  0  0  0  0  0  0  0
  -22.0735    7.2041    7.5816 C   0  0  0  0  0  0  0  0  0  0  0  0
  -22.2794    7.5343    6.2356 C   0  0  0  0  0  0  0  0  0  0  0  0
  -23.4725    8.1276    5.8342 C   0  0  0  0  0  0  0  0  0  0  0  0
  -24.4662    8.3899    6.7709 C   0  0  0  0  0  0  0  0  0  0  0  0
  -24.2735    8.0636    8.1109 C   0  0  0  0  0  0  0  0  0  0  0  0
  -23.0758    7.4690    8.5255 C   0  0  0  0  0  0  0  0  0  0  0  0
  -25.2579    6.8754   10.1240 C   0  0  0  0  0  0  0  0  0  0  0  0
  -26.3319    6.1201   10.6036 C   0  0  0  0  0  0  0  0  0  0  0  0
  -26.0937    4.9165   11.2733 C   0  0  0  0  0  0  0  0  0  0  0  0
  -24.7807    4.4742   11.4649 C   0  0  0  0  0  0  0  0  0  0  0  0
  -23.7132    5.2334   10.9843 C   0  0  0  0  0  0  0  0  0  0  0  0
  -23.9460    6.4269   10.3149 C   0  0  0  0  0  0  0  0  0  0  0  0
  -21.5395    6.9181   10.3813 C   0  0  0  0  0  0  0  0  0  0  0  0
  -21.2877    7.2751   11.8843 C   0  0  0  0  0  0  0  0  0  0  0  0
  -21.8030    6.1809   12.8805 C   0  0  0  0  0  0  0  0  0  0  0  0
  -22.1182    6.6056   14.2684 N   0  3  0  0  0  0  0  0  0  0  0  0
  -22.4998    5.4479   15.1179 C   0  0  0  0  0  0  0  0  0  0  0  0
  -23.1821    7.6686   14.2681 C   0  0  0  0  0  0  0  0  0  0  0  0
  -21.2165    7.2473    5.2137 C   0  0  0  0  0  0  0  0  0  0  0  0
  -21.2290    7.8874    3.8467 C   0  0  0  0  0  0  0  0  0  0  0  0
  -20.2799    6.5229    5.5110 O   0  0  0  0  0  0  0  0  0  0  0  0
  1  7  1  0  0  0  0
  1  9  1  0  0  0  0
  2  8  1  0  0  0  0
  2 14  1  0  0  0  0
  2 15  1  0  0  0  0
  3  4  2  0  0  0  0
  3  8  1  0  0  0  0
  4  5  1  0  0  0  0
  4 21  1  0  0  0  0
  5  6  2  0  0  0  0
  6  7  1  0  0  0  0
  7  8  2  0  0  0  0
  9 10  2  0  0  0  0
  9 14  1  0  0  0  0
 10 11  1  0  0  0  0
 11 12  2  0  0  0  0
 12 13  1  0  0  0  0
 13 14  2  0  0  0  0
 15 16  1  0  0  0  0
 16 17  1  0  0  0  0
 17 18  1  0  0  0  0
 18 19  1  0  0  0  0
 18 20  1  0  0  0  0
 21 22  1  0  0  0  0
 21 23  2  0  0  0  0
M  CHG  1  18   1
M  END
>  <CHROM.1>
150.38954917,-163.97636925,80.30216111,-156.22634177,-55.96277215,-23.25680179
6.95641172,9.63069344,1.42680526,0.05312854,-1.37390923

>  <Name>


>  <RI>
0

>  <Rbt.Current_Directory>
/home/itssahil/PROJECTS/Mol_Feturizer/New_Systems/rnas/1lvj

>  <Rbt.Executable>
rbdock ($Id: //depot/dev/client3/rdock/2013.1/src/exe/rbdock.cxx#4 $)

>  <Rbt.Library>
libRbt.so (2013.1, Build901 2013/11/27)

>  <Rbt.Parameter_File>
/export/apps/rDock/src/rDock_2013.1_src/data/scripts/dock_solv.prm

>  <Rbt.Receptor>
prm/pocket_docking_4.prm

>  <SCORE>
-31.2973

>  <SCORE.INTER>
-28.3592

>  <SCORE.INTER.CONST>
1

>  <SCORE.INTER.POLAR>
0

>  <SCORE.INTER.ROT>
5

>  <SCORE.INTER.SOLV>
10.5613

>  <SCORE.INTER.VDW>
-29.3599

>  <SCORE.INTER.norm>
-1.23301

>  <SCORE.INTRA>
-2.95617

>  <SCORE.INTRA.DIHEDRAL>
-3.3128

>  <SCORE.INTRA.DIHEDRAL.0>
8.06479

>  <SCORE.INTRA.POLAR>
0

>  <SCORE.INTRA.POLAR.0>
0

>  <SCORE.INTRA.REPUL>
0

>  <SCORE.INTRA.REPUL.0>
0

>  <SCORE.INTRA.SOLV>
0.435361

>  <SCORE.INTRA.SOLV.lig_0>
-29.8054

>  <SCORE.INTRA.VDW>
-1.51746

>  <SCORE.INTRA.VDW.0>
2.61447

>  <SCORE.INTRA.norm>
-0.128529

>  <SCORE.RESTR>
0.0180609

>  <SCORE.RESTR.CAVITY>
0.0180609

>  <SCORE.RESTR.norm>
0.000785258

>  <SCORE.SYSTEM>
0

>  <SCORE.SYSTEM.CONST>
0

>  <SCORE.SYSTEM.DIHEDRAL>
0

>  <SCORE.SYSTEM.SOLV>
0

>  <SCORE.SYSTEM.norm>
0

>  <SCORE.heavy>
23

>  <SCORE.norm>
-1.36075

>  <RMSD>
6.975

$$$$

 OpenBabel11021811403D
libRbt.so/2013.1/901 2013/11/27
 23 25  0  0  0  0  0  0  0  0999 V2000
  -25.6431    8.3746    9.5351 S   0  0  0  0  0  0  0  0  0  0  0  0
  -23.0054    7.0788   10.0175 N   0  0  0  0  0  0  0  0  0  0  0  0
  -22.2020    7.1949    7.7470 C   0  0  0  0  0  0  0  0  0  0  0  0
  -22.4173    7.5818    6.4177 C   0  0  0  0  0  0  0  0  0  0  0  0
  -23.6051    8.2091    6.0540 C   0  0  0  0  0  0  0  0  0  0  0  0
  -24.5842    8.4491    7.0119 C   0  0  0  0  0  0  0  0  0  0  0  0
  -24.3821    8.0666    8.3355 C   0  0  0  0  0  0  0  0  0  0  0  0
  -23.1895    7.4374    8.7122 C   0  0  0  0  0  0  0  0  0  0  0  0
  -25.3631    6.8143   10.3110 C   0  0  0  0  0  0  0  0  0  0  0  0
  -26.4438    6.0571   10.7726 C   0  0  0  0  0  0  0  0  0  0  0  0
  -26.2174    4.8242   11.3911 C   0  0  0  0  0  0  0  0  0  0  0  0
  -24.9096    4.3543   11.5497 C   0  0  0  0  0  0  0  0  0  0  0  0
  -23.8355    5.1155   11.0874 C   0  0  0  0  0  0  0  0  0  0  0  0
  -24.0565    6.3383   10.4687 C   0  0  0  0  0  0  0  0  0  0  0  0
  -21.6420    6.7890   10.5267 C   0  0  0  0  0  0  0  0  0  0  0  0
  -21.3332    7.1897   12.0079 C   0  0  0  0  0  0  0  0  0  0  0  0
  -21.9504    6.2080   13.0617 C   0  0  0  0  0  0  0  0  0  0  0  0
  -22.6801    6.8006   14.2116 N   0  3  0  0  0  0  0  0  0  0  0  0
  -23.8883    7.5413   13.7655 C   0  0  0  0  0  0  0  0  0  0  0  0
  -21.7649    7.6714   15.0276 C   0  0  0  0  0  0  0  0  0  0  0  0
  -21.3704    7.3194    5.3729 C   0  0  0  0  0  0  0  0  0  0  0  0
  -21.4079    7.9863    4.0193 C   0  0  0  0  0  0  0  0  0  0  0  0
  -20.4263    6.5932    5.6403 O   0  0  0  0  0  0  0  0  0  0  0  0
  1  7  1  0  0  0  0
  1  9  1  0  0  0  0
  2  8  1  0  0  0  0
  2 14  1  0  0  0  0
  2 15  1  0  0  0  0
  3  4  2  0  0  0  0
  3  8  1  0  0  0  0
  4  5  1  0  0  0  0
  4 21  1  0  0  0  0
  5  6  2  0  0  0  0
  6  7  1  0  0  0  0
  7  8  2  0  0  0  0
  9 10  2  0  0  0  0
  9 14  1  0  0  0  0
 10 11  1  0  0  0  0
 11 12  2  0  0  0  0
 12 13  1  0  0  0  0
 13 14  2  0  0  0  0
 15 16  1  0  0  0  0
 16 17  1  0  0  0  0
 17 18  1  0  0  0  0
 18 19  1  0  0  0  0
 18 20  1  0  0  0  0
 21 22  1  0  0  0  0
 21 23  2  0  0  0  0
M  CHG  1  18   1
M  END
>  <CHROM.1>
145.54161363,-165.61643863,76.51517258,-132.89467564,-176.22993551,-23.38712217
7.03927748,9.75092552,1.40299014,-0.04583522,-1.42878585

>  <Name>


>  <RI>
0

>  <Rbt.Current_Directory>
/home/itssahil/PROJECTS/Mol_Feturizer/New_Systems/rnas/1lvj

>  <Rbt.Executable>
rbdock ($Id: //depot/dev/client3/rdock/2013.1/src/exe/rbdock.cxx#4 $)

>  <Rbt.Library>
libRbt.so (2013.1, Build901 2013/11/27)

>  <Rbt.Parameter_File>
/export/apps/rDock/src/rDock_2013.1_src/data/scripts/dock_solv.prm

>  <Rbt.Receptor>
prm/pocket_docking_4.prm

>  <SCORE>
-29.8098

>  <SCORE.INTER>
-28.4167

>  <SCORE.INTER.CONST>
1

>  <SCORE.INTER.POLAR>
0

>  <SCORE.INTER.ROT>
5

>  <SCORE.INTER.SOLV>
10.2545

>  <SCORE.INTER.VDW>
-29.2959

>  <SCORE.INTER.norm>
-1.23551

>  <SCORE.INTRA>
-2.18177

>  <SCORE.INTRA.DIHEDRAL>
-0.672339

>  <SCORE.INTRA.DIHEDRAL.0>
8.06479

>  <SCORE.INTRA.POLAR>
0

>  <SCORE.INTRA.POLAR.0>
0

>  <SCORE.INTRA.REPUL>
0

>  <SCORE.INTRA.REPUL.0>
0

>  <SCORE.INTRA.SOLV>
-0.0161882

>  <SCORE.INTRA.SOLV.lig_0>
-29.8054

>  <SCORE.INTRA.VDW>
-1.83751

>  <SCORE.INTRA.VDW.0>
2.61447

>  <SCORE.INTRA.norm>
-0.0948596

>  <SCORE.RESTR>
0.788592

>  <SCORE.RESTR.CAVITY>
0.788592

>  <SCORE.RESTR.norm>
0.0342866

>  <SCORE.SYSTEM>
0

>  <SCORE.SYSTEM.CONST>
0

>  <SCORE.SYSTEM.DIHEDRAL>
0

>  <SCORE.SYSTEM.SOLV>
0

>  <SCORE.SYSTEM.norm>
0

>  <SCORE.heavy>
23

>  <SCORE.norm>
-1.29608

>  <RMSD>
6.977

$$$$

 OpenBabel11021811403D
libRbt.so/2013.1/901 2013/11/27
 23 25  0  0  0  0  0  0  0  0999 V2000
  -26.4284    7.9008   10.8097 S   0  0  0  0  0  0  0  0  0  0  0  0
  -23.7469    6.6073   10.7355 N   0  0  0  0  0  0  0  0  0  0  0  0
  -23.1636    7.2702    8.4918 C   0  0  0  0  0  0  0  0  0  0  0  0
  -23.5071    7.9481    7.3146 C   0  0  0  0  0  0  0  0  0  0  0  0
  -24.7288    8.6071    7.2165 C   0  0  0  0  0  0  0  0  0  0  0  0
  -25.6145    8.5894    8.2885 C   0  0  0  0  0  0  0  0  0  0  0  0
  -25.2846    7.9167    9.4624 C   0  0  0  0  0  0  0  0  0  0  0  0
  -24.0568    7.2530    9.5722 C   0  0  0  0  0  0  0  0  0  0  0  0
  -26.0640    6.2121   11.1712 C   0  0  0  0  0  0  0  0  0  0  0  0
  -27.0901    5.3369   11.5390 C   0  0  0  0  0  0  0  0  0  0  0  0
  -26.7965    4.0015   11.8294 C   0  0  0  0  0  0  0  0  0  0  0  0
  -25.4760    3.5466   11.7549 C   0  0  0  0  0  0  0  0  0  0  0  0
  -24.4565    4.4257   11.3879 C   0  0  0  0  0  0  0  0  0  0  0  0
  -24.7447    5.7514   11.0945 C   0  0  0  0  0  0  0  0  0  0  0  0
  -22.3392    6.2479   11.0374 C   0  0  0  0  0  0  0  0  0  0  0  0
  -21.4858    7.3011   11.8200 C   0  0  0  0  0  0  0  0  0  0  0  0
  -21.7227    7.2700   13.3686 C   0  0  0  0  0  0  0  0  0  0  0  0
  -23.0919    7.5649   13.8627 N   0  3  0  0  0  0  0  0  0  0  0  0
  -23.9131    6.3304   13.9587 C   0  0  0  0  0  0  0  0  0  0  0  0
  -23.7529    8.6057   13.0013 C   0  0  0  0  0  0  0  0  0  0  0  0
  -22.5620    7.9662    6.1472 C   0  0  0  0  0  0  0  0  0  0  0  0
  -21.3832    7.0274    6.0592 C   0  0  0  0  0  0  0  0  0  0  0  0
  -22.7813    8.7178    5.2107 O   0  0  0  0  0  0  0  0  0  0  0  0
  1  7  1  0  0  0  0
  1  9  1  0  0  0  0
  2  8  1  0  0  0  0
  2 14  1  0  0  0  0
  2 15  1  0  0  0  0
  3  4  2  0  0  0  0
  3  8  1  0  0  0  0
  4  5  1  0  0  0  0
  4 21  1  0  0  0  0
  5  6  2  0  0  0  0
  6  7  1  0  0  0  0
  7  8  2  0  0  0  0
  9 10  2  0  0  0  0
  9 14  1  0  0  0  0
 10 11  1  0  0  0  0
 11 12  2  0  0  0  0
 12 13  1  0  0  0  0
 13 14  2  0  0  0  0
 15 16  1  0  0  0  0
 16 17  1  0  0  0  0
 17 18  1  0  0  0  0
 18 19  1  0  0  0  0
 18 20  1  0  0  0  0
 21 22  1  0  0  0  0
 21 23  2  0  0  0  0
M  CHG  1  18   1
M  END
>  <CHROM.1>
90.15358356,14.17319101,81.60679291,-61.50723007,-150.44128619,-24.16588092
6.97027150,10.29005916,1.82279120,0.32506120,1.80881552

>  <Name>


>  <RI>
0

>  <Rbt.Current_Directory>
/home/itssahil/PROJECTS/Mol_Feturizer/New_Systems/rnas/1lvj

>  <Rbt.Executable>
rbdock ($Id: //depot/dev/client3/rdock/2013.1/src/exe/rbdock.cxx#4 $)

>  <Rbt.Library>
libRbt.so (2013.1, Build901 2013/11/27)

>  <Rbt.Parameter_File>
/export/apps/rDock/src/rDock_2013.1_src/data/scripts/dock_solv.prm

>  <Rbt.Receptor>
prm/pocket_docking_3.prm

>  <SCORE>
-28.3967

>  <SCORE.INTER>
-26.6547

>  <SCORE.INTER.CONST>
1

>  <SCORE.INTER.POLAR>
-0.365081

>  <SCORE.INTER.ROT>
5

>  <SCORE.INTER.SOLV>
9.31477

>  <SCORE.INTER.VDW>
-26.5911

>  <SCORE.INTER.norm>
-1.1589

>  <SCORE.INTRA>
-1.96136

>  <SCORE.INTRA.DIHEDRAL>
-2.47786

>  <SCORE.INTRA.DIHEDRAL.0>
8.06479

>  <SCORE.INTRA.POLAR>
0

>  <SCORE.INTRA.POLAR.0>
0

>  <SCORE.INTRA.REPUL>
0

>  <SCORE.INTRA.REPUL.0>
0

>  <SCORE.INTRA.SOLV>
0.290083

>  <SCORE.INTRA.SOLV.lig_0>
-29.8054

>  <SCORE.INTRA.VDW>
-0.867471

>  <SCORE.INTRA.VDW.0>
2.61447

>  <SCORE.INTRA.norm>
-0.0852766

>  <SCORE.RESTR>
0.219345

>  <SCORE.RESTR.CAVITY>
0.219345

>  <SCORE.RESTR.norm>
0.00953675

>  <SCORE.SYSTEM>
0

>  <SCORE.SYSTEM.CONST>
0

>  <SCORE.SYSTEM.DIHEDRAL>
0

>  <SCORE.SYSTEM.SOLV>
0

>  <SCORE.SYSTEM.norm>
0

>  <SCORE.heavy>
23

>  <SCORE.norm>
-1.23464

>  <RMSD>
6.988

$$$$

 OpenBabel11021811403D
libRbt.so/2013.1/901 2013/11/27
 23 25  0  0  0  0  0  0  0  0999 V2000
  -25.7451    8.1779   10.3163 S   0  0  0  0  0  0  0  0  0  0  0  0
  -22.9953    7.0343   10.3124 N   0  0  0  0  0  0  0  0  0  0  0  0
  -22.5292    7.3993    7.9750 C   0  0  0  0  0  0  0  0  0  0  0  0
  -22.9524    7.8818    6.7295 C   0  0  0  0  0  0  0  0  0  0  0  0
  -24.2138    8.4528    6.5910 C   0  0  0  0  0  0  0  0  0  0  0  0
  -25.0599    8.5410    7.6911 C   0  0  0  0  0  0  0  0  0  0  0  0
  -24.6508    8.0625    8.9332 C   0  0  0  0  0  0  0  0  0  0  0  0
  -23.3826    7.4888    9.0838 C   0  0  0  0  0  0  0  0  0  0  0  0
  -25.2685    6.5808   10.8970 C   0  0  0  0  0  0  0  0  0  0  0  0
  -26.2275    5.7131   11.4276 C   0  0  0  0  0  0  0  0  0  0  0  0
  -25.8451    4.4510   11.8910 C   0  0  0  0  0  0  0  0  0  0  0  0
  -24.5031    4.0623   11.8259 C   0  0  0  0  0  0  0  0  0  0  0  0
  -23.5509    4.9336   11.2957 C   0  0  0  0  0  0  0  0  0  0  0  0
  -23.9275    6.1860   10.8305 C   0  0  0  0  0  0  0  0  0  0  0  0
  -21.5591    6.7987   10.6025 C   0  0  0  0  0  0  0  0  0  0  0  0
  -20.9305    7.5993   11.7915 C   0  0  0  0  0  0  0  0  0  0  0  0
  -21.8107    7.5856   13.0877 C   0  0  0  0  0  0  0  0  0  0  0  0
  -23.1217    8.2818   13.0383 N   0  3  0  0  0  0  0  0  0  0  0  0
  -22.9684    9.7452   13.2449 C   0  0  0  0  0  0  0  0  0  0  0  0
  -24.0792    7.6787   14.0290 C   0  0  0  0  0  0  0  0  0  0  0  0
  -22.0503    7.7834    5.5324 C   0  0  0  0  0  0  0  0  0  0  0  0
  -20.9470    6.7569    5.4459 C   0  0  0  0  0  0  0  0  0  0  0  0
  -22.2471    8.5118    4.5728 O   0  0  0  0  0  0  0  0  0  0  0  0
  1  7  1  0  0  0  0
  1  9  1  0  0  0  0
  2  8  1  0  0  0  0
  2 14  1  0  0  0  0
  2 15  1  0  0  0  0
  3  4  2  0  0  0  0
  3  8  1  0  0  0  0
  4  5  1  0  0  0  0
  4 21  1  0  0  0  0
  5  6  2  0  0  0  0
  6  7  1  0  0  0  0
  7  8  2  0  0  0  0
  9 10  2  0  0  0  0
  9 14  1  0  0  0  0
 10 11  1  0  0  0  0
 11 12  2  0  0  0  0
 12 13  1  0  0  0  0
 13 14  2  0  0  0  0
 15 16  1  0  0  0  0
 16 17  1  0  0  0  0
 17 18  1  0  0  0  0
 18 19  1  0  0  0  0
 18 20  1  0  0  0  0
 21 22  1  0  0  0  0
 21 23  2  0  0  0  0
M  CHG  1  18   1
M  END
>  <CHROM.1>
121.12393712,23.68517838,46.47431795,-66.42349339,38.44759259,-23.58092164
7.29332633,9.93038916,1.79994824,0.39519490,1.62935697

>  <Name>


>  <RI>
0

>  <Rbt.Current_Directory>
/home/itssahil/PROJECTS/Mol_Feturizer/New_Systems/rnas/1lvj

>  <Rbt.Executable>
rbdock ($Id: //depot/dev/client3/rdock/2013.1/src/exe/rbdock.cxx#4 $)

>  <Rbt.Library>
libRbt.so (2013.1, Build901 2013/11/27)

>  <Rbt.Parameter_File>
/export/apps/rDock/src/rDock_2013.1_src/data/scripts/dock_solv.prm

>  <Rbt.Receptor>
prm/pocket_docking_5.prm

>  <SCORE>
-35.854

>  <SCORE.INTER>
-30.8996

>  <SCORE.INTER.CONST>
1

>  <SCORE.INTER.POLAR>
-0.577458

>  <SCORE.INTER.ROT>
5

>  <SCORE.INTER.SOLV>
10.1732

>  <SCORE.INTER.VDW>
-28.9992

>  <SCORE.INTER.norm>
-1.34346

>  <SCORE.INTRA>
-4.95443

>  <SCORE.INTRA.DIHEDRAL>
-2.2687

>  <SCORE.INTRA.DIHEDRAL.0>
8.06479

>  <SCORE.INTRA.POLAR>
-1.05418

>  <SCORE.INTRA.POLAR.0>
0

>  <SCORE.INTRA.REPUL>
0

>  <SCORE.INTRA.REPUL.0>
0

>  <SCORE.INTRA.SOLV>
10.3446

>  <SCORE.INTRA.SOLV.lig_0>
-29.8054

>  <SCORE.INTRA.VDW>
-5.40818

>  <SCORE.INTRA.VDW.0>
2.61447

>  <SCORE.INTRA.norm>
-0.21541

>  <SCORE.RESTR>
0

>  <SCORE.RESTR.CAVITY>
0

>  <SCORE.RESTR.norm>
0

>  <SCORE.SYSTEM>
0

>  <SCORE.SYSTEM.CONST>
0

>  <SCORE.SYSTEM.DIHEDRAL>
0

>  <SCORE.SYSTEM.SOLV>
0

>  <SCORE.SYSTEM.norm>
0

>  <SCORE.heavy>
23

>  <SCORE.norm>
-1.55887

>  <RMSD>
7.010

$$$$

 OpenBabel11021811403D
libRbt.so/2013.1/901 2013/11/27
 23 25  0  0  0  0  0  0  0  0999 V2000
  -26.3464    7.7029    9.7456 S   0  0  0  0  0  0  0  0  0  0  0  0
  -23.4506    7.1246   10.1315 N   0  0  0  0  0  0  0  0  0  0  0  0
  -22.7836    7.4207    7.8333 C   0  0  0  0  0  0  0  0  0  0  0  0
  -23.1369    7.7282    6.5128 C   0  0  0  0  0  0  0  0  0  0  0  0
  -24.4572    8.0297    6.1927 C   0  0  0  0  0  0  0  0  0  0  0  0
  -25.4308    8.0215    7.1856 C   0  0  0  0  0  0  0  0  0  0  0  0
  -25.0916    7.7148    8.5009 C   0  0  0  0  0  0  0  0  0  0  0  0
  -23.7657    7.4128    8.8339 C   0  0  0  0  0  0  0  0  0  0  0  0
  -25.6517    6.2721   10.5104 C   0  0  0  0  0  0  0  0  0  0  0  0
  -26.4873    5.2693   11.0107 C   0  0  0  0  0  0  0  0  0  0  0  0
  -25.9332    4.1400   11.6202 C   0  0  0  0  0  0  0  0  0  0  0  0
  -24.5442    4.0194   11.7311 C   0  0  0  0  0  0  0  0  0  0  0  0
  -23.7159    5.0244   11.2303 C   0  0  0  0  0  0  0  0  0  0  0  0
  -24.2623    6.1452   10.6204 C   0  0  0  0  0  0  0  0  0  0  0  0
  -22.0413    7.1954   10.5908 C   0  0  0  0  0  0  0  0  0  0  0  0
  -21.7997    7.4514   12.1159 C   0  0  0  0  0  0  0  0  0  0  0  0
  -22.6734    8.6138   12.6997 C   0  0  0  0  0  0  0  0  0  0  0  0
  -23.1246    8.4959   14.1098 N   0  3  0  0  0  0  0  0  0  0  0  0
  -23.8491    7.2200   14.3440 C   0  0  0  0  0  0  0  0  0  0  0  0
  -23.9562    9.6864   14.5009 C   0  0  0  0  0  0  0  0  0  0  0  0
  -22.0951    7.7311    5.4307 C   0  0  0  0  0  0  0  0  0  0  0  0
  -20.9344    6.7660    5.4367 C   0  0  0  0  0  0  0  0  0  0  0  0
  -22.2164    8.4930    4.4846 O   0  0  0  0  0  0  0  0  0  0  0  0
  1  7  1  0  0  0  0
  1  9  1  0  0  0  0
  2  8  1  0  0  0  0
  2 14  1  0  0  0  0
  2 15  1  0  0  0  0
  3  4  2  0  0  0  0
  3  8  1  0  0  0  0
  4  5  1  0  0  0  0
  4 21  1  0  0  0  0
  5  6  2  0  0  0  0
  6  7  1  0  0  0  0
  7  8  2  0  0  0  0
  9 10  2  0  0  0  0
  9 14  1  0  0  0  0
 10 11  1  0  0  0  0
 11 12  2  0  0  0  0
 12 13  1  0  0  0  0
 13 14  2  0  0  0  0
 15 16  1  0  0  0  0
 16 17  1  0  0  0  0
 17 18  1  0  0  0  0
 18 19  1  0  0  0  0
 18 20  1  0  0  0  0
 21 22  1  0  0  0  0
 21 23  2  0  0  0  0
M  CHG  1  18   1
M  END
>  <CHROM.1>
155.02324715,34.34349888,-46.64548620,146.86308484,65.27081341,-23.90472371
7.19085643,9.85087259,1.76828523,0.56350489,1.53882998

>  <Name>


>  <RI>
0

>  <Rbt.Current_Directory>
/home/itssahil/PROJECTS/Mol_Feturizer/New_Systems/rnas/1lvj

>  <Rbt.Executable>
rbdock ($Id: //depot/dev/client3/rdock/2013.1/src/exe/rbdock.cxx#4 $)

>  <Rbt.Library>
libRbt.so (2013.1, Build901 2013/11/27)

>  <Rbt.Parameter_File>
/export/apps/rDock/src/rDock_2013.1_src/data/scripts/dock_solv.prm

>  <Rbt.Receptor>
prm/pocket_docking_4.prm

>  <SCORE>
-31.2403

>  <SCORE.INTER>
-28.7773

>  <SCORE.INTER.CONST>
1

>  <SCORE.INTER.POLAR>
-0.588486

>  <SCORE.INTER.ROT>
5

>  <SCORE.INTER.SOLV>
10.0931

>  <SCORE.INTER.VDW>
-27.5209

>  <SCORE.INTER.norm>
-1.25119

>  <SCORE.INTRA>
-2.9509

>  <SCORE.INTRA.DIHEDRAL>
0.0403286

>  <SCORE.INTRA.DIHEDRAL.0>
8.06479

>  <SCORE.INTRA.POLAR>
0

>  <SCORE.INTRA.POLAR.0>
0

>  <SCORE.INTRA.REPUL>
0

>  <SCORE.INTRA.REPUL.0>
0

>  <SCORE.INTRA.SOLV>
0.37299

>  <SCORE.INTRA.SOLV.lig_0>
-29.8054

>  <SCORE.INTRA.VDW>
-3.15756

>  <SCORE.INTRA.VDW.0>
2.61447

>  <SCORE.INTRA.norm>
-0.1283

>  <SCORE.RESTR>
0.487865

>  <SCORE.RESTR.CAVITY>
0.487865

>  <SCORE.RESTR.norm>
0.0212115

>  <SCORE.SYSTEM>
0

>  <SCORE.SYSTEM.CONST>
0

>  <SCORE.SYSTEM.DIHEDRAL>
0

>  <SCORE.SYSTEM.SOLV>
0

>  <SCORE.SYSTEM.norm>
0

>  <SCORE.heavy>
23

>  <SCORE.norm>
-1.35827

>  <RMSD>
7.023

$$$$

 OpenBabel11021811403D
libRbt.so/2013.1/901 2013/11/27
 23 25  0  0  0  0  0  0  0  0999 V2000
  -26.3779    8.0018   10.6967 S   0  0  0  0  0  0  0  0  0  0  0  0
  -23.6753    6.7508   10.6862 N   0  0  0  0  0  0  0  0  0  0  0  0
  -23.0857    7.3452    8.4250 C   0  0  0  0  0  0  0  0  0  0  0  0
  -23.4312    7.9762    7.2227 C   0  0  0  0  0  0  0  0  0  0  0  0
  -24.6627    8.6112    7.0932 C   0  0  0  0  0  0  0  0  0  0  0  0
  -25.5560    8.6161    8.1589 C   0  0  0  0  0  0  0  0  0  0  0  0
  -25.2243    7.9900    9.3577 C   0  0  0  0  0  0  0  0  0  0  0  0
  -23.9868    7.3507    9.4991 C   0  0  0  0  0  0  0  0  0  0  0  0
  -25.9890    6.3329   11.1192 C   0  0  0  0  0  0  0  0  0  0  0  0
  -27.0035    5.4542   11.5099 C   0  0  0  0  0  0  0  0  0  0  0  0
  -26.6906    4.1346   11.8485 C   0  0  0  0  0  0  0  0  0  0  0  0
  -25.3624    3.6992   11.7991 C   0  0  0  0  0  0  0  0  0  0  0  0
  -24.3544    4.5817   11.4090 C   0  0  0  0  0  0  0  0  0  0  0  0
  -24.6618    5.8916   11.0678 C   0  0  0  0  0  0  0  0  0  0  0  0
  -22.2642    6.4252   11.0103 C   0  0  0  0  0  0  0  0  0  0  0  0
  -21.4491    7.4981   11.8067 C   0  0  0  0  0  0  0  0  0  0  0  0
  -22.0850    7.8642   13.1912 C   0  0  0  0  0  0  0  0  0  0  0  0
  -23.4620    8.4207   13.1919 N   0  3  0  0  0  0  0  0  0  0  0  0
  -23.4549    9.8899   12.9706 C   0  0  0  0  0  0  0  0  0  0  0  0
  -24.1807    8.0540   14.4612 C   0  0  0  0  0  0  0  0  0  0  0  0
  -22.4777    7.9694    6.0620 C   0  0  0  0  0  0  0  0  0  0  0  0
  -21.2989    7.0283    6.0022 C   0  0  0  0  0  0  0  0  0  0  0  0
  -22.6897    8.7014    5.1084 O   0  0  0  0  0  0  0  0  0  0  0  0
  1  7  1  0  0  0  0
  1  9  1  0  0  0  0
  2  8  1  0  0  0  0
  2 14  1  0  0  0  0
  2 15  1  0  0  0  0
  3  4  2  0  0  0  0
  3  8  1  0  0  0  0
  4  5  1  0  0  0  0
  4 21  1  0  0  0  0
  5  6  2  0  0  0  0
  6  7  1  0  0  0  0
  7  8  2  0  0  0  0
  9 10  2  0  0  0  0
  9 14  1  0  0  0  0
 10 11  1  0  0  0  0
 11 12  2  0  0  0  0
 12 13  1  0  0  0  0
 13 14  2  0  0  0  0
 15 16  1  0  0  0  0
 16 17  1  0  0  0  0
 17 18  1  0  0  0  0
 18 19  1  0  0  0  0
 18 20  1  0  0  0  0
 21 22  1  0  0  0  0
 21 23  2  0  0  0  0
M  CHG  1  18   1
M  END
>  <CHROM.1>
92.27739420,15.42171562,58.55985722,-59.63260470,35.01526283,-24.13693053
7.24517178,10.21933547,1.91377797,0.61391354,1.59112927

>  <Name>


>  <RI>
0

>  <Rbt.Current_Directory>
/home/itssahil/PROJECTS/Mol_Feturizer/New_Systems/rnas/1lvj

>  <Rbt.Executable>
rbdock ($Id: //depot/dev/client3/rdock/2013.1/src/exe/rbdock.cxx#4 $)

>  <Rbt.Library>
libRbt.so (2013.1, Build901 2013/11/27)

>  <Rbt.Parameter_File>
/export/apps/rDock/src/rDock_2013.1_src/data/scripts/dock_solv.prm

>  <Rbt.Receptor>
prm/pocket_docking_7.prm

>  <SCORE>
-35.5474

>  <SCORE.INTER>
-29.1986

>  <SCORE.INTER.CONST>
1

>  <SCORE.INTER.POLAR>
-0.416468

>  <SCORE.INTER.ROT>
5

>  <SCORE.INTER.SOLV>
9.71148

>  <SCORE.INTER.VDW>
-28.248

>  <SCORE.INTER.norm>
-1.2695

>  <SCORE.INTRA>
-6.34881

>  <SCORE.INTRA.DIHEDRAL>
-3.98041

>  <SCORE.INTRA.DIHEDRAL.0>
8.06479

>  <SCORE.INTRA.POLAR>
-1.17029

>  <SCORE.INTRA.POLAR.0>
0

>  <SCORE.INTRA.REPUL>
0

>  <SCORE.INTRA.REPUL.0>
0

>  <SCORE.INTRA.SOLV>
9.63806

>  <SCORE.INTRA.SOLV.lig_0>
-29.8054

>  <SCORE.INTRA.VDW>
-5.19866

>  <SCORE.INTRA.VDW.0>
2.61447

>  <SCORE.INTRA.norm>
-0.276035

>  <SCORE.RESTR>
0

>  <SCORE.RESTR.CAVITY>
0

>  <SCORE.RESTR.norm>
0

>  <SCORE.SYSTEM>
0

>  <SCORE.SYSTEM.CONST>
0

>  <SCORE.SYSTEM.DIHEDRAL>
0

>  <SCORE.SYSTEM.SOLV>
0

>  <SCORE.SYSTEM.norm>
0

>  <SCORE.heavy>
23

>  <SCORE.norm>
-1.54554

>  <RMSD>
7.037

$$$$

 OpenBabel11021811403D
libRbt.so/2013.1/901 2013/11/27
 23 25  0  0  0  0  0  0  0  0999 V2000
  -22.0523    7.0645   12.2807 S   0  0  0  0  0  0  0  0  0  0  0  0
  -24.7370    7.9459   11.3401 N   0  0  0  0  0  0  0  0  0  0  0  0
  -24.2426    7.9247    8.9802 C   0  0  0  0  0  0  0  0  0  0  0  0
  -23.3219    7.6897    7.9506 C   0  0  0  0  0  0  0  0  0  0  0  0
  -22.0314    7.2626    8.2484 C   0  0  0  0  0  0  0  0  0  0  0  0
  -21.6520    7.0724    9.5727 C   0  0  0  0  0  0  0  0  0  0  0  0
  -22.5580    7.3053   10.6043 C   0  0  0  0  0  0  0  0  0  0  0  0
  -23.8595    7.7326   10.3152 C   0  0  0  0  0  0  0  0  0  0  0  0
  -22.9350    8.4980   12.8108 C   0  0  0  0  0  0  0  0  0  0  0  0
  -22.3777    9.3496   13.7691 C   0  0  0  0  0  0  0  0  0  0  0  0
  -23.0823   10.4811   14.1900 C   0  0  0  0  0  0  0  0  0  0  0  0
  -24.3446   10.7550   13.6536 C   0  0  0  0  0  0  0  0  0  0  0  0
  -24.8953    9.9004   12.6979 C   0  0  0  0  0  0  0  0  0  0  0  0
  -24.1968    8.7781   12.2743 C   0  0  0  0  0  0  0  0  0  0  0  0
  -26.1958    8.0035   11.0740 C   0  0  0  0  0  0  0  0  0  0  0  0
  -27.1528    7.7941   12.2948 C   0  0  0  0  0  0  0  0  0  0  0  0
  -28.0709    9.0297   12.5873 C   0  0  0  0  0  0  0  0  0  0  0  0
  -28.9852    8.9484   13.7549 N   0  3  0  0  0  0  0  0  0  0  0  0
  -29.9611    7.8381   13.6050 C   0  0  0  0  0  0  0  0  0  0  0  0
  -29.6739   10.2661   13.9810 C   0  0  0  0  0  0  0  0  0  0  0  0
  -23.7180    7.9006    6.5170 C   0  0  0  0  0  0  0  0  0  0  0  0
  -22.7112    7.8452    5.3937 C   0  0  0  0  0  0  0  0  0  0  0  0
  -24.8955    8.0625    6.2387 O   0  0  0  0  0  0  0  0  0  0  0  0
  1  7  1  0  0  0  0
  1  9  1  0  0  0  0
  2  8  1  0  0  0  0
  2 14  1  0  0  0  0
  2 15  1  0  0  0  0
  3  4  2  0  0  0  0
  3  8  1  0  0  0  0
  4  5  1  0  0  0  0
  4 21  1  0  0  0  0
  5  6  2  0  0  0  0
  6  7  1  0  0  0  0
  7  8  2  0  0  0  0
  9 10  2  0  0  0  0
  9 14  1  0  0  0  0
 10 11  1  0  0  0  0
 11 12  2  0  0  0  0
 12 13  1  0  0  0  0
 13 14  2  0  0  0  0
 15 16  1  0  0  0  0
 16 17  1  0  0  0  0
 17 18  1  0  0  0  0
 18 19  1  0  0  0  0
 18 20  1  0  0  0  0
 21 22  1  0  0  0  0
 21 23  2  0  0  0  0
M  CHG  1  18   1
M  END
>  <CHROM.1>
161.09052177,171.38664878,118.65705906,-178.03488120,58.45386871,-24.65126041
8.34177610,11.12260277,-0.86345975,-0.07528976,1.36251735

>  <Name>


>  <RI>
0

>  <Rbt.Current_Directory>
/home/itssahil/PROJECTS/Mol_Feturizer/New_Systems/rnas/1lvj

>  <Rbt.Executable>
rbdock ($Id: //depot/dev/client3/rdock/2013.1/src/exe/rbdock.cxx#4 $)

>  <Rbt.Library>
libRbt.so (2013.1, Build901 2013/11/27)

>  <Rbt.Parameter_File>
/export/apps/rDock/src/rDock_2013.1_src/data/scripts/dock_solv.prm

>  <Rbt.Receptor>
prm/pocket_docking_7.prm

>  <SCORE>
-26.1852

>  <SCORE.INTER>
-23.5475

>  <SCORE.INTER.CONST>
1

>  <SCORE.INTER.POLAR>
0

>  <SCORE.INTER.ROT>
5

>  <SCORE.INTER.SOLV>
8.09806

>  <SCORE.INTER.VDW>
-25.331

>  <SCORE.INTER.norm>
-1.02381

>  <SCORE.INTRA>
-2.63767

>  <SCORE.INTRA.DIHEDRAL>
-1.80498

>  <SCORE.INTRA.DIHEDRAL.0>
8.06479

>  <SCORE.INTRA.POLAR>
0

>  <SCORE.INTRA.POLAR.0>
0

>  <SCORE.INTRA.REPUL>
0

>  <SCORE.INTRA.REPUL.0>
0

>  <SCORE.INTRA.SOLV>
0.357994

>  <SCORE.INTRA.SOLV.lig_0>
-29.8054

>  <SCORE.INTRA.VDW>
-1.91417

>  <SCORE.INTRA.VDW.0>
2.61447

>  <SCORE.INTRA.norm>
-0.114681

>  <SCORE.RESTR>
0

>  <SCORE.RESTR.CAVITY>
0

>  <SCORE.RESTR.norm>
0

>  <SCORE.SYSTEM>
0

>  <SCORE.SYSTEM.CONST>
0

>  <SCORE.SYSTEM.DIHEDRAL>
0

>  <SCORE.SYSTEM.SOLV>
0

>  <SCORE.SYSTEM.norm>
0

>  <SCORE.heavy>
23

>  <SCORE.norm>
-1.13849

>  <RMSD>
7.041

$$$$

 OpenBabel11021811403D
libRbt.so/2013.1/901 2013/11/27
 23 25  0  0  0  0  0  0  0  0999 V2000
  -25.6040    8.3687    9.6220 S   0  0  0  0  0  0  0  0  0  0  0  0
  -22.9496    7.0968   10.0760 N   0  0  0  0  0  0  0  0  0  0  0  0
  -22.1773    7.2076    7.7945 C   0  0  0  0  0  0  0  0  0  0  0  0
  -22.4133    7.5858    6.4662 C   0  0  0  0  0  0  0  0  0  0  0  0
  -23.6108    8.2016    6.1151 C   0  0  0  0  0  0  0  0  0  0  0  0
  -24.5791    8.4386    7.0846 C   0  0  0  0  0  0  0  0  0  0  0  0
  -24.3564    8.0647    8.4074 C   0  0  0  0  0  0  0  0  0  0  0  0
  -23.1539    7.4471    8.7715 C   0  0  0  0  0  0  0  0  0  0  0  0
  -25.3011    6.8148   10.4020 C   0  0  0  0  0  0  0  0  0  0  0  0
  -26.3693    6.0513   10.8817 C   0  0  0  0  0  0  0  0  0  0  0  0
  -26.1248    4.8235   11.5034 C   0  0  0  0  0  0  0  0  0  0  0  0
  -24.8112    4.3650   11.6471 C   0  0  0  0  0  0  0  0  0  0  0  0
  -23.7495    5.1324   11.1667 C   0  0  0  0  0  0  0  0  0  0  0  0
  -23.9887    6.3501   10.5449 C   0  0  0  0  0  0  0  0  0  0  0  0
  -21.5773    6.8207   10.5686 C   0  0  0  0  0  0  0  0  0  0  0  0
  -21.1487    7.5063   11.9088 C   0  0  0  0  0  0  0  0  0  0  0  0
  -22.0134    7.0665   13.1393 C   0  0  0  0  0  0  0  0  0  0  0  0
  -21.6975    5.7607   13.7725 N   0  3  0  0  0  0  0  0  0  0  0  0
  -22.8266    5.2735   14.6064 C   0  0  0  0  0  0  0  0  0  0  0  0
  -20.4216    5.8507   14.5636 C   0  0  0  0  0  0  0  0  0  0  0  0
  -21.3781    7.3265    5.4090 C   0  0  0  0  0  0  0  0  0  0  0  0
  -21.4159    8.0174    4.0675 C   0  0  0  0  0  0  0  0  0  0  0  0
  -20.4428    6.5821    5.6566 O   0  0  0  0  0  0  0  0  0  0  0  0
  1  7  1  0  0  0  0
  1  9  1  0  0  0  0
  2  8  1  0  0  0  0
  2 14  1  0  0  0  0
  2 15  1  0  0  0  0
  3  4  2  0  0  0  0
  3  8  1  0  0  0  0
  4  5  1  0  0  0  0
  4 21  1  0  0  0  0
  5  6  2  0  0  0  0
  6  7  1  0  0  0  0
  7  8  2  0  0  0  0
  9 10  2  0  0  0  0
  9 14  1  0  0  0  0
 10 11  1  0  0  0  0
 11 12  2  0  0  0  0
 12 13  1  0  0  0  0
 13 14  2  0  0  0  0
 15 16  1  0  0  0  0
 16 17  1  0  0  0  0
 17 18  1  0  0  0  0
 18 19  1  0  0  0  0
 18 20  1  0  0  0  0
 21 22  1  0  0  0  0
 21 23  2  0  0  0  0
M  CHG  1  18   1
M  END
>  <CHROM.1>
132.22281244,-163.75632899,62.33335140,79.59581509,-41.65379531,-23.19537081
6.85855522,9.79592456,1.50981129,0.04088394,-1.30567509

>  <Name>


>  <RI>
0

>  <Rbt.Current_Directory>
/home/itssahil/PROJECTS/Mol_Feturizer/New_Systems/rnas/1lvj

>  <Rbt.Executable>
rbdock ($Id: //depot/dev/client3/rdock/2013.1/src/exe/rbdock.cxx#4 $)

>  <Rbt.Library>
libRbt.so (2013.1, Build901 2013/11/27)

>  <Rbt.Parameter_File>
/export/apps/rDock/src/rDock_2013.1_src/data/scripts/dock_solv.prm

>  <Rbt.Receptor>
prm/pocket_docking_5.prm

>  <SCORE>
-31.9971

>  <SCORE.INTER>
-28.4552

>  <SCORE.INTER.CONST>
1

>  <SCORE.INTER.POLAR>
0

>  <SCORE.INTER.ROT>
5

>  <SCORE.INTER.SOLV>
10.1424

>  <SCORE.INTER.VDW>
-29.2842

>  <SCORE.INTER.norm>
-1.23718

>  <SCORE.INTRA>
-3.54193

>  <SCORE.INTRA.DIHEDRAL>
-3.70435

>  <SCORE.INTRA.DIHEDRAL.0>
8.06479

>  <SCORE.INTRA.POLAR>
0

>  <SCORE.INTRA.POLAR.0>
0

>  <SCORE.INTRA.REPUL>
0

>  <SCORE.INTRA.REPUL.0>
0

>  <SCORE.INTRA.SOLV>
4.19939

>  <SCORE.INTRA.SOLV.lig_0>
-29.8054

>  <SCORE.INTRA.VDW>
-3.78945

>  <SCORE.INTRA.VDW.0>
2.61447

>  <SCORE.INTRA.norm>
-0.153997

>  <SCORE.RESTR>
0

>  <SCORE.RESTR.CAVITY>
0

>  <SCORE.RESTR.norm>
0

>  <SCORE.SYSTEM>
0

>  <SCORE.SYSTEM.CONST>
0

>  <SCORE.SYSTEM.DIHEDRAL>
0

>  <SCORE.SYSTEM.SOLV>
0

>  <SCORE.SYSTEM.norm>
0

>  <SCORE.heavy>
23

>  <SCORE.norm>
-1.39118

>  <RMSD>
7.063

$$$$

 OpenBabel11021811403D
libRbt.so/2013.1/901 2013/11/27
 23 25  0  0  0  0  0  0  0  0999 V2000
  -26.1558    8.0984   10.5740 S   0  0  0  0  0  0  0  0  0  0  0  0
  -23.5340    6.6869   10.5201 N   0  0  0  0  0  0  0  0  0  0  0  0
  -22.9416    7.2550    8.2529 C   0  0  0  0  0  0  0  0  0  0  0  0
  -23.2654    7.9112    7.0580 C   0  0  0  0  0  0  0  0  0  0  0  0
  -24.4580    8.6199    6.9485 C   0  0  0  0  0  0  0  0  0  0  0  0
  -25.3343    8.6736    8.0270 C   0  0  0  0  0  0  0  0  0  0  0  0
  -25.0241    8.0232    9.2185 C   0  0  0  0  0  0  0  0  0  0  0  0
  -23.8255    7.3099    9.3398 C   0  0  0  0  0  0  0  0  0  0  0  0
  -25.8623    6.4072   10.9847 C   0  0  0  0  0  0  0  0  0  0  0  0
  -26.9224    5.5894   11.3867 C   0  0  0  0  0  0  0  0  0  0  0  0
  -26.6849    4.2519   11.7159 C   0  0  0  0  0  0  0  0  0  0  0  0
  -25.3862    3.7374   11.6458 C   0  0  0  0  0  0  0  0  0  0  0  0
  -24.3325    4.5594   11.2445 C   0  0  0  0  0  0  0  0  0  0  0  0
  -24.5651    5.8870   10.9126 C   0  0  0  0  0  0  0  0  0  0  0  0
  -22.1407    6.2755   10.8227 C   0  0  0  0  0  0  0  0  0  0  0  0
  -21.2111    7.3419   11.4923 C   0  0  0  0  0  0  0  0  0  0  0  0
  -21.8960    8.1155   12.6703 C   0  0  0  0  0  0  0  0  0  0  0  0
  -22.2887    7.3352   13.8715 N   0  3  0  0  0  0  0  0  0  0  0  0
  -23.6194    6.6984   13.6951 C   0  0  0  0  0  0  0  0  0  0  0  0
  -22.2455    8.1994   15.1016 C   0  0  0  0  0  0  0  0  0  0  0  0
  -22.3305    7.8522    5.8837 C   0  0  0  0  0  0  0  0  0  0  0  0
  -21.2087    6.8452    5.8056 C   0  0  0  0  0  0  0  0  0  0  0  0
  -22.5137    8.5974    4.9343 O   0  0  0  0  0  0  0  0  0  0  0  0
  1  7  1  0  0  0  0
  1  9  1  0  0  0  0
  2  8  1  0  0  0  0
  2 14  1  0  0  0  0
  2 15  1  0  0  0  0
  3  4  2  0  0  0  0
  3  8  1  0  0  0  0
  4  5  1  0  0  0  0
  4 21  1  0  0  0  0
  5  6  2  0  0  0  0
  6  7  1  0  0  0  0
  7  8  2  0  0  0  0
  9 10  2  0  0  0  0
  9 14  1  0  0  0  0
 10 11  1  0  0  0  0
 11 12  2  0  0  0  0
 12 13  1  0  0  0  0
 13 14  2  0  0  0  0
 15 16  1  0  0  0  0
 16 17  1  0  0  0  0
 17 18  1  0  0  0  0
 18 19  1  0  0  0  0
 18 20  1  0  0  0  0
 21 22  1  0  0  0  0
 21 23  2  0  0  0  0
M  CHG  1  18   1
M  END
>  <CHROM.1>
86.74021446,15.21372919,45.15914751,64.17265847,35.48475133,-23.87498466
7.05085020,10.16068490,1.73062835,0.35458007,1.74130963

>  <Name>


>  <RI>
0

>  <Rbt.Current_Directory>
/home/itssahil/PROJECTS/Mol_Feturizer/New_Systems/rnas/1lvj

>  <Rbt.Executable>
rbdock ($Id: //depot/dev/client3/rdock/2013.1/src/exe/rbdock.cxx#4 $)

>  <Rbt.Library>
libRbt.so (2013.1, Build901 2013/11/27)

>  <Rbt.Parameter_File>
/export/apps/rDock/src/rDock_2013.1_src/data/scripts/dock_solv.prm

>  <Rbt.Receptor>
prm/pocket_docking_3.prm

>  <SCORE>
-28.3783

>  <SCORE.INTER>
-26.1497

>  <SCORE.INTER.CONST>
1

>  <SCORE.INTER.POLAR>
-0.47006

>  <SCORE.INTER.ROT>
5

>  <SCORE.INTER.SOLV>
9.7292

>  <SCORE.INTER.VDW>
-26.0427

>  <SCORE.INTER.norm>
-1.13694

>  <SCORE.INTRA>
-3.96017

>  <SCORE.INTRA.DIHEDRAL>
-3.43626

>  <SCORE.INTRA.DIHEDRAL.0>
8.06479

>  <SCORE.INTRA.POLAR>
0

>  <SCORE.INTRA.POLAR.0>
0

>  <SCORE.INTRA.REPUL>
0

>  <SCORE.INTRA.REPUL.0>
0

>  <SCORE.INTRA.SOLV>
2.00436

>  <SCORE.INTRA.SOLV.lig_0>
-29.8054

>  <SCORE.INTRA.VDW>
-3.24422

>  <SCORE.INTRA.VDW.0>
2.61447

>  <SCORE.INTRA.norm>
-0.172181

>  <SCORE.RESTR>
1.73161

>  <SCORE.RESTR.CAVITY>
1.73161

>  <SCORE.RESTR.norm>
0.0752875

>  <SCORE.SYSTEM>
0

>  <SCORE.SYSTEM.CONST>
0

>  <SCORE.SYSTEM.DIHEDRAL>
0

>  <SCORE.SYSTEM.SOLV>
0

>  <SCORE.SYSTEM.norm>
0

>  <SCORE.heavy>
23

>  <SCORE.norm>
-1.23384

>  <RMSD>
7.069

$$$$

 OpenBabel11021811403D
libRbt.so/2013.1/901 2013/11/27
 23 25  0  0  0  0  0  0  0  0999 V2000
  -26.0376    8.1753   10.0788 S   0  0  0  0  0  0  0  0  0  0  0  0
  -23.2840    7.0528   10.2411 N   0  0  0  0  0  0  0  0  0  0  0  0
  -22.6834    7.4145    7.9341 C   0  0  0  0  0  0  0  0  0  0  0  0
  -23.0359    7.8901    6.6642 C   0  0  0  0  0  0  0  0  0  0  0  0
  -24.2912    8.4510    6.4494 C   0  0  0  0  0  0  0  0  0  0  0  0
  -25.2013    8.5360    7.4974 C   0  0  0  0  0  0  0  0  0  0  0  0
  -24.8627    8.0642    8.7631 C   0  0  0  0  0  0  0  0  0  0  0  0
  -23.6014    7.5007    8.9902 C   0  0  0  0  0  0  0  0  0  0  0  0
  -25.5843    6.5836   10.6920 C   0  0  0  0  0  0  0  0  0  0  0  0
  -26.5665    5.7101   11.1680 C   0  0  0  0  0  0  0  0  0  0  0  0
  -26.2027    4.4524   11.6574 C   0  0  0  0  0  0  0  0  0  0  0  0
  -24.8564    4.0738   11.6729 C   0  0  0  0  0  0  0  0  0  0  0  0
  -23.8810    4.9508   11.1970 C   0  0  0  0  0  0  0  0  0  0  0  0
  -24.2388    6.1989   10.7061 C   0  0  0  0  0  0  0  0  0  0  0  0
  -21.8657    6.8290   10.6162 C   0  0  0  0  0  0  0  0  0  0  0  0
  -21.3752    7.4606   11.9618 C   0  0  0  0  0  0  0  0  0  0  0  0
  -20.6994    6.4272   12.9265 C   0  0  0  0  0  0  0  0  0  0  0  0
  -21.5529    5.3512   13.4917 N   0  3  0  0  0  0  0  0  0  0  0  0
  -22.6236    5.9059   14.3597 C   0  0  0  0  0  0  0  0  0  0  0  0
  -20.7143    4.3391   14.2227 C   0  0  0  0  0  0  0  0  0  0  0  0
  -22.0639    7.7951    5.5227 C   0  0  0  0  0  0  0  0  0  0  0  0
  -20.9340    6.7942    5.5170 C   0  0  0  0  0  0  0  0  0  0  0  0
  -22.2216    8.5037    4.5413 O   0  0  0  0  0  0  0  0  0  0  0  0
  1  7  1  0  0  0  0
  1  9  1  0  0  0  0
  2  8  1  0  0  0  0
  2 14  1  0  0  0  0
  2 15  1  0  0  0  0
  3  4  2  0  0  0  0
  3  8  1  0  0  0  0
  4  5  1  0  0  0  0
  4 21  1  0  0  0  0
  5  6  2  0  0  0  0
  6  7  1  0  0  0  0
  7  8  2  0  0  0  0
  9 10  2  0  0  0  0
  9 14  1  0  0  0  0
 10 11  1  0  0  0  0
 11 12  2  0  0  0  0
 12 13  1  0  0  0  0
 13 14  2  0  0  0  0
 15 16  1  0  0  0  0
 16 17  1  0  0  0  0
 17 18  1  0  0  0  0
 18 19  1  0  0  0  0
 18 20  1  0  0  0  0
 21 22  1  0  0  0  0
 21 23  2  0  0  0  0
M  CHG  1  18   1
M  END
>  <CHROM.1>
130.38104560,22.50364578,126.50579331,-66.01782197,56.42895958,-23.47447856
6.77904146,9.91904557,1.62210722,0.06151816,-1.20243935

>  <Name>


>  <RI>
0

>  <Rbt.Current_Directory>
/home/itssahil/PROJECTS/Mol_Feturizer/New_Systems/rnas/1lvj

>  <Rbt.Executable>
rbdock ($Id: //depot/dev/client3/rdock/2013.1/src/exe/rbdock.cxx#4 $)

>  <Rbt.Library>
libRbt.so (2013.1, Build901 2013/11/27)

>  <Rbt.Parameter_File>
/export/apps/rDock/src/rDock_2013.1_src/data/scripts/dock_solv.prm

>  <Rbt.Receptor>
prm/pocket_docking_4.prm

>  <SCORE>
-28.4855

>  <SCORE.INTER>
-28.7846

>  <SCORE.INTER.CONST>
1

>  <SCORE.INTER.POLAR>
-0.580431

>  <SCORE.INTER.ROT>
5

>  <SCORE.INTER.SOLV>
9.78081

>  <SCORE.INTER.VDW>
-27.4485

>  <SCORE.INTER.norm>
-1.2515

>  <SCORE.INTRA>
-0.119862

>  <SCORE.INTRA.DIHEDRAL>
0.763006

>  <SCORE.INTRA.DIHEDRAL.0>
8.06479

>  <SCORE.INTRA.POLAR>
0

>  <SCORE.INTRA.POLAR.0>
0

>  <SCORE.INTRA.REPUL>
0

>  <SCORE.INTRA.REPUL.0>
0

>  <SCORE.INTRA.SOLV>
5.75163

>  <SCORE.INTRA.SOLV.lig_0>
-29.8054

>  <SCORE.INTRA.VDW>
-3.37718

>  <SCORE.INTRA.VDW.0>
2.61447

>  <SCORE.INTRA.norm>
-0.0052114

>  <SCORE.RESTR>
0.418959

>  <SCORE.RESTR.CAVITY>
0.418959

>  <SCORE.RESTR.norm>
0.0182156

>  <SCORE.SYSTEM>
0

>  <SCORE.SYSTEM.CONST>
0

>  <SCORE.SYSTEM.DIHEDRAL>
0

>  <SCORE.SYSTEM.SOLV>
0

>  <SCORE.SYSTEM.norm>
0

>  <SCORE.heavy>
23

>  <SCORE.norm>
-1.2385

>  <RMSD>
7.096

$$$$

 OpenBabel11021811403D
libRbt.so/2013.1/901 2013/11/27
 23 25  0  0  0  0  0  0  0  0999 V2000
  -25.5525    8.3509    9.6405 S   0  0  0  0  0  0  0  0  0  0  0  0
  -22.8696    7.1342   10.0777 N   0  0  0  0  0  0  0  0  0  0  0  0
  -22.1286    7.2264    7.7850 C   0  0  0  0  0  0  0  0  0  0  0  0
  -22.3886    7.5812    6.4547 C   0  0  0  0  0  0  0  0  0  0  0  0
  -23.6016    8.1700    6.1106 C   0  0  0  0  0  0  0  0  0  0  0  0
  -24.5617    8.4031    7.0893 C   0  0  0  0  0  0  0  0  0  0  0  0
  -24.3152    8.0523    8.4142 C   0  0  0  0  0  0  0  0  0  0  0  0
  -23.0969    7.4620    8.7712 C   0  0  0  0  0  0  0  0  0  0  0  0
  -25.2111    6.8141   10.4384 C   0  0  0  0  0  0  0  0  0  0  0  0
  -26.2589    6.0382   10.9427 C   0  0  0  0  0  0  0  0  0  0  0  0
  -25.9839    4.8241   11.5783 C   0  0  0  0  0  0  0  0  0  0  0  0
  -24.6604    4.3917   11.7113 C   0  0  0  0  0  0  0  0  0  0  0  0
  -23.6192    5.1714   11.2064 C   0  0  0  0  0  0  0  0  0  0  0  0
  -23.8887    6.3755   10.5706 C   0  0  0  0  0  0  0  0  0  0  0  0
  -21.4863    6.8902   10.5562 C   0  0  0  0  0  0  0  0  0  0  0  0
  -21.1327    7.3835   11.9989 C   0  0  0  0  0  0  0  0  0  0  0  0
  -21.5215    6.3612   13.1209 C   0  0  0  0  0  0  0  0  0  0  0  0
  -20.6007    5.2217   13.3647 N   0  3  0  0  0  0  0  0  0  0  0  0
  -19.2205    5.6900   13.6532 C   0  0  0  0  0  0  0  0  0  0  0  0
  -20.6304    4.2602   12.2085 C   0  0  0  0  0  0  0  0  0  0  0  0
  -21.3624    7.3256    5.3879 C   0  0  0  0  0  0  0  0  0  0  0  0
  -21.4156    8.0160    4.0466 C   0  0  0  0  0  0  0  0  0  0  0  0
  -20.4219    6.5849    5.6267 O   0  0  0  0  0  0  0  0  0  0  0  0
  1  7  1  0  0  0  0
  1  9  1  0  0  0  0
  2  8  1  0  0  0  0
  2 14  1  0  0  0  0
  2 15  1  0  0  0  0
  3  4  2  0  0  0  0
  3  8  1  0  0  0  0
  4  5  1  0  0  0  0
  4 21  1  0  0  0  0
  5  6  2  0  0  0  0
  6  7  1  0  0  0  0
  7  8  2  0  0  0  0
  9 10  2  0  0  0  0
  9 14  1  0  0  0  0
 10 11  1  0  0  0  0
 11 12  2  0  0  0  0
 12 13  1  0  0  0  0
 13 14  2  0  0  0  0
 15 16  1  0  0  0  0
 16 17  1  0  0  0  0
 17 18  1  0  0  0  0
 18 19  1  0  0  0  0
 18 20  1  0  0  0  0
 21 22  1  0  0  0  0
 21 23  2  0  0  0  0
M  CHG  1  18   1
M  END
>  <CHROM.1>
142.98433245,-162.59046765,84.74220651,80.40696905,175.45560629,-22.91929793
6.74883069,9.64246535,1.65860241,0.13585375,-1.24758593

>  <Name>


>  <RI>
0

>  <Rbt.Current_Directory>
/home/itssahil/PROJECTS/Mol_Feturizer/New_Systems/rnas/1lvj

>  <Rbt.Executable>
rbdock ($Id: //depot/dev/client3/rdock/2013.1/src/exe/rbdock.cxx#4 $)

>  <Rbt.Library>
libRbt.so (2013.1, Build901 2013/11/27)

>  <Rbt.Parameter_File>
/export/apps/rDock/src/rDock_2013.1_src/data/scripts/dock_solv.prm

>  <Rbt.Receptor>
prm/pocket_docking_6.prm

>  <SCORE>
-32.4482

>  <SCORE.INTER>
-29.8556

>  <SCORE.INTER.CONST>
1

>  <SCORE.INTER.POLAR>
0

>  <SCORE.INTER.ROT>
5

>  <SCORE.INTER.SOLV>
10.0359

>  <SCORE.INTER.VDW>
-30.1824

>  <SCORE.INTER.norm>
-1.29807

>  <SCORE.INTRA>
-2.5926

>  <SCORE.INTRA.DIHEDRAL>
-2.58489

>  <SCORE.INTRA.DIHEDRAL.0>
8.06479

>  <SCORE.INTRA.POLAR>
0

>  <SCORE.INTRA.POLAR.0>
0

>  <SCORE.INTRA.REPUL>
0

>  <SCORE.INTRA.REPUL.0>
0

>  <SCORE.INTRA.SOLV>
-0.132577

>  <SCORE.INTRA.SOLV.lig_0>
-29.8054

>  <SCORE.INTRA.VDW>
-1.23387

>  <SCORE.INTRA.VDW.0>
2.61447

>  <SCORE.INTRA.norm>
-0.112722

>  <SCORE.RESTR>
0

>  <SCORE.RESTR.CAVITY>
0

>  <SCORE.RESTR.norm>
0

>  <SCORE.SYSTEM>
0

>  <SCORE.SYSTEM.CONST>
0

>  <SCORE.SYSTEM.DIHEDRAL>
0

>  <SCORE.SYSTEM.SOLV>
0

>  <SCORE.SYSTEM.norm>
0

>  <SCORE.heavy>
23

>  <SCORE.norm>
-1.41079

>  <RMSD>
7.097

$$$$

 OpenBabel11021811403D
libRbt.so/2013.1/901 2013/11/27
 23 25  0  0  0  0  0  0  0  0999 V2000
  -26.3505    8.0093   10.7574 S   0  0  0  0  0  0  0  0  0  0  0  0
  -23.6913    6.6701   10.6931 N   0  0  0  0  0  0  0  0  0  0  0  0
  -23.1036    7.2931    8.4391 C   0  0  0  0  0  0  0  0  0  0  0  0
  -23.4393    7.9608    7.2539 C   0  0  0  0  0  0  0  0  0  0  0  0
  -24.6501    8.6389    7.1504 C   0  0  0  0  0  0  0  0  0  0  0  0
  -25.5327    8.6504    8.2249 C   0  0  0  0  0  0  0  0  0  0  0  0
  -25.2107    7.9880    9.4068 C   0  0  0  0  0  0  0  0  0  0  0  0
  -23.9938    7.3053    9.5221 C   0  0  0  0  0  0  0  0  0  0  0  0
  -26.0134    6.3198   11.1406 C   0  0  0  0  0  0  0  0  0  0  0  0
  -27.0529    5.4669   11.5229 C   0  0  0  0  0  0  0  0  0  0  0  0
  -26.7808    4.1307   11.8304 C   0  0  0  0  0  0  0  0  0  0  0  0
  -25.4683    3.6527   11.7583 C   0  0  0  0  0  0  0  0  0  0  0  0
  -24.4353    4.5096   11.3767 C   0  0  0  0  0  0  0  0  0  0  0  0
  -24.7022    5.8360   11.0664 C   0  0  0  0  0  0  0  0  0  0  0  0
  -22.2888    6.2912   10.9959 C   0  0  0  0  0  0  0  0  0  0  0  0
  -21.4059    7.3529   11.7328 C   0  0  0  0  0  0  0  0  0  0  0  0
  -21.9337    7.7201   13.1618 C   0  0  0  0  0  0  0  0  0  0  0  0
  -22.0780    6.6186   14.1476 N   0  3  0  0  0  0  0  0  0  0  0  0
  -21.0067    5.6017   13.9874 C   0  0  0  0  0  0  0  0  0  0  0  0
  -23.4468    6.0021   14.0561 C   0  0  0  0  0  0  0  0  0  0  0  0
  -22.4976    7.9474    6.0837 C   0  0  0  0  0  0  0  0  0  0  0  0
  -21.3301    6.9934    6.0089 C   0  0  0  0  0  0  0  0  0  0  0  0
  -22.7108    8.6852    5.1348 O   0  0  0  0  0  0  0  0  0  0  0  0
  1  7  1  0  0  0  0
  1  9  1  0  0  0  0
  2  8  1  0  0  0  0
  2 14  1  0  0  0  0
  2 15  1  0  0  0  0
  3  4  2  0  0  0  0
  3  8  1  0  0  0  0
  4  5  1  0  0  0  0
  4 21  1  0  0  0  0
  5  6  2  0  0  0  0
  6  7  1  0  0  0  0
  7  8  2  0  0  0  0
  9 10  2  0  0  0  0
  9 14  1  0  0  0  0
 10 11  1  0  0  0  0
 11 12  2  0  0  0  0
 12 13  1  0  0  0  0
 13 14  2  0  0  0  0
 15 16  1  0  0  0  0
 16 17  1  0  0  0  0
 17 18  1  0  0  0  0
 18 19  1  0  0  0  0
 18 20  1  0  0  0  0
 21 22  1  0  0  0  0
 21 23  2  0  0  0  0
M  CHG  1  18   1
M  END
>  <CHROM.1>
88.79082629,13.80395220,62.75783458,58.01764629,155.41997442,-23.93416086
6.84108341,10.30684753,1.64165885,0.14227743,1.91626655

>  <Name>


>  <RI>
0

>  <Rbt.Current_Directory>
/home/itssahil/PROJECTS/Mol_Feturizer/New_Systems/rnas/1lvj

>  <Rbt.Executable>
rbdock ($Id: //depot/dev/client3/rdock/2013.1/src/exe/rbdock.cxx#4 $)

>  <Rbt.Library>
libRbt.so (2013.1, Build901 2013/11/27)

>  <Rbt.Parameter_File>
/export/apps/rDock/src/rDock_2013.1_src/data/scripts/dock_solv.prm

>  <Rbt.Receptor>
prm/pocket_docking_4.prm

>  <SCORE>
-29.2294

>  <SCORE.INTER>
-26.5071

>  <SCORE.INTER.CONST>
1

>  <SCORE.INTER.POLAR>
-0.401429

>  <SCORE.INTER.ROT>
5

>  <SCORE.INTER.SOLV>
9.28139

>  <SCORE.INTER.VDW>
-26.3604

>  <SCORE.INTER.norm>
-1.15248

>  <SCORE.INTRA>
-2.72231

>  <SCORE.INTRA.DIHEDRAL>
-4.2873

>  <SCORE.INTRA.DIHEDRAL.0>
8.06479

>  <SCORE.INTRA.POLAR>
0

>  <SCORE.INTRA.POLAR.0>
0

>  <SCORE.INTRA.REPUL>
0

>  <SCORE.INTRA.REPUL.0>
0

>  <SCORE.INTRA.SOLV>
0.025809

>  <SCORE.INTRA.SOLV.lig_0>
-29.8054

>  <SCORE.INTRA.VDW>
-0.591559

>  <SCORE.INTRA.VDW.0>
2.61447

>  <SCORE.INTRA.norm>
-0.118361

>  <SCORE.RESTR>
0

>  <SCORE.RESTR.CAVITY>
0

>  <SCORE.RESTR.norm>
0

>  <SCORE.SYSTEM>
0

>  <SCORE.SYSTEM.CONST>
0

>  <SCORE.SYSTEM.DIHEDRAL>
0

>  <SCORE.SYSTEM.SOLV>
0

>  <SCORE.SYSTEM.norm>
0

>  <SCORE.heavy>
23

>  <SCORE.norm>
-1.27084

>  <RMSD>
7.100

$$$$

 OpenBabel11021811403D
libRbt.so/2013.1/901 2013/11/27
 23 25  0  0  0  0  0  0  0  0999 V2000
  -25.6054    8.3673    9.6291 S   0  0  0  0  0  0  0  0  0  0  0  0
  -22.9488    7.1005   10.0837 N   0  0  0  0  0  0  0  0  0  0  0  0
  -22.1765    7.2119    7.8022 C   0  0  0  0  0  0  0  0  0  0  0  0
  -22.4132    7.5892    6.4738 C   0  0  0  0  0  0  0  0  0  0  0  0
  -23.6118    8.2027    6.1224 C   0  0  0  0  0  0  0  0  0  0  0  0
  -24.5806    8.4382    7.0918 C   0  0  0  0  0  0  0  0  0  0  0  0
  -24.3573    8.0652    8.4147 C   0  0  0  0  0  0  0  0  0  0  0  0
  -23.1536    7.4499    8.7791 C   0  0  0  0  0  0  0  0  0  0  0  0
  -25.2997    6.8142   10.4098 C   0  0  0  0  0  0  0  0  0  0  0  0
  -26.3667    6.0490   10.8897 C   0  0  0  0  0  0  0  0  0  0  0  0
  -26.1199    4.8218   11.5118 C   0  0  0  0  0  0  0  0  0  0  0  0
  -24.8055    4.3658   11.6557 C   0  0  0  0  0  0  0  0  0  0  0  0
  -23.7452    5.1350   11.1752 C   0  0  0  0  0  0  0  0  0  0  0  0
  -23.9865    6.3520   10.5528 C   0  0  0  0  0  0  0  0  0  0  0  0
  -21.5760    6.8270   10.5765 C   0  0  0  0  0  0  0  0  0  0  0  0
  -21.1906    7.4116   11.9763 C   0  0  0  0  0  0  0  0  0  0  0  0
  -22.1818    7.0015   13.1185 C   0  0  0  0  0  0  0  0  0  0  0  0
  -22.4031    7.9719   14.2208 N   0  3  0  0  0  0  0  0  0  0  0  0
  -21.5500    7.6625   15.3972 C   0  0  0  0  0  0  0  0  0  0  0  0
  -23.8596    8.0295   14.5911 C   0  0  0  0  0  0  0  0  0  0  0  0
  -21.3774    7.3314    5.4168 C   0  0  0  0  0  0  0  0  0  0  0  0
  -21.4000    8.0432    4.0859 C   0  0  0  0  0  0  0  0  0  0  0  0
  -20.4538    6.5700    5.6565 O   0  0  0  0  0  0  0  0  0  0  0  0
  1  7  1  0  0  0  0
  1  9  1  0  0  0  0
  2  8  1  0  0  0  0
  2 14  1  0  0  0  0
  2 15  1  0  0  0  0
  3  4  2  0  0  0  0
  3  8  1  0  0  0  0
  4  5  1  0  0  0  0
  4 21  1  0  0  0  0
  5  6  2  0  0  0  0
  6  7  1  0  0  0  0
  7  8  2  0  0  0  0
  9 10  2  0  0  0  0
  9 14  1  0  0  0  0
 10 11  1  0  0  0  0
 11 12  2  0  0  0  0
 12 13  1  0  0  0  0
 13 14  2  0  0  0  0
 15 16  1  0  0  0  0
 16 17  1  0  0  0  0
 17 18  1  0  0  0  0
 18 19  1  0  0  0  0
 18 20  1  0  0  0  0
 21 22  1  0  0  0  0
 21 23  2  0  0  0  0
M  CHG  1  18   1
M  END
>  <CHROM.1>
137.39222829,-162.45206553,54.28576981,-147.63515116,23.10531908,-23.33494316
7.16933336,9.86339594,1.71904293,0.14985527,1.63335177

>  <Name>


>  <RI>
0

>  <Rbt.Current_Directory>
/home/itssahil/PROJECTS/Mol_Feturizer/New_Systems/rnas/1lvj

>  <Rbt.Executable>
rbdock ($Id: //depot/dev/client3/rdock/2013.1/src/exe/rbdock.cxx#4 $)

>  <Rbt.Library>
libRbt.so (2013.1, Build901 2013/11/27)

>  <Rbt.Parameter_File>
/export/apps/rDock/src/rDock_2013.1_src/data/scripts/dock_solv.prm

>  <Rbt.Receptor>
prm/pocket_docking_6.prm

>  <SCORE>
-31.4829

>  <SCORE.INTER>
-28.6394

>  <SCORE.INTER.CONST>
1

>  <SCORE.INTER.POLAR>
0

>  <SCORE.INTER.ROT>
5

>  <SCORE.INTER.SOLV>
10.2835

>  <SCORE.INTER.VDW>
-29.4541

>  <SCORE.INTER.norm>
-1.24519

>  <SCORE.INTRA>
-2.8435

>  <SCORE.INTRA.DIHEDRAL>
-0.0335817

>  <SCORE.INTRA.DIHEDRAL.0>
8.06479

>  <SCORE.INTRA.POLAR>
0

>  <SCORE.INTRA.POLAR.0>
0

>  <SCORE.INTRA.REPUL>
0

>  <SCORE.INTRA.REPUL.0>
0

>  <SCORE.INTRA.SOLV>
1.01374

>  <SCORE.INTRA.SOLV.lig_0>
-29.8054

>  <SCORE.INTRA.VDW>
-3.33358

>  <SCORE.INTRA.VDW.0>
2.61447

>  <SCORE.INTRA.norm>
-0.12363

>  <SCORE.RESTR>
0

>  <SCORE.RESTR.CAVITY>
0

>  <SCORE.RESTR.norm>
0

>  <SCORE.SYSTEM>
0

>  <SCORE.SYSTEM.CONST>
0

>  <SCORE.SYSTEM.DIHEDRAL>
0

>  <SCORE.SYSTEM.SOLV>
0

>  <SCORE.SYSTEM.norm>
0

>  <SCORE.heavy>
23

>  <SCORE.norm>
-1.36882

>  <RMSD>
7.117

$$$$

 OpenBabel11021811403D
libRbt.so/2013.1/901 2013/11/27
 23 25  0  0  0  0  0  0  0  0999 V2000
  -25.5963    8.3866    9.2325 S   0  0  0  0  0  0  0  0  0  0  0  0
  -22.9175    7.2201    9.8093 N   0  0  0  0  0  0  0  0  0  0  0  0
  -22.0975    7.2332    7.5419 C   0  0  0  0  0  0  0  0  0  0  0  0
  -22.3143    7.5335    6.1906 C   0  0  0  0  0  0  0  0  0  0  0  0
  -23.5208    8.0939    5.7821 C   0  0  0  0  0  0  0  0  0  0  0  0
  -24.5171    8.3528    6.7170 C   0  0  0  0  0  0  0  0  0  0  0  0
  -24.3136    8.0561    8.0623 C   0  0  0  0  0  0  0  0  0  0  0  0
  -23.1023    7.4947    8.4840 C   0  0  0  0  0  0  0  0  0  0  0  0
  -25.2667    6.8858   10.1007 C   0  0  0  0  0  0  0  0  0  0  0  0
  -26.3232    6.1172   10.5980 C   0  0  0  0  0  0  0  0  0  0  0  0
  -26.0576    4.9318   11.2895 C   0  0  0  0  0  0  0  0  0  0  0  0
  -24.7350    4.5209   11.4850 C   0  0  0  0  0  0  0  0  0  0  0  0
  -23.6852    5.2931   10.9866 C   0  0  0  0  0  0  0  0  0  0  0  0
  -23.9451    6.4686   10.2956 C   0  0  0  0  0  0  0  0  0  0  0  0
  -21.5493    7.0114   10.3446 C   0  0  0  0  0  0  0  0  0  0  0  0
  -21.3656    7.1184   11.8954 C   0  0  0  0  0  0  0  0  0  0  0  0
  -21.2001    5.7295   12.6016 C   0  0  0  0  0  0  0  0  0  0  0  0
  -21.1463    5.7127   14.0857 N   0  3  0  0  0  0  0  0  0  0  0  0
  -19.9914    6.4953   14.5969 C   0  0  0  0  0  0  0  0  0  0  0  0
  -21.1298    4.2992   14.5991 C   0  0  0  0  0  0  0  0  0  0  0  0
  -21.2486    7.2496    5.1708 C   0  0  0  0  0  0  0  0  0  0  0  0
  -21.2818    7.8586    3.7900 C   0  0  0  0  0  0  0  0  0  0  0  0
  -20.2936    6.5549    5.4800 O   0  0  0  0  0  0  0  0  0  0  0  0
  1  7  1  0  0  0  0
  1  9  1  0  0  0  0
  2  8  1  0  0  0  0
  2 14  1  0  0  0  0
  2 15  1  0  0  0  0
  3  4  2  0  0  0  0
  3  8  1  0  0  0  0
  4  5  1  0  0  0  0
  4 21  1  0  0  0  0
  5  6  2  0  0  0  0
  6  7  1  0  0  0  0
  7  8  2  0  0  0  0
  9 10  2  0  0  0  0
  9 14  1  0  0  0  0
 10 11  1  0  0  0  0
 11 12  2  0  0  0  0
 12 13  1  0  0  0  0
 13 14  2  0  0  0  0
 15 16  1  0  0  0  0
 16 17  1  0  0  0  0
 17 18  1  0  0  0  0
 18 19  1  0  0  0  0
 18 20  1  0  0  0  0
 21 22  1  0  0  0  0
 21 23  2  0  0  0  0
M  CHG  1  18   1
M  END
>  <CHROM.1>
162.59417966,-164.24716491,104.39972373,-174.43398661,58.97301781,-22.99927787
6.79373775,9.57719370,1.64071017,0.08095321,-1.29818782

>  <Name>


>  <RI>
0

>  <Rbt.Current_Directory>
/home/itssahil/PROJECTS/Mol_Feturizer/New_Systems/rnas/1lvj

>  <Rbt.Executable>
rbdock ($Id: //depot/dev/client3/rdock/2013.1/src/exe/rbdock.cxx#4 $)

>  <Rbt.Library>
libRbt.so (2013.1, Build901 2013/11/27)

>  <Rbt.Parameter_File>
/export/apps/rDock/src/rDock_2013.1_src/data/scripts/dock_solv.prm

>  <Rbt.Receptor>
prm/pocket_docking_5.prm

>  <SCORE>
-30.7514

>  <SCORE.INTER>
-28.4497

>  <SCORE.INTER.CONST>
1

>  <SCORE.INTER.POLAR>
0

>  <SCORE.INTER.ROT>
5

>  <SCORE.INTER.SOLV>
10.4614

>  <SCORE.INTER.VDW>
-29.387

>  <SCORE.INTER.norm>
-1.23694

>  <SCORE.INTRA>
-2.30992

>  <SCORE.INTRA.DIHEDRAL>
-2.236

>  <SCORE.INTRA.DIHEDRAL.0>
8.06479

>  <SCORE.INTRA.POLAR>
0

>  <SCORE.INTRA.POLAR.0>
0

>  <SCORE.INTRA.REPUL>
0

>  <SCORE.INTRA.REPUL.0>
0

>  <SCORE.INTRA.SOLV>
0.649415

>  <SCORE.INTRA.SOLV.lig_0>
-29.8054

>  <SCORE.INTRA.VDW>
-1.51663

>  <SCORE.INTRA.VDW.0>
2.61447

>  <SCORE.INTRA.norm>
-0.100431

>  <SCORE.RESTR>
0.00824355

>  <SCORE.RESTR.CAVITY>
0.00824355

>  <SCORE.RESTR.norm>
0.000358415

>  <SCORE.SYSTEM>
0

>  <SCORE.SYSTEM.CONST>
0

>  <SCORE.SYSTEM.DIHEDRAL>
0

>  <SCORE.SYSTEM.SOLV>
0

>  <SCORE.SYSTEM.norm>
0

>  <SCORE.heavy>
23

>  <SCORE.norm>
-1.33702

>  <RMSD>
7.161

$$$$

 OpenBabel11021811403D
libRbt.so/2013.1/901 2013/11/27
 23 25  0  0  0  0  0  0  0  0999 V2000
  -25.6019    8.3681    9.6250 S   0  0  0  0  0  0  0  0  0  0  0  0
  -22.9466    7.0979   10.0778 N   0  0  0  0  0  0  0  0  0  0  0  0
  -22.1762    7.2072    7.7955 C   0  0  0  0  0  0  0  0  0  0  0  0
  -22.4136    7.5842    6.4671 C   0  0  0  0  0  0  0  0  0  0  0  0
  -23.6117    8.1991    6.1166 C   0  0  0  0  0  0  0  0  0  0  0  0
  -24.5793    8.4364    7.0867 C   0  0  0  0  0  0  0  0  0  0  0  0
  -24.3553    8.0637    8.4096 C   0  0  0  0  0  0  0  0  0  0  0  0
  -23.1521    7.4470    8.7732 C   0  0  0  0  0  0  0  0  0  0  0  0
  -25.2976    6.8150   10.4061 C   0  0  0  0  0  0  0  0  0  0  0  0
  -26.3651    6.0513   10.8874 C   0  0  0  0  0  0  0  0  0  0  0  0
  -26.1194    4.8242   11.5099 C   0  0  0  0  0  0  0  0  0  0  0  0
  -24.8055    4.3664   11.6528 C   0  0  0  0  0  0  0  0  0  0  0  0
  -23.7445    5.1340   11.1709 C   0  0  0  0  0  0  0  0  0  0  0  0
  -23.9849    6.3511   10.5482 C   0  0  0  0  0  0  0  0  0  0  0  0
  -21.5737    6.8229   10.5694 C   0  0  0  0  0  0  0  0  0  0  0  0
  -21.1481    7.5009   11.9144 C   0  0  0  0  0  0  0  0  0  0  0  0
  -22.2081    7.3403   13.0572 C   0  0  0  0  0  0  0  0  0  0  0  0
  -22.1851    8.3313   14.1632 N   0  3  0  0  0  0  0  0  0  0  0  0
  -21.0848    8.0513   15.1216 C   0  0  0  0  0  0  0  0  0  0  0  0
  -23.5208    8.3869   14.8522 C   0  0  0  0  0  0  0  0  0  0  0  0
  -21.3792    7.3245    5.4093 C   0  0  0  0  0  0  0  0  0  0  0  0
  -21.4028    8.0348    4.0776 C   0  0  0  0  0  0  0  0  0  0  0  0
  -20.4557    6.5629    5.6489 O   0  0  0  0  0  0  0  0  0  0  0  0
  1  7  1  0  0  0  0
  1  9  1  0  0  0  0
  2  8  1  0  0  0  0
  2 14  1  0  0  0  0
  2 15  1  0  0  0  0
  3  4  2  0  0  0  0
  3  8  1  0  0  0  0
  4  5  1  0  0  0  0
  4 21  1  0  0  0  0
  5  6  2  0  0  0  0
  6  7  1  0  0  0  0
  7  8  2  0  0  0  0
  9 10  2  0  0  0  0
  9 14  1  0  0  0  0
 10 11  1  0  0  0  0
 11 12  2  0  0  0  0
 12 13  1  0  0  0  0
 13 14  2  0  0  0  0
 15 16  1  0  0  0  0
 16 17  1  0  0  0  0
 17 18  1  0  0  0  0
 18 19  1  0  0  0  0
 18 20  1  0  0  0  0
 21 22  1  0  0  0  0
 21 23  2  0  0  0  0
M  CHG  1  18   1
M  END
>  <CHROM.1>
132.68582569,-162.51118339,47.94442532,-157.07090485,42.66091503,-23.28693218
7.23661811,9.85052447,1.69435683,0.22653865,1.59129775

>  <Name>


>  <RI>
0

>  <Rbt.Current_Directory>
/home/itssahil/PROJECTS/Mol_Feturizer/New_Systems/rnas/1lvj

>  <Rbt.Executable>
rbdock ($Id: //depot/dev/client3/rdock/2013.1/src/exe/rbdock.cxx#4 $)

>  <Rbt.Library>
libRbt.so (2013.1, Build901 2013/11/27)

>  <Rbt.Parameter_File>
/export/apps/rDock/src/rDock_2013.1_src/data/scripts/dock_solv.prm

>  <Rbt.Receptor>
prm/pocket_docking_5.prm

>  <SCORE>
-32.7129

>  <SCORE.INTER>
-28.638

>  <SCORE.INTER.CONST>
1

>  <SCORE.INTER.POLAR>
0

>  <SCORE.INTER.ROT>
5

>  <SCORE.INTER.SOLV>
10.5205

>  <SCORE.INTER.VDW>
-29.5322

>  <SCORE.INTER.norm>
-1.24513

>  <SCORE.INTRA>
-4.07487

>  <SCORE.INTRA.DIHEDRAL>
-2.47831

>  <SCORE.INTRA.DIHEDRAL.0>
8.06479

>  <SCORE.INTRA.POLAR>
0

>  <SCORE.INTRA.POLAR.0>
0

>  <SCORE.INTRA.REPUL>
0

>  <SCORE.INTRA.REPUL.0>
0

>  <SCORE.INTRA.SOLV>
0.755616

>  <SCORE.INTRA.SOLV.lig_0>
-29.8054

>  <SCORE.INTRA.VDW>
-3.21353

>  <SCORE.INTRA.VDW.0>
2.61447

>  <SCORE.INTRA.norm>
-0.177168

>  <SCORE.RESTR>
0

>  <SCORE.RESTR.CAVITY>
0

>  <SCORE.RESTR.norm>
0

>  <SCORE.SYSTEM>
0

>  <SCORE.SYSTEM.CONST>
0

>  <SCORE.SYSTEM.DIHEDRAL>
0

>  <SCORE.SYSTEM.SOLV>
0

>  <SCORE.SYSTEM.norm>
0

>  <SCORE.heavy>
23

>  <SCORE.norm>
-1.4223

>  <RMSD>
7.176

$$$$

 OpenBabel11021811403D
libRbt.so/2013.1/901 2013/11/27
 23 25  0  0  0  0  0  0  0  0999 V2000
  -25.7298    8.1493   10.2693 S   0  0  0  0  0  0  0  0  0  0  0  0
  -22.9408    7.1050   10.2806 N   0  0  0  0  0  0  0  0  0  0  0  0
  -22.4940    7.4365    7.9344 C   0  0  0  0  0  0  0  0  0  0  0  0
  -22.9374    7.8769    6.6804 C   0  0  0  0  0  0  0  0  0  0  0  0
  -24.2189    8.3993    6.5339 C   0  0  0  0  0  0  0  0  0  0  0  0
  -25.0647    8.4806    7.6347 C   0  0  0  0  0  0  0  0  0  0  0  0
  -24.6356    8.0436    8.8853 C   0  0  0  0  0  0  0  0  0  0  0  0
  -23.3472    7.5191    9.0439 C   0  0  0  0  0  0  0  0  0  0  0  0
  -25.1948    6.5831   10.8821 C   0  0  0  0  0  0  0  0  0  0  0  0
  -26.1207    5.6931   11.4343 C   0  0  0  0  0  0  0  0  0  0  0  0
  -25.6921    4.4556   11.9231 C   0  0  0  0  0  0  0  0  0  0  0  0
  -24.3372    4.1139   11.8617 C   0  0  0  0  0  0  0  0  0  0  0  0
  -23.4182    5.0073   11.3101 C   0  0  0  0  0  0  0  0  0  0  0  0
  -23.8407    6.2352   10.8196 C   0  0  0  0  0  0  0  0  0  0  0  0
  -21.4964    6.9272   10.5708 C   0  0  0  0  0  0  0  0  0  0  0  0
  -20.9499    7.5652   11.8915 C   0  0  0  0  0  0  0  0  0  0  0  0
  -21.7766    7.1720   13.1632 C   0  0  0  0  0  0  0  0  0  0  0  0
  -22.4361    8.2653   13.9220 N   0  3  0  0  0  0  0  0  0  0  0  0
  -23.4238    8.9911   13.0823 C   0  0  0  0  0  0  0  0  0  0  0  0
  -21.4108    9.1986   14.5048 C   0  0  0  0  0  0  0  0  0  0  0  0
  -22.0355    7.7853    5.4826 C   0  0  0  0  0  0  0  0  0  0  0  0
  -20.9115    6.7807    5.4040 C   0  0  0  0  0  0  0  0  0  0  0  0
  -22.2487    8.5001    4.5163 O   0  0  0  0  0  0  0  0  0  0  0  0
  1  7  1  0  0  0  0
  1  9  1  0  0  0  0
  2  8  1  0  0  0  0
  2 14  1  0  0  0  0
  2 15  1  0  0  0  0
  3  4  2  0  0  0  0
  3  8  1  0  0  0  0
  4  5  1  0  0  0  0
  4 21  1  0  0  0  0
  5  6  2  0  0  0  0
  6  7  1  0  0  0  0
  7  8  2  0  0  0  0
  9 10  2  0  0  0  0
  9 14  1  0  0  0  0
 10 11  1  0  0  0  0
 11 12  2  0  0  0  0
 12 13  1  0  0  0  0
 13 14  2  0  0  0  0
 15 16  1  0  0  0  0
 16 17  1  0  0  0  0
 17 18  1  0  0  0  0
 18 19  1  0  0  0  0
 18 20  1  0  0  0  0
 21 22  1  0  0  0  0
 21 23  2  0  0  0  0
M  CHG  1  18   1
M  END
>  <CHROM.1>
132.01920841,24.79004482,51.66093078,-118.78545169,-179.09359308,-23.40734151
7.31759684,9.97565859,1.65650145,0.41548555,1.63749114

>  <Name>


>  <RI>
0

>  <Rbt.Current_Directory>
/home/itssahil/PROJECTS/Mol_Feturizer/New_Systems/rnas/1lvj

>  <Rbt.Executable>
rbdock ($Id: //depot/dev/client3/rdock/2013.1/src/exe/rbdock.cxx#4 $)

>  <Rbt.Library>
libRbt.so (2013.1, Build901 2013/11/27)

>  <Rbt.Parameter_File>
/export/apps/rDock/src/rDock_2013.1_src/data/scripts/dock_solv.prm

>  <Rbt.Receptor>
prm/pocket_docking_6.prm

>  <SCORE>
-33.5807

>  <SCORE.INTER>
-31.1101

>  <SCORE.INTER.CONST>
1

>  <SCORE.INTER.POLAR>
-0.579092

>  <SCORE.INTER.ROT>
5

>  <SCORE.INTER.SOLV>
9.50249

>  <SCORE.INTER.VDW>
-28.9106

>  <SCORE.INTER.norm>
-1.35261

>  <SCORE.INTRA>
-2.47055

>  <SCORE.INTRA.DIHEDRAL>
1.25134

>  <SCORE.INTRA.DIHEDRAL.0>
8.06479

>  <SCORE.INTRA.POLAR>
0

>  <SCORE.INTRA.POLAR.0>
0

>  <SCORE.INTRA.REPUL>
0

>  <SCORE.INTRA.REPUL.0>
0

>  <SCORE.INTRA.SOLV>
-0.172222

>  <SCORE.INTRA.SOLV.lig_0>
-29.8054

>  <SCORE.INTRA.VDW>
-3.01011

>  <SCORE.INTRA.VDW.0>
2.61447

>  <SCORE.INTRA.norm>
-0.107415

>  <SCORE.RESTR>
0

>  <SCORE.RESTR.CAVITY>
0

>  <SCORE.RESTR.norm>
0

>  <SCORE.SYSTEM>
0

>  <SCORE.SYSTEM.CONST>
0

>  <SCORE.SYSTEM.DIHEDRAL>
0

>  <SCORE.SYSTEM.SOLV>
0

>  <SCORE.SYSTEM.norm>
0

>  <SCORE.heavy>
23

>  <SCORE.norm>
-1.46003

>  <RMSD>
7.177

$$$$

 OpenBabel11021811403D
libRbt.so/2013.1/901 2013/11/27
 23 25  0  0  0  0  0  0  0  0999 V2000
  -26.6107    8.2762   10.4752 S   0  0  0  0  0  0  0  0  0  0  0  0
  -23.7993    7.4947   11.0702 N   0  0  0  0  0  0  0  0  0  0  0  0
  -22.9982    7.5277    8.7962 C   0  0  0  0  0  0  0  0  0  0  0  0
  -23.2586    7.7445    7.4367 C   0  0  0  0  0  0  0  0  0  0  0  0
  -24.5301    8.1255    7.0188 C   0  0  0  0  0  0  0  0  0  0  0  0
  -25.5477    8.2873    7.9527 C   0  0  0  0  0  0  0  0  0  0  0  0
  -25.3009    8.0721    9.3062 C   0  0  0  0  0  0  0  0  0  0  0  0
  -24.0245    7.6913    9.7373 C   0  0  0  0  0  0  0  0  0  0  0  0
  -26.0827    6.8664   11.3963 C   0  0  0  0  0  0  0  0  0  0  0  0
  -27.0267    5.9856   11.9322 C   0  0  0  0  0  0  0  0  0  0  0  0
  -26.6044    4.8729   12.6653 C   0  0  0  0  0  0  0  0  0  0  0  0
  -25.2384    4.6470   12.8636 C   0  0  0  0  0  0  0  0  0  0  0  0
  -24.3015    5.5305   12.3265 C   0  0  0  0  0  0  0  0  0  0  0  0
  -24.7168    6.6342   11.5942 C   0  0  0  0  0  0  0  0  0  0  0  0
  -22.4131    7.4882   11.6000 C   0  0  0  0  0  0  0  0  0  0  0  0
  -21.4286    6.4240   11.0102 C   0  0  0  0  0  0  0  0  0  0  0  0
  -21.4918    5.0409   11.7439 C   0  0  0  0  0  0  0  0  0  0  0  0
  -20.8534    4.9401   13.0812 N   0  3  0  0  0  0  0  0  0  0  0  0
  -20.7723    3.5293   13.5400 C   0  0  0  0  0  0  0  0  0  0  0  0
  -21.5721    5.8075   14.0777 C   0  0  0  0  0  0  0  0  0  0  0  0
  -22.1694    7.5638    6.4182 C   0  0  0  0  0  0  0  0  0  0  0  0
  -22.4391    7.6536    4.9357 C   0  0  0  0  0  0  0  0  0  0  0  0
  -21.0197    7.3987    6.7938 O   0  0  0  0  0  0  0  0  0  0  0  0
  1  7  1  0  0  0  0
  1  9  1  0  0  0  0
  2  8  1  0  0  0  0
  2 14  1  0  0  0  0
  2 15  1  0  0  0  0
  3  4  2  0  0  0  0
  3  8  1  0  0  0  0
  4  5  1  0  0  0  0
  4 21  1  0  0  0  0
  5  6  2  0  0  0  0
  6  7  1  0  0  0  0
  7  8  2  0  0  0  0
  9 10  2  0  0  0  0
  9 14  1  0  0  0  0
 10 11  1  0  0  0  0
 11 12  2  0  0  0  0
 12 13  1  0  0  0  0
 13 14  2  0  0  0  0
 15 16  1  0  0  0  0
 16 17  1  0  0  0  0
 17 18  1  0  0  0  0
 18 19  1  0  0  0  0
 18 20  1  0  0  0  0
 21 22  1  0  0  0  0
 21 23  2  0  0  0  0
M  CHG  1  18   1
M  END
>  <CHROM.1>
-59.05769205,173.84934681,-86.61055393,-75.18603131,-49.59849774,-23.72218341
6.73490515,10.37109805,1.65100142,0.23897630,-1.15296646

>  <Name>


>  <RI>
0

>  <Rbt.Current_Directory>
/home/itssahil/PROJECTS/Mol_Feturizer/New_Systems/rnas/1lvj

>  <Rbt.Executable>
rbdock ($Id: //depot/dev/client3/rdock/2013.1/src/exe/rbdock.cxx#4 $)

>  <Rbt.Library>
libRbt.so (2013.1, Build901 2013/11/27)

>  <Rbt.Parameter_File>
/export/apps/rDock/src/rDock_2013.1_src/data/scripts/dock_solv.prm

>  <Rbt.Receptor>
prm/pocket_docking_4.prm

>  <SCORE>
-23.7665

>  <SCORE.INTER>
-22.6828

>  <SCORE.INTER.CONST>
1

>  <SCORE.INTER.POLAR>
0

>  <SCORE.INTER.ROT>
5

>  <SCORE.INTER.SOLV>
7.44191

>  <SCORE.INTER.VDW>
-24.5358

>  <SCORE.INTER.norm>
-0.986207

>  <SCORE.INTRA>
-1.57224

>  <SCORE.INTRA.DIHEDRAL>
-4.11357

>  <SCORE.INTRA.DIHEDRAL.0>
8.06479

>  <SCORE.INTRA.POLAR>
0

>  <SCORE.INTRA.POLAR.0>
0

>  <SCORE.INTRA.REPUL>
0

>  <SCORE.INTRA.REPUL.0>
0

>  <SCORE.INTRA.SOLV>
1.33592

>  <SCORE.INTRA.SOLV.lig_0>
-29.8054

>  <SCORE.INTRA.VDW>
-0.183417

>  <SCORE.INTRA.VDW.0>
2.61447

>  <SCORE.INTRA.norm>
-0.0683585

>  <SCORE.RESTR>
0.488519

>  <SCORE.RESTR.CAVITY>
0.488519

>  <SCORE.RESTR.norm>
0.02124

>  <SCORE.SYSTEM>
0

>  <SCORE.SYSTEM.CONST>
0

>  <SCORE.SYSTEM.DIHEDRAL>
0

>  <SCORE.SYSTEM.SOLV>
0

>  <SCORE.SYSTEM.norm>
0

>  <SCORE.heavy>
23

>  <SCORE.norm>
-1.03333

>  <RMSD>
7.184

$$$$

 OpenBabel11021811403D
libRbt.so/2013.1/901 2013/11/27
 23 25  0  0  0  0  0  0  0  0999 V2000
  -25.7315    8.2690    9.4263 S   0  0  0  0  0  0  0  0  0  0  0  0
  -23.0173    7.1866   10.0015 N   0  0  0  0  0  0  0  0  0  0  0  0
  -22.1900    7.2513    7.7376 C   0  0  0  0  0  0  0  0  0  0  0  0
  -22.4118    7.5586    6.3887 C   0  0  0  0  0  0  0  0  0  0  0  0
  -23.6348    8.0828    5.9813 C   0  0  0  0  0  0  0  0  0  0  0  0
  -24.6426    8.2983    6.9150 C   0  0  0  0  0  0  0  0  0  0  0  0
  -24.4342    7.9942    8.2578 C   0  0  0  0  0  0  0  0  0  0  0  0
  -23.2064    7.4691    8.6784 C   0  0  0  0  0  0  0  0  0  0  0  0
  -25.3550    6.7709   10.2799 C   0  0  0  0  0  0  0  0  0  0  0  0
  -26.3870    5.9622   10.7649 C   0  0  0  0  0  0  0  0  0  0  0  0
  -26.0845    4.7789   11.4448 C   0  0  0  0  0  0  0  0  0  0  0  0
  -24.7496    4.4103   11.6412 C   0  0  0  0  0  0  0  0  0  0  0  0
  -23.7244    5.2225   11.1552 C   0  0  0  0  0  0  0  0  0  0  0  0
  -24.0209    6.3960   10.4757 C   0  0  0  0  0  0  0  0  0  0  0  0
  -21.6448    7.0180   10.5400 C   0  0  0  0  0  0  0  0  0  0  0  0
  -21.4801    7.0483   12.0962 C   0  0  0  0  0  0  0  0  0  0  0  0
  -22.2978    8.1919   12.7883 C   0  0  0  0  0  0  0  0  0  0  0  0
  -22.2562    8.2690   14.2709 N   0  3  0  0  0  0  0  0  0  0  0  0
  -23.3354    9.1423   14.8004 C   0  0  0  0  0  0  0  0  0  0  0  0
  -20.8993    8.7169   14.7400 C   0  0  0  0  0  0  0  0  0  0  0  0
  -21.3335    7.3214    5.3702 C   0  0  0  0  0  0  0  0  0  0  0  0
  -21.3116    8.0465    4.0464 C   0  0  0  0  0  0  0  0  0  0  0  0
  -20.4123    6.5665    5.6380 O   0  0  0  0  0  0  0  0  0  0  0  0
  1  7  1  0  0  0  0
  1  9  1  0  0  0  0
  2  8  1  0  0  0  0
  2 14  1  0  0  0  0
  2 15  1  0  0  0  0
  3  4  2  0  0  0  0
  3  8  1  0  0  0  0
  4  5  1  0  0  0  0
  4 21  1  0  0  0  0
  5  6  2  0  0  0  0
  6  7  1  0  0  0  0
  7  8  2  0  0  0  0
  9 10  2  0  0  0  0
  9 14  1  0  0  0  0
 10 11  1  0  0  0  0
 11 12  2  0  0  0  0
 12 13  1  0  0  0  0
 13 14  2  0  0  0  0
 15 16  1  0  0  0  0
 16 17  1  0  0  0  0
 17 18  1  0  0  0  0
 18 19  1  0  0  0  0
 18 20  1  0  0  0  0
 21 22  1  0  0  0  0
 21 23  2  0  0  0  0
M  CHG  1  18   1
M  END
>  <CHROM.1>
165.34789926,-158.23055070,-44.03077509,177.36291490,-44.83808191,-23.31145634
7.30237206,9.76456216,1.45591261,-0.30329767,-1.60298671

>  <Name>


>  <RI>
0

>  <Rbt.Current_Directory>
/home/itssahil/PROJECTS/Mol_Feturizer/New_Systems/rnas/1lvj

>  <Rbt.Executable>
rbdock ($Id: //depot/dev/client3/rdock/2013.1/src/exe/rbdock.cxx#4 $)

>  <Rbt.Library>
libRbt.so (2013.1, Build901 2013/11/27)

>  <Rbt.Parameter_File>
/export/apps/rDock/src/rDock_2013.1_src/data/scripts/dock_solv.prm

>  <Rbt.Receptor>
prm/pocket_docking_5.prm

>  <SCORE>
-33.8203

>  <SCORE.INTER>
-29.2821

>  <SCORE.INTER.CONST>
1

>  <SCORE.INTER.POLAR>
0

>  <SCORE.INTER.ROT>
5

>  <SCORE.INTER.SOLV>
10.2806

>  <SCORE.INTER.VDW>
-29.8816

>  <SCORE.INTER.norm>
-1.27313

>  <SCORE.INTRA>
-4.5389

>  <SCORE.INTRA.DIHEDRAL>
-4.92862

>  <SCORE.INTRA.DIHEDRAL.0>
8.06479

>  <SCORE.INTRA.POLAR>
0

>  <SCORE.INTRA.POLAR.0>
0

>  <SCORE.INTRA.REPUL>
0

>  <SCORE.INTRA.REPUL.0>
0

>  <SCORE.INTRA.SOLV>
0.583443

>  <SCORE.INTRA.SOLV.lig_0>
-29.8054

>  <SCORE.INTRA.VDW>
-2.36631

>  <SCORE.INTRA.VDW.0>
2.61447

>  <SCORE.INTRA.norm>
-0.197343

>  <SCORE.RESTR>
0.00070145

>  <SCORE.RESTR.CAVITY>
0.00070145

>  <SCORE.RESTR.norm>
3.04978e-05

>  <SCORE.SYSTEM>
0

>  <SCORE.SYSTEM.CONST>
0

>  <SCORE.SYSTEM.DIHEDRAL>
0

>  <SCORE.SYSTEM.SOLV>
0

>  <SCORE.SYSTEM.norm>
0

>  <SCORE.heavy>
23

>  <SCORE.norm>
-1.47045

>  <RMSD>
7.184

$$$$

 OpenBabel11021811403D
libRbt.so/2013.1/901 2013/11/27
 23 25  0  0  0  0  0  0  0  0999 V2000
  -25.6174    8.3575    9.5849 S   0  0  0  0  0  0  0  0  0  0  0  0
  -22.9538    7.1129   10.0596 N   0  0  0  0  0  0  0  0  0  0  0  0
  -22.1739    7.2107    7.7801 C   0  0  0  0  0  0  0  0  0  0  0  0
  -22.4083    7.5754    6.4477 C   0  0  0  0  0  0  0  0  0  0  0  0
  -23.6099    8.1776    6.0869 C   0  0  0  0  0  0  0  0  0  0  0  0
  -24.5838    8.4145    7.0508 C   0  0  0  0  0  0  0  0  0  0  0  0
  -24.3628    8.0540    8.3776 C   0  0  0  0  0  0  0  0  0  0  0  0
  -23.1562    7.4501    8.7514 C   0  0  0  0  0  0  0  0  0  0  0  0
  -25.3039    6.8131   10.3796 C   0  0  0  0  0  0  0  0  0  0  0  0
  -26.3672    6.0445   10.8620 C   0  0  0  0  0  0  0  0  0  0  0  0
  -26.1143    4.8243   11.4952 C   0  0  0  0  0  0  0  0  0  0  0  0
  -24.7974    4.3785   11.6476 C   0  0  0  0  0  0  0  0  0  0  0  0
  -23.7406    5.1510   11.1645 C   0  0  0  0  0  0  0  0  0  0  0  0
  -23.9880    6.3612   10.5312 C   0  0  0  0  0  0  0  0  0  0  0  0
  -21.5810    6.8530   10.5596 C   0  0  0  0  0  0  0  0  0  0  0  0
  -21.1374    7.6121   11.8545 C   0  0  0  0  0  0  0  0  0  0  0  0
  -22.1785    7.5164   13.0217 C   0  0  0  0  0  0  0  0  0  0  0  0
  -22.1110    8.5441   14.0918 N   0  3  0  0  0  0  0  0  0  0  0  0
  -22.3962    9.9020   13.5604 C   0  0  0  0  0  0  0  0  0  0  0  0
  -20.7822    8.4907   14.7942 C   0  0  0  0  0  0  0  0  0  0  0  0
  -21.3670    7.3159    5.3966 C   0  0  0  0  0  0  0  0  0  0  0  0
  -21.3840    8.0238    4.0635 C   0  0  0  0  0  0  0  0  0  0  0  0
  -20.4435    6.5566    5.6431 O   0  0  0  0  0  0  0  0  0  0  0  0
  1  7  1  0  0  0  0
  1  9  1  0  0  0  0
  2  8  1  0  0  0  0
  2 14  1  0  0  0  0
  2 15  1  0  0  0  0
  3  4  2  0  0  0  0
  3  8  1  0  0  0  0
  4  5  1  0  0  0  0
  4 21  1  0  0  0  0
  5  6  2  0  0  0  0
  6  7  1  0  0  0  0
  7  8  2  0  0  0  0
  9 10  2  0  0  0  0
  9 14  1  0  0  0  0
 10 11  1  0  0  0  0
 11 12  2  0  0  0  0
 12 13  1  0  0  0  0
 13 14  2  0  0  0  0
 15 16  1  0  0  0  0
 16 17  1  0  0  0  0
 17 18  1  0  0  0  0
 18 19  1  0  0  0  0
 18 20  1  0  0  0  0
 21 22  1  0  0  0  0
 21 23  2  0  0  0  0
M  CHG  1  18   1
M  END
>  <CHROM.1>
129.11101900,-162.00546392,49.08745162,-159.23425150,-176.28346106,-23.21901729
7.34373193,9.75611126,1.66458223,0.35204425,1.54157204

>  <Name>


>  <RI>
0

>  <Rbt.Current_Directory>
/home/itssahil/PROJECTS/Mol_Feturizer/New_Systems/rnas/1lvj

>  <Rbt.Executable>
rbdock ($Id: //depot/dev/client3/rdock/2013.1/src/exe/rbdock.cxx#4 $)

>  <Rbt.Library>
libRbt.so (2013.1, Build901 2013/11/27)

>  <Rbt.Parameter_File>
/export/apps/rDock/src/rDock_2013.1_src/data/scripts/dock_solv.prm

>  <Rbt.Receptor>
prm/pocket_docking_7.prm

>  <SCORE>
-33.9592

>  <SCORE.INTER>
-30.1195

>  <SCORE.INTER.CONST>
1

>  <SCORE.INTER.POLAR>
0

>  <SCORE.INTER.ROT>
5

>  <SCORE.INTER.SOLV>
10.5389

>  <SCORE.INTER.VDW>
-30.526

>  <SCORE.INTER.norm>
-1.30954

>  <SCORE.INTRA>
-3.8397

>  <SCORE.INTRA.DIHEDRAL>
-3.42327

>  <SCORE.INTRA.DIHEDRAL.0>
8.06479

>  <SCORE.INTRA.POLAR>
0

>  <SCORE.INTRA.POLAR.0>
0

>  <SCORE.INTRA.REPUL>
0

>  <SCORE.INTRA.REPUL.0>
0

>  <SCORE.INTRA.SOLV>
-0.435314

>  <SCORE.INTRA.SOLV.lig_0>
-29.8054

>  <SCORE.INTRA.VDW>
-1.9104

>  <SCORE.INTRA.VDW.0>
2.61447

>  <SCORE.INTRA.norm>
-0.166943

>  <SCORE.RESTR>
0

>  <SCORE.RESTR.CAVITY>
0

>  <SCORE.RESTR.norm>
0

>  <SCORE.SYSTEM>
0

>  <SCORE.SYSTEM.CONST>
0

>  <SCORE.SYSTEM.DIHEDRAL>
0

>  <SCORE.SYSTEM.SOLV>
0

>  <SCORE.SYSTEM.norm>
0

>  <SCORE.heavy>
23

>  <SCORE.norm>
-1.47649

>  <RMSD>
7.196

$$$$

 OpenBabel11021811403D
libRbt.so/2013.1/901 2013/11/27
 23 25  0  0  0  0  0  0  0  0999 V2000
  -25.1659    9.1000   11.2795 S   0  0  0  0  0  0  0  0  0  0  0  0
  -26.5167    6.4459   11.2568 N   0  0  0  0  0  0  0  0  0  0  0  0
  -26.6255    6.1927    8.8614 C   0  0  0  0  0  0  0  0  0  0  0  0
  -26.3452    6.7054    7.5880 C   0  0  0  0  0  0  0  0  0  0  0  0
  -25.7059    7.9340    7.4523 C   0  0  0  0  0  0  0  0  0  0  0  0
  -25.3476    8.6581    8.5841 C   0  0  0  0  0  0  0  0  0  0  0  0
  -25.6234    8.1595    9.8547 C   0  0  0  0  0  0  0  0  0  0  0  0
  -26.2638    6.9232   10.0021 C   0  0  0  0  0  0  0  0  0  0  0  0
  -26.6641    8.6744   12.1097 C   0  0  0  0  0  0  0  0  0  0  0  0
  -27.3369    9.6307   12.8758 C   0  0  0  0  0  0  0  0  0  0  0  0
  -28.5205    9.2881   13.5359 C   0  0  0  0  0  0  0  0  0  0  0  0
  -29.0253    7.9879   13.4308 C   0  0  0  0  0  0  0  0  0  0  0  0
  -28.3482    7.0380   12.6651 C   0  0  0  0  0  0  0  0  0  0  0  0
  -27.1750    7.3757   12.0046 C   0  0  0  0  0  0  0  0  0  0  0  0
  -26.8144    5.0067   11.4620 C   0  0  0  0  0  0  0  0  0  0  0  0
  -25.7776    4.1740   12.2875 C   0  0  0  0  0  0  0  0  0  0  0  0
  -26.3267    2.7842   12.7587 C   0  0  0  0  0  0  0  0  0  0  0  0
  -27.4836    2.7798   13.6901 N   0  3  0  0  0  0  0  0  0  0  0  0
  -27.1087    3.3126   15.0255 C   0  0  0  0  0  0  0  0  0  0  0  0
  -28.0784    1.4020   13.7893 C   0  0  0  0  0  0  0  0  0  0  0  0
  -26.7359    5.9360    6.3584 C   0  0  0  0  0  0  0  0  0  0  0  0
  -26.3445    6.3911    4.9734 C   0  0  0  0  0  0  0  0  0  0  0  0
  -27.3359    4.8797    6.4784 O   0  0  0  0  0  0  0  0  0  0  0  0
  1  7  1  0  0  0  0
  1  9  1  0  0  0  0
  2  8  1  0  0  0  0
  2 14  1  0  0  0  0
  2 15  1  0  0  0  0
  3  4  2  0  0  0  0
  3  8  1  0  0  0  0
  4  5  1  0  0  0  0
  4 21  1  0  0  0  0
  5  6  2  0  0  0  0
  6  7  1  0  0  0  0
  7  8  2  0  0  0  0
  9 10  2  0  0  0  0
  9 14  1  0  0  0  0
 10 11  1  0  0  0  0
 11 12  2  0  0  0  0
 12 13  1  0  0  0  0
 13 14  2  0  0  0  0
 15 16  1  0  0  0  0
 16 17  1  0  0  0  0
 17 18  1  0  0  0  0
 18 19  1  0  0  0  0
 18 20  1  0  0  0  0
 21 22  1  0  0  0  0
 21 23  2  0  0  0  0
M  CHG  1  18   1
M  END
>  <CHROM.1>
114.44683146,-174.43102003,165.54856023,-63.02092052,51.77357599,-26.73470910
6.41765263,10.84572591,-0.03383095,1.39050911,0.49261397

>  <Name>


>  <RI>
0

>  <Rbt.Current_Directory>
/home/itssahil/PROJECTS/Mol_Feturizer/New_Systems/rnas/1lvj

>  <Rbt.Executable>
rbdock ($Id: //depot/dev/client3/rdock/2013.1/src/exe/rbdock.cxx#4 $)

>  <Rbt.Library>
libRbt.so (2013.1, Build901 2013/11/27)

>  <Rbt.Parameter_File>
/export/apps/rDock/src/rDock_2013.1_src/data/scripts/dock_solv.prm

>  <Rbt.Receptor>
prm/pocket_docking_8.prm

>  <SCORE>
-26.3644

>  <SCORE.INTER>
-22.4778

>  <SCORE.INTER.CONST>
1

>  <SCORE.INTER.POLAR>
-0.219765

>  <SCORE.INTER.ROT>
5

>  <SCORE.INTER.SOLV>
10.1931

>  <SCORE.INTER.VDW>
-24.5837

>  <SCORE.INTER.norm>
-0.977296

>  <SCORE.INTRA>
-3.8866

>  <SCORE.INTRA.DIHEDRAL>
-4.81529

>  <SCORE.INTRA.DIHEDRAL.0>
8.06479

>  <SCORE.INTRA.POLAR>
0

>  <SCORE.INTRA.POLAR.0>
0

>  <SCORE.INTRA.REPUL>
0

>  <SCORE.INTRA.REPUL.0>
0

>  <SCORE.INTRA.SOLV>
2.36177

>  <SCORE.INTRA.SOLV.lig_0>
-29.8054

>  <SCORE.INTRA.VDW>
-2.65983

>  <SCORE.INTRA.VDW.0>
2.61447

>  <SCORE.INTRA.norm>
-0.168982

>  <SCORE.RESTR>
0

>  <SCORE.RESTR.CAVITY>
0

>  <SCORE.RESTR.norm>
0

>  <SCORE.SYSTEM>
0

>  <SCORE.SYSTEM.CONST>
0

>  <SCORE.SYSTEM.DIHEDRAL>
0

>  <SCORE.SYSTEM.SOLV>
0

>  <SCORE.SYSTEM.norm>
0

>  <SCORE.heavy>
23

>  <SCORE.norm>
-1.14628

>  <RMSD>
7.199

$$$$

 OpenBabel11021811403D
libRbt.so/2013.1/901 2013/11/27
 23 25  0  0  0  0  0  0  0  0999 V2000
  -25.5542    8.3924    9.6446 S   0  0  0  0  0  0  0  0  0  0  0  0
  -22.9082    7.0936   10.0705 N   0  0  0  0  0  0  0  0  0  0  0  0
  -22.1575    7.2000    7.7816 C   0  0  0  0  0  0  0  0  0  0  0  0
  -22.4030    7.5824    6.4562 C   0  0  0  0  0  0  0  0  0  0  0  0
  -23.5978    8.2105    6.1179 C   0  0  0  0  0  0  0  0  0  0  0  0
  -24.5540    8.4558    7.0973 C   0  0  0  0  0  0  0  0  0  0  0  0
  -24.3219    8.0778    8.4173 C   0  0  0  0  0  0  0  0  0  0  0  0
  -23.1220    7.4478    8.7686 C   0  0  0  0  0  0  0  0  0  0  0  0
  -25.2590    6.8345   10.4196 C   0  0  0  0  0  0  0  0  0  0  0  0
  -26.3300    6.0810   10.9089 C   0  0  0  0  0  0  0  0  0  0  0  0
  -26.0915    4.8499   11.5265 C   0  0  0  0  0  0  0  0  0  0  0  0
  -24.7812    4.3782   11.6565 C   0  0  0  0  0  0  0  0  0  0  0  0
  -23.7167    5.1357   11.1666 C   0  0  0  0  0  0  0  0  0  0  0  0
  -23.9499    6.3566   10.5487 C   0  0  0  0  0  0  0  0  0  0  0  0
  -21.5339    6.8032   10.5490 C   0  0  0  0  0  0  0  0  0  0  0  0
  -21.0664    7.5244   11.8571 C   0  0  0  0  0  0  0  0  0  0  0  0
  -22.0537    7.3382   13.0595 C   0  0  0  0  0  0  0  0  0  0  0  0
  -22.0840    8.4000   14.0976 N   0  3  0  0  0  0  0  0  0  0  0  0
  -20.8027    8.4645   14.8471 C   0  0  0  0  0  0  0  0  0  0  0  0
  -23.2569    8.2066   15.0189 C   0  0  0  0  0  0  0  0  0  0  0  0
  -21.3810    7.3143    5.3884 C   0  0  0  0  0  0  0  0  0  0  0  0
  -21.4091    8.0280    4.0586 C   0  0  0  0  0  0  0  0  0  0  0  0
  -20.4636    6.5423    5.6178 O   0  0  0  0  0  0  0  0  0  0  0  0
  1  7  1  0  0  0  0
  1  9  1  0  0  0  0
  2  8  1  0  0  0  0
  2 14  1  0  0  0  0
  2 15  1  0  0  0  0
  3  4  2  0  0  0  0
  3  8  1  0  0  0  0
  4  5  1  0  0  0  0
  4 21  1  0  0  0  0
  5  6  2  0  0  0  0
  6  7  1  0  0  0  0
  7  8  2  0  0  0  0
  9 10  2  0  0  0  0
  9 14  1  0  0  0  0
 10 11  1  0  0  0  0
 11 12  2  0  0  0  0
 12 13  1  0  0  0  0
 13 14  2  0  0  0  0
 15 16  1  0  0  0  0
 16 17  1  0  0  0  0
 17 18  1  0  0  0  0
 18 19  1  0  0  0  0
 18 20  1  0  0  0  0
 21 22  1  0  0  0  0
 21 23  2  0  0  0  0
M  CHG  1  18   1
M  END
>  <CHROM.1>
130.00062279,-162.49359557,52.71762586,-152.79064198,53.67376855,-23.22844085
7.25603253,9.83924858,1.67791394,0.25295793,1.58382620

>  <Name>


>  <RI>
0

>  <Rbt.Current_Directory>
/home/itssahil/PROJECTS/Mol_Feturizer/New_Systems/rnas/1lvj

>  <Rbt.Executable>
rbdock ($Id: //depot/dev/client3/rdock/2013.1/src/exe/rbdock.cxx#4 $)

>  <Rbt.Library>
libRbt.so (2013.1, Build901 2013/11/27)

>  <Rbt.Parameter_File>
/export/apps/rDock/src/rDock_2013.1_src/data/scripts/dock_solv.prm

>  <Rbt.Receptor>
prm/pocket_docking_6.prm

>  <SCORE>
-32.5216

>  <SCORE.INTER>
-28.538

>  <SCORE.INTER.CONST>
1

>  <SCORE.INTER.POLAR>
0

>  <SCORE.INTER.ROT>
5

>  <SCORE.INTER.SOLV>
10.6363

>  <SCORE.INTER.VDW>
-29.5041

>  <SCORE.INTER.norm>
-1.24078

>  <SCORE.INTRA>
-3.98364

>  <SCORE.INTRA.DIHEDRAL>
-2.74089

>  <SCORE.INTRA.DIHEDRAL.0>
8.06479

>  <SCORE.INTRA.POLAR>
0

>  <SCORE.INTRA.POLAR.0>
0

>  <SCORE.INTRA.REPUL>
0

>  <SCORE.INTRA.REPUL.0>
0

>  <SCORE.INTRA.SOLV>
0.671472

>  <SCORE.INTRA.SOLV.lig_0>
-29.8054

>  <SCORE.INTRA.VDW>
-2.94893

>  <SCORE.INTRA.VDW.0>
2.61447

>  <SCORE.INTRA.norm>
-0.173202

>  <SCORE.RESTR>
0

>  <SCORE.RESTR.CAVITY>
0

>  <SCORE.RESTR.norm>
0

>  <SCORE.SYSTEM>
0

>  <SCORE.SYSTEM.CONST>
0

>  <SCORE.SYSTEM.DIHEDRAL>
0

>  <SCORE.SYSTEM.SOLV>
0

>  <SCORE.SYSTEM.norm>
0

>  <SCORE.heavy>
23

>  <SCORE.norm>
-1.41398

>  <RMSD>
7.211

$$$$

 OpenBabel11021811403D
libRbt.so/2013.1/901 2013/11/27
 23 25  0  0  0  0  0  0  0  0999 V2000
  -25.6040    8.3790    9.5944 S   0  0  0  0  0  0  0  0  0  0  0  0
  -22.9356    7.1425   10.0636 N   0  0  0  0  0  0  0  0  0  0  0  0
  -22.1669    7.2286    7.7798 C   0  0  0  0  0  0  0  0  0  0  0  0
  -22.4084    7.5850    6.4465 C   0  0  0  0  0  0  0  0  0  0  0  0
  -23.6128    8.1826    6.0879 C   0  0  0  0  0  0  0  0  0  0  0  0
  -24.5826    8.4232    7.0551 C   0  0  0  0  0  0  0  0  0  0  0  0
  -24.3545    8.0709    8.3829 C   0  0  0  0  0  0  0  0  0  0  0  0
  -23.1450    7.4717    8.7544 C   0  0  0  0  0  0  0  0  0  0  0  0
  -25.2836    6.8399   10.3965 C   0  0  0  0  0  0  0  0  0  0  0  0
  -26.3430    6.0720   10.8885 C   0  0  0  0  0  0  0  0  0  0  0  0
  -26.0846    4.8560   11.5276 C   0  0  0  0  0  0  0  0  0  0  0  0
  -24.7660    4.4138   11.6763 C   0  0  0  0  0  0  0  0  0  0  0  0
  -23.7132    5.1856   11.1836 C   0  0  0  0  0  0  0  0  0  0  0  0
  -23.9661    6.3915   10.5445 C   0  0  0  0  0  0  0  0  0  0  0  0
  -21.5599    6.8883   10.5585 C   0  0  0  0  0  0  0  0  0  0  0  0
  -21.1856    7.4763   11.9599 C   0  0  0  0  0  0  0  0  0  0  0  0
  -22.0632    6.9111   13.1286 C   0  0  0  0  0  0  0  0  0  0  0  0
  -21.7838    7.4043   14.5014 N   0  3  0  0  0  0  0  0  0  0  0  0
  -20.4915    6.8808   15.0147 C   0  0  0  0  0  0  0  0  0  0  0  0
  -22.9233    7.0728   15.4253 C   0  0  0  0  0  0  0  0  0  0  0  0
  -21.3715    7.3215    5.3920 C   0  0  0  0  0  0  0  0  0  0  0  0
  -21.3905    8.0290    4.0586 C   0  0  0  0  0  0  0  0  0  0  0  0
  -20.4499    6.5590    5.6355 O   0  0  0  0  0  0  0  0  0  0  0  0
  1  7  1  0  0  0  0
  1  9  1  0  0  0  0
  2  8  1  0  0  0  0
  2 14  1  0  0  0  0
  2 15  1  0  0  0  0
  3  4  2  0  0  0  0
  3  8  1  0  0  0  0
  4  5  1  0  0  0  0
  4 21  1  0  0  0  0
  5  6  2  0  0  0  0
  6  7  1  0  0  0  0
  7  8  2  0  0  0  0
  9 10  2  0  0  0  0
  9 14  1  0  0  0  0
 10 11  1  0  0  0  0
 11 12  2  0  0  0  0
 12 13  1  0  0  0  0
 13 14  2  0  0  0  0
 15 16  1  0  0  0  0
 16 17  1  0  0  0  0
 17 18  1  0  0  0  0
 18 19  1  0  0  0  0
 18 20  1  0  0  0  0
 21 22  1  0  0  0  0
 21 23  2  0  0  0  0
M  CHG  1  18   1
M  END
>  <CHROM.1>
138.36378921,-161.55057005,61.43691319,179.82773820,49.25713461,-23.20059978
7.07536833,9.88360833,1.51768492,-0.08873674,-1.44082678

>  <Name>


>  <RI>
0

>  <Rbt.Current_Directory>
/home/itssahil/PROJECTS/Mol_Feturizer/New_Systems/rnas/1lvj

>  <Rbt.Executable>
rbdock ($Id: //depot/dev/client3/rdock/2013.1/src/exe/rbdock.cxx#4 $)

>  <Rbt.Library>
libRbt.so (2013.1, Build901 2013/11/27)

>  <Rbt.Parameter_File>
/export/apps/rDock/src/rDock_2013.1_src/data/scripts/dock_solv.prm

>  <Rbt.Receptor>
prm/pocket_docking_5.prm

>  <SCORE>
-33.7029

>  <SCORE.INTER>
-28.5746

>  <SCORE.INTER.CONST>
1

>  <SCORE.INTER.POLAR>
0

>  <SCORE.INTER.ROT>
5

>  <SCORE.INTER.SOLV>
10.0724

>  <SCORE.INTER.VDW>
-29.3405

>  <SCORE.INTER.norm>
-1.24237

>  <SCORE.INTRA>
-5.12825

>  <SCORE.INTRA.DIHEDRAL>
-5.38617

>  <SCORE.INTRA.DIHEDRAL.0>
8.06479

>  <SCORE.INTRA.POLAR>
0

>  <SCORE.INTRA.POLAR.0>
0

>  <SCORE.INTRA.REPUL>
0

>  <SCORE.INTRA.REPUL.0>
0

>  <SCORE.INTRA.SOLV>
0.519466

>  <SCORE.INTRA.SOLV.lig_0>
-29.8054

>  <SCORE.INTRA.VDW>
-2.6949

>  <SCORE.INTRA.VDW.0>
2.61447

>  <SCORE.INTRA.norm>
-0.222968

>  <SCORE.RESTR>
0

>  <SCORE.RESTR.CAVITY>
0

>  <SCORE.RESTR.norm>
0

>  <SCORE.SYSTEM>
0

>  <SCORE.SYSTEM.CONST>
0

>  <SCORE.SYSTEM.DIHEDRAL>
0

>  <SCORE.SYSTEM.SOLV>
0

>  <SCORE.SYSTEM.norm>
0

>  <SCORE.heavy>
23

>  <SCORE.norm>
-1.46534

>  <RMSD>
7.220

$$$$

 OpenBabel11021811403D
libRbt.so/2013.1/901 2013/11/27
 23 25  0  0  0  0  0  0  0  0999 V2000
  -25.5566    8.3771    9.6604 S   0  0  0  0  0  0  0  0  0  0  0  0
  -22.9106    7.0799   10.0909 N   0  0  0  0  0  0  0  0  0  0  0  0
  -22.1571    7.1843    7.8027 C   0  0  0  0  0  0  0  0  0  0  0  0
  -22.4011    7.5653    6.4767 C   0  0  0  0  0  0  0  0  0  0  0  0
  -23.5957    8.1925    6.1362 C   0  0  0  0  0  0  0  0  0  0  0  0
  -24.5533    8.4383    7.1142 C   0  0  0  0  0  0  0  0  0  0  0  0
  -24.3226    8.0618    8.4349 C   0  0  0  0  0  0  0  0  0  0  0  0
  -23.1228    7.4327    8.7883 C   0  0  0  0  0  0  0  0  0  0  0  0
  -25.2616    6.8201   10.4373 C   0  0  0  0  0  0  0  0  0  0  0  0
  -26.3329    6.0665   10.9261 C   0  0  0  0  0  0  0  0  0  0  0  0
  -26.0946    4.8362   11.5452 C   0  0  0  0  0  0  0  0  0  0  0  0
  -24.7842    4.3652   11.6773 C   0  0  0  0  0  0  0  0  0  0  0  0
  -23.7195    5.1228   11.1879 C   0  0  0  0  0  0  0  0  0  0  0  0
  -23.9525    6.3429   10.5686 C   0  0  0  0  0  0  0  0  0  0  0  0
  -21.5367    6.7906   10.5714 C   0  0  0  0  0  0  0  0  0  0  0  0
  -21.0444    7.5692   11.8368 C   0  0  0  0  0  0  0  0  0  0  0  0
  -22.1463    7.7286   12.9394 C   0  0  0  0  0  0  0  0  0  0  0  0
  -21.8396    8.6043   14.0992 N   0  3  0  0  0  0  0  0  0  0  0  0
  -20.9673    7.9153   15.0850 C   0  0  0  0  0  0  0  0  0  0  0  0
  -23.1075    9.1051   14.7344 C   0  0  0  0  0  0  0  0  0  0  0  0
  -21.3776    7.2965    5.4105 C   0  0  0  0  0  0  0  0  0  0  0  0
  -21.4101    8.0017    4.0762 C   0  0  0  0  0  0  0  0  0  0  0  0
  -20.4556    6.5315    5.6445 O   0  0  0  0  0  0  0  0  0  0  0  0
  1  7  1  0  0  0  0
  1  9  1  0  0  0  0
  2  8  1  0  0  0  0
  2 14  1  0  0  0  0
  2 15  1  0  0  0  0
  3  4  2  0  0  0  0
  3  8  1  0  0  0  0
  4  5  1  0  0  0  0
  4 21  1  0  0  0  0
  5  6  2  0  0  0  0
  6  7  1  0  0  0  0
  7  8  2  0  0  0  0
  9 10  2  0  0  0  0
  9 14  1  0  0  0  0
 10 11  1  0  0  0  0
 11 12  2  0  0  0  0
 12 13  1  0  0  0  0
 13 14  2  0  0  0  0
 15 16  1  0  0  0  0
 16 17  1  0  0  0  0
 17 18  1  0  0  0  0
 18 19  1  0  0  0  0
 18 20  1  0  0  0  0
 21 22  1  0  0  0  0
 21 23  2  0  0  0  0
M  CHG  1  18   1
M  END
>  <CHROM.1>
126.91112014,-162.93734813,40.07884297,-172.05915913,41.37635733,-23.21950774
7.28787763,9.84666482,1.66946089,0.27410143,1.56071500

>  <Name>


>  <RI>
0

>  <Rbt.Current_Directory>
/home/itssahil/PROJECTS/Mol_Feturizer/New_Systems/rnas/1lvj

>  <Rbt.Executable>
rbdock ($Id: //depot/dev/client3/rdock/2013.1/src/exe/rbdock.cxx#4 $)

>  <Rbt.Library>
libRbt.so (2013.1, Build901 2013/11/27)

>  <Rbt.Parameter_File>
/export/apps/rDock/src/rDock_2013.1_src/data/scripts/dock_solv.prm

>  <Rbt.Receptor>
prm/pocket_docking_5.prm

>  <SCORE>
-33.2255

>  <SCORE.INTER>
-28.9543

>  <SCORE.INTER.CONST>
1

>  <SCORE.INTER.POLAR>
0

>  <SCORE.INTER.ROT>
5

>  <SCORE.INTER.SOLV>
10.5787

>  <SCORE.INTER.VDW>
-29.7624

>  <SCORE.INTER.norm>
-1.25888

>  <SCORE.INTRA>
-4.27117

>  <SCORE.INTRA.DIHEDRAL>
-2.84528

>  <SCORE.INTRA.DIHEDRAL.0>
8.06479

>  <SCORE.INTRA.POLAR>
0

>  <SCORE.INTRA.POLAR.0>
0

>  <SCORE.INTRA.REPUL>
0

>  <SCORE.INTRA.REPUL.0>
0

>  <SCORE.INTRA.SOLV>
0.657979

>  <SCORE.INTRA.SOLV.lig_0>
-29.8054

>  <SCORE.INTRA.VDW>
-3.17752

>  <SCORE.INTRA.VDW.0>
2.61447

>  <SCORE.INTRA.norm>
-0.185703

>  <SCORE.RESTR>
0

>  <SCORE.RESTR.CAVITY>
0

>  <SCORE.RESTR.norm>
0

>  <SCORE.SYSTEM>
0

>  <SCORE.SYSTEM.CONST>
0

>  <SCORE.SYSTEM.DIHEDRAL>
0

>  <SCORE.SYSTEM.SOLV>
0

>  <SCORE.SYSTEM.norm>
0

>  <SCORE.heavy>
23

>  <SCORE.norm>
-1.44459

>  <RMSD>
7.226

$$$$

 OpenBabel11021811403D
libRbt.so/2013.1/901 2013/11/27
 23 25  0  0  0  0  0  0  0  0999 V2000
  -25.6612    8.3303    9.5011 S   0  0  0  0  0  0  0  0  0  0  0  0
  -22.9598    7.1905   10.0231 N   0  0  0  0  0  0  0  0  0  0  0  0
  -22.1684    7.2572    7.7464 C   0  0  0  0  0  0  0  0  0  0  0  0
  -22.4062    7.5796    6.4038 C   0  0  0  0  0  0  0  0  0  0  0  0
  -23.6252    8.1308    6.0207 C   0  0  0  0  0  0  0  0  0  0  0  0
  -24.6131    8.3584    6.9725 C   0  0  0  0  0  0  0  0  0  0  0  0
  -24.3888    8.0395    8.3093 C   0  0  0  0  0  0  0  0  0  0  0  0
  -23.1649    7.4872    8.7055 C   0  0  0  0  0  0  0  0  0  0  0  0
  -25.3003    6.8182   10.3369 C   0  0  0  0  0  0  0  0  0  0  0  0
  -26.3400    6.0260   10.8325 C   0  0  0  0  0  0  0  0  0  0  0  0
  -26.0497    4.8317   11.4982 C   0  0  0  0  0  0  0  0  0  0  0  0
  -24.7193    4.4355   11.6698 C   0  0  0  0  0  0  0  0  0  0  0  0
  -23.6864    5.2314   11.1732 C   0  0  0  0  0  0  0  0  0  0  0  0
  -23.9709    6.4158   10.5077 C   0  0  0  0  0  0  0  0  0  0  0  0
  -21.5823    6.9907   10.5376 C   0  0  0  0  0  0  0  0  0  0  0  0
  -21.3594    7.1850   12.0746 C   0  0  0  0  0  0  0  0  0  0  0  0
  -22.2555    8.3091   12.6982 C   0  0  0  0  0  0  0  0  0  0  0  0
  -21.8883    8.8157   14.0452 N   0  3  0  0  0  0  0  0  0  0  0  0
  -22.9900    9.6113   14.6458 C   0  0  0  0  0  0  0  0  0  0  0  0
  -20.6064    9.5998   13.9846 C   0  0  0  0  0  0  0  0  0  0  0  0
  -21.3495    7.3296    5.3658 C   0  0  0  0  0  0  0  0  0  0  0  0
  -21.3782    8.0075    4.0174 C   0  0  0  0  0  0  0  0  0  0  0  0
  -20.4051    6.6046    5.6352 O   0  0  0  0  0  0  0  0  0  0  0  0
  1  7  1  0  0  0  0
  1  9  1  0  0  0  0
  2  8  1  0  0  0  0
  2 14  1  0  0  0  0
  2 15  1  0  0  0  0
  3  4  2  0  0  0  0
  3  8  1  0  0  0  0
  4  5  1  0  0  0  0
  4 21  1  0  0  0  0
  5  6  2  0  0  0  0
  6  7  1  0  0  0  0
  7  8  2  0  0  0  0
  9 10  2  0  0  0  0
  9 14  1  0  0  0  0
 10 11  1  0  0  0  0
 11 12  2  0  0  0  0
 12 13  1  0  0  0  0
 13 14  2  0  0  0  0
 15 16  1  0  0  0  0
 16 17  1  0  0  0  0
 17 18  1  0  0  0  0
 18 19  1  0  0  0  0
 18 20  1  0  0  0  0
 21 22  1  0  0  0  0
 21 23  2  0  0  0  0
M  CHG  1  18   1
M  END
>  <CHROM.1>
157.80491117,-161.70679668,-34.70813286,-164.59685522,-45.85245100,-23.23298583
7.42227515,9.73242182,1.67486631,0.40935778,1.48484788

>  <Name>


>  <RI>
0

>  <Rbt.Current_Directory>
/home/itssahil/PROJECTS/Mol_Feturizer/New_Systems/rnas/1lvj

>  <Rbt.Executable>
rbdock ($Id: //depot/dev/client3/rdock/2013.1/src/exe/rbdock.cxx#4 $)

>  <Rbt.Library>
libRbt.so (2013.1, Build901 2013/11/27)

>  <Rbt.Parameter_File>
/export/apps/rDock/src/rDock_2013.1_src/data/scripts/dock_solv.prm

>  <Rbt.Receptor>
prm/pocket_docking_7.prm

>  <SCORE>
-34.1698

>  <SCORE.INTER>
-30.2438

>  <SCORE.INTER.CONST>
1

>  <SCORE.INTER.POLAR>
0

>  <SCORE.INTER.ROT>
5

>  <SCORE.INTER.SOLV>
10.5139

>  <SCORE.INTER.VDW>
-30.6005

>  <SCORE.INTER.norm>
-1.31495

>  <SCORE.INTRA>
-3.92602

>  <SCORE.INTRA.DIHEDRAL>
-3.31404

>  <SCORE.INTRA.DIHEDRAL.0>
8.06479

>  <SCORE.INTRA.POLAR>
0

>  <SCORE.INTRA.POLAR.0>
0

>  <SCORE.INTRA.REPUL>
0

>  <SCORE.INTRA.REPUL.0>
0

>  <SCORE.INTRA.SOLV>
0.53541

>  <SCORE.INTRA.SOLV.lig_0>
-29.8054

>  <SCORE.INTRA.VDW>
-2.5367

>  <SCORE.INTRA.VDW.0>
2.61447

>  <SCORE.INTRA.norm>
-0.170697

>  <SCORE.RESTR>
0

>  <SCORE.RESTR.CAVITY>
0

>  <SCORE.RESTR.norm>
0

>  <SCORE.SYSTEM>
0

>  <SCORE.SYSTEM.CONST>
0

>  <SCORE.SYSTEM.DIHEDRAL>
0

>  <SCORE.SYSTEM.SOLV>
0

>  <SCORE.SYSTEM.norm>
0

>  <SCORE.heavy>
23

>  <SCORE.norm>
-1.48565

>  <RMSD>
7.232

$$$$

 OpenBabel11021811403D
libRbt.so/2013.1/901 2013/11/27
 23 25  0  0  0  0  0  0  0  0999 V2000
  -25.5879    8.3761    9.6244 S   0  0  0  0  0  0  0  0  0  0  0  0
  -22.9370    7.0972   10.0784 N   0  0  0  0  0  0  0  0  0  0  0  0
  -22.1702    7.1928    7.7944 C   0  0  0  0  0  0  0  0  0  0  0  0
  -22.4083    7.5646    6.4647 C   0  0  0  0  0  0  0  0  0  0  0  0
  -23.6045    8.1828    6.1133 C   0  0  0  0  0  0  0  0  0  0  0  0
  -24.5695    8.4286    7.0840 C   0  0  0  0  0  0  0  0  0  0  0  0
  -24.3446    8.0610    8.4083 C   0  0  0  0  0  0  0  0  0  0  0  0
  -23.1434    7.4411    8.7726 C   0  0  0  0  0  0  0  0  0  0  0  0
  -25.2885    6.8254   10.4121 C   0  0  0  0  0  0  0  0  0  0  0  0
  -26.3583    6.0684   10.8987 C   0  0  0  0  0  0  0  0  0  0  0  0
  -26.1165    4.8431   11.5265 C   0  0  0  0  0  0  0  0  0  0  0  0
  -24.8043    4.3807   11.6693 C   0  0  0  0  0  0  0  0  0  0  0  0
  -23.7410    5.1416   11.1820 C   0  0  0  0  0  0  0  0  0  0  0  0
  -23.9775    6.3568   10.5541 C   0  0  0  0  0  0  0  0  0  0  0  0
  -21.5644    6.8188   10.5690 C   0  0  0  0  0  0  0  0  0  0  0  0
  -21.1360    7.4957   11.9136 C   0  0  0  0  0  0  0  0  0  0  0  0
  -22.0906    7.1642   13.1112 C   0  0  0  0  0  0  0  0  0  0  0  0
  -21.8069    7.8098   14.4182 N   0  3  0  0  0  0  0  0  0  0  0  0
  -20.5643    7.2735   15.0314 C   0  0  0  0  0  0  0  0  0  0  0  0
  -22.9854    7.6742   15.3428 C   0  0  0  0  0  0  0  0  0  0  0  0
  -21.3768    7.2958    5.4063 C   0  0  0  0  0  0  0  0  0  0  0  0
  -21.4070    7.9908    4.0666 C   0  0  0  0  0  0  0  0  0  0  0  0
  -20.4504    6.5396    5.6512 O   0  0  0  0  0  0  0  0  0  0  0  0
  1  7  1  0  0  0  0
  1  9  1  0  0  0  0
  2  8  1  0  0  0  0
  2 14  1  0  0  0  0
  2 15  1  0  0  0  0
  3  4  2  0  0  0  0
  3  8  1  0  0  0  0
  4  5  1  0  0  0  0
  4 21  1  0  0  0  0
  5  6  2  0  0  0  0
  6  7  1  0  0  0  0
  7  8  2  0  0  0  0
  9 10  2  0  0  0  0
  9 14  1  0  0  0  0
 10 11  1  0  0  0  0
 11 12  2  0  0  0  0
 12 13  1  0  0  0  0
 13 14  2  0  0  0  0
 15 16  1  0  0  0  0
 16 17  1  0  0  0  0
 17 18  1  0  0  0  0
 18 19  1  0  0  0  0
 18 20  1  0  0  0  0
 21 22  1  0  0  0  0
 21 23  2  0  0  0  0
M  CHG  1  18   1
M  END
>  <CHROM.1>
132.97517316,-163.07441819,56.31146970,-177.20126305,50.39586335,-23.21028898
7.13342310,9.88527829,1.50622009,-0.14428474,-1.48631698

>  <Name>


>  <RI>
0

>  <Rbt.Current_Directory>
/home/itssahil/PROJECTS/Mol_Feturizer/New_Systems/rnas/1lvj

>  <Rbt.Executable>
rbdock ($Id: //depot/dev/client3/rdock/2013.1/src/exe/rbdock.cxx#4 $)

>  <Rbt.Library>
libRbt.so (2013.1, Build901 2013/11/27)

>  <Rbt.Parameter_File>
/export/apps/rDock/src/rDock_2013.1_src/data/scripts/dock_solv.prm

>  <Rbt.Receptor>
prm/pocket_docking_8.prm

>  <SCORE>
-33.8009

>  <SCORE.INTER>
-28.483

>  <SCORE.INTER.CONST>
1

>  <SCORE.INTER.POLAR>
0

>  <SCORE.INTER.ROT>
5

>  <SCORE.INTER.SOLV>
10.1111

>  <SCORE.INTER.VDW>
-29.2923

>  <SCORE.INTER.norm>
-1.23839

>  <SCORE.INTRA>
-5.31794

>  <SCORE.INTRA.DIHEDRAL>
-5.28029

>  <SCORE.INTRA.DIHEDRAL.0>
8.06479

>  <SCORE.INTRA.POLAR>
0

>  <SCORE.INTRA.POLAR.0>
0

>  <SCORE.INTRA.REPUL>
0

>  <SCORE.INTRA.REPUL.0>
0

>  <SCORE.INTRA.SOLV>
0.510086

>  <SCORE.INTRA.SOLV.lig_0>
-29.8054

>  <SCORE.INTRA.VDW>
-2.93283

>  <SCORE.INTRA.VDW.0>
2.61447

>  <SCORE.INTRA.norm>
-0.231215

>  <SCORE.RESTR>
0

>  <SCORE.RESTR.CAVITY>
0

>  <SCORE.RESTR.norm>
0

>  <SCORE.SYSTEM>
0

>  <SCORE.SYSTEM.CONST>
0

>  <SCORE.SYSTEM.DIHEDRAL>
0

>  <SCORE.SYSTEM.SOLV>
0

>  <SCORE.SYSTEM.norm>
0

>  <SCORE.heavy>
23

>  <SCORE.norm>
-1.4696

>  <RMSD>
7.232

$$$$

 OpenBabel11021811403D
libRbt.so/2013.1/901 2013/11/27
 23 25  0  0  0  0  0  0  0  0999 V2000
  -26.5425    7.4403    9.7030 S   0  0  0  0  0  0  0  0  0  0  0  0
  -23.6806    7.1037   10.4552 N   0  0  0  0  0  0  0  0  0  0  0  0
  -22.7659    7.3252    8.2352 C   0  0  0  0  0  0  0  0  0  0  0  0
  -22.9794    7.5336    6.8662 C   0  0  0  0  0  0  0  0  0  0  0  0
  -24.2695    7.7170    6.3780 C   0  0  0  0  0  0  0  0  0  0  0  0
  -25.3518    7.6887    7.2507 C   0  0  0  0  0  0  0  0  0  0  0  0
  -25.1518    7.4798    8.6128 C   0  0  0  0  0  0  0  0  0  0  0  0
  -23.8576    7.2971    9.1145 C   0  0  0  0  0  0  0  0  0  0  0  0
  -25.8475    6.1092   10.6304 C   0  0  0  0  0  0  0  0  0  0  0  0
  -26.6661    5.0745   11.0927 C   0  0  0  0  0  0  0  0  0  0  0  0
  -26.1125    4.0248   11.8311 C   0  0  0  0  0  0  0  0  0  0  0  0
  -24.7417    4.0154   12.1086 C   0  0  0  0  0  0  0  0  0  0  0  0
  -23.9304    5.0517   11.6448 C   0  0  0  0  0  0  0  0  0  0  0  0
  -24.4758    6.0936   10.9074 C   0  0  0  0  0  0  0  0  0  0  0  0
  -22.3444    7.3053   11.0684 C   0  0  0  0  0  0  0  0  0  0  0  0
  -21.2829    6.1752   10.8539 C   0  0  0  0  0  0  0  0  0  0  0  0
  -20.1278    6.1948   11.9125 C   0  0  0  0  0  0  0  0  0  0  0  0
  -18.9712    5.2906   11.6877 N   0  3  0  0  0  0  0  0  0  0  0  0
  -19.3745    3.8626   11.7635 C   0  0  0  0  0  0  0  0  0  0  0  0
  -17.8585    5.6050   12.6495 C   0  0  0  0  0  0  0  0  0  0  0  0
  -21.8184    7.5569    5.9132 C   0  0  0  0  0  0  0  0  0  0  0  0
  -21.9990    7.8380    4.4411 C   0  0  0  0  0  0  0  0  0  0  0  0
  -20.6866    7.4043    6.3442 O   0  0  0  0  0  0  0  0  0  0  0  0
  1  7  1  0  0  0  0
  1  9  1  0  0  0  0
  2  8  1  0  0  0  0
  2 14  1  0  0  0  0
  2 15  1  0  0  0  0
  3  4  2  0  0  0  0
  3  8  1  0  0  0  0
  4  5  1  0  0  0  0
  4 21  1  0  0  0  0
  5  6  2  0  0  0  0
  6  7  1  0  0  0  0
  7  8  2  0  0  0  0
  9 10  2  0  0  0  0
  9 14  1  0  0  0  0
 10 11  1  0  0  0  0
 11 12  2  0  0  0  0
 12 13  1  0  0  0  0
 13 14  2  0  0  0  0
 15 16  1  0  0  0  0
 16 17  1  0  0  0  0
 17 18  1  0  0  0  0
 18 19  1  0  0  0  0
 18 20  1  0  0  0  0
 21 22  1  0  0  0  0
 21 23  2  0  0  0  0
M  CHG  1  18   1
M  END
>  <CHROM.1>
-76.94173268,-177.28832039,-159.17690922,-171.51340853,54.90629050,-23.13907926
6.44353065,9.64819084,2.43128899,0.03629215,-1.13552070

>  <Name>


>  <RI>
0

>  <Rbt.Current_Directory>
/home/itssahil/PROJECTS/Mol_Feturizer/New_Systems/rnas/1lvj

>  <Rbt.Executable>
rbdock ($Id: //depot/dev/client3/rdock/2013.1/src/exe/rbdock.cxx#4 $)

>  <Rbt.Library>
libRbt.so (2013.1, Build901 2013/11/27)

>  <Rbt.Parameter_File>
/export/apps/rDock/src/rDock_2013.1_src/data/scripts/dock_solv.prm

>  <Rbt.Receptor>
prm/pocket_docking_8.prm

>  <SCORE>
-33.6263

>  <SCORE.INTER>
-29.3333

>  <SCORE.INTER.CONST>
1

>  <SCORE.INTER.POLAR>
-1.30767

>  <SCORE.INTER.ROT>
5

>  <SCORE.INTER.SOLV>
14.8233

>  <SCORE.INTER.VDW>
-27.071

>  <SCORE.INTER.norm>
-1.27536

>  <SCORE.INTRA>
-4.29298

>  <SCORE.INTRA.DIHEDRAL>
-5.92558

>  <SCORE.INTRA.DIHEDRAL.0>
8.06479

>  <SCORE.INTRA.POLAR>
0

>  <SCORE.INTRA.POLAR.0>
0

>  <SCORE.INTRA.REPUL>
0

>  <SCORE.INTRA.REPUL.0>
0

>  <SCORE.INTRA.SOLV>
0.364718

>  <SCORE.INTRA.SOLV.lig_0>
-29.8054

>  <SCORE.INTRA.VDW>
-1.51255

>  <SCORE.INTRA.VDW.0>
2.61447

>  <SCORE.INTRA.norm>
-0.186651

>  <SCORE.RESTR>
0

>  <SCORE.RESTR.CAVITY>
0

>  <SCORE.RESTR.norm>
0

>  <SCORE.SYSTEM>
0

>  <SCORE.SYSTEM.CONST>
0

>  <SCORE.SYSTEM.DIHEDRAL>
0

>  <SCORE.SYSTEM.SOLV>
0

>  <SCORE.SYSTEM.norm>
0

>  <SCORE.heavy>
23

>  <SCORE.norm>
-1.46201

>  <RMSD>
7.237

$$$$

 OpenBabel11021811403D
libRbt.so/2013.1/901 2013/11/27
 23 25  0  0  0  0  0  0  0  0999 V2000
  -25.5426    8.4065    9.6631 S   0  0  0  0  0  0  0  0  0  0  0  0
  -22.9109    7.0797   10.0912 N   0  0  0  0  0  0  0  0  0  0  0  0
  -22.1546    7.1838    7.8040 C   0  0  0  0  0  0  0  0  0  0  0  0
  -22.3934    7.5718    6.4790 C   0  0  0  0  0  0  0  0  0  0  0  0
  -23.5810    8.2129    6.1398 C   0  0  0  0  0  0  0  0  0  0  0  0
  -24.5367    8.4656    7.1179 C   0  0  0  0  0  0  0  0  0  0  0  0
  -24.3111    8.0822    8.4375 C   0  0  0  0  0  0  0  0  0  0  0  0
  -23.1184    7.4391    8.7896 C   0  0  0  0  0  0  0  0  0  0  0  0
  -25.2649    6.8438   10.4350 C   0  0  0  0  0  0  0  0  0  0  0  0
  -26.3445    6.1001   10.9203 C   0  0  0  0  0  0  0  0  0  0  0  0
  -26.1198    4.8653   11.5355 C   0  0  0  0  0  0  0  0  0  0  0  0
  -24.8147    4.3799   11.6670 C   0  0  0  0  0  0  0  0  0  0  0  0
  -23.7416    5.1276   11.1810 C   0  0  0  0  0  0  0  0  0  0  0  0
  -23.9611    6.3523   10.5656 C   0  0  0  0  0  0  0  0  0  0  0  0
  -21.5406    6.7741   10.5717 C   0  0  0  0  0  0  0  0  0  0  0  0
  -21.0243    7.5757   11.8130 C   0  0  0  0  0  0  0  0  0  0  0  0
  -22.1011    7.7449   12.9387 C   0  0  0  0  0  0  0  0  0  0  0  0
  -21.7541    8.6011   14.1017 N   0  3  0  0  0  0  0  0  0  0  0  0
  -20.8314    7.9037   15.0343 C   0  0  0  0  0  0  0  0  0  0  0  0
  -22.9987    9.0732   14.8017 C   0  0  0  0  0  0  0  0  0  0  0  0
  -21.3721    7.2957    5.4127 C   0  0  0  0  0  0  0  0  0  0  0  0
  -21.3896    8.0134    4.0848 C   0  0  0  0  0  0  0  0  0  0  0  0
  -20.4635    6.5134    5.6418 O   0  0  0  0  0  0  0  0  0  0  0  0
  1  7  1  0  0  0  0
  1  9  1  0  0  0  0
  2  8  1  0  0  0  0
  2 14  1  0  0  0  0
  2 15  1  0  0  0  0
  3  4  2  0  0  0  0
  3  8  1  0  0  0  0
  4  5  1  0  0  0  0
  4 21  1  0  0  0  0
  5  6  2  0  0  0  0
  6  7  1  0  0  0  0
  7  8  2  0  0  0  0
  9 10  2  0  0  0  0
  9 14  1  0  0  0  0
 10 11  1  0  0  0  0
 11 12  2  0  0  0  0
 12 13  1  0  0  0  0
 13 14  2  0  0  0  0
 15 16  1  0  0  0  0
 16 17  1  0  0  0  0
 17 18  1  0  0  0  0
 18 19  1  0  0  0  0
 18 20  1  0  0  0  0
 21 22  1  0  0  0  0
 21 23  2  0  0  0  0
M  CHG  1  18   1
M  END
>  <CHROM.1>
125.03757698,-162.45576411,42.09088403,-174.25260012,43.75658630,-23.20147224
7.29611260,9.84619349,1.65992157,0.26912264,1.56360986

>  <Name>


>  <RI>
0

>  <Rbt.Current_Directory>
/home/itssahil/PROJECTS/Mol_Feturizer/New_Systems/rnas/1lvj

>  <Rbt.Executable>
rbdock ($Id: //depot/dev/client3/rdock/2013.1/src/exe/rbdock.cxx#4 $)

>  <Rbt.Library>
libRbt.so (2013.1, Build901 2013/11/27)

>  <Rbt.Parameter_File>
/export/apps/rDock/src/rDock_2013.1_src/data/scripts/dock_solv.prm

>  <Rbt.Receptor>
prm/pocket_docking_8.prm

>  <SCORE>
-33.2508

>  <SCORE.INTER>
-28.8002

>  <SCORE.INTER.CONST>
1

>  <SCORE.INTER.POLAR>
0

>  <SCORE.INTER.ROT>
5

>  <SCORE.INTER.SOLV>
10.596

>  <SCORE.INTER.VDW>
-29.6654

>  <SCORE.INTER.norm>
-1.25218

>  <SCORE.INTRA>
-4.45063

>  <SCORE.INTRA.DIHEDRAL>
-3.25346

>  <SCORE.INTRA.DIHEDRAL.0>
8.06479

>  <SCORE.INTRA.POLAR>
0

>  <SCORE.INTRA.POLAR.0>
0

>  <SCORE.INTRA.REPUL>
0

>  <SCORE.INTRA.REPUL.0>
0

>  <SCORE.INTRA.SOLV>
0.614909

>  <SCORE.INTRA.SOLV.lig_0>
-29.8054

>  <SCORE.INTRA.VDW>
-3.13135

>  <SCORE.INTRA.VDW.0>
2.61447

>  <SCORE.INTRA.norm>
-0.193506

>  <SCORE.RESTR>
0

>  <SCORE.RESTR.CAVITY>
0

>  <SCORE.RESTR.norm>
0

>  <SCORE.SYSTEM>
0

>  <SCORE.SYSTEM.CONST>
0

>  <SCORE.SYSTEM.DIHEDRAL>
0

>  <SCORE.SYSTEM.SOLV>
0

>  <SCORE.SYSTEM.norm>
0

>  <SCORE.heavy>
23

>  <SCORE.norm>
-1.44569

>  <RMSD>
7.239

$$$$

 OpenBabel11021811403D
libRbt.so/2013.1/901 2013/11/27
 23 25  0  0  0  0  0  0  0  0999 V2000
  -25.5824    8.3720    9.6429 S   0  0  0  0  0  0  0  0  0  0  0  0
  -22.9249    7.1022   10.0841 N   0  0  0  0  0  0  0  0  0  0  0  0
  -22.1648    7.2109    7.7984 C   0  0  0  0  0  0  0  0  0  0  0  0
  -22.4082    7.5875    6.4710 C   0  0  0  0  0  0  0  0  0  0  0  0
  -23.6079    8.2022    6.1256 C   0  0  0  0  0  0  0  0  0  0  0  0
  -24.5712    8.4397    7.1000 C   0  0  0  0  0  0  0  0  0  0  0  0
  -24.3412    8.0674    8.4220 C   0  0  0  0  0  0  0  0  0  0  0  0
  -23.1363    7.4509    8.7803 C   0  0  0  0  0  0  0  0  0  0  0  0
  -25.2744    6.8191   10.4230 C   0  0  0  0  0  0  0  0  0  0  0  0
  -26.3396    6.0556   10.9093 C   0  0  0  0  0  0  0  0  0  0  0  0
  -26.0911    4.8286   11.5310 C   0  0  0  0  0  0  0  0  0  0  0  0
  -24.7765    4.3710   11.6682 C   0  0  0  0  0  0  0  0  0  0  0  0
  -23.7178    5.1385   11.1813 C   0  0  0  0  0  0  0  0  0  0  0  0
  -23.9610    6.3554   10.5594 C   0  0  0  0  0  0  0  0  0  0  0  0
  -21.5498    6.8274   10.5697 C   0  0  0  0  0  0  0  0  0  0  0  0
  -21.1458    7.4388   11.9527 C   0  0  0  0  0  0  0  0  0  0  0  0
  -21.9999    6.8953   13.1488 C   0  0  0  0  0  0  0  0  0  0  0  0
  -21.6850    7.4042   14.5081 N   0  3  0  0  0  0  0  0  0  0  0  0
  -20.3782    6.8891   14.9924 C   0  0  0  0  0  0  0  0  0  0  0  0
  -22.7986    7.0805   15.4658 C   0  0  0  0  0  0  0  0  0  0  0  0
  -21.3785    7.3275    5.4086 C   0  0  0  0  0  0  0  0  0  0  0  0
  -21.4250    8.0154    4.0657 C   0  0  0  0  0  0  0  0  0  0  0  0
  -20.4405    6.5853    5.6525 O   0  0  0  0  0  0  0  0  0  0  0  0
  1  7  1  0  0  0  0
  1  9  1  0  0  0  0
  2  8  1  0  0  0  0
  2 14  1  0  0  0  0
  2 15  1  0  0  0  0
  3  4  2  0  0  0  0
  3  8  1  0  0  0  0
  4  5  1  0  0  0  0
  4 21  1  0  0  0  0
  5  6  2  0  0  0  0
  6  7  1  0  0  0  0
  7  8  2  0  0  0  0
  9 10  2  0  0  0  0
  9 14  1  0  0  0  0
 10 11  1  0  0  0  0
 11 12  2  0  0  0  0
 12 13  1  0  0  0  0
 13 14  2  0  0  0  0
 15 16  1  0  0  0  0
 16 17  1  0  0  0  0
 17 18  1  0  0  0  0
 18 19  1  0  0  0  0
 18 20  1  0  0  0  0
 21 22  1  0  0  0  0
 21 23  2  0  0  0  0
M  CHG  1  18   1
M  END
>  <CHROM.1>
136.09820626,-163.84788857,62.83551711,179.39413362,49.85096895,-23.17775000
7.06218464,9.90250893,1.52910761,-0.09691242,-1.43873440

>  <Name>


>  <RI>
0

>  <Rbt.Current_Directory>
/home/itssahil/PROJECTS/Mol_Feturizer/New_Systems/rnas/1lvj

>  <Rbt.Executable>
rbdock ($Id: //depot/dev/client3/rdock/2013.1/src/exe/rbdock.cxx#4 $)

>  <Rbt.Library>
libRbt.so (2013.1, Build901 2013/11/27)

>  <Rbt.Parameter_File>
/export/apps/rDock/src/rDock_2013.1_src/data/scripts/dock_solv.prm

>  <Rbt.Receptor>
prm/pocket_docking_7.prm

>  <SCORE>
-33.7479

>  <SCORE.INTER>
-28.4557

>  <SCORE.INTER.CONST>
1

>  <SCORE.INTER.POLAR>
0

>  <SCORE.INTER.ROT>
5

>  <SCORE.INTER.SOLV>
10.0998

>  <SCORE.INTER.VDW>
-29.2704

>  <SCORE.INTER.norm>
-1.2372

>  <SCORE.INTRA>
-5.29219

>  <SCORE.INTRA.DIHEDRAL>
-5.54498

>  <SCORE.INTRA.DIHEDRAL.0>
8.06479

>  <SCORE.INTRA.POLAR>
0

>  <SCORE.INTRA.POLAR.0>
0

>  <SCORE.INTRA.REPUL>
0

>  <SCORE.INTRA.REPUL.0>
0

>  <SCORE.INTRA.SOLV>
0.501487

>  <SCORE.INTRA.SOLV.lig_0>
-29.8054

>  <SCORE.INTRA.VDW>
-2.77045

>  <SCORE.INTRA.VDW.0>
2.61447

>  <SCORE.INTRA.norm>
-0.230095

>  <SCORE.RESTR>
0

>  <SCORE.RESTR.CAVITY>
0

>  <SCORE.RESTR.norm>
0

>  <SCORE.SYSTEM>
0

>  <SCORE.SYSTEM.CONST>
0

>  <SCORE.SYSTEM.DIHEDRAL>
0

>  <SCORE.SYSTEM.SOLV>
0

>  <SCORE.SYSTEM.norm>
0

>  <SCORE.heavy>
23

>  <SCORE.norm>
-1.4673

>  <RMSD>
7.241

$$$$

 OpenBabel11021811403D
libRbt.so/2013.1/901 2013/11/27
 23 25  0  0  0  0  0  0  0  0999 V2000
  -25.5642    8.3826    9.6481 S   0  0  0  0  0  0  0  0  0  0  0  0
  -22.8985    7.1288   10.0850 N   0  0  0  0  0  0  0  0  0  0  0  0
  -22.1524    7.2200    7.7939 C   0  0  0  0  0  0  0  0  0  0  0  0
  -22.4054    7.5834    6.4646 C   0  0  0  0  0  0  0  0  0  0  0  0
  -23.6099    8.1895    6.1208 C   0  0  0  0  0  0  0  0  0  0  0  0
  -24.5685    8.4316    7.0987 C   0  0  0  0  0  0  0  0  0  0  0  0
  -24.3289    8.0724    8.4227 C   0  0  0  0  0  0  0  0  0  0  0  0
  -23.1192    7.4646    8.7794 C   0  0  0  0  0  0  0  0  0  0  0  0
  -25.2446    6.8383   10.4405 C   0  0  0  0  0  0  0  0  0  0  0  0
  -26.3035    6.0744   10.9400 C   0  0  0  0  0  0  0  0  0  0  0  0
  -26.0457    4.8543   11.5714 C   0  0  0  0  0  0  0  0  0  0  0  0
  -24.7283    4.4039   11.7049 C   0  0  0  0  0  0  0  0  0  0  0  0
  -23.6760    5.1717   11.2048 C   0  0  0  0  0  0  0  0  0  0  0  0
  -23.9284    6.3817   10.5733 C   0  0  0  0  0  0  0  0  0  0  0  0
  -21.5193    6.8646   10.5649 C   0  0  0  0  0  0  0  0  0  0  0  0
  -21.1069    7.4981   11.9354 C   0  0  0  0  0  0  0  0  0  0  0  0
  -22.0426    7.0830   13.1217 C   0  0  0  0  0  0  0  0  0  0  0  0
  -21.7310    7.6265   14.4683 N   0  3  0  0  0  0  0  0  0  0  0  0
  -20.4818    7.0378   15.0166 C   0  0  0  0  0  0  0  0  0  0  0  0
  -22.8939    7.4286   15.4013 C   0  0  0  0  0  0  0  0  0  0  0  0
  -21.3808    7.3183    5.3985 C   0  0  0  0  0  0  0  0  0  0  0  0
  -21.4312    8.0034    4.0543 C   0  0  0  0  0  0  0  0  0  0  0  0
  -20.4438    6.5741    5.6401 O   0  0  0  0  0  0  0  0  0  0  0  0
  1  7  1  0  0  0  0
  1  9  1  0  0  0  0
  2  8  1  0  0  0  0
  2 14  1  0  0  0  0
  2 15  1  0  0  0  0
  3  4  2  0  0  0  0
  3  8  1  0  0  0  0
  4  5  1  0  0  0  0
  4 21  1  0  0  0  0
  5  6  2  0  0  0  0
  6  7  1  0  0  0  0
  7  8  2  0  0  0  0
  9 10  2  0  0  0  0
  9 14  1  0  0  0  0
 10 11  1  0  0  0  0
 11 12  2  0  0  0  0
 12 13  1  0  0  0  0
 13 14  2  0  0  0  0
 15 16  1  0  0  0  0
 16 17  1  0  0  0  0
 17 18  1  0  0  0  0
 18 19  1  0  0  0  0
 18 20  1  0  0  0  0
 21 22  1  0  0  0  0
 21 23  2  0  0  0  0
M  CHG  1  18   1
M  END
>  <CHROM.1>
135.70805957,-163.26745603,56.99429405,179.68006589,50.39760107,-23.17443040
7.11421412,9.90137187,1.51849761,-0.11416340,-1.46339878

>  <Name>


>  <RI>
0

>  <Rbt.Current_Directory>
/home/itssahil/PROJECTS/Mol_Feturizer/New_Systems/rnas/1lvj

>  <Rbt.Executable>
rbdock ($Id: //depot/dev/client3/rdock/2013.1/src/exe/rbdock.cxx#4 $)

>  <Rbt.Library>
libRbt.so (2013.1, Build901 2013/11/27)

>  <Rbt.Parameter_File>
/export/apps/rDock/src/rDock_2013.1_src/data/scripts/dock_solv.prm

>  <Rbt.Receptor>
prm/pocket_docking_5.prm

>  <SCORE>
-33.7922

>  <SCORE.INTER>
-28.4817

>  <SCORE.INTER.CONST>
1

>  <SCORE.INTER.POLAR>
0

>  <SCORE.INTER.ROT>
5

>  <SCORE.INTER.SOLV>
10.0256

>  <SCORE.INTER.VDW>
-29.263

>  <SCORE.INTER.norm>
-1.23834

>  <SCORE.INTRA>
-5.31047

>  <SCORE.INTRA.DIHEDRAL>
-5.48692

>  <SCORE.INTRA.DIHEDRAL.0>
8.06479

>  <SCORE.INTRA.POLAR>
0

>  <SCORE.INTRA.POLAR.0>
0

>  <SCORE.INTRA.REPUL>
0

>  <SCORE.INTRA.REPUL.0>
0

>  <SCORE.INTRA.SOLV>
0.50199

>  <SCORE.INTRA.SOLV.lig_0>
-29.8054

>  <SCORE.INTRA.VDW>
-2.818

>  <SCORE.INTRA.VDW.0>
2.61447

>  <SCORE.INTRA.norm>
-0.23089

>  <SCORE.RESTR>
0

>  <SCORE.RESTR.CAVITY>
0

>  <SCORE.RESTR.norm>
0

>  <SCORE.SYSTEM>
0

>  <SCORE.SYSTEM.CONST>
0

>  <SCORE.SYSTEM.DIHEDRAL>
0

>  <SCORE.SYSTEM.SOLV>
0

>  <SCORE.SYSTEM.norm>
0

>  <SCORE.heavy>
23

>  <SCORE.norm>
-1.46923

>  <RMSD>
7.244

$$$$

 OpenBabel11021811403D
libRbt.so/2013.1/901 2013/11/27
 23 25  0  0  0  0  0  0  0  0999 V2000
  -25.5617    8.3763    9.6535 S   0  0  0  0  0  0  0  0  0  0  0  0
  -22.8943    7.1255   10.0891 N   0  0  0  0  0  0  0  0  0  0  0  0
  -22.1475    7.2220    7.7985 C   0  0  0  0  0  0  0  0  0  0  0  0
  -22.4005    7.5874    6.4697 C   0  0  0  0  0  0  0  0  0  0  0  0
  -23.6058    8.1924    6.1266 C   0  0  0  0  0  0  0  0  0  0  0  0
  -24.5650    8.4313    7.1046 C   0  0  0  0  0  0  0  0  0  0  0  0
  -24.3254    8.0701    8.4279 C   0  0  0  0  0  0  0  0  0  0  0  0
  -23.1150    7.4634    8.7840 C   0  0  0  0  0  0  0  0  0  0  0  0
  -25.2401    6.8310   10.4432 C   0  0  0  0  0  0  0  0  0  0  0  0
  -26.2981    6.0647   10.9410 C   0  0  0  0  0  0  0  0  0  0  0  0
  -26.0387    4.8438   11.5702 C   0  0  0  0  0  0  0  0  0  0  0  0
  -24.7207    4.3951   11.7034 C   0  0  0  0  0  0  0  0  0  0  0  0
  -23.6693    5.1653   11.2050 C   0  0  0  0  0  0  0  0  0  0  0  0
  -23.9232    6.3761   10.5756 C   0  0  0  0  0  0  0  0  0  0  0  0
  -21.5149    6.8624   10.5690 C   0  0  0  0  0  0  0  0  0  0  0  0
  -21.1020    7.4988   11.9381 C   0  0  0  0  0  0  0  0  0  0  0  0
  -22.0282    7.0739   13.1284 C   0  0  0  0  0  0  0  0  0  0  0  0
  -21.7711    7.6891   14.4556 N   0  3  0  0  0  0  0  0  0  0  0  0
  -20.4987    7.1984   15.0452 C   0  0  0  0  0  0  0  0  0  0  0  0
  -22.9355    7.4605   15.3797 C   0  0  0  0  0  0  0  0  0  0  0  0
  -21.3751    7.3258    5.4035 C   0  0  0  0  0  0  0  0  0  0  0  0
  -21.4367    7.9989    4.0538 C   0  0  0  0  0  0  0  0  0  0  0  0
  -20.4288    6.5949    5.6491 O   0  0  0  0  0  0  0  0  0  0  0  0
  1  7  1  0  0  0  0
  1  9  1  0  0  0  0
  2  8  1  0  0  0  0
  2 14  1  0  0  0  0
  2 15  1  0  0  0  0
  3  4  2  0  0  0  0
  3  8  1  0  0  0  0
  4  5  1  0  0  0  0
  4 21  1  0  0  0  0
  5  6  2  0  0  0  0
  6  7  1  0  0  0  0
  7  8  2  0  0  0  0
  9 10  2  0  0  0  0
  9 14  1  0  0  0  0
 10 11  1  0  0  0  0
 11 12  2  0  0  0  0
 12 13  1  0  0  0  0
 13 14  2  0  0  0  0
 15 16  1  0  0  0  0
 16 17  1  0  0  0  0
 17 18  1  0  0  0  0
 18 19  1  0  0  0  0
 18 20  1  0  0  0  0
 21 22  1  0  0  0  0
 21 23  2  0  0  0  0
M  CHG  1  18   1
M  END
>  <CHROM.1>
135.47231199,-164.12043261,57.60931013,-176.34218127,50.20783981,-23.17461246
7.12413977,9.90418685,1.51467225,-0.12801222,-1.46990755

>  <Name>


>  <RI>
0

>  <Rbt.Current_Directory>
/home/itssahil/PROJECTS/Mol_Feturizer/New_Systems/rnas/1lvj

>  <Rbt.Executable>
rbdock ($Id: //depot/dev/client3/rdock/2013.1/src/exe/rbdock.cxx#4 $)

>  <Rbt.Library>
libRbt.so (2013.1, Build901 2013/11/27)

>  <Rbt.Parameter_File>
/export/apps/rDock/src/rDock_2013.1_src/data/scripts/dock_solv.prm

>  <Rbt.Receptor>
prm/pocket_docking_8.prm

>  <SCORE>
-33.7679

>  <SCORE.INTER>
-28.4433

>  <SCORE.INTER.CONST>
1

>  <SCORE.INTER.POLAR>
0

>  <SCORE.INTER.ROT>
5

>  <SCORE.INTER.SOLV>
10.0445

>  <SCORE.INTER.VDW>
-29.2437

>  <SCORE.INTER.norm>
-1.23666

>  <SCORE.INTRA>
-5.32459

>  <SCORE.INTRA.DIHEDRAL>
-5.52088

>  <SCORE.INTRA.DIHEDRAL.0>
8.06479

>  <SCORE.INTRA.POLAR>
0

>  <SCORE.INTRA.POLAR.0>
0

>  <SCORE.INTRA.REPUL>
0

>  <SCORE.INTRA.REPUL.0>
0

>  <SCORE.INTRA.SOLV>
0.522517

>  <SCORE.INTRA.SOLV.lig_0>
-29.8054

>  <SCORE.INTRA.VDW>
-2.82541

>  <SCORE.INTRA.VDW.0>
2.61447

>  <SCORE.INTRA.norm>
-0.231504

>  <SCORE.RESTR>
0

>  <SCORE.RESTR.CAVITY>
0

>  <SCORE.RESTR.norm>
0

>  <SCORE.SYSTEM>
0

>  <SCORE.SYSTEM.CONST>
0

>  <SCORE.SYSTEM.DIHEDRAL>
0

>  <SCORE.SYSTEM.SOLV>
0

>  <SCORE.SYSTEM.norm>
0

>  <SCORE.heavy>
23

>  <SCORE.norm>
-1.46817

>  <RMSD>
7.246

$$$$

 OpenBabel11021811403D
libRbt.so/2013.1/901 2013/11/27
 23 25  0  0  0  0  0  0  0  0999 V2000
  -25.6738    8.3300    9.5087 S   0  0  0  0  0  0  0  0  0  0  0  0
  -22.9765    7.1856   10.0421 N   0  0  0  0  0  0  0  0  0  0  0  0
  -22.1786    7.2430    7.7674 C   0  0  0  0  0  0  0  0  0  0  0  0
  -22.4118    7.5615    6.4231 C   0  0  0  0  0  0  0  0  0  0  0  0
  -23.6284    8.1143    6.0347 C   0  0  0  0  0  0  0  0  0  0  0  0
  -24.6185    8.3473    6.9829 C   0  0  0  0  0  0  0  0  0  0  0  0
  -24.3987    8.0323    8.3215 C   0  0  0  0  0  0  0  0  0  0  0  0
  -23.1772    7.4785    8.7229 C   0  0  0  0  0  0  0  0  0  0  0  0
  -25.3188    6.8199   10.3504 C   0  0  0  0  0  0  0  0  0  0  0  0
  -26.3616    6.0317   10.8458 C   0  0  0  0  0  0  0  0  0  0  0  0
  -26.0760    4.8389   11.5162 C   0  0  0  0  0  0  0  0  0  0  0  0
  -24.7470    4.4402   11.6928 C   0  0  0  0  0  0  0  0  0  0  0  0
  -23.7109    5.2321   11.1965 C   0  0  0  0  0  0  0  0  0  0  0  0
  -23.9907    6.4150   10.5264 C   0  0  0  0  0  0  0  0  0  0  0  0
  -21.6009    6.9844   10.5611 C   0  0  0  0  0  0  0  0  0  0  0  0
  -21.3867    7.1594   12.1017 C   0  0  0  0  0  0  0  0  0  0  0  0
  -22.2218    8.3329   12.7187 C   0  0  0  0  0  0  0  0  0  0  0  0
  -21.7703    8.8913   14.0187 N   0  3  0  0  0  0  0  0  0  0  0  0
  -22.8116    9.7572   14.6297 C   0  0  0  0  0  0  0  0  0  0  0  0
  -20.4657    9.6220   13.8567 C   0  0  0  0  0  0  0  0  0  0  0  0
  -21.3528    7.3056    5.3889 C   0  0  0  0  0  0  0  0  0  0  0  0
  -21.3632    7.9969    4.0470 C   0  0  0  0  0  0  0  0  0  0  0  0
  -20.4210    6.5639    5.6567 O   0  0  0  0  0  0  0  0  0  0  0  0
  1  7  1  0  0  0  0
  1  9  1  0  0  0  0
  2  8  1  0  0  0  0
  2 14  1  0  0  0  0
  2 15  1  0  0  0  0
  3  4  2  0  0  0  0
  3  8  1  0  0  0  0
  4  5  1  0  0  0  0
  4 21  1  0  0  0  0
  5  6  2  0  0  0  0
  6  7  1  0  0  0  0
  7  8  2  0  0  0  0
  9 10  2  0  0  0  0
  9 14  1  0  0  0  0
 10 11  1  0  0  0  0
 11 12  2  0  0  0  0
 12 13  1  0  0  0  0
 13 14  2  0  0  0  0
 15 16  1  0  0  0  0
 16 17  1  0  0  0  0
 17 18  1  0  0  0  0
 18 19  1  0  0  0  0
 18 20  1  0  0  0  0
 21 22  1  0  0  0  0
 21 23  2  0  0  0  0
M  CHG  1  18   1
M  END
>  <CHROM.1>
158.81819451,-160.64821085,-38.42994461,-159.36187294,-46.69563124,-23.22274339
7.42745647,9.74039759,1.66126435,0.41722912,1.47997083

>  <Name>


>  <RI>
0

>  <Rbt.Current_Directory>
/home/itssahil/PROJECTS/Mol_Feturizer/New_Systems/rnas/1lvj

>  <Rbt.Executable>
rbdock ($Id: //depot/dev/client3/rdock/2013.1/src/exe/rbdock.cxx#4 $)

>  <Rbt.Library>
libRbt.so (2013.1, Build901 2013/11/27)

>  <Rbt.Parameter_File>
/export/apps/rDock/src/rDock_2013.1_src/data/scripts/dock_solv.prm

>  <Rbt.Receptor>
prm/pocket_docking_6.prm

>  <SCORE>
-34.1778

>  <SCORE.INTER>
-30.3623

>  <SCORE.INTER.CONST>
1

>  <SCORE.INTER.POLAR>
0

>  <SCORE.INTER.ROT>
5

>  <SCORE.INTER.SOLV>
10.531

>  <SCORE.INTER.VDW>
-30.6852

>  <SCORE.INTER.norm>
-1.3201

>  <SCORE.INTRA>
-3.81548

>  <SCORE.INTRA.DIHEDRAL>
-3.14906

>  <SCORE.INTRA.DIHEDRAL.0>
8.06479

>  <SCORE.INTRA.POLAR>
0

>  <SCORE.INTRA.POLAR.0>
0

>  <SCORE.INTRA.REPUL>
0

>  <SCORE.INTRA.REPUL.0>
0

>  <SCORE.INTRA.SOLV>
0.515298

>  <SCORE.INTRA.SOLV.lig_0>
-29.8054

>  <SCORE.INTRA.VDW>
-2.4986

>  <SCORE.INTRA.VDW.0>
2.61447

>  <SCORE.INTRA.norm>
-0.165891

>  <SCORE.RESTR>
0

>  <SCORE.RESTR.CAVITY>
0

>  <SCORE.RESTR.norm>
0

>  <SCORE.SYSTEM>
0

>  <SCORE.SYSTEM.CONST>
0

>  <SCORE.SYSTEM.DIHEDRAL>
0

>  <SCORE.SYSTEM.SOLV>
0

>  <SCORE.SYSTEM.norm>
0

>  <SCORE.heavy>
23

>  <SCORE.norm>
-1.48599

>  <RMSD>
7.253

$$$$

 OpenBabel11021811403D
libRbt.so/2013.1/901 2013/11/27
 23 25  0  0  0  0  0  0  0  0999 V2000
  -25.6783    8.3201    9.5350 S   0  0  0  0  0  0  0  0  0  0  0  0
  -22.9705    7.1975   10.0616 N   0  0  0  0  0  0  0  0  0  0  0  0
  -22.1794    7.2599    7.7847 C   0  0  0  0  0  0  0  0  0  0  0  0
  -22.4188    7.5758    6.4408 C   0  0  0  0  0  0  0  0  0  0  0  0
  -23.6409    8.1186    6.0555 C   0  0  0  0  0  0  0  0  0  0  0  0
  -24.6302    8.3444    7.0064 C   0  0  0  0  0  0  0  0  0  0  0  0
  -24.4042    8.0319    8.3444 C   0  0  0  0  0  0  0  0  0  0  0  0
  -23.1772    7.4880    8.7428 C   0  0  0  0  0  0  0  0  0  0  0  0
  -25.3090    6.8133   10.3766 C   0  0  0  0  0  0  0  0  0  0  0  0
  -26.3442    6.0172   10.8753 C   0  0  0  0  0  0  0  0  0  0  0  0
  -26.0472    4.8271   11.5456 C   0  0  0  0  0  0  0  0  0  0  0  0
  -24.7146    4.4391   11.7187 C   0  0  0  0  0  0  0  0  0  0  0  0
  -23.6862    5.2388   11.2192 C   0  0  0  0  0  0  0  0  0  0  0  0
  -23.9773    6.4191   10.5491 C   0  0  0  0  0  0  0  0  0  0  0  0
  -21.5920    7.0075   10.5769 C   0  0  0  0  0  0  0  0  0  0  0  0
  -21.3701    7.2098   12.1131 C   0  0  0  0  0  0  0  0  0  0  0  0
  -22.2596    8.3436   12.7282 C   0  0  0  0  0  0  0  0  0  0  0  0
  -21.8140    8.9518   14.0078 N   0  3  0  0  0  0  0  0  0  0  0  0
  -22.9092    9.7186   14.6560 C   0  0  0  0  0  0  0  0  0  0  0  0
  -20.5926    9.8026   13.7926 C   0  0  0  0  0  0  0  0  0  0  0  0
  -21.3607    7.3277    5.4039 C   0  0  0  0  0  0  0  0  0  0  0  0
  -21.3729    8.0280    4.0667 C   0  0  0  0  0  0  0  0  0  0  0  0
  -20.4281    6.5849    5.6657 O   0  0  0  0  0  0  0  0  0  0  0  0
  1  7  1  0  0  0  0
  1  9  1  0  0  0  0
  2  8  1  0  0  0  0
  2 14  1  0  0  0  0
  2 15  1  0  0  0  0
  3  4  2  0  0  0  0
  3  8  1  0  0  0  0
  4  5  1  0  0  0  0
  4 21  1  0  0  0  0
  5  6  2  0  0  0  0
  6  7  1  0  0  0  0
  7  8  2  0  0  0  0
  9 10  2  0  0  0  0
  9 14  1  0  0  0  0
 10 11  1  0  0  0  0
 11 12  2  0  0  0  0
 12 13  1  0  0  0  0
 13 14  2  0  0  0  0
 15 16  1  0  0  0  0
 16 17  1  0  0  0  0
 17 18  1  0  0  0  0
 18 19  1  0  0  0  0
 18 20  1  0  0  0  0
 21 22  1  0  0  0  0
 21 23  2  0  0  0  0
M  CHG  1  18   1
M  END
>  <CHROM.1>
157.77173871,-160.05131212,-35.41282570,-158.53609403,-44.26553476,-23.23304622
7.44389473,9.75575733,1.67378032,0.43811250,1.47184020

>  <Name>


>  <RI>
0

>  <Rbt.Current_Directory>
/home/itssahil/PROJECTS/Mol_Feturizer/New_Systems/rnas/1lvj

>  <Rbt.Executable>
rbdock ($Id: //depot/dev/client3/rdock/2013.1/src/exe/rbdock.cxx#4 $)

>  <Rbt.Library>
libRbt.so (2013.1, Build901 2013/11/27)

>  <Rbt.Parameter_File>
/export/apps/rDock/src/rDock_2013.1_src/data/scripts/dock_solv.prm

>  <Rbt.Receptor>
prm/pocket_docking_8.prm

>  <SCORE>
-34.1885

>  <SCORE.INTER>
-30.6488

>  <SCORE.INTER.CONST>
1

>  <SCORE.INTER.POLAR>
0

>  <SCORE.INTER.ROT>
5

>  <SCORE.INTER.SOLV>
10.5266

>  <SCORE.INTER.VDW>
-30.8747

>  <SCORE.INTER.norm>
-1.33256

>  <SCORE.INTRA>
-3.53974

>  <SCORE.INTRA.DIHEDRAL>
-2.38672

>  <SCORE.INTRA.DIHEDRAL.0>
8.06479

>  <SCORE.INTRA.POLAR>
0

>  <SCORE.INTRA.POLAR.0>
0

>  <SCORE.INTRA.REPUL>
0

>  <SCORE.INTRA.REPUL.0>
0

>  <SCORE.INTRA.SOLV>
0.554233

>  <SCORE.INTRA.SOLV.lig_0>
-29.8054

>  <SCORE.INTRA.VDW>
-2.6235

>  <SCORE.INTRA.VDW.0>
2.61447

>  <SCORE.INTRA.norm>
-0.153902

>  <SCORE.RESTR>
0

>  <SCORE.RESTR.CAVITY>
0

>  <SCORE.RESTR.norm>
0

>  <SCORE.SYSTEM>
0

>  <SCORE.SYSTEM.CONST>
0

>  <SCORE.SYSTEM.DIHEDRAL>
0

>  <SCORE.SYSTEM.SOLV>
0

>  <SCORE.SYSTEM.norm>
0

>  <SCORE.heavy>
23

>  <SCORE.norm>
-1.48646

>  <RMSD>
7.253

$$$$

 OpenBabel11021811403D
libRbt.so/2013.1/901 2013/11/27
 23 25  0  0  0  0  0  0  0  0999 V2000
  -25.7122    6.8577    9.7786 S   0  0  0  0  0  0  0  0  0  0  0  0
  -24.9201    6.9485   12.6480 N   0  0  0  0  0  0  0  0  0  0  0  0
  -22.5451    7.1605   12.2900 C   0  0  0  0  0  0  0  0  0  0  0  0
  -21.4720    7.2590   11.3945 C   0  0  0  0  0  0  0  0  0  0  0  0
  -21.7006    7.2407   10.0220 C   0  0  0  0  0  0  0  0  0  0  0  0
  -22.9982    7.1196    9.5366 C   0  0  0  0  0  0  0  0  0  0  0  0
  -24.0721    7.0184   10.4173 C   0  0  0  0  0  0  0  0  0  0  0  0
  -23.8530    7.0386   11.7999 C   0  0  0  0  0  0  0  0  0  0  0  0
  -26.1429    5.6868   11.0269 C   0  0  0  0  0  0  0  0  0  0  0  0
  -26.9363    4.5811   10.7070 C   0  0  0  0  0  0  0  0  0  0  0  0
  -27.2793    3.6588   11.6997 C   0  0  0  0  0  0  0  0  0  0  0  0
  -26.8308    3.8478   13.0109 C   0  0  0  0  0  0  0  0  0  0  0  0
  -26.0399    4.9540   13.3236 C   0  0  0  0  0  0  0  0  0  0  0  0
  -25.6935    5.8697   12.3396 C   0  0  0  0  0  0  0  0  0  0  0  0
  -24.7829    7.3610   14.0668 C   0  0  0  0  0  0  0  0  0  0  0  0
  -24.2303    8.7994   14.3416 C   0  0  0  0  0  0  0  0  0  0  0  0
  -24.9959    9.9219   13.5611 C   0  0  0  0  0  0  0  0  0  0  0  0
  -26.4051   10.1907   13.9457 N   0  3  0  0  0  0  0  0  0  0  0  0
  -26.5391   10.3957   15.4111 C   0  0  0  0  0  0  0  0  0  0  0  0
  -27.3069    9.0921   13.4541 C   0  0  0  0  0  0  0  0  0  0  0  0
  -20.0655    7.3810   11.9077 C   0  0  0  0  0  0  0  0  0  0  0  0
  -19.0234    8.2070   11.1933 C   0  0  0  0  0  0  0  0  0  0  0  0
  -19.7651    6.8484   12.9643 O   0  0  0  0  0  0  0  0  0  0  0  0
  1  7  1  0  0  0  0
  1  9  1  0  0  0  0
  2  8  1  0  0  0  0
  2 14  1  0  0  0  0
  2 15  1  0  0  0  0
  3  4  2  0  0  0  0
  3  8  1  0  0  0  0
  4  5  1  0  0  0  0
  4 21  1  0  0  0  0
  5  6  2  0  0  0  0
  6  7  1  0  0  0  0
  7  8  2  0  0  0  0
  9 10  2  0  0  0  0
  9 14  1  0  0  0  0
 10 11  1  0  0  0  0
 11 12  2  0  0  0  0
 12 13  1  0  0  0  0
 13 14  2  0  0  0  0
 15 16  1  0  0  0  0
 16 17  1  0  0  0  0
 17 18  1  0  0  0  0
 18 19  1  0  0  0  0
 18 20  1  0  0  0  0
 21 22  1  0  0  0  0
 21 23  2  0  0  0  0
M  CHG  1  18   1
M  END
>  <CHROM.1>
53.57176751,-145.35669883,51.87678636,67.71486047,171.00771394,-24.38991972
7.17137549,12.13735637,3.11428188,0.22889607,0.67716587

>  <Name>


>  <RI>
0

>  <Rbt.Current_Directory>
/home/itssahil/PROJECTS/Mol_Feturizer/New_Systems/rnas/1lvj

>  <Rbt.Executable>
rbdock ($Id: //depot/dev/client3/rdock/2013.1/src/exe/rbdock.cxx#4 $)

>  <Rbt.Library>
libRbt.so (2013.1, Build901 2013/11/27)

>  <Rbt.Parameter_File>
/export/apps/rDock/src/rDock_2013.1_src/data/scripts/dock_solv.prm

>  <Rbt.Receptor>
prm/pocket_docking_8.prm

>  <SCORE>
-17.695

>  <SCORE.INTER>
-14.5909

>  <SCORE.INTER.CONST>
1

>  <SCORE.INTER.POLAR>
-1.39834

>  <SCORE.INTER.ROT>
5

>  <SCORE.INTER.SOLV>
10.2326

>  <SCORE.INTER.VDW>
-15.4103

>  <SCORE.INTER.norm>
-0.634387

>  <SCORE.INTRA>
-3.10408

>  <SCORE.INTRA.DIHEDRAL>
-3.26016

>  <SCORE.INTRA.DIHEDRAL.0>
8.06479

>  <SCORE.INTRA.POLAR>
0

>  <SCORE.INTRA.POLAR.0>
0

>  <SCORE.INTRA.REPUL>
0

>  <SCORE.INTRA.REPUL.0>
0

>  <SCORE.INTRA.SOLV>
-0.0919661

>  <SCORE.INTRA.SOLV.lig_0>
-29.8054

>  <SCORE.INTRA.VDW>
-1.42801

>  <SCORE.INTRA.VDW.0>
2.61447

>  <SCORE.INTRA.norm>
-0.13496

>  <SCORE.RESTR>
0

>  <SCORE.RESTR.CAVITY>
0

>  <SCORE.RESTR.norm>
0

>  <SCORE.SYSTEM>
0

>  <SCORE.SYSTEM.CONST>
0

>  <SCORE.SYSTEM.DIHEDRAL>
0

>  <SCORE.SYSTEM.SOLV>
0

>  <SCORE.SYSTEM.norm>
0

>  <SCORE.heavy>
23

>  <SCORE.norm>
-0.769347

>  <RMSD>
7.258

$$$$

 OpenBabel11021811403D
libRbt.so/2013.1/901 2013/11/27
 23 25  0  0  0  0  0  0  0  0999 V2000
  -26.0551    8.0375    9.3424 S   0  0  0  0  0  0  0  0  0  0  0  0
  -23.3061    7.0909    9.9874 N   0  0  0  0  0  0  0  0  0  0  0  0
  -22.4285    7.1880    7.7437 C   0  0  0  0  0  0  0  0  0  0  0  0
  -22.6324    7.4794    6.3885 C   0  0  0  0  0  0  0  0  0  0  0  0
  -23.8693    7.9418    5.9495 C   0  0  0  0  0  0  0  0  0  0  0  0
  -24.9087    8.1111    6.8577 C   0  0  0  0  0  0  0  0  0  0  0  0
  -24.7181    7.8222    8.2066 C   0  0  0  0  0  0  0  0  0  0  0  0
  -23.4767    7.3592    8.6589 C   0  0  0  0  0  0  0  0  0  0  0  0
  -25.6268    6.5625   10.2118 C   0  0  0  0  0  0  0  0  0  0  0  0
  -26.6296    5.7061   10.6757 C   0  0  0  0  0  0  0  0  0  0  0  0
  -26.2863    4.5415   11.3682 C   0  0  0  0  0  0  0  0  0  0  0  0
  -24.9401    4.2392   11.5982 C   0  0  0  0  0  0  0  0  0  0  0  0
  -23.9443    5.0987   11.1331 C   0  0  0  0  0  0  0  0  0  0  0  0
  -24.2811    6.2539   10.4412 C   0  0  0  0  0  0  0  0  0  0  0  0
  -21.9405    6.9914   10.5594 C   0  0  0  0  0  0  0  0  0  0  0  0
  -21.7856    7.2758   12.0908 C   0  0  0  0  0  0  0  0  0  0  0  0
  -20.3793    6.8831   12.6595 C   0  0  0  0  0  0  0  0  0  0  0  0
  -19.1885    7.1912   11.8271 N   0  3  0  0  0  0  0  0  0  0  0  0
  -17.9449    6.6536   12.4370 C   0  0  0  0  0  0  0  0  0  0  0  0
  -19.0879    8.6702   11.5735 C   0  0  0  0  0  0  0  0  0  0  0  0
  -21.5195    7.2915    5.3971 C   0  0  0  0  0  0  0  0  0  0  0  0
  -21.5635    7.9090    4.0204 C   0  0  0  0  0  0  0  0  0  0  0  0
  -20.5207    6.6728    5.7282 O   0  0  0  0  0  0  0  0  0  0  0  0
  1  7  1  0  0  0  0
  1  9  1  0  0  0  0
  2  8  1  0  0  0  0
  2 14  1  0  0  0  0
  2 15  1  0  0  0  0
  3  4  2  0  0  0  0
  3  8  1  0  0  0  0
  4  5  1  0  0  0  0
  4 21  1  0  0  0  0
  5  6  2  0  0  0  0
  6  7  1  0  0  0  0
  7  8  2  0  0  0  0
  9 10  2  0  0  0  0
  9 14  1  0  0  0  0
 10 11  1  0  0  0  0
 11 12  2  0  0  0  0
 12 13  1  0  0  0  0
 13 14  2  0  0  0  0
 15 16  1  0  0  0  0
 16 17  1  0  0  0  0
 17 18  1  0  0  0  0
 18 19  1  0  0  0  0
 18 20  1  0  0  0  0
 21 22  1  0  0  0  0
 21 23  2  0  0  0  0
M  CHG  1  18   1
M  END
>  <CHROM.1>
155.29588653,-164.08222985,168.87978538,40.67128114,-54.89085359,-22.96271457
6.98866925,9.36621634,2.26293070,-0.14918981,-1.35277262

>  <Name>


>  <RI>
0

>  <Rbt.Current_Directory>
/home/itssahil/PROJECTS/Mol_Feturizer/New_Systems/rnas/1lvj

>  <Rbt.Executable>
rbdock ($Id: //depot/dev/client3/rdock/2013.1/src/exe/rbdock.cxx#4 $)

>  <Rbt.Library>
libRbt.so (2013.1, Build901 2013/11/27)

>  <Rbt.Parameter_File>
/export/apps/rDock/src/rDock_2013.1_src/data/scripts/dock_solv.prm

>  <Rbt.Receptor>
prm/pocket_docking_4.prm

>  <SCORE>
-34.2518

>  <SCORE.INTER>
-33.2934

>  <SCORE.INTER.CONST>
1

>  <SCORE.INTER.POLAR>
-1.30767

>  <SCORE.INTER.ROT>
5

>  <SCORE.INTER.SOLV>
14.6486

>  <SCORE.INTER.VDW>
-29.6529

>  <SCORE.INTER.norm>
-1.44754

>  <SCORE.INTRA>
-3.18106

>  <SCORE.INTRA.DIHEDRAL>
-5.03737

>  <SCORE.INTRA.DIHEDRAL.0>
8.06479

>  <SCORE.INTRA.POLAR>
0

>  <SCORE.INTRA.POLAR.0>
0

>  <SCORE.INTRA.REPUL>
0

>  <SCORE.INTRA.REPUL.0>
0

>  <SCORE.INTRA.SOLV>
2.13176

>  <SCORE.INTRA.SOLV.lig_0>
-29.8054

>  <SCORE.INTRA.VDW>
-1.72826

>  <SCORE.INTRA.VDW.0>
2.61447

>  <SCORE.INTRA.norm>
-0.138307

>  <SCORE.RESTR>
2.22267

>  <SCORE.RESTR.CAVITY>
2.22267

>  <SCORE.RESTR.norm>
0.0966379

>  <SCORE.SYSTEM>
0

>  <SCORE.SYSTEM.CONST>
0

>  <SCORE.SYSTEM.DIHEDRAL>
0

>  <SCORE.SYSTEM.SOLV>
0

>  <SCORE.SYSTEM.norm>
0

>  <SCORE.heavy>
23

>  <SCORE.norm>
-1.48921

>  <RMSD>
7.261

$$$$

 OpenBabel11021811403D
libRbt.so/2013.1/901 2013/11/27
 23 25  0  0  0  0  0  0  0  0999 V2000
  -26.4267    8.0061   10.2144 S   0  0  0  0  0  0  0  0  0  0  0  0
  -23.6301    7.2049   10.8516 N   0  0  0  0  0  0  0  0  0  0  0  0
  -22.7655    7.3459    8.6051 C   0  0  0  0  0  0  0  0  0  0  0  0
  -22.9885    7.6251    7.2504 C   0  0  0  0  0  0  0  0  0  0  0  0
  -24.2492    8.0219    6.8148 C   0  0  0  0  0  0  0  0  0  0  0  0
  -25.2932    8.1374    7.7261 C   0  0  0  0  0  0  0  0  0  0  0  0
  -25.0838    7.8600    9.0746 C   0  0  0  0  0  0  0  0  0  0  0  0
  -23.8185    7.4628    9.5234 C   0  0  0  0  0  0  0  0  0  0  0  0
  -25.9193    6.5562   11.0834 C   0  0  0  0  0  0  0  0  0  0  0  0
  -26.8746    5.6490   11.5509 C   0  0  0  0  0  0  0  0  0  0  0  0
  -26.4688    4.5045   12.2432 C   0  0  0  0  0  0  0  0  0  0  0  0
  -25.1081    4.2731   12.4693 C   0  0  0  0  0  0  0  0  0  0  0  0
  -24.1599    5.1831   12.0006 C   0  0  0  0  0  0  0  0  0  0  0  0
  -24.5587    6.3185   11.3089 C   0  0  0  0  0  0  0  0  0  0  0  0
  -22.2594    7.1773   11.4195 C   0  0  0  0  0  0  0  0  0  0  0  0
  -21.3450    5.9718   11.0188 C   0  0  0  0  0  0  0  0  0  0  0  0
  -20.0941    5.8017   11.9471 C   0  0  0  0  0  0  0  0  0  0  0  0
  -19.0137    4.8917   11.4882 N   0  3  0  0  0  0  0  0  0  0  0  0
  -19.4251    3.4672   11.5843 C   0  0  0  0  0  0  0  0  0  0  0  0
  -17.7421    5.1547   12.2470 C   0  0  0  0  0  0  0  0  0  0  0  0
  -21.8703    7.4948    6.2558 C   0  0  0  0  0  0  0  0  0  0  0  0
  -21.8740    8.2465    4.9467 C   0  0  0  0  0  0  0  0  0  0  0  0
  -20.8989    6.8096    6.5332 O   0  0  0  0  0  0  0  0  0  0  0  0
  1  7  1  0  0  0  0
  1  9  1  0  0  0  0
  2  8  1  0  0  0  0
  2 14  1  0  0  0  0
  2 15  1  0  0  0  0
  3  4  2  0  0  0  0
  3  8  1  0  0  0  0
  4  5  1  0  0  0  0
  4 21  1  0  0  0  0
  5  6  2  0  0  0  0
  6  7  1  0  0  0  0
  7  8  2  0  0  0  0
  9 10  2  0  0  0  0
  9 14  1  0  0  0  0
 10 11  1  0  0  0  0
 11 12  2  0  0  0  0
 12 13  1  0  0  0  0
 13 14  2  0  0  0  0
 15 16  1  0  0  0  0
 16 17  1  0  0  0  0
 17 18  1  0  0  0  0
 18 19  1  0  0  0  0
 18 20  1  0  0  0  0
 21 22  1  0  0  0  0
 21 23  2  0  0  0  0
M  CHG  1  18   1
M  END
>  <CHROM.1>
-70.85590046,-156.37040672,-163.93895173,-166.81870278,47.51799861,-23.17421259
6.53879910,9.93923828,2.71732658,0.18522027,-1.10099912

>  <Name>


>  <RI>
0

>  <Rbt.Current_Directory>
/home/itssahil/PROJECTS/Mol_Feturizer/New_Systems/rnas/1lvj

>  <Rbt.Executable>
rbdock ($Id: //depot/dev/client3/rdock/2013.1/src/exe/rbdock.cxx#4 $)

>  <Rbt.Library>
libRbt.so (2013.1, Build901 2013/11/27)

>  <Rbt.Parameter_File>
/export/apps/rDock/src/rDock_2013.1_src/data/scripts/dock_solv.prm

>  <Rbt.Receptor>
prm/pocket_docking_8.prm

>  <SCORE>
-32.9976

>  <SCORE.INTER>
-29.0944

>  <SCORE.INTER.CONST>
1

>  <SCORE.INTER.POLAR>
-1.30737

>  <SCORE.INTER.ROT>
5

>  <SCORE.INTER.SOLV>
15.1909

>  <SCORE.INTER.VDW>
-27.0353

>  <SCORE.INTER.norm>
-1.26497

>  <SCORE.INTRA>
-3.90316

>  <SCORE.INTRA.DIHEDRAL>
-4.01613

>  <SCORE.INTRA.DIHEDRAL.0>
8.06479

>  <SCORE.INTRA.POLAR>
0

>  <SCORE.INTRA.POLAR.0>
0

>  <SCORE.INTRA.REPUL>
0

>  <SCORE.INTRA.REPUL.0>
0

>  <SCORE.INTRA.SOLV>
0.481752

>  <SCORE.INTRA.SOLV.lig_0>
-29.8054

>  <SCORE.INTRA.VDW>
-2.13597

>  <SCORE.INTRA.VDW.0>
2.61447

>  <SCORE.INTRA.norm>
-0.169703

>  <SCORE.RESTR>
0

>  <SCORE.RESTR.CAVITY>
0

>  <SCORE.RESTR.norm>
0

>  <SCORE.SYSTEM>
0

>  <SCORE.SYSTEM.CONST>
0

>  <SCORE.SYSTEM.DIHEDRAL>
0

>  <SCORE.SYSTEM.SOLV>
0

>  <SCORE.SYSTEM.norm>
0

>  <SCORE.heavy>
23

>  <SCORE.norm>
-1.43468

>  <RMSD>
7.289

$$$$

 OpenBabel11021811403D
libRbt.so/2013.1/901 2013/11/27
 23 25  0  0  0  0  0  0  0  0999 V2000
  -25.7085    8.3265    9.1756 S   0  0  0  0  0  0  0  0  0  0  0  0
  -23.0255    7.2133    9.8327 N   0  0  0  0  0  0  0  0  0  0  0  0
  -22.1429    7.2315    7.5888 C   0  0  0  0  0  0  0  0  0  0  0  0
  -22.3275    7.5215    6.2305 C   0  0  0  0  0  0  0  0  0  0  0  0
  -23.5324    8.0572    5.7858 C   0  0  0  0  0  0  0  0  0  0  0  0
  -24.5591    8.3016    6.6913 C   0  0  0  0  0  0  0  0  0  0  0  0
  -24.3876    8.0149    8.0432 C   0  0  0  0  0  0  0  0  0  0  0  0
  -23.1784    7.4784    8.5013 C   0  0  0  0  0  0  0  0  0  0  0  0
  -25.3752    6.8362   10.0603 C   0  0  0  0  0  0  0  0  0  0  0  0
  -26.4306    6.0502   10.5319 C   0  0  0  0  0  0  0  0  0  0  0  0
  -26.1624    4.8731   11.2365 C   0  0  0  0  0  0  0  0  0  0  0  0
  -24.8383    4.4880   11.4708 C   0  0  0  0  0  0  0  0  0  0  0  0
  -23.7896    5.2776   10.9979 C   0  0  0  0  0  0  0  0  0  0  0  0
  -24.0520    6.4449   10.2940 C   0  0  0  0  0  0  0  0  0  0  0  0
  -21.6691    7.0328   10.4069 C   0  0  0  0  0  0  0  0  0  0  0  0
  -21.5433    7.0722   11.9665 C   0  0  0  0  0  0  0  0  0  0  0  0
  -20.0915    6.7881   12.4830 C   0  0  0  0  0  0  0  0  0  0  0  0
  -19.8884    6.6921   13.9511 N   0  3  0  0  0  0  0  0  0  0  0  0
  -20.4640    5.4366   14.4988 C   0  0  0  0  0  0  0  0  0  0  0  0
  -20.4449    7.9060   14.6431 C   0  0  0  0  0  0  0  0  0  0  0  0
  -21.2287    7.2530    5.2422 C   0  0  0  0  0  0  0  0  0  0  0  0
  -21.2159    7.8840    3.8709 C   0  0  0  0  0  0  0  0  0  0  0  0
  -20.2846    6.5527    5.5718 O   0  0  0  0  0  0  0  0  0  0  0  0
  1  7  1  0  0  0  0
  1  9  1  0  0  0  0
  2  8  1  0  0  0  0
  2 14  1  0  0  0  0
  2 15  1  0  0  0  0
  3  4  2  0  0  0  0
  3  8  1  0  0  0  0
  4  5  1  0  0  0  0
  4 21  1  0  0  0  0
  5  6  2  0  0  0  0
  6  7  1  0  0  0  0
  7  8  2  0  0  0  0
  9 10  2  0  0  0  0
  9 14  1  0  0  0  0
 10 11  1  0  0  0  0
 11 12  2  0  0  0  0
 12 13  1  0  0  0  0
 13 14  2  0  0  0  0
 15 16  1  0  0  0  0
 16 17  1  0  0  0  0
 17 18  1  0  0  0  0
 18 19  1  0  0  0  0
 18 20  1  0  0  0  0
 21 22  1  0  0  0  0
 21 23  2  0  0  0  0
M  CHG  1  18   1
M  END
>  <CHROM.1>
165.85710514,-162.59627732,176.56060547,-175.08856084,-167.98741753,-22.93740560
6.97802663,9.57090321,1.73211720,-0.06034978,-1.38916126

>  <Name>


>  <RI>
0

>  <Rbt.Current_Directory>
/home/itssahil/PROJECTS/Mol_Feturizer/New_Systems/rnas/1lvj

>  <Rbt.Executable>
rbdock ($Id: //depot/dev/client3/rdock/2013.1/src/exe/rbdock.cxx#4 $)

>  <Rbt.Library>
libRbt.so (2013.1, Build901 2013/11/27)

>  <Rbt.Parameter_File>
/export/apps/rDock/src/rDock_2013.1_src/data/scripts/dock_solv.prm

>  <Rbt.Receptor>
prm/pocket_docking_5.prm

>  <SCORE>
-32.344

>  <SCORE.INTER>
-28.3091

>  <SCORE.INTER.CONST>
1

>  <SCORE.INTER.POLAR>
0

>  <SCORE.INTER.ROT>
5

>  <SCORE.INTER.SOLV>
10.7032

>  <SCORE.INTER.VDW>
-29.3738

>  <SCORE.INTER.norm>
-1.23083

>  <SCORE.INTRA>
-4.09869

>  <SCORE.INTRA.DIHEDRAL>
-6.4782

>  <SCORE.INTRA.DIHEDRAL.0>
8.06479

>  <SCORE.INTRA.POLAR>
0

>  <SCORE.INTRA.POLAR.0>
0

>  <SCORE.INTRA.REPUL>
0

>  <SCORE.INTRA.REPUL.0>
0

>  <SCORE.INTRA.SOLV>
-0.601067

>  <SCORE.INTRA.SOLV.lig_0>
-29.8054

>  <SCORE.INTRA.VDW>
-0.559059

>  <SCORE.INTRA.VDW.0>
2.61447

>  <SCORE.INTRA.norm>
-0.178204

>  <SCORE.RESTR>
0.0638239

>  <SCORE.RESTR.CAVITY>
0.0638239

>  <SCORE.RESTR.norm>
0.00277495

>  <SCORE.SYSTEM>
0

>  <SCORE.SYSTEM.CONST>
0

>  <SCORE.SYSTEM.DIHEDRAL>
0

>  <SCORE.SYSTEM.SOLV>
0

>  <SCORE.SYSTEM.norm>
0

>  <SCORE.heavy>
23

>  <SCORE.norm>
-1.40626

>  <RMSD>
7.294

$$$$

 OpenBabel11021811403D
libRbt.so/2013.1/901 2013/11/27
 23 25  0  0  0  0  0  0  0  0999 V2000
  -25.8654    8.1245   10.1841 S   0  0  0  0  0  0  0  0  0  0  0  0
  -23.0644    7.1170   10.2753 N   0  0  0  0  0  0  0  0  0  0  0  0
  -22.5550    7.4551    7.9429 C   0  0  0  0  0  0  0  0  0  0  0  0
  -22.9680    7.8900    6.6766 C   0  0  0  0  0  0  0  0  0  0  0  0
  -24.2515    8.3955    6.4935 C   0  0  0  0  0  0  0  0  0  0  0  0
  -25.1295    8.4653    7.5696 C   0  0  0  0  0  0  0  0  0  0  0  0
  -24.7307    8.0336    8.8320 C   0  0  0  0  0  0  0  0  0  0  0  0
  -23.4406    7.5260    9.0274 C   0  0  0  0  0  0  0  0  0  0  0  0
  -25.3277    6.5652   10.8121 C   0  0  0  0  0  0  0  0  0  0  0  0
  -26.2572    5.6629   11.3375 C   0  0  0  0  0  0  0  0  0  0  0  0
  -25.8266    4.4310   11.8384 C   0  0  0  0  0  0  0  0  0  0  0  0
  -24.4661    4.1072   11.8160 C   0  0  0  0  0  0  0  0  0  0  0  0
  -23.5435    5.0127   11.2908 C   0  0  0  0  0  0  0  0  0  0  0  0
  -23.9678    6.2351   10.7884 C   0  0  0  0  0  0  0  0  0  0  0  0
  -21.6267    6.9581   10.6068 C   0  0  0  0  0  0  0  0  0  0  0  0
  -21.1594    7.4576   12.0146 C   0  0  0  0  0  0  0  0  0  0  0  0
  -22.0347    6.9101   13.1934 C   0  0  0  0  0  0  0  0  0  0  0  0
  -21.6219    7.2566   14.5774 N   0  3  0  0  0  0  0  0  0  0  0  0
  -20.3961    6.5197   14.9798 C   0  0  0  0  0  0  0  0  0  0  0  0
  -22.7522    7.0222   15.5414 C   0  0  0  0  0  0  0  0  0  0  0  0
  -22.0310    7.8107    5.5053 C   0  0  0  0  0  0  0  0  0  0  0  0
  -20.9096    6.8019    5.4463 C   0  0  0  0  0  0  0  0  0  0  0  0
  -22.2120    8.5398    4.5431 O   0  0  0  0  0  0  0  0  0  0  0  0
  1  7  1  0  0  0  0
  1  9  1  0  0  0  0
  2  8  1  0  0  0  0
  2 14  1  0  0  0  0
  2 15  1  0  0  0  0
  3  4  2  0  0  0  0
  3  8  1  0  0  0  0
  4  5  1  0  0  0  0
  4 21  1  0  0  0  0
  5  6  2  0  0  0  0
  6  7  1  0  0  0  0
  7  8  2  0  0  0  0
  9 10  2  0  0  0  0
  9 14  1  0  0  0  0
 10 11  1  0  0  0  0
 11 12  2  0  0  0  0
 12 13  1  0  0  0  0
 13 14  2  0  0  0  0
 15 16  1  0  0  0  0
 16 17  1  0  0  0  0
 17 18  1  0  0  0  0
 18 19  1  0  0  0  0
 18 20  1  0  0  0  0
 21 22  1  0  0  0  0
 21 23  2  0  0  0  0
M  CHG  1  18   1
M  END
>  <CHROM.1>
138.82031317,26.07912352,50.67388015,176.23048753,47.89361293,-23.37738274
7.04706914,10.12169432,1.60674921,-0.14580057,-1.36513595

>  <Name>


>  <RI>
0

>  <Rbt.Current_Directory>
/home/itssahil/PROJECTS/Mol_Feturizer/New_Systems/rnas/1lvj

>  <Rbt.Executable>
rbdock ($Id: //depot/dev/client3/rdock/2013.1/src/exe/rbdock.cxx#4 $)

>  <Rbt.Library>
libRbt.so (2013.1, Build901 2013/11/27)

>  <Rbt.Parameter_File>
/export/apps/rDock/src/rDock_2013.1_src/data/scripts/dock_solv.prm

>  <Rbt.Receptor>
prm/pocket_docking_5.prm

>  <SCORE>
-34.2226

>  <SCORE.INTER>
-29.5752

>  <SCORE.INTER.CONST>
1

>  <SCORE.INTER.POLAR>
-0.599446

>  <SCORE.INTER.ROT>
5

>  <SCORE.INTER.SOLV>
9.47684

>  <SCORE.INTER.VDW>
-27.8109

>  <SCORE.INTER.norm>
-1.28588

>  <SCORE.INTRA>
-4.64741

>  <SCORE.INTRA.DIHEDRAL>
-3.84012

>  <SCORE.INTRA.DIHEDRAL.0>
8.06479

>  <SCORE.INTRA.POLAR>
0

>  <SCORE.INTRA.POLAR.0>
0

>  <SCORE.INTRA.REPUL>
0

>  <SCORE.INTRA.REPUL.0>
0

>  <SCORE.INTRA.SOLV>
0.541908

>  <SCORE.INTRA.SOLV.lig_0>
-29.8054

>  <SCORE.INTRA.VDW>
-2.9983

>  <SCORE.INTRA.VDW.0>
2.61447

>  <SCORE.INTRA.norm>
-0.202061

>  <SCORE.RESTR>
0

>  <SCORE.RESTR.CAVITY>
0

>  <SCORE.RESTR.norm>
0

>  <SCORE.SYSTEM>
0

>  <SCORE.SYSTEM.CONST>
0

>  <SCORE.SYSTEM.DIHEDRAL>
0

>  <SCORE.SYSTEM.SOLV>
0

>  <SCORE.SYSTEM.norm>
0

>  <SCORE.heavy>
23

>  <SCORE.norm>
-1.48794

>  <RMSD>
7.317

$$$$

 OpenBabel11021811403D
libRbt.so/2013.1/901 2013/11/27
 23 25  0  0  0  0  0  0  0  0999 V2000
  -25.5390    8.2965    9.2957 S   0  0  0  0  0  0  0  0  0  0  0  0
  -22.8040    7.2613    9.8589 N   0  0  0  0  0  0  0  0  0  0  0  0
  -22.0249    7.2345    7.5771 C   0  0  0  0  0  0  0  0  0  0  0  0
  -22.2778    7.4814    6.2213 C   0  0  0  0  0  0  0  0  0  0  0  0
  -23.5136    7.9778    5.8179 C   0  0  0  0  0  0  0  0  0  0  0  0
  -24.5034    8.2256    6.7627 C   0  0  0  0  0  0  0  0  0  0  0  0
  -24.2642    7.9815    8.1127 C   0  0  0  0  0  0  0  0  0  0  0  0
  -23.0233    7.4848    8.5291 C   0  0  0  0  0  0  0  0  0  0  0  0
  -25.1315    6.8397   10.2048 C   0  0  0  0  0  0  0  0  0  0  0  0
  -26.1460    6.0446   10.7461 C   0  0  0  0  0  0  0  0  0  0  0  0
  -25.8189    4.8944   11.4698 C   0  0  0  0  0  0  0  0  0  0  0  0
  -24.4770    4.5451   11.6533 C   0  0  0  0  0  0  0  0  0  0  0  0
  -23.4694    5.3435   11.1110 C   0  0  0  0  0  0  0  0  0  0  0  0
  -23.7904    6.4841   10.3880 C   0  0  0  0  0  0  0  0  0  0  0  0
  -21.4191    7.1269   10.3747 C   0  0  0  0  0  0  0  0  0  0  0  0
  -21.2057    7.3401   11.9106 C   0  0  0  0  0  0  0  0  0  0  0  0
  -19.6969    7.3850   12.3308 C   0  0  0  0  0  0  0  0  0  0  0  0
  -18.8501    6.2144   11.9865 N   0  3  0  0  0  0  0  0  0  0  0  0
  -19.3295    4.9797   12.6599 C   0  0  0  0  0  0  0  0  0  0  0  0
  -17.4064    6.4940   12.3021 C   0  0  0  0  0  0  0  0  0  0  0  0
  -21.2190    7.2088    5.1911 C   0  0  0  0  0  0  0  0  0  0  0  0
  -21.2531    7.8456    3.8229 C   0  0  0  0  0  0  0  0  0  0  0  0
  -20.2687    6.5000    5.4820 O   0  0  0  0  0  0  0  0  0  0  0  0
  1  7  1  0  0  0  0
  1  9  1  0  0  0  0
  2  8  1  0  0  0  0
  2 14  1  0  0  0  0
  2 15  1  0  0  0  0
  3  4  2  0  0  0  0
  3  8  1  0  0  0  0
  4  5  1  0  0  0  0
  4 21  1  0  0  0  0
  5  6  2  0  0  0  0
  6  7  1  0  0  0  0
  7  8  2  0  0  0  0
  9 10  2  0  0  0  0
  9 14  1  0  0  0  0
 10 11  1  0  0  0  0
 11 12  2  0  0  0  0
 12 13  1  0  0  0  0
 13 14  2  0  0  0  0
 15 16  1  0  0  0  0
 16 17  1  0  0  0  0
 17 18  1  0  0  0  0
 18 19  1  0  0  0  0
 18 20  1  0  0  0  0
 21 22  1  0  0  0  0
 21 23  2  0  0  0  0
M  CHG  1  18   1
M  END
>  <CHROM.1>
160.56846396,-160.02422732,-171.64312971,-57.04089417,57.64717138,-22.54345121
6.90259657,9.32450627,2.02730987,0.03137441,-1.32230833

>  <Name>


>  <RI>
0

>  <Rbt.Current_Directory>
/home/itssahil/PROJECTS/Mol_Feturizer/New_Systems/rnas/1lvj

>  <Rbt.Executable>
rbdock ($Id: //depot/dev/client3/rdock/2013.1/src/exe/rbdock.cxx#4 $)

>  <Rbt.Library>
libRbt.so (2013.1, Build901 2013/11/27)

>  <Rbt.Parameter_File>
/export/apps/rDock/src/rDock_2013.1_src/data/scripts/dock_solv.prm

>  <Rbt.Receptor>
prm/pocket_docking_6.prm

>  <SCORE>
-39.4644

>  <SCORE.INTER>
-35.2532

>  <SCORE.INTER.CONST>
1

>  <SCORE.INTER.POLAR>
-1.30767

>  <SCORE.INTER.ROT>
5

>  <SCORE.INTER.SOLV>
14.2426

>  <SCORE.INTER.VDW>
-30.8241

>  <SCORE.INTER.norm>
-1.53275

>  <SCORE.INTRA>
-4.21115

>  <SCORE.INTRA.DIHEDRAL>
-6.14329

>  <SCORE.INTRA.DIHEDRAL.0>
8.06479

>  <SCORE.INTRA.POLAR>
0

>  <SCORE.INTRA.POLAR.0>
0

>  <SCORE.INTRA.REPUL>
0

>  <SCORE.INTRA.REPUL.0>
0

>  <SCORE.INTRA.SOLV>
1.907

>  <SCORE.INTRA.SOLV.lig_0>
-29.8054

>  <SCORE.INTRA.VDW>
-2.093

>  <SCORE.INTRA.VDW.0>
2.61447

>  <SCORE.INTRA.norm>
-0.183094

>  <SCORE.RESTR>
0

>  <SCORE.RESTR.CAVITY>
0

>  <SCORE.RESTR.norm>
0

>  <SCORE.SYSTEM>
0

>  <SCORE.SYSTEM.CONST>
0

>  <SCORE.SYSTEM.DIHEDRAL>
0

>  <SCORE.SYSTEM.SOLV>
0

>  <SCORE.SYSTEM.norm>
0

>  <SCORE.heavy>
23

>  <SCORE.norm>
-1.71584

>  <RMSD>
7.323

$$$$

 OpenBabel11021811403D
libRbt.so/2013.1/901 2013/11/27
 23 25  0  0  0  0  0  0  0  0999 V2000
  -25.7536    8.1284   10.2415 S   0  0  0  0  0  0  0  0  0  0  0  0
  -22.9523    7.1181   10.2729 N   0  0  0  0  0  0  0  0  0  0  0  0
  -22.4914    7.4587    7.9308 C   0  0  0  0  0  0  0  0  0  0  0  0
  -22.9304    7.8955    6.6740 C   0  0  0  0  0  0  0  0  0  0  0  0
  -24.2170    8.4025    6.5183 C   0  0  0  0  0  0  0  0  0  0  0  0
  -25.0722    8.4718    7.6126 C   0  0  0  0  0  0  0  0  0  0  0  0
  -24.6475    8.0381    8.8659 C   0  0  0  0  0  0  0  0  0  0  0  0
  -23.3541    7.5291    9.0337 C   0  0  0  0  0  0  0  0  0  0  0  0
  -25.2044    6.5678   10.8561 C   0  0  0  0  0  0  0  0  0  0  0  0
  -26.1236    5.6657   11.3998 C   0  0  0  0  0  0  0  0  0  0  0  0
  -25.6838    4.4329   11.8901 C   0  0  0  0  0  0  0  0  0  0  0  0
  -24.3244    4.1078   11.8388 C   0  0  0  0  0  0  0  0  0  0  0  0
  -23.4121    5.0131   11.2956 C   0  0  0  0  0  0  0  0  0  0  0  0
  -23.8457    6.2365   10.8037 C   0  0  0  0  0  0  0  0  0  0  0  0
  -21.5081    6.9575   10.5741 C   0  0  0  0  0  0  0  0  0  0  0  0
  -20.9778    7.6083   11.8951 C   0  0  0  0  0  0  0  0  0  0  0  0
  -21.8746    7.3056   13.1438 C   0  0  0  0  0  0  0  0  0  0  0  0
  -21.6168    8.0831   14.3827 N   0  3  0  0  0  0  0  0  0  0  0  0
  -22.3643    7.5263   15.5397 C   0  0  0  0  0  0  0  0  0  0  0  0
  -21.9288    9.5388   14.1688 C   0  0  0  0  0  0  0  0  0  0  0  0
  -22.0181    7.8168    5.4831 C   0  0  0  0  0  0  0  0  0  0  0  0
  -20.9045    6.8015    5.3958 C   0  0  0  0  0  0  0  0  0  0  0  0
  -22.2143    8.5522    4.5288 O   0  0  0  0  0  0  0  0  0  0  0  0
  1  7  1  0  0  0  0
  1  9  1  0  0  0  0
  2  8  1  0  0  0  0
  2 14  1  0  0  0  0
  2 15  1  0  0  0  0
  3  4  2  0  0  0  0
  3  8  1  0  0  0  0
  4  5  1  0  0  0  0
  4 21  1  0  0  0  0
  5  6  2  0  0  0  0
  6  7  1  0  0  0  0
  7  8  2  0  0  0  0
  9 10  2  0  0  0  0
  9 14  1  0  0  0  0
 10 11  1  0  0  0  0
 11 12  2  0  0  0  0
 12 13  1  0  0  0  0
 13 14  2  0  0  0  0
 15 16  1  0  0  0  0
 16 17  1  0  0  0  0
 17 18  1  0  0  0  0
 18 19  1  0  0  0  0
 18 20  1  0  0  0  0
 21 22  1  0  0  0  0
 21 23  2  0  0  0  0
M  CHG  1  18   1
M  END
>  <CHROM.1>
131.61490169,26.45922423,47.07482974,-168.32000691,-49.75623884,-23.34658788
7.26973622,10.08036877,1.58712639,0.40486950,1.66855829

>  <Name>


>  <RI>
0

>  <Rbt.Current_Directory>
/home/itssahil/PROJECTS/Mol_Feturizer/New_Systems/rnas/1lvj

>  <Rbt.Executable>
rbdock ($Id: //depot/dev/client3/rdock/2013.1/src/exe/rbdock.cxx#4 $)

>  <Rbt.Library>
libRbt.so (2013.1, Build901 2013/11/27)

>  <Rbt.Parameter_File>
/export/apps/rDock/src/rDock_2013.1_src/data/scripts/dock_solv.prm

>  <Rbt.Receptor>
prm/pocket_docking_7.prm

>  <SCORE>
-34.8257

>  <SCORE.INTER>
-30.4702

>  <SCORE.INTER.CONST>
1

>  <SCORE.INTER.POLAR>
-0.604592

>  <SCORE.INTER.ROT>
5

>  <SCORE.INTER.SOLV>
9.62564

>  <SCORE.INTER.VDW>
-28.4401

>  <SCORE.INTER.norm>
-1.32479

>  <SCORE.INTRA>
-4.3555

>  <SCORE.INTRA.DIHEDRAL>
-2.93804

>  <SCORE.INTRA.DIHEDRAL.0>
8.06479

>  <SCORE.INTRA.POLAR>
0

>  <SCORE.INTRA.POLAR.0>
0

>  <SCORE.INTRA.REPUL>
0

>  <SCORE.INTRA.REPUL.0>
0

>  <SCORE.INTRA.SOLV>
0.489507

>  <SCORE.INTRA.SOLV.lig_0>
-29.8054

>  <SCORE.INTRA.VDW>
-3.13124

>  <SCORE.INTRA.VDW.0>
2.61447

>  <SCORE.INTRA.norm>
-0.18937

>  <SCORE.RESTR>
0

>  <SCORE.RESTR.CAVITY>
0

>  <SCORE.RESTR.norm>
0

>  <SCORE.SYSTEM>
0

>  <SCORE.SYSTEM.CONST>
0

>  <SCORE.SYSTEM.DIHEDRAL>
0

>  <SCORE.SYSTEM.SOLV>
0

>  <SCORE.SYSTEM.norm>
0

>  <SCORE.heavy>
23

>  <SCORE.norm>
-1.51416

>  <RMSD>
7.325

$$$$

 OpenBabel11021811403D
libRbt.so/2013.1/901 2013/11/27
 23 25  0  0  0  0  0  0  0  0999 V2000
  -25.7392    8.1840   10.3187 S   0  0  0  0  0  0  0  0  0  0  0  0
  -22.9754    7.0746   10.3206 N   0  0  0  0  0  0  0  0  0  0  0  0
  -22.5128    7.4360    7.9819 C   0  0  0  0  0  0  0  0  0  0  0  0
  -22.9414    7.9082    6.7343 C   0  0  0  0  0  0  0  0  0  0  0  0
  -24.2098    8.4629    6.5929 C   0  0  0  0  0  0  0  0  0  0  0  0
  -25.0573    8.5450    7.6923 C   0  0  0  0  0  0  0  0  0  0  0  0
  -24.6429    8.0766    8.9365 C   0  0  0  0  0  0  0  0  0  0  0  0
  -23.3678    7.5193    9.0899 C   0  0  0  0  0  0  0  0  0  0  0  0
  -25.2432    6.5953   10.9059 C   0  0  0  0  0  0  0  0  0  0  0  0
  -26.1916    5.7178   11.4397 C   0  0  0  0  0  0  0  0  0  0  0  0
  -25.7938    4.4624   11.9082 C   0  0  0  0  0  0  0  0  0  0  0  0
  -24.4470    4.0902   11.8452 C   0  0  0  0  0  0  0  0  0  0  0  0
  -23.5054    4.9711   11.3120 C   0  0  0  0  0  0  0  0  0  0  0  0
  -23.8973    6.2169   10.8416 C   0  0  0  0  0  0  0  0  0  0  0  0
  -21.5366    6.8580   10.6121 C   0  0  0  0  0  0  0  0  0  0  0  0
  -20.9290    7.6381   11.8254 C   0  0  0  0  0  0  0  0  0  0  0  0
  -21.7791    7.5144   13.1359 C   0  0  0  0  0  0  0  0  0  0  0  0
  -21.5749    8.5409   14.1897 N   0  3  0  0  0  0  0  0  0  0  0  0
  -22.1624    8.1140   15.4858 C   0  0  0  0  0  0  0  0  0  0  0  0
  -22.1179    9.8712   13.7453 C   0  0  0  0  0  0  0  0  0  0  0  0
  -22.0376    7.8163    5.5380 C   0  0  0  0  0  0  0  0  0  0  0  0
  -20.9249    6.7997    5.4538 C   0  0  0  0  0  0  0  0  0  0  0  0
  -22.2404    8.5413    4.5771 O   0  0  0  0  0  0  0  0  0  0  0  0
  1  7  1  0  0  0  0
  1  9  1  0  0  0  0
  2  8  1  0  0  0  0
  2 14  1  0  0  0  0
  2 15  1  0  0  0  0
  3  4  2  0  0  0  0
  3  8  1  0  0  0  0
  4  5  1  0  0  0  0
  4 21  1  0  0  0  0
  5  6  2  0  0  0  0
  6  7  1  0  0  0  0
  7  8  2  0  0  0  0
  9 10  2  0  0  0  0
  9 14  1  0  0  0  0
 10 11  1  0  0  0  0
 11 12  2  0  0  0  0
 12 13  1  0  0  0  0
 13 14  2  0  0  0  0
 15 16  1  0  0  0  0
 16 17  1  0  0  0  0
 17 18  1  0  0  0  0
 18 19  1  0  0  0  0
 18 20  1  0  0  0  0
 21 22  1  0  0  0  0
 21 23  2  0  0  0  0
M  CHG  1  18   1
M  END
>  <CHROM.1>
122.93543053,23.92084063,49.34944273,-159.89651762,-45.23071158,-23.36129337
7.34954252,10.08575905,1.59643761,0.48263387,1.63330639

>  <Name>


>  <RI>
0

>  <Rbt.Current_Directory>
/home/itssahil/PROJECTS/Mol_Feturizer/New_Systems/rnas/1lvj

>  <Rbt.Executable>
rbdock ($Id: //depot/dev/client3/rdock/2013.1/src/exe/rbdock.cxx#4 $)

>  <Rbt.Library>
libRbt.so (2013.1, Build901 2013/11/27)

>  <Rbt.Parameter_File>
/export/apps/rDock/src/rDock_2013.1_src/data/scripts/dock_solv.prm

>  <Rbt.Receptor>
prm/pocket_docking_7.prm

>  <SCORE>
-34.5223

>  <SCORE.INTER>
-30.4336

>  <SCORE.INTER.CONST>
1

>  <SCORE.INTER.POLAR>
-0.588522

>  <SCORE.INTER.ROT>
5

>  <SCORE.INTER.SOLV>
9.74413

>  <SCORE.INTER.VDW>
-28.5087

>  <SCORE.INTER.norm>
-1.3232

>  <SCORE.INTRA>
-4.08866

>  <SCORE.INTRA.DIHEDRAL>
-2.05156

>  <SCORE.INTRA.DIHEDRAL.0>
8.06479

>  <SCORE.INTRA.POLAR>
0

>  <SCORE.INTRA.POLAR.0>
0

>  <SCORE.INTRA.REPUL>
0

>  <SCORE.INTRA.REPUL.0>
0

>  <SCORE.INTRA.SOLV>
0.559504

>  <SCORE.INTRA.SOLV.lig_0>
-29.8054

>  <SCORE.INTRA.VDW>
-3.34263

>  <SCORE.INTRA.VDW.0>
2.61447

>  <SCORE.INTRA.norm>
-0.177768

>  <SCORE.RESTR>
0

>  <SCORE.RESTR.CAVITY>
0

>  <SCORE.RESTR.norm>
0

>  <SCORE.SYSTEM>
0

>  <SCORE.SYSTEM.CONST>
0

>  <SCORE.SYSTEM.DIHEDRAL>
0

>  <SCORE.SYSTEM.SOLV>
0

>  <SCORE.SYSTEM.norm>
0

>  <SCORE.heavy>
23

>  <SCORE.norm>
-1.50097

>  <RMSD>
7.332

$$$$

 OpenBabel11021811403D
libRbt.so/2013.1/901 2013/11/27
 23 25  0  0  0  0  0  0  0  0999 V2000
  -18.6412    6.5019    3.5858 S   0  0  0  0  0  0  0  0  0  0  0  0
  -21.0431    6.2221    1.8475 N   0  0  0  0  0  0  0  0  0  0  0  0
  -22.6910    6.6686    3.5502 C   0  0  0  0  0  0  0  0  0  0  0  0
  -22.9810    6.9832    4.8844 C   0  0  0  0  0  0  0  0  0  0  0  0
  -21.9507    7.1534    5.8042 C   0  0  0  0  0  0  0  0  0  0  0  0
  -20.6285    7.0064    5.3996 C   0  0  0  0  0  0  0  0  0  0  0  0
  -20.3285    6.6914    4.0767 C   0  0  0  0  0  0  0  0  0  0  0  0
  -21.3576    6.5208    3.1429 C   0  0  0  0  0  0  0  0  0  0  0  0
  -19.0385    5.1271    2.5529 C   0  0  0  0  0  0  0  0  0  0  0  0
  -18.1820    4.0239    2.4942 C   0  0  0  0  0  0  0  0  0  0  0  0
  -18.4978    2.9392    1.6710 C   0  0  0  0  0  0  0  0  0  0  0  0
  -19.6681    2.9635    0.9054 C   0  0  0  0  0  0  0  0  0  0  0  0
  -20.5183    4.0681    0.9681 C   0  0  0  0  0  0  0  0  0  0  0  0
  -20.2103    5.1452    1.7878 C   0  0  0  0  0  0  0  0  0  0  0  0
  -22.0433    6.4264    0.7705 C   0  0  0  0  0  0  0  0  0  0  0  0
  -21.4957    6.6565   -0.6777 C   0  0  0  0  0  0  0  0  0  0  0  0
  -20.6046    7.9384   -0.8117 C   0  0  0  0  0  0  0  0  0  0  0  0
  -19.9767    8.2069   -2.1306 N   0  3  0  0  0  0  0  0  0  0  0  0
  -19.0098    7.1408   -2.4996 C   0  0  0  0  0  0  0  0  0  0  0  0
  -19.3352    9.5671   -2.1446 C   0  0  0  0  0  0  0  0  0  0  0  0
  -24.4061    7.1354    5.3346 C   0  0  0  0  0  0  0  0  0  0  0  0
  -24.7613    7.7418    6.6705 C   0  0  0  0  0  0  0  0  0  0  0  0
  -25.3102    6.8168    4.5788 O   0  0  0  0  0  0  0  0  0  0  0  0
  1  7  1  0  0  0  0
  1  9  1  0  0  0  0
  2  8  1  0  0  0  0
  2 14  1  0  0  0  0
  2 15  1  0  0  0  0
  3  4  2  0  0  0  0
  3  8  1  0  0  0  0
  4  5  1  0  0  0  0
  4 21  1  0  0  0  0
  5  6  2  0  0  0  0
  6  7  1  0  0  0  0
  7  8  2  0  0  0  0
  9 10  2  0  0  0  0
  9 14  1  0  0  0  0
 10 11  1  0  0  0  0
 11 12  2  0  0  0  0
 12 13  1  0  0  0  0
 13 14  2  0  0  0  0
 15 16  1  0  0  0  0
 16 17  1  0  0  0  0
 17 18  1  0  0  0  0
 18 19  1  0  0  0  0
 18 20  1  0  0  0  0
 21 22  1  0  0  0  0
 21 23  2  0  0  0  0
M  CHG  1  18   1
M  END
>  <CHROM.1>
154.86427346,-167.29207507,-61.44514534,176.81923377,56.30047374,-20.88244950
6.39887959,2.24164580,-0.85538728,-0.65646703,2.01312985

>  <Name>


>  <RI>
0

>  <Rbt.Current_Directory>
/home/itssahil/PROJECTS/Mol_Feturizer/New_Systems/rnas/1lvj

>  <Rbt.Executable>
rbdock ($Id: //depot/dev/client3/rdock/2013.1/src/exe/rbdock.cxx#4 $)

>  <Rbt.Library>
libRbt.so (2013.1, Build901 2013/11/27)

>  <Rbt.Parameter_File>
/export/apps/rDock/src/rDock_2013.1_src/data/scripts/dock_solv.prm

>  <Rbt.Receptor>
prm/pocket_docking_8.prm

>  <SCORE>
-27.1185

>  <SCORE.INTER>
-21.4102

>  <SCORE.INTER.CONST>
1

>  <SCORE.INTER.POLAR>
0

>  <SCORE.INTER.ROT>
5

>  <SCORE.INTER.SOLV>
7.78428

>  <SCORE.INTER.VDW>
-23.8016

>  <SCORE.INTER.norm>
-0.93088

>  <SCORE.INTRA>
-5.70824

>  <SCORE.INTRA.DIHEDRAL>
-6.99771

>  <SCORE.INTRA.DIHEDRAL.0>
8.06479

>  <SCORE.INTRA.POLAR>
0

>  <SCORE.INTRA.POLAR.0>
0

>  <SCORE.INTRA.REPUL>
0

>  <SCORE.INTRA.REPUL.0>
0

>  <SCORE.INTRA.SOLV>
0.37222

>  <SCORE.INTRA.SOLV.lig_0>
-29.8054

>  <SCORE.INTRA.VDW>
-2.3955

>  <SCORE.INTRA.VDW.0>
2.61447

>  <SCORE.INTRA.norm>
-0.248185

>  <SCORE.RESTR>
0

>  <SCORE.RESTR.CAVITY>
0

>  <SCORE.RESTR.norm>
0

>  <SCORE.SYSTEM>
0

>  <SCORE.SYSTEM.CONST>
0

>  <SCORE.SYSTEM.DIHEDRAL>
0

>  <SCORE.SYSTEM.SOLV>
0

>  <SCORE.SYSTEM.norm>
0

>  <SCORE.heavy>
23

>  <SCORE.norm>
-1.17906

>  <RMSD>
7.345

$$$$

 OpenBabel11021811403D
libRbt.so/2013.1/901 2013/11/27
 23 25  0  0  0  0  0  0  0  0999 V2000
  -25.7335    8.1857   10.3068 S   0  0  0  0  0  0  0  0  0  0  0  0
  -22.9760    7.0609   10.2991 N   0  0  0  0  0  0  0  0  0  0  0  0
  -22.5171    7.4255    7.9602 C   0  0  0  0  0  0  0  0  0  0  0  0
  -22.9461    7.9031    6.7148 C   0  0  0  0  0  0  0  0  0  0  0  0
  -24.2117    8.4653    6.5779 C   0  0  0  0  0  0  0  0  0  0  0  0
  -25.0561    8.5494    7.6796 C   0  0  0  0  0  0  0  0  0  0  0  0
  -24.6412    8.0756    8.9216 C   0  0  0  0  0  0  0  0  0  0  0  0
  -23.3689    7.5108    9.0705 C   0  0  0  0  0  0  0  0  0  0  0  0
  -25.2449    6.5928   10.8889 C   0  0  0  0  0  0  0  0  0  0  0  0
  -26.1969    5.7193   11.4228 C   0  0  0  0  0  0  0  0  0  0  0  0
  -25.8050    4.4606   11.8873 C   0  0  0  0  0  0  0  0  0  0  0  0
  -24.4605    4.0810   11.8201 C   0  0  0  0  0  0  0  0  0  0  0  0
  -23.5153    4.9579   11.2867 C   0  0  0  0  0  0  0  0  0  0  0  0
  -23.9014    6.2070   10.8203 C   0  0  0  0  0  0  0  0  0  0  0  0
  -21.5377    6.8355   10.5866 C   0  0  0  0  0  0  0  0  0  0  0  0
  -20.9252    7.6014   11.8065 C   0  0  0  0  0  0  0  0  0  0  0  0
  -21.8364    7.5757   13.0809 C   0  0  0  0  0  0  0  0  0  0  0  0
  -21.4778    8.4800   14.2032 N   0  3  0  0  0  0  0  0  0  0  0  0
  -22.2569    8.1624   15.4278 C   0  0  0  0  0  0  0  0  0  0  0  0
  -21.6434    9.9188   13.7975 C   0  0  0  0  0  0  0  0  0  0  0  0
  -22.0458    7.8091    5.5160 C   0  0  0  0  0  0  0  0  0  0  0  0
  -20.9397    6.7858    5.4261 C   0  0  0  0  0  0  0  0  0  0  0  0
  -22.2463    8.5382    4.5578 O   0  0  0  0  0  0  0  0  0  0  0  0
  1  7  1  0  0  0  0
  1  9  1  0  0  0  0
  2  8  1  0  0  0  0
  2 14  1  0  0  0  0
  2 15  1  0  0  0  0
  3  4  2  0  0  0  0
  3  8  1  0  0  0  0
  4  5  1  0  0  0  0
  4 21  1  0  0  0  0
  5  6  2  0  0  0  0
  6  7  1  0  0  0  0
  7  8  2  0  0  0  0
  9 10  2  0  0  0  0
  9 14  1  0  0  0  0
 10 11  1  0  0  0  0
 11 12  2  0  0  0  0
 12 13  1  0  0  0  0
 13 14  2  0  0  0  0
 15 16  1  0  0  0  0
 16 17  1  0  0  0  0
 17 18  1  0  0  0  0
 18 19  1  0  0  0  0
 18 20  1  0  0  0  0
 21 22  1  0  0  0  0
 21 23  2  0  0  0  0
M  CHG  1  18   1
M  END
>  <CHROM.1>
123.35775754,23.96802184,44.20172143,-168.61062571,-48.95487932,-23.34463877
7.34695094,10.06813765,1.58213746,0.49203513,1.63477399

>  <Name>


>  <RI>
0

>  <Rbt.Current_Directory>
/home/itssahil/PROJECTS/Mol_Feturizer/New_Systems/rnas/1lvj

>  <Rbt.Executable>
rbdock ($Id: //depot/dev/client3/rdock/2013.1/src/exe/rbdock.cxx#4 $)

>  <Rbt.Library>
libRbt.so (2013.1, Build901 2013/11/27)

>  <Rbt.Parameter_File>
/export/apps/rDock/src/rDock_2013.1_src/data/scripts/dock_solv.prm

>  <Rbt.Receptor>
prm/pocket_docking_6.prm

>  <SCORE>
-34.7191

>  <SCORE.INTER>
-30.509

>  <SCORE.INTER.CONST>
1

>  <SCORE.INTER.POLAR>
-0.58807

>  <SCORE.INTER.ROT>
5

>  <SCORE.INTER.SOLV>
9.82307

>  <SCORE.INTER.VDW>
-28.5868

>  <SCORE.INTER.norm>
-1.32648

>  <SCORE.INTRA>
-4.2101

>  <SCORE.INTRA.DIHEDRAL>
-2.69658

>  <SCORE.INTRA.DIHEDRAL.0>
8.06479

>  <SCORE.INTRA.POLAR>
0

>  <SCORE.INTRA.POLAR.0>
0

>  <SCORE.INTRA.REPUL>
0

>  <SCORE.INTRA.REPUL.0>
0

>  <SCORE.INTRA.SOLV>
0.497768

>  <SCORE.INTRA.SOLV.lig_0>
-29.8054

>  <SCORE.INTRA.VDW>
-3.11069

>  <SCORE.INTRA.VDW.0>
2.61447

>  <SCORE.INTRA.norm>
-0.183048

>  <SCORE.RESTR>
0

>  <SCORE.RESTR.CAVITY>
0

>  <SCORE.RESTR.norm>
0

>  <SCORE.SYSTEM>
0

>  <SCORE.SYSTEM.CONST>
0

>  <SCORE.SYSTEM.DIHEDRAL>
0

>  <SCORE.SYSTEM.SOLV>
0

>  <SCORE.SYSTEM.norm>
0

>  <SCORE.heavy>
23

>  <SCORE.norm>
-1.50953

>  <RMSD>
7.346

$$$$

 OpenBabel11021811403D
libRbt.so/2013.1/901 2013/11/27
 23 25  0  0  0  0  0  0  0  0999 V2000
  -25.7919    8.1125   10.2151 S   0  0  0  0  0  0  0  0  0  0  0  0
  -22.9866    7.1145   10.2732 N   0  0  0  0  0  0  0  0  0  0  0  0
  -22.5075    7.4497    7.9339 C   0  0  0  0  0  0  0  0  0  0  0  0
  -22.9378    7.8808    6.6721 C   0  0  0  0  0  0  0  0  0  0  0  0
  -24.2252    8.3817    6.5040 C   0  0  0  0  0  0  0  0  0  0  0  0
  -25.0899    8.4507    7.5909 C   0  0  0  0  0  0  0  0  0  0  0  0
  -24.6739    8.0228    8.8491 C   0  0  0  0  0  0  0  0  0  0  0  0
  -23.3798    7.5198    9.0293 C   0  0  0  0  0  0  0  0  0  0  0  0
  -25.2412    6.5562   10.8392 C   0  0  0  0  0  0  0  0  0  0  0  0
  -26.1611    5.6519   11.3779 C   0  0  0  0  0  0  0  0  0  0  0  0
  -25.7201    4.4224   11.8758 C   0  0  0  0  0  0  0  0  0  0  0  0
  -24.3589    4.1031   11.8369 C   0  0  0  0  0  0  0  0  0  0  0  0
  -23.4460    5.0106   11.2985 C   0  0  0  0  0  0  0  0  0  0  0  0
  -23.8806    6.2307   10.7992 C   0  0  0  0  0  0  0  0  0  0  0  0
  -21.5444    6.9610   10.5869 C   0  0  0  0  0  0  0  0  0  0  0  0
  -21.0244    7.6333   11.9013 C   0  0  0  0  0  0  0  0  0  0  0  0
  -21.9332    7.3541   13.1469 C   0  0  0  0  0  0  0  0  0  0  0  0
  -21.7960    8.2584   14.3170 N   0  3  0  0  0  0  0  0  0  0  0  0
  -22.1254    9.6627   13.9606 C   0  0  0  0  0  0  0  0  0  0  0  0
  -20.4207    8.1455   14.9151 C   0  0  0  0  0  0  0  0  0  0  0  0
  -22.0153    7.8023    5.4892 C   0  0  0  0  0  0  0  0  0  0  0  0
  -20.8997    6.7883    5.4122 C   0  0  0  0  0  0  0  0  0  0  0  0
  -22.2041    8.5368    4.5327 O   0  0  0  0  0  0  0  0  0  0  0  0
  1  7  1  0  0  0  0
  1  9  1  0  0  0  0
  2  8  1  0  0  0  0
  2 14  1  0  0  0  0
  2 15  1  0  0  0  0
  3  4  2  0  0  0  0
  3  8  1  0  0  0  0
  4  5  1  0  0  0  0
  4 21  1  0  0  0  0
  5  6  2  0  0  0  0
  6  7  1  0  0  0  0
  7  8  2  0  0  0  0
  9 10  2  0  0  0  0
  9 14  1  0  0  0  0
 10 11  1  0  0  0  0
 11 12  2  0  0  0  0
 12 13  1  0  0  0  0
 13 14  2  0  0  0  0
 15 16  1  0  0  0  0
 16 17  1  0  0  0  0
 17 18  1  0  0  0  0
 18 19  1  0  0  0  0
 18 20  1  0  0  0  0
 21 22  1  0  0  0  0
 21 23  2  0  0  0  0
M  CHG  1  18   1
M  END
>  <CHROM.1>
130.87946965,26.68550263,46.80097859,-161.16261350,-179.09406579,-23.30214412
7.30540914,10.03591748,1.52886511,0.41765375,1.66672684

>  <Name>


>  <RI>
0

>  <Rbt.Current_Directory>
/home/itssahil/PROJECTS/Mol_Feturizer/New_Systems/rnas/1lvj

>  <Rbt.Executable>
rbdock ($Id: //depot/dev/client3/rdock/2013.1/src/exe/rbdock.cxx#4 $)

>  <Rbt.Library>
libRbt.so (2013.1, Build901 2013/11/27)

>  <Rbt.Parameter_File>
/export/apps/rDock/src/rDock_2013.1_src/data/scripts/dock_solv.prm

>  <Rbt.Receptor>
prm/pocket_docking_6.prm

>  <SCORE>
-34.1201

>  <SCORE.INTER>
-30.6224

>  <SCORE.INTER.CONST>
1

>  <SCORE.INTER.POLAR>
-0.601673

>  <SCORE.INTER.ROT>
5

>  <SCORE.INTER.SOLV>
9.66809

>  <SCORE.INTER.VDW>
-28.5654

>  <SCORE.INTER.norm>
-1.33141

>  <SCORE.INTRA>
-3.49765

>  <SCORE.INTRA.DIHEDRAL>
-2.28088

>  <SCORE.INTRA.DIHEDRAL.0>
8.06479

>  <SCORE.INTRA.POLAR>
0

>  <SCORE.INTRA.POLAR.0>
0

>  <SCORE.INTRA.REPUL>
0

>  <SCORE.INTRA.REPUL.0>
0

>  <SCORE.INTRA.SOLV>
-0.435558

>  <SCORE.INTRA.SOLV.lig_0>
-29.8054

>  <SCORE.INTRA.VDW>
-2.13943

>  <SCORE.INTRA.VDW.0>
2.61447

>  <SCORE.INTRA.norm>
-0.152072

>  <SCORE.RESTR>
0

>  <SCORE.RESTR.CAVITY>
0

>  <SCORE.RESTR.norm>
0

>  <SCORE.SYSTEM>
0

>  <SCORE.SYSTEM.CONST>
0

>  <SCORE.SYSTEM.DIHEDRAL>
0

>  <SCORE.SYSTEM.SOLV>
0

>  <SCORE.SYSTEM.norm>
0

>  <SCORE.heavy>
23

>  <SCORE.norm>
-1.48348

>  <RMSD>
7.351

$$$$

 OpenBabel11021811403D
libRbt.so/2013.1/901 2013/11/27
 23 25  0  0  0  0  0  0  0  0999 V2000
  -25.5733    8.3001    9.4329 S   0  0  0  0  0  0  0  0  0  0  0  0
  -22.8361    7.2462    9.9487 N   0  0  0  0  0  0  0  0  0  0  0  0
  -22.0767    7.2697    7.6602 C   0  0  0  0  0  0  0  0  0  0  0  0
  -22.3405    7.5481    6.3127 C   0  0  0  0  0  0  0  0  0  0  0  0
  -23.5786    8.0564    5.9314 C   0  0  0  0  0  0  0  0  0  0  0  0
  -24.5597    8.2847    6.8901 C   0  0  0  0  0  0  0  0  0  0  0  0
  -24.3094    8.0094    8.2321 C   0  0  0  0  0  0  0  0  0  0  0  0
  -23.0662    7.5004    8.6264 C   0  0  0  0  0  0  0  0  0  0  0  0
  -25.1616    6.8220   10.3050 C   0  0  0  0  0  0  0  0  0  0  0  0
  -26.1733    6.0171   10.8368 C   0  0  0  0  0  0  0  0  0  0  0  0
  -25.8428    4.8499   11.5312 C   0  0  0  0  0  0  0  0  0  0  0  0
  -24.5003    4.4935   11.6951 C   0  0  0  0  0  0  0  0  0  0  0  0
  -23.4954    5.3018   11.1625 C   0  0  0  0  0  0  0  0  0  0  0  0
  -23.8198    6.4593   10.4685 C   0  0  0  0  0  0  0  0  0  0  0  0
  -21.4471    7.0969   10.4493 C   0  0  0  0  0  0  0  0  0  0  0  0
  -21.2001    7.3903   11.9668 C   0  0  0  0  0  0  0  0  0  0  0  0
  -19.6827    7.4973   12.3429 C   0  0  0  0  0  0  0  0  0  0  0  0
  -18.8060    6.3469   12.0057 N   0  3  0  0  0  0  0  0  0  0  0  0
  -19.2382    5.1101   12.7064 C   0  0  0  0  0  0  0  0  0  0  0  0
  -17.3671    6.6750   12.2953 C   0  0  0  0  0  0  0  0  0  0  0  0
  -21.2914    7.2967    5.2674 C   0  0  0  0  0  0  0  0  0  0  0  0
  -21.3453    7.9508    3.9081 C   0  0  0  0  0  0  0  0  0  0  0  0
  -20.3328    6.5912    5.5386 O   0  0  0  0  0  0  0  0  0  0  0  0
  1  7  1  0  0  0  0
  1  9  1  0  0  0  0
  2  8  1  0  0  0  0
  2 14  1  0  0  0  0
  2 15  1  0  0  0  0
  3  4  2  0  0  0  0
  3  8  1  0  0  0  0
  4  5  1  0  0  0  0
  4 21  1  0  0  0  0
  5  6  2  0  0  0  0
  6  7  1  0  0  0  0
  7  8  2  0  0  0  0
  9 10  2  0  0  0  0
  9 14  1  0  0  0  0
 10 11  1  0  0  0  0
 11 12  2  0  0  0  0
 12 13  1  0  0  0  0
 13 14  2  0  0  0  0
 15 16  1  0  0  0  0
 16 17  1  0  0  0  0
 17 18  1  0  0  0  0
 18 19  1  0  0  0  0
 18 20  1  0  0  0  0
 21 22  1  0  0  0  0
 21 23  2  0  0  0  0
M  CHG  1  18   1
M  END
>  <CHROM.1>
155.65626977,-160.82869156,-168.11653232,-55.76647305,58.62900989,-22.56914790
6.94358947,9.40065470,2.06350764,0.00839583,-1.31487473

>  <Name>


>  <RI>
0

>  <Rbt.Current_Directory>
/home/itssahil/PROJECTS/Mol_Feturizer/New_Systems/rnas/1lvj

>  <Rbt.Executable>
rbdock ($Id: //depot/dev/client3/rdock/2013.1/src/exe/rbdock.cxx#4 $)

>  <Rbt.Library>
libRbt.so (2013.1, Build901 2013/11/27)

>  <Rbt.Parameter_File>
/export/apps/rDock/src/rDock_2013.1_src/data/scripts/dock_solv.prm

>  <Rbt.Receptor>
prm/pocket_docking_6.prm

>  <SCORE>
-39.5174

>  <SCORE.INTER>
-35.3697

>  <SCORE.INTER.CONST>
1

>  <SCORE.INTER.POLAR>
-1.30767

>  <SCORE.INTER.ROT>
5

>  <SCORE.INTER.SOLV>
14.0372

>  <SCORE.INTER.VDW>
-30.8333

>  <SCORE.INTER.norm>
-1.53781

>  <SCORE.INTRA>
-4.14774

>  <SCORE.INTRA.DIHEDRAL>
-5.84113

>  <SCORE.INTRA.DIHEDRAL.0>
8.06479

>  <SCORE.INTRA.POLAR>
0

>  <SCORE.INTRA.POLAR.0>
0

>  <SCORE.INTRA.REPUL>
0

>  <SCORE.INTRA.REPUL.0>
0

>  <SCORE.INTRA.SOLV>
1.90321

>  <SCORE.INTRA.SOLV.lig_0>
-29.8054

>  <SCORE.INTRA.VDW>
-2.17878

>  <SCORE.INTRA.VDW.0>
2.61447

>  <SCORE.INTRA.norm>
-0.180336

>  <SCORE.RESTR>
0

>  <SCORE.RESTR.CAVITY>
0

>  <SCORE.RESTR.norm>
0

>  <SCORE.SYSTEM>
0

>  <SCORE.SYSTEM.CONST>
0

>  <SCORE.SYSTEM.DIHEDRAL>
0

>  <SCORE.SYSTEM.SOLV>
0

>  <SCORE.SYSTEM.norm>
0

>  <SCORE.heavy>
23

>  <SCORE.norm>
-1.71815

>  <RMSD>
7.354

$$$$

 OpenBabel11021811403D
libRbt.so/2013.1/901 2013/11/27
 23 25  0  0  0  0  0  0  0  0999 V2000
  -25.8400    8.1042   10.2056 S   0  0  0  0  0  0  0  0  0  0  0  0
  -23.0227    7.1421   10.2857 N   0  0  0  0  0  0  0  0  0  0  0  0
  -22.5347    7.4687    7.9471 C   0  0  0  0  0  0  0  0  0  0  0  0
  -22.9632    7.8864    6.6802 C   0  0  0  0  0  0  0  0  0  0  0  0
  -24.2559    8.3699    6.5018 C   0  0  0  0  0  0  0  0  0  0  0  0
  -25.1275    8.4348    7.5833 C   0  0  0  0  0  0  0  0  0  0  0  0
  -24.7132    8.0200    8.8465 C   0  0  0  0  0  0  0  0  0  0  0  0
  -23.4139    7.5347    9.0371 C   0  0  0  0  0  0  0  0  0  0  0  0
  -25.2732    6.5589   10.8427 C   0  0  0  0  0  0  0  0  0  0  0  0
  -26.1846    5.6464   11.3820 C   0  0  0  0  0  0  0  0  0  0  0  0
  -25.7310    4.4258   11.8901 C   0  0  0  0  0  0  0  0  0  0  0  0
  -24.3657    4.1235   11.8609 C   0  0  0  0  0  0  0  0  0  0  0  0
  -23.4613    5.0391   11.3219 C   0  0  0  0  0  0  0  0  0  0  0  0
  -23.9084    6.2504   10.8123 C   0  0  0  0  0  0  0  0  0  0  0  0
  -21.5804    7.0089   10.6085 C   0  0  0  0  0  0  0  0  0  0  0  0
  -21.1780    7.0765   12.1196 C   0  0  0  0  0  0  0  0  0  0  0  0
  -21.7633    8.3237   12.8661 C   0  0  0  0  0  0  0  0  0  0  0  0
  -21.5518    8.4108   14.3336 N   0  3  0  0  0  0  0  0  0  0  0  0
  -22.4064    7.4399   15.0648 C   0  0  0  0  0  0  0  0  0  0  0  0
  -21.7711    9.8178   14.8177 C   0  0  0  0  0  0  0  0  0  0  0  0
  -22.0330    7.8122    5.5030 C   0  0  0  0  0  0  0  0  0  0  0  0
  -20.9131    6.8025    5.4323 C   0  0  0  0  0  0  0  0  0  0  0  0
  -22.2188    8.5465    4.5457 O   0  0  0  0  0  0  0  0  0  0  0  0
  1  7  1  0  0  0  0
  1  9  1  0  0  0  0
  2  8  1  0  0  0  0
  2 14  1  0  0  0  0
  2 15  1  0  0  0  0
  3  4  2  0  0  0  0
  3  8  1  0  0  0  0
  4  5  1  0  0  0  0
  4 21  1  0  0  0  0
  5  6  2  0  0  0  0
  6  7  1  0  0  0  0
  7  8  2  0  0  0  0
  9 10  2  0  0  0  0
  9 14  1  0  0  0  0
 10 11  1  0  0  0  0
 11 12  2  0  0  0  0
 12 13  1  0  0  0  0
 13 14  2  0  0  0  0
 15 16  1  0  0  0  0
 16 17  1  0  0  0  0
 17 18  1  0  0  0  0
 18 19  1  0  0  0  0
 18 20  1  0  0  0  0
 21 22  1  0  0  0  0
 21 23  2  0  0  0  0
M  CHG  1  18   1
M  END
>  <CHROM.1>
158.21132214,27.32708392,-51.11378882,174.11384387,46.95352922,-23.38188542
7.31198664,10.08508870,1.56909228,0.46726295,1.64212795

>  <Name>


>  <RI>
0

>  <Rbt.Current_Directory>
/home/itssahil/PROJECTS/Mol_Feturizer/New_Systems/rnas/1lvj

>  <Rbt.Executable>
rbdock ($Id: //depot/dev/client3/rdock/2013.1/src/exe/rbdock.cxx#4 $)

>  <Rbt.Library>
libRbt.so (2013.1, Build901 2013/11/27)

>  <Rbt.Parameter_File>
/export/apps/rDock/src/rDock_2013.1_src/data/scripts/dock_solv.prm

>  <Rbt.Receptor>
prm/pocket_docking_6.prm

>  <SCORE>
-35.4797

>  <SCORE.INTER>
-30.4312

>  <SCORE.INTER.CONST>
1

>  <SCORE.INTER.POLAR>
-0.599589

>  <SCORE.INTER.ROT>
5

>  <SCORE.INTER.SOLV>
9.62098

>  <SCORE.INTER.VDW>
-28.4292

>  <SCORE.INTER.norm>
-1.3231

>  <SCORE.INTRA>
-5.04844

>  <SCORE.INTRA.DIHEDRAL>
-4.35574

>  <SCORE.INTRA.DIHEDRAL.0>
8.06479

>  <SCORE.INTRA.POLAR>
0

>  <SCORE.INTRA.POLAR.0>
0

>  <SCORE.INTRA.REPUL>
0

>  <SCORE.INTRA.REPUL.0>
0

>  <SCORE.INTRA.SOLV>
0.505326

>  <SCORE.INTRA.SOLV.lig_0>
-29.8054

>  <SCORE.INTRA.VDW>
-3.12323

>  <SCORE.INTRA.VDW.0>
2.61447

>  <SCORE.INTRA.norm>
-0.219497

>  <SCORE.RESTR>
0

>  <SCORE.RESTR.CAVITY>
0

>  <SCORE.RESTR.norm>
0

>  <SCORE.SYSTEM>
0

>  <SCORE.SYSTEM.CONST>
0

>  <SCORE.SYSTEM.DIHEDRAL>
0

>  <SCORE.SYSTEM.SOLV>
0

>  <SCORE.SYSTEM.norm>
0

>  <SCORE.heavy>
23

>  <SCORE.norm>
-1.54259

>  <RMSD>
7.359

$$$$

 OpenBabel11021811403D
libRbt.so/2013.1/901 2013/11/27
 23 25  0  0  0  0  0  0  0  0999 V2000
  -25.7511    8.1261   10.2264 S   0  0  0  0  0  0  0  0  0  0  0  0
  -22.9424    7.1365   10.2599 N   0  0  0  0  0  0  0  0  0  0  0  0
  -22.4870    7.4669    7.9152 C   0  0  0  0  0  0  0  0  0  0  0  0
  -22.9308    7.8934    6.6565 C   0  0  0  0  0  0  0  0  0  0  0  0
  -24.2212    8.3901    6.4996 C   0  0  0  0  0  0  0  0  0  0  0  0
  -25.0755    8.4595    7.5946 C   0  0  0  0  0  0  0  0  0  0  0  0
  -24.6461    8.0361    8.8498 C   0  0  0  0  0  0  0  0  0  0  0  0
  -23.3488    7.5374    9.0188 C   0  0  0  0  0  0  0  0  0  0  0  0
  -25.1897    6.5731   10.8492 C   0  0  0  0  0  0  0  0  0  0  0  0
  -26.1016    5.6676   11.3992 C   0  0  0  0  0  0  0  0  0  0  0  0
  -25.6523    4.4408   11.8960 C   0  0  0  0  0  0  0  0  0  0  0  0
  -24.2906    4.1253   11.8448 C   0  0  0  0  0  0  0  0  0  0  0  0
  -23.3856    5.0341   11.2952 C   0  0  0  0  0  0  0  0  0  0  0  0
  -23.8286    6.2515   10.7969 C   0  0  0  0  0  0  0  0  0  0  0  0
  -21.4967    6.9881   10.5601 C   0  0  0  0  0  0  0  0  0  0  0  0
  -21.0031    7.4884   11.9586 C   0  0  0  0  0  0  0  0  0  0  0  0
  -22.1487    8.0775   12.8507 C   0  0  0  0  0  0  0  0  0  0  0  0
  -21.7589    8.7662   14.1075 N   0  3  0  0  0  0  0  0  0  0  0  0
  -20.9708    9.9953   13.8323 C   0  0  0  0  0  0  0  0  0  0  0  0
  -21.0201    7.8257   15.0194 C   0  0  0  0  0  0  0  0  0  0  0  0
  -22.0195    7.8145    5.4650 C   0  0  0  0  0  0  0  0  0  0  0  0
  -20.8982    6.8072    5.3822 C   0  0  0  0  0  0  0  0  0  0  0  0
  -22.2225    8.5426    4.5064 O   0  0  0  0  0  0  0  0  0  0  0  0
  1  7  1  0  0  0  0
  1  9  1  0  0  0  0
  2  8  1  0  0  0  0
  2 14  1  0  0  0  0
  2 15  1  0  0  0  0
  3  4  2  0  0  0  0
  3  8  1  0  0  0  0
  4  5  1  0  0  0  0
  4 21  1  0  0  0  0
  5  6  2  0  0  0  0
  6  7  1  0  0  0  0
  7  8  2  0  0  0  0
  9 10  2  0  0  0  0
  9 14  1  0  0  0  0
 10 11  1  0  0  0  0
 11 12  2  0  0  0  0
 12 13  1  0  0  0  0
 13 14  2  0  0  0  0
 15 16  1  0  0  0  0
 16 17  1  0  0  0  0
 17 18  1  0  0  0  0
 18 19  1  0  0  0  0
 18 20  1  0  0  0  0
 21 22  1  0  0  0  0
 21 23  2  0  0  0  0
M  CHG  1  18   1
M  END
>  <CHROM.1>
139.21387244,26.43338168,0.32070635,-170.90293312,-175.32257001,-23.25900661
7.36831787,10.01055601,1.51921204,0.49259611,1.65448306

>  <Name>


>  <RI>
0

>  <Rbt.Current_Directory>
/home/itssahil/PROJECTS/Mol_Feturizer/New_Systems/rnas/1lvj

>  <Rbt.Executable>
rbdock ($Id: //depot/dev/client3/rdock/2013.1/src/exe/rbdock.cxx#4 $)

>  <Rbt.Library>
libRbt.so (2013.1, Build901 2013/11/27)

>  <Rbt.Parameter_File>
/export/apps/rDock/src/rDock_2013.1_src/data/scripts/dock_solv.prm

>  <Rbt.Receptor>
prm/pocket_docking_8.prm

>  <SCORE>
-32.9875

>  <SCORE.INTER>
-31.6147

>  <SCORE.INTER.CONST>
1

>  <SCORE.INTER.POLAR>
-0.601594

>  <SCORE.INTER.ROT>
5

>  <SCORE.INTER.SOLV>
9.83117

>  <SCORE.INTER.VDW>
-29.2815

>  <SCORE.INTER.norm>
-1.37455

>  <SCORE.INTRA>
-1.37276

>  <SCORE.INTRA.DIHEDRAL>
1.2325

>  <SCORE.INTRA.DIHEDRAL.0>
8.06479

>  <SCORE.INTRA.POLAR>
0

>  <SCORE.INTRA.POLAR.0>
0

>  <SCORE.INTRA.REPUL>
0

>  <SCORE.INTRA.REPUL.0>
0

>  <SCORE.INTRA.SOLV>
-0.413251

>  <SCORE.INTRA.SOLV.lig_0>
-29.8054

>  <SCORE.INTRA.VDW>
-1.78238

>  <SCORE.INTRA.VDW.0>
2.61447

>  <SCORE.INTRA.norm>
-0.0596851

>  <SCORE.RESTR>
0

>  <SCORE.RESTR.CAVITY>
0

>  <SCORE.RESTR.norm>
0

>  <SCORE.SYSTEM>
0

>  <SCORE.SYSTEM.CONST>
0

>  <SCORE.SYSTEM.DIHEDRAL>
0

>  <SCORE.SYSTEM.SOLV>
0

>  <SCORE.SYSTEM.norm>
0

>  <SCORE.heavy>
23

>  <SCORE.norm>
-1.43424

>  <RMSD>
7.372

$$$$

 OpenBabel11021811403D
libRbt.so/2013.1/901 2013/11/27
 23 25  0  0  0  0  0  0  0  0999 V2000
  -25.8131    8.1453   10.2530 S   0  0  0  0  0  0  0  0  0  0  0  0
  -23.0203    7.1125   10.3057 N   0  0  0  0  0  0  0  0  0  0  0  0
  -22.5363    7.4565    7.9687 C   0  0  0  0  0  0  0  0  0  0  0  0
  -22.9608    7.9006    6.7095 C   0  0  0  0  0  0  0  0  0  0  0  0
  -24.2419    8.4183    6.5442 C   0  0  0  0  0  0  0  0  0  0  0  0
  -25.1061    8.4912    7.6312 C   0  0  0  0  0  0  0  0  0  0  0  0
  -24.6958    8.0504    8.8868 C   0  0  0  0  0  0  0  0  0  0  0  0
  -23.4080    7.5304    9.0642 C   0  0  0  0  0  0  0  0  0  0  0  0
  -25.2817    6.5785   10.8676 C   0  0  0  0  0  0  0  0  0  0  0  0
  -26.2128    5.6822   11.4004 C   0  0  0  0  0  0  0  0  0  0  0  0
  -25.7872    4.4443   11.8907 C   0  0  0  0  0  0  0  0  0  0  0  0
  -24.4300    4.1085   11.8502 C   0  0  0  0  0  0  0  0  0  0  0  0
  -23.5058    5.0081   11.3178 C   0  0  0  0  0  0  0  0  0  0  0  0
  -23.9253    6.2365   10.8259 C   0  0  0  0  0  0  0  0  0  0  0  0
  -21.5801    6.9394   10.6189 C   0  0  0  0  0  0  0  0  0  0  0  0
  -21.0734    7.5098   11.9855 C   0  0  0  0  0  0  0  0  0  0  0  0
  -21.8237    6.9160   13.2264 C   0  0  0  0  0  0  0  0  0  0  0  0
  -21.4447    7.4243   14.5695 N   0  3  0  0  0  0  0  0  0  0  0  0
  -20.0774    6.9855   14.9511 C   0  0  0  0  0  0  0  0  0  0  0  0
  -22.4651    7.0178   15.5968 C   0  0  0  0  0  0  0  0  0  0  0  0
  -22.0389    7.8182    5.5264 C   0  0  0  0  0  0  0  0  0  0  0  0
  -20.9282    6.7989    5.4488 C   0  0  0  0  0  0  0  0  0  0  0  0
  -22.2244    8.5540    4.5701 O   0  0  0  0  0  0  0  0  0  0  0  0
  1  7  1  0  0  0  0
  1  9  1  0  0  0  0
  2  8  1  0  0  0  0
  2 14  1  0  0  0  0
  2 15  1  0  0  0  0
  3  4  2  0  0  0  0
  3  8  1  0  0  0  0
  4  5  1  0  0  0  0
  4 21  1  0  0  0  0
  5  6  2  0  0  0  0
  6  7  1  0  0  0  0
  7  8  2  0  0  0  0
  9 10  2  0  0  0  0
  9 14  1  0  0  0  0
 10 11  1  0  0  0  0
 11 12  2  0  0  0  0
 12 13  1  0  0  0  0
 13 14  2  0  0  0  0
 15 16  1  0  0  0  0
 16 17  1  0  0  0  0
 17 18  1  0  0  0  0
 18 19  1  0  0  0  0
 18 20  1  0  0  0  0
 21 22  1  0  0  0  0
 21 23  2  0  0  0  0
M  CHG  1  18   1
M  END
>  <CHROM.1>
135.06675565,26.13877122,57.80106061,-178.17286473,50.96070203,-23.30781267
7.08522956,10.15379385,1.63551969,-0.18230210,-1.37427931

>  <Name>


>  <RI>
0

>  <Rbt.Current_Directory>
/home/itssahil/PROJECTS/Mol_Feturizer/New_Systems/rnas/1lvj

>  <Rbt.Executable>
rbdock ($Id: //depot/dev/client3/rdock/2013.1/src/exe/rbdock.cxx#4 $)

>  <Rbt.Library>
libRbt.so (2013.1, Build901 2013/11/27)

>  <Rbt.Parameter_File>
/export/apps/rDock/src/rDock_2013.1_src/data/scripts/dock_solv.prm

>  <Rbt.Receptor>
prm/pocket_docking_7.prm

>  <SCORE>
-34.4628

>  <SCORE.INTER>
-29.5259

>  <SCORE.INTER.CONST>
1

>  <SCORE.INTER.POLAR>
-0.597794

>  <SCORE.INTER.ROT>
5

>  <SCORE.INTER.SOLV>
9.39663

>  <SCORE.INTER.VDW>
-27.7568

>  <SCORE.INTER.norm>
-1.28373

>  <SCORE.INTRA>
-4.93692

>  <SCORE.INTRA.DIHEDRAL>
-4.15208

>  <SCORE.INTRA.DIHEDRAL.0>
8.06479

>  <SCORE.INTRA.POLAR>
0

>  <SCORE.INTRA.POLAR.0>
0

>  <SCORE.INTRA.REPUL>
0

>  <SCORE.INTRA.REPUL.0>
0

>  <SCORE.INTRA.SOLV>
0.505647

>  <SCORE.INTRA.SOLV.lig_0>
-29.8054

>  <SCORE.INTRA.VDW>
-3.1137

>  <SCORE.INTRA.VDW.0>
2.61447

>  <SCORE.INTRA.norm>
-0.214649

>  <SCORE.RESTR>
0

>  <SCORE.RESTR.CAVITY>
0

>  <SCORE.RESTR.norm>
0

>  <SCORE.SYSTEM>
0

>  <SCORE.SYSTEM.CONST>
0

>  <SCORE.SYSTEM.DIHEDRAL>
0

>  <SCORE.SYSTEM.SOLV>
0

>  <SCORE.SYSTEM.norm>
0

>  <SCORE.heavy>
23

>  <SCORE.norm>
-1.49838

>  <RMSD>
7.381

$$$$

 OpenBabel11021811403D
libRbt.so/2013.1/901 2013/11/27
 23 25  0  0  0  0  0  0  0  0999 V2000
  -25.7907    8.1606    9.1990 S   0  0  0  0  0  0  0  0  0  0  0  0
  -23.0404    7.2299    9.8615 N   0  0  0  0  0  0  0  0  0  0  0  0
  -22.1747    7.2482    7.6111 C   0  0  0  0  0  0  0  0  0  0  0  0
  -22.3853    7.4936    6.2478 C   0  0  0  0  0  0  0  0  0  0  0  0
  -23.6235    7.9437    5.7998 C   0  0  0  0  0  0  0  0  0  0  0  0
  -24.6575    8.1465    6.7073 C   0  0  0  0  0  0  0  0  0  0  0  0
  -24.4604    7.9034    8.0642 C   0  0  0  0  0  0  0  0  0  0  0  0
  -23.2176    7.4530    8.5254 C   0  0  0  0  0  0  0  0  0  0  0  0
  -25.3611    6.7152   10.1160 C   0  0  0  0  0  0  0  0  0  0  0  0
  -26.3633    5.8775   10.6142 C   0  0  0  0  0  0  0  0  0  0  0  0
  -26.0188    4.7364   11.3443 C   0  0  0  0  0  0  0  0  0  0  0  0
  -24.6722    4.4388   11.5774 C   0  0  0  0  0  0  0  0  0  0  0  0
  -23.6769    5.2796   11.0779 C   0  0  0  0  0  0  0  0  0  0  0  0
  -24.0149    6.4113   10.3487 C   0  0  0  0  0  0  0  0  0  0  0  0
  -21.6720    7.1467   10.4293 C   0  0  0  0  0  0  0  0  0  0  0  0
  -21.5157    7.4339   11.9599 C   0  0  0  0  0  0  0  0  0  0  0  0
  -20.0664    7.8671   12.3689 C   0  0  0  0  0  0  0  0  0  0  0  0
  -19.8906    8.5278   13.6874 N   0  3  0  0  0  0  0  0  0  0  0  0
  -20.3019    7.6356   14.8019 C   0  0  0  0  0  0  0  0  0  0  0  0
  -20.6268    9.8387   13.7252 C   0  0  0  0  0  0  0  0  0  0  0  0
  -21.2782    7.2693    5.2576 C   0  0  0  0  0  0  0  0  0  0  0  0
  -21.2599    7.9522    3.9115 C   0  0  0  0  0  0  0  0  0  0  0  0
  -20.3323    6.5623    5.5668 O   0  0  0  0  0  0  0  0  0  0  0  0
  1  7  1  0  0  0  0
  1  9  1  0  0  0  0
  2  8  1  0  0  0  0
  2 14  1  0  0  0  0
  2 15  1  0  0  0  0
  3  4  2  0  0  0  0
  3  8  1  0  0  0  0
  4  5  1  0  0  0  0
  4 21  1  0  0  0  0
  5  6  2  0  0  0  0
  6  7  1  0  0  0  0
  7  8  2  0  0  0  0
  9 10  2  0  0  0  0
  9 14  1  0  0  0  0
 10 11  1  0  0  0  0
 11 12  2  0  0  0  0
 12 13  1  0  0  0  0
 13 14  2  0  0  0  0
 15 16  1  0  0  0  0
 16 17  1  0  0  0  0
 17 18  1  0  0  0  0
 18 19  1  0  0  0  0
 18 20  1  0  0  0  0
 21 22  1  0  0  0  0
 21 23  2  0  0  0  0
M  CHG  1  18   1
M  END
>  <CHROM.1>
157.38271792,-157.76035865,-157.77059527,162.94545796,-178.76052465,-22.94485666
7.27194565,9.55524114,1.75944669,-0.30900357,-1.53106258

>  <Name>


>  <RI>
0

>  <Rbt.Current_Directory>
/home/itssahil/PROJECTS/Mol_Feturizer/New_Systems/rnas/1lvj

>  <Rbt.Executable>
rbdock ($Id: //depot/dev/client3/rdock/2013.1/src/exe/rbdock.cxx#4 $)

>  <Rbt.Library>
libRbt.so (2013.1, Build901 2013/11/27)

>  <Rbt.Parameter_File>
/export/apps/rDock/src/rDock_2013.1_src/data/scripts/dock_solv.prm

>  <Rbt.Receptor>
prm/pocket_docking_6.prm

>  <SCORE>
-33.2507

>  <SCORE.INTER>
-30.1022

>  <SCORE.INTER.CONST>
1

>  <SCORE.INTER.POLAR>
0

>  <SCORE.INTER.ROT>
5

>  <SCORE.INTER.SOLV>
10.9312

>  <SCORE.INTER.VDW>
-30.6452

>  <SCORE.INTER.norm>
-1.30879

>  <SCORE.INTRA>
-3.15796

>  <SCORE.INTRA.DIHEDRAL>
-3.37965

>  <SCORE.INTRA.DIHEDRAL.0>
8.06479

>  <SCORE.INTRA.POLAR>
0

>  <SCORE.INTRA.POLAR.0>
0

>  <SCORE.INTRA.REPUL>
0

>  <SCORE.INTRA.REPUL.0>
0

>  <SCORE.INTRA.SOLV>
-0.613806

>  <SCORE.INTRA.SOLV.lig_0>
-29.8054

>  <SCORE.INTRA.VDW>
-1.16124

>  <SCORE.INTRA.VDW.0>
2.61447

>  <SCORE.INTRA.norm>
-0.137303

>  <SCORE.RESTR>
0.00943799

>  <SCORE.RESTR.CAVITY>
0.00943799

>  <SCORE.RESTR.norm>
0.000410347

>  <SCORE.SYSTEM>
0

>  <SCORE.SYSTEM.CONST>
0

>  <SCORE.SYSTEM.DIHEDRAL>
0

>  <SCORE.SYSTEM.SOLV>
0

>  <SCORE.SYSTEM.norm>
0

>  <SCORE.heavy>
23

>  <SCORE.norm>
-1.44568

>  <RMSD>
7.389

$$$$

 OpenBabel11021811403D
libRbt.so/2013.1/901 2013/11/27
 23 25  0  0  0  0  0  0  0  0999 V2000
  -25.6084    8.3471    9.3933 S   0  0  0  0  0  0  0  0  0  0  0  0
  -22.9135    7.1921    9.9158 N   0  0  0  0  0  0  0  0  0  0  0  0
  -22.1318    7.2281    7.6351 C   0  0  0  0  0  0  0  0  0  0  0  0
  -22.3731    7.5379    6.2901 C   0  0  0  0  0  0  0  0  0  0  0  0
  -23.5895    8.0943    5.9064 C   0  0  0  0  0  0  0  0  0  0  0  0
  -24.5714    8.3398    6.8600 C   0  0  0  0  0  0  0  0  0  0  0  0
  -24.3436    8.0336    8.1992 C   0  0  0  0  0  0  0  0  0  0  0  0
  -23.1221    7.4762    8.5960 C   0  0  0  0  0  0  0  0  0  0  0  0
  -25.2554    6.8414   10.2438 C   0  0  0  0  0  0  0  0  0  0  0  0
  -26.2989    6.0626   10.7525 C   0  0  0  0  0  0  0  0  0  0  0  0
  -26.0148    4.8734   11.4299 C   0  0  0  0  0  0  0  0  0  0  0  0
  -24.6868    4.4688   11.5998 C   0  0  0  0  0  0  0  0  0  0  0  0
  -23.6500    5.2512   11.0902 C   0  0  0  0  0  0  0  0  0  0  0  0
  -23.9283    6.4306   10.4132 C   0  0  0  0  0  0  0  0  0  0  0  0
  -21.5353    6.9873   10.4264 C   0  0  0  0  0  0  0  0  0  0  0  0
  -21.3286    7.0694   11.9757 C   0  0  0  0  0  0  0  0  0  0  0  0
  -19.8454    6.8308   12.4211 C   0  0  0  0  0  0  0  0  0  0  0  0
  -19.5658    6.7608   13.8780 N   0  3  0  0  0  0  0  0  0  0  0  0
  -20.2003    5.5683   14.4969 C   0  0  0  0  0  0  0  0  0  0  0  0
  -19.9899    8.0322   14.5603 C   0  0  0  0  0  0  0  0  0  0  0  0
  -21.3230    7.2685    5.2503 C   0  0  0  0  0  0  0  0  0  0  0  0
  -21.3481    7.9378    3.8975 C   0  0  0  0  0  0  0  0  0  0  0  0
  -20.3863    6.5341    5.5213 O   0  0  0  0  0  0  0  0  0  0  0  0
  1  7  1  0  0  0  0
  1  9  1  0  0  0  0
  2  8  1  0  0  0  0
  2 14  1  0  0  0  0
  2 15  1  0  0  0  0
  3  4  2  0  0  0  0
  3  8  1  0  0  0  0
  4  5  1  0  0  0  0
  4 21  1  0  0  0  0
  5  6  2  0  0  0  0
  6  7  1  0  0  0  0
  7  8  2  0  0  0  0
  9 10  2  0  0  0  0
  9 14  1  0  0  0  0
 10 11  1  0  0  0  0
 11 12  2  0  0  0  0
 12 13  1  0  0  0  0
 13 14  2  0  0  0  0
 15 16  1  0  0  0  0
 16 17  1  0  0  0  0
 17 18  1  0  0  0  0
 18 19  1  0  0  0  0
 18 20  1  0  0  0  0
 21 22  1  0  0  0  0
 21 23  2  0  0  0  0
M  CHG  1  18   1
M  END
>  <CHROM.1>
163.16647029,-161.36009109,179.59983009,-174.37489152,-173.90105202,-22.83271605
6.99821085,9.64707185,1.78059191,-0.06792387,-1.38965969

>  <Name>


>  <RI>
0

>  <Rbt.Current_Directory>
/home/itssahil/PROJECTS/Mol_Feturizer/New_Systems/rnas/1lvj

>  <Rbt.Executable>
rbdock ($Id: //depot/dev/client3/rdock/2013.1/src/exe/rbdock.cxx#4 $)

>  <Rbt.Library>
libRbt.so (2013.1, Build901 2013/11/27)

>  <Rbt.Parameter_File>
/export/apps/rDock/src/rDock_2013.1_src/data/scripts/dock_solv.prm

>  <Rbt.Receptor>
prm/pocket_docking_6.prm

>  <SCORE>
-33.3925

>  <SCORE.INTER>
-28.9576

>  <SCORE.INTER.CONST>
1

>  <SCORE.INTER.POLAR>
0

>  <SCORE.INTER.ROT>
5

>  <SCORE.INTER.SOLV>
10.3414

>  <SCORE.INTER.VDW>
-29.6855

>  <SCORE.INTER.norm>
-1.25902

>  <SCORE.INTRA>
-4.43496

>  <SCORE.INTRA.DIHEDRAL>
-6.5248

>  <SCORE.INTRA.DIHEDRAL.0>
8.06479

>  <SCORE.INTRA.POLAR>
0

>  <SCORE.INTRA.POLAR.0>
0

>  <SCORE.INTRA.REPUL>
0

>  <SCORE.INTRA.REPUL.0>
0

>  <SCORE.INTRA.SOLV>
-0.610432

>  <SCORE.INTRA.SOLV.lig_0>
-29.8054

>  <SCORE.INTRA.VDW>
-0.867346

>  <SCORE.INTRA.VDW.0>
2.61447

>  <SCORE.INTRA.norm>
-0.192824

>  <SCORE.RESTR>
0

>  <SCORE.RESTR.CAVITY>
0

>  <SCORE.RESTR.norm>
0

>  <SCORE.SYSTEM>
0

>  <SCORE.SYSTEM.CONST>
0

>  <SCORE.SYSTEM.DIHEDRAL>
0

>  <SCORE.SYSTEM.SOLV>
0

>  <SCORE.SYSTEM.norm>
0

>  <SCORE.heavy>
23

>  <SCORE.norm>
-1.45185

>  <RMSD>
7.389

$$$$

 OpenBabel11021811403D
libRbt.so/2013.1/901 2013/11/27
 23 25  0  0  0  0  0  0  0  0999 V2000
  -25.6529    8.3538    9.5546 S   0  0  0  0  0  0  0  0  0  0  0  0
  -22.9913    7.1128   10.0495 N   0  0  0  0  0  0  0  0  0  0  0  0
  -22.1900    7.2215    7.7779 C   0  0  0  0  0  0  0  0  0  0  0  0
  -22.4125    7.5912    6.4449 C   0  0  0  0  0  0  0  0  0  0  0  0
  -23.6118    8.1923    6.0751 C   0  0  0  0  0  0  0  0  0  0  0  0
  -24.5954    8.4233    7.0306 C   0  0  0  0  0  0  0  0  0  0  0  0
  -24.3862    8.0578    8.3580 C   0  0  0  0  0  0  0  0  0  0  0  0
  -23.1820    7.4549    8.7408 C   0  0  0  0  0  0  0  0  0  0  0  0
  -25.3437    6.8068   10.3458 C   0  0  0  0  0  0  0  0  0  0  0  0
  -26.4100    6.0340   10.8149 C   0  0  0  0  0  0  0  0  0  0  0  0
  -26.1605    4.8118   11.4455 C   0  0  0  0  0  0  0  0  0  0  0  0
  -24.8441    4.3681   11.6087 C   0  0  0  0  0  0  0  0  0  0  0  0
  -23.7844    5.1448   11.1388 C   0  0  0  0  0  0  0  0  0  0  0  0
  -24.0284    6.3570   10.5082 C   0  0  0  0  0  0  0  0  0  0  0  0
  -21.6228    6.8537   10.5615 C   0  0  0  0  0  0  0  0  0  0  0  0
  -21.2997    7.3413   12.0133 C   0  0  0  0  0  0  0  0  0  0  0  0
  -19.8047    7.1209   12.4276 C   0  0  0  0  0  0  0  0  0  0  0  0
  -18.7569    7.7724   11.6008 N   0  3  0  0  0  0  0  0  0  0  0  0
  -17.4016    7.2713   11.9466 C   0  0  0  0  0  0  0  0  0  0  0  0
  -18.8426    9.2692   11.7204 C   0  0  0  0  0  0  0  0  0  0  0  0
  -21.3606    7.3382    5.4027 C   0  0  0  0  0  0  0  0  0  0  0  0
  -21.3634    8.0554    4.0745 C   0  0  0  0  0  0  0  0  0  0  0  0
  -20.4402    6.5764    5.6533 O   0  0  0  0  0  0  0  0  0  0  0  0
  1  7  1  0  0  0  0
  1  9  1  0  0  0  0
  2  8  1  0  0  0  0
  2 14  1  0  0  0  0
  2 15  1  0  0  0  0
  3  4  2  0  0  0  0
  3  8  1  0  0  0  0
  4  5  1  0  0  0  0
  4 21  1  0  0  0  0
  5  6  2  0  0  0  0
  6  7  1  0  0  0  0
  7  8  2  0  0  0  0
  9 10  2  0  0  0  0
  9 14  1  0  0  0  0
 10 11  1  0  0  0  0
 11 12  2  0  0  0  0
 12 13  1  0  0  0  0
 13 14  2  0  0  0  0
 15 16  1  0  0  0  0
 16 17  1  0  0  0  0
 17 18  1  0  0  0  0
 18 19  1  0  0  0  0
 18 20  1  0  0  0  0
 21 22  1  0  0  0  0
 21 23  2  0  0  0  0
M  CHG  1  18   1
M  END
>  <CHROM.1>
142.47373593,-161.76701589,-175.69747171,58.95272195,-49.12966672,-22.66929972
7.19802023,9.38967522,2.70303336,-0.17213849,-1.38146433

>  <Name>


>  <RI>
0

>  <Rbt.Current_Directory>
/home/itssahil/PROJECTS/Mol_Feturizer/New_Systems/rnas/1lvj

>  <Rbt.Executable>
rbdock ($Id: //depot/dev/client3/rdock/2013.1/src/exe/rbdock.cxx#4 $)

>  <Rbt.Library>
libRbt.so (2013.1, Build901 2013/11/27)

>  <Rbt.Parameter_File>
/export/apps/rDock/src/rDock_2013.1_src/data/scripts/dock_solv.prm

>  <Rbt.Receptor>
prm/pocket_docking_6.prm

>  <SCORE>
-40.686

>  <SCORE.INTER>
-36.3831

>  <SCORE.INTER.CONST>
1

>  <SCORE.INTER.POLAR>
-1.30767

>  <SCORE.INTER.ROT>
5

>  <SCORE.INTER.SOLV>
16.0275

>  <SCORE.INTER.VDW>
-32.1724

>  <SCORE.INTER.norm>
-1.58188

>  <SCORE.INTRA>
-4.30284

>  <SCORE.INTRA.DIHEDRAL>
-5.71269

>  <SCORE.INTRA.DIHEDRAL.0>
8.06479

>  <SCORE.INTRA.POLAR>
0

>  <SCORE.INTRA.POLAR.0>
0

>  <SCORE.INTRA.REPUL>
0

>  <SCORE.INTRA.REPUL.0>
0

>  <SCORE.INTRA.SOLV>
2.01364

>  <SCORE.INTRA.SOLV.lig_0>
-29.8054

>  <SCORE.INTRA.VDW>
-2.45332

>  <SCORE.INTRA.VDW.0>
2.61447

>  <SCORE.INTRA.norm>
-0.18708

>  <SCORE.RESTR>
0

>  <SCORE.RESTR.CAVITY>
0

>  <SCORE.RESTR.norm>
0

>  <SCORE.SYSTEM>
0

>  <SCORE.SYSTEM.CONST>
0

>  <SCORE.SYSTEM.DIHEDRAL>
0

>  <SCORE.SYSTEM.SOLV>
0

>  <SCORE.SYSTEM.norm>
0

>  <SCORE.heavy>
23

>  <SCORE.norm>
-1.76896

>  <RMSD>
7.392

$$$$

 OpenBabel11021811403D
libRbt.so/2013.1/901 2013/11/27
 23 25  0  0  0  0  0  0  0  0999 V2000
  -25.9266    8.0745   10.1705 S   0  0  0  0  0  0  0  0  0  0  0  0
  -23.0984    7.1493   10.2908 N   0  0  0  0  0  0  0  0  0  0  0  0
  -22.5815    7.4821    7.9592 C   0  0  0  0  0  0  0  0  0  0  0  0
  -22.9975    7.8941    6.6863 C   0  0  0  0  0  0  0  0  0  0  0  0
  -24.2937    8.3606    6.4894 C   0  0  0  0  0  0  0  0  0  0  0  0
  -25.1813    8.4142    7.5585 C   0  0  0  0  0  0  0  0  0  0  0  0
  -24.7796    8.0050    8.8275 C   0  0  0  0  0  0  0  0  0  0  0  0
  -23.4770    7.5366    9.0367 C   0  0  0  0  0  0  0  0  0  0  0  0
  -25.3487    6.5368   10.8159 C   0  0  0  0  0  0  0  0  0  0  0  0
  -26.2557    5.6125   11.3425 C   0  0  0  0  0  0  0  0  0  0  0  0
  -25.7935    4.3979   11.8573 C   0  0  0  0  0  0  0  0  0  0  0  0
  -24.4241    4.1134   11.8475 C   0  0  0  0  0  0  0  0  0  0  0  0
  -23.5241    5.0408   11.3211 C   0  0  0  0  0  0  0  0  0  0  0  0
  -23.9798    6.2461   10.8050 C   0  0  0  0  0  0  0  0  0  0  0  0
  -21.6592    7.0349   10.6340 C   0  0  0  0  0  0  0  0  0  0  0  0
  -21.2686    7.2087   12.1397 C   0  0  0  0  0  0  0  0  0  0  0  0
  -22.0377    8.3722   12.8538 C   0  0  0  0  0  0  0  0  0  0  0  0
  -21.5033    8.8573   14.1518 N   0  3  0  0  0  0  0  0  0  0  0  0
  -22.5029    9.6837   14.8767 C   0  0  0  0  0  0  0  0  0  0  0  0
  -20.2116    9.6003   13.9482 C   0  0  0  0  0  0  0  0  0  0  0  0
  -22.0498    7.8320    5.5224 C   0  0  0  0  0  0  0  0  0  0  0  0
  -20.9272    6.8248    5.4593 C   0  0  0  0  0  0  0  0  0  0  0  0
  -22.2226    8.5746    4.5691 O   0  0  0  0  0  0  0  0  0  0  0  0
  1  7  1  0  0  0  0
  1  9  1  0  0  0  0
  2  8  1  0  0  0  0
  2 14  1  0  0  0  0
  2 15  1  0  0  0  0
  3  4  2  0  0  0  0
  3  8  1  0  0  0  0
  4  5  1  0  0  0  0
  4 21  1  0  0  0  0
  5  6  2  0  0  0  0
  6  7  1  0  0  0  0
  7  8  2  0  0  0  0
  9 10  2  0  0  0  0
  9 14  1  0  0  0  0
 10 11  1  0  0  0  0
 11 12  2  0  0  0  0
 12 13  1  0  0  0  0
 13 14  2  0  0  0  0
 15 16  1  0  0  0  0
 16 17  1  0  0  0  0
 17 18  1  0  0  0  0
 18 19  1  0  0  0  0
 18 20  1  0  0  0  0
 21 22  1  0  0  0  0
 21 23  2  0  0  0  0
M  CHG  1  18   1
M  END
>  <CHROM.1>
154.01757877,28.16352097,-41.70125606,-164.24334656,-44.89210892,-23.37391089
7.42844463,10.02444927,1.51912717,0.53980641,1.59954160

>  <Name>


>  <RI>
0

>  <Rbt.Current_Directory>
/home/itssahil/PROJECTS/Mol_Feturizer/New_Systems/rnas/1lvj

>  <Rbt.Executable>
rbdock ($Id: //depot/dev/client3/rdock/2013.1/src/exe/rbdock.cxx#4 $)

>  <Rbt.Library>
libRbt.so (2013.1, Build901 2013/11/27)

>  <Rbt.Parameter_File>
/export/apps/rDock/src/rDock_2013.1_src/data/scripts/dock_solv.prm

>  <Rbt.Receptor>
prm/pocket_docking_7.prm

>  <SCORE>
-35.1755

>  <SCORE.INTER>
-31.2663

>  <SCORE.INTER.CONST>
1

>  <SCORE.INTER.POLAR>
-0.601595

>  <SCORE.INTER.ROT>
5

>  <SCORE.INTER.SOLV>
9.84495

>  <SCORE.INTER.VDW>
-29.0539

>  <SCORE.INTER.norm>
-1.35941

>  <SCORE.INTRA>
-3.90918

>  <SCORE.INTRA.DIHEDRAL>
-2.51106

>  <SCORE.INTRA.DIHEDRAL.0>
8.06479

>  <SCORE.INTRA.POLAR>
0

>  <SCORE.INTRA.POLAR.0>
0

>  <SCORE.INTRA.REPUL>
0

>  <SCORE.INTRA.REPUL.0>
0

>  <SCORE.INTRA.SOLV>
0.533607

>  <SCORE.INTRA.SOLV.lig_0>
-29.8054

>  <SCORE.INTRA.VDW>
-2.92045

>  <SCORE.INTRA.VDW.0>
2.61447

>  <SCORE.INTRA.norm>
-0.169964

>  <SCORE.RESTR>
0

>  <SCORE.RESTR.CAVITY>
0

>  <SCORE.RESTR.norm>
0

>  <SCORE.SYSTEM>
0

>  <SCORE.SYSTEM.CONST>
0

>  <SCORE.SYSTEM.DIHEDRAL>
0

>  <SCORE.SYSTEM.SOLV>
0

>  <SCORE.SYSTEM.norm>
0

>  <SCORE.heavy>
23

>  <SCORE.norm>
-1.52937

>  <RMSD>
7.405

$$$$

 OpenBabel11021811403D
libRbt.so/2013.1/901 2013/11/27
 23 25  0  0  0  0  0  0  0  0999 V2000
  -25.8615    8.0965   10.1417 S   0  0  0  0  0  0  0  0  0  0  0  0
  -23.0390    7.1523   10.2489 N   0  0  0  0  0  0  0  0  0  0  0  0
  -22.5372    7.4621    7.9109 C   0  0  0  0  0  0  0  0  0  0  0  0
  -22.9597    7.8664    6.6377 C   0  0  0  0  0  0  0  0  0  0  0  0
  -24.2540    8.3405    6.4465 C   0  0  0  0  0  0  0  0  0  0  0  0
  -25.1333    8.4092    7.5216 C   0  0  0  0  0  0  0  0  0  0  0  0
  -24.7250    8.0077    8.7910 C   0  0  0  0  0  0  0  0  0  0  0  0
  -23.4242    7.5319    8.9944 C   0  0  0  0  0  0  0  0  0  0  0  0
  -25.2897    6.5601   10.7957 C   0  0  0  0  0  0  0  0  0  0  0  0
  -26.1992    5.6467   11.3366 C   0  0  0  0  0  0  0  0  0  0  0  0
  -25.7417    4.4332   11.8581 C   0  0  0  0  0  0  0  0  0  0  0  0
  -24.3744    4.1389   11.8406 C   0  0  0  0  0  0  0  0  0  0  0  0
  -23.4719    5.0555   11.2999 C   0  0  0  0  0  0  0  0  0  0  0  0
  -23.9229    6.2597   10.7771 C   0  0  0  0  0  0  0  0  0  0  0  0
  -21.5982    7.0306   10.5825 C   0  0  0  0  0  0  0  0  0  0  0  0
  -21.2108    7.0700   12.0985 C   0  0  0  0  0  0  0  0  0  0  0  0
  -21.8369    8.2807   12.8714 C   0  0  0  0  0  0  0  0  0  0  0  0
  -21.4311    8.4796   14.2862 N   0  3  0  0  0  0  0  0  0  0  0  0
  -22.3645    9.3917   14.9965 C   0  0  0  0  0  0  0  0  0  0  0  0
  -20.0105    8.9670   14.3661 C   0  0  0  0  0  0  0  0  0  0  0  0
  -22.0211    7.7879    5.4674 C   0  0  0  0  0  0  0  0  0  0  0  0
  -20.9060    6.7724    5.4045 C   0  0  0  0  0  0  0  0  0  0  0  0
  -22.1959    8.5237    4.5092 O   0  0  0  0  0  0  0  0  0  0  0  0
  1  7  1  0  0  0  0
  1  9  1  0  0  0  0
  2  8  1  0  0  0  0
  2 14  1  0  0  0  0
  2 15  1  0  0  0  0
  3  4  2  0  0  0  0
  3  8  1  0  0  0  0
  4  5  1  0  0  0  0
  4 21  1  0  0  0  0
  5  6  2  0  0  0  0
  6  7  1  0  0  0  0
  7  8  2  0  0  0  0
  9 10  2  0  0  0  0
  9 14  1  0  0  0  0
 10 11  1  0  0  0  0
 11 12  2  0  0  0  0
 12 13  1  0  0  0  0
 13 14  2  0  0  0  0
 15 16  1  0  0  0  0
 16 17  1  0  0  0  0
 17 18  1  0  0  0  0
 18 19  1  0  0  0  0
 18 20  1  0  0  0  0
 21 22  1  0  0  0  0
 21 23  2  0  0  0  0
M  CHG  1  18   1
M  END
>  <CHROM.1>
160.01054528,28.15401066,-50.24272124,-174.52809170,-43.75058593,-23.30663488
7.35689890,10.02684433,1.64612316,-0.44844353,-1.51093934

>  <Name>


>  <RI>
0

>  <Rbt.Current_Directory>
/home/itssahil/PROJECTS/Mol_Feturizer/New_Systems/rnas/1lvj

>  <Rbt.Executable>
rbdock ($Id: //depot/dev/client3/rdock/2013.1/src/exe/rbdock.cxx#4 $)

>  <Rbt.Library>
libRbt.so (2013.1, Build901 2013/11/27)

>  <Rbt.Parameter_File>
/export/apps/rDock/src/rDock_2013.1_src/data/scripts/dock_solv.prm

>  <Rbt.Receptor>
prm/pocket_docking_8.prm

>  <SCORE>
-35.3396

>  <SCORE.INTER>
-30.7138

>  <SCORE.INTER.CONST>
1

>  <SCORE.INTER.POLAR>
-0.601876

>  <SCORE.INTER.ROT>
5

>  <SCORE.INTER.SOLV>
9.55012

>  <SCORE.INTER.VDW>
-28.5863

>  <SCORE.INTER.norm>
-1.33538

>  <SCORE.INTRA>
-4.62579

>  <SCORE.INTRA.DIHEDRAL>
-4.21237

>  <SCORE.INTRA.DIHEDRAL.0>
8.06479

>  <SCORE.INTRA.POLAR>
0

>  <SCORE.INTRA.POLAR.0>
0

>  <SCORE.INTRA.REPUL>
0

>  <SCORE.INTRA.REPUL.0>
0

>  <SCORE.INTRA.SOLV>
0.55031

>  <SCORE.INTRA.SOLV.lig_0>
-29.8054

>  <SCORE.INTRA.VDW>
-2.79476

>  <SCORE.INTRA.VDW.0>
2.61447

>  <SCORE.INTRA.norm>
-0.201121

>  <SCORE.RESTR>
0

>  <SCORE.RESTR.CAVITY>
0

>  <SCORE.RESTR.norm>
0

>  <SCORE.SYSTEM>
0

>  <SCORE.SYSTEM.CONST>
0

>  <SCORE.SYSTEM.DIHEDRAL>
0

>  <SCORE.SYSTEM.SOLV>
0

>  <SCORE.SYSTEM.norm>
0

>  <SCORE.heavy>
23

>  <SCORE.norm>
-1.5365

>  <RMSD>
7.420

$$$$

 OpenBabel11021811403D
libRbt.so/2013.1/901 2013/11/27
 23 25  0  0  0  0  0  0  0  0999 V2000
  -25.8753    8.0845   10.1856 S   0  0  0  0  0  0  0  0  0  0  0  0
  -23.0474    7.1561   10.2838 N   0  0  0  0  0  0  0  0  0  0  0  0
  -22.5514    7.4785    7.9463 C   0  0  0  0  0  0  0  0  0  0  0  0
  -22.9785    7.8857    6.6755 C   0  0  0  0  0  0  0  0  0  0  0  0
  -24.2758    8.3532    6.4885 C   0  0  0  0  0  0  0  0  0  0  0  0
  -25.1536    8.4124    7.5655 C   0  0  0  0  0  0  0  0  0  0  0  0
  -24.7408    8.0079    8.8324 C   0  0  0  0  0  0  0  0  0  0  0  0
  -23.4369    7.5387    9.0316 C   0  0  0  0  0  0  0  0  0  0  0  0
  -25.2936    6.5488   10.8321 C   0  0  0  0  0  0  0  0  0  0  0  0
  -26.1970    5.6279   11.3708 C   0  0  0  0  0  0  0  0  0  0  0  0
  -25.7316    4.4149   11.8863 C   0  0  0  0  0  0  0  0  0  0  0  0
  -24.3627    4.1285   11.8652 C   0  0  0  0  0  0  0  0  0  0  0  0
  -23.4664    5.0525   11.3268 C   0  0  0  0  0  0  0  0  0  0  0  0
  -23.9252    6.2562   10.8098 C   0  0  0  0  0  0  0  0  0  0  0  0
  -21.6053    7.0412   10.6144 C   0  0  0  0  0  0  0  0  0  0  0  0
  -21.2199    7.0245   12.1313 C   0  0  0  0  0  0  0  0  0  0  0  0
  -21.7609    8.2616   12.9264 C   0  0  0  0  0  0  0  0  0  0  0  0
  -21.4662    8.3293   14.3805 N   0  3  0  0  0  0  0  0  0  0  0  0
  -22.3230    9.3332   15.0628 C   0  0  0  0  0  0  0  0  0  0  0  0
  -20.0046    8.5973   14.6127 C   0  0  0  0  0  0  0  0  0  0  0  0
  -22.0416    7.8175    5.5033 C   0  0  0  0  0  0  0  0  0  0  0  0
  -20.9186    6.8110    5.4358 C   0  0  0  0  0  0  0  0  0  0  0  0
  -22.2239    8.5542    4.5472 O   0  0  0  0  0  0  0  0  0  0  0  0
  1  7  1  0  0  0  0
  1  9  1  0  0  0  0
  2  8  1  0  0  0  0
  2 14  1  0  0  0  0
  2 15  1  0  0  0  0
  3  4  2  0  0  0  0
  3  8  1  0  0  0  0
  4  5  1  0  0  0  0
  4 21  1  0  0  0  0
  5  6  2  0  0  0  0
  6  7  1  0  0  0  0
  7  8  2  0  0  0  0
  9 10  2  0  0  0  0
  9 14  1  0  0  0  0
 10 11  1  0  0  0  0
 11 12  2  0  0  0  0
 12 13  1  0  0  0  0
 13 14  2  0  0  0  0
 15 16  1  0  0  0  0
 16 17  1  0  0  0  0
 17 18  1  0  0  0  0
 18 19  1  0  0  0  0
 18 20  1  0  0  0  0
 21 22  1  0  0  0  0
 21 23  2  0  0  0  0
M  CHG  1  18   1
M  END
>  <CHROM.1>
162.15628204,27.99513457,-55.25335830,179.08806374,-44.89892745,-23.31149057
7.33102975,10.07702273,1.65505767,-0.42005375,-1.49156547

>  <Name>


>  <RI>
0

>  <Rbt.Current_Directory>
/home/itssahil/PROJECTS/Mol_Feturizer/New_Systems/rnas/1lvj

>  <Rbt.Executable>
rbdock ($Id: //depot/dev/client3/rdock/2013.1/src/exe/rbdock.cxx#4 $)

>  <Rbt.Library>
libRbt.so (2013.1, Build901 2013/11/27)

>  <Rbt.Parameter_File>
/export/apps/rDock/src/rDock_2013.1_src/data/scripts/dock_solv.prm

>  <Rbt.Receptor>
prm/pocket_docking_8.prm

>  <SCORE>
-35.3346

>  <SCORE.INTER>
-30.5763

>  <SCORE.INTER.CONST>
1

>  <SCORE.INTER.POLAR>
-0.600628

>  <SCORE.INTER.ROT>
5

>  <SCORE.INTER.SOLV>
9.47751

>  <SCORE.INTER.VDW>
-28.4746

>  <SCORE.INTER.norm>
-1.3294

>  <SCORE.INTRA>
-4.75835

>  <SCORE.INTRA.DIHEDRAL>
-4.73241

>  <SCORE.INTRA.DIHEDRAL.0>
8.06479

>  <SCORE.INTRA.POLAR>
0

>  <SCORE.INTRA.POLAR.0>
0

>  <SCORE.INTRA.REPUL>
0

>  <SCORE.INTRA.REPUL.0>
0

>  <SCORE.INTRA.SOLV>
0.551952

>  <SCORE.INTRA.SOLV.lig_0>
-29.8054

>  <SCORE.INTRA.VDW>
-2.66812

>  <SCORE.INTRA.VDW.0>
2.61447

>  <SCORE.INTRA.norm>
-0.206885

>  <SCORE.RESTR>
0

>  <SCORE.RESTR.CAVITY>
0

>  <SCORE.RESTR.norm>
0

>  <SCORE.SYSTEM>
0

>  <SCORE.SYSTEM.CONST>
0

>  <SCORE.SYSTEM.DIHEDRAL>
0

>  <SCORE.SYSTEM.SOLV>
0

>  <SCORE.SYSTEM.norm>
0

>  <SCORE.heavy>
23

>  <SCORE.norm>
-1.53629

>  <RMSD>
7.437

$$$$

 OpenBabel11021811403D
libRbt.so/2013.1/901 2013/11/27
 23 25  0  0  0  0  0  0  0  0999 V2000
  -25.5805    8.3530    9.5556 S   0  0  0  0  0  0  0  0  0  0  0  0
  -22.8795    7.1955   10.0394 N   0  0  0  0  0  0  0  0  0  0  0  0
  -22.1203    7.2563    7.7515 C   0  0  0  0  0  0  0  0  0  0  0  0
  -22.3751    7.5799    6.4123 C   0  0  0  0  0  0  0  0  0  0  0  0
  -23.5958    8.1390    6.0465 C   0  0  0  0  0  0  0  0  0  0  0  0
  -24.5686    8.3735    7.0122 C   0  0  0  0  0  0  0  0  0  0  0  0
  -24.3272    8.0535    8.3458 C   0  0  0  0  0  0  0  0  0  0  0  0
  -23.1014    7.4932    8.7247 C   0  0  0  0  0  0  0  0  0  0  0  0
  -25.2177    6.8388   10.3867 C   0  0  0  0  0  0  0  0  0  0  0  0
  -26.2554    6.0536   10.8975 C   0  0  0  0  0  0  0  0  0  0  0  0
  -25.9634    4.8576   11.5594 C   0  0  0  0  0  0  0  0  0  0  0  0
  -24.6334    4.4527   11.7120 C   0  0  0  0  0  0  0  0  0  0  0  0
  -23.6024    5.2416   11.2005 C   0  0  0  0  0  0  0  0  0  0  0  0
  -23.8886    6.4277   10.5387 C   0  0  0  0  0  0  0  0  0  0  0  0
  -21.4961    6.9869   10.5342 C   0  0  0  0  0  0  0  0  0  0  0  0
  -21.2294    7.2733   12.0497 C   0  0  0  0  0  0  0  0  0  0  0  0
  -19.7441    7.0215   12.4805 C   0  0  0  0  0  0  0  0  0  0  0  0
  -18.6767    7.7098   11.7106 N   0  3  0  0  0  0  0  0  0  0  0  0
  -17.3288    7.2049   12.0789 C   0  0  0  0  0  0  0  0  0  0  0  0
  -18.7772    9.2006   11.8827 C   0  0  0  0  0  0  0  0  0  0  0  0
  -21.3351    7.3226    5.3595 C   0  0  0  0  0  0  0  0  0  0  0  0
  -21.3661    8.0170    4.0195 C   0  0  0  0  0  0  0  0  0  0  0  0
  -20.4015    6.5770    5.6095 O   0  0  0  0  0  0  0  0  0  0  0  0
  1  7  1  0  0  0  0
  1  9  1  0  0  0  0
  2  8  1  0  0  0  0
  2 14  1  0  0  0  0
  2 15  1  0  0  0  0
  3  4  2  0  0  0  0
  3  8  1  0  0  0  0
  4  5  1  0  0  0  0
  4 21  1  0  0  0  0
  5  6  2  0  0  0  0
  6  7  1  0  0  0  0
  7  8  2  0  0  0  0
  9 10  2  0  0  0  0
  9 14  1  0  0  0  0
 10 11  1  0  0  0  0
 11 12  2  0  0  0  0
 12 13  1  0  0  0  0
 13 14  2  0  0  0  0
 15 16  1  0  0  0  0
 16 17  1  0  0  0  0
 17 18  1  0  0  0  0
 18 19  1  0  0  0  0
 18 20  1  0  0  0  0
 21 22  1  0  0  0  0
 21 23  2  0  0  0  0
M  CHG  1  18   1
M  END
>  <CHROM.1>
153.81223586,-160.70687301,179.82166551,53.82102014,-50.48528408,-22.58327751
7.20044594,9.41609657,2.38416929,-0.15561854,-1.38831367

>  <Name>


>  <RI>
0

>  <Rbt.Current_Directory>
/home/itssahil/PROJECTS/Mol_Feturizer/New_Systems/rnas/1lvj

>  <Rbt.Executable>
rbdock ($Id: //depot/dev/client3/rdock/2013.1/src/exe/rbdock.cxx#4 $)

>  <Rbt.Library>
libRbt.so (2013.1, Build901 2013/11/27)

>  <Rbt.Parameter_File>
/export/apps/rDock/src/rDock_2013.1_src/data/scripts/dock_solv.prm

>  <Rbt.Receptor>
prm/pocket_docking_7.prm

>  <SCORE>
-40.7797

>  <SCORE.INTER>
-36.5811

>  <SCORE.INTER.CONST>
1

>  <SCORE.INTER.POLAR>
-1.30767

>  <SCORE.INTER.ROT>
5

>  <SCORE.INTER.SOLV>
15.2151

>  <SCORE.INTER.VDW>
-32.0335

>  <SCORE.INTER.norm>
-1.59048

>  <SCORE.INTRA>
-4.19856

>  <SCORE.INTRA.DIHEDRAL>
-6.07372

>  <SCORE.INTRA.DIHEDRAL.0>
8.06479

>  <SCORE.INTRA.POLAR>
0

>  <SCORE.INTRA.POLAR.0>
0

>  <SCORE.INTRA.REPUL>
0

>  <SCORE.INTRA.REPUL.0>
0

>  <SCORE.INTRA.SOLV>
2.06636

>  <SCORE.INTRA.SOLV.lig_0>
-29.8054

>  <SCORE.INTRA.VDW>
-2.19488

>  <SCORE.INTRA.VDW.0>
2.61447

>  <SCORE.INTRA.norm>
-0.182546

>  <SCORE.RESTR>
0

>  <SCORE.RESTR.CAVITY>
0

>  <SCORE.RESTR.norm>
0

>  <SCORE.SYSTEM>
0

>  <SCORE.SYSTEM.CONST>
0

>  <SCORE.SYSTEM.DIHEDRAL>
0

>  <SCORE.SYSTEM.SOLV>
0

>  <SCORE.SYSTEM.norm>
0

>  <SCORE.heavy>
23

>  <SCORE.norm>
-1.77303

>  <RMSD>
7.439

$$$$

 OpenBabel11021811403D
libRbt.so/2013.1/901 2013/11/27
 23 25  0  0  0  0  0  0  0  0999 V2000
  -25.4943    8.3818    9.4769 S   0  0  0  0  0  0  0  0  0  0  0  0
  -22.7819    7.2504    9.9586 N   0  0  0  0  0  0  0  0  0  0  0  0
  -22.0420    7.2751    7.6638 C   0  0  0  0  0  0  0  0  0  0  0  0
  -22.3099    7.5731    6.3213 C   0  0  0  0  0  0  0  0  0  0  0  0
  -23.5372    8.1178    5.9557 C   0  0  0  0  0  0  0  0  0  0  0  0
  -24.5034    8.3633    6.9252 C   0  0  0  0  0  0  0  0  0  0  0  0
  -24.2491    8.0687    8.2622 C   0  0  0  0  0  0  0  0  0  0  0  0
  -23.0166    7.5231    8.6408 C   0  0  0  0  0  0  0  0  0  0  0  0
  -25.1148    6.8851   10.3317 C   0  0  0  0  0  0  0  0  0  0  0  0
  -26.1431    6.1025   10.8651 C   0  0  0  0  0  0  0  0  0  0  0  0
  -25.8380    4.9204   11.5457 C   0  0  0  0  0  0  0  0  0  0  0  0
  -24.5041    4.5267   11.6945 C   0  0  0  0  0  0  0  0  0  0  0  0
  -23.4825    5.3129   11.1603 C   0  0  0  0  0  0  0  0  0  0  0  0
  -23.7818    6.4852   10.4799 C   0  0  0  0  0  0  0  0  0  0  0  0
  -21.3932    7.0594   10.4455 C   0  0  0  0  0  0  0  0  0  0  0  0
  -21.1173    7.3682   11.9550 C   0  0  0  0  0  0  0  0  0  0  0  0
  -19.6492    7.0482   12.3993 C   0  0  0  0  0  0  0  0  0  0  0  0
  -18.5452    7.7175   11.6651 N   0  3  0  0  0  0  0  0  0  0  0  0
  -17.2190    7.1914   12.0796 C   0  0  0  0  0  0  0  0  0  0  0  0
  -18.6270    9.2100   11.8315 C   0  0  0  0  0  0  0  0  0  0  0  0
  -21.2769    7.3037    5.2645 C   0  0  0  0  0  0  0  0  0  0  0  0
  -21.3574    7.9262    3.8917 C   0  0  0  0  0  0  0  0  0  0  0  0
  -20.3098    6.6099    5.5355 O   0  0  0  0  0  0  0  0  0  0  0  0
  1  7  1  0  0  0  0
  1  9  1  0  0  0  0
  2  8  1  0  0  0  0
  2 14  1  0  0  0  0
  2 15  1  0  0  0  0
  3  4  2  0  0  0  0
  3  8  1  0  0  0  0
  4  5  1  0  0  0  0
  4 21  1  0  0  0  0
  5  6  2  0  0  0  0
  6  7  1  0  0  0  0
  7  8  2  0  0  0  0
  9 10  2  0  0  0  0
  9 14  1  0  0  0  0
 10 11  1  0  0  0  0
 11 12  2  0  0  0  0
 12 13  1  0  0  0  0
 13 14  2  0  0  0  0
 15 16  1  0  0  0  0
 16 17  1  0  0  0  0
 17 18  1  0  0  0  0
 18 19  1  0  0  0  0
 18 20  1  0  0  0  0
 21 22  1  0  0  0  0
 21 23  2  0  0  0  0
M  CHG  1  18   1
M  END
>  <CHROM.1>
154.08390334,-163.48460773,176.18195871,57.06104961,-52.88536055,-22.48883363
7.22576627,9.34788423,2.34275008,-0.14794403,-1.39998108

>  <Name>


>  <RI>
0

>  <Rbt.Current_Directory>
/home/itssahil/PROJECTS/Mol_Feturizer/New_Systems/rnas/1lvj

>  <Rbt.Executable>
rbdock ($Id: //depot/dev/client3/rdock/2013.1/src/exe/rbdock.cxx#4 $)

>  <Rbt.Library>
libRbt.so (2013.1, Build901 2013/11/27)

>  <Rbt.Parameter_File>
/export/apps/rDock/src/rDock_2013.1_src/data/scripts/dock_solv.prm

>  <Rbt.Receptor>
prm/pocket_docking_8.prm

>  <SCORE>
-40.7351

>  <SCORE.INTER>
-36.3873

>  <SCORE.INTER.CONST>
1

>  <SCORE.INTER.POLAR>
-1.30767

>  <SCORE.INTER.ROT>
5

>  <SCORE.INTER.SOLV>
15.3489

>  <SCORE.INTER.VDW>
-31.9489

>  <SCORE.INTER.norm>
-1.58206

>  <SCORE.INTRA>
-4.34782

>  <SCORE.INTRA.DIHEDRAL>
-6.55055

>  <SCORE.INTRA.DIHEDRAL.0>
8.06479

>  <SCORE.INTRA.POLAR>
0

>  <SCORE.INTRA.POLAR.0>
0

>  <SCORE.INTRA.REPUL>
0

>  <SCORE.INTRA.REPUL.0>
0

>  <SCORE.INTRA.SOLV>
1.98621

>  <SCORE.INTRA.SOLV.lig_0>
-29.8054

>  <SCORE.INTRA.VDW>
-2.06565

>  <SCORE.INTRA.VDW.0>
2.61447

>  <SCORE.INTRA.norm>
-0.189036

>  <SCORE.RESTR>
0

>  <SCORE.RESTR.CAVITY>
0

>  <SCORE.RESTR.norm>
0

>  <SCORE.SYSTEM>
0

>  <SCORE.SYSTEM.CONST>
0

>  <SCORE.SYSTEM.DIHEDRAL>
0

>  <SCORE.SYSTEM.SOLV>
0

>  <SCORE.SYSTEM.norm>
0

>  <SCORE.heavy>
23

>  <SCORE.norm>
-1.77109

>  <RMSD>
7.460

$$$$

 OpenBabel11021811403D
libRbt.so/2013.1/901 2013/11/27
 23 25  0  0  0  0  0  0  0  0999 V2000
  -25.7109    8.0582   10.1334 S   0  0  0  0  0  0  0  0  0  0  0  0
  -22.8496    7.2363   10.2120 N   0  0  0  0  0  0  0  0  0  0  0  0
  -22.3913    7.5444    7.8648 C   0  0  0  0  0  0  0  0  0  0  0  0
  -22.8469    7.9179    6.5936 C   0  0  0  0  0  0  0  0  0  0  0  0
  -24.1627    8.3345    6.4151 C   0  0  0  0  0  0  0  0  0  0  0  0
  -25.0303    8.3762    7.5011 C   0  0  0  0  0  0  0  0  0  0  0  0
  -24.5891    8.0048    8.7686 C   0  0  0  0  0  0  0  0  0  0  0  0
  -23.2666    7.5869    8.9592 C   0  0  0  0  0  0  0  0  0  0  0  0
  -25.0657    6.5541   10.7938 C   0  0  0  0  0  0  0  0  0  0  0  0
  -25.9283    5.6080   11.3550 C   0  0  0  0  0  0  0  0  0  0  0  0
  -25.4127    4.4202   11.8815 C   0  0  0  0  0  0  0  0  0  0  0  0
  -24.0345    4.1844   11.8487 C   0  0  0  0  0  0  0  0  0  0  0  0
  -23.1789    5.1332   11.2878 C   0  0  0  0  0  0  0  0  0  0  0  0
  -23.6877    6.3119   10.7599 C   0  0  0  0  0  0  0  0  0  0  0  0
  -21.4007    7.1793   10.5276 C   0  0  0  0  0  0  0  0  0  0  0  0
  -20.9833    7.4389   12.0137 C   0  0  0  0  0  0  0  0  0  0  0  0
  -19.4317    7.4904   12.2262 C   0  0  0  0  0  0  0  0  0  0  0  0
  -18.6516    6.2666   11.9107 N   0  3  0  0  0  0  0  0  0  0  0  0
  -19.0778    5.1181   12.7514 C   0  0  0  0  0  0  0  0  0  0  0  0
  -17.1766    6.5311   12.0388 C   0  0  0  0  0  0  0  0  0  0  0  0
  -21.9209    7.8681    5.4119 C   0  0  0  0  0  0  0  0  0  0  0  0
  -20.7704    6.8937    5.3391 C   0  0  0  0  0  0  0  0  0  0  0  0
  -22.1344    8.5925    4.4528 O   0  0  0  0  0  0  0  0  0  0  0  0
  1  7  1  0  0  0  0
  1  9  1  0  0  0  0
  2  8  1  0  0  0  0
  2 14  1  0  0  0  0
  2 15  1  0  0  0  0
  3  4  2  0  0  0  0
  3  8  1  0  0  0  0
  4  5  1  0  0  0  0
  4 21  1  0  0  0  0
  5  6  2  0  0  0  0
  6  7  1  0  0  0  0
  7  8  2  0  0  0  0
  9 10  2  0  0  0  0
  9 14  1  0  0  0  0
 10 11  1  0  0  0  0
 11 12  2  0  0  0  0
 12 13  1  0  0  0  0
 13 14  2  0  0  0  0
 15 16  1  0  0  0  0
 16 17  1  0  0  0  0
 17 18  1  0  0  0  0
 18 19  1  0  0  0  0
 18 20  1  0  0  0  0
 21 22  1  0  0  0  0
 21 23  2  0  0  0  0
M  CHG  1  18   1
M  END
>  <CHROM.1>
152.15353688,28.61169827,-174.64056883,-61.85665808,59.20773410,-22.64734327
6.95944207,9.65289905,2.15348529,-0.01635306,-1.21593309

>  <Name>


>  <RI>
0

>  <Rbt.Current_Directory>
/home/itssahil/PROJECTS/Mol_Feturizer/New_Systems/rnas/1lvj

>  <Rbt.Executable>
rbdock ($Id: //depot/dev/client3/rdock/2013.1/src/exe/rbdock.cxx#4 $)

>  <Rbt.Library>
libRbt.so (2013.1, Build901 2013/11/27)

>  <Rbt.Parameter_File>
/export/apps/rDock/src/rDock_2013.1_src/data/scripts/dock_solv.prm

>  <Rbt.Receptor>
prm/pocket_docking_6.prm

>  <SCORE>
-40.5488

>  <SCORE.INTER>
-36.4849

>  <SCORE.INTER.CONST>
1

>  <SCORE.INTER.POLAR>
-1.95476

>  <SCORE.INTER.ROT>
5

>  <SCORE.INTER.SOLV>
13.7497

>  <SCORE.INTER.VDW>
-29.3239

>  <SCORE.INTER.norm>
-1.5863

>  <SCORE.INTRA>
-4.06391

>  <SCORE.INTRA.DIHEDRAL>
-4.71427

>  <SCORE.INTRA.DIHEDRAL.0>
8.06479

>  <SCORE.INTRA.POLAR>
0

>  <SCORE.INTRA.POLAR.0>
0

>  <SCORE.INTRA.REPUL>
0

>  <SCORE.INTRA.REPUL.0>
0

>  <SCORE.INTRA.SOLV>
1.81779

>  <SCORE.INTRA.SOLV.lig_0>
-29.8054

>  <SCORE.INTRA.VDW>
-2.61567

>  <SCORE.INTRA.VDW.0>
2.61447

>  <SCORE.INTRA.norm>
-0.176692

>  <SCORE.RESTR>
0

>  <SCORE.RESTR.CAVITY>
0

>  <SCORE.RESTR.norm>
0

>  <SCORE.SYSTEM>
0

>  <SCORE.SYSTEM.CONST>
0

>  <SCORE.SYSTEM.DIHEDRAL>
0

>  <SCORE.SYSTEM.SOLV>
0

>  <SCORE.SYSTEM.norm>
0

>  <SCORE.heavy>
23

>  <SCORE.norm>
-1.76299

>  <RMSD>
7.466

$$$$

 OpenBabel11021811403D
libRbt.so/2013.1/901 2013/11/27
 23 25  0  0  0  0  0  0  0  0999 V2000
  -25.7434    8.1292   10.2693 S   0  0  0  0  0  0  0  0  0  0  0  0
  -22.9374    7.1318   10.2960 N   0  0  0  0  0  0  0  0  0  0  0  0
  -22.4826    7.4729    7.9528 C   0  0  0  0  0  0  0  0  0  0  0  0
  -22.9260    7.9069    6.6965 C   0  0  0  0  0  0  0  0  0  0  0  0
  -24.2152    8.4079    6.5430 C   0  0  0  0  0  0  0  0  0  0  0  0
  -25.0687    8.4740    7.6389 C   0  0  0  0  0  0  0  0  0  0  0  0
  -24.6396    8.0431    8.8917 C   0  0  0  0  0  0  0  0  0  0  0  0
  -23.3436    7.5401    9.0573 C   0  0  0  0  0  0  0  0  0  0  0  0
  -25.1859    6.5715   10.8840 C   0  0  0  0  0  0  0  0  0  0  0  0
  -26.1000    5.6656   11.4299 C   0  0  0  0  0  0  0  0  0  0  0  0
  -25.6536    4.4351   11.9202 C   0  0  0  0  0  0  0  0  0  0  0  0
  -24.2928    4.1162   11.8665 C   0  0  0  0  0  0  0  0  0  0  0  0
  -23.3857    5.0253   11.3210 C   0  0  0  0  0  0  0  0  0  0  0  0
  -23.8258    6.2464   10.8291 C   0  0  0  0  0  0  0  0  0  0  0  0
  -21.4920    6.9779   10.5945 C   0  0  0  0  0  0  0  0  0  0  0  0
  -21.0814    6.8751   12.1014 C   0  0  0  0  0  0  0  0  0  0  0  0
  -21.2139    8.2294   12.8783 C   0  0  0  0  0  0  0  0  0  0  0  0
  -19.9615    8.9137   13.2895 N   0  3  0  0  0  0  0  0  0  0  0  0
  -19.1388    9.2954   12.1127 C   0  0  0  0  0  0  0  0  0  0  0  0
  -19.1858    8.0621   14.2565 C   0  0  0  0  0  0  0  0  0  0  0  0
  -22.0157    7.8316    5.5040 C   0  0  0  0  0  0  0  0  0  0  0  0
  -20.8988    6.8200    5.4143 C   0  0  0  0  0  0  0  0  0  0  0  0
  -22.2160    8.5666    4.5502 O   0  0  0  0  0  0  0  0  0  0  0  0
  1  7  1  0  0  0  0
  1  9  1  0  0  0  0
  2  8  1  0  0  0  0
  2 14  1  0  0  0  0
  2 15  1  0  0  0  0
  3  4  2  0  0  0  0
  3  8  1  0  0  0  0
  4  5  1  0  0  0  0
  4 21  1  0  0  0  0
  5  6  2  0  0  0  0
  6  7  1  0  0  0  0
  7  8  2  0  0  0  0
  9 10  2  0  0  0  0
  9 14  1  0  0  0  0
 10 11  1  0  0  0  0
 11 12  2  0  0  0  0
 12 13  1  0  0  0  0
 13 14  2  0  0  0  0
 15 16  1  0  0  0  0
 16 17  1  0  0  0  0
 17 18  1  0  0  0  0
 18 19  1  0  0  0  0
 18 20  1  0  0  0  0
 21 22  1  0  0  0  0
 21 23  2  0  0  0  0
M  CHG  1  18   1
M  END
>  <CHROM.1>
164.51241136,26.55044754,-71.87982202,-109.60499048,-178.05807263,-22.96668098
7.33898220,9.89458114,1.86814759,-0.37672730,-1.38313153

>  <Name>


>  <RI>
0

>  <Rbt.Current_Directory>
/home/itssahil/PROJECTS/Mol_Feturizer/New_Systems/rnas/1lvj

>  <Rbt.Executable>
rbdock ($Id: //depot/dev/client3/rdock/2013.1/src/exe/rbdock.cxx#4 $)

>  <Rbt.Library>
libRbt.so (2013.1, Build901 2013/11/27)

>  <Rbt.Parameter_File>
/export/apps/rDock/src/rDock_2013.1_src/data/scripts/dock_solv.prm

>  <Rbt.Receptor>
prm/pocket_docking_8.prm

>  <SCORE>
-33.2584

>  <SCORE.INTER>
-31.6868

>  <SCORE.INTER.CONST>
1

>  <SCORE.INTER.POLAR>
-0.606544

>  <SCORE.INTER.ROT>
5

>  <SCORE.INTER.SOLV>
10.0418

>  <SCORE.INTER.VDW>
-29.3833

>  <SCORE.INTER.norm>
-1.37769

>  <SCORE.INTRA>
-1.57162

>  <SCORE.INTRA.DIHEDRAL>
0.104939

>  <SCORE.INTRA.DIHEDRAL.0>
8.06479

>  <SCORE.INTRA.POLAR>
0

>  <SCORE.INTRA.POLAR.0>
0

>  <SCORE.INTRA.REPUL>
0

>  <SCORE.INTRA.REPUL.0>
0

>  <SCORE.INTRA.SOLV>
-0.496668

>  <SCORE.INTRA.SOLV.lig_0>
-29.8054

>  <SCORE.INTRA.VDW>
-1.37576

>  <SCORE.INTRA.VDW.0>
2.61447

>  <SCORE.INTRA.norm>
-0.0683313

>  <SCORE.RESTR>
0

>  <SCORE.RESTR.CAVITY>
0

>  <SCORE.RESTR.norm>
0

>  <SCORE.SYSTEM>
0

>  <SCORE.SYSTEM.CONST>
0

>  <SCORE.SYSTEM.DIHEDRAL>
0

>  <SCORE.SYSTEM.SOLV>
0

>  <SCORE.SYSTEM.norm>
0

>  <SCORE.heavy>
23

>  <SCORE.norm>
-1.44602

>  <RMSD>
7.497

$$$$

 OpenBabel11021811403D
libRbt.so/2013.1/901 2013/11/27
 23 25  0  0  0  0  0  0  0  0999 V2000
  -25.8746    8.0900   10.1806 S   0  0  0  0  0  0  0  0  0  0  0  0
  -23.0517    7.1460   10.2791 N   0  0  0  0  0  0  0  0  0  0  0  0
  -22.5493    7.4794    7.9445 C   0  0  0  0  0  0  0  0  0  0  0  0
  -22.9716    7.8963    6.6752 C   0  0  0  0  0  0  0  0  0  0  0  0
  -24.2660    8.3717    6.4884 C   0  0  0  0  0  0  0  0  0  0  0  0
  -25.1457    8.4293    7.5639 C   0  0  0  0  0  0  0  0  0  0  0  0
  -24.7377    8.0153    8.8293 C   0  0  0  0  0  0  0  0  0  0  0  0
  -23.4367    7.5380    9.0284 C   0  0  0  0  0  0  0  0  0  0  0  0
  -25.3023    6.5475   10.8193 C   0  0  0  0  0  0  0  0  0  0  0  0
  -26.2116    5.6283   11.3507 C   0  0  0  0  0  0  0  0  0  0  0  0
  -25.7537    4.4098   11.8602 C   0  0  0  0  0  0  0  0  0  0  0  0
  -24.3863    4.1163   11.8402 C   0  0  0  0  0  0  0  0  0  0  0  0
  -23.4841    5.0386   11.3089 C   0  0  0  0  0  0  0  0  0  0  0  0
  -23.9354    6.2478   10.7981 C   0  0  0  0  0  0  0  0  0  0  0  0
  -21.6110    7.0216   10.6119 C   0  0  0  0  0  0  0  0  0  0  0  0
  -21.1877    7.3466   12.0833 C   0  0  0  0  0  0  0  0  0  0  0  0
  -19.7338    6.8779   12.4325 C   0  0  0  0  0  0  0  0  0  0  0  0
  -18.6170    7.4399   11.6308 N   0  3  0  0  0  0  0  0  0  0  0  0
  -17.3283    6.7738   11.9517 C   0  0  0  0  0  0  0  0  0  0  0  0
  -18.5319    8.9304   11.8132 C   0  0  0  0  0  0  0  0  0  0  0  0
  -22.0327    7.8299    5.5045 C   0  0  0  0  0  0  0  0  0  0  0  0
  -20.9093    6.8239    5.4377 C   0  0  0  0  0  0  0  0  0  0  0  0
  -22.2136    8.5678    4.5491 O   0  0  0  0  0  0  0  0  0  0  0  0
  1  7  1  0  0  0  0
  1  9  1  0  0  0  0
  2  8  1  0  0  0  0
  2 14  1  0  0  0  0
  2 15  1  0  0  0  0
  3  4  2  0  0  0  0
  3  8  1  0  0  0  0
  4  5  1  0  0  0  0
  4 21  1  0  0  0  0
  5  6  2  0  0  0  0
  6  7  1  0  0  0  0
  7  8  2  0  0  0  0
  9 10  2  0  0  0  0
  9 14  1  0  0  0  0
 10 11  1  0  0  0  0
 11 12  2  0  0  0  0
 12 13  1  0  0  0  0
 13 14  2  0  0  0  0
 15 16  1  0  0  0  0
 16 17  1  0  0  0  0
 17 18  1  0  0  0  0
 18 19  1  0  0  0  0
 18 20  1  0  0  0  0
 21 22  1  0  0  0  0
 21 23  2  0  0  0  0
M  CHG  1  18   1
M  END
>  <CHROM.1>
147.39381608,27.58169127,166.65049009,59.65673368,-52.47084404,-22.79749309
7.14643161,9.64665820,2.49405216,-0.15469657,-1.26089276

>  <Name>


>  <RI>
0

>  <Rbt.Current_Directory>
/home/itssahil/PROJECTS/Mol_Feturizer/New_Systems/rnas/1lvj

>  <Rbt.Executable>
rbdock ($Id: //depot/dev/client3/rdock/2013.1/src/exe/rbdock.cxx#4 $)

>  <Rbt.Library>
libRbt.so (2013.1, Build901 2013/11/27)

>  <Rbt.Parameter_File>
/export/apps/rDock/src/rDock_2013.1_src/data/scripts/dock_solv.prm

>  <Rbt.Receptor>
prm/pocket_docking_6.prm

>  <SCORE>
-41.1159

>  <SCORE.INTER>
-37.4948

>  <SCORE.INTER.CONST>
1

>  <SCORE.INTER.POLAR>
-1.9154

>  <SCORE.INTER.ROT>
5

>  <SCORE.INTER.SOLV>
14.8328

>  <SCORE.INTER.VDW>
-30.4895

>  <SCORE.INTER.norm>
-1.63021

>  <SCORE.INTRA>
-3.62261

>  <SCORE.INTRA.DIHEDRAL>
-4.09436

>  <SCORE.INTRA.DIHEDRAL.0>
8.06479

>  <SCORE.INTRA.POLAR>
0

>  <SCORE.INTRA.POLAR.0>
0

>  <SCORE.INTRA.REPUL>
0

>  <SCORE.INTRA.REPUL.0>
0

>  <SCORE.INTRA.SOLV>
1.96213

>  <SCORE.INTRA.SOLV.lig_0>
-29.8054

>  <SCORE.INTRA.VDW>
-2.5565

>  <SCORE.INTRA.VDW.0>
2.61447

>  <SCORE.INTRA.norm>
-0.157505

>  <SCORE.RESTR>
0.00153949

>  <SCORE.RESTR.CAVITY>
0.00153949

>  <SCORE.RESTR.norm>
6.69343e-05

>  <SCORE.SYSTEM>
0

>  <SCORE.SYSTEM.CONST>
0

>  <SCORE.SYSTEM.DIHEDRAL>
0

>  <SCORE.SYSTEM.SOLV>
0

>  <SCORE.SYSTEM.norm>
0

>  <SCORE.heavy>
23

>  <SCORE.norm>
-1.78765

>  <RMSD>
7.498

$$$$

 OpenBabel11021811403D
libRbt.so/2013.1/901 2013/11/27
 23 25  0  0  0  0  0  0  0  0999 V2000
  -25.6058    8.3204    9.5709 S   0  0  0  0  0  0  0  0  0  0  0  0
  -22.8982    7.1751   10.0470 N   0  0  0  0  0  0  0  0  0  0  0  0
  -22.1469    7.2367    7.7566 C   0  0  0  0  0  0  0  0  0  0  0  0
  -22.4075    7.5578    6.4179 C   0  0  0  0  0  0  0  0  0  0  0  0
  -23.6318    8.1112    6.0555 C   0  0  0  0  0  0  0  0  0  0  0  0
  -24.6023    8.3425    7.0242 C   0  0  0  0  0  0  0  0  0  0  0  0
  -24.3552    8.0250    8.3574 C   0  0  0  0  0  0  0  0  0  0  0  0
  -23.1258    7.4704    8.7328 C   0  0  0  0  0  0  0  0  0  0  0  0
  -25.2337    6.8087   10.4024 C   0  0  0  0  0  0  0  0  0  0  0  0
  -26.2663    6.0196   10.9175 C   0  0  0  0  0  0  0  0  0  0  0  0
  -25.9670    4.8255   11.5797 C   0  0  0  0  0  0  0  0  0  0  0  0
  -24.6347    4.4265   11.7284 C   0  0  0  0  0  0  0  0  0  0  0  0
  -23.6089    5.2194   11.2125 C   0  0  0  0  0  0  0  0  0  0  0  0
  -23.9023    6.4035   10.5504 C   0  0  0  0  0  0  0  0  0  0  0  0
  -21.5123    6.9729   10.5374 C   0  0  0  0  0  0  0  0  0  0  0  0
  -21.1643    7.5486   11.9507 C   0  0  0  0  0  0  0  0  0  0  0  0
  -19.6282    7.5582   12.2598 C   0  0  0  0  0  0  0  0  0  0  0  0
  -19.1648    8.3501   13.4277 N   0  3  0  0  0  0  0  0  0  0  0  0
  -19.7521    7.8444   14.6953 C   0  0  0  0  0  0  0  0  0  0  0  0
  -19.4559    9.8118   13.2254 C   0  0  0  0  0  0  0  0  0  0  0  0
  -21.3699    7.3038    5.3619 C   0  0  0  0  0  0  0  0  0  0  0  0
  -21.4167    7.9854    4.0158 C   0  0  0  0  0  0  0  0  0  0  0  0
  -20.4256    6.5723    5.6137 O   0  0  0  0  0  0  0  0  0  0  0  0
  1  7  1  0  0  0  0
  1  9  1  0  0  0  0
  2  8  1  0  0  0  0
  2 14  1  0  0  0  0
  2 15  1  0  0  0  0
  3  4  2  0  0  0  0
  3  8  1  0  0  0  0
  4  5  1  0  0  0  0
  4 21  1  0  0  0  0
  5  6  2  0  0  0  0
  6  7  1  0  0  0  0
  7  8  2  0  0  0  0
  9 10  2  0  0  0  0
  9 14  1  0  0  0  0
 10 11  1  0  0  0  0
 11 12  2  0  0  0  0
 12 13  1  0  0  0  0
 13 14  2  0  0  0  0
 15 16  1  0  0  0  0
 16 17  1  0  0  0  0
 17 18  1  0  0  0  0
 18 19  1  0  0  0  0
 18 20  1  0  0  0  0
 21 22  1  0  0  0  0
 21 23  2  0  0  0  0
M  CHG  1  18   1
M  END
>  <CHROM.1>
140.88683823,-161.37996125,-167.93119131,166.68617823,-178.35924372,-22.75445257
7.30293292,9.67394494,1.89365906,-0.28629463,-1.49130467

>  <Name>


>  <RI>
0

>  <Rbt.Current_Directory>
/home/itssahil/PROJECTS/Mol_Feturizer/New_Systems/rnas/1lvj

>  <Rbt.Executable>
rbdock ($Id: //depot/dev/client3/rdock/2013.1/src/exe/rbdock.cxx#4 $)

>  <Rbt.Library>
libRbt.so (2013.1, Build901 2013/11/27)

>  <Rbt.Parameter_File>
/export/apps/rDock/src/rDock_2013.1_src/data/scripts/dock_solv.prm

>  <Rbt.Receptor>
prm/pocket_docking_7.prm

>  <SCORE>
-34.3572

>  <SCORE.INTER>
-30.3625

>  <SCORE.INTER.CONST>
1

>  <SCORE.INTER.POLAR>
0

>  <SCORE.INTER.ROT>
5

>  <SCORE.INTER.SOLV>
10.4835

>  <SCORE.INTER.VDW>
-30.6695

>  <SCORE.INTER.norm>
-1.32011

>  <SCORE.INTRA>
-3.99468

>  <SCORE.INTRA.DIHEDRAL>
-4.68702

>  <SCORE.INTRA.DIHEDRAL.0>
8.06479

>  <SCORE.INTRA.POLAR>
0

>  <SCORE.INTRA.POLAR.0>
0

>  <SCORE.INTRA.REPUL>
0

>  <SCORE.INTRA.REPUL.0>
0

>  <SCORE.INTRA.SOLV>
-0.620031

>  <SCORE.INTRA.SOLV.lig_0>
-29.8054

>  <SCORE.INTRA.VDW>
-1.34115

>  <SCORE.INTRA.VDW.0>
2.61447

>  <SCORE.INTRA.norm>
-0.173682

>  <SCORE.RESTR>
0

>  <SCORE.RESTR.CAVITY>
0

>  <SCORE.RESTR.norm>
0

>  <SCORE.SYSTEM>
0

>  <SCORE.SYSTEM.CONST>
0

>  <SCORE.SYSTEM.DIHEDRAL>
0

>  <SCORE.SYSTEM.SOLV>
0

>  <SCORE.SYSTEM.norm>
0

>  <SCORE.heavy>
23

>  <SCORE.norm>
-1.49379

>  <RMSD>
7.527

$$$$

 OpenBabel11021811403D
libRbt.so/2013.1/901 2013/11/27
 23 25  0  0  0  0  0  0  0  0999 V2000
  -25.7502    8.1249   10.2322 S   0  0  0  0  0  0  0  0  0  0  0  0
  -22.9419    7.1340   10.2654 N   0  0  0  0  0  0  0  0  0  0  0  0
  -22.4835    7.4732    7.9226 C   0  0  0  0  0  0  0  0  0  0  0  0
  -22.9255    7.9046    6.6650 C   0  0  0  0  0  0  0  0  0  0  0  0
  -24.2155    8.4024    6.5084 C   0  0  0  0  0  0  0  0  0  0  0  0
  -25.0712    8.4679    7.6026 C   0  0  0  0  0  0  0  0  0  0  0  0
  -24.6435    8.0396    8.8567 C   0  0  0  0  0  0  0  0  0  0  0  0
  -23.3467    7.5398    9.0254 C   0  0  0  0  0  0  0  0  0  0  0  0
  -25.1902    6.5693   10.8498 C   0  0  0  0  0  0  0  0  0  0  0  0
  -26.1032    5.6620   11.3952 C   0  0  0  0  0  0  0  0  0  0  0  0
  -25.6549    4.4331   11.8878 C   0  0  0  0  0  0  0  0  0  0  0  0
  -24.2933    4.1172   11.8371 C   0  0  0  0  0  0  0  0  0  0  0  0
  -23.3873    5.0278   11.2921 C   0  0  0  0  0  0  0  0  0  0  0  0
  -23.8292    6.2473   10.7979 C   0  0  0  0  0  0  0  0  0  0  0  0
  -21.4967    6.9838   10.5668 C   0  0  0  0  0  0  0  0  0  0  0  0
  -21.0822    6.9492   12.0758 C   0  0  0  0  0  0  0  0  0  0  0  0
  -19.5778    6.5737   12.3013 C   0  0  0  0  0  0  0  0  0  0  0  0
  -19.1473    6.2531   13.6862 N   0  3  0  0  0  0  0  0  0  0  0  0
  -19.8568    5.0590   14.2135 C   0  0  0  0  0  0  0  0  0  0  0  0
  -19.3242    7.4459   14.5851 C   0  0  0  0  0  0  0  0  0  0  0  0
  -22.0127    7.8299    5.4743 C   0  0  0  0  0  0  0  0  0  0  0  0
  -20.8774    6.8379    5.3991 C   0  0  0  0  0  0  0  0  0  0  0  0
  -22.2256    8.5481    4.5104 O   0  0  0  0  0  0  0  0  0  0  0  0
  1  7  1  0  0  0  0
  1  9  1  0  0  0  0
  2  8  1  0  0  0  0
  2 14  1  0  0  0  0
  2 15  1  0  0  0  0
  3  4  2  0  0  0  0
  3  8  1  0  0  0  0
  4  5  1  0  0  0  0
  4 21  1  0  0  0  0
  5  6  2  0  0  0  0
  6  7  1  0  0  0  0
  7  8  2  0  0  0  0
  9 10  2  0  0  0  0
  9 14  1  0  0  0  0
 10 11  1  0  0  0  0
 11 12  2  0  0  0  0
 12 13  1  0  0  0  0
 13 14  2  0  0  0  0
 15 16  1  0  0  0  0
 16 17  1  0  0  0  0
 17 18  1  0  0  0  0
 18 19  1  0  0  0  0
 18 20  1  0  0  0  0
 21 22  1  0  0  0  0
 21 23  2  0  0  0  0
M  CHG  1  18   1
M  END
>  <CHROM.1>
161.80803150,25.38888789,171.29581888,-168.28849947,-177.85007894,-22.89623638
6.92226310,9.97205719,1.91615395,-0.06893020,-1.26161431

>  <Name>


>  <RI>
0

>  <Rbt.Current_Directory>
/home/itssahil/PROJECTS/Mol_Feturizer/New_Systems/rnas/1lvj

>  <Rbt.Executable>
rbdock ($Id: //depot/dev/client3/rdock/2013.1/src/exe/rbdock.cxx#4 $)

>  <Rbt.Library>
libRbt.so (2013.1, Build901 2013/11/27)

>  <Rbt.Parameter_File>
/export/apps/rDock/src/rDock_2013.1_src/data/scripts/dock_solv.prm

>  <Rbt.Receptor>
prm/pocket_docking_6.prm

>  <SCORE>
-34.1286

>  <SCORE.INTER>
-30.1014

>  <SCORE.INTER.CONST>
1

>  <SCORE.INTER.POLAR>
-0.602212

>  <SCORE.INTER.ROT>
5

>  <SCORE.INTER.SOLV>
9.57844

>  <SCORE.INTER.VDW>
-28.1864

>  <SCORE.INTER.norm>
-1.30876

>  <SCORE.INTRA>
-4.02725

>  <SCORE.INTRA.DIHEDRAL>
-4.90376

>  <SCORE.INTRA.DIHEDRAL.0>
8.06479

>  <SCORE.INTRA.POLAR>
0

>  <SCORE.INTRA.POLAR.0>
0

>  <SCORE.INTRA.REPUL>
0

>  <SCORE.INTRA.REPUL.0>
0

>  <SCORE.INTRA.SOLV>
-0.604994

>  <SCORE.INTRA.SOLV.lig_0>
-29.8054

>  <SCORE.INTRA.VDW>
-1.27287

>  <SCORE.INTRA.VDW.0>
2.61447

>  <SCORE.INTRA.norm>
-0.175098

>  <SCORE.RESTR>
0

>  <SCORE.RESTR.CAVITY>
0

>  <SCORE.RESTR.norm>
0

>  <SCORE.SYSTEM>
0

>  <SCORE.SYSTEM.CONST>
0

>  <SCORE.SYSTEM.DIHEDRAL>
0

>  <SCORE.SYSTEM.SOLV>
0

>  <SCORE.SYSTEM.norm>
0

>  <SCORE.heavy>
23

>  <SCORE.norm>
-1.48385

>  <RMSD>
7.528

$$$$

 OpenBabel11021811403D
libRbt.so/2013.1/901 2013/11/27
 23 25  0  0  0  0  0  0  0  0999 V2000
  -26.2940    7.9851    9.9908 S   0  0  0  0  0  0  0  0  0  0  0  0
  -23.4762    7.0650   10.2781 N   0  0  0  0  0  0  0  0  0  0  0  0
  -22.8191    7.4121    7.9842 C   0  0  0  0  0  0  0  0  0  0  0  0
  -23.1577    7.8304    6.6906 C   0  0  0  0  0  0  0  0  0  0  0  0
  -24.4406    8.2955    6.4177 C   0  0  0  0  0  0  0  0  0  0  0  0
  -25.3918    8.3412    7.4310 C   0  0  0  0  0  0  0  0  0  0  0  0
  -25.0672    7.9256    8.7198 C   0  0  0  0  0  0  0  0  0  0  0  0
  -23.7786    7.4587    9.0054 C   0  0  0  0  0  0  0  0  0  0  0  0
  -25.7530    6.4450   10.6617 C   0  0  0  0  0  0  0  0  0  0  0  0
  -26.6882    5.5159   11.1268 C   0  0  0  0  0  0  0  0  0  0  0  0
  -26.2553    4.2994   11.6621 C   0  0  0  0  0  0  0  0  0  0  0  0
  -24.8872    4.0177   11.7342 C   0  0  0  0  0  0  0  0  0  0  0  0
  -23.9590    4.9498   11.2688 C   0  0  0  0  0  0  0  0  0  0  0  0
  -24.3852    6.1571   10.7326 C   0  0  0  0  0  0  0  0  0  0  0  0
  -22.0604    6.9516   10.7077 C   0  0  0  0  0  0  0  0  0  0  0  0
  -21.7631    7.1141   12.2358 C   0  0  0  0  0  0  0  0  0  0  0  0
  -20.2340    7.1113   12.5779 C   0  0  0  0  0  0  0  0  0  0  0  0
  -19.8239    7.6316   13.9072 N   0  3  0  0  0  0  0  0  0  0  0  0
  -20.0320    9.0995   14.0045 C   0  0  0  0  0  0  0  0  0  0  0  0
  -18.4002    7.2515   14.2084 C   0  0  0  0  0  0  0  0  0  0  0  0
  -22.1407    7.7769    5.5863 C   0  0  0  0  0  0  0  0  0  0  0  0
  -20.9976    6.7911    5.6004 C   0  0  0  0  0  0  0  0  0  0  0  0
  -22.2698    8.5078    4.6172 O   0  0  0  0  0  0  0  0  0  0  0  0
  1  7  1  0  0  0  0
  1  9  1  0  0  0  0
  2  8  1  0  0  0  0
  2 14  1  0  0  0  0
  2 15  1  0  0  0  0
  3  4  2  0  0  0  0
  3  8  1  0  0  0  0
  4  5  1  0  0  0  0
  4 21  1  0  0  0  0
  5  6  2  0  0  0  0
  6  7  1  0  0  0  0
  7  8  2  0  0  0  0
  9 10  2  0  0  0  0
  9 14  1  0  0  0  0
 10 11  1  0  0  0  0
 11 12  2  0  0  0  0
 12 13  1  0  0  0  0
 13 14  2  0  0  0  0
 15 16  1  0  0  0  0
 16 17  1  0  0  0  0
 17 18  1  0  0  0  0
 18 19  1  0  0  0  0
 18 20  1  0  0  0  0
 21 22  1  0  0  0  0
 21 23  2  0  0  0  0
M  CHG  1  18   1
M  END
>  <CHROM.1>
154.16433845,26.87716732,-174.67137498,163.18850028,50.86811724,-23.27693569
7.11963763,9.93094875,2.05801013,-0.27458962,-1.34774723

>  <Name>


>  <RI>
0

>  <Rbt.Current_Directory>
/home/itssahil/PROJECTS/Mol_Feturizer/New_Systems/rnas/1lvj

>  <Rbt.Executable>
rbdock ($Id: //depot/dev/client3/rdock/2013.1/src/exe/rbdock.cxx#4 $)

>  <Rbt.Library>
libRbt.so (2013.1, Build901 2013/11/27)

>  <Rbt.Parameter_File>
/export/apps/rDock/src/rDock_2013.1_src/data/scripts/dock_solv.prm

>  <Rbt.Receptor>
prm/pocket_docking_6.prm

>  <SCORE>
-33.0038

>  <SCORE.INTER>
-28.6929

>  <SCORE.INTER.CONST>
1

>  <SCORE.INTER.POLAR>
-0.562888

>  <SCORE.INTER.ROT>
5

>  <SCORE.INTER.SOLV>
9.87007

>  <SCORE.INTER.VDW>
-27.4756

>  <SCORE.INTER.norm>
-1.24752

>  <SCORE.INTRA>
-4.3109

>  <SCORE.INTRA.DIHEDRAL>
-3.84727

>  <SCORE.INTRA.DIHEDRAL.0>
8.06479

>  <SCORE.INTRA.POLAR>
0

>  <SCORE.INTRA.POLAR.0>
0

>  <SCORE.INTRA.REPUL>
0

>  <SCORE.INTRA.REPUL.0>
0

>  <SCORE.INTRA.SOLV>
0.309935

>  <SCORE.INTRA.SOLV.lig_0>
-29.8054

>  <SCORE.INTRA.VDW>
-2.54223

>  <SCORE.INTRA.VDW.0>
2.61447

>  <SCORE.INTRA.norm>
-0.18743

>  <SCORE.RESTR>
0

>  <SCORE.RESTR.CAVITY>
0

>  <SCORE.RESTR.norm>
0

>  <SCORE.SYSTEM>
0

>  <SCORE.SYSTEM.CONST>
0

>  <SCORE.SYSTEM.DIHEDRAL>
0

>  <SCORE.SYSTEM.SOLV>
0

>  <SCORE.SYSTEM.norm>
0

>  <SCORE.heavy>
23

>  <SCORE.norm>
-1.43495

>  <RMSD>
7.535

$$$$

 OpenBabel11021811403D
libRbt.so/2013.1/901 2013/11/27
 23 25  0  0  0  0  0  0  0  0999 V2000
  -25.7803    8.1182   10.2024 S   0  0  0  0  0  0  0  0  0  0  0  0
  -22.9636    7.1527   10.2595 N   0  0  0  0  0  0  0  0  0  0  0  0
  -22.4940    7.4795    7.9171 C   0  0  0  0  0  0  0  0  0  0  0  0
  -22.9322    7.8981    6.6539 C   0  0  0  0  0  0  0  0  0  0  0  0
  -24.2257    8.3832    6.4860 C   0  0  0  0  0  0  0  0  0  0  0  0
  -25.0885    8.4488    7.5746 C   0  0  0  0  0  0  0  0  0  0  0  0
  -24.6646    8.0331    8.8342 C   0  0  0  0  0  0  0  0  0  0  0  0
  -23.3644    7.5461    9.0143 C   0  0  0  0  0  0  0  0  0  0  0  0
  -25.2102    6.5720   10.8344 C   0  0  0  0  0  0  0  0  0  0  0  0
  -26.1184    5.6604   11.3807 C   0  0  0  0  0  0  0  0  0  0  0  0
  -25.6622    4.4391   11.8847 C   0  0  0  0  0  0  0  0  0  0  0  0
  -24.2975    4.1351   11.8444 C   0  0  0  0  0  0  0  0  0  0  0  0
  -23.3964    5.0499   11.2985 C   0  0  0  0  0  0  0  0  0  0  0  0
  -23.8462    6.2618   10.7929 C   0  0  0  0  0  0  0  0  0  0  0  0
  -21.5189    7.0176   10.5707 C   0  0  0  0  0  0  0  0  0  0  0  0
  -21.1164    6.9645   12.0823 C   0  0  0  0  0  0  0  0  0  0  0  0
  -19.5767    6.7863   12.3123 C   0  0  0  0  0  0  0  0  0  0  0  0
  -18.7415    8.0132   12.3687 N   0  3  0  0  0  0  0  0  0  0  0  0
  -18.6104    8.6438   11.0298 C   0  0  0  0  0  0  0  0  0  0  0  0
  -17.3982    7.7119   12.9743 C   0  0  0  0  0  0  0  0  0  0  0  0
  -22.0116    7.8232    5.4692 C   0  0  0  0  0  0  0  0  0  0  0  0
  -20.8873    6.8188    5.3936 C   0  0  0  0  0  0  0  0  0  0  0  0
  -22.2091    8.5523    4.5103 O   0  0  0  0  0  0  0  0  0  0  0  0
  1  7  1  0  0  0  0
  1  9  1  0  0  0  0
  2  8  1  0  0  0  0
  2 14  1  0  0  0  0
  2 15  1  0  0  0  0
  3  4  2  0  0  0  0
  3  8  1  0  0  0  0
  4  5  1  0  0  0  0
  4 21  1  0  0  0  0
  5  6  2  0  0  0  0
  6  7  1  0  0  0  0
  7  8  2  0  0  0  0
  9 10  2  0  0  0  0
  9 14  1  0  0  0  0
 10 11  1  0  0  0  0
 11 12  2  0  0  0  0
 12 13  1  0  0  0  0
 13 14  2  0  0  0  0
 15 16  1  0  0  0  0
 16 17  1  0  0  0  0
 17 18  1  0  0  0  0
 18 19  1  0  0  0  0
 18 20  1  0  0  0  0
 21 22  1  0  0  0  0
 21 23  2  0  0  0  0
M  CHG  1  18   1
M  END
>  <CHROM.1>
163.16621945,26.87656934,178.60063197,87.76834659,48.62810251,-22.74813229
7.19372219,9.68595424,2.32799327,-0.20540523,-1.28191386

>  <Name>


>  <RI>
0

>  <Rbt.Current_Directory>
/home/itssahil/PROJECTS/Mol_Feturizer/New_Systems/rnas/1lvj

>  <Rbt.Executable>
rbdock ($Id: //depot/dev/client3/rdock/2013.1/src/exe/rbdock.cxx#4 $)

>  <Rbt.Library>
libRbt.so (2013.1, Build901 2013/11/27)

>  <Rbt.Parameter_File>
/export/apps/rDock/src/rDock_2013.1_src/data/scripts/dock_solv.prm

>  <Rbt.Receptor>
prm/pocket_docking_7.prm

>  <SCORE>
-35.3163

>  <SCORE.INTER>
-32.1953

>  <SCORE.INTER.CONST>
1

>  <SCORE.INTER.POLAR>
-0.608025

>  <SCORE.INTER.ROT>
5

>  <SCORE.INTER.SOLV>
10.2347

>  <SCORE.INTER.VDW>
-29.7817

>  <SCORE.INTER.norm>
-1.3998

>  <SCORE.INTRA>
-3.12098

>  <SCORE.INTRA.DIHEDRAL>
-2.61822

>  <SCORE.INTRA.DIHEDRAL.0>
8.06479

>  <SCORE.INTRA.POLAR>
0

>  <SCORE.INTRA.POLAR.0>
0

>  <SCORE.INTRA.REPUL>
0

>  <SCORE.INTRA.REPUL.0>
0

>  <SCORE.INTRA.SOLV>
0.910706

>  <SCORE.INTRA.SOLV.lig_0>
-29.8054

>  <SCORE.INTRA.VDW>
-2.26722

>  <SCORE.INTRA.VDW.0>
2.61447

>  <SCORE.INTRA.norm>
-0.135695

>  <SCORE.RESTR>
0

>  <SCORE.RESTR.CAVITY>
0

>  <SCORE.RESTR.norm>
0

>  <SCORE.SYSTEM>
0

>  <SCORE.SYSTEM.CONST>
0

>  <SCORE.SYSTEM.DIHEDRAL>
0

>  <SCORE.SYSTEM.SOLV>
0

>  <SCORE.SYSTEM.norm>
0

>  <SCORE.heavy>
23

>  <SCORE.norm>
-1.53549

>  <RMSD>
7.539

$$$$

 OpenBabel11021811403D
libRbt.so/2013.1/901 2013/11/27
 23 25  0  0  0  0  0  0  0  0999 V2000
  -25.8897    8.1693   10.1314 S   0  0  0  0  0  0  0  0  0  0  0  0
  -23.1100    7.1059   10.2375 N   0  0  0  0  0  0  0  0  0  0  0  0
  -22.5830    7.4294    7.9069 C   0  0  0  0  0  0  0  0  0  0  0  0
  -22.9813    7.8702    6.6380 C   0  0  0  0  0  0  0  0  0  0  0  0
  -24.2535    8.4010    6.4479 C   0  0  0  0  0  0  0  0  0  0  0  0
  -25.1350    8.4905    7.5197 C   0  0  0  0  0  0  0  0  0  0  0  0
  -24.7508    8.0532    8.7848 C   0  0  0  0  0  0  0  0  0  0  0  0
  -23.4721    7.5201    8.9871 C   0  0  0  0  0  0  0  0  0  0  0  0
  -25.3864    6.6007   10.7646 C   0  0  0  0  0  0  0  0  0  0  0  0
  -26.3363    5.7183   11.2872 C   0  0  0  0  0  0  0  0  0  0  0  0
  -25.9329    4.4789   11.7923 C   0  0  0  0  0  0  0  0  0  0  0  0
  -24.5791    4.1278   11.7768 C   0  0  0  0  0  0  0  0  0  0  0  0
  -23.6360    5.0136   11.2544 C   0  0  0  0  0  0  0  0  0  0  0  0
  -24.0333    6.2434   10.7479 C   0  0  0  0  0  0  0  0  0  0  0  0
  -21.6773    6.9187   10.5760 C   0  0  0  0  0  0  0  0  0  0  0  0
  -21.3018    6.8817   12.0951 C   0  0  0  0  0  0  0  0  0  0  0  0
  -19.8834    6.2765   12.3728 C   0  0  0  0  0  0  0  0  0  0  0  0
  -19.4708    6.1087   13.7897 N   0  3  0  0  0  0  0  0  0  0  0  0
  -19.0403    7.3992   14.3872 C   0  0  0  0  0  0  0  0  0  0  0  0
  -18.4016    5.0577   13.9089 C   0  0  0  0  0  0  0  0  0  0  0  0
  -22.0406    7.7699    5.4711 C   0  0  0  0  0  0  0  0  0  0  0  0
  -20.9294    6.7491    5.4264 C   0  0  0  0  0  0  0  0  0  0  0  0
  -22.2104    8.4914    4.5012 O   0  0  0  0  0  0  0  0  0  0  0  0
  1  7  1  0  0  0  0
  1  9  1  0  0  0  0
  2  8  1  0  0  0  0
  2 14  1  0  0  0  0
  2 15  1  0  0  0  0
  3  4  2  0  0  0  0
  3  8  1  0  0  0  0
  4  5  1  0  0  0  0
  4 21  1  0  0  0  0
  5  6  2  0  0  0  0
  6  7  1  0  0  0  0
  7  8  2  0  0  0  0
  9 10  2  0  0  0  0
  9 14  1  0  0  0  0
 10 11  1  0  0  0  0
 11 12  2  0  0  0  0
 12 13  1  0  0  0  0
 13 14  2  0  0  0  0
 15 16  1  0  0  0  0
 16 17  1  0  0  0  0
 17 18  1  0  0  0  0
 18 19  1  0  0  0  0
 18 20  1  0  0  0  0
 21 22  1  0  0  0  0
 21 23  2  0  0  0  0
M  CHG  1  18   1
M  END
>  <CHROM.1>
161.56336925,25.35430729,163.18561821,-175.80602543,42.00237177,-22.96524357
6.89115568,9.92096164,2.00770742,-0.03875637,-1.26056939

>  <Name>


>  <RI>
0

>  <Rbt.Current_Directory>
/home/itssahil/PROJECTS/Mol_Feturizer/New_Systems/rnas/1lvj

>  <Rbt.Executable>
rbdock ($Id: //depot/dev/client3/rdock/2013.1/src/exe/rbdock.cxx#4 $)

>  <Rbt.Library>
libRbt.so (2013.1, Build901 2013/11/27)

>  <Rbt.Parameter_File>
/export/apps/rDock/src/rDock_2013.1_src/data/scripts/dock_solv.prm

>  <Rbt.Receptor>
prm/pocket_docking_6.prm

>  <SCORE>
-33.8838

>  <SCORE.INTER>
-29.7249

>  <SCORE.INTER.CONST>
1

>  <SCORE.INTER.POLAR>
-0.587969

>  <SCORE.INTER.ROT>
5

>  <SCORE.INTER.SOLV>
9.61411

>  <SCORE.INTER.VDW>
-27.9947

>  <SCORE.INTER.norm>
-1.29239

>  <SCORE.INTRA>
-4.15889

>  <SCORE.INTRA.DIHEDRAL>
-3.76062

>  <SCORE.INTRA.DIHEDRAL.0>
8.06479

>  <SCORE.INTRA.POLAR>
0

>  <SCORE.INTRA.POLAR.0>
0

>  <SCORE.INTRA.REPUL>
0

>  <SCORE.INTRA.REPUL.0>
0

>  <SCORE.INTRA.SOLV>
0.491472

>  <SCORE.INTRA.SOLV.lig_0>
-29.8054

>  <SCORE.INTRA.VDW>
-2.52432

>  <SCORE.INTRA.VDW.0>
2.61447

>  <SCORE.INTRA.norm>
-0.180822

>  <SCORE.RESTR>
0

>  <SCORE.RESTR.CAVITY>
0

>  <SCORE.RESTR.norm>
0

>  <SCORE.SYSTEM>
0

>  <SCORE.SYSTEM.CONST>
0

>  <SCORE.SYSTEM.DIHEDRAL>
0

>  <SCORE.SYSTEM.SOLV>
0

>  <SCORE.SYSTEM.norm>
0

>  <SCORE.heavy>
23

>  <SCORE.norm>
-1.47321

>  <RMSD>
7.543

$$$$

 OpenBabel11021811403D
libRbt.so/2013.1/901 2013/11/27
 23 25  0  0  0  0  0  0  0  0999 V2000
  -25.7076    8.1015   10.1480 S   0  0  0  0  0  0  0  0  0  0  0  0
  -22.8538    7.2527   10.2170 N   0  0  0  0  0  0  0  0  0  0  0  0
  -22.4029    7.5487    7.8668 C   0  0  0  0  0  0  0  0  0  0  0  0
  -22.8605    7.9223    6.5964 C   0  0  0  0  0  0  0  0  0  0  0  0
  -24.1730    8.3509    6.4222 C   0  0  0  0  0  0  0  0  0  0  0  0
  -25.0355    8.4043    7.5117 C   0  0  0  0  0  0  0  0  0  0  0  0
  -24.5923    8.0330    8.7786 C   0  0  0  0  0  0  0  0  0  0  0  0
  -23.2730    7.6031    8.9649 C   0  0  0  0  0  0  0  0  0  0  0  0
  -25.0738    6.5936   10.8107 C   0  0  0  0  0  0  0  0  0  0  0  0
  -25.9429    5.6576   11.3788 C   0  0  0  0  0  0  0  0  0  0  0  0
  -25.4363    4.4668   11.9071 C   0  0  0  0  0  0  0  0  0  0  0  0
  -24.0605    4.2177   11.8691 C   0  0  0  0  0  0  0  0  0  0  0  0
  -23.1985    5.1565   11.3012 C   0  0  0  0  0  0  0  0  0  0  0  0
  -23.6983    6.3382   10.7717 C   0  0  0  0  0  0  0  0  0  0  0  0
  -21.4042    7.1830   10.5265 C   0  0  0  0  0  0  0  0  0  0  0  0
  -20.9786    7.4354   12.0115 C   0  0  0  0  0  0  0  0  0  0  0  0
  -19.5849    8.1380   12.1505 C   0  0  0  0  0  0  0  0  0  0  0  0
  -18.4055    7.4523   11.5635 N   0  3  0  0  0  0  0  0  0  0  0  0
  -18.0276    6.2504   12.3510 C   0  0  0  0  0  0  0  0  0  0  0  0
  -17.2531    8.4084   11.4223 C   0  0  0  0  0  0  0  0  0  0  0  0
  -21.9402    7.8598    5.4108 C   0  0  0  0  0  0  0  0  0  0  0  0
  -20.7871    6.8879    5.3451 C   0  0  0  0  0  0  0  0  0  0  0  0
  -22.1606    8.5710    4.4434 O   0  0  0  0  0  0  0  0  0  0  0  0
  1  7  1  0  0  0  0
  1  9  1  0  0  0  0
  2  8  1  0  0  0  0
  2 14  1  0  0  0  0
  2 15  1  0  0  0  0
  3  4  2  0  0  0  0
  3  8  1  0  0  0  0
  4  5  1  0  0  0  0
  4 21  1  0  0  0  0
  5  6  2  0  0  0  0
  6  7  1  0  0  0  0
  7  8  2  0  0  0  0
  9 10  2  0  0  0  0
  9 14  1  0  0  0  0
 10 11  1  0  0  0  0
 11 12  2  0  0  0  0
 12 13  1  0  0  0  0
 13 14  2  0  0  0  0
 15 16  1  0  0  0  0
 16 17  1  0  0  0  0
 17 18  1  0  0  0  0
 18 19  1  0  0  0  0
 18 20  1  0  0  0  0
 21 22  1  0  0  0  0
 21 23  2  0  0  0  0
M  CHG  1  18   1
M  END
>  <CHROM.1>
152.49452287,27.70509439,-147.00502043,-59.00291679,48.31133523,-22.60664894
7.19515318,9.59423227,2.43987085,-0.14793636,-1.26644500

>  <Name>


>  <RI>
0

>  <Rbt.Current_Directory>
/home/itssahil/PROJECTS/Mol_Feturizer/New_Systems/rnas/1lvj

>  <Rbt.Executable>
rbdock ($Id: //depot/dev/client3/rdock/2013.1/src/exe/rbdock.cxx#4 $)

>  <Rbt.Library>
libRbt.so (2013.1, Build901 2013/11/27)

>  <Rbt.Parameter_File>
/export/apps/rDock/src/rDock_2013.1_src/data/scripts/dock_solv.prm

>  <Rbt.Receptor>
prm/pocket_docking_7.prm

>  <SCORE>
-39.9246

>  <SCORE.INTER>
-37.4855

>  <SCORE.INTER.CONST>
1

>  <SCORE.INTER.POLAR>
-1.94169

>  <SCORE.INTER.ROT>
5

>  <SCORE.INTER.SOLV>
14.7404

>  <SCORE.INTER.VDW>
-30.3648

>  <SCORE.INTER.norm>
-1.62981

>  <SCORE.INTRA>
-2.43909

>  <SCORE.INTRA.DIHEDRAL>
-1.41419

>  <SCORE.INTRA.DIHEDRAL.0>
8.06479

>  <SCORE.INTRA.POLAR>
0

>  <SCORE.INTRA.POLAR.0>
0

>  <SCORE.INTRA.REPUL>
0

>  <SCORE.INTRA.REPUL.0>
0

>  <SCORE.INTRA.SOLV>
2.03822

>  <SCORE.INTRA.SOLV.lig_0>
-29.8054

>  <SCORE.INTRA.VDW>
-2.7511

>  <SCORE.INTRA.VDW.0>
2.61447

>  <SCORE.INTRA.norm>
-0.106047

>  <SCORE.RESTR>
0

>  <SCORE.RESTR.CAVITY>
0

>  <SCORE.RESTR.norm>
0

>  <SCORE.SYSTEM>
0

>  <SCORE.SYSTEM.CONST>
0

>  <SCORE.SYSTEM.DIHEDRAL>
0

>  <SCORE.SYSTEM.SOLV>
0

>  <SCORE.SYSTEM.norm>
0

>  <SCORE.heavy>
23

>  <SCORE.norm>
-1.73585

>  <RMSD>
7.543

$$$$

 OpenBabel11021811403D
libRbt.so/2013.1/901 2013/11/27
 23 25  0  0  0  0  0  0  0  0999 V2000
  -25.9312    8.1592   10.1173 S   0  0  0  0  0  0  0  0  0  0  0  0
  -23.1403    7.1274   10.2433 N   0  0  0  0  0  0  0  0  0  0  0  0
  -22.6009    7.4559    7.9162 C   0  0  0  0  0  0  0  0  0  0  0  0
  -22.9953    7.8916    6.6443 C   0  0  0  0  0  0  0  0  0  0  0  0
  -24.2721    8.4080    6.4451 C   0  0  0  0  0  0  0  0  0  0  0  0
  -25.1619    8.4879    7.5108 C   0  0  0  0  0  0  0  0  0  0  0  0
  -24.7816    8.0555    8.7787 C   0  0  0  0  0  0  0  0  0  0  0  0
  -23.4984    7.5370    8.9902 C   0  0  0  0  0  0  0  0  0  0  0  0
  -25.4145    6.5967   10.7547 C   0  0  0  0  0  0  0  0  0  0  0  0
  -26.3580    5.7037   11.2711 C   0  0  0  0  0  0  0  0  0  0  0  0
  -25.9441    4.4693   11.7796 C   0  0  0  0  0  0  0  0  0  0  0  0
  -24.5863    4.1335   11.7737 C   0  0  0  0  0  0  0  0  0  0  0  0
  -23.6497    5.0297   11.2575 C   0  0  0  0  0  0  0  0  0  0  0  0
  -24.0574    6.2547   10.7476 C   0  0  0  0  0  0  0  0  0  0  0  0
  -21.7080    6.9567   10.5918 C   0  0  0  0  0  0  0  0  0  0  0  0
  -21.3322    7.0066   12.1104 C   0  0  0  0  0  0  0  0  0  0  0  0
  -19.9193    6.4061   12.4238 C   0  0  0  0  0  0  0  0  0  0  0  0
  -19.5453    6.2316   13.8505 N   0  3  0  0  0  0  0  0  0  0  0  0
  -19.2334    7.5340   14.4941 C   0  0  0  0  0  0  0  0  0  0  0  0
  -18.4056    5.2594   13.9841 C   0  0  0  0  0  0  0  0  0  0  0  0
  -22.0454    7.8016    5.4841 C   0  0  0  0  0  0  0  0  0  0  0  0
  -20.9347    6.7803    5.4386 C   0  0  0  0  0  0  0  0  0  0  0  0
  -22.2069    8.5324    4.5198 O   0  0  0  0  0  0  0  0  0  0  0  0
  1  7  1  0  0  0  0
  1  9  1  0  0  0  0
  2  8  1  0  0  0  0
  2 14  1  0  0  0  0
  2 15  1  0  0  0  0
  3  4  2  0  0  0  0
  3  8  1  0  0  0  0
  4  5  1  0  0  0  0
  4 21  1  0  0  0  0
  5  6  2  0  0  0  0
  6  7  1  0  0  0  0
  7  8  2  0  0  0  0
  9 10  2  0  0  0  0
  9 14  1  0  0  0  0
 10 11  1  0  0  0  0
 11 12  2  0  0  0  0
 12 13  1  0  0  0  0
 13 14  2  0  0  0  0
 15 16  1  0  0  0  0
 16 17  1  0  0  0  0
 17 18  1  0  0  0  0
 18 19  1  0  0  0  0
 18 20  1  0  0  0  0
 21 22  1  0  0  0  0
 21 23  2  0  0  0  0
M  CHG  1  18   1
M  END
>  <CHROM.1>
158.15420509,26.25421594,162.78861388,-171.65321721,46.16776187,-22.99662543
6.93195304,9.93483181,1.99800414,-0.06164194,-1.26849674

>  <Name>


>  <RI>
0

>  <Rbt.Current_Directory>
/home/itssahil/PROJECTS/Mol_Feturizer/New_Systems/rnas/1lvj

>  <Rbt.Executable>
rbdock ($Id: //depot/dev/client3/rdock/2013.1/src/exe/rbdock.cxx#4 $)

>  <Rbt.Library>
libRbt.so (2013.1, Build901 2013/11/27)

>  <Rbt.Parameter_File>
/export/apps/rDock/src/rDock_2013.1_src/data/scripts/dock_solv.prm

>  <Rbt.Receptor>
prm/pocket_docking_6.prm

>  <SCORE>
-33.9818

>  <SCORE.INTER>
-29.8186

>  <SCORE.INTER.CONST>
1

>  <SCORE.INTER.POLAR>
-0.600814

>  <SCORE.INTER.ROT>
5

>  <SCORE.INTER.SOLV>
9.67475

>  <SCORE.INTER.VDW>
-28.0346

>  <SCORE.INTER.norm>
-1.29646

>  <SCORE.INTRA>
-4.16323

>  <SCORE.INTRA.DIHEDRAL>
-3.60361

>  <SCORE.INTRA.DIHEDRAL.0>
8.06479

>  <SCORE.INTRA.POLAR>
0

>  <SCORE.INTRA.POLAR.0>
0

>  <SCORE.INTRA.REPUL>
0

>  <SCORE.INTRA.REPUL.0>
0

>  <SCORE.INTRA.SOLV>
0.466155

>  <SCORE.INTRA.SOLV.lig_0>
-29.8054

>  <SCORE.INTRA.VDW>
-2.59451

>  <SCORE.INTRA.VDW.0>
2.61447

>  <SCORE.INTRA.norm>
-0.18101

>  <SCORE.RESTR>
0

>  <SCORE.RESTR.CAVITY>
0

>  <SCORE.RESTR.norm>
0

>  <SCORE.SYSTEM>
0

>  <SCORE.SYSTEM.CONST>
0

>  <SCORE.SYSTEM.DIHEDRAL>
0

>  <SCORE.SYSTEM.SOLV>
0

>  <SCORE.SYSTEM.norm>
0

>  <SCORE.heavy>
23

>  <SCORE.norm>
-1.47747

>  <RMSD>
7.544

$$$$

 OpenBabel11021811403D
libRbt.so/2013.1/901 2013/11/27
 23 25  0  0  0  0  0  0  0  0999 V2000
  -25.5515    8.3487    9.6118 S   0  0  0  0  0  0  0  0  0  0  0  0
  -22.8303    7.2138   10.0319 N   0  0  0  0  0  0  0  0  0  0  0  0
  -22.1194    7.2965    7.7293 C   0  0  0  0  0  0  0  0  0  0  0  0
  -22.4049    7.6262    6.3978 C   0  0  0  0  0  0  0  0  0  0  0  0
  -23.6381    8.1760    6.0610 C   0  0  0  0  0  0  0  0  0  0  0  0
  -24.5927    8.3951    7.0482 C   0  0  0  0  0  0  0  0  0  0  0  0
  -24.3208    8.0688    8.3744 C   0  0  0  0  0  0  0  0  0  0  0  0
  -23.0822    7.5178    8.7241 C   0  0  0  0  0  0  0  0  0  0  0  0
  -25.1574    6.8328   10.4251 C   0  0  0  0  0  0  0  0  0  0  0  0
  -26.1768    6.0345   10.9521 C   0  0  0  0  0  0  0  0  0  0  0  0
  -25.8601    4.8371   11.6000 C   0  0  0  0  0  0  0  0  0  0  0  0
  -24.5234    4.4439   11.7224 C   0  0  0  0  0  0  0  0  0  0  0  0
  -23.5107    5.2458   11.1948 C   0  0  0  0  0  0  0  0  0  0  0  0
  -23.8216    6.4333   10.5469 C   0  0  0  0  0  0  0  0  0  0  0  0
  -21.4351    7.0151   10.4966 C   0  0  0  0  0  0  0  0  0  0  0  0
  -21.1418    7.2845   12.0103 C   0  0  0  0  0  0  0  0  0  0  0  0
  -19.6447    7.0478   12.4078 C   0  0  0  0  0  0  0  0  0  0  0  0
  -19.2663    7.2617   13.8280 N   0  3  0  0  0  0  0  0  0  0  0  0
  -17.7907    7.2936   13.9987 C   0  0  0  0  0  0  0  0  0  0  0  0
  -19.9047    6.2227   14.7083 C   0  0  0  0  0  0  0  0  0  0  0  0
  -21.3846    7.3855    5.3220 C   0  0  0  0  0  0  0  0  0  0  0  0
  -21.4798    8.0469    3.9684 C   0  0  0  0  0  0  0  0  0  0  0  0
  -20.4155    6.6830    5.5620 O   0  0  0  0  0  0  0  0  0  0  0  0
  1  7  1  0  0  0  0
  1  9  1  0  0  0  0
  2  8  1  0  0  0  0
  2 14  1  0  0  0  0
  2 15  1  0  0  0  0
  3  4  2  0  0  0  0
  3  8  1  0  0  0  0
  4  5  1  0  0  0  0
  4 21  1  0  0  0  0
  5  6  2  0  0  0  0
  6  7  1  0  0  0  0
  7  8  2  0  0  0  0
  9 10  2  0  0  0  0
  9 14  1  0  0  0  0
 10 11  1  0  0  0  0
 11 12  2  0  0  0  0
 12 13  1  0  0  0  0
 13 14  2  0  0  0  0
 15 16  1  0  0  0  0
 16 17  1  0  0  0  0
 17 18  1  0  0  0  0
 18 19  1  0  0  0  0
 18 20  1  0  0  0  0
 21 22  1  0  0  0  0
 21 23  2  0  0  0  0
M  CHG  1  18   1
M  END
>  <CHROM.1>
154.23271841,-163.14214226,179.95074296,-179.31258603,-47.57806985,-22.65899007
7.06779821,9.73511490,1.93332693,-0.10224823,-1.37572630

>  <Name>


>  <RI>
0

>  <Rbt.Current_Directory>
/home/itssahil/PROJECTS/Mol_Feturizer/New_Systems/rnas/1lvj

>  <Rbt.Executable>
rbdock ($Id: //depot/dev/client3/rdock/2013.1/src/exe/rbdock.cxx#4 $)

>  <Rbt.Library>
libRbt.so (2013.1, Build901 2013/11/27)

>  <Rbt.Parameter_File>
/export/apps/rDock/src/rDock_2013.1_src/data/scripts/dock_solv.prm

>  <Rbt.Receptor>
prm/pocket_docking_8.prm

>  <SCORE>
-34.1673

>  <SCORE.INTER>
-28.9734

>  <SCORE.INTER.CONST>
1

>  <SCORE.INTER.POLAR>
0

>  <SCORE.INTER.ROT>
5

>  <SCORE.INTER.SOLV>
10.1126

>  <SCORE.INTER.VDW>
-29.6198

>  <SCORE.INTER.norm>
-1.25971

>  <SCORE.INTRA>
-5.19386

>  <SCORE.INTRA.DIHEDRAL>
-6.39786

>  <SCORE.INTRA.DIHEDRAL.0>
8.06479

>  <SCORE.INTRA.POLAR>
0

>  <SCORE.INTRA.POLAR.0>
0

>  <SCORE.INTRA.REPUL>
0

>  <SCORE.INTRA.REPUL.0>
0

>  <SCORE.INTRA.SOLV>
0.391336

>  <SCORE.INTRA.SOLV.lig_0>
-29.8054

>  <SCORE.INTRA.VDW>
-2.1906

>  <SCORE.INTRA.VDW.0>
2.61447

>  <SCORE.INTRA.norm>
-0.22582

>  <SCORE.RESTR>
0

>  <SCORE.RESTR.CAVITY>
0

>  <SCORE.RESTR.norm>
0

>  <SCORE.SYSTEM>
0

>  <SCORE.SYSTEM.CONST>
0

>  <SCORE.SYSTEM.DIHEDRAL>
0

>  <SCORE.SYSTEM.SOLV>
0

>  <SCORE.SYSTEM.norm>
0

>  <SCORE.heavy>
23

>  <SCORE.norm>
-1.48553

>  <RMSD>
7.560

$$$$

 OpenBabel11021811403D
libRbt.so/2013.1/901 2013/11/27
 23 25  0  0  0  0  0  0  0  0999 V2000
  -25.5786    8.3126    9.5636 S   0  0  0  0  0  0  0  0  0  0  0  0
  -22.8719    7.1579   10.0216 N   0  0  0  0  0  0  0  0  0  0  0  0
  -22.1345    7.2197    7.7267 C   0  0  0  0  0  0  0  0  0  0  0  0
  -22.4023    7.5433    6.3900 C   0  0  0  0  0  0  0  0  0  0  0  0
  -23.6270    8.1012    6.0358 C   0  0  0  0  0  0  0  0  0  0  0  0
  -24.5908    8.3345    7.0107 C   0  0  0  0  0  0  0  0  0  0  0  0
  -24.3365    8.0146    8.3420 C   0  0  0  0  0  0  0  0  0  0  0  0
  -23.1066    7.4555    8.7091 C   0  0  0  0  0  0  0  0  0  0  0  0
  -25.2064    6.7988   10.3910 C   0  0  0  0  0  0  0  0  0  0  0  0
  -26.2384    6.0124   10.9114 C   0  0  0  0  0  0  0  0  0  0  0  0
  -25.9390    4.8166   11.5704 C   0  0  0  0  0  0  0  0  0  0  0  0
  -24.6071    4.4130   11.7104 C   0  0  0  0  0  0  0  0  0  0  0  0
  -23.5819    5.2031   11.1892 C   0  0  0  0  0  0  0  0  0  0  0  0
  -23.8755    6.3890   10.5303 C   0  0  0  0  0  0  0  0  0  0  0  0
  -21.4837    6.9506   10.5033 C   0  0  0  0  0  0  0  0  0  0  0  0
  -21.1192    7.5419   11.9059 C   0  0  0  0  0  0  0  0  0  0  0  0
  -19.6216    7.9870   12.0255 C   0  0  0  0  0  0  0  0  0  0  0  0
  -19.2426    8.8258   13.1911 N   0  3  0  0  0  0  0  0  0  0  0  0
  -19.9337   10.1408   13.1624 C   0  0  0  0  0  0  0  0  0  0  0  0
  -17.7490    8.9852   13.2655 C   0  0  0  0  0  0  0  0  0  0  0  0
  -21.3720    7.2871    5.3273 C   0  0  0  0  0  0  0  0  0  0  0  0
  -21.4448    7.9429    3.9696 C   0  0  0  0  0  0  0  0  0  0  0  0
  -20.4130    6.5761    5.5819 O   0  0  0  0  0  0  0  0  0  0  0  0
  1  7  1  0  0  0  0
  1  9  1  0  0  0  0
  2  8  1  0  0  0  0
  2 14  1  0  0  0  0
  2 15  1  0  0  0  0
  3  4  2  0  0  0  0
  3  8  1  0  0  0  0
  4  5  1  0  0  0  0
  4 21  1  0  0  0  0
  5  6  2  0  0  0  0
  6  7  1  0  0  0  0
  7  8  2  0  0  0  0
  9 10  2  0  0  0  0
  9 14  1  0  0  0  0
 10 11  1  0  0  0  0
 11 12  2  0  0  0  0
 12 13  1  0  0  0  0
 13 14  2  0  0  0  0
 15 16  1  0  0  0  0
 16 17  1  0  0  0  0
 17 18  1  0  0  0  0
 18 19  1  0  0  0  0
 18 20  1  0  0  0  0
 21 22  1  0  0  0  0
 21 23  2  0  0  0  0
M  CHG  1  18   1
M  END
>  <CHROM.1>
140.00461868,-163.00321599,-148.70429613,166.86525936,56.21375662,-22.67629087
7.39862015,9.56844938,2.08713806,-0.33912367,-1.52808769

>  <Name>


>  <RI>
0

>  <Rbt.Current_Directory>
/home/itssahil/PROJECTS/Mol_Feturizer/New_Systems/rnas/1lvj

>  <Rbt.Executable>
rbdock ($Id: //depot/dev/client3/rdock/2013.1/src/exe/rbdock.cxx#4 $)

>  <Rbt.Library>
libRbt.so (2013.1, Build901 2013/11/27)

>  <Rbt.Parameter_File>
/export/apps/rDock/src/rDock_2013.1_src/data/scripts/dock_solv.prm

>  <Rbt.Receptor>
prm/pocket_docking_7.prm

>  <SCORE>
-34.6242

>  <SCORE.INTER>
-31.2671

>  <SCORE.INTER.CONST>
1

>  <SCORE.INTER.POLAR>
0

>  <SCORE.INTER.ROT>
5

>  <SCORE.INTER.SOLV>
10.7243

>  <SCORE.INTER.VDW>
-31.3528

>  <SCORE.INTER.norm>
-1.35944

>  <SCORE.INTRA>
-3.3571

>  <SCORE.INTRA.DIHEDRAL>
-2.36748

>  <SCORE.INTRA.DIHEDRAL.0>
8.06479

>  <SCORE.INTRA.POLAR>
0

>  <SCORE.INTRA.POLAR.0>
0

>  <SCORE.INTRA.REPUL>
0

>  <SCORE.INTRA.REPUL.0>
0

>  <SCORE.INTRA.SOLV>
0.237879

>  <SCORE.INTRA.SOLV.lig_0>
-29.8054

>  <SCORE.INTRA.VDW>
-2.2923

>  <SCORE.INTRA.VDW.0>
2.61447

>  <SCORE.INTRA.norm>
-0.145961

>  <SCORE.RESTR>
0

>  <SCORE.RESTR.CAVITY>
0

>  <SCORE.RESTR.norm>
0

>  <SCORE.SYSTEM>
0

>  <SCORE.SYSTEM.CONST>
0

>  <SCORE.SYSTEM.DIHEDRAL>
0

>  <SCORE.SYSTEM.SOLV>
0

>  <SCORE.SYSTEM.norm>
0

>  <SCORE.heavy>
23

>  <SCORE.norm>
-1.5054

>  <RMSD>
7.573

$$$$

 OpenBabel11021811403D
libRbt.so/2013.1/901 2013/11/27
 23 25  0  0  0  0  0  0  0  0999 V2000
  -25.6234    8.3430    9.5747 S   0  0  0  0  0  0  0  0  0  0  0  0
  -22.9116    7.1986   10.0284 N   0  0  0  0  0  0  0  0  0  0  0  0
  -22.1658    7.2943    7.7374 C   0  0  0  0  0  0  0  0  0  0  0  0
  -22.4304    7.6334    6.4040 C   0  0  0  0  0  0  0  0  0  0  0  0
  -23.6570    8.1885    6.0522 C   0  0  0  0  0  0  0  0  0  0  0  0
  -24.6259    8.4035    7.0262 C   0  0  0  0  0  0  0  0  0  0  0  0
  -24.3749    8.0681    8.3542 C   0  0  0  0  0  0  0  0  0  0  0  0
  -23.1430    7.5116    8.7190 C   0  0  0  0  0  0  0  0  0  0  0  0
  -25.2453    6.8209   10.3840 C   0  0  0  0  0  0  0  0  0  0  0  0
  -26.2745    6.0218   10.8903 C   0  0  0  0  0  0  0  0  0  0  0  0
  -25.9706    4.8194   11.5351 C   0  0  0  0  0  0  0  0  0  0  0  0
  -24.6369    4.4220   11.6751 C   0  0  0  0  0  0  0  0  0  0  0  0
  -23.6143    5.2248   11.1681 C   0  0  0  0  0  0  0  0  0  0  0  0
  -23.9125    6.4173   10.5233 C   0  0  0  0  0  0  0  0  0  0  0  0
  -21.5241    6.9933   10.5128 C   0  0  0  0  0  0  0  0  0  0  0  0
  -21.2001    7.4632   11.9703 C   0  0  0  0  0  0  0  0  0  0  0  0
  -19.6665    7.6259   12.2473 C   0  0  0  0  0  0  0  0  0  0  0  0
  -19.2595    8.2131   13.5493 N   0  3  0  0  0  0  0  0  0  0  0  0
  -17.8643    8.7219   13.5041 C   0  0  0  0  0  0  0  0  0  0  0  0
  -19.4522    7.2194   14.6617 C   0  0  0  0  0  0  0  0  0  0  0  0
  -21.3945    7.3970    5.3421 C   0  0  0  0  0  0  0  0  0  0  0  0
  -21.4533    8.0877    4.0011 C   0  0  0  0  0  0  0  0  0  0  0  0
  -20.4423    6.6729    5.5850 O   0  0  0  0  0  0  0  0  0  0  0  0
  1  7  1  0  0  0  0
  1  9  1  0  0  0  0
  2  8  1  0  0  0  0
  2 14  1  0  0  0  0
  2 15  1  0  0  0  0
  3  4  2  0  0  0  0
  3  8  1  0  0  0  0
  4  5  1  0  0  0  0
  4 21  1  0  0  0  0
  5  6  2  0  0  0  0
  6  7  1  0  0  0  0
  7  8  2  0  0  0  0
  9 10  2  0  0  0  0
  9 14  1  0  0  0  0
 10 11  1  0  0  0  0
 11 12  2  0  0  0  0
 12 13  1  0  0  0  0
 13 14  2  0  0  0  0
 15 16  1  0  0  0  0
 16 17  1  0  0  0  0
 17 18  1  0  0  0  0
 18 19  1  0  0  0  0
 18 20  1  0  0  0  0
 21 22  1  0  0  0  0
 21 23  2  0  0  0  0
M  CHG  1  18   1
M  END
>  <CHROM.1>
144.91769873,-161.94916624,-162.11768021,173.27045555,-41.03178404,-22.69275901
7.25130268,9.67694195,2.00706585,-0.22865676,-1.43508855

>  <Name>


>  <RI>
0

>  <Rbt.Current_Directory>
/home/itssahil/PROJECTS/Mol_Feturizer/New_Systems/rnas/1lvj

>  <Rbt.Executable>
rbdock ($Id: //depot/dev/client3/rdock/2013.1/src/exe/rbdock.cxx#4 $)

>  <Rbt.Library>
libRbt.so (2013.1, Build901 2013/11/27)

>  <Rbt.Parameter_File>
/export/apps/rDock/src/rDock_2013.1_src/data/scripts/dock_solv.prm

>  <Rbt.Receptor>
prm/pocket_docking_7.prm

>  <SCORE>
-33.8403

>  <SCORE.INTER>
-29.4961

>  <SCORE.INTER.CONST>
1

>  <SCORE.INTER.POLAR>
0

>  <SCORE.INTER.ROT>
5

>  <SCORE.INTER.SOLV>
10.2984

>  <SCORE.INTER.VDW>
-30.0302

>  <SCORE.INTER.norm>
-1.28244

>  <SCORE.INTRA>
-4.34419

>  <SCORE.INTRA.DIHEDRAL>
-4.15444

>  <SCORE.INTRA.DIHEDRAL.0>
8.06479

>  <SCORE.INTRA.POLAR>
0

>  <SCORE.INTRA.POLAR.0>
0

>  <SCORE.INTRA.REPUL>
0

>  <SCORE.INTRA.REPUL.0>
0

>  <SCORE.INTRA.SOLV>
0.500255

>  <SCORE.INTRA.SOLV.lig_0>
-29.8054

>  <SCORE.INTRA.VDW>
-2.5171

>  <SCORE.INTRA.VDW.0>
2.61447

>  <SCORE.INTRA.norm>
-0.188878

>  <SCORE.RESTR>
0

>  <SCORE.RESTR.CAVITY>
0

>  <SCORE.RESTR.norm>
0

>  <SCORE.SYSTEM>
0

>  <SCORE.SYSTEM.CONST>
0

>  <SCORE.SYSTEM.DIHEDRAL>
0

>  <SCORE.SYSTEM.SOLV>
0

>  <SCORE.SYSTEM.norm>
0

>  <SCORE.heavy>
23

>  <SCORE.norm>
-1.47132

>  <RMSD>
7.590

$$$$

 OpenBabel11021811403D
libRbt.so/2013.1/901 2013/11/27
 23 25  0  0  0  0  0  0  0  0999 V2000
  -25.6180    8.3442    9.5585 S   0  0  0  0  0  0  0  0  0  0  0  0
  -22.8993    7.2173   10.0147 N   0  0  0  0  0  0  0  0  0  0  0  0
  -22.1602    7.2969    7.7209 C   0  0  0  0  0  0  0  0  0  0  0  0
  -22.4302    7.6230    6.3853 C   0  0  0  0  0  0  0  0  0  0  0  0
  -23.6605    8.1688    6.0320 C   0  0  0  0  0  0  0  0  0  0  0  0
  -24.6278    8.3875    7.0068 C   0  0  0  0  0  0  0  0  0  0  0  0
  -24.3715    8.0648    8.3370 C   0  0  0  0  0  0  0  0  0  0  0  0
  -23.1359    7.5178    8.7032 C   0  0  0  0  0  0  0  0  0  0  0  0
  -25.2301    6.8311   10.3800 C   0  0  0  0  0  0  0  0  0  0  0  0
  -26.2539    6.0312   10.8961 C   0  0  0  0  0  0  0  0  0  0  0  0
  -25.9421    4.8361   11.5504 C   0  0  0  0  0  0  0  0  0  0  0  0
  -24.6060    4.4466   11.6902 C   0  0  0  0  0  0  0  0  0  0  0  0
  -23.5890    5.2500   11.1734 C   0  0  0  0  0  0  0  0  0  0  0  0
  -23.8949    6.4354   10.5191 C   0  0  0  0  0  0  0  0  0  0  0  0
  -21.5094    7.0233   10.4970 C   0  0  0  0  0  0  0  0  0  0  0  0
  -21.1941    7.4698   11.9637 C   0  0  0  0  0  0  0  0  0  0  0  0
  -19.6626    7.6360   12.2500 C   0  0  0  0  0  0  0  0  0  0  0  0
  -19.2637    8.1849   13.5711 N   0  3  0  0  0  0  0  0  0  0  0  0
  -17.8841    8.7356   13.5371 C   0  0  0  0  0  0  0  0  0  0  0  0
  -19.4196    7.1444   14.6458 C   0  0  0  0  0  0  0  0  0  0  0  0
  -21.3960    7.3826    5.3226 C   0  0  0  0  0  0  0  0  0  0  0  0
  -21.4802    8.0349    3.9640 C   0  0  0  0  0  0  0  0  0  0  0  0
  -20.4250    6.6883    5.5781 O   0  0  0  0  0  0  0  0  0  0  0  0
  1  7  1  0  0  0  0
  1  9  1  0  0  0  0
  2  8  1  0  0  0  0
  2 14  1  0  0  0  0
  2 15  1  0  0  0  0
  3  4  2  0  0  0  0
  3  8  1  0  0  0  0
  4  5  1  0  0  0  0
  4 21  1  0  0  0  0
  5  6  2  0  0  0  0
  6  7  1  0  0  0  0
  7  8  2  0  0  0  0
  9 10  2  0  0  0  0
  9 14  1  0  0  0  0
 10 11  1  0  0  0  0
 11 12  2  0  0  0  0
 12 13  1  0  0  0  0
 13 14  2  0  0  0  0
 15 16  1  0  0  0  0
 16 17  1  0  0  0  0
 17 18  1  0  0  0  0
 18 19  1  0  0  0  0
 18 20  1  0  0  0  0
 21 22  1  0  0  0  0
 21 23  2  0  0  0  0
M  CHG  1  18   1
M  END
>  <CHROM.1>
146.62842828,-163.48195235,-162.68908379,174.11999656,-39.66736347,-22.68497102
7.25029761,9.67028318,2.00149035,-0.22318533,-1.43712337

>  <Name>


>  <RI>
0

>  <Rbt.Current_Directory>
/home/itssahil/PROJECTS/Mol_Feturizer/New_Systems/rnas/1lvj

>  <Rbt.Executable>
rbdock ($Id: //depot/dev/client3/rdock/2013.1/src/exe/rbdock.cxx#4 $)

>  <Rbt.Library>
libRbt.so (2013.1, Build901 2013/11/27)

>  <Rbt.Parameter_File>
/export/apps/rDock/src/rDock_2013.1_src/data/scripts/dock_solv.prm

>  <Rbt.Receptor>
prm/pocket_docking_7.prm

>  <SCORE>
-33.8005

>  <SCORE.INTER>
-29.3492

>  <SCORE.INTER.CONST>
1

>  <SCORE.INTER.POLAR>
0

>  <SCORE.INTER.ROT>
5

>  <SCORE.INTER.SOLV>
10.2475

>  <SCORE.INTER.VDW>
-29.9153

>  <SCORE.INTER.norm>
-1.27605

>  <SCORE.INTRA>
-4.45134

>  <SCORE.INTRA.DIHEDRAL>
-4.41718

>  <SCORE.INTRA.DIHEDRAL.0>
8.06479

>  <SCORE.INTRA.POLAR>
0

>  <SCORE.INTRA.POLAR.0>
0

>  <SCORE.INTRA.REPUL>
0

>  <SCORE.INTRA.REPUL.0>
0

>  <SCORE.INTRA.SOLV>
0.510892

>  <SCORE.INTRA.SOLV.lig_0>
-29.8054

>  <SCORE.INTRA.VDW>
-2.4982

>  <SCORE.INTRA.VDW.0>
2.61447

>  <SCORE.INTRA.norm>
-0.193537

>  <SCORE.RESTR>
0

>  <SCORE.RESTR.CAVITY>
0

>  <SCORE.RESTR.norm>
0

>  <SCORE.SYSTEM>
0

>  <SCORE.SYSTEM.CONST>
0

>  <SCORE.SYSTEM.DIHEDRAL>
0

>  <SCORE.SYSTEM.SOLV>
0

>  <SCORE.SYSTEM.norm>
0

>  <SCORE.heavy>
23

>  <SCORE.norm>
-1.46959

>  <RMSD>
7.592

$$$$

 OpenBabel11021811403D
libRbt.so/2013.1/901 2013/11/27
 23 25  0  0  0  0  0  0  0  0999 V2000
  -25.5974    8.3272    9.5476 S   0  0  0  0  0  0  0  0  0  0  0  0
  -22.8838    7.1978   10.0275 N   0  0  0  0  0  0  0  0  0  0  0  0
  -22.1323    7.2570    7.7371 C   0  0  0  0  0  0  0  0  0  0  0  0
  -22.3944    7.5728    6.3974 C   0  0  0  0  0  0  0  0  0  0  0  0
  -23.6216    8.1186    6.0332 C   0  0  0  0  0  0  0  0  0  0  0  0
  -24.5936    8.3474    7.0010 C   0  0  0  0  0  0  0  0  0  0  0  0
  -24.3450    8.0350    8.3351 C   0  0  0  0  0  0  0  0  0  0  0  0
  -23.1127    7.4882    8.7124 C   0  0  0  0  0  0  0  0  0  0  0  0
  -25.2173    6.8199   10.3835 C   0  0  0  0  0  0  0  0  0  0  0  0
  -26.2457    6.0267   10.9006 C   0  0  0  0  0  0  0  0  0  0  0  0
  -25.9402    4.8362   11.5663 C   0  0  0  0  0  0  0  0  0  0  0  0
  -24.6058    4.4448   11.7164 C   0  0  0  0  0  0  0  0  0  0  0  0
  -23.5842    5.2416   11.1985 C   0  0  0  0  0  0  0  0  0  0  0  0
  -23.8838    6.4223   10.5329 C   0  0  0  0  0  0  0  0  0  0  0  0
  -21.4969    7.0046   10.5187 C   0  0  0  0  0  0  0  0  0  0  0  0
  -21.1993    7.4206   11.9980 C   0  0  0  0  0  0  0  0  0  0  0  0
  -19.6784    7.3589   12.3698 C   0  0  0  0  0  0  0  0  0  0  0  0
  -19.2814    7.8135   13.7269 N   0  3  0  0  0  0  0  0  0  0  0  0
  -19.4722    9.2782   13.8871 C   0  0  0  0  0  0  0  0  0  0  0  0
  -17.8672    7.4014   14.0307 C   0  0  0  0  0  0  0  0  0  0  0  0
  -21.3552    7.3214    5.3423 C   0  0  0  0  0  0  0  0  0  0  0  0
  -21.4379    7.9522    3.9734 C   0  0  0  0  0  0  0  0  0  0  0  0
  -20.3816    6.6362    5.6119 O   0  0  0  0  0  0  0  0  0  0  0  0
  1  7  1  0  0  0  0
  1  9  1  0  0  0  0
  2  8  1  0  0  0  0
  2 14  1  0  0  0  0
  2 15  1  0  0  0  0
  3  4  2  0  0  0  0
  3  8  1  0  0  0  0
  4  5  1  0  0  0  0
  4 21  1  0  0  0  0
  5  6  2  0  0  0  0
  6  7  1  0  0  0  0
  7  8  2  0  0  0  0
  9 10  2  0  0  0  0
  9 14  1  0  0  0  0
 10 11  1  0  0  0  0
 11 12  2  0  0  0  0
 12 13  1  0  0  0  0
 13 14  2  0  0  0  0
 15 16  1  0  0  0  0
 16 17  1  0  0  0  0
 17 18  1  0  0  0  0
 18 19  1  0  0  0  0
 18 20  1  0  0  0  0
 21 22  1  0  0  0  0
 21 23  2  0  0  0  0
M  CHG  1  18   1
M  END
>  <CHROM.1>
148.49864651,-164.09031510,-172.41315504,176.38392689,51.89566921,-22.67069985
7.22971412,9.68103985,2.00404548,-0.20625852,-1.45602492

>  <Name>


>  <RI>
0

>  <Rbt.Current_Directory>
/home/itssahil/PROJECTS/Mol_Feturizer/New_Systems/rnas/1lvj

>  <Rbt.Executable>
rbdock ($Id: //depot/dev/client3/rdock/2013.1/src/exe/rbdock.cxx#4 $)

>  <Rbt.Library>
libRbt.so (2013.1, Build901 2013/11/27)

>  <Rbt.Parameter_File>
/export/apps/rDock/src/rDock_2013.1_src/data/scripts/dock_solv.prm

>  <Rbt.Receptor>
prm/pocket_docking_7.prm

>  <SCORE>
-34.7389

>  <SCORE.INTER>
-29.5642

>  <SCORE.INTER.CONST>
1

>  <SCORE.INTER.POLAR>
0

>  <SCORE.INTER.ROT>
5

>  <SCORE.INTER.SOLV>
10.2562

>  <SCORE.INTER.VDW>
-30.0615

>  <SCORE.INTER.norm>
-1.2854

>  <SCORE.INTRA>
-5.17475

>  <SCORE.INTRA.DIHEDRAL>
-6.06099

>  <SCORE.INTRA.DIHEDRAL.0>
8.06479

>  <SCORE.INTRA.POLAR>
0

>  <SCORE.INTRA.POLAR.0>
0

>  <SCORE.INTRA.REPUL>
0

>  <SCORE.INTRA.REPUL.0>
0

>  <SCORE.INTRA.SOLV>
0.322226

>  <SCORE.INTRA.SOLV.lig_0>
-29.8054

>  <SCORE.INTRA.VDW>
-2.30537

>  <SCORE.INTRA.VDW.0>
2.61447

>  <SCORE.INTRA.norm>
-0.224989

>  <SCORE.RESTR>
0

>  <SCORE.RESTR.CAVITY>
0

>  <SCORE.RESTR.norm>
0

>  <SCORE.SYSTEM>
0

>  <SCORE.SYSTEM.CONST>
0

>  <SCORE.SYSTEM.DIHEDRAL>
0

>  <SCORE.SYSTEM.SOLV>
0

>  <SCORE.SYSTEM.norm>
0

>  <SCORE.heavy>
23

>  <SCORE.norm>
-1.51039

>  <RMSD>
7.593

$$$$

 OpenBabel11021811403D
libRbt.so/2013.1/901 2013/11/27
 23 25  0  0  0  0  0  0  0  0999 V2000
  -25.5925    8.3545    9.6057 S   0  0  0  0  0  0  0  0  0  0  0  0
  -22.8902    7.1851   10.0518 N   0  0  0  0  0  0  0  0  0  0  0  0
  -22.1490    7.2766    7.7591 C   0  0  0  0  0  0  0  0  0  0  0  0
  -22.4137    7.6194    6.4266 C   0  0  0  0  0  0  0  0  0  0  0  0
  -23.6361    8.1860    6.0783 C   0  0  0  0  0  0  0  0  0  0  0  0
  -24.6006    8.4088    7.0550 C   0  0  0  0  0  0  0  0  0  0  0  0
  -24.3494    8.0696    8.3820 C   0  0  0  0  0  0  0  0  0  0  0  0
  -23.1218    7.5016    8.7432 C   0  0  0  0  0  0  0  0  0  0  0  0
  -25.2263    6.8282   10.4126 C   0  0  0  0  0  0  0  0  0  0  0  0
  -26.2615    6.0379   10.9205 C   0  0  0  0  0  0  0  0  0  0  0  0
  -25.9669    4.8321   11.5633 C   0  0  0  0  0  0  0  0  0  0  0  0
  -24.6365    4.4225   11.6997 C   0  0  0  0  0  0  0  0  0  0  0  0
  -23.6080    5.2165   11.1910 C   0  0  0  0  0  0  0  0  0  0  0  0
  -23.8969    6.4123   10.5482 C   0  0  0  0  0  0  0  0  0  0  0  0
  -21.5034    6.9668   10.5326 C   0  0  0  0  0  0  0  0  0  0  0  0
  -21.1601    7.4710   11.9741 C   0  0  0  0  0  0  0  0  0  0  0  0
  -19.6369    7.3653   12.3261 C   0  0  0  0  0  0  0  0  0  0  0  0
  -19.1923    7.9095   13.6345 N   0  3  0  0  0  0  0  0  0  0  0  0
  -19.2774    9.3925   13.6639 C   0  0  0  0  0  0  0  0  0  0  0  0
  -17.8071    7.4263   13.9658 C   0  0  0  0  0  0  0  0  0  0  0  0
  -21.3825    7.3749    5.3620 C   0  0  0  0  0  0  0  0  0  0  0  0
  -21.4450    8.0582    4.0175 C   0  0  0  0  0  0  0  0  0  0  0  0
  -20.4309    6.6500    5.6052 O   0  0  0  0  0  0  0  0  0  0  0  0
  1  7  1  0  0  0  0
  1  9  1  0  0  0  0
  2  8  1  0  0  0  0
  2 14  1  0  0  0  0
  2 15  1  0  0  0  0
  3  4  2  0  0  0  0
  3  8  1  0  0  0  0
  4  5  1  0  0  0  0
  4 21  1  0  0  0  0
  5  6  2  0  0  0  0
  6  7  1  0  0  0  0
  7  8  2  0  0  0  0
  9 10  2  0  0  0  0
  9 14  1  0  0  0  0
 10 11  1  0  0  0  0
 11 12  2  0  0  0  0
 12 13  1  0  0  0  0
 13 14  2  0  0  0  0
 15 16  1  0  0  0  0
 16 17  1  0  0  0  0
 17 18  1  0  0  0  0
 18 19  1  0  0  0  0
 18 20  1  0  0  0  0
 21 22  1  0  0  0  0
 21 23  2  0  0  0  0
M  CHG  1  18   1
M  END
>  <CHROM.1>
143.12777125,-162.50215363,-172.60756495,175.67045111,50.45834894,-22.66271701
7.25898935,9.68064253,2.04434898,-0.21850884,-1.44505005

>  <Name>


>  <RI>
0

>  <Rbt.Current_Directory>
/home/itssahil/PROJECTS/Mol_Feturizer/New_Systems/rnas/1lvj

>  <Rbt.Executable>
rbdock ($Id: //depot/dev/client3/rdock/2013.1/src/exe/rbdock.cxx#4 $)

>  <Rbt.Library>
libRbt.so (2013.1, Build901 2013/11/27)

>  <Rbt.Parameter_File>
/export/apps/rDock/src/rDock_2013.1_src/data/scripts/dock_solv.prm

>  <Rbt.Receptor>
prm/pocket_docking_7.prm

>  <SCORE>
-34.6827

>  <SCORE.INTER>
-29.6349

>  <SCORE.INTER.CONST>
1

>  <SCORE.INTER.POLAR>
0

>  <SCORE.INTER.ROT>
5

>  <SCORE.INTER.SOLV>
10.3321

>  <SCORE.INTER.VDW>
-30.134

>  <SCORE.INTER.norm>
-1.28847

>  <SCORE.INTRA>
-5.04776

>  <SCORE.INTRA.DIHEDRAL>
-5.5441

>  <SCORE.INTRA.DIHEDRAL.0>
8.06479

>  <SCORE.INTRA.POLAR>
0

>  <SCORE.INTRA.POLAR.0>
0

>  <SCORE.INTRA.REPUL>
0

>  <SCORE.INTRA.REPUL.0>
0

>  <SCORE.INTRA.SOLV>
0.336728

>  <SCORE.INTRA.SOLV.lig_0>
-29.8054

>  <SCORE.INTRA.VDW>
-2.44407

>  <SCORE.INTRA.VDW.0>
2.61447

>  <SCORE.INTRA.norm>
-0.219468

>  <SCORE.RESTR>
0

>  <SCORE.RESTR.CAVITY>
0

>  <SCORE.RESTR.norm>
0

>  <SCORE.SYSTEM>
0

>  <SCORE.SYSTEM.CONST>
0

>  <SCORE.SYSTEM.DIHEDRAL>
0

>  <SCORE.SYSTEM.SOLV>
0

>  <SCORE.SYSTEM.norm>
0

>  <SCORE.heavy>
23

>  <SCORE.norm>
-1.50794

>  <RMSD>
7.601

$$$$

 OpenBabel11021811403D
libRbt.so/2013.1/901 2013/11/27
 23 25  0  0  0  0  0  0  0  0999 V2000
  -25.5598    8.3431    9.5851 S   0  0  0  0  0  0  0  0  0  0  0  0
  -22.8531    7.1896   10.0454 N   0  0  0  0  0  0  0  0  0  0  0  0
  -22.1155    7.2473    7.7505 C   0  0  0  0  0  0  0  0  0  0  0  0
  -22.3833    7.5683    6.4132 C   0  0  0  0  0  0  0  0  0  0  0  0
  -23.6080    8.1253    6.0578 C   0  0  0  0  0  0  0  0  0  0  0  0
  -24.5719    8.3603    7.0323 C   0  0  0  0  0  0  0  0  0  0  0  0
  -24.3176    8.0429    8.3641 C   0  0  0  0  0  0  0  0  0  0  0  0
  -23.0877    7.4847    8.7324 C   0  0  0  0  0  0  0  0  0  0  0  0
  -25.1875    6.8308   10.4153 C   0  0  0  0  0  0  0  0  0  0  0  0
  -26.2194    6.0453   10.9372 C   0  0  0  0  0  0  0  0  0  0  0  0
  -25.9199    4.8508   11.5984 C   0  0  0  0  0  0  0  0  0  0  0  0
  -24.5880    4.4477   11.7392 C   0  0  0  0  0  0  0  0  0  0  0  0
  -23.5628    5.2369   11.2166 C   0  0  0  0  0  0  0  0  0  0  0  0
  -23.8565    6.4215   10.5555 C   0  0  0  0  0  0  0  0  0  0  0  0
  -21.4649    6.9833   10.5276 C   0  0  0  0  0  0  0  0  0  0  0  0
  -21.1501    7.4100   12.0002 C   0  0  0  0  0  0  0  0  0  0  0  0
  -19.6332    7.2894   12.3743 C   0  0  0  0  0  0  0  0  0  0  0  0
  -19.2160    7.7562   13.7211 N   0  3  0  0  0  0  0  0  0  0  0  0
  -19.3382    9.2315   13.8474 C   0  0  0  0  0  0  0  0  0  0  0  0
  -17.8229    7.2855   14.0366 C   0  0  0  0  0  0  0  0  0  0  0  0
  -21.3529    7.3103    5.3510 C   0  0  0  0  0  0  0  0  0  0  0  0
  -21.4135    7.9805    3.9998 C   0  0  0  0  0  0  0  0  0  0  0  0
  -20.4033    6.5851    5.6013 O   0  0  0  0  0  0  0  0  0  0  0  0
  1  7  1  0  0  0  0
  1  9  1  0  0  0  0
  2  8  1  0  0  0  0
  2 14  1  0  0  0  0
  2 15  1  0  0  0  0
  3  4  2  0  0  0  0
  3  8  1  0  0  0  0
  4  5  1  0  0  0  0
  4 21  1  0  0  0  0
  5  6  2  0  0  0  0
  6  7  1  0  0  0  0
  7  8  2  0  0  0  0
  9 10  2  0  0  0  0
  9 14  1  0  0  0  0
 10 11  1  0  0  0  0
 11 12  2  0  0  0  0
 12 13  1  0  0  0  0
 13 14  2  0  0  0  0
 15 16  1  0  0  0  0
 16 17  1  0  0  0  0
 17 18  1  0  0  0  0
 18 19  1  0  0  0  0
 18 20  1  0  0  0  0
 21 22  1  0  0  0  0
 21 23  2  0  0  0  0
M  CHG  1  18   1
M  END
>  <CHROM.1>
147.76123997,-162.00776912,-174.23192959,176.01823037,51.73404462,-22.63912477
7.21701817,9.69685731,2.01210940,-0.19533996,-1.44984970

>  <Name>


>  <RI>
0

>  <Rbt.Current_Directory>
/home/itssahil/PROJECTS/Mol_Feturizer/New_Systems/rnas/1lvj

>  <Rbt.Executable>
rbdock ($Id: //depot/dev/client3/rdock/2013.1/src/exe/rbdock.cxx#4 $)

>  <Rbt.Library>
libRbt.so (2013.1, Build901 2013/11/27)

>  <Rbt.Parameter_File>
/export/apps/rDock/src/rDock_2013.1_src/data/scripts/dock_solv.prm

>  <Rbt.Receptor>
prm/pocket_docking_7.prm

>  <SCORE>
-34.7243

>  <SCORE.INTER>
-29.5946

>  <SCORE.INTER.CONST>
1

>  <SCORE.INTER.POLAR>
0

>  <SCORE.INTER.ROT>
5

>  <SCORE.INTER.SOLV>
10.1752

>  <SCORE.INTER.VDW>
-30.0548

>  <SCORE.INTER.norm>
-1.28672

>  <SCORE.INTRA>
-5.12972

>  <SCORE.INTRA.DIHEDRAL>
-5.86223

>  <SCORE.INTRA.DIHEDRAL.0>
8.06479

>  <SCORE.INTRA.POLAR>
0

>  <SCORE.INTRA.POLAR.0>
0

>  <SCORE.INTRA.REPUL>
0

>  <SCORE.INTRA.REPUL.0>
0

>  <SCORE.INTRA.SOLV>
0.322435

>  <SCORE.INTRA.SOLV.lig_0>
-29.8054

>  <SCORE.INTRA.VDW>
-2.35983

>  <SCORE.INTRA.VDW.0>
2.61447

>  <SCORE.INTRA.norm>
-0.223031

>  <SCORE.RESTR>
0

>  <SCORE.RESTR.CAVITY>
0

>  <SCORE.RESTR.norm>
0

>  <SCORE.SYSTEM>
0

>  <SCORE.SYSTEM.CONST>
0

>  <SCORE.SYSTEM.DIHEDRAL>
0

>  <SCORE.SYSTEM.SOLV>
0

>  <SCORE.SYSTEM.norm>
0

>  <SCORE.heavy>
23

>  <SCORE.norm>
-1.50975

>  <RMSD>
7.608

$$$$

 OpenBabel11021811403D
libRbt.so/2013.1/901 2013/11/27
 23 25  0  0  0  0  0  0  0  0999 V2000
  -25.7373    8.1262   10.2389 S   0  0  0  0  0  0  0  0  0  0  0  0
  -22.9246    7.1479   10.2704 N   0  0  0  0  0  0  0  0  0  0  0  0
  -22.4742    7.4747    7.9242 C   0  0  0  0  0  0  0  0  0  0  0  0
  -22.9216    7.8964    6.6652 C   0  0  0  0  0  0  0  0  0  0  0  0
  -24.2143    8.3875    6.5092 C   0  0  0  0  0  0  0  0  0  0  0  0
  -25.0672    8.4560    7.6054 C   0  0  0  0  0  0  0  0  0  0  0  0
  -24.6341    8.0373    8.8609 C   0  0  0  0  0  0  0  0  0  0  0  0
  -23.3346    7.5443    9.0290 C   0  0  0  0  0  0  0  0  0  0  0  0
  -25.1687    6.5769   10.8645 C   0  0  0  0  0  0  0  0  0  0  0  0
  -26.0762    5.6690   11.4181 C   0  0  0  0  0  0  0  0  0  0  0  0
  -25.6211    4.4452   11.9170 C   0  0  0  0  0  0  0  0  0  0  0  0
  -24.2582    4.1350   11.8644 C   0  0  0  0  0  0  0  0  0  0  0  0
  -23.3578    5.0461   11.3113 C   0  0  0  0  0  0  0  0  0  0  0  0
  -23.8065    6.2606   10.8108 C   0  0  0  0  0  0  0  0  0  0  0  0
  -21.4779    7.0060   10.5686 C   0  0  0  0  0  0  0  0  0  0  0  0
  -21.0324    7.2087   12.0554 C   0  0  0  0  0  0  0  0  0  0  0  0
  -19.4898    7.0412   12.2731 C   0  0  0  0  0  0  0  0  0  0  0  0
  -18.9647    7.2190   13.6510 N   0  3  0  0  0  0  0  0  0  0  0  0
  -17.4878    7.3815   13.6534 C   0  0  0  0  0  0  0  0  0  0  0  0
  -19.3994    6.0818   14.5341 C   0  0  0  0  0  0  0  0  0  0  0  0
  -22.0118    7.8183    5.4724 C   0  0  0  0  0  0  0  0  0  0  0  0
  -20.8888    6.8131    5.3888 C   0  0  0  0  0  0  0  0  0  0  0  0
  -22.2176    8.5454    4.5137 O   0  0  0  0  0  0  0  0  0  0  0  0
  1  7  1  0  0  0  0
  1  9  1  0  0  0  0
  2  8  1  0  0  0  0
  2 14  1  0  0  0  0
  2 15  1  0  0  0  0
  3  4  2  0  0  0  0
  3  8  1  0  0  0  0
  4  5  1  0  0  0  0
  4 21  1  0  0  0  0
  5  6  2  0  0  0  0
  6  7  1  0  0  0  0
  7  8  2  0  0  0  0
  9 10  2  0  0  0  0
  9 14  1  0  0  0  0
 10 11  1  0  0  0  0
 11 12  2  0  0  0  0
 12 13  1  0  0  0  0
 13 14  2  0  0  0  0
 15 16  1  0  0  0  0
 16 17  1  0  0  0  0
 17 18  1  0  0  0  0
 18 19  1  0  0  0  0
 18 20  1  0  0  0  0
 21 22  1  0  0  0  0
 21 23  2  0  0  0  0
M  CHG  1  18   1
M  END
>  <CHROM.1>
152.39078271,26.58713997,-179.93997989,179.79348286,-45.31167383,-22.77012786
7.04652090,9.94755267,2.06836587,-0.14306124,-1.28707424

>  <Name>


>  <RI>
0

>  <Rbt.Current_Directory>
/home/itssahil/PROJECTS/Mol_Feturizer/New_Systems/rnas/1lvj

>  <Rbt.Executable>
rbdock ($Id: //depot/dev/client3/rdock/2013.1/src/exe/rbdock.cxx#4 $)

>  <Rbt.Library>
libRbt.so (2013.1, Build901 2013/11/27)

>  <Rbt.Parameter_File>
/export/apps/rDock/src/rDock_2013.1_src/data/scripts/dock_solv.prm

>  <Rbt.Receptor>
prm/pocket_docking_7.prm

>  <SCORE>
-35.0705

>  <SCORE.INTER>
-30.2902

>  <SCORE.INTER.CONST>
1

>  <SCORE.INTER.POLAR>
-0.603054

>  <SCORE.INTER.ROT>
5

>  <SCORE.INTER.SOLV>
9.54891

>  <SCORE.INTER.VDW>
-28.2996

>  <SCORE.INTER.norm>
-1.31696

>  <SCORE.INTRA>
-4.78029

>  <SCORE.INTRA.DIHEDRAL>
-4.8107

>  <SCORE.INTRA.DIHEDRAL.0>
8.06479

>  <SCORE.INTRA.POLAR>
0

>  <SCORE.INTRA.POLAR.0>
0

>  <SCORE.INTRA.REPUL>
0

>  <SCORE.INTRA.REPUL.0>
0

>  <SCORE.INTRA.SOLV>
0.425785

>  <SCORE.INTRA.SOLV.lig_0>
-29.8054

>  <SCORE.INTRA.VDW>
-2.58783

>  <SCORE.INTRA.VDW.0>
2.61447

>  <SCORE.INTRA.norm>
-0.207839

>  <SCORE.RESTR>
0

>  <SCORE.RESTR.CAVITY>
0

>  <SCORE.RESTR.norm>
0

>  <SCORE.SYSTEM>
0

>  <SCORE.SYSTEM.CONST>
0

>  <SCORE.SYSTEM.DIHEDRAL>
0

>  <SCORE.SYSTEM.SOLV>
0

>  <SCORE.SYSTEM.norm>
0

>  <SCORE.heavy>
23

>  <SCORE.norm>
-1.5248

>  <RMSD>
7.663

$$$$

 OpenBabel11021811403D
libRbt.so/2013.1/901 2013/11/27
 23 25  0  0  0  0  0  0  0  0999 V2000
  -25.6977    8.1437   10.1072 S   0  0  0  0  0  0  0  0  0  0  0  0
  -22.8651    7.2265   10.1726 N   0  0  0  0  0  0  0  0  0  0  0  0
  -22.4093    7.5142    7.8223 C   0  0  0  0  0  0  0  0  0  0  0  0
  -22.8590    7.9000    6.5527 C   0  0  0  0  0  0  0  0  0  0  0  0
  -24.1610    8.3601    6.3802 C   0  0  0  0  0  0  0  0  0  0  0  0
  -25.0209    8.4331    7.4706 C   0  0  0  0  0  0  0  0  0  0  0  0
  -24.5856    8.0499    8.7367 C   0  0  0  0  0  0  0  0  0  0  0  0
  -23.2768    7.5883    8.9213 C   0  0  0  0  0  0  0  0  0  0  0  0
  -25.0996    6.6202   10.7677 C   0  0  0  0  0  0  0  0  0  0  0  0
  -25.9905    5.7048   11.3356 C   0  0  0  0  0  0  0  0  0  0  0  0
  -25.5121    4.5016   11.8622 C   0  0  0  0  0  0  0  0  0  0  0  0
  -24.1428    4.2196   11.8226 C   0  0  0  0  0  0  0  0  0  0  0  0
  -23.2589    5.1380   11.2550 C   0  0  0  0  0  0  0  0  0  0  0  0
  -23.7307    6.3320   10.7271 C   0  0  0  0  0  0  0  0  0  0  0  0
  -21.4172    7.1218   10.4807 C   0  0  0  0  0  0  0  0  0  0  0  0
  -20.9885    7.3247   11.9723 C   0  0  0  0  0  0  0  0  0  0  0  0
  -19.4368    7.2859   12.1865 C   0  0  0  0  0  0  0  0  0  0  0  0
  -18.9212    7.5790   13.5482 N   0  3  0  0  0  0  0  0  0  0  0  0
  -19.0985    9.0116   13.9001 C   0  0  0  0  0  0  0  0  0  0  0  0
  -17.4852    7.1501   13.6744 C   0  0  0  0  0  0  0  0  0  0  0  0
  -21.9415    7.8167    5.3662 C   0  0  0  0  0  0  0  0  0  0  0  0
  -20.8270    6.8016    5.2880 C   0  0  0  0  0  0  0  0  0  0  0  0
  -22.1339    8.5480    4.4078 O   0  0  0  0  0  0  0  0  0  0  0  0
  1  7  1  0  0  0  0
  1  9  1  0  0  0  0
  2  8  1  0  0  0  0
  2 14  1  0  0  0  0
  2 15  1  0  0  0  0
  3  4  2  0  0  0  0
  3  8  1  0  0  0  0
  4  5  1  0  0  0  0
  4 21  1  0  0  0  0
  5  6  2  0  0  0  0
  6  7  1  0  0  0  0
  7  8  2  0  0  0  0
  9 10  2  0  0  0  0
  9 14  1  0  0  0  0
 10 11  1  0  0  0  0
 11 12  2  0  0  0  0
 12 13  1  0  0  0  0
 13 14  2  0  0  0  0
 15 16  1  0  0  0  0
 16 17  1  0  0  0  0
 17 18  1  0  0  0  0
 18 19  1  0  0  0  0
 18 20  1  0  0  0  0
 21 22  1  0  0  0  0
 21 23  2  0  0  0  0
M  CHG  1  18   1
M  END
>  <CHROM.1>
154.07428914,28.78092700,-176.36285511,175.10976425,49.79684595,-22.69748807
7.22436423,9.83054394,2.11940216,-0.22090510,-1.34259522

>  <Name>


>  <RI>
0

>  <Rbt.Current_Directory>
/home/itssahil/PROJECTS/Mol_Feturizer/New_Systems/rnas/1lvj

>  <Rbt.Executable>
rbdock ($Id: //depot/dev/client3/rdock/2013.1/src/exe/rbdock.cxx#4 $)

>  <Rbt.Library>
libRbt.so (2013.1, Build901 2013/11/27)

>  <Rbt.Parameter_File>
/export/apps/rDock/src/rDock_2013.1_src/data/scripts/dock_solv.prm

>  <Rbt.Receptor>
prm/pocket_docking_7.prm

>  <SCORE>
-35.4196

>  <SCORE.INTER>
-30.7727

>  <SCORE.INTER.CONST>
1

>  <SCORE.INTER.POLAR>
-0.635917

>  <SCORE.INTER.ROT>
5

>  <SCORE.INTER.SOLV>
9.71325

>  <SCORE.INTER.VDW>
-28.5665

>  <SCORE.INTER.norm>
-1.33795

>  <SCORE.INTRA>
-4.6468

>  <SCORE.INTRA.DIHEDRAL>
-4.4204

>  <SCORE.INTRA.DIHEDRAL.0>
8.06479

>  <SCORE.INTRA.POLAR>
0

>  <SCORE.INTRA.POLAR.0>
0

>  <SCORE.INTRA.REPUL>
0

>  <SCORE.INTRA.REPUL.0>
0

>  <SCORE.INTRA.SOLV>
0.349637

>  <SCORE.INTRA.SOLV.lig_0>
-29.8054

>  <SCORE.INTRA.VDW>
-2.61142

>  <SCORE.INTRA.VDW.0>
2.61447

>  <SCORE.INTRA.norm>
-0.202035

>  <SCORE.RESTR>
0

>  <SCORE.RESTR.CAVITY>
0

>  <SCORE.RESTR.norm>
0

>  <SCORE.SYSTEM>
0

>  <SCORE.SYSTEM.CONST>
0

>  <SCORE.SYSTEM.DIHEDRAL>
0

>  <SCORE.SYSTEM.SOLV>
0

>  <SCORE.SYSTEM.norm>
0

>  <SCORE.heavy>
23

>  <SCORE.norm>
-1.53998

>  <RMSD>
7.690

$$$$

 OpenBabel11021811403D
libRbt.so/2013.1/901 2013/11/27
 23 25  0  0  0  0  0  0  0  0999 V2000
  -25.7148    8.1366   10.2707 S   0  0  0  0  0  0  0  0  0  0  0  0
  -22.9113    7.1320   10.2708 N   0  0  0  0  0  0  0  0  0  0  0  0
  -22.4804    7.4648    7.9219 C   0  0  0  0  0  0  0  0  0  0  0  0
  -22.9360    7.8962    6.6691 C   0  0  0  0  0  0  0  0  0  0  0  0
  -24.2254    8.4000    6.5276 C   0  0  0  0  0  0  0  0  0  0  0  0
  -25.0671    8.4717    7.6323 C   0  0  0  0  0  0  0  0  0  0  0  0
  -24.6258    8.0435    8.8818 C   0  0  0  0  0  0  0  0  0  0  0  0
  -23.3294    7.5376    9.0352 C   0  0  0  0  0  0  0  0  0  0  0  0
  -25.1548    6.5794   10.8842 C   0  0  0  0  0  0  0  0  0  0  0  0
  -26.0653    5.6776   11.4426 C   0  0  0  0  0  0  0  0  0  0  0  0
  -25.6170    4.4474   11.9319 C   0  0  0  0  0  0  0  0  0  0  0  0
  -24.2577    4.1248   11.8648 C   0  0  0  0  0  0  0  0  0  0  0  0
  -23.3540    5.0299   11.3069 C   0  0  0  0  0  0  0  0  0  0  0  0
  -23.7962    6.2506   10.8160 C   0  0  0  0  0  0  0  0  0  0  0  0
  -21.4631    6.9753   10.5545 C   0  0  0  0  0  0  0  0  0  0  0  0
  -20.9204    7.6197   11.8736 C   0  0  0  0  0  0  0  0  0  0  0  0
  -19.3676    7.8291   11.8731 C   0  0  0  0  0  0  0  0  0  0  0  0
  -18.7886    8.6976   12.9297 N   0  3  0  0  0  0  0  0  0  0  0  0
  -19.1864   10.1172   12.7451 C   0  0  0  0  0  0  0  0  0  0  0  0
  -17.2936    8.5425   12.9824 C   0  0  0  0  0  0  0  0  0  0  0  0
  -22.0385    7.8149    5.4672 C   0  0  0  0  0  0  0  0  0  0  0  0
  -20.9051    6.8214    5.3824 C   0  0  0  0  0  0  0  0  0  0  0  0
  -22.2630    8.5287    4.5027 O   0  0  0  0  0  0  0  0  0  0  0  0
  1  7  1  0  0  0  0
  1  9  1  0  0  0  0
  2  8  1  0  0  0  0
  2 14  1  0  0  0  0
  2 15  1  0  0  0  0
  3  4  2  0  0  0  0
  3  8  1  0  0  0  0
  4  5  1  0  0  0  0
  4 21  1  0  0  0  0
  5  6  2  0  0  0  0
  6  7  1  0  0  0  0
  7  8  2  0  0  0  0
  9 10  2  0  0  0  0
  9 14  1  0  0  0  0
 10 11  1  0  0  0  0
 11 12  2  0  0  0  0
 12 13  1  0  0  0  0
 13 14  2  0  0  0  0
 15 16  1  0  0  0  0
 16 17  1  0  0  0  0
 17 18  1  0  0  0  0
 18 19  1  0  0  0  0
 18 20  1  0  0  0  0
 21 22  1  0  0  0  0
 21 23  2  0  0  0  0
M  CHG  1  18   1
M  END
>  <CHROM.1>
132.21775064,25.10605014,-160.87927480,166.67374466,51.87607003,-22.73267142
7.39904968,9.78478925,2.37439964,-0.35462808,-1.36389286

>  <Name>


>  <RI>
0

>  <Rbt.Current_Directory>
/home/itssahil/PROJECTS/Mol_Feturizer/New_Systems/rnas/1lvj

>  <Rbt.Executable>
rbdock ($Id: //depot/dev/client3/rdock/2013.1/src/exe/rbdock.cxx#4 $)

>  <Rbt.Library>
libRbt.so (2013.1, Build901 2013/11/27)

>  <Rbt.Parameter_File>
/export/apps/rDock/src/rDock_2013.1_src/data/scripts/dock_solv.prm

>  <Rbt.Receptor>
prm/pocket_docking_8.prm

>  <SCORE>
-35.8394

>  <SCORE.INTER>
-32.1208

>  <SCORE.INTER.CONST>
1

>  <SCORE.INTER.POLAR>
-0.586291

>  <SCORE.INTER.ROT>
5

>  <SCORE.INTER.SOLV>
10.0438

>  <SCORE.INTER.VDW>
-29.7408

>  <SCORE.INTER.norm>
-1.39656

>  <SCORE.INTRA>
-3.71865

>  <SCORE.INTRA.DIHEDRAL>
-2.33846

>  <SCORE.INTRA.DIHEDRAL.0>
8.06479

>  <SCORE.INTRA.POLAR>
0

>  <SCORE.INTRA.POLAR.0>
0

>  <SCORE.INTRA.REPUL>
0

>  <SCORE.INTRA.REPUL.0>
0

>  <SCORE.INTRA.SOLV>
0.29594

>  <SCORE.INTRA.SOLV.lig_0>
-29.8054

>  <SCORE.INTRA.VDW>
-2.6974

>  <SCORE.INTRA.VDW.0>
2.61447

>  <SCORE.INTRA.norm>
-0.161681

>  <SCORE.RESTR>
0

>  <SCORE.RESTR.CAVITY>
0

>  <SCORE.RESTR.norm>
0

>  <SCORE.SYSTEM>
0

>  <SCORE.SYSTEM.CONST>
0

>  <SCORE.SYSTEM.DIHEDRAL>
0

>  <SCORE.SYSTEM.SOLV>
0

>  <SCORE.SYSTEM.norm>
0

>  <SCORE.heavy>
23

>  <SCORE.norm>
-1.55824

>  <RMSD>
7.693

$$$$

 OpenBabel11021811403D
libRbt.so/2013.1/901 2013/11/27
 23 25  0  0  0  0  0  0  0  0999 V2000
  -21.5388    5.3023    0.5952 S   0  0  0  0  0  0  0  0  0  0  0  0
  -21.1088    7.2244    2.8290 N   0  0  0  0  0  0  0  0  0  0  0  0
  -21.5185    9.2375    1.5667 C   0  0  0  0  0  0  0  0  0  0  0  0
  -21.8502    9.8403    0.3461 C   0  0  0  0  0  0  0  0  0  0  0  0
  -22.0888    9.0581   -0.7798 C   0  0  0  0  0  0  0  0  0  0  0  0
  -21.9934    7.6733   -0.6952 C   0  0  0  0  0  0  0  0  0  0  0  0
  -21.6619    7.0636    0.5121 C   0  0  0  0  0  0  0  0  0  0  0  0
  -21.4227    7.8414    1.6513 C   0  0  0  0  0  0  0  0  0  0  0  0
  -20.1236    5.3957    1.6457 C   0  0  0  0  0  0  0  0  0  0  0  0
  -19.0598    4.5060    1.4693 C   0  0  0  0  0  0  0  0  0  0  0  0
  -17.9431    4.5801    2.3067 C   0  0  0  0  0  0  0  0  0  0  0  0
  -17.8958    5.5417    3.3212 C   0  0  0  0  0  0  0  0  0  0  0  0
  -18.9614    6.4261    3.4923 C   0  0  0  0  0  0  0  0  0  0  0  0
  -20.0702    6.3586    2.6599 C   0  0  0  0  0  0  0  0  0  0  0  0
  -21.2420    7.9557    4.1134 C   0  0  0  0  0  0  0  0  0  0  0  0
  -22.2705    7.3942    5.1511 C   0  0  0  0  0  0  0  0  0  0  0  0
  -22.0729    7.9645    6.5971 C   0  0  0  0  0  0  0  0  0  0  0  0
  -22.9053    7.3899    7.6846 N   0  3  0  0  0  0  0  0  0  0  0  0
  -24.1987    8.1090    7.8172 C   0  0  0  0  0  0  0  0  0  0  0  0
  -22.1440    7.3731    8.9816 C   0  0  0  0  0  0  0  0  0  0  0  0
  -21.9472   11.3356    0.2411 C   0  0  0  0  0  0  0  0  0  0  0  0
  -22.1068   12.2133    1.4588 C   0  0  0  0  0  0  0  0  0  0  0  0
  -21.8345   11.8678   -0.8518 O   0  0  0  0  0  0  0  0  0  0  0  0
  1  7  1  0  0  0  0
  1  9  1  0  0  0  0
  2  8  1  0  0  0  0
  2 14  1  0  0  0  0
  2 15  1  0  0  0  0
  3  4  2  0  0  0  0
  3  8  1  0  0  0  0
  4  5  1  0  0  0  0
  4 21  1  0  0  0  0
  5  6  2  0  0  0  0
  6  7  1  0  0  0  0
  7  8  2  0  0  0  0
  9 10  2  0  0  0  0
  9 14  1  0  0  0  0
 10 11  1  0  0  0  0
 11 12  2  0  0  0  0
 12 13  1  0  0  0  0
 13 14  2  0  0  0  0
 15 16  1  0  0  0  0
 16 17  1  0  0  0  0
 17 18  1  0  0  0  0
 18 19  1  0  0  0  0
 18 20  1  0  0  0  0
 21 22  1  0  0  0  0
 21 23  2  0  0  0  0
M  CHG  1  18   1
M  END
>  <CHROM.1>
117.33783124,-18.55685686,164.10655330,-173.76963921,31.44301701,-21.28681112
7.63808493,2.69055033,-1.37276887,-1.03511048,1.96753117

>  <Name>


>  <RI>
0

>  <Rbt.Current_Directory>
/home/itssahil/PROJECTS/Mol_Feturizer/New_Systems/rnas/1lvj

>  <Rbt.Executable>
rbdock ($Id: //depot/dev/client3/rdock/2013.1/src/exe/rbdock.cxx#4 $)

>  <Rbt.Library>
libRbt.so (2013.1, Build901 2013/11/27)

>  <Rbt.Parameter_File>
/export/apps/rDock/src/rDock_2013.1_src/data/scripts/dock_solv.prm

>  <Rbt.Receptor>
prm/pocket_docking_8.prm

>  <SCORE>
-31.475

>  <SCORE.INTER>
-27.998

>  <SCORE.INTER.CONST>
1

>  <SCORE.INTER.POLAR>
-1.38743

>  <SCORE.INTER.ROT>
5

>  <SCORE.INTER.SOLV>
14.3589

>  <SCORE.INTER.VDW>
-25.7602

>  <SCORE.INTER.norm>
-1.21731

>  <SCORE.INTRA>
-3.47694

>  <SCORE.INTRA.DIHEDRAL>
-1.58811

>  <SCORE.INTRA.DIHEDRAL.0>
8.06479

>  <SCORE.INTRA.POLAR>
0

>  <SCORE.INTRA.POLAR.0>
0

>  <SCORE.INTRA.REPUL>
0

>  <SCORE.INTRA.REPUL.0>
0

>  <SCORE.INTRA.SOLV>
0.59307

>  <SCORE.INTRA.SOLV.lig_0>
-29.8054

>  <SCORE.INTRA.VDW>
-2.97942

>  <SCORE.INTRA.VDW.0>
2.61447

>  <SCORE.INTRA.norm>
-0.151171

>  <SCORE.RESTR>
0

>  <SCORE.RESTR.CAVITY>
0

>  <SCORE.RESTR.norm>
0

>  <SCORE.SYSTEM>
0

>  <SCORE.SYSTEM.CONST>
0

>  <SCORE.SYSTEM.DIHEDRAL>
0

>  <SCORE.SYSTEM.SOLV>
0

>  <SCORE.SYSTEM.norm>
0

>  <SCORE.heavy>
23

>  <SCORE.norm>
-1.36848

>  <RMSD>
7.945

$$$$

 OpenBabel11021811403D
libRbt.so/2013.1/901 2013/11/27
 23 25  0  0  0  0  0  0  0  0999 V2000
  -12.9566   21.9591    1.1401 S   0  0  0  0  0  0  0  0  0  0  0  0
  -15.2123   22.9178    2.8319 N   0  0  0  0  0  0  0  0  0  0  0  0
  -15.6151   24.9772    1.6441 C   0  0  0  0  0  0  0  0  0  0  0  0
  -15.2815   25.8379    0.5900 C   0  0  0  0  0  0  0  0  0  0  0  0
  -14.2519   25.5071   -0.2858 C   0  0  0  0  0  0  0  0  0  0  0  0
  -13.5480   24.3204   -0.1121 C   0  0  0  0  0  0  0  0  0  0  0  0
  -13.8692   23.4586    0.9335 C   0  0  0  0  0  0  0  0  0  0  0  0
  -14.9052   23.7808    1.8184 C   0  0  0  0  0  0  0  0  0  0  0  0
  -12.9532   22.1383    2.8959 C   0  0  0  0  0  0  0  0  0  0  0  0
  -11.8098   21.8130    3.6314 C   0  0  0  0  0  0  0  0  0  0  0  0
  -11.8129   21.9515    5.0223 C   0  0  0  0  0  0  0  0  0  0  0  0
  -12.9620   22.4114    5.6738 C   0  0  0  0  0  0  0  0  0  0  0  0
  -14.1001   22.7335    4.9337 C   0  0  0  0  0  0  0  0  0  0  0  0
  -14.0994   22.6015    3.5519 C   0  0  0  0  0  0  0  0  0  0  0  0
  -16.5211   23.0154    3.5244 C   0  0  0  0  0  0  0  0  0  0  0  0
  -17.7949   23.1584    2.6262 C   0  0  0  0  0  0  0  0  0  0  0  0
  -19.1373   23.0917    3.4317 C   0  0  0  0  0  0  0  0  0  0  0  0
  -19.8214   24.3737    3.7390 N   0  3  0  0  0  0  0  0  0  0  0  0
  -20.8545   24.1998    4.7925 C   0  0  0  0  0  0  0  0  0  0  0  0
  -20.3993   24.9784    2.4891 C   0  0  0  0  0  0  0  0  0  0  0  0
  -16.0291   27.1266    0.3984 C   0  0  0  0  0  0  0  0  0  0  0  0
  -17.5191   27.2261    0.6192 C   0  0  0  0  0  0  0  0  0  0  0  0
  -15.4117   28.1406    0.1142 O   0  0  0  0  0  0  0  0  0  0  0  0
  1  7  1  0  0  0  0
  1  9  1  0  0  0  0
  2  8  1  0  0  0  0
  2 14  1  0  0  0  0
  2 15  1  0  0  0  0
  3  4  2  0  0  0  0
  3  8  1  0  0  0  0
  4  5  1  0  0  0  0
  4 21  1  0  0  0  0
  5  6  2  0  0  0  0
  6  7  1  0  0  0  0
  7  8  2  0  0  0  0
  9 10  2  0  0  0  0
  9 14  1  0  0  0  0
 10 11  1  0  0  0  0
 11 12  2  0  0  0  0
 12 13  1  0  0  0  0
 13 14  2  0  0  0  0
 15 16  1  0  0  0  0
 16 17  1  0  0  0  0
 17 18  1  0  0  0  0
 18 19  1  0  0  0  0
 18 20  1  0  0  0  0
 21 22  1  0  0  0  0
 21 23  2  0  0  0  0
M  CHG  1  18   1
M  END
>  <CHROM.1>
46.46493093,-38.73650150,173.48534883,100.64392090,-44.79570385,-15.50423598
23.92471388,2.37297095,-0.33147607,0.28356283,-0.82466476

>  <Name>


>  <RI>
0

>  <Rbt.Current_Directory>
/home/itssahil/PROJECTS/Mol_Feturizer/New_Systems/rnas/1lvj

>  <Rbt.Executable>
rbdock ($Id: //depot/dev/client3/rdock/2013.1/src/exe/rbdock.cxx#4 $)

>  <Rbt.Library>
libRbt.so (2013.1, Build901 2013/11/27)

>  <Rbt.Parameter_File>
/export/apps/rDock/src/rDock_2013.1_src/data/scripts/dock_solv.prm

>  <Rbt.Receptor>
prm/blind_docking_100.prm

>  <SCORE>
-30.03

>  <SCORE.INTER>
-31.2697

>  <SCORE.INTER.CONST>
1

>  <SCORE.INTER.POLAR>
0

>  <SCORE.INTER.ROT>
5

>  <SCORE.INTER.SOLV>
12.0409

>  <SCORE.INTER.VDW>
-31.7935

>  <SCORE.INTER.norm>
-1.35955

>  <SCORE.INTRA>
-0.890516

>  <SCORE.INTRA.DIHEDRAL>
2.33681

>  <SCORE.INTRA.DIHEDRAL.0>
8.06479

>  <SCORE.INTRA.POLAR>
0

>  <SCORE.INTRA.POLAR.0>
0

>  <SCORE.INTRA.REPUL>
0

>  <SCORE.INTRA.REPUL.0>
0

>  <SCORE.INTRA.SOLV>
1.33837

>  <SCORE.INTRA.SOLV.lig_0>
-29.8054

>  <SCORE.INTRA.VDW>
-2.72811

>  <SCORE.INTRA.VDW.0>
2.61447

>  <SCORE.INTRA.norm>
-0.0387181

>  <SCORE.RESTR>
2.13025

>  <SCORE.RESTR.CAVITY>
2.13025

>  <SCORE.RESTR.norm>
0.0926197

>  <SCORE.SYSTEM>
0

>  <SCORE.SYSTEM.CONST>
0

>  <SCORE.SYSTEM.DIHEDRAL>
0

>  <SCORE.SYSTEM.SOLV>
0

>  <SCORE.SYSTEM.norm>
0

>  <SCORE.heavy>
23

>  <SCORE.norm>
-1.30565

>  <RMSD>
20.667

$$$$

 OpenBabel11021811403D
libRbt.so/2013.1/901 2013/11/27
 23 25  0  0  0  0  0  0  0  0999 V2000
  -13.6013   22.7235    0.8648 S   0  0  0  0  0  0  0  0  0  0  0  0
  -15.8135   23.1744    2.8069 N   0  0  0  0  0  0  0  0  0  0  0  0
  -16.4612   25.3568    2.0122 C   0  0  0  0  0  0  0  0  0  0  0  0
  -16.2690   26.4082    1.1063 C   0  0  0  0  0  0  0  0  0  0  0  0
  -15.2748   26.3246    0.1363 C   0  0  0  0  0  0  0  0  0  0  0  0
  -14.4656   25.1957    0.0680 C   0  0  0  0  0  0  0  0  0  0  0  0
  -14.6460   24.1457    0.9648 C   0  0  0  0  0  0  0  0  0  0  0  0
  -15.6452   24.2188    1.9427 C   0  0  0  0  0  0  0  0  0  0  0  0
  -13.4985   22.6070    2.6228 C   0  0  0  0  0  0  0  0  0  0  0  0
  -12.2867   22.2707    3.2333 C   0  0  0  0  0  0  0  0  0  0  0  0
  -12.2108   22.1745    4.6257 C   0  0  0  0  0  0  0  0  0  0  0  0
  -13.3491   22.4112    5.4033 C   0  0  0  0  0  0  0  0  0  0  0  0
  -14.5556   22.7458    4.7875 C   0  0  0  0  0  0  0  0  0  0  0  0
  -14.6339   22.8465    3.4053 C   0  0  0  0  0  0  0  0  0  0  0  0
  -17.0781   23.0338    3.5706 C   0  0  0  0  0  0  0  0  0  0  0  0
  -18.4149   23.2204    2.7782 C   0  0  0  0  0  0  0  0  0  0  0  0
  -19.6754   23.3439    3.7008 C   0  0  0  0  0  0  0  0  0  0  0  0
  -19.7325   24.4931    4.6399 N   0  3  0  0  0  0  0  0  0  0  0  0
  -20.9847   24.4803    5.4395 C   0  0  0  0  0  0  0  0  0  0  0  0
  -19.5598   25.7909    3.8997 C   0  0  0  0  0  0  0  0  0  0  0  0
  -17.1313   27.6363    1.1767 C   0  0  0  0  0  0  0  0  0  0  0  0
  -17.0034   28.7603    0.1773 C   0  0  0  0  0  0  0  0  0  0  0  0
  -18.0033   27.7078    2.0279 O   0  0  0  0  0  0  0  0  0  0  0  0
  1  7  1  0  0  0  0
  1  9  1  0  0  0  0
  2  8  1  0  0  0  0
  2 14  1  0  0  0  0
  2 15  1  0  0  0  0
  3  4  2  0  0  0  0
  3  8  1  0  0  0  0
  4  5  1  0  0  0  0
  4 21  1  0  0  0  0
  5  6  2  0  0  0  0
  6  7  1  0  0  0  0
  7  8  2  0  0  0  0
  9 10  2  0  0  0  0
  9 14  1  0  0  0  0
 10 11  1  0  0  0  0
 11 12  2  0  0  0  0
 12 13  1  0  0  0  0
 13 14  2  0  0  0  0
 15 16  1  0  0  0  0
 16 17  1  0  0  0  0
 17 18  1  0  0  0  0
 18 19  1  0  0  0  0
 18 20  1  0  0  0  0
 21 22  1  0  0  0  0
 21 23  2  0  0  0  0
M  CHG  1  18   1
M  END
>  <CHROM.1>
45.87455593,-176.86379352,-168.31746492,62.11503825,-60.33681326,-16.08347095
24.34451663,2.60310117,-0.32983822,0.39806352,-0.76384618

>  <Name>


>  <RI>
0

>  <Rbt.Current_Directory>
/home/itssahil/PROJECTS/Mol_Feturizer/New_Systems/rnas/1lvj

>  <Rbt.Executable>
rbdock ($Id: //depot/dev/client3/rdock/2013.1/src/exe/rbdock.cxx#4 $)

>  <Rbt.Library>
libRbt.so (2013.1, Build901 2013/11/27)

>  <Rbt.Parameter_File>
/export/apps/rDock/src/rDock_2013.1_src/data/scripts/dock_solv.prm

>  <Rbt.Receptor>
prm/blind_docking_60.prm

>  <SCORE>
-37.9108

>  <SCORE.INTER>
-33.9772

>  <SCORE.INTER.CONST>
1

>  <SCORE.INTER.POLAR>
-1.23693

>  <SCORE.INTER.ROT>
5

>  <SCORE.INTER.SOLV>
16.2646

>  <SCORE.INTER.VDW>
-30.8832

>  <SCORE.INTER.norm>
-1.47727

>  <SCORE.INTRA>
-4.01735

>  <SCORE.INTRA.DIHEDRAL>
-7.28668

>  <SCORE.INTRA.DIHEDRAL.0>
8.06479

>  <SCORE.INTRA.POLAR>
0

>  <SCORE.INTRA.POLAR.0>
0

>  <SCORE.INTRA.REPUL>
0

>  <SCORE.INTRA.REPUL.0>
0

>  <SCORE.INTRA.SOLV>
2.05468

>  <SCORE.INTRA.SOLV.lig_0>
-29.8054

>  <SCORE.INTRA.VDW>
-1.40135

>  <SCORE.INTRA.VDW.0>
2.61447

>  <SCORE.INTRA.norm>
-0.174667

>  <SCORE.RESTR>
0.0836903

>  <SCORE.RESTR.CAVITY>
0.0836903

>  <SCORE.RESTR.norm>
0.00363871

>  <SCORE.SYSTEM>
0

>  <SCORE.SYSTEM.CONST>
0

>  <SCORE.SYSTEM.DIHEDRAL>
0

>  <SCORE.SYSTEM.SOLV>
0

>  <SCORE.SYSTEM.norm>
0

>  <SCORE.heavy>
23

>  <SCORE.norm>
-1.6483

>  <RMSD>
20.691

$$$$

 OpenBabel11021811403D
libRbt.so/2013.1/901 2013/11/27
 23 25  0  0  0  0  0  0  0  0999 V2000
  -13.5812   22.7343    0.8739 S   0  0  0  0  0  0  0  0  0  0  0  0
  -15.7763   23.1838    2.8357 N   0  0  0  0  0  0  0  0  0  0  0  0
  -16.4367   25.3631    2.0427 C   0  0  0  0  0  0  0  0  0  0  0  0
  -16.2555   26.4131    1.1329 C   0  0  0  0  0  0  0  0  0  0  0  0
  -15.2702   26.3298    0.1538 C   0  0  0  0  0  0  0  0  0  0  0  0
  -14.4590   25.2027    0.0802 C   0  0  0  0  0  0  0  0  0  0  0  0
  -14.6284   24.1542    0.9808 C   0  0  0  0  0  0  0  0  0  0  0  0
  -15.6186   24.2269    1.9678 C   0  0  0  0  0  0  0  0  0  0  0  0
  -13.4618   22.6217    2.6312 C   0  0  0  0  0  0  0  0  0  0  0  0
  -12.2435   22.2895    3.2310 C   0  0  0  0  0  0  0  0  0  0  0  0
  -12.1544   22.1964    4.6228 C   0  0  0  0  0  0  0  0  0  0  0  0
  -13.2859   22.4320    5.4105 C   0  0  0  0  0  0  0  0  0  0  0  0
  -14.4990   22.7624    4.8053 C   0  0  0  0  0  0  0  0  0  0  0  0
  -14.5904   22.8601    3.4237 C   0  0  0  0  0  0  0  0  0  0  0  0
  -17.0334   23.0419    3.6115 C   0  0  0  0  0  0  0  0  0  0  0  0
  -18.3782   23.1921    2.8250 C   0  0  0  0  0  0  0  0  0  0  0  0
  -19.6350   23.3065    3.7538 C   0  0  0  0  0  0  0  0  0  0  0  0
  -20.1346   24.6682    4.0732 N   0  3  0  0  0  0  0  0  0  0  0  0
  -19.0867   25.4918    4.7298 C   0  0  0  0  0  0  0  0  0  0  0  0
  -21.3841   24.5918    4.9069 C   0  0  0  0  0  0  0  0  0  0  0  0
  -17.1200   27.6392    1.2088 C   0  0  0  0  0  0  0  0  0  0  0  0
  -17.0124   28.7562    0.1991 C   0  0  0  0  0  0  0  0  0  0  0  0
  -17.9777   27.7146    2.0741 O   0  0  0  0  0  0  0  0  0  0  0  0
  1  7  1  0  0  0  0
  1  9  1  0  0  0  0
  2  8  1  0  0  0  0
  2 14  1  0  0  0  0
  2 15  1  0  0  0  0
  3  4  2  0  0  0  0
  3  8  1  0  0  0  0
  4  5  1  0  0  0  0
  4 21  1  0  0  0  0
  5  6  2  0  0  0  0
  6  7  1  0  0  0  0
  7  8  2  0  0  0  0
  9 10  2  0  0  0  0
  9 14  1  0  0  0  0
 10 11  1  0  0  0  0
 11 12  2  0  0  0  0
 12 13  1  0  0  0  0
 13 14  2  0  0  0  0
 15 16  1  0  0  0  0
 16 17  1  0  0  0  0
 17 18  1  0  0  0  0
 18 19  1  0  0  0  0
 18 20  1  0  0  0  0
 21 22  1  0  0  0  0
 21 23  2  0  0  0  0
M  CHG  1  18   1
M  END
>  <CHROM.1>
47.19595893,-176.32890405,-168.75927578,95.93777821,61.67331504,-16.07657835
24.35039647,2.60545671,-0.31923593,0.37506678,-0.75337392

>  <Name>


>  <RI>
0

>  <Rbt.Current_Directory>
/home/itssahil/PROJECTS/Mol_Feturizer/New_Systems/rnas/1lvj

>  <Rbt.Executable>
rbdock ($Id: //depot/dev/client3/rdock/2013.1/src/exe/rbdock.cxx#4 $)

>  <Rbt.Library>
libRbt.so (2013.1, Build901 2013/11/27)

>  <Rbt.Parameter_File>
/export/apps/rDock/src/rDock_2013.1_src/data/scripts/dock_solv.prm

>  <Rbt.Receptor>
prm/blind_docking_60.prm

>  <SCORE>
-33.0373

>  <SCORE.INTER>
-30.0052

>  <SCORE.INTER.CONST>
1

>  <SCORE.INTER.POLAR>
0

>  <SCORE.INTER.ROT>
5

>  <SCORE.INTER.SOLV>
11.5449

>  <SCORE.INTER.VDW>
-30.7851

>  <SCORE.INTER.norm>
-1.30457

>  <SCORE.INTRA>
-3.09269

>  <SCORE.INTRA.DIHEDRAL>
-3.7442

>  <SCORE.INTRA.DIHEDRAL.0>
8.06479

>  <SCORE.INTRA.POLAR>
0

>  <SCORE.INTRA.POLAR.0>
0

>  <SCORE.INTRA.REPUL>
0

>  <SCORE.INTRA.REPUL.0>
0

>  <SCORE.INTRA.SOLV>
0.933435

>  <SCORE.INTRA.SOLV.lig_0>
-29.8054

>  <SCORE.INTRA.VDW>
-1.68731

>  <SCORE.INTRA.VDW.0>
2.61447

>  <SCORE.INTRA.norm>
-0.134465

>  <SCORE.RESTR>
0.0606148

>  <SCORE.RESTR.CAVITY>
0.0606148

>  <SCORE.RESTR.norm>
0.00263543

>  <SCORE.SYSTEM>
0

>  <SCORE.SYSTEM.CONST>
0

>  <SCORE.SYSTEM.DIHEDRAL>
0

>  <SCORE.SYSTEM.SOLV>
0

>  <SCORE.SYSTEM.norm>
0

>  <SCORE.heavy>
23

>  <SCORE.norm>
-1.4364

>  <RMSD>
20.694

$$$$

 OpenBabel11021811403D
libRbt.so/2013.1/901 2013/11/27
 23 25  0  0  0  0  0  0  0  0999 V2000
  -13.5849   22.7138    0.8711 S   0  0  0  0  0  0  0  0  0  0  0  0
  -15.7964   23.1820    2.8099 N   0  0  0  0  0  0  0  0  0  0  0  0
  -16.4383   25.3613    2.0021 C   0  0  0  0  0  0  0  0  0  0  0  0
  -16.2431   26.4068    1.0900 C   0  0  0  0  0  0  0  0  0  0  0  0
  -15.2489   26.3148    0.1207 C   0  0  0  0  0  0  0  0  0  0  0  0
  -14.4426   25.1834    0.0594 C   0  0  0  0  0  0  0  0  0  0  0  0
  -14.6259   24.1393    0.9624 C   0  0  0  0  0  0  0  0  0  0  0  0
  -15.6252   24.2208    1.9395 C   0  0  0  0  0  0  0  0  0  0  0  0
  -13.4828   22.6075    2.6298 C   0  0  0  0  0  0  0  0  0  0  0  0
  -12.2721   22.2717    3.2426 C   0  0  0  0  0  0  0  0  0  0  0  0
  -12.1968   22.1836    4.6356 C   0  0  0  0  0  0  0  0  0  0  0  0
  -13.3346   22.4279    5.4114 C   0  0  0  0  0  0  0  0  0  0  0  0
  -14.5401   22.7619    4.7933 C   0  0  0  0  0  0  0  0  0  0  0  0
  -14.6178   22.8546    3.4105 C   0  0  0  0  0  0  0  0  0  0  0  0
  -17.0615   23.0493    3.5741 C   0  0  0  0  0  0  0  0  0  0  0  0
  -18.3972   23.2557    2.7847 C   0  0  0  0  0  0  0  0  0  0  0  0
  -19.6555   23.3841    3.7096 C   0  0  0  0  0  0  0  0  0  0  0  0
  -19.7120   24.5402    4.6403 N   0  3  0  0  0  0  0  0  0  0  0  0
  -20.9766   24.5491    5.4202 C   0  0  0  0  0  0  0  0  0  0  0  0
  -19.5107   25.8306    3.8945 C   0  0  0  0  0  0  0  0  0  0  0  0
  -17.1022   27.6375    1.1528 C   0  0  0  0  0  0  0  0  0  0  0  0
  -16.9708   28.7555    0.1471 C   0  0  0  0  0  0  0  0  0  0  0  0
  -17.9745   27.7162    2.0031 O   0  0  0  0  0  0  0  0  0  0  0  0
  1  7  1  0  0  0  0
  1  9  1  0  0  0  0
  2  8  1  0  0  0  0
  2 14  1  0  0  0  0
  2 15  1  0  0  0  0
  3  4  2  0  0  0  0
  3  8  1  0  0  0  0
  4  5  1  0  0  0  0
  4 21  1  0  0  0  0
  5  6  2  0  0  0  0
  6  7  1  0  0  0  0
  7  8  2  0  0  0  0
  9 10  2  0  0  0  0
  9 14  1  0  0  0  0
 10 11  1  0  0  0  0
 11 12  2  0  0  0  0
 12 13  1  0  0  0  0
 13 14  2  0  0  0  0
 15 16  1  0  0  0  0
 16 17  1  0  0  0  0
 17 18  1  0  0  0  0
 18 19  1  0  0  0  0
 18 20  1  0  0  0  0
 21 22  1  0  0  0  0
 21 23  2  0  0  0  0
M  CHG  1  18   1
M  END
>  <CHROM.1>
44.98585800,-176.88311000,-168.38770666,63.23955102,-61.68295719,-16.06253159
24.35624792,2.59972809,-0.33256511,0.40186303,-0.77055739

>  <Name>


>  <RI>
0

>  <Rbt.Current_Directory>
/home/itssahil/PROJECTS/Mol_Feturizer/New_Systems/rnas/1lvj

>  <Rbt.Executable>
rbdock ($Id: //depot/dev/client3/rdock/2013.1/src/exe/rbdock.cxx#4 $)

>  <Rbt.Library>
libRbt.so (2013.1, Build901 2013/11/27)

>  <Rbt.Parameter_File>
/export/apps/rDock/src/rDock_2013.1_src/data/scripts/dock_solv.prm

>  <Rbt.Receptor>
prm/blind_docking_60.prm

>  <SCORE>
-37.9219

>  <SCORE.INTER>
-34.1467

>  <SCORE.INTER.CONST>
1

>  <SCORE.INTER.POLAR>
-1.23693

>  <SCORE.INTER.ROT>
5

>  <SCORE.INTER.SOLV>
16.215

>  <SCORE.INTER.VDW>
-30.9797

>  <SCORE.INTER.norm>
-1.48464

>  <SCORE.INTRA>
-3.85305

>  <SCORE.INTRA.DIHEDRAL>
-7.24531

>  <SCORE.INTRA.DIHEDRAL.0>
8.06479

>  <SCORE.INTRA.POLAR>
0

>  <SCORE.INTRA.POLAR.0>
0

>  <SCORE.INTRA.REPUL>
0

>  <SCORE.INTRA.REPUL.0>
0

>  <SCORE.INTRA.SOLV>
2.02139

>  <SCORE.INTRA.SOLV.lig_0>
-29.8054

>  <SCORE.INTRA.VDW>
-1.24109

>  <SCORE.INTRA.VDW.0>
2.61447

>  <SCORE.INTRA.norm>
-0.167524

>  <SCORE.RESTR>
0.0778479

>  <SCORE.RESTR.CAVITY>
0.0778479

>  <SCORE.RESTR.norm>
0.00338469

>  <SCORE.SYSTEM>
0

>  <SCORE.SYSTEM.CONST>
0

>  <SCORE.SYSTEM.DIHEDRAL>
0

>  <SCORE.SYSTEM.SOLV>
0

>  <SCORE.SYSTEM.norm>
0

>  <SCORE.heavy>
23

>  <SCORE.norm>
-1.64878

>  <RMSD>
20.713

$$$$

 OpenBabel11021811403D
libRbt.so/2013.1/901 2013/11/27
 23 25  0  0  0  0  0  0  0  0999 V2000
  -11.9658   22.8524    4.1008 S   0  0  0  0  0  0  0  0  0  0  0  0
  -13.4357   24.3070    1.9577 N   0  0  0  0  0  0  0  0  0  0  0  0
  -15.6620   23.7809    2.7201 C   0  0  0  0  0  0  0  0  0  0  0  0
  -16.4899   23.1493    3.6575 C   0  0  0  0  0  0  0  0  0  0  0  0
  -15.9342   22.4420    4.7193 C   0  0  0  0  0  0  0  0  0  0  0  0
  -14.5522   22.3574    4.8486 C   0  0  0  0  0  0  0  0  0  0  0  0
  -13.7196   22.9791    3.9215 C   0  0  0  0  0  0  0  0  0  0  0  0
  -14.2687   23.6954    2.8512 C   0  0  0  0  0  0  0  0  0  0  0  0
  -11.7459   22.6644    2.3598 C   0  0  0  0  0  0  0  0  0  0  0  0
  -10.8010   21.7601    1.8663 C   0  0  0  0  0  0  0  0  0  0  0  0
  -10.6264   21.6179    0.4868 C   0  0  0  0  0  0  0  0  0  0  0  0
  -11.3952   22.3843   -0.3952 C   0  0  0  0  0  0  0  0  0  0  0  0
  -12.3360   23.2856    0.1041 C   0  0  0  0  0  0  0  0  0  0  0  0
  -12.5154   23.4264    1.4733 C   0  0  0  0  0  0  0  0  0  0  0  0
  -13.9504   25.3797    1.0710 C   0  0  0  0  0  0  0  0  0  0  0  0
  -14.9206   24.9503   -0.0798 C   0  0  0  0  0  0  0  0  0  0  0  0
  -16.4332   25.1729    0.2635 C   0  0  0  0  0  0  0  0  0  0  0  0
  -17.0455   26.4683   -0.1275 N   0  3  0  0  0  0  0  0  0  0  0  0
  -16.4640   27.5988    0.6415 C   0  0  0  0  0  0  0  0  0  0  0  0
  -18.5416   26.4113    0.0152 C   0  0  0  0  0  0  0  0  0  0  0  0
  -17.9840   23.2264    3.5225 C   0  0  0  0  0  0  0  0  0  0  0  0
  -18.6472   23.7391    2.2670 C   0  0  0  0  0  0  0  0  0  0  0  0
  -18.6895   22.8086    4.4268 O   0  0  0  0  0  0  0  0  0  0  0  0
  1  7  1  0  0  0  0
  1  9  1  0  0  0  0
  2  8  1  0  0  0  0
  2 14  1  0  0  0  0
  2 15  1  0  0  0  0
  3  4  2  0  0  0  0
  3  8  1  0  0  0  0
  4  5  1  0  0  0  0
  4 21  1  0  0  0  0
  5  6  2  0  0  0  0
  6  7  1  0  0  0  0
  7  8  2  0  0  0  0
  9 10  2  0  0  0  0
  9 14  1  0  0  0  0
 10 11  1  0  0  0  0
 11 12  2  0  0  0  0
 12 13  1  0  0  0  0
 13 14  2  0  0  0  0
 15 16  1  0  0  0  0
 16 17  1  0  0  0  0
 17 18  1  0  0  0  0
 18 19  1  0  0  0  0
 18 20  1  0  0  0  0
 21 22  1  0  0  0  0
 21 23  2  0  0  0  0
M  CHG  1  18   1
M  END
>  <CHROM.1>
-71.08932887,11.92806199,98.80795136,91.75227686,53.28776788,-14.65534624
23.77968493,2.10348618,0.28376708,-0.30442670,2.15603709

>  <Name>


>  <RI>
0

>  <Rbt.Current_Directory>
/home/itssahil/PROJECTS/Mol_Feturizer/New_Systems/rnas/1lvj

>  <Rbt.Executable>
rbdock ($Id: //depot/dev/client3/rdock/2013.1/src/exe/rbdock.cxx#4 $)

>  <Rbt.Library>
libRbt.so (2013.1, Build901 2013/11/27)

>  <Rbt.Parameter_File>
/export/apps/rDock/src/rDock_2013.1_src/data/scripts/dock_solv.prm

>  <Rbt.Receptor>
prm/blind_docking_100.prm

>  <SCORE>
-16.1659

>  <SCORE.INTER>
-19.9459

>  <SCORE.INTER.CONST>
1

>  <SCORE.INTER.POLAR>
-1.28831

>  <SCORE.INTER.ROT>
5

>  <SCORE.INTER.SOLV>
20.1082

>  <SCORE.INTER.VDW>
-22.639

>  <SCORE.INTER.norm>
-0.867213

>  <SCORE.INTRA>
-0.964731

>  <SCORE.INTRA.DIHEDRAL>
-0.252605

>  <SCORE.INTRA.DIHEDRAL.0>
8.06479

>  <SCORE.INTRA.POLAR>
0

>  <SCORE.INTRA.POLAR.0>
0

>  <SCORE.INTRA.REPUL>
0

>  <SCORE.INTRA.REPUL.0>
0

>  <SCORE.INTRA.SOLV>
0.913191

>  <SCORE.INTRA.SOLV.lig_0>
-29.8054

>  <SCORE.INTRA.VDW>
-1.29502

>  <SCORE.INTRA.VDW.0>
2.61447

>  <SCORE.INTRA.norm>
-0.0419448

>  <SCORE.RESTR>
4.74478

>  <SCORE.RESTR.CAVITY>
4.74478

>  <SCORE.RESTR.norm>
0.206295

>  <SCORE.SYSTEM>
0

>  <SCORE.SYSTEM.CONST>
0

>  <SCORE.SYSTEM.DIHEDRAL>
0

>  <SCORE.SYSTEM.SOLV>
0

>  <SCORE.SYSTEM.norm>
0

>  <SCORE.heavy>
23

>  <SCORE.norm>
-0.702863

>  <RMSD>
20.722

$$$$

 OpenBabel11021811403D
libRbt.so/2013.1/901 2013/11/27
 23 25  0  0  0  0  0  0  0  0999 V2000
  -13.9355   22.5015    0.8852 S   0  0  0  0  0  0  0  0  0  0  0  0
  -15.9803   23.2560    2.9147 N   0  0  0  0  0  0  0  0  0  0  0  0
  -16.4614   25.4524    2.0437 C   0  0  0  0  0  0  0  0  0  0  0  0
  -16.2218   26.4371    1.0761 C   0  0  0  0  0  0  0  0  0  0  0  0
  -15.2970   26.2117    0.0610 C   0  0  0  0  0  0  0  0  0  0  0  0
  -14.6043   25.0070    0.0087 C   0  0  0  0  0  0  0  0  0  0  0  0
  -14.8325   24.0223    0.9665 C   0  0  0  0  0  0  0  0  0  0  0  0
  -15.7628   24.2380    1.9902 C   0  0  0  0  0  0  0  0  0  0  0  0
  -13.7442   22.4567    2.6392 C   0  0  0  0  0  0  0  0  0  0  0  0
  -12.5371   22.0318    3.2019 C   0  0  0  0  0  0  0  0  0  0  0  0
  -12.3914   21.9930    4.5916 C   0  0  0  0  0  0  0  0  0  0  0  0
  -13.4557   22.3757    5.4144 C   0  0  0  0  0  0  0  0  0  0  0  0
  -14.6581   22.7981    4.8461 C   0  0  0  0  0  0  0  0  0  0  0  0
  -14.8051   22.8422    3.4666 C   0  0  0  0  0  0  0  0  0  0  0  0
  -17.2069   23.2755    3.7497 C   0  0  0  0  0  0  0  0  0  0  0  0
  -18.5418   22.8254    3.0676 C   0  0  0  0  0  0  0  0  0  0  0  0
  -18.8500   23.5891    1.7345 C   0  0  0  0  0  0  0  0  0  0  0  0
  -19.4383   24.9488    1.8391 N   0  3  0  0  0  0  0  0  0  0  0  0
  -20.7312   24.9271    2.5708 C   0  0  0  0  0  0  0  0  0  0  0  0
  -19.5818   25.5698    0.4768 C   0  0  0  0  0  0  0  0  0  0  0  0
  -16.9577   27.7456    1.1282 C   0  0  0  0  0  0  0  0  0  0  0  0
  -16.7894   28.7997    0.0608 C   0  0  0  0  0  0  0  0  0  0  0  0
  -17.7618   27.9452    2.0246 O   0  0  0  0  0  0  0  0  0  0  0  0
  1  7  1  0  0  0  0
  1  9  1  0  0  0  0
  2  8  1  0  0  0  0
  2 14  1  0  0  0  0
  2 15  1  0  0  0  0
  3  4  2  0  0  0  0
  3  8  1  0  0  0  0
  4  5  1  0  0  0  0
  4 21  1  0  0  0  0
  5  6  2  0  0  0  0
  6  7  1  0  0  0  0
  7  8  2  0  0  0  0
  9 10  2  0  0  0  0
  9 14  1  0  0  0  0
 10 11  1  0  0  0  0
 11 12  2  0  0  0  0
 12 13  1  0  0  0  0
 13 14  2  0  0  0  0
 15 16  1  0  0  0  0
 16 17  1  0  0  0  0
 17 18  1  0  0  0  0
 18 19  1  0  0  0  0
 18 20  1  0  0  0  0
 21 22  1  0  0  0  0
 21 23  2  0  0  0  0
M  CHG  1  18   1
M  END
>  <CHROM.1>
76.33295718,-176.33284881,-52.99014835,-80.00429763,60.99691640,-16.10382488
24.34821671,2.12017844,-0.74591548,0.17263052,-0.66351861

>  <Name>


>  <RI>
0

>  <Rbt.Current_Directory>
/home/itssahil/PROJECTS/Mol_Feturizer/New_Systems/rnas/1lvj

>  <Rbt.Executable>
rbdock ($Id: //depot/dev/client3/rdock/2013.1/src/exe/rbdock.cxx#4 $)

>  <Rbt.Library>
libRbt.so (2013.1, Build901 2013/11/27)

>  <Rbt.Parameter_File>
/export/apps/rDock/src/rDock_2013.1_src/data/scripts/dock_solv.prm

>  <Rbt.Receptor>
prm/blind_docking_80.prm

>  <SCORE>
-27.9043

>  <SCORE.INTER>
-26.5536

>  <SCORE.INTER.CONST>
1

>  <SCORE.INTER.POLAR>
0

>  <SCORE.INTER.ROT>
5

>  <SCORE.INTER.SOLV>
11.5379

>  <SCORE.INTER.VDW>
-28.4817

>  <SCORE.INTER.norm>
-1.1545

>  <SCORE.INTRA>
-1.5336

>  <SCORE.INTRA.DIHEDRAL>
-5.3748

>  <SCORE.INTRA.DIHEDRAL.0>
8.06479

>  <SCORE.INTRA.POLAR>
0

>  <SCORE.INTRA.POLAR.0>
0

>  <SCORE.INTRA.REPUL>
0

>  <SCORE.INTRA.REPUL.0>
0

>  <SCORE.INTRA.SOLV>
7.93059

>  <SCORE.INTRA.SOLV.lig_0>
-29.8054

>  <SCORE.INTRA.VDW>
-2.8115

>  <SCORE.INTRA.VDW.0>
2.61447

>  <SCORE.INTRA.norm>
-0.0666784

>  <SCORE.RESTR>
0.182833

>  <SCORE.RESTR.CAVITY>
0.182833

>  <SCORE.RESTR.norm>
0.00794927

>  <SCORE.SYSTEM>
0

>  <SCORE.SYSTEM.CONST>
0

>  <SCORE.SYSTEM.DIHEDRAL>
0

>  <SCORE.SYSTEM.SOLV>
0

>  <SCORE.SYSTEM.norm>
0

>  <SCORE.heavy>
23

>  <SCORE.norm>
-1.21323

>  <RMSD>
20.762

$$$$

 OpenBabel11021811403D
libRbt.so/2013.1/901 2013/11/27
 23 25  0  0  0  0  0  0  0  0999 V2000
  -13.1274   22.4109    0.9731 S   0  0  0  0  0  0  0  0  0  0  0  0
  -15.5011   23.0901    2.6384 N   0  0  0  0  0  0  0  0  0  0  0  0
  -15.9377   25.2500    1.6595 C   0  0  0  0  0  0  0  0  0  0  0  0
  -15.5928   26.2333    0.7229 C   0  0  0  0  0  0  0  0  0  0  0  0
  -14.5092   26.0407   -0.1286 C   0  0  0  0  0  0  0  0  0  0  0  0
  -13.7625   24.8704   -0.0471 C   0  0  0  0  0  0  0  0  0  0  0  0
  -14.0946   23.8874    0.8816 C   0  0  0  0  0  0  0  0  0  0  0  0
  -15.1847   24.0702    1.7410 C   0  0  0  0  0  0  0  0  0  0  0  0
  -13.2153   22.3966    2.7357 C   0  0  0  0  0  0  0  0  0  0  0  0
  -12.0948   22.0373    3.4905 C   0  0  0  0  0  0  0  0  0  0  0  0
  -12.1702   22.0224    4.8862 C   0  0  0  0  0  0  0  0  0  0  0  0
  -13.3681   22.3630    5.5227 C   0  0  0  0  0  0  0  0  0  0  0  0
  -14.4830   22.7199    4.7633 C   0  0  0  0  0  0  0  0  0  0  0  0
  -14.4107   22.7402    3.3772 C   0  0  0  0  0  0  0  0  0  0  0  0
  -16.8443   23.0603    3.2684 C   0  0  0  0  0  0  0  0  0  0  0  0
  -18.0809   23.2044    2.3197 C   0  0  0  0  0  0  0  0  0  0  0  0
  -19.4477   23.2773    3.0825 C   0  0  0  0  0  0  0  0  0  0  0  0
  -19.9238   24.6150    3.5180 N   0  3  0  0  0  0  0  0  0  0  0  0
  -20.9546   24.5054    4.5823 C   0  0  0  0  0  0  0  0  0  0  0  0
  -20.4226   25.4083    2.3416 C   0  0  0  0  0  0  0  0  0  0  0  0
  -16.3868   27.5053    0.6323 C   0  0  0  0  0  0  0  0  0  0  0  0
  -17.7118   27.6717    1.3362 C   0  0  0  0  0  0  0  0  0  0  0  0
  -15.9255   28.4571    0.0229 O   0  0  0  0  0  0  0  0  0  0  0  0
  1  7  1  0  0  0  0
  1  9  1  0  0  0  0
  2  8  1  0  0  0  0
  2 14  1  0  0  0  0
  2 15  1  0  0  0  0
  3  4  2  0  0  0  0
  3  8  1  0  0  0  0
  4  5  1  0  0  0  0
  4 21  1  0  0  0  0
  5  6  2  0  0  0  0
  6  7  1  0  0  0  0
  7  8  2  0  0  0  0
  9 10  2  0  0  0  0
  9 14  1  0  0  0  0
 10 11  1  0  0  0  0
 11 12  2  0  0  0  0
 12 13  1  0  0  0  0
 13 14  2  0  0  0  0
 15 16  1  0  0  0  0
 16 17  1  0  0  0  0
 17 18  1  0  0  0  0
 18 19  1  0  0  0  0
 18 20  1  0  0  0  0
 21 22  1  0  0  0  0
 21 23  2  0  0  0  0
M  CHG  1  18   1
M  END
>  <CHROM.1>
48.40904130,-11.73047789,-175.36751369,88.13740209,-41.29694503,-15.76928201
24.20099022,2.29338098,-0.39822471,0.28143571,-0.74567334

>  <Name>


>  <RI>
0

>  <Rbt.Current_Directory>
/home/itssahil/PROJECTS/Mol_Feturizer/New_Systems/rnas/1lvj

>  <Rbt.Executable>
rbdock ($Id: //depot/dev/client3/rdock/2013.1/src/exe/rbdock.cxx#4 $)

>  <Rbt.Library>
libRbt.so (2013.1, Build901 2013/11/27)

>  <Rbt.Parameter_File>
/export/apps/rDock/src/rDock_2013.1_src/data/scripts/dock_solv.prm

>  <Rbt.Receptor>
prm/blind_docking_60.prm

>  <SCORE>
-33.8649

>  <SCORE.INTER>
-30.584

>  <SCORE.INTER.CONST>
1

>  <SCORE.INTER.POLAR>
0

>  <SCORE.INTER.ROT>
5

>  <SCORE.INTER.SOLV>
11.5021

>  <SCORE.INTER.VDW>
-31.1567

>  <SCORE.INTER.norm>
-1.32974

>  <SCORE.INTRA>
-3.28087

>  <SCORE.INTRA.DIHEDRAL>
-3.91276

>  <SCORE.INTRA.DIHEDRAL.0>
8.06479

>  <SCORE.INTRA.POLAR>
0

>  <SCORE.INTRA.POLAR.0>
0

>  <SCORE.INTRA.REPUL>
0

>  <SCORE.INTRA.REPUL.0>
0

>  <SCORE.INTRA.SOLV>
2.42393

>  <SCORE.INTRA.SOLV.lig_0>
-29.8054

>  <SCORE.INTRA.VDW>
-2.53646

>  <SCORE.INTRA.VDW.0>
2.61447

>  <SCORE.INTRA.norm>
-0.142647

>  <SCORE.RESTR>
0

>  <SCORE.RESTR.CAVITY>
0

>  <SCORE.RESTR.norm>
0

>  <SCORE.SYSTEM>
0

>  <SCORE.SYSTEM.CONST>
0

>  <SCORE.SYSTEM.DIHEDRAL>
0

>  <SCORE.SYSTEM.SOLV>
0

>  <SCORE.SYSTEM.norm>
0

>  <SCORE.heavy>
23

>  <SCORE.norm>
-1.47239

>  <RMSD>
20.766

$$$$

 OpenBabel11021811403D
libRbt.so/2013.1/901 2013/11/27
 23 25  0  0  0  0  0  0  0  0999 V2000
  -12.1592   23.0132    3.9064 S   0  0  0  0  0  0  0  0  0  0  0  0
  -13.7520   24.3994    1.8062 N   0  0  0  0  0  0  0  0  0  0  0  0
  -15.9308   23.7937    2.6430 C   0  0  0  0  0  0  0  0  0  0  0  0
  -16.7033   23.1365    3.6096 C   0  0  0  0  0  0  0  0  0  0  0  0
  -16.0870   22.4565    4.6557 C   0  0  0  0  0  0  0  0  0  0  0  0
  -14.6993   22.4250    4.7402 C   0  0  0  0  0  0  0  0  0  0  0  0
  -13.9214   23.0725    3.7838 C   0  0  0  0  0  0  0  0  0  0  0  0
  -14.5318   23.7617    2.7290 C   0  0  0  0  0  0  0  0  0  0  0  0
  -11.9889   22.8241    2.1599 C   0  0  0  0  0  0  0  0  0  0  0  0
  -11.0269   21.9535    1.6397 C   0  0  0  0  0  0  0  0  0  0  0  0
  -10.8918   21.8104    0.2559 C   0  0  0  0  0  0  0  0  0  0  0  0
  -11.7173   22.5423   -0.6039 C   0  0  0  0  0  0  0  0  0  0  0  0
  -12.6751   23.4102   -0.0780 C   0  0  0  0  0  0  0  0  0  0  0  0
  -12.8151   23.5517    1.2958 C   0  0  0  0  0  0  0  0  0  0  0  0
  -14.3356   25.4471    0.9322 C   0  0  0  0  0  0  0  0  0  0  0  0
  -15.6852   25.1083    0.2155 C   0  0  0  0  0  0  0  0  0  0  0  0
  -16.5639   26.3694   -0.0889 C   0  0  0  0  0  0  0  0  0  0  0  0
  -16.9794   27.2140    1.0600 N   0  3  0  0  0  0  0  0  0  0  0  0
  -18.0307   26.5485    1.8721 C   0  0  0  0  0  0  0  0  0  0  0  0
  -17.4199   28.5720    0.5870 C   0  0  0  0  0  0  0  0  0  0  0  0
  -18.2029   23.1563    3.5231 C   0  0  0  0  0  0  0  0  0  0  0  0
  -18.9246   23.5006    2.2428 C   0  0  0  0  0  0  0  0  0  0  0  0
  -18.8633   22.8276    4.4957 O   0  0  0  0  0  0  0  0  0  0  0  0
  1  7  1  0  0  0  0
  1  9  1  0  0  0  0
  2  8  1  0  0  0  0
  2 14  1  0  0  0  0
  2 15  1  0  0  0  0
  3  4  2  0  0  0  0
  3  8  1  0  0  0  0
  4  5  1  0  0  0  0
  4 21  1  0  0  0  0
  5  6  2  0  0  0  0
  6  7  1  0  0  0  0
  7  8  2  0  0  0  0
  9 10  2  0  0  0  0
  9 14  1  0  0  0  0
 10 11  1  0  0  0  0
 11 12  2  0  0  0  0
 12 13  1  0  0  0  0
 13 14  2  0  0  0  0
 15 16  1  0  0  0  0
 16 17  1  0  0  0  0
 17 18  1  0  0  0  0
 18 19  1  0  0  0  0
 18 20  1  0  0  0  0
 21 22  1  0  0  0  0
 21 23  2  0  0  0  0
M  CHG  1  18   1
M  END
>  <CHROM.1>
-48.14298440,18.33899592,152.11416480,-58.78959836,46.88427305,-14.90056485
23.97910430,2.14514906,0.27126253,-0.36779698,2.31269583

>  <Name>


>  <RI>
0

>  <Rbt.Current_Directory>
/home/itssahil/PROJECTS/Mol_Feturizer/New_Systems/rnas/1lvj

>  <Rbt.Executable>
rbdock ($Id: //depot/dev/client3/rdock/2013.1/src/exe/rbdock.cxx#4 $)

>  <Rbt.Library>
libRbt.so (2013.1, Build901 2013/11/27)

>  <Rbt.Parameter_File>
/export/apps/rDock/src/rDock_2013.1_src/data/scripts/dock_solv.prm

>  <Rbt.Receptor>
prm/blind_docking_40.prm

>  <SCORE>
-29.9532

>  <SCORE.INTER>
-29.6824

>  <SCORE.INTER.CONST>
1

>  <SCORE.INTER.POLAR>
-2.52114

>  <SCORE.INTER.ROT>
5

>  <SCORE.INTER.SOLV>
16.5572

>  <SCORE.INTER.VDW>
-23.8369

>  <SCORE.INTER.norm>
-1.29054

>  <SCORE.INTRA>
-0.833861

>  <SCORE.INTRA.DIHEDRAL>
-3.15508

>  <SCORE.INTRA.DIHEDRAL.0>
8.06479

>  <SCORE.INTRA.POLAR>
0

>  <SCORE.INTRA.POLAR.0>
0

>  <SCORE.INTRA.REPUL>
0

>  <SCORE.INTRA.REPUL.0>
0

>  <SCORE.INTRA.SOLV>
2.75545

>  <SCORE.INTRA.SOLV.lig_0>
-29.8054

>  <SCORE.INTRA.VDW>
-0.634046

>  <SCORE.INTRA.VDW.0>
2.61447

>  <SCORE.INTRA.norm>
-0.0362548

>  <SCORE.RESTR>
0.563124

>  <SCORE.RESTR.CAVITY>
0.563124

>  <SCORE.RESTR.norm>
0.0244837

>  <SCORE.SYSTEM>
0

>  <SCORE.SYSTEM.CONST>
0

>  <SCORE.SYSTEM.DIHEDRAL>
0

>  <SCORE.SYSTEM.SOLV>
0

>  <SCORE.SYSTEM.norm>
0

>  <SCORE.heavy>
23

>  <SCORE.norm>
-1.30231

>  <RMSD>
20.767

$$$$

 OpenBabel11021811403D
libRbt.so/2013.1/901 2013/11/27
 23 25  0  0  0  0  0  0  0  0999 V2000
  -13.1828   22.2981    1.0079 S   0  0  0  0  0  0  0  0  0  0  0  0
  -15.4930   23.0688    2.7220 N   0  0  0  0  0  0  0  0  0  0  0  0
  -15.9216   25.2068    1.6926 C   0  0  0  0  0  0  0  0  0  0  0  0
  -15.5881   26.1558    0.7173 C   0  0  0  0  0  0  0  0  0  0  0  0
  -14.5341   25.9187   -0.1598 C   0  0  0  0  0  0  0  0  0  0  0  0
  -13.8058   24.7379   -0.0658 C   0  0  0  0  0  0  0  0  0  0  0  0
  -14.1267   23.7886    0.9013 C   0  0  0  0  0  0  0  0  0  0  0  0
  -15.1869   24.0163    1.7867 C   0  0  0  0  0  0  0  0  0  0  0  0
  -13.2178   22.3369    2.7720 C   0  0  0  0  0  0  0  0  0  0  0  0
  -12.0814   21.9795    3.5036 C   0  0  0  0  0  0  0  0  0  0  0  0
  -12.1148   22.0067    4.9007 C   0  0  0  0  0  0  0  0  0  0  0  0
  -13.2869   22.3876    5.5621 C   0  0  0  0  0  0  0  0  0  0  0  0
  -14.4178   22.7424    4.8258 C   0  0  0  0  0  0  0  0  0  0  0  0
  -14.3871   22.7208    3.4382 C   0  0  0  0  0  0  0  0  0  0  0  0
  -16.8170   23.0819    3.3921 C   0  0  0  0  0  0  0  0  0  0  0  0
  -18.0783   23.2323    2.4777 C   0  0  0  0  0  0  0  0  0  0  0  0
  -19.4160   23.3843    3.2794 C   0  0  0  0  0  0  0  0  0  0  0  0
  -19.8794   24.7600    3.5931 N   0  3  0  0  0  0  0  0  0  0  0  0
  -18.9091   25.4760    4.4612 C   0  0  0  0  0  0  0  0  0  0  0  0
  -21.2534   24.7297    4.2038 C   0  0  0  0  0  0  0  0  0  0  0  0
  -16.3623   27.4389    0.6125 C   0  0  0  0  0  0  0  0  0  0  0  0
  -17.6891   27.6301    1.3065 C   0  0  0  0  0  0  0  0  0  0  0  0
  -15.8829   28.3792   -0.0006 O   0  0  0  0  0  0  0  0  0  0  0  0
  1  7  1  0  0  0  0
  1  9  1  0  0  0  0
  2  8  1  0  0  0  0
  2 14  1  0  0  0  0
  2 15  1  0  0  0  0
  3  4  2  0  0  0  0
  3  8  1  0  0  0  0
  4  5  1  0  0  0  0
  4 21  1  0  0  0  0
  5  6  2  0  0  0  0
  6  7  1  0  0  0  0
  7  8  2  0  0  0  0
  9 10  2  0  0  0  0
  9 14  1  0  0  0  0
 10 11  1  0  0  0  0
 11 12  2  0  0  0  0
 12 13  1  0  0  0  0
 13 14  2  0  0  0  0
 15 16  1  0  0  0  0
 16 17  1  0  0  0  0
 17 18  1  0  0  0  0
 18 19  1  0  0  0  0
 18 20  1  0  0  0  0
 21 22  1  0  0  0  0
 21 23  2  0  0  0  0
M  CHG  1  18   1
M  END
>  <CHROM.1>
47.93048004,-14.18366361,-174.04949298,92.26794819,57.55650633,-15.70644861
24.18337241,2.40750119,-0.37360016,0.34801380,-0.78328343

>  <Name>


>  <RI>
0

>  <Rbt.Current_Directory>
/home/itssahil/PROJECTS/Mol_Feturizer/New_Systems/rnas/1lvj

>  <Rbt.Executable>
rbdock ($Id: //depot/dev/client3/rdock/2013.1/src/exe/rbdock.cxx#4 $)

>  <Rbt.Library>
libRbt.so (2013.1, Build901 2013/11/27)

>  <Rbt.Parameter_File>
/export/apps/rDock/src/rDock_2013.1_src/data/scripts/dock_solv.prm

>  <Rbt.Receptor>
prm/blind_docking_60.prm

>  <SCORE>
-33.5061

>  <SCORE.INTER>
-30.2829

>  <SCORE.INTER.CONST>
1

>  <SCORE.INTER.POLAR>
0

>  <SCORE.INTER.ROT>
5

>  <SCORE.INTER.SOLV>
11.5021

>  <SCORE.INTER.VDW>
-30.956

>  <SCORE.INTER.norm>
-1.31665

>  <SCORE.INTRA>
-3.22321

>  <SCORE.INTRA.DIHEDRAL>
-3.62874

>  <SCORE.INTRA.DIHEDRAL.0>
8.06479

>  <SCORE.INTRA.POLAR>
0

>  <SCORE.INTRA.POLAR.0>
0

>  <SCORE.INTRA.REPUL>
0

>  <SCORE.INTRA.REPUL.0>
0

>  <SCORE.INTRA.SOLV>
1.54828

>  <SCORE.INTRA.SOLV.lig_0>
-29.8054

>  <SCORE.INTRA.VDW>
-2.18298

>  <SCORE.INTRA.VDW.0>
2.61447

>  <SCORE.INTRA.norm>
-0.14014

>  <SCORE.RESTR>
0

>  <SCORE.RESTR.CAVITY>
0

>  <SCORE.RESTR.norm>
0

>  <SCORE.SYSTEM>
0

>  <SCORE.SYSTEM.CONST>
0

>  <SCORE.SYSTEM.DIHEDRAL>
0

>  <SCORE.SYSTEM.SOLV>
0

>  <SCORE.SYSTEM.norm>
0

>  <SCORE.heavy>
23

>  <SCORE.norm>
-1.45679

>  <RMSD>
20.773

$$$$

 OpenBabel11021811403D
libRbt.so/2013.1/901 2013/11/27
 23 25  0  0  0  0  0  0  0  0999 V2000
  -13.0595   22.2160    1.0567 S   0  0  0  0  0  0  0  0  0  0  0  0
  -15.3945   23.0143    2.7240 N   0  0  0  0  0  0  0  0  0  0  0  0
  -15.7873   25.1497    1.6753 C   0  0  0  0  0  0  0  0  0  0  0  0
  -15.4287   26.0906    0.7010 C   0  0  0  0  0  0  0  0  0  0  0  0
  -14.3608   25.8404   -0.1554 C   0  0  0  0  0  0  0  0  0  0  0  0
  -13.6436   24.6545   -0.0416 C   0  0  0  0  0  0  0  0  0  0  0  0
  -13.9895   23.7132    0.9247 C   0  0  0  0  0  0  0  0  0  0  0  0
  -15.0639   23.9542    1.7893 C   0  0  0  0  0  0  0  0  0  0  0  0
  -13.1263   22.2650    2.8196 C   0  0  0  0  0  0  0  0  0  0  0  0
  -12.0063   21.9030    3.5738 C   0  0  0  0  0  0  0  0  0  0  0  0
  -12.0650   21.9384    4.9699 C   0  0  0  0  0  0  0  0  0  0  0  0
  -13.2459   22.3321    5.6076 C   0  0  0  0  0  0  0  0  0  0  0  0
  -14.3604   22.6915    4.8489 C   0  0  0  0  0  0  0  0  0  0  0  0
  -14.3046   22.6618    3.4622 C   0  0  0  0  0  0  0  0  0  0  0  0
  -16.7303   23.0414    3.3698 C   0  0  0  0  0  0  0  0  0  0  0  0
  -17.9640   23.3155    2.4464 C   0  0  0  0  0  0  0  0  0  0  0  0
  -19.3231   23.3806    3.2235 C   0  0  0  0  0  0  0  0  0  0  0  0
  -19.4666   24.4188    4.2757 N   0  3  0  0  0  0  0  0  0  0  0  0
  -20.8052   24.3608    4.9180 C   0  0  0  0  0  0  0  0  0  0  0  0
  -19.1787   25.7844    3.7150 C   0  0  0  0  0  0  0  0  0  0  0  0
  -16.1907   27.3790    0.5751 C   0  0  0  0  0  0  0  0  0  0  0  0
  -17.5767   27.5467    1.1492 C   0  0  0  0  0  0  0  0  0  0  0  0
  -15.6569   28.3414    0.0468 O   0  0  0  0  0  0  0  0  0  0  0  0
  1  7  1  0  0  0  0
  1  9  1  0  0  0  0
  2  8  1  0  0  0  0
  2 14  1  0  0  0  0
  2 15  1  0  0  0  0
  3  4  2  0  0  0  0
  3  8  1  0  0  0  0
  4  5  1  0  0  0  0
  4 21  1  0  0  0  0
  5  6  2  0  0  0  0
  6  7  1  0  0  0  0
  7  8  2  0  0  0  0
  9 10  2  0  0  0  0
  9 14  1  0  0  0  0
 10 11  1  0  0  0  0
 11 12  2  0  0  0  0
 12 13  1  0  0  0  0
 13 14  2  0  0  0  0
 15 16  1  0  0  0  0
 16 17  1  0  0  0  0
 17 18  1  0  0  0  0
 18 19  1  0  0  0  0
 18 20  1  0  0  0  0
 21 22  1  0  0  0  0
 21 23  2  0  0  0  0
M  CHG  1  18   1
M  END
>  <CHROM.1>
42.98010488,-19.22136934,-177.76471462,60.15648154,-60.26332833,-15.57612196
24.11541988,2.44775342,-0.35847190,0.36606500,-0.78861995

>  <Name>


>  <RI>
0

>  <Rbt.Current_Directory>
/home/itssahil/PROJECTS/Mol_Feturizer/New_Systems/rnas/1lvj

>  <Rbt.Executable>
rbdock ($Id: //depot/dev/client3/rdock/2013.1/src/exe/rbdock.cxx#4 $)

>  <Rbt.Library>
libRbt.so (2013.1, Build901 2013/11/27)

>  <Rbt.Parameter_File>
/export/apps/rDock/src/rDock_2013.1_src/data/scripts/dock_solv.prm

>  <Rbt.Receptor>
prm/blind_docking_60.prm

>  <SCORE>
-38.3702

>  <SCORE.INTER>
-34.7951

>  <SCORE.INTER.CONST>
1

>  <SCORE.INTER.POLAR>
-1.23693

>  <SCORE.INTER.ROT>
5

>  <SCORE.INTER.SOLV>
16.7438

>  <SCORE.INTER.VDW>
-31.5882

>  <SCORE.INTER.norm>
-1.51283

>  <SCORE.INTRA>
-3.57507

>  <SCORE.INTRA.DIHEDRAL>
-6.15083

>  <SCORE.INTRA.DIHEDRAL.0>
8.06479

>  <SCORE.INTRA.POLAR>
0

>  <SCORE.INTRA.POLAR.0>
0

>  <SCORE.INTRA.REPUL>
0

>  <SCORE.INTRA.REPUL.0>
0

>  <SCORE.INTRA.SOLV>
1.80985

>  <SCORE.INTRA.SOLV.lig_0>
-29.8054

>  <SCORE.INTRA.VDW>
-1.40458

>  <SCORE.INTRA.VDW.0>
2.61447

>  <SCORE.INTRA.norm>
-0.155438

>  <SCORE.RESTR>
0

>  <SCORE.RESTR.CAVITY>
0

>  <SCORE.RESTR.norm>
0

>  <SCORE.SYSTEM>
0

>  <SCORE.SYSTEM.CONST>
0

>  <SCORE.SYSTEM.DIHEDRAL>
0

>  <SCORE.SYSTEM.SOLV>
0

>  <SCORE.SYSTEM.norm>
0

>  <SCORE.heavy>
23

>  <SCORE.norm>
-1.66827

>  <RMSD>
20.773

$$$$

 OpenBabel11021811403D
libRbt.so/2013.1/901 2013/11/27
 23 25  0  0  0  0  0  0  0  0999 V2000
  -12.2118   23.0499    3.8273 S   0  0  0  0  0  0  0  0  0  0  0  0
  -13.8280   24.4574    1.7595 N   0  0  0  0  0  0  0  0  0  0  0  0
  -15.9972   23.8407    2.6128 C   0  0  0  0  0  0  0  0  0  0  0  0
  -16.7589   23.1722    3.5803 C   0  0  0  0  0  0  0  0  0  0  0  0
  -16.1309   22.4815    4.6124 C   0  0  0  0  0  0  0  0  0  0  0  0
  -14.7424   22.4503    4.6817 C   0  0  0  0  0  0  0  0  0  0  0  0
  -13.9753   23.1089    3.7242 C   0  0  0  0  0  0  0  0  0  0  0  0
  -14.5974   23.8090    2.6835 C   0  0  0  0  0  0  0  0  0  0  0  0
  -12.0600   22.8800    2.0772 C   0  0  0  0  0  0  0  0  0  0  0  0
  -11.1028   22.0159    1.5373 C   0  0  0  0  0  0  0  0  0  0  0  0
  -10.9825   21.8880    0.1506 C   0  0  0  0  0  0  0  0  0  0  0  0
  -11.8177   22.6285   -0.6922 C   0  0  0  0  0  0  0  0  0  0  0  0
  -12.7704   23.4898   -0.1467 C   0  0  0  0  0  0  0  0  0  0  0  0
  -12.8959   23.6161    1.2299 C   0  0  0  0  0  0  0  0  0  0  0  0
  -14.4217   25.5140    0.9032 C   0  0  0  0  0  0  0  0  0  0  0  0
  -15.7599   25.1689    0.1683 C   0  0  0  0  0  0  0  0  0  0  0  0
  -16.6716   26.4174   -0.0870 C   0  0  0  0  0  0  0  0  0  0  0  0
  -17.0458   27.2492    1.0852 N   0  3  0  0  0  0  0  0  0  0  0  0
  -18.0451   26.5616    1.9431 C   0  0  0  0  0  0  0  0  0  0  0  0
  -17.5320   28.6014    0.6413 C   0  0  0  0  0  0  0  0  0  0  0  0
  -18.2593   23.1917    3.5100 C   0  0  0  0  0  0  0  0  0  0  0  0
  -18.9949   23.5408    2.2390 C   0  0  0  0  0  0  0  0  0  0  0  0
  -18.9091   22.8587    4.4884 O   0  0  0  0  0  0  0  0  0  0  0  0
  1  7  1  0  0  0  0
  1  9  1  0  0  0  0
  2  8  1  0  0  0  0
  2 14  1  0  0  0  0
  2 15  1  0  0  0  0
  3  4  2  0  0  0  0
  3  8  1  0  0  0  0
  4  5  1  0  0  0  0
  4 21  1  0  0  0  0
  5  6  2  0  0  0  0
  6  7  1  0  0  0  0
  7  8  2  0  0  0  0
  9 10  2  0  0  0  0
  9 14  1  0  0  0  0
 10 11  1  0  0  0  0
 11 12  2  0  0  0  0
 12 13  1  0  0  0  0
 13 14  2  0  0  0  0
 15 16  1  0  0  0  0
 16 17  1  0  0  0  0
 17 18  1  0  0  0  0
 18 19  1  0  0  0  0
 18 20  1  0  0  0  0
 21 22  1  0  0  0  0
 21 23  2  0  0  0  0
M  CHG  1  18   1
M  END
>  <CHROM.1>
-49.65863503,18.73350263,150.78747113,-55.21279140,46.99932254,-14.96927658
24.02576289,2.10788259,0.25294008,-0.37452407,2.31583739

>  <Name>


>  <RI>
0

>  <Rbt.Current_Directory>
/home/itssahil/PROJECTS/Mol_Feturizer/New_Systems/rnas/1lvj

>  <Rbt.Executable>
rbdock ($Id: //depot/dev/client3/rdock/2013.1/src/exe/rbdock.cxx#4 $)

>  <Rbt.Library>
libRbt.so (2013.1, Build901 2013/11/27)

>  <Rbt.Parameter_File>
/export/apps/rDock/src/rDock_2013.1_src/data/scripts/dock_solv.prm

>  <Rbt.Receptor>
prm/blind_docking_80.prm

>  <SCORE>
-30.094

>  <SCORE.INTER>
-29.3397

>  <SCORE.INTER.CONST>
1

>  <SCORE.INTER.POLAR>
-2.42784

>  <SCORE.INTER.ROT>
5

>  <SCORE.INTER.SOLV>
16.4659

>  <SCORE.INTER.VDW>
-23.889

>  <SCORE.INTER.norm>
-1.27564

>  <SCORE.INTRA>
-0.781459

>  <SCORE.INTRA.DIHEDRAL>
-2.91435

>  <SCORE.INTRA.DIHEDRAL.0>
8.06479

>  <SCORE.INTRA.POLAR>
0

>  <SCORE.INTRA.POLAR.0>
0

>  <SCORE.INTRA.REPUL>
0

>  <SCORE.INTRA.REPUL.0>
0

>  <SCORE.INTRA.SOLV>
2.87112

>  <SCORE.INTRA.SOLV.lig_0>
-29.8054

>  <SCORE.INTRA.VDW>
-0.759846

>  <SCORE.INTRA.VDW.0>
2.61447

>  <SCORE.INTRA.norm>
-0.0339765

>  <SCORE.RESTR>
0.027217

>  <SCORE.RESTR.CAVITY>
0.027217

>  <SCORE.RESTR.norm>
0.00118335

>  <SCORE.SYSTEM>
0

>  <SCORE.SYSTEM.CONST>
0

>  <SCORE.SYSTEM.DIHEDRAL>
0

>  <SCORE.SYSTEM.SOLV>
0

>  <SCORE.SYSTEM.norm>
0

>  <SCORE.heavy>
23

>  <SCORE.norm>
-1.30843

>  <RMSD>
20.778

$$$$

 OpenBabel11021811403D
libRbt.so/2013.1/901 2013/11/27
 23 25  0  0  0  0  0  0  0  0999 V2000
  -13.0496   22.2242    1.0573 S   0  0  0  0  0  0  0  0  0  0  0  0
  -15.3920   23.0157    2.7175 N   0  0  0  0  0  0  0  0  0  0  0  0
  -15.7865   25.1509    1.6690 C   0  0  0  0  0  0  0  0  0  0  0  0
  -15.4269   26.0934    0.6966 C   0  0  0  0  0  0  0  0  0  0  0  0
  -14.3556   25.8464   -0.1564 C   0  0  0  0  0  0  0  0  0  0  0  0
  -13.6359   24.6621   -0.0410 C   0  0  0  0  0  0  0  0  0  0  0  0
  -13.9827   23.7193    0.9233 C   0  0  0  0  0  0  0  0  0  0  0  0
  -15.0606   23.9570    1.7846 C   0  0  0  0  0  0  0  0  0  0  0  0
  -13.1223   22.2718    2.8201 C   0  0  0  0  0  0  0  0  0  0  0  0
  -12.0040   21.9119    3.5777 C   0  0  0  0  0  0  0  0  0  0  0  0
  -12.0674   21.9461    4.9737 C   0  0  0  0  0  0  0  0  0  0  0  0
  -13.2514   22.3365    5.6077 C   0  0  0  0  0  0  0  0  0  0  0  0
  -14.3642   22.6937    4.8455 C   0  0  0  0  0  0  0  0  0  0  0  0
  -14.3037   22.6653    3.4591 C   0  0  0  0  0  0  0  0  0  0  0  0
  -16.7300   23.0391    3.3588 C   0  0  0  0  0  0  0  0  0  0  0  0
  -17.9602   23.3212    2.4332 C   0  0  0  0  0  0  0  0  0  0  0  0
  -19.3195   23.4011    3.2088 C   0  0  0  0  0  0  0  0  0  0  0  0
  -19.4465   24.4290    4.2732 N   0  3  0  0  0  0  0  0  0  0  0  0
  -20.7832   24.3797    4.9200 C   0  0  0  0  0  0  0  0  0  0  0  0
  -19.1443   25.7973    3.7269 C   0  0  0  0  0  0  0  0  0  0  0  0
  -16.1916   27.3800    0.5691 C   0  0  0  0  0  0  0  0  0  0  0  0
  -17.5778   27.5457    1.1434 C   0  0  0  0  0  0  0  0  0  0  0  0
  -15.6599   28.3427    0.0393 O   0  0  0  0  0  0  0  0  0  0  0  0
  1  7  1  0  0  0  0
  1  9  1  0  0  0  0
  2  8  1  0  0  0  0
  2 14  1  0  0  0  0
  2 15  1  0  0  0  0
  3  4  2  0  0  0  0
  3  8  1  0  0  0  0
  4  5  1  0  0  0  0
  4 21  1  0  0  0  0
  5  6  2  0  0  0  0
  6  7  1  0  0  0  0
  7  8  2  0  0  0  0
  9 10  2  0  0  0  0
  9 14  1  0  0  0  0
 10 11  1  0  0  0  0
 11 12  2  0  0  0  0
 12 13  1  0  0  0  0
 13 14  2  0  0  0  0
 15 16  1  0  0  0  0
 16 17  1  0  0  0  0
 17 18  1  0  0  0  0
 18 19  1  0  0  0  0
 18 20  1  0  0  0  0
 21 22  1  0  0  0  0
 21 23  2  0  0  0  0
M  CHG  1  18   1
M  END
>  <CHROM.1>
42.54648375,-18.98130225,-176.97269404,59.13834063,-59.79666974,-15.57065027
24.12154307,2.44495983,-0.36181205,0.36749747,-0.79070839

>  <Name>


>  <RI>
0

>  <Rbt.Current_Directory>
/home/itssahil/PROJECTS/Mol_Feturizer/New_Systems/rnas/1lvj

>  <Rbt.Executable>
rbdock ($Id: //depot/dev/client3/rdock/2013.1/src/exe/rbdock.cxx#4 $)

>  <Rbt.Library>
libRbt.so (2013.1, Build901 2013/11/27)

>  <Rbt.Parameter_File>
/export/apps/rDock/src/rDock_2013.1_src/data/scripts/dock_solv.prm

>  <Rbt.Receptor>
prm/blind_docking_60.prm

>  <SCORE>
-38.3609

>  <SCORE.INTER>
-34.8165

>  <SCORE.INTER.CONST>
1

>  <SCORE.INTER.POLAR>
-1.23693

>  <SCORE.INTER.ROT>
5

>  <SCORE.INTER.SOLV>
16.7383

>  <SCORE.INTER.VDW>
-31.6007

>  <SCORE.INTER.norm>
-1.51376

>  <SCORE.INTRA>
-3.54436

>  <SCORE.INTRA.DIHEDRAL>
-6.16475

>  <SCORE.INTRA.DIHEDRAL.0>
8.06479

>  <SCORE.INTRA.POLAR>
0

>  <SCORE.INTRA.POLAR.0>
0

>  <SCORE.INTRA.REPUL>
0

>  <SCORE.INTRA.REPUL.0>
0

>  <SCORE.INTRA.SOLV>
1.83541

>  <SCORE.INTRA.SOLV.lig_0>
-29.8054

>  <SCORE.INTRA.VDW>
-1.37969

>  <SCORE.INTRA.VDW.0>
2.61447

>  <SCORE.INTRA.norm>
-0.154103

>  <SCORE.RESTR>
0

>  <SCORE.RESTR.CAVITY>
0

>  <SCORE.RESTR.norm>
0

>  <SCORE.SYSTEM>
0

>  <SCORE.SYSTEM.CONST>
0

>  <SCORE.SYSTEM.DIHEDRAL>
0

>  <SCORE.SYSTEM.SOLV>
0

>  <SCORE.SYSTEM.norm>
0

>  <SCORE.heavy>
23

>  <SCORE.norm>
-1.66786

>  <RMSD>
20.781

$$$$

 OpenBabel11021811403D
libRbt.so/2013.1/901 2013/11/27
 23 25  0  0  0  0  0  0  0  0999 V2000
  -13.2706   22.6880    0.8360 S   0  0  0  0  0  0  0  0  0  0  0  0
  -15.3664   23.1059    2.9102 N   0  0  0  0  0  0  0  0  0  0  0  0
  -16.1925   25.2106    2.0723 C   0  0  0  0  0  0  0  0  0  0  0  0
  -16.1243   26.2281    1.1115 C   0  0  0  0  0  0  0  0  0  0  0  0
  -15.1960   26.1544    0.0774 C   0  0  0  0  0  0  0  0  0  0  0  0
  -14.3294   25.0696   -0.0007 C   0  0  0  0  0  0  0  0  0  0  0  0
  -14.3865   24.0538    0.9502 C   0  0  0  0  0  0  0  0  0  0  0  0
  -15.3187   24.1171    1.9928 C   0  0  0  0  0  0  0  0  0  0  0  0
  -13.0405   22.6585    2.5856 C   0  0  0  0  0  0  0  0  0  0  0  0
  -11.7722   22.4176    3.1218 C   0  0  0  0  0  0  0  0  0  0  0  0
  -11.5952   22.3901    4.5080 C   0  0  0  0  0  0  0  0  0  0  0  0
  -12.6891   22.5996    5.3541 C   0  0  0  0  0  0  0  0  0  0  0  0
  -13.9525   22.8388    4.8123 C   0  0  0  0  0  0  0  0  0  0  0  0
  -14.1313   22.8712    3.4362 C   0  0  0  0  0  0  0  0  0  0  0  0
  -16.5651   22.9317    3.7673 C   0  0  0  0  0  0  0  0  0  0  0  0
  -17.9622   23.1214    3.0876 C   0  0  0  0  0  0  0  0  0  0  0  0
  -18.9079   24.0980    3.8667 C   0  0  0  0  0  0  0  0  0  0  0  0
  -20.2644   24.3347    3.3100 N   0  3  0  0  0  0  0  0  0  0  0  0
  -20.2051   25.1122    2.0453 C   0  0  0  0  0  0  0  0  0  0  0  0
  -21.1466   25.0005    4.3301 C   0  0  0  0  0  0  0  0  0  0  0  0
  -17.0494   27.4089    1.1913 C   0  0  0  0  0  0  0  0  0  0  0  0
  -17.0363   28.5054    0.1538 C   0  0  0  0  0  0  0  0  0  0  0  0
  -17.8792   27.4604    2.0851 O   0  0  0  0  0  0  0  0  0  0  0  0
  1  7  1  0  0  0  0
  1  9  1  0  0  0  0
  2  8  1  0  0  0  0
  2 14  1  0  0  0  0
  2 15  1  0  0  0  0
  3  4  2  0  0  0  0
  3  8  1  0  0  0  0
  4  5  1  0  0  0  0
  4 21  1  0  0  0  0
  5  6  2  0  0  0  0
  6  7  1  0  0  0  0
  7  8  2  0  0  0  0
  9 10  2  0  0  0  0
  9 14  1  0  0  0  0
 10 11  1  0  0  0  0
 11 12  2  0  0  0  0
 12 13  1  0  0  0  0
 13 14  2  0  0  0  0
 15 16  1  0  0  0  0
 16 17  1  0  0  0  0
 17 18  1  0  0  0  0
 18 19  1  0  0  0  0
 18 20  1  0  0  0  0
 21 22  1  0  0  0  0
 21 23  2  0  0  0  0
M  CHG  1  18   1
M  END
>  <CHROM.1>
41.11535159,-178.13910334,-129.56209322,-179.39008342,50.64854121,-15.83898562
24.30962619,2.42465753,-0.36426666,0.28822654,-0.80338708

>  <Name>


>  <RI>
0

>  <Rbt.Current_Directory>
/home/itssahil/PROJECTS/Mol_Feturizer/New_Systems/rnas/1lvj

>  <Rbt.Executable>
rbdock ($Id: //depot/dev/client3/rdock/2013.1/src/exe/rbdock.cxx#4 $)

>  <Rbt.Library>
libRbt.so (2013.1, Build901 2013/11/27)

>  <Rbt.Parameter_File>
/export/apps/rDock/src/rDock_2013.1_src/data/scripts/dock_solv.prm

>  <Rbt.Receptor>
prm/blind_docking_60.prm

>  <SCORE>
-28.7759

>  <SCORE.INTER>
-26.0532

>  <SCORE.INTER.CONST>
1

>  <SCORE.INTER.POLAR>
0

>  <SCORE.INTER.ROT>
5

>  <SCORE.INTER.SOLV>
17.779

>  <SCORE.INTER.VDW>
-30.2284

>  <SCORE.INTER.norm>
-1.13275

>  <SCORE.INTRA>
-2.72273

>  <SCORE.INTRA.DIHEDRAL>
-2.28911

>  <SCORE.INTRA.DIHEDRAL.0>
8.06479

>  <SCORE.INTRA.POLAR>
0

>  <SCORE.INTRA.POLAR.0>
0

>  <SCORE.INTRA.REPUL>
0

>  <SCORE.INTRA.REPUL.0>
0

>  <SCORE.INTRA.SOLV>
0.750785

>  <SCORE.INTRA.SOLV.lig_0>
-29.8054

>  <SCORE.INTRA.VDW>
-1.95357

>  <SCORE.INTRA.VDW.0>
2.61447

>  <SCORE.INTRA.norm>
-0.11838

>  <SCORE.RESTR>
0

>  <SCORE.RESTR.CAVITY>
0

>  <SCORE.RESTR.norm>
0

>  <SCORE.SYSTEM>
0

>  <SCORE.SYSTEM.CONST>
0

>  <SCORE.SYSTEM.DIHEDRAL>
0

>  <SCORE.SYSTEM.SOLV>
0

>  <SCORE.SYSTEM.norm>
0

>  <SCORE.heavy>
23

>  <SCORE.norm>
-1.25113

>  <RMSD>
20.785

$$$$

 OpenBabel11021811403D
libRbt.so/2013.1/901 2013/11/27
 23 25  0  0  0  0  0  0  0  0999 V2000
  -13.1958   22.2232    1.0193 S   0  0  0  0  0  0  0  0  0  0  0  0
  -15.4080   23.0286    2.8432 N   0  0  0  0  0  0  0  0  0  0  0  0
  -15.9104   25.1350    1.7827 C   0  0  0  0  0  0  0  0  0  0  0  0
  -15.6406   26.0586    0.7642 C   0  0  0  0  0  0  0  0  0  0  0  0
  -14.6377   25.8030   -0.1660 C   0  0  0  0  0  0  0  0  0  0  0  0
  -13.8969   24.6291   -0.0824 C   0  0  0  0  0  0  0  0  0  0  0  0
  -14.1546   23.7052    0.9272 C   0  0  0  0  0  0  0  0  0  0  0  0
  -15.1633   23.9516    1.8663 C   0  0  0  0  0  0  0  0  0  0  0  0
  -13.1287   22.3105    2.7807 C   0  0  0  0  0  0  0  0  0  0  0  0
  -11.9493   21.9795    3.4544 C   0  0  0  0  0  0  0  0  0  0  0  0
  -11.9018   22.0451    4.8499 C   0  0  0  0  0  0  0  0  0  0  0  0
  -13.0362   22.4379    5.5677 C   0  0  0  0  0  0  0  0  0  0  0  0
  -14.2104   22.7661    4.8890 C   0  0  0  0  0  0  0  0  0  0  0  0
  -14.2601   22.7064    3.5031 C   0  0  0  0  0  0  0  0  0  0  0  0
  -16.6909   23.0531    3.5887 C   0  0  0  0  0  0  0  0  0  0  0  0
  -18.0048   23.1606    2.7448 C   0  0  0  0  0  0  0  0  0  0  0  0
  -19.2932   23.3469    3.6168 C   0  0  0  0  0  0  0  0  0  0  0  0
  -19.8336   24.7226    3.7634 N   0  3  0  0  0  0  0  0  0  0  0  0
  -20.3196   25.2571    2.4651 C   0  0  0  0  0  0  0  0  0  0  0  0
  -18.8099   25.6297    4.3889 C   0  0  0  0  0  0  0  0  0  0  0  0
  -16.4284   27.3341    0.6696 C   0  0  0  0  0  0  0  0  0  0  0  0
  -17.7105   27.5399    1.4394 C   0  0  0  0  0  0  0  0  0  0  0  0
  -15.9946   28.2577   -0.0003 O   0  0  0  0  0  0  0  0  0  0  0  0
  1  7  1  0  0  0  0
  1  9  1  0  0  0  0
  2  8  1  0  0  0  0
  2 14  1  0  0  0  0
  2 15  1  0  0  0  0
  3  4  2  0  0  0  0
  3  8  1  0  0  0  0
  4  5  1  0  0  0  0
  4 21  1  0  0  0  0
  5  6  2  0  0  0  0
  6  7  1  0  0  0  0
  7  8  2  0  0  0  0
  9 10  2  0  0  0  0
  9 14  1  0  0  0  0
 10 11  1  0  0  0  0
 11 12  2  0  0  0  0
 12 13  1  0  0  0  0
 13 14  2  0  0  0  0
 15 16  1  0  0  0  0
 16 17  1  0  0  0  0
 17 18  1  0  0  0  0
 18 19  1  0  0  0  0
 18 20  1  0  0  0  0
 21 22  1  0  0  0  0
 21 23  2  0  0  0  0
M  CHG  1  18   1
M  END
>  <CHROM.1>
48.37887740,-13.87976248,-173.30248931,99.27065719,-174.72988435,-15.62117421
24.16460611,2.39534861,-0.48456218,0.35359860,-0.82373429

>  <Name>


>  <RI>
0

>  <Rbt.Current_Directory>
/home/itssahil/PROJECTS/Mol_Feturizer/New_Systems/rnas/1lvj

>  <Rbt.Executable>
rbdock ($Id: //depot/dev/client3/rdock/2013.1/src/exe/rbdock.cxx#4 $)

>  <Rbt.Library>
libRbt.so (2013.1, Build901 2013/11/27)

>  <Rbt.Parameter_File>
/export/apps/rDock/src/rDock_2013.1_src/data/scripts/dock_solv.prm

>  <Rbt.Receptor>
prm/blind_docking_60.prm

>  <SCORE>
-33.1929

>  <SCORE.INTER>
-30.1254

>  <SCORE.INTER.CONST>
1

>  <SCORE.INTER.POLAR>
0

>  <SCORE.INTER.ROT>
5

>  <SCORE.INTER.SOLV>
11.6598

>  <SCORE.INTER.VDW>
-30.9035

>  <SCORE.INTER.norm>
-1.3098

>  <SCORE.INTRA>
-3.07741

>  <SCORE.INTRA.DIHEDRAL>
-2.6755

>  <SCORE.INTRA.DIHEDRAL.0>
8.06479

>  <SCORE.INTRA.POLAR>
0

>  <SCORE.INTRA.POLAR.0>
0

>  <SCORE.INTRA.REPUL>
0

>  <SCORE.INTRA.REPUL.0>
0

>  <SCORE.INTRA.SOLV>
-0.569205

>  <SCORE.INTRA.SOLV.lig_0>
-29.8054

>  <SCORE.INTRA.VDW>
-1.45506

>  <SCORE.INTRA.VDW.0>
2.61447

>  <SCORE.INTRA.norm>
-0.1338

>  <SCORE.RESTR>
0.00997961

>  <SCORE.RESTR.CAVITY>
0.00997961

>  <SCORE.RESTR.norm>
0.000433896

>  <SCORE.SYSTEM>
0

>  <SCORE.SYSTEM.CONST>
0

>  <SCORE.SYSTEM.DIHEDRAL>
0

>  <SCORE.SYSTEM.SOLV>
0

>  <SCORE.SYSTEM.norm>
0

>  <SCORE.heavy>
23

>  <SCORE.norm>
-1.44317

>  <RMSD>
20.793

$$$$

 OpenBabel11021811403D
libRbt.so/2013.1/901 2013/11/27
 23 25  0  0  0  0  0  0  0  0999 V2000
  -12.7544   22.0303    1.0796 S   0  0  0  0  0  0  0  0  0  0  0  0
  -14.9380   22.9143    2.9017 N   0  0  0  0  0  0  0  0  0  0  0  0
  -15.4466   24.9811    1.7686 C   0  0  0  0  0  0  0  0  0  0  0  0
  -15.1874   25.8640    0.7121 C   0  0  0  0  0  0  0  0  0  0  0  0
  -14.1984   25.5688   -0.2213 C   0  0  0  0  0  0  0  0  0  0  0  0
  -13.4612   24.3956   -0.1032 C   0  0  0  0  0  0  0  0  0  0  0  0
  -13.7085   23.5119    0.9443 C   0  0  0  0  0  0  0  0  0  0  0  0
  -14.7031   23.7984    1.8871 C   0  0  0  0  0  0  0  0  0  0  0  0
  -12.6625   22.1842    2.8354 C   0  0  0  0  0  0  0  0  0  0  0  0
  -11.4753   21.8738    3.5050 C   0  0  0  0  0  0  0  0  0  0  0  0
  -11.4083   21.9922    4.8962 C   0  0  0  0  0  0  0  0  0  0  0  0
  -12.5310   22.4170    5.6139 C   0  0  0  0  0  0  0  0  0  0  0  0
  -13.7132   22.7245    4.9394 C   0  0  0  0  0  0  0  0  0  0  0  0
  -13.7823   22.6124    3.5576 C   0  0  0  0  0  0  0  0  0  0  0  0
  -16.2103   22.9729    3.6631 C   0  0  0  0  0  0  0  0  0  0  0  0
  -17.5278   23.1565    2.8383 C   0  0  0  0  0  0  0  0  0  0  0  0
  -18.6624   23.8923    3.6300 C   0  0  0  0  0  0  0  0  0  0  0  0
  -19.9831   24.0379    2.9665 N   0  3  0  0  0  0  0  0  0  0  0  0
  -19.9069   24.9527    1.7981 C   0  0  0  0  0  0  0  0  0  0  0  0
  -21.0255   24.4849    3.9543 C   0  0  0  0  0  0  0  0  0  0  0  0
  -15.9714   27.1385    0.5798 C   0  0  0  0  0  0  0  0  0  0  0  0
  -17.4028   27.2478    1.0465 C   0  0  0  0  0  0  0  0  0  0  0  0
  -15.4232   28.1358    0.1380 O   0  0  0  0  0  0  0  0  0  0  0  0
  1  7  1  0  0  0  0
  1  9  1  0  0  0  0
  2  8  1  0  0  0  0
  2 14  1  0  0  0  0
  2 15  1  0  0  0  0
  3  4  2  0  0  0  0
  3  8  1  0  0  0  0
  4  5  1  0  0  0  0
  4 21  1  0  0  0  0
  5  6  2  0  0  0  0
  6  7  1  0  0  0  0
  7  8  2  0  0  0  0
  9 10  2  0  0  0  0
  9 14  1  0  0  0  0
 10 11  1  0  0  0  0
 11 12  2  0  0  0  0
 12 13  1  0  0  0  0
 13 14  2  0  0  0  0
 15 16  1  0  0  0  0
 16 17  1  0  0  0  0
 17 18  1  0  0  0  0
 18 19  1  0  0  0  0
 18 20  1  0  0  0  0
 21 22  1  0  0  0  0
 21 23  2  0  0  0  0
M  CHG  1  18   1
M  END
>  <CHROM.1>
44.14861210,-30.71193773,-151.43270845,-176.11572725,52.46029070,-15.30319862
23.97192312,2.31443021,-0.39451375,0.24221650,-0.81149501

>  <Name>


>  <RI>
0

>  <Rbt.Current_Directory>
/home/itssahil/PROJECTS/Mol_Feturizer/New_Systems/rnas/1lvj

>  <Rbt.Executable>
rbdock ($Id: //depot/dev/client3/rdock/2013.1/src/exe/rbdock.cxx#4 $)

>  <Rbt.Library>
libRbt.so (2013.1, Build901 2013/11/27)

>  <Rbt.Parameter_File>
/export/apps/rDock/src/rDock_2013.1_src/data/scripts/dock_solv.prm

>  <Rbt.Receptor>
prm/blind_docking_40.prm

>  <SCORE>
-31.8343

>  <SCORE.INTER>
-29.8845

>  <SCORE.INTER.CONST>
1

>  <SCORE.INTER.POLAR>
-0.433907

>  <SCORE.INTER.ROT>
5

>  <SCORE.INTER.SOLV>
18.9884

>  <SCORE.INTER.VDW>
-31.7394

>  <SCORE.INTER.norm>
-1.29933

>  <SCORE.INTRA>
-2.80505

>  <SCORE.INTRA.DIHEDRAL>
-1.3477

>  <SCORE.INTRA.DIHEDRAL.0>
8.06479

>  <SCORE.INTRA.POLAR>
0

>  <SCORE.INTRA.POLAR.0>
0

>  <SCORE.INTRA.REPUL>
0

>  <SCORE.INTRA.REPUL.0>
0

>  <SCORE.INTRA.SOLV>
0.351648

>  <SCORE.INTRA.SOLV.lig_0>
-29.8054

>  <SCORE.INTRA.VDW>
-2.30702

>  <SCORE.INTRA.VDW.0>
2.61447

>  <SCORE.INTRA.norm>
-0.121959

>  <SCORE.RESTR>
0.855208

>  <SCORE.RESTR.CAVITY>
0.855208

>  <SCORE.RESTR.norm>
0.037183

>  <SCORE.SYSTEM>
0

>  <SCORE.SYSTEM.CONST>
0

>  <SCORE.SYSTEM.DIHEDRAL>
0

>  <SCORE.SYSTEM.SOLV>
0

>  <SCORE.SYSTEM.norm>
0

>  <SCORE.heavy>
23

>  <SCORE.norm>
-1.3841

>  <RMSD>
20.797

$$$$

 OpenBabel11021811403D
libRbt.so/2013.1/901 2013/11/27
 23 25  0  0  0  0  0  0  0  0999 V2000
  -13.2155   22.2396    1.0222 S   0  0  0  0  0  0  0  0  0  0  0  0
  -15.4738   23.0120    2.8034 N   0  0  0  0  0  0  0  0  0  0  0  0
  -15.9503   25.1369    1.7682 C   0  0  0  0  0  0  0  0  0  0  0  0
  -15.6554   26.0786    0.7735 C   0  0  0  0  0  0  0  0  0  0  0  0
  -14.6290   25.8397   -0.1354 C   0  0  0  0  0  0  0  0  0  0  0  0
  -13.8899   24.6646   -0.0539 C   0  0  0  0  0  0  0  0  0  0  0  0
  -14.1725   23.7229    0.9322 C   0  0  0  0  0  0  0  0  0  0  0  0
  -15.2049   23.9523    1.8497 C   0  0  0  0  0  0  0  0  0  0  0  0
  -13.1931   22.2955    2.7860 C   0  0  0  0  0  0  0  0  0  0  0  0
  -12.0311   21.9527    3.4834 C   0  0  0  0  0  0  0  0  0  0  0  0
  -12.0190   21.9935    4.8806 C   0  0  0  0  0  0  0  0  0  0  0  0
  -13.1715   22.3732    5.5762 C   0  0  0  0  0  0  0  0  0  0  0  0
  -14.3282   22.7133    4.8740 C   0  0  0  0  0  0  0  0  0  0  0  0
  -14.3427   22.6783    3.4864 C   0  0  0  0  0  0  0  0  0  0  0  0
  -16.7752   23.0230    3.5164 C   0  0  0  0  0  0  0  0  0  0  0  0
  -18.0619   23.2315    2.6499 C   0  0  0  0  0  0  0  0  0  0  0  0
  -18.8090   24.5746    2.9550 C   0  0  0  0  0  0  0  0  0  0  0  0
  -19.3062   24.7882    4.3382 N   0  3  0  0  0  0  0  0  0  0  0  0
  -20.6863   24.2645    4.5069 C   0  0  0  0  0  0  0  0  0  0  0  0
  -19.2138   26.2411    4.7156 C   0  0  0  0  0  0  0  0  0  0  0  0
  -16.4413   27.3554    0.6817 C   0  0  0  0  0  0  0  0  0  0  0  0
  -17.7042   27.5750    1.4789 C   0  0  0  0  0  0  0  0  0  0  0  0
  -16.0206   28.2693   -0.0097 O   0  0  0  0  0  0  0  0  0  0  0  0
  1  7  1  0  0  0  0
  1  9  1  0  0  0  0
  2  8  1  0  0  0  0
  2 14  1  0  0  0  0
  2 15  1  0  0  0  0
  3  4  2  0  0  0  0
  3  8  1  0  0  0  0
  4  5  1  0  0  0  0
  4 21  1  0  0  0  0
  5  6  2  0  0  0  0
  6  7  1  0  0  0  0
  7  8  2  0  0  0  0
  9 10  2  0  0  0  0
  9 14  1  0  0  0  0
 10 11  1  0  0  0  0
 11 12  2  0  0  0  0
 12 13  1  0  0  0  0
 13 14  2  0  0  0  0
 15 16  1  0  0  0  0
 16 17  1  0  0  0  0
 17 18  1  0  0  0  0
 18 19  1  0  0  0  0
 18 20  1  0  0  0  0
 21 22  1  0  0  0  0
 21 23  2  0  0  0  0
M  CHG  1  18   1
M  END
>  <CHROM.1>
44.81415623,-10.57423331,-114.33926534,-60.00759712,30.45901172,-15.64670971
24.20185892,2.49872534,-0.39274483,0.43474302,-0.84439685

>  <Name>


>  <RI>
0

>  <Rbt.Current_Directory>
/home/itssahil/PROJECTS/Mol_Feturizer/New_Systems/rnas/1lvj

>  <Rbt.Executable>
rbdock ($Id: //depot/dev/client3/rdock/2013.1/src/exe/rbdock.cxx#4 $)

>  <Rbt.Library>
libRbt.so (2013.1, Build901 2013/11/27)

>  <Rbt.Parameter_File>
/export/apps/rDock/src/rDock_2013.1_src/data/scripts/dock_solv.prm

>  <Rbt.Receptor>
prm/blind_docking_60.prm

>  <SCORE>
-34.7615

>  <SCORE.INTER>
-33.4047

>  <SCORE.INTER.CONST>
1

>  <SCORE.INTER.POLAR>
-1.23693

>  <SCORE.INTER.ROT>
5

>  <SCORE.INTER.SOLV>
16.2704

>  <SCORE.INTER.VDW>
-30.5035

>  <SCORE.INTER.norm>
-1.45238

>  <SCORE.INTRA>
-1.35673

>  <SCORE.INTRA.DIHEDRAL>
0.0467469

>  <SCORE.INTRA.DIHEDRAL.0>
8.06479

>  <SCORE.INTRA.POLAR>
0

>  <SCORE.INTRA.POLAR.0>
0

>  <SCORE.INTRA.REPUL>
0

>  <SCORE.INTRA.REPUL.0>
0

>  <SCORE.INTRA.SOLV>
2.29292

>  <SCORE.INTRA.SOLV.lig_0>
-29.8054

>  <SCORE.INTRA.VDW>
-2.52656

>  <SCORE.INTRA.VDW.0>
2.61447

>  <SCORE.INTRA.norm>
-0.0589881

>  <SCORE.RESTR>
0

>  <SCORE.RESTR.CAVITY>
0

>  <SCORE.RESTR.norm>
0

>  <SCORE.SYSTEM>
0

>  <SCORE.SYSTEM.CONST>
0

>  <SCORE.SYSTEM.DIHEDRAL>
0

>  <SCORE.SYSTEM.SOLV>
0

>  <SCORE.SYSTEM.norm>
0

>  <SCORE.heavy>
23

>  <SCORE.norm>
-1.51137

>  <RMSD>
20.808

$$$$

 OpenBabel11021811403D
libRbt.so/2013.1/901 2013/11/27
 23 25  0  0  0  0  0  0  0  0999 V2000
  -12.7283   22.0568    1.0867 S   0  0  0  0  0  0  0  0  0  0  0  0
  -14.9408   22.9217    2.8827 N   0  0  0  0  0  0  0  0  0  0  0  0
  -15.4374   24.9961    1.7583 C   0  0  0  0  0  0  0  0  0  0  0  0
  -15.1645   25.8879    0.7126 C   0  0  0  0  0  0  0  0  0  0  0  0
  -14.1611   25.6021   -0.2082 C   0  0  0  0  0  0  0  0  0  0  0  0
  -13.4229   24.4297   -0.0881 C   0  0  0  0  0  0  0  0  0  0  0  0
  -13.6837   23.5374    0.9487 C   0  0  0  0  0  0  0  0  0  0  0  0
  -14.6930   23.8142    1.8786 C   0  0  0  0  0  0  0  0  0  0  0  0
  -12.6629   22.1972    2.8448 C   0  0  0  0  0  0  0  0  0  0  0  0
  -11.4851   21.8843    3.5296 C   0  0  0  0  0  0  0  0  0  0  0  0
  -11.4391   21.9920    4.9225 C   0  0  0  0  0  0  0  0  0  0  0  0
  -12.5734   22.4087    5.6267 C   0  0  0  0  0  0  0  0  0  0  0  0
  -13.7461   22.7188    4.9370 C   0  0  0  0  0  0  0  0  0  0  0  0
  -13.7943   22.6173    3.5535 C   0  0  0  0  0  0  0  0  0  0  0  0
  -16.2245   22.9715    3.6255 C   0  0  0  0  0  0  0  0  0  0  0  0
  -17.5286   23.1740    2.7840 C   0  0  0  0  0  0  0  0  0  0  0  0
  -18.6553   23.9438    3.5543 C   0  0  0  0  0  0  0  0  0  0  0  0
  -19.9895   24.0404    2.9090 N   0  3  0  0  0  0  0  0  0  0  0  0
  -19.9569   24.9361    1.7240 C   0  0  0  0  0  0  0  0  0  0  0  0
  -21.0292   24.4750    3.9050 C   0  0  0  0  0  0  0  0  0  0  0  0
  -15.9495   27.1616    0.5786 C   0  0  0  0  0  0  0  0  0  0  0  0
  -17.3723   27.2783    1.0690 C   0  0  0  0  0  0  0  0  0  0  0  0
  -15.4082   28.1527    0.1151 O   0  0  0  0  0  0  0  0  0  0  0  0
  1  7  1  0  0  0  0
  1  9  1  0  0  0  0
  2  8  1  0  0  0  0
  2 14  1  0  0  0  0
  2 15  1  0  0  0  0
  3  4  2  0  0  0  0
  3  8  1  0  0  0  0
  4  5  1  0  0  0  0
  4 21  1  0  0  0  0
  5  6  2  0  0  0  0
  6  7  1  0  0  0  0
  7  8  2  0  0  0  0
  9 10  2  0  0  0  0
  9 14  1  0  0  0  0
 10 11  1  0  0  0  0
 11 12  2  0  0  0  0
 12 13  1  0  0  0  0
 13 14  2  0  0  0  0
 15 16  1  0  0  0  0
 16 17  1  0  0  0  0
 17 18  1  0  0  0  0
 18 19  1  0  0  0  0
 18 20  1  0  0  0  0
 21 22  1  0  0  0  0
 21 23  2  0  0  0  0
M  CHG  1  18   1
M  END
>  <CHROM.1>
43.50933218,-28.51627837,-149.43422481,-172.55552241,49.94669547,-15.30043740
23.98585279,2.30196863,-0.40081258,0.23369627,-0.80440687

>  <Name>


>  <RI>
0

>  <Rbt.Current_Directory>
/home/itssahil/PROJECTS/Mol_Feturizer/New_Systems/rnas/1lvj

>  <Rbt.Executable>
rbdock ($Id: //depot/dev/client3/rdock/2013.1/src/exe/rbdock.cxx#4 $)

>  <Rbt.Library>
libRbt.so (2013.1, Build901 2013/11/27)

>  <Rbt.Parameter_File>
/export/apps/rDock/src/rDock_2013.1_src/data/scripts/dock_solv.prm

>  <Rbt.Receptor>
prm/blind_docking_40.prm

>  <SCORE>
-31.4159

>  <SCORE.INTER>
-29.4514

>  <SCORE.INTER.CONST>
1

>  <SCORE.INTER.POLAR>
-0.459337

>  <SCORE.INTER.ROT>
5

>  <SCORE.INTER.SOLV>
19.0472

>  <SCORE.INTER.VDW>
-31.3856

>  <SCORE.INTER.norm>
-1.2805

>  <SCORE.INTRA>
-2.75281

>  <SCORE.INTRA.DIHEDRAL>
-1.21291

>  <SCORE.INTRA.DIHEDRAL.0>
8.06479

>  <SCORE.INTRA.POLAR>
0

>  <SCORE.INTRA.POLAR.0>
0

>  <SCORE.INTRA.REPUL>
0

>  <SCORE.INTRA.REPUL.0>
0

>  <SCORE.INTRA.SOLV>
0.401709

>  <SCORE.INTRA.SOLV.lig_0>
-29.8054

>  <SCORE.INTRA.VDW>
-2.34722

>  <SCORE.INTRA.VDW.0>
2.61447

>  <SCORE.INTRA.norm>
-0.119688

>  <SCORE.RESTR>
0.788373

>  <SCORE.RESTR.CAVITY>
0.788373

>  <SCORE.RESTR.norm>
0.0342771

>  <SCORE.SYSTEM>
0

>  <SCORE.SYSTEM.CONST>
0

>  <SCORE.SYSTEM.DIHEDRAL>
0

>  <SCORE.SYSTEM.SOLV>
0

>  <SCORE.SYSTEM.norm>
0

>  <SCORE.heavy>
23

>  <SCORE.norm>
-1.36591

>  <RMSD>
20.810

$$$$

 OpenBabel11021811403D
libRbt.so/2013.1/901 2013/11/27
 23 25  0  0  0  0  0  0  0  0999 V2000
  -13.5625   22.5559    0.8857 S   0  0  0  0  0  0  0  0  0  0  0  0
  -15.7514   23.1008    2.8303 N   0  0  0  0  0  0  0  0  0  0  0  0
  -16.3401   25.2881    2.0038 C   0  0  0  0  0  0  0  0  0  0  0  0
  -16.1223   26.3192    1.0805 C   0  0  0  0  0  0  0  0  0  0  0  0
  -15.1356   26.1916    0.1074 C   0  0  0  0  0  0  0  0  0  0  0  0
  -14.3595   25.0390    0.0536 C   0  0  0  0  0  0  0  0  0  0  0  0
  -14.5655   24.0090    0.9678 C   0  0  0  0  0  0  0  0  0  0  0  0
  -15.5574   24.1262    1.9488 C   0  0  0  0  0  0  0  0  0  0  0  0
  -13.4545   22.4643    2.6449 C   0  0  0  0  0  0  0  0  0  0  0  0
  -12.2499   22.1029    3.2553 C   0  0  0  0  0  0  0  0  0  0  0  0
  -12.1699   22.0266    4.6487 C   0  0  0  0  0  0  0  0  0  0  0  0
  -13.2971   22.3082    5.4275 C   0  0  0  0  0  0  0  0  0  0  0  0
  -14.4966   22.6675    4.8118 C   0  0  0  0  0  0  0  0  0  0  0  0
  -14.5787   22.7487    3.4285 C   0  0  0  0  0  0  0  0  0  0  0  0
  -17.0157   23.0088    3.6018 C   0  0  0  0  0  0  0  0  0  0  0  0
  -18.3527   23.1503    2.8003 C   0  0  0  0  0  0  0  0  0  0  0  0
  -19.0191   24.5613    2.9423 C   0  0  0  0  0  0  0  0  0  0  0  0
  -20.0573   24.9366    1.9488 N   0  3  0  0  0  0  0  0  0  0  0  0
  -19.4505   25.3380    0.6533 C   0  0  0  0  0  0  0  0  0  0  0  0
  -20.9528   26.0123    2.4992 C   0  0  0  0  0  0  0  0  0  0  0  0
  -16.9486   27.5724    1.1351 C   0  0  0  0  0  0  0  0  0  0  0  0
  -16.8142   28.6635    0.1006 C   0  0  0  0  0  0  0  0  0  0  0  0
  -17.7975   27.6927    2.0040 O   0  0  0  0  0  0  0  0  0  0  0  0
  1  7  1  0  0  0  0
  1  9  1  0  0  0  0
  2  8  1  0  0  0  0
  2 14  1  0  0  0  0
  2 15  1  0  0  0  0
  3  4  2  0  0  0  0
  3  8  1  0  0  0  0
  4  5  1  0  0  0  0
  4 21  1  0  0  0  0
  5  6  2  0  0  0  0
  6  7  1  0  0  0  0
  7  8  2  0  0  0  0
  9 10  2  0  0  0  0
  9 14  1  0  0  0  0
 10 11  1  0  0  0  0
 11 12  2  0  0  0  0
 12 13  1  0  0  0  0
 13 14  2  0  0  0  0
 15 16  1  0  0  0  0
 16 17  1  0  0  0  0
 17 18  1  0  0  0  0
 18 19  1  0  0  0  0
 18 20  1  0  0  0  0
 21 22  1  0  0  0  0
 21 23  2  0  0  0  0
M  CHG  1  18   1
M  END
>  <CHROM.1>
48.83196322,-175.53785033,-102.16116983,163.15877310,42.53723302,-15.99355615
24.37859968,2.16255591,-0.63227200,0.24807577,-0.73701649

>  <Name>


>  <RI>
0

>  <Rbt.Current_Directory>
/home/itssahil/PROJECTS/Mol_Feturizer/New_Systems/rnas/1lvj

>  <Rbt.Executable>
rbdock ($Id: //depot/dev/client3/rdock/2013.1/src/exe/rbdock.cxx#4 $)

>  <Rbt.Library>
libRbt.so (2013.1, Build901 2013/11/27)

>  <Rbt.Parameter_File>
/export/apps/rDock/src/rDock_2013.1_src/data/scripts/dock_solv.prm

>  <Rbt.Receptor>
prm/blind_docking_80.prm

>  <SCORE>
-28.8233

>  <SCORE.INTER>
-26.9152

>  <SCORE.INTER.CONST>
1

>  <SCORE.INTER.POLAR>
0

>  <SCORE.INTER.ROT>
5

>  <SCORE.INTER.SOLV>
18.3075

>  <SCORE.INTER.VDW>
-30.9793

>  <SCORE.INTER.norm>
-1.17023

>  <SCORE.INTRA>
-2.66773

>  <SCORE.INTRA.DIHEDRAL>
-1.57514

>  <SCORE.INTRA.DIHEDRAL.0>
8.06479

>  <SCORE.INTRA.POLAR>
0

>  <SCORE.INTRA.POLAR.0>
0

>  <SCORE.INTRA.REPUL>
0

>  <SCORE.INTRA.REPUL.0>
0

>  <SCORE.INTRA.SOLV>
1.22918

>  <SCORE.INTRA.SOLV.lig_0>
-29.8054

>  <SCORE.INTRA.VDW>
-2.49475

>  <SCORE.INTRA.VDW.0>
2.61447

>  <SCORE.INTRA.norm>
-0.115988

>  <SCORE.RESTR>
0.759699

>  <SCORE.RESTR.CAVITY>
0.759699

>  <SCORE.RESTR.norm>
0.0330304

>  <SCORE.SYSTEM>
0

>  <SCORE.SYSTEM.CONST>
0

>  <SCORE.SYSTEM.DIHEDRAL>
0

>  <SCORE.SYSTEM.SOLV>
0

>  <SCORE.SYSTEM.norm>
0

>  <SCORE.heavy>
23

>  <SCORE.norm>
-1.25318

>  <RMSD>
20.829

$$$$

 OpenBabel11021811403D
libRbt.so/2013.1/901 2013/11/27
 23 25  0  0  0  0  0  0  0  0999 V2000
  -12.2342   23.1096    3.7967 S   0  0  0  0  0  0  0  0  0  0  0  0
  -13.8861   24.4875    1.7371 N   0  0  0  0  0  0  0  0  0  0  0  0
  -16.0397   23.8417    2.6083 C   0  0  0  0  0  0  0  0  0  0  0  0
  -16.7843   23.1649    3.5834 C   0  0  0  0  0  0  0  0  0  0  0  0
  -16.1386   22.4863    4.6125 C   0  0  0  0  0  0  0  0  0  0  0  0
  -14.7493   22.4756    4.6716 C   0  0  0  0  0  0  0  0  0  0  0  0
  -13.9991   23.1426    3.7065 C   0  0  0  0  0  0  0  0  0  0  0  0
  -14.6391   23.8306    2.6686 C   0  0  0  0  0  0  0  0  0  0  0  0
  -12.0929   22.9370    2.0459 C   0  0  0  0  0  0  0  0  0  0  0  0
  -11.1273   22.0854    1.5013 C   0  0  0  0  0  0  0  0  0  0  0  0
  -11.0154   21.9554    0.1140 C   0  0  0  0  0  0  0  0  0  0  0  0
  -11.8676   22.6812   -0.7245 C   0  0  0  0  0  0  0  0  0  0  0  0
  -12.8287   23.5300   -0.1743 C   0  0  0  0  0  0  0  0  0  0  0  0
  -12.9458   23.6584    1.2028 C   0  0  0  0  0  0  0  0  0  0  0  0
  -14.5015   25.5329    0.8824 C   0  0  0  0  0  0  0  0  0  0  0  0
  -15.8633   25.1823    0.1949 C   0  0  0  0  0  0  0  0  0  0  0  0
  -16.6827   26.4430   -0.2460 C   0  0  0  0  0  0  0  0  0  0  0  0
  -16.9637   27.4770    0.7825 N   0  3  0  0  0  0  0  0  0  0  0  0
  -17.8549   26.9540    1.8501 C   0  0  0  0  0  0  0  0  0  0  0  0
  -17.5283   28.7172    0.1461 C   0  0  0  0  0  0  0  0  0  0  0  0
  -18.2853   23.1623    3.5242 C   0  0  0  0  0  0  0  0  0  0  0  0
  -19.0372   23.6228    2.2990 C   0  0  0  0  0  0  0  0  0  0  0  0
  -18.9211   22.7203    4.4679 O   0  0  0  0  0  0  0  0  0  0  0  0
  1  7  1  0  0  0  0
  1  9  1  0  0  0  0
  2  8  1  0  0  0  0
  2 14  1  0  0  0  0
  2 15  1  0  0  0  0
  3  4  2  0  0  0  0
  3  8  1  0  0  0  0
  4  5  1  0  0  0  0
  4 21  1  0  0  0  0
  5  6  2  0  0  0  0
  6  7  1  0  0  0  0
  7  8  2  0  0  0  0
  9 10  2  0  0  0  0
  9 14  1  0  0  0  0
 10 11  1  0  0  0  0
 11 12  2  0  0  0  0
 12 13  1  0  0  0  0
 13 14  2  0  0  0  0
 15 16  1  0  0  0  0
 16 17  1  0  0  0  0
 17 18  1  0  0  0  0
 18 19  1  0  0  0  0
 18 20  1  0  0  0  0
 21 22  1  0  0  0  0
 21 23  2  0  0  0  0
M  CHG  1  18   1
M  END
>  <CHROM.1>
-47.76225802,12.80359911,159.39122522,-53.74618680,54.45176241,-14.98819869
24.08119779,2.04928406,0.30977747,-0.36775583,2.32501898

>  <Name>


>  <RI>
0

>  <Rbt.Current_Directory>
/home/itssahil/PROJECTS/Mol_Feturizer/New_Systems/rnas/1lvj

>  <Rbt.Executable>
rbdock ($Id: //depot/dev/client3/rdock/2013.1/src/exe/rbdock.cxx#4 $)

>  <Rbt.Library>
libRbt.so (2013.1, Build901 2013/11/27)

>  <Rbt.Parameter_File>
/export/apps/rDock/src/rDock_2013.1_src/data/scripts/dock_solv.prm

>  <Rbt.Receptor>
prm/blind_docking_80.prm

>  <SCORE>
-29.8437

>  <SCORE.INTER>
-27.613

>  <SCORE.INTER.CONST>
1

>  <SCORE.INTER.POLAR>
-1.94269

>  <SCORE.INTER.ROT>
5

>  <SCORE.INTER.SOLV>
16.6905

>  <SCORE.INTER.VDW>
-24.4299

>  <SCORE.INTER.norm>
-1.20057

>  <SCORE.INTRA>
-2.2307

>  <SCORE.INTRA.DIHEDRAL>
-4.95279

>  <SCORE.INTRA.DIHEDRAL.0>
8.06479

>  <SCORE.INTRA.POLAR>
0

>  <SCORE.INTRA.POLAR.0>
0

>  <SCORE.INTRA.REPUL>
0

>  <SCORE.INTRA.REPUL.0>
0

>  <SCORE.INTRA.SOLV>
2.11131

>  <SCORE.INTRA.SOLV.lig_0>
-29.8054

>  <SCORE.INTRA.VDW>
-0.809952

>  <SCORE.INTRA.VDW.0>
2.61447

>  <SCORE.INTRA.norm>
-0.0969868

>  <SCORE.RESTR>
0

>  <SCORE.RESTR.CAVITY>
0

>  <SCORE.RESTR.norm>
0

>  <SCORE.SYSTEM>
0

>  <SCORE.SYSTEM.CONST>
0

>  <SCORE.SYSTEM.DIHEDRAL>
0

>  <SCORE.SYSTEM.SOLV>
0

>  <SCORE.SYSTEM.norm>
0

>  <SCORE.heavy>
23

>  <SCORE.norm>
-1.29755

>  <RMSD>
20.831

$$$$

 OpenBabel11021811403D
libRbt.so/2013.1/901 2013/11/27
 23 25  0  0  0  0  0  0  0  0999 V2000
  -12.7520   22.0562    1.0350 S   0  0  0  0  0  0  0  0  0  0  0  0
  -15.0053   22.9241    2.7783 N   0  0  0  0  0  0  0  0  0  0  0  0
  -15.4770   24.9957    1.6383 C   0  0  0  0  0  0  0  0  0  0  0  0
  -15.1808   25.8853    0.5971 C   0  0  0  0  0  0  0  0  0  0  0  0
  -14.1565   25.5980   -0.3000 C   0  0  0  0  0  0  0  0  0  0  0  0
  -13.4208   24.4262   -0.1606 C   0  0  0  0  0  0  0  0  0  0  0  0
  -13.7047   23.5360    0.8720 C   0  0  0  0  0  0  0  0  0  0  0  0
  -14.7350   23.8144    1.7781 C   0  0  0  0  0  0  0  0  0  0  0  0
  -12.7268   22.2006    2.7938 C   0  0  0  0  0  0  0  0  0  0  0  0
  -11.5647   21.8897    3.5060 C   0  0  0  0  0  0  0  0  0  0  0  0
  -11.5504   22.0006    4.8993 C   0  0  0  0  0  0  0  0  0  0  0  0
  -12.7007   22.4183    5.5766 C   0  0  0  0  0  0  0  0  0  0  0  0
  -13.8575   22.7262    4.8597 C   0  0  0  0  0  0  0  0  0  0  0  0
  -13.8742   22.6216    3.4756 C   0  0  0  0  0  0  0  0  0  0  0  0
  -16.3055   22.9749    3.4916 C   0  0  0  0  0  0  0  0  0  0  0  0
  -17.5936   23.1346    2.6169 C   0  0  0  0  0  0  0  0  0  0  0  0
  -18.9037   23.3028    3.4599 C   0  0  0  0  0  0  0  0  0  0  0  0
  -19.8086   24.4276    3.1107 N   0  3  0  0  0  0  0  0  0  0  0  0
  -19.0865   25.7261    3.1091 C   0  0  0  0  0  0  0  0  0  0  0  0
  -20.9983   24.4552    4.0304 C   0  0  0  0  0  0  0  0  0  0  0  0
  -15.9630   27.1583    0.4424 C   0  0  0  0  0  0  0  0  0  0  0  0
  -17.4476   27.2209    0.7083 C   0  0  0  0  0  0  0  0  0  0  0  0
  -15.3777   28.1893    0.1515 O   0  0  0  0  0  0  0  0  0  0  0  0
  1  7  1  0  0  0  0
  1  9  1  0  0  0  0
  2  8  1  0  0  0  0
  2 14  1  0  0  0  0
  2 15  1  0  0  0  0
  3  4  2  0  0  0  0
  3  8  1  0  0  0  0
  4  5  1  0  0  0  0
  4 21  1  0  0  0  0
  5  6  2  0  0  0  0
  6  7  1  0  0  0  0
  7  8  2  0  0  0  0
  9 10  2  0  0  0  0
  9 14  1  0  0  0  0
 10 11  1  0  0  0  0
 11 12  2  0  0  0  0
 12 13  1  0  0  0  0
 13 14  2  0  0  0  0
 15 16  1  0  0  0  0
 16 17  1  0  0  0  0
 17 18  1  0  0  0  0
 18 19  1  0  0  0  0
 18 20  1  0  0  0  0
 21 22  1  0  0  0  0
 21 23  2  0  0  0  0
M  CHG  1  18   1
M  END
>  <CHROM.1>
45.17863120,-37.73046898,-175.01113922,130.27342848,65.84186540,-15.30204886
24.01245632,2.29872806,-0.38943447,0.29233741,-0.80846913

>  <Name>


>  <RI>
0

>  <Rbt.Current_Directory>
/home/itssahil/PROJECTS/Mol_Feturizer/New_Systems/rnas/1lvj

>  <Rbt.Executable>
rbdock ($Id: //depot/dev/client3/rdock/2013.1/src/exe/rbdock.cxx#4 $)

>  <Rbt.Library>
libRbt.so (2013.1, Build901 2013/11/27)

>  <Rbt.Parameter_File>
/export/apps/rDock/src/rDock_2013.1_src/data/scripts/dock_solv.prm

>  <Rbt.Receptor>
prm/blind_docking_40.prm

>  <SCORE>
-28.2317

>  <SCORE.INTER>
-29.0939

>  <SCORE.INTER.CONST>
1

>  <SCORE.INTER.POLAR>
0

>  <SCORE.INTER.ROT>
5

>  <SCORE.INTER.SOLV>
15.5218

>  <SCORE.INTER.VDW>
-31.5032

>  <SCORE.INTER.norm>
-1.26495

>  <SCORE.INTRA>
-0.165976

>  <SCORE.INTRA.DIHEDRAL>
2.58007

>  <SCORE.INTRA.DIHEDRAL.0>
8.06479

>  <SCORE.INTRA.POLAR>
0

>  <SCORE.INTRA.POLAR.0>
0

>  <SCORE.INTRA.REPUL>
0

>  <SCORE.INTRA.REPUL.0>
0

>  <SCORE.INTRA.SOLV>
0.273552

>  <SCORE.INTRA.SOLV.lig_0>
-29.8054

>  <SCORE.INTRA.VDW>
-1.59279

>  <SCORE.INTRA.VDW.0>
2.61447

>  <SCORE.INTRA.norm>
-0.00721635

>  <SCORE.RESTR>
1.02823

>  <SCORE.RESTR.CAVITY>
1.02823

>  <SCORE.RESTR.norm>
0.0447058

>  <SCORE.SYSTEM>
0

>  <SCORE.SYSTEM.CONST>
0

>  <SCORE.SYSTEM.DIHEDRAL>
0

>  <SCORE.SYSTEM.SOLV>
0

>  <SCORE.SYSTEM.norm>
0

>  <SCORE.heavy>
23

>  <SCORE.norm>
-1.22746

>  <RMSD>
20.844

$$$$

 OpenBabel11021811403D
libRbt.so/2013.1/901 2013/11/27
 23 25  0  0  0  0  0  0  0  0999 V2000
  -13.0356   22.6172    1.1447 S   0  0  0  0  0  0  0  0  0  0  0  0
  -15.6911   23.0950    2.4053 N   0  0  0  0  0  0  0  0  0  0  0  0
  -16.0714   25.2835    1.4673 C   0  0  0  0  0  0  0  0  0  0  0  0
  -15.6262   26.3316    0.6509 C   0  0  0  0  0  0  0  0  0  0  0  0
  -14.4047   26.2357   -0.0088 C   0  0  0  0  0  0  0  0  0  0  0  0
  -13.6204   25.0977    0.1457 C   0  0  0  0  0  0  0  0  0  0  0  0
  -14.0518   24.0510    0.9565 C   0  0  0  0  0  0  0  0  0  0  0  0
  -15.2803   24.1365    1.6225 C   0  0  0  0  0  0  0  0  0  0  0  0
  -13.4210   22.5017    2.8632 C   0  0  0  0  0  0  0  0  0  0  0  0
  -12.4273   22.1527    3.7824 C   0  0  0  0  0  0  0  0  0  0  0  0
  -12.7379   22.0575    5.1419 C   0  0  0  0  0  0  0  0  0  0  0  0
  -14.0433   22.3078    5.5774 C   0  0  0  0  0  0  0  0  0  0  0  0
  -15.0305   22.6550    4.6544 C   0  0  0  0  0  0  0  0  0  0  0  0
  -14.7249   22.7548    3.3041 C   0  0  0  0  0  0  0  0  0  0  0  0
  -17.1183   22.9696    2.7920 C   0  0  0  0  0  0  0  0  0  0  0  0
  -17.7573   24.1727    3.5627 C   0  0  0  0  0  0  0  0  0  0  0  0
  -19.2949   24.0066    3.8146 C   0  0  0  0  0  0  0  0  0  0  0  0
  -20.0445   25.1901    4.3081 N   0  3  0  0  0  0  0  0  0  0  0  0
  -19.7582   25.4561    5.7416 C   0  0  0  0  0  0  0  0  0  0  0  0
  -21.5183   25.0256    4.0576 C   0  0  0  0  0  0  0  0  0  0  0  0
  -16.4609   27.5693    0.4840 C   0  0  0  0  0  0  0  0  0  0  0  0
  -17.8661   27.6643    1.0272 C   0  0  0  0  0  0  0  0  0  0  0  0
  -15.9746   28.5517   -0.0530 O   0  0  0  0  0  0  0  0  0  0  0  0
  1  7  1  0  0  0  0
  1  9  1  0  0  0  0
  2  8  1  0  0  0  0
  2 14  1  0  0  0  0
  2 15  1  0  0  0  0
  3  4  2  0  0  0  0
  3  8  1  0  0  0  0
  4  5  1  0  0  0  0
  4 21  1  0  0  0  0
  5  6  2  0  0  0  0
  6  7  1  0  0  0  0
  7  8  2  0  0  0  0
  9 10  2  0  0  0  0
  9 14  1  0  0  0  0
 10 11  1  0  0  0  0
 11 12  2  0  0  0  0
 12 13  1  0  0  0  0
 13 14  2  0  0  0  0
 15 16  1  0  0  0  0
 16 17  1  0  0  0  0
 17 18  1  0  0  0  0
 18 19  1  0  0  0  0
 18 20  1  0  0  0  0
 21 22  1  0  0  0  0
 21 23  2  0  0  0  0
M  CHG  1  18   1
M  END
>  <CHROM.1>
-57.75730012,-8.08313445,174.79152126,-168.89847613,45.65453961,-15.87657295
24.38591221,2.52871837,-0.20531154,0.41298256,-0.80642591

>  <Name>


>  <RI>
0

>  <Rbt.Current_Directory>
/home/itssahil/PROJECTS/Mol_Feturizer/New_Systems/rnas/1lvj

>  <Rbt.Executable>
rbdock ($Id: //depot/dev/client3/rdock/2013.1/src/exe/rbdock.cxx#4 $)

>  <Rbt.Library>
libRbt.so (2013.1, Build901 2013/11/27)

>  <Rbt.Parameter_File>
/export/apps/rDock/src/rDock_2013.1_src/data/scripts/dock_solv.prm

>  <Rbt.Receptor>
prm/blind_docking_60.prm

>  <SCORE>
-31.6562

>  <SCORE.INTER>
-27.4098

>  <SCORE.INTER.CONST>
1

>  <SCORE.INTER.POLAR>
0

>  <SCORE.INTER.ROT>
5

>  <SCORE.INTER.SOLV>
11.4484

>  <SCORE.INTER.VDW>
-29.0227

>  <SCORE.INTER.norm>
-1.19173

>  <SCORE.INTRA>
-4.27552

>  <SCORE.INTRA.DIHEDRAL>
-6.08616

>  <SCORE.INTRA.DIHEDRAL.0>
8.06479

>  <SCORE.INTRA.POLAR>
0

>  <SCORE.INTRA.POLAR.0>
0

>  <SCORE.INTRA.REPUL>
0

>  <SCORE.INTRA.REPUL.0>
0

>  <SCORE.INTRA.SOLV>
1.19333

>  <SCORE.INTRA.SOLV.lig_0>
-29.8054

>  <SCORE.INTRA.VDW>
-1.82911

>  <SCORE.INTRA.VDW.0>
2.61447

>  <SCORE.INTRA.norm>
-0.185892

>  <SCORE.RESTR>
0.0291644

>  <SCORE.RESTR.CAVITY>
0.0291644

>  <SCORE.RESTR.norm>
0.00126802

>  <SCORE.SYSTEM>
0

>  <SCORE.SYSTEM.CONST>
0

>  <SCORE.SYSTEM.DIHEDRAL>
0

>  <SCORE.SYSTEM.SOLV>
0

>  <SCORE.SYSTEM.norm>
0

>  <SCORE.heavy>
23

>  <SCORE.norm>
-1.37636

>  <RMSD>
20.847

$$$$

 OpenBabel11021811403D
libRbt.so/2013.1/901 2013/11/27
 23 25  0  0  0  0  0  0  0  0999 V2000
  -13.4869   22.7612    0.8873 S   0  0  0  0  0  0  0  0  0  0  0  0
  -15.8281   23.1950    2.6761 N   0  0  0  0  0  0  0  0  0  0  0  0
  -16.3854   25.4083    1.8982 C   0  0  0  0  0  0  0  0  0  0  0  0
  -16.1129   26.4805    1.0384 C   0  0  0  0  0  0  0  0  0  0  0  0
  -15.0519   26.4071    0.1410 C   0  0  0  0  0  0  0  0  0  0  0  0
  -14.2560   25.2675    0.0998 C   0  0  0  0  0  0  0  0  0  0  0  0
  -14.5160   24.1968    0.9513 C   0  0  0  0  0  0  0  0  0  0  0  0
  -15.5826   24.2596    1.8559 C   0  0  0  0  0  0  0  0  0  0  0  0
  -13.5141   22.5956    2.6442 C   0  0  0  0  0  0  0  0  0  0  0  0
  -12.3549   22.2234    3.3311 C   0  0  0  0  0  0  0  0  0  0  0  0
  -12.3819   22.0885    4.7221 C   0  0  0  0  0  0  0  0  0  0  0  0
  -13.5703   22.3225    5.4216 C   0  0  0  0  0  0  0  0  0  0  0  0
  -14.7240   22.6929    4.7296 C   0  0  0  0  0  0  0  0  0  0  0  0
  -14.6999   22.8322    3.3488 C   0  0  0  0  0  0  0  0  0  0  0  0
  -17.1468   23.0544    3.3419 C   0  0  0  0  0  0  0  0  0  0  0  0
  -18.4120   23.0256    2.4209 C   0  0  0  0  0  0  0  0  0  0  0  0
  -19.7005   23.5881    3.1127 C   0  0  0  0  0  0  0  0  0  0  0  0
  -19.9483   25.0498    3.0244 N   0  3  0  0  0  0  0  0  0  0  0  0
  -19.9891   25.5102    1.6123 C   0  0  0  0  0  0  0  0  0  0  0  0
  -18.9276   25.8093    3.8266 C   0  0  0  0  0  0  0  0  0  0  0  0
  -16.9605   27.7200    1.0806 C   0  0  0  0  0  0  0  0  0  0  0  0
  -16.8204   28.8188    0.0551 C   0  0  0  0  0  0  0  0  0  0  0  0
  -17.8308   27.8217    1.9305 O   0  0  0  0  0  0  0  0  0  0  0  0
  1  7  1  0  0  0  0
  1  9  1  0  0  0  0
  2  8  1  0  0  0  0
  2 14  1  0  0  0  0
  2 15  1  0  0  0  0
  3  4  2  0  0  0  0
  3  8  1  0  0  0  0
  4  5  1  0  0  0  0
  4 21  1  0  0  0  0
  5  6  2  0  0  0  0
  6  7  1  0  0  0  0
  7  8  2  0  0  0  0
  9 10  2  0  0  0  0
  9 14  1  0  0  0  0
 10 11  1  0  0  0  0
 11 12  2  0  0  0  0
 12 13  1  0  0  0  0
 13 14  2  0  0  0  0
 15 16  1  0  0  0  0
 16 17  1  0  0  0  0
 17 18  1  0  0  0  0
 18 19  1  0  0  0  0
 18 20  1  0  0  0  0
 21 22  1  0  0  0  0
 21 23  2  0  0  0  0
M  CHG  1  18   1
M  END
>  <CHROM.1>
56.63506527,-171.73459318,-150.88666816,87.66044294,176.40872168,-15.98898196
24.44020253,2.27737647,-0.63891045,0.28713758,-0.69757732

>  <Name>


>  <RI>
0

>  <Rbt.Current_Directory>
/home/itssahil/PROJECTS/Mol_Feturizer/New_Systems/rnas/1lvj

>  <Rbt.Executable>
rbdock ($Id: //depot/dev/client3/rdock/2013.1/src/exe/rbdock.cxx#4 $)

>  <Rbt.Library>
libRbt.so (2013.1, Build901 2013/11/27)

>  <Rbt.Parameter_File>
/export/apps/rDock/src/rDock_2013.1_src/data/scripts/dock_solv.prm

>  <Rbt.Receptor>
prm/blind_docking_40.prm

>  <SCORE>
-29.6433

>  <SCORE.INTER>
-27.9591

>  <SCORE.INTER.CONST>
1

>  <SCORE.INTER.POLAR>
0

>  <SCORE.INTER.ROT>
5

>  <SCORE.INTER.SOLV>
11.5253

>  <SCORE.INTER.VDW>
-29.4145

>  <SCORE.INTER.norm>
-1.21561

>  <SCORE.INTRA>
-2.74729

>  <SCORE.INTRA.DIHEDRAL>
-2.45216

>  <SCORE.INTRA.DIHEDRAL.0>
8.06479

>  <SCORE.INTRA.POLAR>
0

>  <SCORE.INTRA.POLAR.0>
0

>  <SCORE.INTRA.REPUL>
0

>  <SCORE.INTRA.REPUL.0>
0

>  <SCORE.INTRA.SOLV>
0.093648

>  <SCORE.INTRA.SOLV.lig_0>
-29.8054

>  <SCORE.INTRA.VDW>
-1.56803

>  <SCORE.INTRA.VDW.0>
2.61447

>  <SCORE.INTRA.norm>
-0.119447

>  <SCORE.RESTR>
1.06313

>  <SCORE.RESTR.CAVITY>
1.06313

>  <SCORE.RESTR.norm>
0.0462231

>  <SCORE.SYSTEM>
0

>  <SCORE.SYSTEM.CONST>
0

>  <SCORE.SYSTEM.DIHEDRAL>
0

>  <SCORE.SYSTEM.SOLV>
0

>  <SCORE.SYSTEM.norm>
0

>  <SCORE.heavy>
23

>  <SCORE.norm>
-1.28884

>  <RMSD>
20.850

$$$$

 OpenBabel11021811403D
libRbt.so/2013.1/901 2013/11/27
 23 25  0  0  0  0  0  0  0  0999 V2000
  -12.6757   22.4464    1.0096 S   0  0  0  0  0  0  0  0  0  0  0  0
  -15.2297   22.9460    2.4574 N   0  0  0  0  0  0  0  0  0  0  0  0
  -15.7065   25.0969    1.4776 C   0  0  0  0  0  0  0  0  0  0  0  0
  -15.3380   26.1194    0.5933 C   0  0  0  0  0  0  0  0  0  0  0  0
  -14.1708   26.0106   -0.1566 C   0  0  0  0  0  0  0  0  0  0  0  0
  -13.3643   24.8854   -0.0250 C   0  0  0  0  0  0  0  0  0  0  0  0
  -13.7193   23.8642    0.8526 C   0  0  0  0  0  0  0  0  0  0  0  0
  -14.8930   23.9627    1.6095 C   0  0  0  0  0  0  0  0  0  0  0  0
  -12.9243   22.3882    2.7559 C   0  0  0  0  0  0  0  0  0  0  0  0
  -11.8581   22.0799    3.6058 C   0  0  0  0  0  0  0  0  0  0  0  0
  -12.0604   22.0299    4.9880 C   0  0  0  0  0  0  0  0  0  0  0  0
  -13.3305   22.2844    5.5156 C   0  0  0  0  0  0  0  0  0  0  0  0
  -14.3906   22.5907    4.6616 C   0  0  0  0  0  0  0  0  0  0  0  0
  -14.1926   22.6457    3.2888 C   0  0  0  0  0  0  0  0  0  0  0  0
  -16.6209   22.8222    2.9590 C   0  0  0  0  0  0  0  0  0  0  0  0
  -17.2472   24.0823    3.6443 C   0  0  0  0  0  0  0  0  0  0  0  0
  -18.7820   23.9412    3.9267 C   0  0  0  0  0  0  0  0  0  0  0  0
  -19.6934   23.8575    2.7570 N   0  3  0  0  0  0  0  0  0  0  0  0
  -18.9958   24.2220    1.4968 C   0  0  0  0  0  0  0  0  0  0  0  0
  -20.9177   24.7027    2.9781 C   0  0  0  0  0  0  0  0  0  0  0  0
  -16.1969   27.3434    0.4499 C   0  0  0  0  0  0  0  0  0  0  0  0
  -17.6500   27.3518    0.8587 C   0  0  0  0  0  0  0  0  0  0  0  0
  -15.6972   28.3820    0.0479 O   0  0  0  0  0  0  0  0  0  0  0  0
  1  7  1  0  0  0  0
  1  9  1  0  0  0  0
  2  8  1  0  0  0  0
  2 14  1  0  0  0  0
  2 15  1  0  0  0  0
  3  4  2  0  0  0  0
  3  8  1  0  0  0  0
  4  5  1  0  0  0  0
  4 21  1  0  0  0  0
  5  6  2  0  0  0  0
  6  7  1  0  0  0  0
  7  8  2  0  0  0  0
  9 10  2  0  0  0  0
  9 14  1  0  0  0  0
 10 11  1  0  0  0  0
 11 12  2  0  0  0  0
 12 13  1  0  0  0  0
 13 14  2  0  0  0  0
 15 16  1  0  0  0  0
 16 17  1  0  0  0  0
 17 18  1  0  0  0  0
 18 19  1  0  0  0  0
 18 20  1  0  0  0  0
 21 22  1  0  0  0  0
 21 23  2  0  0  0  0
M  CHG  1  18   1
M  END
>  <CHROM.1>
-53.44661841,-20.34884136,170.44777578,-66.07480681,107.49035095,-15.43447747
24.11946195,2.17644129,-0.49412590,0.22748276,-0.77308859

>  <Name>


>  <RI>
0

>  <Rbt.Current_Directory>
/home/itssahil/PROJECTS/Mol_Feturizer/New_Systems/rnas/1lvj

>  <Rbt.Executable>
rbdock ($Id: //depot/dev/client3/rdock/2013.1/src/exe/rbdock.cxx#4 $)

>  <Rbt.Library>
libRbt.so (2013.1, Build901 2013/11/27)

>  <Rbt.Parameter_File>
/export/apps/rDock/src/rDock_2013.1_src/data/scripts/dock_solv.prm

>  <Rbt.Receptor>
prm/blind_docking_40.prm

>  <SCORE>
-24.1674

>  <SCORE.INTER>
-27.2693

>  <SCORE.INTER.CONST>
1

>  <SCORE.INTER.POLAR>
-0.685235

>  <SCORE.INTER.ROT>
5

>  <SCORE.INTER.SOLV>
18.7658

>  <SCORE.INTER.VDW>
-29.084

>  <SCORE.INTER.norm>
-1.18562

>  <SCORE.INTRA>
2.56839

>  <SCORE.INTRA.DIHEDRAL>
-2.05706

>  <SCORE.INTRA.DIHEDRAL.0>
8.06479

>  <SCORE.INTRA.POLAR>
0

>  <SCORE.INTRA.POLAR.0>
0

>  <SCORE.INTRA.REPUL>
0

>  <SCORE.INTRA.REPUL.0>
0

>  <SCORE.INTRA.SOLV>
0.839395

>  <SCORE.INTRA.SOLV.lig_0>
-29.8054

>  <SCORE.INTRA.VDW>
3.17722

>  <SCORE.INTRA.VDW.0>
2.61447

>  <SCORE.INTRA.norm>
0.111669

>  <SCORE.RESTR>
0.533522

>  <SCORE.RESTR.CAVITY>
0.533522

>  <SCORE.RESTR.norm>
0.0231966

>  <SCORE.SYSTEM>
0

>  <SCORE.SYSTEM.CONST>
0

>  <SCORE.SYSTEM.DIHEDRAL>
0

>  <SCORE.SYSTEM.SOLV>
0

>  <SCORE.SYSTEM.norm>
0

>  <SCORE.heavy>
23

>  <SCORE.norm>
-1.05076

>  <RMSD>
20.857

$$$$

 OpenBabel11021811403D
libRbt.so/2013.1/901 2013/11/27
 23 25  0  0  0  0  0  0  0  0999 V2000
  -12.0164   23.1151    3.7973 S   0  0  0  0  0  0  0  0  0  0  0  0
  -13.6150   24.1573    1.5109 N   0  0  0  0  0  0  0  0  0  0  0  0
  -15.7882   23.5995    2.3941 C   0  0  0  0  0  0  0  0  0  0  0  0
  -16.5566   23.0528    3.4303 C   0  0  0  0  0  0  0  0  0  0  0  0
  -15.9377   22.5384    4.5655 C   0  0  0  0  0  0  0  0  0  0  0  0
  -14.5513   22.5627    4.6708 C   0  0  0  0  0  0  0  0  0  0  0  0
  -13.7774   23.1013    3.6460 C   0  0  0  0  0  0  0  0  0  0  0  0
  -14.3905   23.6238    2.5009 C   0  0  0  0  0  0  0  0  0  0  0  0
  -11.8116   22.7002    2.0941 C   0  0  0  0  0  0  0  0  0  0  0  0
  -10.8155   21.7991    1.7071 C   0  0  0  0  0  0  0  0  0  0  0  0
  -10.6533   21.4771    0.3566 C   0  0  0  0  0  0  0  0  0  0  0  0
  -11.4860   22.0611   -0.6035 C   0  0  0  0  0  0  0  0  0  0  0  0
  -12.4778   22.9604   -0.2104 C   0  0  0  0  0  0  0  0  0  0  0  0
  -12.6448   23.2793    1.1302 C   0  0  0  0  0  0  0  0  0  0  0  0
  -14.2150   25.0599    0.4973 C   0  0  0  0  0  0  0  0  0  0  0  0
  -14.2341   26.5900    0.8263 C   0  0  0  0  0  0  0  0  0  0  0  0
  -15.5421   27.3133    0.3558 C   0  0  0  0  0  0  0  0  0  0  0  0
  -16.7827   27.0706    1.1353 N   0  3  0  0  0  0  0  0  0  0  0  0
  -17.5088   25.8716    0.6424 C   0  0  0  0  0  0  0  0  0  0  0  0
  -17.6598   28.2924    1.1286 C   0  0  0  0  0  0  0  0  0  0  0  0
  -18.0545   23.0132    3.3233 C   0  0  0  0  0  0  0  0  0  0  0  0
  -18.7718   23.3301    2.0334 C   0  0  0  0  0  0  0  0  0  0  0  0
  -18.7145   22.6573    4.2865 O   0  0  0  0  0  0  0  0  0  0  0  0
  1  7  1  0  0  0  0
  1  9  1  0  0  0  0
  2  8  1  0  0  0  0
  2 14  1  0  0  0  0
  2 15  1  0  0  0  0
  3  4  2  0  0  0  0
  3  8  1  0  0  0  0
  4  5  1  0  0  0  0
  4 21  1  0  0  0  0
  5  6  2  0  0  0  0
  6  7  1  0  0  0  0
  7  8  2  0  0  0  0
  9 10  2  0  0  0  0
  9 14  1  0  0  0  0
 10 11  1  0  0  0  0
 11 12  2  0  0  0  0
 12 13  1  0  0  0  0
 13 14  2  0  0  0  0
 15 16  1  0  0  0  0
 16 17  1  0  0  0  0
 17 18  1  0  0  0  0
 18 19  1  0  0  0  0
 18 20  1  0  0  0  0
 21 22  1  0  0  0  0
 21 23  2  0  0  0  0
M  CHG  1  18   1
M  END
>  <CHROM.1>
89.48790908,10.59046985,-141.83009630,73.98393174,32.39736859,-14.64865714
23.91614969,2.05099486,0.30246038,-0.35827654,2.41994509

>  <Name>


>  <RI>
0

>  <Rbt.Current_Directory>
/home/itssahil/PROJECTS/Mol_Feturizer/New_Systems/rnas/1lvj

>  <Rbt.Executable>
rbdock ($Id: //depot/dev/client3/rdock/2013.1/src/exe/rbdock.cxx#4 $)

>  <Rbt.Library>
libRbt.so (2013.1, Build901 2013/11/27)

>  <Rbt.Parameter_File>
/export/apps/rDock/src/rDock_2013.1_src/data/scripts/dock_solv.prm

>  <Rbt.Receptor>
prm/blind_docking_80.prm

>  <SCORE>
-28.6422

>  <SCORE.INTER>
-28.0489

>  <SCORE.INTER.CONST>
1

>  <SCORE.INTER.POLAR>
-1.40963

>  <SCORE.INTER.ROT>
5

>  <SCORE.INTER.SOLV>
16.3157

>  <SCORE.INTER.VDW>
-26.3724

>  <SCORE.INTER.norm>
-1.21952

>  <SCORE.INTRA>
-1.18669

>  <SCORE.INTRA.DIHEDRAL>
0.333369

>  <SCORE.INTRA.DIHEDRAL.0>
8.06479

>  <SCORE.INTRA.POLAR>
0

>  <SCORE.INTRA.POLAR.0>
0

>  <SCORE.INTRA.REPUL>
0

>  <SCORE.INTRA.REPUL.0>
0

>  <SCORE.INTRA.SOLV>
2.69348

>  <SCORE.INTRA.SOLV.lig_0>
-29.8054

>  <SCORE.INTRA.VDW>
-2.70011

>  <SCORE.INTRA.VDW.0>
2.61447

>  <SCORE.INTRA.norm>
-0.051595

>  <SCORE.RESTR>
0.593311

>  <SCORE.RESTR.CAVITY>
0.593311

>  <SCORE.RESTR.norm>
0.0257961

>  <SCORE.SYSTEM>
0

>  <SCORE.SYSTEM.CONST>
0

>  <SCORE.SYSTEM.DIHEDRAL>
0

>  <SCORE.SYSTEM.SOLV>
0

>  <SCORE.SYSTEM.norm>
0

>  <SCORE.heavy>
23

>  <SCORE.norm>
-1.24531

>  <RMSD>
20.871

$$$$

 OpenBabel11021811403D
libRbt.so/2013.1/901 2013/11/27
 23 25  0  0  0  0  0  0  0  0999 V2000
  -13.2097   22.7188    0.8839 S   0  0  0  0  0  0  0  0  0  0  0  0
  -15.5095   23.1238    2.7321 N   0  0  0  0  0  0  0  0  0  0  0  0
  -16.1737   25.2887    1.9038 C   0  0  0  0  0  0  0  0  0  0  0  0
  -15.9685   26.3419    1.0029 C   0  0  0  0  0  0  0  0  0  0  0  0
  -14.9336   26.2786    0.0747 C   0  0  0  0  0  0  0  0  0  0  0  0
  -14.0967   25.1684    0.0437 C   0  0  0  0  0  0  0  0  0  0  0  0
  -14.2898   24.1169    0.9360 C   0  0  0  0  0  0  0  0  0  0  0  0
  -15.3297   24.1696    1.8718 C   0  0  0  0  0  0  0  0  0  0  0  0
  -13.1765   22.6092    2.6451 C   0  0  0  0  0  0  0  0  0  0  0  0
  -11.9835   22.3024    3.3060 C   0  0  0  0  0  0  0  0  0  0  0  0
  -11.9627   22.2116    4.7006 C   0  0  0  0  0  0  0  0  0  0  0  0
  -13.1370   22.4241    5.4300 C   0  0  0  0  0  0  0  0  0  0  0  0
  -14.3246   22.7293    4.7641 C   0  0  0  0  0  0  0  0  0  0  0  0
  -14.3483   22.8247    3.3795 C   0  0  0  0  0  0  0  0  0  0  0  0
  -16.8008   22.9563    3.4438 C   0  0  0  0  0  0  0  0  0  0  0  0
  -18.1064   23.0535    2.5859 C   0  0  0  0  0  0  0  0  0  0  0  0
  -19.3852   23.3803    3.4304 C   0  0  0  0  0  0  0  0  0  0  0  0
  -19.7985   24.8032    3.5333 N   0  3  0  0  0  0  0  0  0  0  0  0
  -20.2820   25.3247    2.2288 C   0  0  0  0  0  0  0  0  0  0  0  0
  -18.6784   25.6413    4.0855 C   0  0  0  0  0  0  0  0  0  0  0  0
  -16.8607   27.5500    1.0335 C   0  0  0  0  0  0  0  0  0  0  0  0
  -16.6826   28.6991    0.0709 C   0  0  0  0  0  0  0  0  0  0  0  0
  -17.7960   27.5841    1.8171 O   0  0  0  0  0  0  0  0  0  0  0  0
  1  7  1  0  0  0  0
  1  9  1  0  0  0  0
  2  8  1  0  0  0  0
  2 14  1  0  0  0  0
  2 15  1  0  0  0  0
  3  4  2  0  0  0  0
  3  8  1  0  0  0  0
  4  5  1  0  0  0  0
  4 21  1  0  0  0  0
  5  6  2  0  0  0  0
  6  7  1  0  0  0  0
  7  8  2  0  0  0  0
  9 10  2  0  0  0  0
  9 14  1  0  0  0  0
 10 11  1  0  0  0  0
 11 12  2  0  0  0  0
 12 13  1  0  0  0  0
 13 14  2  0  0  0  0
 15 16  1  0  0  0  0
 16 17  1  0  0  0  0
 17 18  1  0  0  0  0
 18 19  1  0  0  0  0
 18 20  1  0  0  0  0
 21 22  1  0  0  0  0
 21 23  2  0  0  0  0
M  CHG  1  18   1
M  END
>  <CHROM.1>
48.24034486,-179.33295101,-159.26958862,94.85430616,-171.69462139,-15.75766806
24.35844508,2.35729978,-0.53076735,0.30719620,-0.75068983

>  <Name>


>  <RI>
0

>  <Rbt.Current_Directory>
/home/itssahil/PROJECTS/Mol_Feturizer/New_Systems/rnas/1lvj

>  <Rbt.Executable>
rbdock ($Id: //depot/dev/client3/rdock/2013.1/src/exe/rbdock.cxx#4 $)

>  <Rbt.Library>
libRbt.so (2013.1, Build901 2013/11/27)

>  <Rbt.Parameter_File>
/export/apps/rDock/src/rDock_2013.1_src/data/scripts/dock_solv.prm

>  <Rbt.Receptor>
prm/blind_docking_80.prm

>  <SCORE>
-30.0256

>  <SCORE.INTER>
-28.5633

>  <SCORE.INTER.CONST>
1

>  <SCORE.INTER.POLAR>
0

>  <SCORE.INTER.ROT>
5

>  <SCORE.INTER.SOLV>
10.3592

>  <SCORE.INTER.VDW>
-29.4286

>  <SCORE.INTER.norm>
-1.24188

>  <SCORE.INTRA>
-2.67415

>  <SCORE.INTRA.DIHEDRAL>
-2.79363

>  <SCORE.INTRA.DIHEDRAL.0>
8.06479

>  <SCORE.INTRA.POLAR>
0

>  <SCORE.INTRA.POLAR.0>
0

>  <SCORE.INTRA.REPUL>
0

>  <SCORE.INTRA.REPUL.0>
0

>  <SCORE.INTRA.SOLV>
-0.0046313

>  <SCORE.INTRA.SOLV.lig_0>
-29.8054

>  <SCORE.INTRA.VDW>
-1.27502

>  <SCORE.INTRA.VDW.0>
2.61447

>  <SCORE.INTRA.norm>
-0.116268

>  <SCORE.RESTR>
1.21183

>  <SCORE.RESTR.CAVITY>
1.21183

>  <SCORE.RESTR.norm>
0.052688

>  <SCORE.SYSTEM>
0

>  <SCORE.SYSTEM.CONST>
0

>  <SCORE.SYSTEM.DIHEDRAL>
0

>  <SCORE.SYSTEM.SOLV>
0

>  <SCORE.SYSTEM.norm>
0

>  <SCORE.heavy>
23

>  <SCORE.norm>
-1.30546

>  <RMSD>
20.871

$$$$

 OpenBabel11021811403D
libRbt.so/2013.1/901 2013/11/27
 23 25  0  0  0  0  0  0  0  0999 V2000
  -12.7860   22.9224    1.1935 S   0  0  0  0  0  0  0  0  0  0  0  0
  -15.5465   23.1681    2.2836 N   0  0  0  0  0  0  0  0  0  0  0  0
  -15.9906   25.3902    1.4595 C   0  0  0  0  0  0  0  0  0  0  0  0
  -15.5529   26.5134    0.7454 C   0  0  0  0  0  0  0  0  0  0  0  0
  -14.2850   26.5291    0.1722 C   0  0  0  0  0  0  0  0  0  0  0  0
  -13.4469   25.4283    0.3121 C   0  0  0  0  0  0  0  0  0  0  0  0
  -13.8704   24.3075    1.0218 C   0  0  0  0  0  0  0  0  0  0  0  0
  -15.1452   24.2806    1.5999 C   0  0  0  0  0  0  0  0  0  0  0  0
  -13.2824   22.6712    2.8684 C   0  0  0  0  0  0  0  0  0  0  0  0
  -12.3360   22.3167    3.8343 C   0  0  0  0  0  0  0  0  0  0  0  0
  -12.7342   22.1138    5.1587 C   0  0  0  0  0  0  0  0  0  0  0  0
  -14.0793   22.2622    5.5122 C   0  0  0  0  0  0  0  0  0  0  0  0
  -15.0188   22.6156    4.5430 C   0  0  0  0  0  0  0  0  0  0  0  0
  -14.6266   22.8222    3.2276 C   0  0  0  0  0  0  0  0  0  0  0  0
  -16.9871   22.9387    2.5561 C   0  0  0  0  0  0  0  0  0  0  0  0
  -17.6208   23.7232    3.7531 C   0  0  0  0  0  0  0  0  0  0  0  0
  -19.1823   23.6092    3.8173 C   0  0  0  0  0  0  0  0  0  0  0  0
  -19.9792   24.7170    3.2312 N   0  3  0  0  0  0  0  0  0  0  0  0
  -21.3692   24.7237    3.7559 C   0  0  0  0  0  0  0  0  0  0  0  0
  -19.9533   24.6508    1.7289 C   0  0  0  0  0  0  0  0  0  0  0  0
  -16.4464   27.7117    0.5958 C   0  0  0  0  0  0  0  0  0  0  0  0
  -17.8262   27.7604    1.2060 C   0  0  0  0  0  0  0  0  0  0  0  0
  -16.0287   28.7015    0.0162 O   0  0  0  0  0  0  0  0  0  0  0  0
  1  7  1  0  0  0  0
  1  9  1  0  0  0  0
  2  8  1  0  0  0  0
  2 14  1  0  0  0  0
  2 15  1  0  0  0  0
  3  4  2  0  0  0  0
  3  8  1  0  0  0  0
  4  5  1  0  0  0  0
  4 21  1  0  0  0  0
  5  6  2  0  0  0  0
  6  7  1  0  0  0  0
  7  8  2  0  0  0  0
  9 10  2  0  0  0  0
  9 14  1  0  0  0  0
 10 11  1  0  0  0  0
 11 12  2  0  0  0  0
 12 13  1  0  0  0  0
 13 14  2  0  0  0  0
 15 16  1  0  0  0  0
 16 17  1  0  0  0  0
 17 18  1  0  0  0  0
 18 19  1  0  0  0  0
 18 20  1  0  0  0  0
 21 22  1  0  0  0  0
 21 23  2  0  0  0  0
M  CHG  1  18   1
M  END
>  <CHROM.1>
-79.82991278,0.44138064,170.24379426,-97.38446422,-40.43592104,-15.78789330
24.39043962,2.30865699,-0.42752723,0.22731653,-0.70865300

>  <Name>


>  <RI>
0

>  <Rbt.Current_Directory>
/home/itssahil/PROJECTS/Mol_Feturizer/New_Systems/rnas/1lvj

>  <Rbt.Executable>
rbdock ($Id: //depot/dev/client3/rdock/2013.1/src/exe/rbdock.cxx#4 $)

>  <Rbt.Library>
libRbt.so (2013.1, Build901 2013/11/27)

>  <Rbt.Parameter_File>
/export/apps/rDock/src/rDock_2013.1_src/data/scripts/dock_solv.prm

>  <Rbt.Receptor>
prm/blind_docking_40.prm

>  <SCORE>
-28.2628

>  <SCORE.INTER>
-26.8004

>  <SCORE.INTER.CONST>
1

>  <SCORE.INTER.POLAR>
0

>  <SCORE.INTER.ROT>
5

>  <SCORE.INTER.SOLV>
11.6663

>  <SCORE.INTER.VDW>
-28.689

>  <SCORE.INTER.norm>
-1.16523

>  <SCORE.INTRA>
-2.64588

>  <SCORE.INTRA.DIHEDRAL>
-2.84584

>  <SCORE.INTRA.DIHEDRAL.0>
8.06479

>  <SCORE.INTRA.POLAR>
0

>  <SCORE.INTRA.POLAR.0>
0

>  <SCORE.INTRA.REPUL>
0

>  <SCORE.INTRA.REPUL.0>
0

>  <SCORE.INTRA.SOLV>
1.93648

>  <SCORE.INTRA.SOLV.lig_0>
-29.8054

>  <SCORE.INTRA.VDW>
-2.1912

>  <SCORE.INTRA.VDW.0>
2.61447

>  <SCORE.INTRA.norm>
-0.115038

>  <SCORE.RESTR>
1.18348

>  <SCORE.RESTR.CAVITY>
1.18348

>  <SCORE.RESTR.norm>
0.0514557

>  <SCORE.SYSTEM>
0

>  <SCORE.SYSTEM.CONST>
0

>  <SCORE.SYSTEM.DIHEDRAL>
0

>  <SCORE.SYSTEM.SOLV>
0

>  <SCORE.SYSTEM.norm>
0

>  <SCORE.heavy>
23

>  <SCORE.norm>
-1.22882

>  <RMSD>
20.879

$$$$

 OpenBabel11021811403D
libRbt.so/2013.1/901 2013/11/27
 23 25  0  0  0  0  0  0  0  0999 V2000
  -12.9320   23.0849    0.8729 S   0  0  0  0  0  0  0  0  0  0  0  0
  -15.3829   23.2130    2.5599 N   0  0  0  0  0  0  0  0  0  0  0  0
  -16.1340   25.3820    1.8216 C   0  0  0  0  0  0  0  0  0  0  0  0
  -15.9376   26.5054    1.0077 C   0  0  0  0  0  0  0  0  0  0  0  0
  -14.8360   26.5728    0.1601 C   0  0  0  0  0  0  0  0  0  0  0  0
  -13.9239   25.5237    0.1236 C   0  0  0  0  0  0  0  0  0  0  0  0
  -14.1077   24.4034    0.9299 C   0  0  0  0  0  0  0  0  0  0  0  0
  -15.2142   24.3246    1.7841 C   0  0  0  0  0  0  0  0  0  0  0  0
  -13.0196   22.8575    2.6209 C   0  0  0  0  0  0  0  0  0  0  0  0
  -11.8594   22.5839    3.3512 C   0  0  0  0  0  0  0  0  0  0  0  0
  -11.9338   22.3995    4.7347 C   0  0  0  0  0  0  0  0  0  0  0  0
  -13.1701   22.4852    5.3833 C   0  0  0  0  0  0  0  0  0  0  0  0
  -14.3244   22.7578    4.6482 C   0  0  0  0  0  0  0  0  0  0  0  0
  -14.2538   22.9459    3.2748 C   0  0  0  0  0  0  0  0  0  0  0  0
  -16.7078   22.9140    3.1577 C   0  0  0  0  0  0  0  0  0  0  0  0
  -17.9665   23.1503    2.2579 C   0  0  0  0  0  0  0  0  0  0  0  0
  -19.3166   23.1192    3.0525 C   0  0  0  0  0  0  0  0  0  0  0  0
  -19.4705   24.0645    4.1876 N   0  3  0  0  0  0  0  0  0  0  0  0
  -20.8398   24.0070    4.7613 C   0  0  0  0  0  0  0  0  0  0  0  0
  -19.1029   25.4610    3.7673 C   0  0  0  0  0  0  0  0  0  0  0  0
  -16.9116   27.6484    1.0458 C   0  0  0  0  0  0  0  0  0  0  0  0
  -16.7951   28.8285    0.1118 C   0  0  0  0  0  0  0  0  0  0  0  0
  -17.8617   27.6004    1.8106 O   0  0  0  0  0  0  0  0  0  0  0  0
  1  7  1  0  0  0  0
  1  9  1  0  0  0  0
  2  8  1  0  0  0  0
  2 14  1  0  0  0  0
  2 15  1  0  0  0  0
  3  4  2  0  0  0  0
  3  8  1  0  0  0  0
  4  5  1  0  0  0  0
  4 21  1  0  0  0  0
  5  6  2  0  0  0  0
  6  7  1  0  0  0  0
  7  8  2  0  0  0  0
  9 10  2  0  0  0  0
  9 14  1  0  0  0  0
 10 11  1  0  0  0  0
 11 12  2  0  0  0  0
 12 13  1  0  0  0  0
 13 14  2  0  0  0  0
 15 16  1  0  0  0  0
 16 17  1  0  0  0  0
 17 18  1  0  0  0  0
 18 19  1  0  0  0  0
 18 20  1  0  0  0  0
 21 22  1  0  0  0  0
 21 23  2  0  0  0  0
M  CHG  1  18   1
M  END
>  <CHROM.1>
41.12670756,-175.27673100,-167.17248373,56.79829759,-65.28723422,-15.70974837
24.38345065,2.43221139,-0.33646425,0.28172144,-0.71671110

>  <Name>


>  <RI>
0

>  <Rbt.Current_Directory>
/home/itssahil/PROJECTS/Mol_Feturizer/New_Systems/rnas/1lvj

>  <Rbt.Executable>
rbdock ($Id: //depot/dev/client3/rdock/2013.1/src/exe/rbdock.cxx#4 $)

>  <Rbt.Library>
libRbt.so (2013.1, Build901 2013/11/27)

>  <Rbt.Parameter_File>
/export/apps/rDock/src/rDock_2013.1_src/data/scripts/dock_solv.prm

>  <Rbt.Receptor>
prm/blind_docking_40.prm

>  <SCORE>
-32.7166

>  <SCORE.INTER>
-30.8572

>  <SCORE.INTER.CONST>
1

>  <SCORE.INTER.POLAR>
-1.23693

>  <SCORE.INTER.ROT>
5

>  <SCORE.INTER.SOLV>
16.0175

>  <SCORE.INTER.VDW>
-28.7209

>  <SCORE.INTER.norm>
-1.34162

>  <SCORE.INTRA>
-3.17529

>  <SCORE.INTRA.DIHEDRAL>
-6.96665

>  <SCORE.INTRA.DIHEDRAL.0>
8.06479

>  <SCORE.INTRA.POLAR>
0

>  <SCORE.INTRA.POLAR.0>
0

>  <SCORE.INTRA.REPUL>
0

>  <SCORE.INTRA.REPUL.0>
0

>  <SCORE.INTRA.SOLV>
2.04971

>  <SCORE.INTRA.SOLV.lig_0>
-29.8054

>  <SCORE.INTRA.VDW>
-0.716821

>  <SCORE.INTRA.VDW.0>
2.61447

>  <SCORE.INTRA.norm>
-0.138056

>  <SCORE.RESTR>
1.3159

>  <SCORE.RESTR.CAVITY>
1.3159

>  <SCORE.RESTR.norm>
0.057213

>  <SCORE.SYSTEM>
0

>  <SCORE.SYSTEM.CONST>
0

>  <SCORE.SYSTEM.DIHEDRAL>
0

>  <SCORE.SYSTEM.SOLV>
0

>  <SCORE.SYSTEM.norm>
0

>  <SCORE.heavy>
23

>  <SCORE.norm>
-1.42246

>  <RMSD>
20.890

$$$$

 OpenBabel11021811403D
libRbt.so/2013.1/901 2013/11/27
 23 25  0  0  0  0  0  0  0  0999 V2000
  -13.6133   23.3812    0.7820 S   0  0  0  0  0  0  0  0  0  0  0  0
  -16.1566   23.4348    2.3304 N   0  0  0  0  0  0  0  0  0  0  0  0
  -16.7848   25.6978    1.7843 C   0  0  0  0  0  0  0  0  0  0  0  0
  -16.4998   26.8904    1.1065 C   0  0  0  0  0  0  0  0  0  0  0  0
  -15.3468   26.9997    0.3350 C   0  0  0  0  0  0  0  0  0  0  0  0
  -14.4715   25.9233    0.2397 C   0  0  0  0  0  0  0  0  0  0  0  0
  -14.7433   24.7340    0.9111 C   0  0  0  0  0  0  0  0  0  0  0  0
  -15.9020   24.6129    1.6875 C   0  0  0  0  0  0  0  0  0  0  0  0
  -13.8154   22.9776    2.4882 C   0  0  0  0  0  0  0  0  0  0  0  0
  -12.7123   22.5822    3.2504 C   0  0  0  0  0  0  0  0  0  0  0  0
  -12.8775   22.2587    4.6001 C   0  0  0  0  0  0  0  0  0  0  0  0
  -14.1473   22.3277    5.1825 C   0  0  0  0  0  0  0  0  0  0  0  0
  -15.2443   22.7224    4.4158 C   0  0  0  0  0  0  0  0  0  0  0  0
  -15.0834   23.0487    3.0763 C   0  0  0  0  0  0  0  0  0  0  0  0
  -17.5252   23.1304    2.8166 C   0  0  0  0  0  0  0  0  0  0  0  0
  -18.7041   23.3418    1.8089 C   0  0  0  0  0  0  0  0  0  0  0  0
  -19.6658   24.5121    2.2099 C   0  0  0  0  0  0  0  0  0  0  0  0
  -20.1220   24.5765    3.6218 N   0  3  0  0  0  0  0  0  0  0  0  0
  -21.5137   25.0873    3.7209 C   0  0  0  0  0  0  0  0  0  0  0  0
  -19.1699   25.3956    4.4491 C   0  0  0  0  0  0  0  0  0  0  0  0
  -17.4336   28.0625    1.2097 C   0  0  0  0  0  0  0  0  0  0  0  0
  -17.2926   29.2765    0.3237 C   0  0  0  0  0  0  0  0  0  0  0  0
  -18.3720   28.0138    1.9889 O   0  0  0  0  0  0  0  0  0  0  0  0
  1  7  1  0  0  0  0
  1  9  1  0  0  0  0
  2  8  1  0  0  0  0
  2 14  1  0  0  0  0
  2 15  1  0  0  0  0
  3  4  2  0  0  0  0
  3  8  1  0  0  0  0
  4  5  1  0  0  0  0
  4 21  1  0  0  0  0
  5  6  2  0  0  0  0
  6  7  1  0  0  0  0
  7  8  2  0  0  0  0
  9 10  2  0  0  0  0
  9 14  1  0  0  0  0
 10 11  1  0  0  0  0
 11 12  2  0  0  0  0
 12 13  1  0  0  0  0
 13 14  2  0  0  0  0
 15 16  1  0  0  0  0
 16 17  1  0  0  0  0
 17 18  1  0  0  0  0
 18 19  1  0  0  0  0
 18 20  1  0  0  0  0
 21 22  1  0  0  0  0
 21 23  2  0  0  0  0
M  CHG  1  18   1
M  END
>  <CHROM.1>
48.62638903,-169.58820449,-112.70413351,-46.44746038,-25.46919914,-16.36744720
24.70007865,2.29536397,-0.50678018,0.30064730,-0.63749506

>  <Name>


>  <RI>
0

>  <Rbt.Current_Directory>
/home/itssahil/PROJECTS/Mol_Feturizer/New_Systems/rnas/1lvj

>  <Rbt.Executable>
rbdock ($Id: //depot/dev/client3/rdock/2013.1/src/exe/rbdock.cxx#4 $)

>  <Rbt.Library>
libRbt.so (2013.1, Build901 2013/11/27)

>  <Rbt.Parameter_File>
/export/apps/rDock/src/rDock_2013.1_src/data/scripts/dock_solv.prm

>  <Rbt.Receptor>
prm/blind_docking_60.prm

>  <SCORE>
-30.5593

>  <SCORE.INTER>
-29.5537

>  <SCORE.INTER.CONST>
1

>  <SCORE.INTER.POLAR>
0

>  <SCORE.INTER.ROT>
5

>  <SCORE.INTER.SOLV>
13.5086

>  <SCORE.INTER.VDW>
-31.1386

>  <SCORE.INTER.norm>
-1.28494

>  <SCORE.INTRA>
-1.00566

>  <SCORE.INTRA.DIHEDRAL>
0.516181

>  <SCORE.INTRA.DIHEDRAL.0>
8.06479

>  <SCORE.INTRA.POLAR>
0

>  <SCORE.INTRA.POLAR.0>
0

>  <SCORE.INTRA.REPUL>
0

>  <SCORE.INTRA.REPUL.0>
0

>  <SCORE.INTRA.SOLV>
2.51615

>  <SCORE.INTRA.SOLV.lig_0>
-29.8054

>  <SCORE.INTRA.VDW>
-2.52183

>  <SCORE.INTRA.VDW.0>
2.61447

>  <SCORE.INTRA.norm>
-0.0437244

>  <SCORE.RESTR>
0

>  <SCORE.RESTR.CAVITY>
0

>  <SCORE.RESTR.norm>
0

>  <SCORE.SYSTEM>
0

>  <SCORE.SYSTEM.CONST>
0

>  <SCORE.SYSTEM.DIHEDRAL>
0

>  <SCORE.SYSTEM.SOLV>
0

>  <SCORE.SYSTEM.norm>
0

>  <SCORE.heavy>
23

>  <SCORE.norm>
-1.32867

>  <RMSD>
20.890

$$$$

 OpenBabel11021811403D
libRbt.so/2013.1/901 2013/11/27
 23 25  0  0  0  0  0  0  0  0999 V2000
  -12.0837   23.2660    3.8133 S   0  0  0  0  0  0  0  0  0  0  0  0
  -13.7212   24.2577    1.5320 N   0  0  0  0  0  0  0  0  0  0  0  0
  -15.8720   23.6192    2.4153 C   0  0  0  0  0  0  0  0  0  0  0  0
  -16.6191   23.0416    3.4504 C   0  0  0  0  0  0  0  0  0  0  0  0
  -15.9808   22.5460    4.5833 C   0  0  0  0  0  0  0  0  0  0  0  0
  -14.5961   22.6198    4.6873 C   0  0  0  0  0  0  0  0  0  0  0  0
  -13.8432   23.1894    3.6636 C   0  0  0  0  0  0  0  0  0  0  0  0
  -14.4759   23.6934    2.5209 C   0  0  0  0  0  0  0  0  0  0  0  0
  -11.8660   22.8646    2.1085 C   0  0  0  0  0  0  0  0  0  0  0  0
  -10.8384   22.0012    1.7175 C   0  0  0  0  0  0  0  0  0  0  0  0
  -10.6663   21.6897    0.3657 C   0  0  0  0  0  0  0  0  0  0  0  0
  -11.5205   22.2467   -0.5916 C   0  0  0  0  0  0  0  0  0  0  0  0
  -12.5436   23.1084   -0.1945 C   0  0  0  0  0  0  0  0  0  0  0  0
  -12.7205   23.4165    1.1473 C   0  0  0  0  0  0  0  0  0  0  0  0
  -14.3545   25.1415    0.5220 C   0  0  0  0  0  0  0  0  0  0  0  0
  -14.3286   26.6809    0.8043 C   0  0  0  0  0  0  0  0  0  0  0  0
  -15.6429   27.4167    0.3728 C   0  0  0  0  0  0  0  0  0  0  0  0
  -16.8636   27.1809    1.1853 N   0  3  0  0  0  0  0  0  0  0  0  0
  -17.5989   25.9748    0.7246 C   0  0  0  0  0  0  0  0  0  0  0  0
  -17.7433   28.4008    1.1858 C   0  0  0  0  0  0  0  0  0  0  0  0
  -18.1147   22.9484    3.3447 C   0  0  0  0  0  0  0  0  0  0  0  0
  -18.8479   23.2872    2.0694 C   0  0  0  0  0  0  0  0  0  0  0  0
  -18.7573   22.5303    4.2946 O   0  0  0  0  0  0  0  0  0  0  0  0
  1  7  1  0  0  0  0
  1  9  1  0  0  0  0
  2  8  1  0  0  0  0
  2 14  1  0  0  0  0
  2 15  1  0  0  0  0
  3  4  2  0  0  0  0
  3  8  1  0  0  0  0
  4  5  1  0  0  0  0
  4 21  1  0  0  0  0
  5  6  2  0  0  0  0
  6  7  1  0  0  0  0
  7  8  2  0  0  0  0
  9 10  2  0  0  0  0
  9 14  1  0  0  0  0
 10 11  1  0  0  0  0
 11 12  2  0  0  0  0
 12 13  1  0  0  0  0
 13 14  2  0  0  0  0
 15 16  1  0  0  0  0
 16 17  1  0  0  0  0
 17 18  1  0  0  0  0
 18 19  1  0  0  0  0
 18 20  1  0  0  0  0
 21 22  1  0  0  0  0
 21 23  2  0  0  0  0
M  CHG  1  18   1
M  END
>  <CHROM.1>
94.14036168,8.55304257,-142.01659829,71.63029010,33.49018164,-14.71838322
24.00084774,2.07317612,0.29083700,-0.33955015,2.44089761

>  <Name>


>  <RI>
0

>  <Rbt.Current_Directory>
/home/itssahil/PROJECTS/Mol_Feturizer/New_Systems/rnas/1lvj

>  <Rbt.Executable>
rbdock ($Id: //depot/dev/client3/rdock/2013.1/src/exe/rbdock.cxx#4 $)

>  <Rbt.Library>
libRbt.so (2013.1, Build901 2013/11/27)

>  <Rbt.Parameter_File>
/export/apps/rDock/src/rDock_2013.1_src/data/scripts/dock_solv.prm

>  <Rbt.Receptor>
prm/blind_docking_40.prm

>  <SCORE>
-27.0594

>  <SCORE.INTER>
-26.3237

>  <SCORE.INTER.CONST>
1

>  <SCORE.INTER.POLAR>
-1.46362

>  <SCORE.INTER.ROT>
5

>  <SCORE.INTER.SOLV>
16.8513

>  <SCORE.INTER.VDW>
-25.2208

>  <SCORE.INTER.norm>
-1.14451

>  <SCORE.INTRA>
-1.71524

>  <SCORE.INTRA.DIHEDRAL>
0.0558291

>  <SCORE.INTRA.DIHEDRAL.0>
8.06479

>  <SCORE.INTRA.POLAR>
0

>  <SCORE.INTRA.POLAR.0>
0

>  <SCORE.INTRA.REPUL>
0

>  <SCORE.INTRA.REPUL.0>
0

>  <SCORE.INTRA.SOLV>
2.42207

>  <SCORE.INTRA.SOLV.lig_0>
-29.8054

>  <SCORE.INTRA.VDW>
-2.95419

>  <SCORE.INTRA.VDW.0>
2.61447

>  <SCORE.INTRA.norm>
-0.0745758

>  <SCORE.RESTR>
0.979566

>  <SCORE.RESTR.CAVITY>
0.979566

>  <SCORE.RESTR.norm>
0.0425898

>  <SCORE.SYSTEM>
0

>  <SCORE.SYSTEM.CONST>
0

>  <SCORE.SYSTEM.DIHEDRAL>
0

>  <SCORE.SYSTEM.SOLV>
0

>  <SCORE.SYSTEM.norm>
0

>  <SCORE.heavy>
23

>  <SCORE.norm>
-1.1765

>  <RMSD>
20.899

$$$$

 OpenBabel11021811403D
libRbt.so/2013.1/901 2013/11/27
 23 25  0  0  0  0  0  0  0  0999 V2000
  -12.9260   22.7135    1.1356 S   0  0  0  0  0  0  0  0  0  0  0  0
  -15.6153   23.1146    2.3505 N   0  0  0  0  0  0  0  0  0  0  0  0
  -16.0262   25.3074    1.4357 C   0  0  0  0  0  0  0  0  0  0  0  0
  -15.5888   26.3767    0.6429 C   0  0  0  0  0  0  0  0  0  0  0  0
  -14.3530   26.3171    0.0059 C   0  0  0  0  0  0  0  0  0  0  0  0
  -13.5467   25.1947    0.1599 C   0  0  0  0  0  0  0  0  0  0  0  0
  -13.9701   24.1271    0.9475 C   0  0  0  0  0  0  0  0  0  0  0  0
  -15.2129   24.1760    1.5904 C   0  0  0  0  0  0  0  0  0  0  0  0
  -13.3417   22.5650    2.8444 C   0  0  0  0  0  0  0  0  0  0  0  0
  -12.3584   22.2247    3.7779 C   0  0  0  0  0  0  0  0  0  0  0  0
  -12.6929   22.1032    5.1296 C   0  0  0  0  0  0  0  0  0  0  0  0
  -14.0117   22.3184    5.5429 C   0  0  0  0  0  0  0  0  0  0  0  0
  -14.9884   22.6570    4.6057 C   0  0  0  0  0  0  0  0  0  0  0  0
  -14.6592   22.7829    3.2631 C   0  0  0  0  0  0  0  0  0  0  0  0
  -17.0465   22.9522    2.7074 C   0  0  0  0  0  0  0  0  0  0  0  0
  -17.7060   24.0946    3.5500 C   0  0  0  0  0  0  0  0  0  0  0  0
  -19.2399   23.8856    3.7922 C   0  0  0  0  0  0  0  0  0  0  0  0
  -20.0088   25.0208    4.3631 N   0  3  0  0  0  0  0  0  0  0  0  0
  -21.3644   24.5956    4.7977 C   0  0  0  0  0  0  0  0  0  0  0  0
  -20.0717   26.1623    3.3859 C   0  0  0  0  0  0  0  0  0  0  0  0
  -16.4476   27.5979    0.4769 C   0  0  0  0  0  0  0  0  0  0  0  0
  -17.8501   27.6694    1.0304 C   0  0  0  0  0  0  0  0  0  0  0  0
  -15.9836   28.5868   -0.0680 O   0  0  0  0  0  0  0  0  0  0  0  0
  1  7  1  0  0  0  0
  1  9  1  0  0  0  0
  2  8  1  0  0  0  0
  2 14  1  0  0  0  0
  2 15  1  0  0  0  0
  3  4  2  0  0  0  0
  3  8  1  0  0  0  0
  4  5  1  0  0  0  0
  4 21  1  0  0  0  0
  5  6  2  0  0  0  0
  6  7  1  0  0  0  0
  7  8  2  0  0  0  0
  9 10  2  0  0  0  0
  9 14  1  0  0  0  0
 10 11  1  0  0  0  0
 11 12  2  0  0  0  0
 12 13  1  0  0  0  0
 13 14  2  0  0  0  0
 15 16  1  0  0  0  0
 16 17  1  0  0  0  0
 17 18  1  0  0  0  0
 18 19  1  0  0  0  0
 18 20  1  0  0  0  0
 21 22  1  0  0  0  0
 21 23  2  0  0  0  0
M  CHG  1  18   1
M  END
>  <CHROM.1>
-61.01601244,-6.19552892,175.93594854,-169.19153490,-48.17656105,-15.83279413
24.41593606,2.44387949,-0.27960888,0.37108457,-0.77093122

>  <Name>


>  <RI>
0

>  <Rbt.Current_Directory>
/home/itssahil/PROJECTS/Mol_Feturizer/New_Systems/rnas/1lvj

>  <Rbt.Executable>
rbdock ($Id: //depot/dev/client3/rdock/2013.1/src/exe/rbdock.cxx#4 $)

>  <Rbt.Library>
libRbt.so (2013.1, Build901 2013/11/27)

>  <Rbt.Parameter_File>
/export/apps/rDock/src/rDock_2013.1_src/data/scripts/dock_solv.prm

>  <Rbt.Receptor>
prm/blind_docking_60.prm

>  <SCORE>
-31.3643

>  <SCORE.INTER>
-26.3916

>  <SCORE.INTER.CONST>
1

>  <SCORE.INTER.POLAR>
0

>  <SCORE.INTER.ROT>
5

>  <SCORE.INTER.SOLV>
12.8062

>  <SCORE.INTER.VDW>
-28.7965

>  <SCORE.INTER.norm>
-1.14746

>  <SCORE.INTRA>
-4.97276

>  <SCORE.INTRA.DIHEDRAL>
-6.71209

>  <SCORE.INTRA.DIHEDRAL.0>
8.06479

>  <SCORE.INTRA.POLAR>
0

>  <SCORE.INTRA.POLAR.0>
0

>  <SCORE.INTRA.REPUL>
0

>  <SCORE.INTRA.REPUL.0>
0

>  <SCORE.INTRA.SOLV>
0.337483

>  <SCORE.INTRA.SOLV.lig_0>
-29.8054

>  <SCORE.INTRA.VDW>
-1.78546

>  <SCORE.INTRA.VDW.0>
2.61447

>  <SCORE.INTRA.norm>
-0.216207

>  <SCORE.RESTR>
0

>  <SCORE.RESTR.CAVITY>
0

>  <SCORE.RESTR.norm>
0

>  <SCORE.SYSTEM>
0

>  <SCORE.SYSTEM.CONST>
0

>  <SCORE.SYSTEM.DIHEDRAL>
0

>  <SCORE.SYSTEM.SOLV>
0

>  <SCORE.SYSTEM.norm>
0

>  <SCORE.heavy>
23

>  <SCORE.norm>
-1.36367

>  <RMSD>
20.899

$$$$

 OpenBabel11021811403D
libRbt.so/2013.1/901 2013/11/27
 23 25  0  0  0  0  0  0  0  0999 V2000
  -12.1972   22.6583    0.8710 S   0  0  0  0  0  0  0  0  0  0  0  0
  -14.5536   22.8471    2.6823 N   0  0  0  0  0  0  0  0  0  0  0  0
  -15.6368   24.6881    1.5636 C   0  0  0  0  0  0  0  0  0  0  0  0
  -15.6405   25.6199    0.5172 C   0  0  0  0  0  0  0  0  0  0  0  0
  -14.6033   25.6361   -0.4104 C   0  0  0  0  0  0  0  0  0  0  0  0
  -13.5566   24.7277   -0.2965 C   0  0  0  0  0  0  0  0  0  0  0  0
  -13.5412   23.7988    0.7409 C   0  0  0  0  0  0  0  0  0  0  0  0
  -14.5813   23.7723    1.6777 C   0  0  0  0  0  0  0  0  0  0  0  0
  -12.1639   22.8130    2.6288 C   0  0  0  0  0  0  0  0  0  0  0  0
  -10.9414   22.8549    3.3057 C   0  0  0  0  0  0  0  0  0  0  0  0
  -10.9194   22.9724    4.6983 C   0  0  0  0  0  0  0  0  0  0  0  0
  -12.1212   23.0434    5.4103 C   0  0  0  0  0  0  0  0  0  0  0  0
  -13.3379   23.0002    4.7286 C   0  0  0  0  0  0  0  0  0  0  0  0
  -13.3637   22.8881    3.3453 C   0  0  0  0  0  0  0  0  0  0  0  0
  -15.7919   22.5237    3.4335 C   0  0  0  0  0  0  0  0  0  0  0  0
  -16.8139   23.6874    3.6596 C   0  0  0  0  0  0  0  0  0  0  0  0
  -18.2901   23.1949    3.8429 C   0  0  0  0  0  0  0  0  0  0  0  0
  -19.2153   23.3458    2.6910 N   0  3  0  0  0  0  0  0  0  0  0  0
  -18.4731   23.4698    1.4099 C   0  0  0  0  0  0  0  0  0  0  0  0
  -20.1461   24.5071    2.9080 C   0  0  0  0  0  0  0  0  0  0  0  0
  -16.7614   26.6117    0.3897 C   0  0  0  0  0  0  0  0  0  0  0  0
  -17.5830   27.0458    1.5793 C   0  0  0  0  0  0  0  0  0  0  0  0
  -16.9814   27.1309   -0.6929 O   0  0  0  0  0  0  0  0  0  0  0  0
  1  7  1  0  0  0  0
  1  9  1  0  0  0  0
  2  8  1  0  0  0  0
  2 14  1  0  0  0  0
  2 15  1  0  0  0  0
  3  4  2  0  0  0  0
  3  8  1  0  0  0  0
  4  5  1  0  0  0  0
  4 21  1  0  0  0  0
  5  6  2  0  0  0  0
  6  7  1  0  0  0  0
  7  8  2  0  0  0  0
  9 10  2  0  0  0  0
  9 14  1  0  0  0  0
 10 11  1  0  0  0  0
 11 12  2  0  0  0  0
 12 13  1  0  0  0  0
 13 14  2  0  0  0  0
 15 16  1  0  0  0  0
 16 17  1  0  0  0  0
 17 18  1  0  0  0  0
 18 19  1  0  0  0  0
 18 20  1  0  0  0  0
 21 22  1  0  0  0  0
 21 23  2  0  0  0  0
M  CHG  1  18   1
M  END
>  <CHROM.1>
-33.71381897,25.22204298,153.75712899,-103.18583539,141.32361764,-15.06856824
23.97981868,2.12502094,-0.36491520,0.16643776,-0.98490031

>  <Name>


>  <RI>
0

>  <Rbt.Current_Directory>
/home/itssahil/PROJECTS/Mol_Feturizer/New_Systems/rnas/1lvj

>  <Rbt.Executable>
rbdock ($Id: //depot/dev/client3/rdock/2013.1/src/exe/rbdock.cxx#4 $)

>  <Rbt.Library>
libRbt.so (2013.1, Build901 2013/11/27)

>  <Rbt.Parameter_File>
/export/apps/rDock/src/rDock_2013.1_src/data/scripts/dock_solv.prm

>  <Rbt.Receptor>
prm/blind_docking_100.prm

>  <SCORE>
-16.7393

>  <SCORE.INTER>
-26.3795

>  <SCORE.INTER.CONST>
1

>  <SCORE.INTER.POLAR>
-1.05514

>  <SCORE.INTER.ROT>
5

>  <SCORE.INTER.SOLV>
18.7533

>  <SCORE.INTER.VDW>
-27.2536

>  <SCORE.INTER.norm>
-1.14694

>  <SCORE.INTRA>
8.36157

>  <SCORE.INTRA.DIHEDRAL>
5.0443

>  <SCORE.INTRA.DIHEDRAL.0>
8.06479

>  <SCORE.INTRA.POLAR>
0

>  <SCORE.INTRA.POLAR.0>
0

>  <SCORE.INTRA.REPUL>
0

>  <SCORE.INTRA.REPUL.0>
0

>  <SCORE.INTRA.SOLV>
-0.0588484

>  <SCORE.INTRA.SOLV.lig_0>
-29.8054

>  <SCORE.INTRA.VDW>
5.86885

>  <SCORE.INTRA.VDW.0>
2.61447

>  <SCORE.INTRA.norm>
0.363547

>  <SCORE.RESTR>
1.27862

>  <SCORE.RESTR.CAVITY>
1.27862

>  <SCORE.RESTR.norm>
0.0555922

>  <SCORE.SYSTEM>
0

>  <SCORE.SYSTEM.CONST>
0

>  <SCORE.SYSTEM.DIHEDRAL>
0

>  <SCORE.SYSTEM.SOLV>
0

>  <SCORE.SYSTEM.norm>
0

>  <SCORE.heavy>
23

>  <SCORE.norm>
-0.727797

>  <RMSD>
20.912

$$$$

 OpenBabel11021811403D
libRbt.so/2013.1/901 2013/11/27
 23 25  0  0  0  0  0  0  0  0999 V2000
  -13.5676   23.4318    0.7529 S   0  0  0  0  0  0  0  0  0  0  0  0
  -16.1122   23.4727    2.2997 N   0  0  0  0  0  0  0  0  0  0  0  0
  -16.7354   25.7430    1.7790 C   0  0  0  0  0  0  0  0  0  0  0  0
  -16.4474   26.9428    1.1151 C   0  0  0  0  0  0  0  0  0  0  0  0
  -15.2936   27.0586    0.3459 C   0  0  0  0  0  0  0  0  0  0  0  0
  -14.4203   25.9817    0.2390 C   0  0  0  0  0  0  0  0  0  0  0  0
  -14.6951   24.7853    0.8965 C   0  0  0  0  0  0  0  0  0  0  0  0
  -15.8547   24.6576    1.6706 C   0  0  0  0  0  0  0  0  0  0  0  0
  -13.7720   23.0092    2.4542 C   0  0  0  0  0  0  0  0  0  0  0  0
  -12.6703   22.6029    3.2128 C   0  0  0  0  0  0  0  0  0  0  0  0
  -12.8373   22.2642    4.5586 C   0  0  0  0  0  0  0  0  0  0  0  0
  -14.1075   22.3291    5.1406 C   0  0  0  0  0  0  0  0  0  0  0  0
  -15.2031   22.7347    4.3776 C   0  0  0  0  0  0  0  0  0  0  0  0
  -15.0403   23.0760    3.0420 C   0  0  0  0  0  0  0  0  0  0  0  0
  -17.4818   23.1655    2.7812 C   0  0  0  0  0  0  0  0  0  0  0  0
  -18.6606   23.4037    1.7795 C   0  0  0  0  0  0  0  0  0  0  0  0
  -19.6259   24.5586    2.2149 C   0  0  0  0  0  0  0  0  0  0  0  0
  -20.0953   24.5706    3.6239 N   0  3  0  0  0  0  0  0  0  0  0  0
  -21.4894   25.0736    3.7284 C   0  0  0  0  0  0  0  0  0  0  0  0
  -19.1533   25.3620    4.4891 C   0  0  0  0  0  0  0  0  0  0  0  0
  -17.3791   28.1155    1.2309 C   0  0  0  0  0  0  0  0  0  0  0  0
  -18.5198   28.1348    2.2194 C   0  0  0  0  0  0  0  0  0  0  0  0
  -17.1781   29.1094    0.5513 O   0  0  0  0  0  0  0  0  0  0  0  0
  1  7  1  0  0  0  0
  1  9  1  0  0  0  0
  2  8  1  0  0  0  0
  2 14  1  0  0  0  0
  2 15  1  0  0  0  0
  3  4  2  0  0  0  0
  3  8  1  0  0  0  0
  4  5  1  0  0  0  0
  4 21  1  0  0  0  0
  5  6  2  0  0  0  0
  6  7  1  0  0  0  0
  7  8  2  0  0  0  0
  9 10  2  0  0  0  0
  9 14  1  0  0  0  0
 10 11  1  0  0  0  0
 11 12  2  0  0  0  0
 12 13  1  0  0  0  0
 13 14  2  0  0  0  0
 15 16  1  0  0  0  0
 16 17  1  0  0  0  0
 17 18  1  0  0  0  0
 18 19  1  0  0  0  0
 18 20  1  0  0  0  0
 21 22  1  0  0  0  0
 21 23  2  0  0  0  0
M  CHG  1  18   1
M  END
>  <CHROM.1>
48.05942950,9.97924930,-113.42455765,-47.11716008,-25.27345651,-16.32735638
24.72901610,2.29890715,-0.47997471,0.30505843,-0.62343763

>  <Name>


>  <RI>
0

>  <Rbt.Current_Directory>
/home/itssahil/PROJECTS/Mol_Feturizer/New_Systems/rnas/1lvj

>  <Rbt.Executable>
rbdock ($Id: //depot/dev/client3/rdock/2013.1/src/exe/rbdock.cxx#4 $)

>  <Rbt.Library>
libRbt.so (2013.1, Build901 2013/11/27)

>  <Rbt.Parameter_File>
/export/apps/rDock/src/rDock_2013.1_src/data/scripts/dock_solv.prm

>  <Rbt.Receptor>
prm/blind_docking_60.prm

>  <SCORE>
-29.0808

>  <SCORE.INTER>
-27.8462

>  <SCORE.INTER.CONST>
1

>  <SCORE.INTER.POLAR>
0

>  <SCORE.INTER.ROT>
5

>  <SCORE.INTER.SOLV>
13.7387

>  <SCORE.INTER.VDW>
-30.077

>  <SCORE.INTER.norm>
-1.2107

>  <SCORE.INTRA>
-1.23469

>  <SCORE.INTRA.DIHEDRAL>
0.481279

>  <SCORE.INTRA.DIHEDRAL.0>
8.06479

>  <SCORE.INTRA.POLAR>
0

>  <SCORE.INTRA.POLAR.0>
0

>  <SCORE.INTRA.REPUL>
0

>  <SCORE.INTRA.REPUL.0>
0

>  <SCORE.INTRA.SOLV>
2.24898

>  <SCORE.INTRA.SOLV.lig_0>
-29.8054

>  <SCORE.INTRA.VDW>
-2.59982

>  <SCORE.INTRA.VDW.0>
2.61447

>  <SCORE.INTRA.norm>
-0.0536821

>  <SCORE.RESTR>
0

>  <SCORE.RESTR.CAVITY>
0

>  <SCORE.RESTR.norm>
0

>  <SCORE.SYSTEM>
0

>  <SCORE.SYSTEM.CONST>
0

>  <SCORE.SYSTEM.DIHEDRAL>
0

>  <SCORE.SYSTEM.SOLV>
0

>  <SCORE.SYSTEM.norm>
0

>  <SCORE.heavy>
23

>  <SCORE.norm>
-1.26438

>  <RMSD>
20.914

$$$$

 OpenBabel11021811403D
libRbt.so/2013.1/901 2013/11/27
 23 25  0  0  0  0  0  0  0  0999 V2000
  -13.0306   22.0509    1.0483 S   0  0  0  0  0  0  0  0  0  0  0  0
  -15.1366   23.0766    2.8872 N   0  0  0  0  0  0  0  0  0  0  0  0
  -15.5375   25.1598    1.7411 C   0  0  0  0  0  0  0  0  0  0  0  0
  -15.2400   26.0170    0.6735 C   0  0  0  0  0  0  0  0  0  0  0  0
  -14.2814   25.6564   -0.2686 C   0  0  0  0  0  0  0  0  0  0  0  0
  -13.6124   24.4432   -0.1481 C   0  0  0  0  0  0  0  0  0  0  0  0
  -13.8982   23.5846    0.9103 C   0  0  0  0  0  0  0  0  0  0  0  0
  -14.8629   23.9367    1.8618 C   0  0  0  0  0  0  0  0  0  0  0  0
  -12.9086   22.2142    2.8014 C   0  0  0  0  0  0  0  0  0  0  0  0
  -11.7335   21.8407    3.4600 C   0  0  0  0  0  0  0  0  0  0  0  0
  -11.6428   21.9669    4.8491 C   0  0  0  0  0  0  0  0  0  0  0  0
  -12.7301   22.4627    5.5759 C   0  0  0  0  0  0  0  0  0  0  0  0
  -13.9003   22.8330    4.9123 C   0  0  0  0  0  0  0  0  0  0  0  0
  -13.9926   22.7132    3.5325 C   0  0  0  0  0  0  0  0  0  0  0  0
  -16.3941   23.2159    3.6628 C   0  0  0  0  0  0  0  0  0  0  0  0
  -17.7378   23.0129    2.8862 C   0  0  0  0  0  0  0  0  0  0  0  0
  -18.2267   24.2998    2.1379 C   0  0  0  0  0  0  0  0  0  0  0  0
  -19.6651   24.3832    1.7773 N   0  3  0  0  0  0  0  0  0  0  0  0
  -19.9119   25.4443    0.7670 C   0  0  0  0  0  0  0  0  0  0  0  0
  -20.5086   24.5803    3.0068 C   0  0  0  0  0  0  0  0  0  0  0  0
  -15.9499   27.3339    0.5386 C   0  0  0  0  0  0  0  0  0  0  0  0
  -17.3733   27.5253    1.0032 C   0  0  0  0  0  0  0  0  0  0  0  0
  -15.3452   28.2977    0.0962 O   0  0  0  0  0  0  0  0  0  0  0  0
  1  7  1  0  0  0  0
  1  9  1  0  0  0  0
  2  8  1  0  0  0  0
  2 14  1  0  0  0  0
  2 15  1  0  0  0  0
  3  4  2  0  0  0  0
  3  8  1  0  0  0  0
  4  5  1  0  0  0  0
  4 21  1  0  0  0  0
  5  6  2  0  0  0  0
  6  7  1  0  0  0  0
  7  8  2  0  0  0  0
  9 10  2  0  0  0  0
  9 14  1  0  0  0  0
 10 11  1  0  0  0  0
 11 12  2  0  0  0  0
 12 13  1  0  0  0  0
 13 14  2  0  0  0  0
 15 16  1  0  0  0  0
 16 17  1  0  0  0  0
 17 18  1  0  0  0  0
 18 19  1  0  0  0  0
 18 20  1  0  0  0  0
 21 22  1  0  0  0  0
 21 23  2  0  0  0  0
M  CHG  1  18   1
M  END
>  <CHROM.1>
63.09320843,-31.58484474,-83.68985714,-159.24073155,-44.25906462,-15.37221343
24.10769487,2.08099948,-0.60629751,0.17607579,-0.76631717

>  <Name>


>  <RI>
0

>  <Rbt.Current_Directory>
/home/itssahil/PROJECTS/Mol_Feturizer/New_Systems/rnas/1lvj

>  <Rbt.Executable>
rbdock ($Id: //depot/dev/client3/rdock/2013.1/src/exe/rbdock.cxx#4 $)

>  <Rbt.Library>
libRbt.so (2013.1, Build901 2013/11/27)

>  <Rbt.Parameter_File>
/export/apps/rDock/src/rDock_2013.1_src/data/scripts/dock_solv.prm

>  <Rbt.Receptor>
prm/blind_docking_40.prm

>  <SCORE>
-26.9895

>  <SCORE.INTER>
-25.5429

>  <SCORE.INTER.CONST>
1

>  <SCORE.INTER.POLAR>
0

>  <SCORE.INTER.ROT>
5

>  <SCORE.INTER.SOLV>
19.3318

>  <SCORE.INTER.VDW>
-30.4059

>  <SCORE.INTER.norm>
-1.11056

>  <SCORE.INTRA>
-1.4709

>  <SCORE.INTRA.DIHEDRAL>
0.0738389

>  <SCORE.INTRA.DIHEDRAL.0>
8.06479

>  <SCORE.INTRA.POLAR>
0

>  <SCORE.INTRA.POLAR.0>
0

>  <SCORE.INTRA.REPUL>
0

>  <SCORE.INTRA.REPUL.0>
0

>  <SCORE.INTRA.SOLV>
0.58511

>  <SCORE.INTRA.SOLV.lig_0>
-29.8054

>  <SCORE.INTRA.VDW>
-1.80038

>  <SCORE.INTRA.VDW.0>
2.61447

>  <SCORE.INTRA.norm>
-0.0639523

>  <SCORE.RESTR>
0.0242958

>  <SCORE.RESTR.CAVITY>
0.0242958

>  <SCORE.RESTR.norm>
0.00105634

>  <SCORE.SYSTEM>
0

>  <SCORE.SYSTEM.CONST>
0

>  <SCORE.SYSTEM.DIHEDRAL>
0

>  <SCORE.SYSTEM.SOLV>
0

>  <SCORE.SYSTEM.norm>
0

>  <SCORE.heavy>
23

>  <SCORE.norm>
-1.17346

>  <RMSD>
20.921

$$$$

 OpenBabel11021811403D
libRbt.so/2013.1/901 2013/11/27
 23 25  0  0  0  0  0  0  0  0999 V2000
  -13.0131   22.5757    1.0227 S   0  0  0  0  0  0  0  0  0  0  0  0
  -15.5874   23.1351    2.4117 N   0  0  0  0  0  0  0  0  0  0  0  0
  -15.9415   25.3378    1.4971 C   0  0  0  0  0  0  0  0  0  0  0  0
  -15.5026   26.3736    0.6619 C   0  0  0  0  0  0  0  0  0  0  0  0
  -14.3183   26.2404   -0.0566 C   0  0  0  0  0  0  0  0  0  0  0  0
  -13.5649   25.0772    0.0577 C   0  0  0  0  0  0  0  0  0  0  0  0
  -13.9902   24.0422    0.8867 C   0  0  0  0  0  0  0  0  0  0  0  0
  -15.1815   24.1653    1.6117 C   0  0  0  0  0  0  0  0  0  0  0  0
  -13.3182   22.4671    2.7577 C   0  0  0  0  0  0  0  0  0  0  0  0
  -12.2930   22.0830    3.6269 C   0  0  0  0  0  0  0  0  0  0  0  0
  -12.5401   21.9934    4.9998 C   0  0  0  0  0  0  0  0  0  0  0  0
  -13.8140   22.2844    5.4986 C   0  0  0  0  0  0  0  0  0  0  0  0
  -14.8331   22.6664    4.6253 C   0  0  0  0  0  0  0  0  0  0  0  0
  -14.5903   22.7608    3.2619 C   0  0  0  0  0  0  0  0  0  0  0  0
  -16.9975   23.0546    2.8671 C   0  0  0  0  0  0  0  0  0  0  0  0
  -18.1090   23.1656    1.7707 C   0  0  0  0  0  0  0  0  0  0  0  0
  -19.0841   24.3723    1.9905 C   0  0  0  0  0  0  0  0  0  0  0  0
  -19.5999   24.6006    3.3644 N   0  3  0  0  0  0  0  0  0  0  0  0
  -21.0274   25.0123    3.3480 C   0  0  0  0  0  0  0  0  0  0  0  0
  -18.7426   25.5988    4.0928 C   0  0  0  0  0  0  0  0  0  0  0  0
  -16.3038   27.6382    0.5379 C   0  0  0  0  0  0  0  0  0  0  0  0
  -17.6945   27.7622    1.1118 C   0  0  0  0  0  0  0  0  0  0  0  0
  -15.7996   28.6175    0.0116 O   0  0  0  0  0  0  0  0  0  0  0  0
  1  7  1  0  0  0  0
  1  9  1  0  0  0  0
  2  8  1  0  0  0  0
  2 14  1  0  0  0  0
  2 15  1  0  0  0  0
  3  4  2  0  0  0  0
  3  8  1  0  0  0  0
  4  5  1  0  0  0  0
  4 21  1  0  0  0  0
  5  6  2  0  0  0  0
  6  7  1  0  0  0  0
  7  8  2  0  0  0  0
  9 10  2  0  0  0  0
  9 14  1  0  0  0  0
 10 11  1  0  0  0  0
 11 12  2  0  0  0  0
 12 13  1  0  0  0  0
 13 14  2  0  0  0  0
 15 16  1  0  0  0  0
 16 17  1  0  0  0  0
 17 18  1  0  0  0  0
 18 19  1  0  0  0  0
 18 20  1  0  0  0  0
 21 22  1  0  0  0  0
 21 23  2  0  0  0  0
M  CHG  1  18   1
M  END
>  <CHROM.1>
51.19236601,-10.03238949,-120.22661861,-44.90705842,-20.95073458,-15.69953948
24.34071918,2.19781441,-0.55009350,0.29952121,-0.72867679

>  <Name>


>  <RI>
0

>  <Rbt.Current_Directory>
/home/itssahil/PROJECTS/Mol_Feturizer/New_Systems/rnas/1lvj

>  <Rbt.Executable>
rbdock ($Id: //depot/dev/client3/rdock/2013.1/src/exe/rbdock.cxx#4 $)

>  <Rbt.Library>
libRbt.so (2013.1, Build901 2013/11/27)

>  <Rbt.Parameter_File>
/export/apps/rDock/src/rDock_2013.1_src/data/scripts/dock_solv.prm

>  <Rbt.Receptor>
prm/blind_docking_40.prm

>  <SCORE>
-27.0134

>  <SCORE.INTER>
-27.2404

>  <SCORE.INTER.CONST>
1

>  <SCORE.INTER.POLAR>
0

>  <SCORE.INTER.ROT>
5

>  <SCORE.INTER.SOLV>
13.4506

>  <SCORE.INTER.VDW>
-29.5771

>  <SCORE.INTER.norm>
-1.18436

>  <SCORE.INTRA>
-1.13991

>  <SCORE.INTRA.DIHEDRAL>
1.49926

>  <SCORE.INTRA.DIHEDRAL.0>
8.06479

>  <SCORE.INTRA.POLAR>
0

>  <SCORE.INTRA.POLAR.0>
0

>  <SCORE.INTRA.REPUL>
0

>  <SCORE.INTRA.REPUL.0>
0

>  <SCORE.INTRA.SOLV>
2.30287

>  <SCORE.INTRA.SOLV.lig_0>
-29.8054

>  <SCORE.INTRA.VDW>
-3.04098

>  <SCORE.INTRA.VDW.0>
2.61447

>  <SCORE.INTRA.norm>
-0.0495615

>  <SCORE.RESTR>
1.36685

>  <SCORE.RESTR.CAVITY>
1.36685

>  <SCORE.RESTR.norm>
0.0594283

>  <SCORE.SYSTEM>
0

>  <SCORE.SYSTEM.CONST>
0

>  <SCORE.SYSTEM.DIHEDRAL>
0

>  <SCORE.SYSTEM.SOLV>
0

>  <SCORE.SYSTEM.norm>
0

>  <SCORE.heavy>
23

>  <SCORE.norm>
-1.1745

>  <RMSD>
20.929

$$$$

 OpenBabel11021811403D
libRbt.so/2013.1/901 2013/11/27
 23 25  0  0  0  0  0  0  0  0999 V2000
  -12.4550   22.3708    0.8536 S   0  0  0  0  0  0  0  0  0  0  0  0
  -14.6141   23.0075    2.8034 N   0  0  0  0  0  0  0  0  0  0  0  0
  -15.3939   25.0211    1.7304 C   0  0  0  0  0  0  0  0  0  0  0  0
  -15.2852   25.9359    0.6747 C   0  0  0  0  0  0  0  0  0  0  0  0
  -14.3240   25.7532   -0.3148 C   0  0  0  0  0  0  0  0  0  0  0  0
  -13.4649   24.6614   -0.2540 C   0  0  0  0  0  0  0  0  0  0  0  0
  -13.5621   23.7472    0.7919 C   0  0  0  0  0  0  0  0  0  0  0  0
  -14.5275   23.9205    1.7910 C   0  0  0  0  0  0  0  0  0  0  0  0
  -12.2829   22.5170    2.6040 C   0  0  0  0  0  0  0  0  0  0  0  0
  -11.0350   22.3248    3.2040 C   0  0  0  0  0  0  0  0  0  0  0  0
  -10.9040   22.4365    4.5912 C   0  0  0  0  0  0  0  0  0  0  0  0
  -12.0232   22.7364    5.3746 C   0  0  0  0  0  0  0  0  0  0  0  0
  -13.2660   22.9263    4.7693 C   0  0  0  0  0  0  0  0  0  0  0  0
  -13.3992   22.8205    3.3916 C   0  0  0  0  0  0  0  0  0  0  0  0
  -15.8419   22.9272    3.6330 C   0  0  0  0  0  0  0  0  0  0  0  0
  -17.2132   23.0872    2.8956 C   0  0  0  0  0  0  0  0  0  0  0  0
  -18.3726   23.5715    3.8318 C   0  0  0  0  0  0  0  0  0  0  0  0
  -19.7346   23.6709    3.2478 N   0  3  0  0  0  0  0  0  0  0  0  0
  -19.7672   24.6159    2.1018 C   0  0  0  0  0  0  0  0  0  0  0  0
  -20.7377   24.0447    4.3043 C   0  0  0  0  0  0  0  0  0  0  0  0
  -16.2020   27.1238    0.6039 C   0  0  0  0  0  0  0  0  0  0  0  0
  -17.5410   27.1420    1.3006 C   0  0  0  0  0  0  0  0  0  0  0  0
  -15.8348   28.1296    0.0177 O   0  0  0  0  0  0  0  0  0  0  0  0
  1  7  1  0  0  0  0
  1  9  1  0  0  0  0
  2  8  1  0  0  0  0
  2 14  1  0  0  0  0
  2 15  1  0  0  0  0
  3  4  2  0  0  0  0
  3  8  1  0  0  0  0
  4  5  1  0  0  0  0
  4 21  1  0  0  0  0
  5  6  2  0  0  0  0
  6  7  1  0  0  0  0
  7  8  2  0  0  0  0
  9 10  2  0  0  0  0
  9 14  1  0  0  0  0
 10 11  1  0  0  0  0
 11 12  2  0  0  0  0
 12 13  1  0  0  0  0
 13 14  2  0  0  0  0
 15 16  1  0  0  0  0
 16 17  1  0  0  0  0
 17 18  1  0  0  0  0
 18 19  1  0  0  0  0
 18 20  1  0  0  0  0
 21 22  1  0  0  0  0
 21 23  2  0  0  0  0
M  CHG  1  18   1
M  END
>  <CHROM.1>
39.76461468,-22.75360125,-156.36226329,-176.15330496,60.44030860,-15.11351311
24.04375528,2.27080144,-0.27475341,0.22286352,-0.83805453

>  <Name>


>  <RI>
0

>  <Rbt.Current_Directory>
/home/itssahil/PROJECTS/Mol_Feturizer/New_Systems/rnas/1lvj

>  <Rbt.Executable>
rbdock ($Id: //depot/dev/client3/rdock/2013.1/src/exe/rbdock.cxx#4 $)

>  <Rbt.Library>
libRbt.so (2013.1, Build901 2013/11/27)

>  <Rbt.Parameter_File>
/export/apps/rDock/src/rDock_2013.1_src/data/scripts/dock_solv.prm

>  <Rbt.Receptor>
prm/blind_docking_80.prm

>  <SCORE>
-31.8785

>  <SCORE.INTER>
-29.6656

>  <SCORE.INTER.CONST>
1

>  <SCORE.INTER.POLAR>
-0.687493

>  <SCORE.INTER.ROT>
5

>  <SCORE.INTER.SOLV>
17.8483

>  <SCORE.INTER.VDW>
-30.3682

>  <SCORE.INTER.norm>
-1.28981

>  <SCORE.INTRA>
-3.07734

>  <SCORE.INTRA.DIHEDRAL>
-3.6423

>  <SCORE.INTRA.DIHEDRAL.0>
8.06479

>  <SCORE.INTRA.POLAR>
0

>  <SCORE.INTRA.POLAR.0>
0

>  <SCORE.INTRA.REPUL>
0

>  <SCORE.INTRA.REPUL.0>
0

>  <SCORE.INTRA.SOLV>
0.252222

>  <SCORE.INTRA.SOLV.lig_0>
-29.8054

>  <SCORE.INTRA.VDW>
-1.3823

>  <SCORE.INTRA.VDW.0>
2.61447

>  <SCORE.INTRA.norm>
-0.133798

>  <SCORE.RESTR>
0.864448

>  <SCORE.RESTR.CAVITY>
0.864448

>  <SCORE.RESTR.norm>
0.0375847

>  <SCORE.SYSTEM>
0

>  <SCORE.SYSTEM.CONST>
0

>  <SCORE.SYSTEM.DIHEDRAL>
0

>  <SCORE.SYSTEM.SOLV>
0

>  <SCORE.SYSTEM.norm>
0

>  <SCORE.heavy>
23

>  <SCORE.norm>
-1.38602

>  <RMSD>
20.935

$$$$

 OpenBabel11021811403D
libRbt.so/2013.1/901 2013/11/27
 23 25  0  0  0  0  0  0  0  0999 V2000
  -12.4621   22.3777    0.8548 S   0  0  0  0  0  0  0  0  0  0  0  0
  -14.6168   23.0156    2.8091 N   0  0  0  0  0  0  0  0  0  0  0  0
  -15.3997   25.0280    1.7361 C   0  0  0  0  0  0  0  0  0  0  0  0
  -15.2938   25.9418    0.6793 C   0  0  0  0  0  0  0  0  0  0  0  0
  -14.3350   25.7583   -0.3124 C   0  0  0  0  0  0  0  0  0  0  0  0
  -13.4753   24.6669   -0.2526 C   0  0  0  0  0  0  0  0  0  0  0  0
  -13.5698   23.7537    0.7944 C   0  0  0  0  0  0  0  0  0  0  0  0
  -14.5329   23.9277    1.7956 C   0  0  0  0  0  0  0  0  0  0  0  0
  -12.2859   22.5256    2.6046 C   0  0  0  0  0  0  0  0  0  0  0  0
  -11.0366   22.3343    3.2019 C   0  0  0  0  0  0  0  0  0  0  0  0
  -10.9023   22.4474    4.5886 C   0  0  0  0  0  0  0  0  0  0  0  0
  -12.0197   22.7477    5.3744 C   0  0  0  0  0  0  0  0  0  0  0  0
  -13.2640   22.9367    4.7718 C   0  0  0  0  0  0  0  0  0  0  0  0
  -13.4004   22.8295    3.3947 C   0  0  0  0  0  0  0  0  0  0  0  0
  -15.8426   22.9357    3.6417 C   0  0  0  0  0  0  0  0  0  0  0  0
  -17.2155   23.1020    2.9085 C   0  0  0  0  0  0  0  0  0  0  0  0
  -18.3798   23.5485    3.8574 C   0  0  0  0  0  0  0  0  0  0  0  0
  -19.7384   23.6728    3.2704 N   0  3  0  0  0  0  0  0  0  0  0  0
  -19.7489   24.6098    2.1174 C   0  0  0  0  0  0  0  0  0  0  0  0
  -20.7348   24.0759    4.3223 C   0  0  0  0  0  0  0  0  0  0  0  0
  -16.2112   27.1293    0.6095 C   0  0  0  0  0  0  0  0  0  0  0  0
  -17.5479   27.1483    1.3105 C   0  0  0  0  0  0  0  0  0  0  0  0
  -15.8462   28.1342    0.0204 O   0  0  0  0  0  0  0  0  0  0  0  0
  1  7  1  0  0  0  0
  1  9  1  0  0  0  0
  2  8  1  0  0  0  0
  2 14  1  0  0  0  0
  2 15  1  0  0  0  0
  3  4  2  0  0  0  0
  3  8  1  0  0  0  0
  4  5  1  0  0  0  0
  4 21  1  0  0  0  0
  5  6  2  0  0  0  0
  6  7  1  0  0  0  0
  7  8  2  0  0  0  0
  9 10  2  0  0  0  0
  9 14  1  0  0  0  0
 10 11  1  0  0  0  0
 11 12  2  0  0  0  0
 12 13  1  0  0  0  0
 13 14  2  0  0  0  0
 15 16  1  0  0  0  0
 16 17  1  0  0  0  0
 17 18  1  0  0  0  0
 18 19  1  0  0  0  0
 18 20  1  0  0  0  0
 21 22  1  0  0  0  0
 21 23  2  0  0  0  0
M  CHG  1  18   1
M  END
>  <CHROM.1>
39.45646235,-22.69179776,-157.93790330,-177.19464009,63.46906607,-15.11704031
24.05049162,2.27742982,-0.27251841,0.22457999,-0.83957776

>  <Name>


>  <RI>
0

>  <Rbt.Current_Directory>
/home/itssahil/PROJECTS/Mol_Feturizer/New_Systems/rnas/1lvj

>  <Rbt.Executable>
rbdock ($Id: //depot/dev/client3/rdock/2013.1/src/exe/rbdock.cxx#4 $)

>  <Rbt.Library>
libRbt.so (2013.1, Build901 2013/11/27)

>  <Rbt.Parameter_File>
/export/apps/rDock/src/rDock_2013.1_src/data/scripts/dock_solv.prm

>  <Rbt.Receptor>
prm/blind_docking_80.prm

>  <SCORE>
-31.9107

>  <SCORE.INTER>
-29.763

>  <SCORE.INTER.CONST>
1

>  <SCORE.INTER.POLAR>
-0.685016

>  <SCORE.INTER.ROT>
5

>  <SCORE.INTER.SOLV>
17.8523

>  <SCORE.INTER.VDW>
-30.4427

>  <SCORE.INTER.norm>
-1.29404

>  <SCORE.INTRA>
-3.02228

>  <SCORE.INTRA.DIHEDRAL>
-3.87808

>  <SCORE.INTRA.DIHEDRAL.0>
8.06479

>  <SCORE.INTRA.POLAR>
0

>  <SCORE.INTRA.POLAR.0>
0

>  <SCORE.INTRA.REPUL>
0

>  <SCORE.INTRA.REPUL.0>
0

>  <SCORE.INTRA.SOLV>
0.203548

>  <SCORE.INTRA.SOLV.lig_0>
-29.8054

>  <SCORE.INTRA.VDW>
-1.18501

>  <SCORE.INTRA.VDW.0>
2.61447

>  <SCORE.INTRA.norm>
-0.131403

>  <SCORE.RESTR>
0.874516

>  <SCORE.RESTR.CAVITY>
0.874516

>  <SCORE.RESTR.norm>
0.0380224

>  <SCORE.SYSTEM>
0

>  <SCORE.SYSTEM.CONST>
0

>  <SCORE.SYSTEM.DIHEDRAL>
0

>  <SCORE.SYSTEM.SOLV>
0

>  <SCORE.SYSTEM.norm>
0

>  <SCORE.heavy>
23

>  <SCORE.norm>
-1.38742

>  <RMSD>
20.938

$$$$

 OpenBabel11021811403D
libRbt.so/2013.1/901 2013/11/27
 23 25  0  0  0  0  0  0  0  0999 V2000
  -12.4517   22.3926    0.8069 S   0  0  0  0  0  0  0  0  0  0  0  0
  -14.6182   23.0001    2.7579 N   0  0  0  0  0  0  0  0  0  0  0  0
  -15.4088   25.0172    1.6995 C   0  0  0  0  0  0  0  0  0  0  0  0
  -15.3041   25.9411    0.6512 C   0  0  0  0  0  0  0  0  0  0  0  0
  -14.3401   25.7722   -0.3380 C   0  0  0  0  0  0  0  0  0  0  0  0
  -13.4741   24.6854   -0.2843 C   0  0  0  0  0  0  0  0  0  0  0  0
  -13.5674   23.7624    0.7542 C   0  0  0  0  0  0  0  0  0  0  0  0
  -14.5356   23.9217    1.7528 C   0  0  0  0  0  0  0  0  0  0  0  0
  -12.2835   22.5260    2.5587 C   0  0  0  0  0  0  0  0  0  0  0  0
  -11.0355   22.3368    3.1594 C   0  0  0  0  0  0  0  0  0  0  0  0
  -10.9076   22.4384    4.5476 C   0  0  0  0  0  0  0  0  0  0  0  0
  -12.0301   22.7250    5.3314 C   0  0  0  0  0  0  0  0  0  0  0  0
  -13.2730   22.9119    4.7254 C   0  0  0  0  0  0  0  0  0  0  0  0
  -13.4031   22.8161    3.3468 C   0  0  0  0  0  0  0  0  0  0  0  0
  -15.8469   22.9055    3.5846 C   0  0  0  0  0  0  0  0  0  0  0  0
  -17.2170   23.0880    2.8502 C   0  0  0  0  0  0  0  0  0  0  0  0
  -18.3744   23.5583    3.7961 C   0  0  0  0  0  0  0  0  0  0  0  0
  -19.7378   23.6653    3.2168 N   0  3  0  0  0  0  0  0  0  0  0  0
  -19.7635   24.5897    2.0540 C   0  0  0  0  0  0  0  0  0  0  0  0
  -20.7306   24.0715    4.2710 C   0  0  0  0  0  0  0  0  0  0  0  0
  -16.2282   27.1236    0.5882 C   0  0  0  0  0  0  0  0  0  0  0  0
  -17.5536   27.1410    1.3105 C   0  0  0  0  0  0  0  0  0  0  0  0
  -15.8777   28.1262   -0.0135 O   0  0  0  0  0  0  0  0  0  0  0  0
  1  7  1  0  0  0  0
  1  9  1  0  0  0  0
  2  8  1  0  0  0  0
  2 14  1  0  0  0  0
  2 15  1  0  0  0  0
  3  4  2  0  0  0  0
  3  8  1  0  0  0  0
  4  5  1  0  0  0  0
  4 21  1  0  0  0  0
  5  6  2  0  0  0  0
  6  7  1  0  0  0  0
  7  8  2  0  0  0  0
  9 10  2  0  0  0  0
  9 14  1  0  0  0  0
 10 11  1  0  0  0  0
 11 12  2  0  0  0  0
 12 13  1  0  0  0  0
 13 14  2  0  0  0  0
 15 16  1  0  0  0  0
 16 17  1  0  0  0  0
 17 18  1  0  0  0  0
 18 19  1  0  0  0  0
 18 20  1  0  0  0  0
 21 22  1  0  0  0  0
 21 23  2  0  0  0  0
M  CHG  1  18   1
M  END
>  <CHROM.1>
38.71049798,-21.22166969,-156.22963372,-175.62618563,62.46662265,-15.12080663
24.04570024,2.23473297,-0.27407061,0.22316953,-0.83629526

>  <Name>


>  <RI>
0

>  <Rbt.Current_Directory>
/home/itssahil/PROJECTS/Mol_Feturizer/New_Systems/rnas/1lvj

>  <Rbt.Executable>
rbdock ($Id: //depot/dev/client3/rdock/2013.1/src/exe/rbdock.cxx#4 $)

>  <Rbt.Library>
libRbt.so (2013.1, Build901 2013/11/27)

>  <Rbt.Parameter_File>
/export/apps/rDock/src/rDock_2013.1_src/data/scripts/dock_solv.prm

>  <Rbt.Receptor>
prm/blind_docking_80.prm

>  <SCORE>
-31.8594

>  <SCORE.INTER>
-29.7708

>  <SCORE.INTER.CONST>
1

>  <SCORE.INTER.POLAR>
-0.696263

>  <SCORE.INTER.ROT>
5

>  <SCORE.INTER.SOLV>
17.9485

>  <SCORE.INTER.VDW>
-30.4425

>  <SCORE.INTER.norm>
-1.29438

>  <SCORE.INTRA>
-2.93958

>  <SCORE.INTRA.DIHEDRAL>
-3.83406

>  <SCORE.INTRA.DIHEDRAL.0>
8.06479

>  <SCORE.INTRA.POLAR>
0

>  <SCORE.INTRA.POLAR.0>
0

>  <SCORE.INTRA.REPUL>
0

>  <SCORE.INTRA.REPUL.0>
0

>  <SCORE.INTRA.SOLV>
0.230648

>  <SCORE.INTRA.SOLV.lig_0>
-29.8054

>  <SCORE.INTRA.VDW>
-1.13787

>  <SCORE.INTRA.VDW.0>
2.61447

>  <SCORE.INTRA.norm>
-0.127808

>  <SCORE.RESTR>
0.851068

>  <SCORE.RESTR.CAVITY>
0.851068

>  <SCORE.RESTR.norm>
0.037003

>  <SCORE.SYSTEM>
0

>  <SCORE.SYSTEM.CONST>
0

>  <SCORE.SYSTEM.DIHEDRAL>
0

>  <SCORE.SYSTEM.SOLV>
0

>  <SCORE.SYSTEM.norm>
0

>  <SCORE.heavy>
23

>  <SCORE.norm>
-1.38519

>  <RMSD>
20.939

$$$$

 OpenBabel11021811403D
libRbt.so/2013.1/901 2013/11/27
 23 25  0  0  0  0  0  0  0  0999 V2000
  -12.8162   22.6100    1.0901 S   0  0  0  0  0  0  0  0  0  0  0  0
  -15.4616   23.0728    2.3773 N   0  0  0  0  0  0  0  0  0  0  0  0
  -15.8543   25.2677    1.4596 C   0  0  0  0  0  0  0  0  0  0  0  0
  -15.4182   26.3230    0.6476 C   0  0  0  0  0  0  0  0  0  0  0  0
  -14.2023   26.2346   -0.0234 C   0  0  0  0  0  0  0  0  0  0  0  0
  -13.4145   25.0971    0.1155 C   0  0  0  0  0  0  0  0  0  0  0  0
  -13.8368   24.0432    0.9218 C   0  0  0  0  0  0  0  0  0  0  0  0
  -15.0597   24.1211    1.5990 C   0  0  0  0  0  0  0  0  0  0  0  0
  -13.1864   22.4805    2.8108 C   0  0  0  0  0  0  0  0  0  0  0  0
  -12.1841   22.1264    3.7187 C   0  0  0  0  0  0  0  0  0  0  0  0
  -12.4827   22.0200    5.0801 C   0  0  0  0  0  0  0  0  0  0  0  0
  -13.7847   22.2643    5.5287 C   0  0  0  0  0  0  0  0  0  0  0  0
  -14.7806   22.6167    4.6171 C   0  0  0  0  0  0  0  0  0  0  0  0
  -14.4870   22.7276    3.2650 C   0  0  0  0  0  0  0  0  0  0  0  0
  -16.8851   22.9415    2.7754 C   0  0  0  0  0  0  0  0  0  0  0  0
  -17.4750   24.0616    3.6959 C   0  0  0  0  0  0  0  0  0  0  0  0
  -19.0347   24.1841    3.6086 C   0  0  0  0  0  0  0  0  0  0  0  0
  -19.6018   24.9936    2.5000 N   0  3  0  0  0  0  0  0  0  0  0  0
  -21.0705   25.1633    2.6467 C   0  0  0  0  0  0  0  0  0  0  0  0
  -19.2426   24.3933    1.1686 C   0  0  0  0  0  0  0  0  0  0  0  0
  -16.2568   27.5602    0.4975 C   0  0  0  0  0  0  0  0  0  0  0  0
  -17.6649   27.6409    1.0354 C   0  0  0  0  0  0  0  0  0  0  0  0
  -15.7715   28.5534   -0.0204 O   0  0  0  0  0  0  0  0  0  0  0  0
  1  7  1  0  0  0  0
  1  9  1  0  0  0  0
  2  8  1  0  0  0  0
  2 14  1  0  0  0  0
  2 15  1  0  0  0  0
  3  4  2  0  0  0  0
  3  8  1  0  0  0  0
  4  5  1  0  0  0  0
  4 21  1  0  0  0  0
  5  6  2  0  0  0  0
  6  7  1  0  0  0  0
  7  8  2  0  0  0  0
  9 10  2  0  0  0  0
  9 14  1  0  0  0  0
 10 11  1  0  0  0  0
 11 12  2  0  0  0  0
 12 13  1  0  0  0  0
 13 14  2  0  0  0  0
 15 16  1  0  0  0  0
 16 17  1  0  0  0  0
 17 18  1  0  0  0  0
 18 19  1  0  0  0  0
 18 20  1  0  0  0  0
 21 22  1  0  0  0  0
 21 23  2  0  0  0  0
M  CHG  1  18   1
M  END
>  <CHROM.1>
-64.38482256,-9.02331056,156.98515280,-83.64370745,-52.68319283,-15.61455153
24.32398359,2.14868097,-0.58280781,0.23511136,-0.74767913

>  <Name>


>  <RI>
0

>  <Rbt.Current_Directory>
/home/itssahil/PROJECTS/Mol_Feturizer/New_Systems/rnas/1lvj

>  <Rbt.Executable>
rbdock ($Id: //depot/dev/client3/rdock/2013.1/src/exe/rbdock.cxx#4 $)

>  <Rbt.Library>
libRbt.so (2013.1, Build901 2013/11/27)

>  <Rbt.Parameter_File>
/export/apps/rDock/src/rDock_2013.1_src/data/scripts/dock_solv.prm

>  <Rbt.Receptor>
prm/blind_docking_40.prm

>  <SCORE>
-27.6348

>  <SCORE.INTER>
-26.5146

>  <SCORE.INTER.CONST>
1

>  <SCORE.INTER.POLAR>
0

>  <SCORE.INTER.ROT>
5

>  <SCORE.INTER.SOLV>
11.2603

>  <SCORE.INTER.VDW>
-28.3632

>  <SCORE.INTER.norm>
-1.15281

>  <SCORE.INTRA>
-1.91843

>  <SCORE.INTRA.DIHEDRAL>
-3.62223

>  <SCORE.INTRA.DIHEDRAL.0>
8.06479

>  <SCORE.INTRA.POLAR>
0

>  <SCORE.INTRA.POLAR.0>
0

>  <SCORE.INTRA.REPUL>
0

>  <SCORE.INTRA.REPUL.0>
0

>  <SCORE.INTRA.SOLV>
3.68152

>  <SCORE.INTRA.SOLV.lig_0>
-29.8054

>  <SCORE.INTRA.VDW>
-1.94807

>  <SCORE.INTRA.VDW.0>
2.61447

>  <SCORE.INTRA.norm>
-0.0834099

>  <SCORE.RESTR>
0.79829

>  <SCORE.RESTR.CAVITY>
0.79829

>  <SCORE.RESTR.norm>
0.0347083

>  <SCORE.SYSTEM>
0

>  <SCORE.SYSTEM.CONST>
0

>  <SCORE.SYSTEM.DIHEDRAL>
0

>  <SCORE.SYSTEM.SOLV>
0

>  <SCORE.SYSTEM.norm>
0

>  <SCORE.heavy>
23

>  <SCORE.norm>
-1.20151

>  <RMSD>
20.943

$$$$

 OpenBabel11021811403D
libRbt.so/2013.1/901 2013/11/27
 23 25  0  0  0  0  0  0  0  0999 V2000
  -13.0129   22.3410    0.9893 S   0  0  0  0  0  0  0  0  0  0  0  0
  -15.4886   23.0748    2.4731 N   0  0  0  0  0  0  0  0  0  0  0  0
  -15.8007   25.2442    1.4679 C   0  0  0  0  0  0  0  0  0  0  0  0
  -15.3640   26.2193    0.5614 C   0  0  0  0  0  0  0  0  0  0  0  0
  -14.2242   26.0017   -0.2067 C   0  0  0  0  0  0  0  0  0  0  0  0
  -13.5129   24.8144   -0.0714 C   0  0  0  0  0  0  0  0  0  0  0  0
  -13.9363   23.8394    0.8281 C   0  0  0  0  0  0  0  0  0  0  0  0
  -15.0833   24.0474    1.6036 C   0  0  0  0  0  0  0  0  0  0  0  0
  -13.2332   22.3287    2.7404 C   0  0  0  0  0  0  0  0  0  0  0  0
  -12.1810   21.9437    3.5765 C   0  0  0  0  0  0  0  0  0  0  0  0
  -12.3612   21.9305    4.9625 C   0  0  0  0  0  0  0  0  0  0  0  0
  -13.5954   22.2988    5.5080 C   0  0  0  0  0  0  0  0  0  0  0  0
  -14.6416   22.6813    4.6677 C   0  0  0  0  0  0  0  0  0  0  0  0
  -14.4651   22.6999    3.2910 C   0  0  0  0  0  0  0  0  0  0  0  0
  -16.8757   23.0761    3.0005 C   0  0  0  0  0  0  0  0  0  0  0  0
  -18.0369   23.1602    1.9544 C   0  0  0  0  0  0  0  0  0  0  0  0
  -19.4252   23.5121    2.5899 C   0  0  0  0  0  0  0  0  0  0  0  0
  -19.8040   24.9460    2.6684 N   0  3  0  0  0  0  0  0  0  0  0  0
  -20.0575   25.5161    1.3200 C   0  0  0  0  0  0  0  0  0  0  0  0
  -18.7595   25.7295    3.4149 C   0  0  0  0  0  0  0  0  0  0  0  0
  -16.1194   27.5092    0.4137 C   0  0  0  0  0  0  0  0  0  0  0  0
  -17.5786   27.6270    0.7819 C   0  0  0  0  0  0  0  0  0  0  0  0
  -15.5280   28.5105    0.0424 O   0  0  0  0  0  0  0  0  0  0  0  0
  1  7  1  0  0  0  0
  1  9  1  0  0  0  0
  2  8  1  0  0  0  0
  2 14  1  0  0  0  0
  2 15  1  0  0  0  0
  3  4  2  0  0  0  0
  3  8  1  0  0  0  0
  4  5  1  0  0  0  0
  4 21  1  0  0  0  0
  5  6  2  0  0  0  0
  6  7  1  0  0  0  0
  7  8  2  0  0  0  0
  9 10  2  0  0  0  0
  9 14  1  0  0  0  0
 10 11  1  0  0  0  0
 11 12  2  0  0  0  0
 12 13  1  0  0  0  0
 13 14  2  0  0  0  0
 15 16  1  0  0  0  0
 16 17  1  0  0  0  0
 17 18  1  0  0  0  0
 18 19  1  0  0  0  0
 18 20  1  0  0  0  0
 21 22  1  0  0  0  0
 21 23  2  0  0  0  0
M  CHG  1  18   1
M  END
>  <CHROM.1>
52.06624027,-23.52814936,-165.65732504,91.47011824,-171.42317859,-15.58702403
24.25545608,2.04274415,-0.65794734,0.24465673,-0.72726795

>  <Name>


>  <RI>
0

>  <Rbt.Current_Directory>
/home/itssahil/PROJECTS/Mol_Feturizer/New_Systems/rnas/1lvj

>  <Rbt.Executable>
rbdock ($Id: //depot/dev/client3/rdock/2013.1/src/exe/rbdock.cxx#4 $)

>  <Rbt.Library>
libRbt.so (2013.1, Build901 2013/11/27)

>  <Rbt.Parameter_File>
/export/apps/rDock/src/rDock_2013.1_src/data/scripts/dock_solv.prm

>  <Rbt.Receptor>
prm/blind_docking_80.prm

>  <SCORE>
-30.304

>  <SCORE.INTER>
-28.4807

>  <SCORE.INTER.CONST>
1

>  <SCORE.INTER.POLAR>
0

>  <SCORE.INTER.ROT>
5

>  <SCORE.INTER.SOLV>
12.5584

>  <SCORE.INTER.VDW>
-30.1066

>  <SCORE.INTER.norm>
-1.23829

>  <SCORE.INTRA>
-2.20383

>  <SCORE.INTRA.DIHEDRAL>
-1.68208

>  <SCORE.INTRA.DIHEDRAL.0>
8.06479

>  <SCORE.INTRA.POLAR>
0

>  <SCORE.INTRA.POLAR.0>
0

>  <SCORE.INTRA.REPUL>
0

>  <SCORE.INTRA.REPUL.0>
0

>  <SCORE.INTRA.SOLV>
-0.436331

>  <SCORE.INTRA.SOLV.lig_0>
-29.8054

>  <SCORE.INTRA.VDW>
-1.14462

>  <SCORE.INTRA.VDW.0>
2.61447

>  <SCORE.INTRA.norm>
-0.0958186

>  <SCORE.RESTR>
0.38052

>  <SCORE.RESTR.CAVITY>
0.38052

>  <SCORE.RESTR.norm>
0.0165443

>  <SCORE.SYSTEM>
0

>  <SCORE.SYSTEM.CONST>
0

>  <SCORE.SYSTEM.DIHEDRAL>
0

>  <SCORE.SYSTEM.SOLV>
0

>  <SCORE.SYSTEM.norm>
0

>  <SCORE.heavy>
23

>  <SCORE.norm>
-1.31757

>  <RMSD>
20.943

$$$$

 OpenBabel11021811403D
libRbt.so/2013.1/901 2013/11/27
 23 25  0  0  0  0  0  0  0  0999 V2000
  -16.2938   26.4621    0.8876 S   0  0  0  0  0  0  0  0  0  0  0  0
  -15.7609   24.1015    2.6233 N   0  0  0  0  0  0  0  0  0  0  0  0
  -13.9125   23.2152    1.3535 C   0  0  0  0  0  0  0  0  0  0  0  0
  -13.0516   23.3255    0.2537 C   0  0  0  0  0  0  0  0  0  0  0  0
  -13.1821   24.3887   -0.6346 C   0  0  0  0  0  0  0  0  0  0  0  0
  -14.1733   25.3430   -0.4333 C   0  0  0  0  0  0  0  0  0  0  0  0
  -15.0363   25.2420    0.6550 C   0  0  0  0  0  0  0  0  0  0  0  0
  -14.9115   24.1778    1.5561 C   0  0  0  0  0  0  0  0  0  0  0  0
  -17.4636   25.2401    1.3907 C   0  0  0  0  0  0  0  0  0  0  0  0
  -18.7940   25.3285    0.9707 C   0  0  0  0  0  0  0  0  0  0  0  0
  -19.7185   24.3614    1.3756 C   0  0  0  0  0  0  0  0  0  0  0  0
  -19.3098   23.3105    2.2032 C   0  0  0  0  0  0  0  0  0  0  0  0
  -17.9805   23.2287    2.6194 C   0  0  0  0  0  0  0  0  0  0  0  0
  -17.0586   24.1847    2.2158 C   0  0  0  0  0  0  0  0  0  0  0  0
  -15.4197   23.2492    3.7892 C   0  0  0  0  0  0  0  0  0  0  0  0
  -13.9932   23.4253    4.4089 C   0  0  0  0  0  0  0  0  0  0  0  0
  -13.4892   22.1605    5.1845 C   0  0  0  0  0  0  0  0  0  0  0  0
  -12.1820   22.2557    5.8832 N   0  3  0  0  0  0  0  0  0  0  0  0
  -11.0942   22.6484    4.9505 C   0  0  0  0  0  0  0  0  0  0  0  0
  -11.8664   20.9682    6.5936 C   0  0  0  0  0  0  0  0  0  0  0  0
  -11.9831   22.2955    0.0214 C   0  0  0  0  0  0  0  0  0  0  0  0
  -11.5038   21.3796    1.1215 C   0  0  0  0  0  0  0  0  0  0  0  0
  -11.5270   22.1484   -1.1013 O   0  0  0  0  0  0  0  0  0  0  0  0
  1  7  1  0  0  0  0
  1  9  1  0  0  0  0
  2  8  1  0  0  0  0
  2 14  1  0  0  0  0
  2 15  1  0  0  0  0
  3  4  2  0  0  0  0
  3  8  1  0  0  0  0
  4  5  1  0  0  0  0
  4 21  1  0  0  0  0
  5  6  2  0  0  0  0
  6  7  1  0  0  0  0
  7  8  2  0  0  0  0
  9 10  2  0  0  0  0
  9 14  1  0  0  0  0
 10 11  1  0  0  0  0
 11 12  2  0  0  0  0
 12 13  1  0  0  0  0
 13 14  2  0  0  0  0
 15 16  1  0  0  0  0
 16 17  1  0  0  0  0
 17 18  1  0  0  0  0
 18 19  1  0  0  0  0
 18 20  1  0  0  0  0
 21 22  1  0  0  0  0
 21 23  2  0  0  0  0
M  CHG  1  18   1
M  END
>  <CHROM.1>
50.14624072,-19.25241417,-155.83231731,-176.21849771,63.76219875,-14.74863812
23.68376002,2.09189519,-2.62495315,-0.33606740,1.88205346

>  <Name>


>  <RI>
0

>  <Rbt.Current_Directory>
/home/itssahil/PROJECTS/Mol_Feturizer/New_Systems/rnas/1lvj

>  <Rbt.Executable>
rbdock ($Id: //depot/dev/client3/rdock/2013.1/src/exe/rbdock.cxx#4 $)

>  <Rbt.Library>
libRbt.so (2013.1, Build901 2013/11/27)

>  <Rbt.Parameter_File>
/export/apps/rDock/src/rDock_2013.1_src/data/scripts/dock_solv.prm

>  <Rbt.Receptor>
prm/blind_docking_80.prm

>  <SCORE>
-37.0822

>  <SCORE.INTER>
-33.7673

>  <SCORE.INTER.CONST>
1

>  <SCORE.INTER.POLAR>
-1.44967

>  <SCORE.INTER.ROT>
5

>  <SCORE.INTER.SOLV>
18.4497

>  <SCORE.INTER.VDW>
-30.7625

>  <SCORE.INTER.norm>
-1.46814

>  <SCORE.INTRA>
-4.07306

>  <SCORE.INTRA.DIHEDRAL>
-4.21696

>  <SCORE.INTRA.DIHEDRAL.0>
8.06479

>  <SCORE.INTRA.POLAR>
0

>  <SCORE.INTRA.POLAR.0>
0

>  <SCORE.INTRA.REPUL>
0

>  <SCORE.INTRA.REPUL.0>
0

>  <SCORE.INTRA.SOLV>
0.181363

>  <SCORE.INTRA.SOLV.lig_0>
-29.8054

>  <SCORE.INTRA.VDW>
-2.05526

>  <SCORE.INTRA.VDW.0>
2.61447

>  <SCORE.INTRA.norm>
-0.17709

>  <SCORE.RESTR>
0.758113

>  <SCORE.RESTR.CAVITY>
0.758113

>  <SCORE.RESTR.norm>
0.0329614

>  <SCORE.SYSTEM>
0

>  <SCORE.SYSTEM.CONST>
0

>  <SCORE.SYSTEM.DIHEDRAL>
0

>  <SCORE.SYSTEM.SOLV>
0

>  <SCORE.SYSTEM.norm>
0

>  <SCORE.heavy>
23

>  <SCORE.norm>
-1.61227

>  <RMSD>
20.958

$$$$

 OpenBabel11021811403D
libRbt.so/2013.1/901 2013/11/27
 23 25  0  0  0  0  0  0  0  0999 V2000
  -12.9988   22.4472    0.9969 S   0  0  0  0  0  0  0  0  0  0  0  0
  -15.4931   23.1179    2.4794 N   0  0  0  0  0  0  0  0  0  0  0  0
  -15.8339   25.2987    1.5087 C   0  0  0  0  0  0  0  0  0  0  0  0
  -15.4077   26.2953    0.6209 C   0  0  0  0  0  0  0  0  0  0  0  0
  -14.2608   26.1082   -0.1447 C   0  0  0  0  0  0  0  0  0  0  0  0
  -13.5319   24.9300   -0.0254 C   0  0  0  0  0  0  0  0  0  0  0  0
  -13.9446   23.9337    0.8556 C   0  0  0  0  0  0  0  0  0  0  0  0
  -15.0986   24.1110    1.6283 C   0  0  0  0  0  0  0  0  0  0  0  0
  -13.2278   22.4024    2.7463 C   0  0  0  0  0  0  0  0  0  0  0  0
  -12.1740   22.0198    3.5815 C   0  0  0  0  0  0  0  0  0  0  0  0
  -12.3610   21.9808    4.9662 C   0  0  0  0  0  0  0  0  0  0  0  0
  -13.6035   22.3208    5.5111 C   0  0  0  0  0  0  0  0  0  0  0  0
  -14.6512   22.7011    4.6717 C   0  0  0  0  0  0  0  0  0  0  0  0
  -14.4681   22.7453    3.2964 C   0  0  0  0  0  0  0  0  0  0  0  0
  -16.8827   23.0889    2.9994 C   0  0  0  0  0  0  0  0  0  0  0  0
  -18.0396   23.1922    1.9502 C   0  0  0  0  0  0  0  0  0  0  0  0
  -19.4332   23.5184    2.5879 C   0  0  0  0  0  0  0  0  0  0  0  0
  -19.8161   24.9479    2.7142 N   0  3  0  0  0  0  0  0  0  0  0  0
  -20.0867   25.5577    1.3866 C   0  0  0  0  0  0  0  0  0  0  0  0
  -18.7660   25.7123    3.4725 C   0  0  0  0  0  0  0  0  0  0  0  0
  -16.1823   27.5758    0.4905 C   0  0  0  0  0  0  0  0  0  0  0  0
  -17.5977   27.7083    0.9984 C   0  0  0  0  0  0  0  0  0  0  0  0
  -15.6377   28.5595    0.0153 O   0  0  0  0  0  0  0  0  0  0  0  0
  1  7  1  0  0  0  0
  1  9  1  0  0  0  0
  2  8  1  0  0  0  0
  2 14  1  0  0  0  0
  2 15  1  0  0  0  0
  3  4  2  0  0  0  0
  3  8  1  0  0  0  0
  4  5  1  0  0  0  0
  4 21  1  0  0  0  0
  5  6  2  0  0  0  0
  6  7  1  0  0  0  0
  7  8  2  0  0  0  0
  9 10  2  0  0  0  0
  9 14  1  0  0  0  0
 10 11  1  0  0  0  0
 11 12  2  0  0  0  0
 12 13  1  0  0  0  0
 13 14  2  0  0  0  0
 15 16  1  0  0  0  0
 16 17  1  0  0  0  0
 17 18  1  0  0  0  0
 18 19  1  0  0  0  0
 18 20  1  0  0  0  0
 21 22  1  0  0  0  0
 21 23  2  0  0  0  0
M  CHG  1  18   1
M  END
>  <CHROM.1>
51.25264103,-16.40468438,-165.33327562,90.85470035,-170.33904733,-15.60364521
24.31024702,2.07376643,-0.65073635,0.24064059,-0.71765759

>  <Name>


>  <RI>
0

>  <Rbt.Current_Directory>
/home/itssahil/PROJECTS/Mol_Feturizer/New_Systems/rnas/1lvj

>  <Rbt.Executable>
rbdock ($Id: //depot/dev/client3/rdock/2013.1/src/exe/rbdock.cxx#4 $)

>  <Rbt.Library>
libRbt.so (2013.1, Build901 2013/11/27)

>  <Rbt.Parameter_File>
/export/apps/rDock/src/rDock_2013.1_src/data/scripts/dock_solv.prm

>  <Rbt.Receptor>
prm/blind_docking_80.prm

>  <SCORE>
-30.3713

>  <SCORE.INTER>
-28.3487

>  <SCORE.INTER.CONST>
1

>  <SCORE.INTER.POLAR>
0

>  <SCORE.INTER.ROT>
5

>  <SCORE.INTER.SOLV>
12.4893

>  <SCORE.INTER.VDW>
-29.9956

>  <SCORE.INTER.norm>
-1.23255

>  <SCORE.INTRA>
-2.44069

>  <SCORE.INTRA.DIHEDRAL>
-2.78917

>  <SCORE.INTRA.DIHEDRAL.0>
8.06479

>  <SCORE.INTRA.POLAR>
0

>  <SCORE.INTRA.POLAR.0>
0

>  <SCORE.INTRA.REPUL>
0

>  <SCORE.INTRA.REPUL.0>
0

>  <SCORE.INTRA.SOLV>
-0.4143

>  <SCORE.INTRA.SOLV.lig_0>
-29.8054

>  <SCORE.INTRA.VDW>
-0.838956

>  <SCORE.INTRA.VDW.0>
2.61447

>  <SCORE.INTRA.norm>
-0.106117

>  <SCORE.RESTR>
0.418077

>  <SCORE.RESTR.CAVITY>
0.418077

>  <SCORE.RESTR.norm>
0.0181773

>  <SCORE.SYSTEM>
0

>  <SCORE.SYSTEM.CONST>
0

>  <SCORE.SYSTEM.DIHEDRAL>
0

>  <SCORE.SYSTEM.SOLV>
0

>  <SCORE.SYSTEM.norm>
0

>  <SCORE.heavy>
23

>  <SCORE.norm>
-1.32049

>  <RMSD>
20.968

$$$$

 OpenBabel11021811403D
libRbt.so/2013.1/901 2013/11/27
 23 25  0  0  0  0  0  0  0  0999 V2000
  -13.0609   23.2279    3.8498 S   0  0  0  0  0  0  0  0  0  0  0  0
  -14.3596   24.8125    1.6884 N   0  0  0  0  0  0  0  0  0  0  0  0
  -16.6373   24.2348    2.2294 C   0  0  0  0  0  0  0  0  0  0  0  0
  -17.5351   23.5434    3.0534 C   0  0  0  0  0  0  0  0  0  0  0  0
  -17.0637   22.7713    4.1109 C   0  0  0  0  0  0  0  0  0  0  0  0
  -15.6965   22.6815    4.3484 C   0  0  0  0  0  0  0  0  0  0  0  0
  -14.7948   23.3623    3.5344 C   0  0  0  0  0  0  0  0  0  0  0  0
  -15.2590   24.1439    2.4696 C   0  0  0  0  0  0  0  0  0  0  0  0
  -12.6969   23.1511    2.1246 C   0  0  0  0  0  0  0  0  0  0  0  0
  -11.7080   22.2817    1.6549 C   0  0  0  0  0  0  0  0  0  0  0  0
  -11.4193   22.2275    0.2884 C   0  0  0  0  0  0  0  0  0  0  0  0
  -12.1183   23.0468   -0.6042 C   0  0  0  0  0  0  0  0  0  0  0  0
  -13.1036   23.9128   -0.1286 C   0  0  0  0  0  0  0  0  0  0  0  0
  -13.3962   23.9662    1.2272 C   0  0  0  0  0  0  0  0  0  0  0  0
  -14.8072   25.9383    0.8315 C   0  0  0  0  0  0  0  0  0  0  0  0
  -16.0810   25.7036   -0.0474 C   0  0  0  0  0  0  0  0  0  0  0  0
  -16.9719   26.9825   -0.2092 C   0  0  0  0  0  0  0  0  0  0  0  0
  -17.1326   27.8651    0.9745 N   0  3  0  0  0  0  0  0  0  0  0  0
  -17.9263   27.2037    2.0422 C   0  0  0  0  0  0  0  0  0  0  0  0
  -17.7324   29.1847    0.5735 C   0  0  0  0  0  0  0  0  0  0  0  0
  -19.0135   23.6260    2.8004 C   0  0  0  0  0  0  0  0  0  0  0  0
  -20.0205   23.5671    3.9234 C   0  0  0  0  0  0  0  0  0  0  0  0
  -19.4173   23.8060    1.6626 O   0  0  0  0  0  0  0  0  0  0  0  0
  1  7  1  0  0  0  0
  1  9  1  0  0  0  0
  2  8  1  0  0  0  0
  2 14  1  0  0  0  0
  2 15  1  0  0  0  0
  3  4  2  0  0  0  0
  3  8  1  0  0  0  0
  4  5  1  0  0  0  0
  4 21  1  0  0  0  0
  5  6  2  0  0  0  0
  6  7  1  0  0  0  0
  7  8  2  0  0  0  0
  9 10  2  0  0  0  0
  9 14  1  0  0  0  0
 10 11  1  0  0  0  0
 11 12  2  0  0  0  0
 12 13  1  0  0  0  0
 13 14  2  0  0  0  0
 15 16  1  0  0  0  0
 16 17  1  0  0  0  0
 17 18  1  0  0  0  0
 18 19  1  0  0  0  0
 18 20  1  0  0  0  0
 21 22  1  0  0  0  0
 21 23  2  0  0  0  0
M  CHG  1  18   1
M  END
>  <CHROM.1>
-47.73119573,-147.41556342,144.99286433,-38.76927512,51.58760691,-15.51690819
24.42359759,1.93199108,0.34239344,-0.33457414,2.44919720

>  <Name>


>  <RI>
0

>  <Rbt.Current_Directory>
/home/itssahil/PROJECTS/Mol_Feturizer/New_Systems/rnas/1lvj

>  <Rbt.Executable>
rbdock ($Id: //depot/dev/client3/rdock/2013.1/src/exe/rbdock.cxx#4 $)

>  <Rbt.Library>
libRbt.so (2013.1, Build901 2013/11/27)

>  <Rbt.Parameter_File>
/export/apps/rDock/src/rDock_2013.1_src/data/scripts/dock_solv.prm

>  <Rbt.Receptor>
prm/blind_docking_80.prm

>  <SCORE>
-26.2167

>  <SCORE.INTER>
-27.4615

>  <SCORE.INTER.CONST>
1

>  <SCORE.INTER.POLAR>
-1.5

>  <SCORE.INTER.ROT>
5

>  <SCORE.INTER.SOLV>
16.2612

>  <SCORE.INTER.VDW>
-25.6614

>  <SCORE.INTER.norm>
-1.19398

>  <SCORE.INTRA>
1.2448

>  <SCORE.INTRA.DIHEDRAL>
1.47962

>  <SCORE.INTRA.DIHEDRAL.0>
8.06479

>  <SCORE.INTRA.POLAR>
0

>  <SCORE.INTRA.POLAR.0>
0

>  <SCORE.INTRA.REPUL>
0

>  <SCORE.INTRA.REPUL.0>
0

>  <SCORE.INTRA.SOLV>
2.99011

>  <SCORE.INTRA.SOLV.lig_0>
-29.8054

>  <SCORE.INTRA.VDW>
-0.990063

>  <SCORE.INTRA.VDW.0>
2.61447

>  <SCORE.INTRA.norm>
0.0541218

>  <SCORE.RESTR>
0

>  <SCORE.RESTR.CAVITY>
0

>  <SCORE.RESTR.norm>
0

>  <SCORE.SYSTEM>
0

>  <SCORE.SYSTEM.CONST>
0

>  <SCORE.SYSTEM.DIHEDRAL>
0

>  <SCORE.SYSTEM.SOLV>
0

>  <SCORE.SYSTEM.norm>
0

>  <SCORE.heavy>
23

>  <SCORE.norm>
-1.13986

>  <RMSD>
20.972

$$$$

 OpenBabel11021811403D
libRbt.so/2013.1/901 2013/11/27
 23 25  0  0  0  0  0  0  0  0999 V2000
  -12.7551   23.4240    1.2512 S   0  0  0  0  0  0  0  0  0  0  0  0
  -15.5767   23.3653    2.2021 N   0  0  0  0  0  0  0  0  0  0  0  0
  -16.1665   25.5979    1.5080 C   0  0  0  0  0  0  0  0  0  0  0  0
  -15.7911   26.8017    0.8972 C   0  0  0  0  0  0  0  0  0  0  0  0
  -14.5025   26.9617    0.3970 C   0  0  0  0  0  0  0  0  0  0  0  0
  -13.5819   25.9252    0.5074 C   0  0  0  0  0  0  0  0  0  0  0  0
  -13.9432   24.7253    1.1148 C   0  0  0  0  0  0  0  0  0  0  0  0
  -15.2380   24.5533    1.6188 C   0  0  0  0  0  0  0  0  0  0  0  0
  -13.3101   23.0127    2.8753 C   0  0  0  0  0  0  0  0  0  0  0  0
  -12.3856   22.6671    3.8653 C   0  0  0  0  0  0  0  0  0  0  0  0
  -12.8297   22.3372    5.1490 C   0  0  0  0  0  0  0  0  0  0  0  0
  -14.1983   22.3501    5.4373 C   0  0  0  0  0  0  0  0  0  0  0  0
  -15.1157   22.6953    4.4442 C   0  0  0  0  0  0  0  0  0  0  0  0
  -14.6782   23.0277    3.1695 C   0  0  0  0  0  0  0  0  0  0  0  0
  -17.0043   23.0007    2.3787 C   0  0  0  0  0  0  0  0  0  0  0  0
  -17.9943   23.4218    1.2418 C   0  0  0  0  0  0  0  0  0  0  0  0
  -19.4703   23.6041    1.7353 C   0  0  0  0  0  0  0  0  0  0  0  0
  -19.7005   24.4805    2.9121 N   0  3  0  0  0  0  0  0  0  0  0  0
  -19.5212   23.7380    4.1865 C   0  0  0  0  0  0  0  0  0  0  0  0
  -21.0556   25.1281    2.8329 C   0  0  0  0  0  0  0  0  0  0  0  0
  -16.7745   27.9312    0.7806 C   0  0  0  0  0  0  0  0  0  0  0  0
  -18.1295   27.8823    1.4442 C   0  0  0  0  0  0  0  0  0  0  0  0
  -16.4528   28.9462    0.1835 O   0  0  0  0  0  0  0  0  0  0  0  0
  1  7  1  0  0  0  0
  1  9  1  0  0  0  0
  2  8  1  0  0  0  0
  2 14  1  0  0  0  0
  2 15  1  0  0  0  0
  3  4  2  0  0  0  0
  3  8  1  0  0  0  0
  4  5  1  0  0  0  0
  4 21  1  0  0  0  0
  5  6  2  0  0  0  0
  6  7  1  0  0  0  0
  7  8  2  0  0  0  0
  9 10  2  0  0  0  0
  9 14  1  0  0  0  0
 10 11  1  0  0  0  0
 11 12  2  0  0  0  0
 12 13  1  0  0  0  0
 13 14  2  0  0  0  0
 15 16  1  0  0  0  0
 16 17  1  0  0  0  0
 17 18  1  0  0  0  0
 18 19  1  0  0  0  0
 18 20  1  0  0  0  0
 21 22  1  0  0  0  0
 21 23  2  0  0  0  0
M  CHG  1  18   1
M  END
>  <CHROM.1>
36.71885480,7.17681761,-153.95596649,51.69589973,34.95130498,-15.86727201
24.55922894,2.20778016,-0.51166704,0.12721710,-0.63447868

>  <Name>


>  <RI>
0

>  <Rbt.Current_Directory>
/home/itssahil/PROJECTS/Mol_Feturizer/New_Systems/rnas/1lvj

>  <Rbt.Executable>
rbdock ($Id: //depot/dev/client3/rdock/2013.1/src/exe/rbdock.cxx#4 $)

>  <Rbt.Library>
libRbt.so (2013.1, Build901 2013/11/27)

>  <Rbt.Parameter_File>
/export/apps/rDock/src/rDock_2013.1_src/data/scripts/dock_solv.prm

>  <Rbt.Receptor>
prm/blind_docking_40.prm

>  <SCORE>
-26.5019

>  <SCORE.INTER>
-26.0009

>  <SCORE.INTER.CONST>
1

>  <SCORE.INTER.POLAR>
0

>  <SCORE.INTER.ROT>
5

>  <SCORE.INTER.SOLV>
11.492

>  <SCORE.INTER.VDW>
-28.0979

>  <SCORE.INTER.norm>
-1.13047

>  <SCORE.INTRA>
-1.25583

>  <SCORE.INTRA.DIHEDRAL>
-3.60191

>  <SCORE.INTRA.DIHEDRAL.0>
8.06479

>  <SCORE.INTRA.POLAR>
0

>  <SCORE.INTRA.POLAR.0>
0

>  <SCORE.INTRA.REPUL>
0

>  <SCORE.INTRA.REPUL.0>
0

>  <SCORE.INTRA.SOLV>
4.11905

>  <SCORE.INTRA.SOLV.lig_0>
-29.8054

>  <SCORE.INTRA.VDW>
-1.5144

>  <SCORE.INTRA.VDW.0>
2.61447

>  <SCORE.INTRA.norm>
-0.0546013

>  <SCORE.RESTR>
0.754824

>  <SCORE.RESTR.CAVITY>
0.754824

>  <SCORE.RESTR.norm>
0.0328184

>  <SCORE.SYSTEM>
0

>  <SCORE.SYSTEM.CONST>
0

>  <SCORE.SYSTEM.DIHEDRAL>
0

>  <SCORE.SYSTEM.SOLV>
0

>  <SCORE.SYSTEM.norm>
0

>  <SCORE.heavy>
23

>  <SCORE.norm>
-1.15226

>  <RMSD>
20.973

$$$$

 OpenBabel11021811403D
libRbt.so/2013.1/901 2013/11/27
 23 25  0  0  0  0  0  0  0  0999 V2000
  -13.1822   21.9474    0.9923 S   0  0  0  0  0  0  0  0  0  0  0  0
  -15.0818   23.3184    2.8310 N   0  0  0  0  0  0  0  0  0  0  0  0
  -15.2298   25.3910    1.6077 C   0  0  0  0  0  0  0  0  0  0  0  0
  -14.8485   26.1584    0.4992 C   0  0  0  0  0  0  0  0  0  0  0  0
  -13.9723   25.6356   -0.4470 C   0  0  0  0  0  0  0  0  0  0  0  0
  -13.4693   24.3487   -0.2902 C   0  0  0  0  0  0  0  0  0  0  0  0
  -13.8394   23.5778    0.8089 C   0  0  0  0  0  0  0  0  0  0  0  0
  -14.7225   24.0935    1.7651 C   0  0  0  0  0  0  0  0  0  0  0  0
  -12.9928   22.1600    2.7340 C   0  0  0  0  0  0  0  0  0  0  0  0
  -11.8613   21.6567    3.3827 C   0  0  0  0  0  0  0  0  0  0  0  0
  -11.7176   21.8229    4.7631 C   0  0  0  0  0  0  0  0  0  0  0  0
  -12.7088   22.4888    5.4914 C   0  0  0  0  0  0  0  0  0  0  0  0
  -13.8360   22.9880    4.8378 C   0  0  0  0  0  0  0  0  0  0  0  0
  -13.9802   22.8288    3.4665 C   0  0  0  0  0  0  0  0  0  0  0  0
  -16.2881   23.6561    3.6265 C   0  0  0  0  0  0  0  0  0  0  0  0
  -17.6685   23.5932    2.8914 C   0  0  0  0  0  0  0  0  0  0  0  0
  -18.7895   24.4313    3.5957 C   0  0  0  0  0  0  0  0  0  0  0  0
  -20.2006   24.0362    3.3537 N   0  3  0  0  0  0  0  0  0  0  0  0
  -20.8631   24.9499    2.3873 C   0  0  0  0  0  0  0  0  0  0  0  0
  -20.9580   23.9562    4.6507 C   0  0  0  0  0  0  0  0  0  0  0  0
  -15.3785   27.5530    0.3246 C   0  0  0  0  0  0  0  0  0  0  0  0
  -14.4634   28.7505    0.2392 C   0  0  0  0  0  0  0  0  0  0  0  0
  -16.5793   27.7245    0.1870 O   0  0  0  0  0  0  0  0  0  0  0  0
  1  7  1  0  0  0  0
  1  9  1  0  0  0  0
  2  8  1  0  0  0  0
  2 14  1  0  0  0  0
  2 15  1  0  0  0  0
  3  4  2  0  0  0  0
  3  8  1  0  0  0  0
  4  5  1  0  0  0  0
  4 21  1  0  0  0  0
  5  6  2  0  0  0  0
  6  7  1  0  0  0  0
  7  8  2  0  0  0  0
  9 10  2  0  0  0  0
  9 14  1  0  0  0  0
 10 11  1  0  0  0  0
 11 12  2  0  0  0  0
 12 13  1  0  0  0  0
 13 14  2  0  0  0  0
 15 16  1  0  0  0  0
 16 17  1  0  0  0  0
 17 18  1  0  0  0  0
 18 19  1  0  0  0  0
 18 20  1  0  0  0  0
 21 22  1  0  0  0  0
 21 23  2  0  0  0  0
M  CHG  1  18   1
M  END
>  <CHROM.1>
63.68181110,120.99457793,-159.10768582,-155.66389049,16.95681802,-15.35046596
24.13782000,2.26848653,0.27178804,-0.26212033,2.40255646

>  <Name>


>  <RI>
0

>  <Rbt.Current_Directory>
/home/itssahil/PROJECTS/Mol_Feturizer/New_Systems/rnas/1lvj

>  <Rbt.Executable>
rbdock ($Id: //depot/dev/client3/rdock/2013.1/src/exe/rbdock.cxx#4 $)

>  <Rbt.Library>
libRbt.so (2013.1, Build901 2013/11/27)

>  <Rbt.Parameter_File>
/export/apps/rDock/src/rDock_2013.1_src/data/scripts/dock_solv.prm

>  <Rbt.Receptor>
prm/blind_docking_100.prm

>  <SCORE>
-15.878

>  <SCORE.INTER>
-20.2826

>  <SCORE.INTER.CONST>
1

>  <SCORE.INTER.POLAR>
-0.260136

>  <SCORE.INTER.ROT>
5

>  <SCORE.INTER.SOLV>
17.5882

>  <SCORE.INTER.VDW>
-25.4506

>  <SCORE.INTER.norm>
-0.88185

>  <SCORE.INTRA>
0.96782

>  <SCORE.INTRA.DIHEDRAL>
8.63197

>  <SCORE.INTRA.DIHEDRAL.0>
8.06479

>  <SCORE.INTRA.POLAR>
0

>  <SCORE.INTRA.POLAR.0>
0

>  <SCORE.INTRA.REPUL>
0

>  <SCORE.INTRA.REPUL.0>
0

>  <SCORE.INTRA.SOLV>
0.762019

>  <SCORE.INTRA.SOLV.lig_0>
-29.8054

>  <SCORE.INTRA.VDW>
-3.72917

>  <SCORE.INTRA.VDW.0>
2.61447

>  <SCORE.INTRA.norm>
0.0420791

>  <SCORE.RESTR>
3.43671

>  <SCORE.RESTR.CAVITY>
3.43671

>  <SCORE.RESTR.norm>
0.149422

>  <SCORE.SYSTEM>
0

>  <SCORE.SYSTEM.CONST>
0

>  <SCORE.SYSTEM.DIHEDRAL>
0

>  <SCORE.SYSTEM.SOLV>
0

>  <SCORE.SYSTEM.norm>
0

>  <SCORE.heavy>
23

>  <SCORE.norm>
-0.690349

>  <RMSD>
20.981

$$$$

 OpenBabel11021811403D
libRbt.so/2013.1/901 2013/11/27
 23 25  0  0  0  0  0  0  0  0999 V2000
  -12.5785   23.1681    3.8687 S   0  0  0  0  0  0  0  0  0  0  0  0
  -13.7113   24.2519    1.3366 N   0  0  0  0  0  0  0  0  0  0  0  0
  -16.0305   23.8417    1.8537 C   0  0  0  0  0  0  0  0  0  0  0  0
  -16.9913   23.3635    2.7544 C   0  0  0  0  0  0  0  0  0  0  0  0
  -16.6006   22.8388    3.9826 C   0  0  0  0  0  0  0  0  0  0  0  0
  -15.2517   22.7841    4.3161 C   0  0  0  0  0  0  0  0  0  0  0  0
  -14.2879   23.2541    3.4276 C   0  0  0  0  0  0  0  0  0  0  0  0
  -14.6707   23.7865    2.1906 C   0  0  0  0  0  0  0  0  0  0  0  0
  -12.1216   22.7050    2.2281 C   0  0  0  0  0  0  0  0  0  0  0  0
  -11.1324   21.7389    2.0224 C   0  0  0  0  0  0  0  0  0  0  0  0
  -10.7699   21.3785    0.7214 C   0  0  0  0  0  0  0  0  0  0  0  0
  -11.3955   21.9892   -0.3704 C   0  0  0  0  0  0  0  0  0  0  0  0
  -12.3815   22.9533   -0.1580 C   0  0  0  0  0  0  0  0  0  0  0  0
  -12.7473   23.3106    1.1325 C   0  0  0  0  0  0  0  0  0  0  0  0
  -14.0796   25.1657    0.2269 C   0  0  0  0  0  0  0  0  0  0  0  0
  -14.7429   26.5292    0.6154 C   0  0  0  0  0  0  0  0  0  0  0  0
  -16.3081   26.5039    0.5466 C   0  0  0  0  0  0  0  0  0  0  0  0
  -17.0383   27.7112    1.0103 N   0  3  0  0  0  0  0  0  0  0  0  0
  -17.9279   27.4010    2.1591 C   0  0  0  0  0  0  0  0  0  0  0  0
  -17.7975   28.3397   -0.1258 C   0  0  0  0  0  0  0  0  0  0  0  0
  -18.4505   23.4093    2.4009 C   0  0  0  0  0  0  0  0  0  0  0  0
  -18.9609   24.1912    1.2149 C   0  0  0  0  0  0  0  0  0  0  0  0
  -19.2453   22.7494    3.0514 O   0  0  0  0  0  0  0  0  0  0  0  0
  1  7  1  0  0  0  0
  1  9  1  0  0  0  0
  2  8  1  0  0  0  0
  2 14  1  0  0  0  0
  2 15  1  0  0  0  0
  3  4  2  0  0  0  0
  3  8  1  0  0  0  0
  4  5  1  0  0  0  0
  4 21  1  0  0  0  0
  5  6  2  0  0  0  0
  6  7  1  0  0  0  0
  7  8  2  0  0  0  0
  9 10  2  0  0  0  0
  9 14  1  0  0  0  0
 10 11  1  0  0  0  0
 11 12  2  0  0  0  0
 12 13  1  0  0  0  0
 13 14  2  0  0  0  0
 15 16  1  0  0  0  0
 16 17  1  0  0  0  0
 17 18  1  0  0  0  0
 18 19  1  0  0  0  0
 18 20  1  0  0  0  0
 21 22  1  0  0  0  0
 21 23  2  0  0  0  0
M  CHG  1  18   1
M  END
>  <CHROM.1>
59.93892647,-11.87277117,-96.27121179,174.78086899,1.13091392,-14.97543552
24.10080875,1.85098395,0.43486084,-0.32042468,2.47932983

>  <Name>


>  <RI>
0

>  <Rbt.Current_Directory>
/home/itssahil/PROJECTS/Mol_Feturizer/New_Systems/rnas/1lvj

>  <Rbt.Executable>
rbdock ($Id: //depot/dev/client3/rdock/2013.1/src/exe/rbdock.cxx#4 $)

>  <Rbt.Library>
libRbt.so (2013.1, Build901 2013/11/27)

>  <Rbt.Parameter_File>
/export/apps/rDock/src/rDock_2013.1_src/data/scripts/dock_solv.prm

>  <Rbt.Receptor>
prm/blind_docking_80.prm

>  <SCORE>
-37.7469

>  <SCORE.INTER>
-35.7548

>  <SCORE.INTER.CONST>
1

>  <SCORE.INTER.POLAR>
-1.5

>  <SCORE.INTER.ROT>
5

>  <SCORE.INTER.SOLV>
16.199

>  <SCORE.INTER.VDW>
-31.1695

>  <SCORE.INTER.norm>
-1.55456

>  <SCORE.INTRA>
-2.39002

>  <SCORE.INTRA.DIHEDRAL>
0.356073

>  <SCORE.INTRA.DIHEDRAL.0>
8.06479

>  <SCORE.INTRA.POLAR>
0

>  <SCORE.INTRA.POLAR.0>
0

>  <SCORE.INTRA.REPUL>
0

>  <SCORE.INTRA.REPUL.0>
0

>  <SCORE.INTRA.SOLV>
0.916696

>  <SCORE.INTRA.SOLV.lig_0>
-29.8054

>  <SCORE.INTRA.VDW>
-3.0264

>  <SCORE.INTRA.VDW.0>
2.61447

>  <SCORE.INTRA.norm>
-0.103914

>  <SCORE.RESTR>
0.397958

>  <SCORE.RESTR.CAVITY>
0.397958

>  <SCORE.RESTR.norm>
0.0173025

>  <SCORE.SYSTEM>
0

>  <SCORE.SYSTEM.CONST>
0

>  <SCORE.SYSTEM.DIHEDRAL>
0

>  <SCORE.SYSTEM.SOLV>
0

>  <SCORE.SYSTEM.norm>
0

>  <SCORE.heavy>
23

>  <SCORE.norm>
-1.64117

>  <RMSD>
20.983

$$$$

 OpenBabel11021811403D
libRbt.so/2013.1/901 2013/11/27
 23 25  0  0  0  0  0  0  0  0999 V2000
  -12.5744   23.1942    3.8618 S   0  0  0  0  0  0  0  0  0  0  0  0
  -13.7127   24.2525    1.3213 N   0  0  0  0  0  0  0  0  0  0  0  0
  -16.0302   23.8415    1.8447 C   0  0  0  0  0  0  0  0  0  0  0  0
  -16.9889   23.3692    2.7508 C   0  0  0  0  0  0  0  0  0  0  0  0
  -16.5956   22.8564    3.9833 C   0  0  0  0  0  0  0  0  0  0  0  0
  -15.2462   22.8080    4.3156 C   0  0  0  0  0  0  0  0  0  0  0  0
  -14.2845   23.2722    3.4218 C   0  0  0  0  0  0  0  0  0  0  0  0
  -14.6699   23.7925    2.1805 C   0  0  0  0  0  0  0  0  0  0  0  0
  -12.1182   22.7174    2.2249 C   0  0  0  0  0  0  0  0  0  0  0  0
  -11.1270   21.7518    2.0267 C   0  0  0  0  0  0  0  0  0  0  0  0
  -10.7651   21.3806    0.7286 C   0  0  0  0  0  0  0  0  0  0  0  0
  -11.3934   21.9799   -0.3679 C   0  0  0  0  0  0  0  0  0  0  0  0
  -12.3814   22.9436   -0.1630 C   0  0  0  0  0  0  0  0  0  0  0  0
  -12.7466   23.3116    1.1246 C   0  0  0  0  0  0  0  0  0  0  0  0
  -14.0843   25.1554    0.2039 C   0  0  0  0  0  0  0  0  0  0  0  0
  -14.7515   26.5202    0.5808 C   0  0  0  0  0  0  0  0  0  0  0  0
  -16.3175   26.4792    0.5494 C   0  0  0  0  0  0  0  0  0  0  0  0
  -17.0480   27.6959    0.9873 N   0  3  0  0  0  0  0  0  0  0  0  0
  -17.9717   27.4001    2.1128 C   0  0  0  0  0  0  0  0  0  0  0  0
  -17.7696   28.3263   -0.1720 C   0  0  0  0  0  0  0  0  0  0  0  0
  -18.4486   23.4083    2.3986 C   0  0  0  0  0  0  0  0  0  0  0  0
  -18.9641   24.1909    1.2152 C   0  0  0  0  0  0  0  0  0  0  0  0
  -19.2394   22.7424    3.0478 O   0  0  0  0  0  0  0  0  0  0  0  0
  1  7  1  0  0  0  0
  1  9  1  0  0  0  0
  2  8  1  0  0  0  0
  2 14  1  0  0  0  0
  2 15  1  0  0  0  0
  3  4  2  0  0  0  0
  3  8  1  0  0  0  0
  4  5  1  0  0  0  0
  4 21  1  0  0  0  0
  5  6  2  0  0  0  0
  6  7  1  0  0  0  0
  7  8  2  0  0  0  0
  9 10  2  0  0  0  0
  9 14  1  0  0  0  0
 10 11  1  0  0  0  0
 11 12  2  0  0  0  0
 12 13  1  0  0  0  0
 13 14  2  0  0  0  0
 15 16  1  0  0  0  0
 16 17  1  0  0  0  0
 17 18  1  0  0  0  0
 18 19  1  0  0  0  0
 18 20  1  0  0  0  0
 21 22  1  0  0  0  0
 21 23  2  0  0  0  0
M  CHG  1  18   1
M  END
>  <CHROM.1>
59.89160803,-12.57332575,-94.76934680,175.65297934,-2.41391624,-14.97573786
24.10280322,1.84068765,0.43165245,-0.31982948,2.47188713

>  <Name>


>  <RI>
0

>  <Rbt.Current_Directory>
/home/itssahil/PROJECTS/Mol_Feturizer/New_Systems/rnas/1lvj

>  <Rbt.Executable>
rbdock ($Id: //depot/dev/client3/rdock/2013.1/src/exe/rbdock.cxx#4 $)

>  <Rbt.Library>
libRbt.so (2013.1, Build901 2013/11/27)

>  <Rbt.Parameter_File>
/export/apps/rDock/src/rDock_2013.1_src/data/scripts/dock_solv.prm

>  <Rbt.Receptor>
prm/blind_docking_80.prm

>  <SCORE>
-37.7135

>  <SCORE.INTER>
-35.7585

>  <SCORE.INTER.CONST>
1

>  <SCORE.INTER.POLAR>
-1.5

>  <SCORE.INTER.ROT>
5

>  <SCORE.INTER.SOLV>
16.0808

>  <SCORE.INTER.VDW>
-31.1326

>  <SCORE.INTER.norm>
-1.55472

>  <SCORE.INTRA>
-2.35017

>  <SCORE.INTRA.DIHEDRAL>
0.149128

>  <SCORE.INTRA.DIHEDRAL.0>
8.06479

>  <SCORE.INTRA.POLAR>
0

>  <SCORE.INTRA.POLAR.0>
0

>  <SCORE.INTRA.REPUL>
0

>  <SCORE.INTRA.REPUL.0>
0

>  <SCORE.INTRA.SOLV>
0.921904

>  <SCORE.INTRA.SOLV.lig_0>
-29.8054

>  <SCORE.INTRA.VDW>
-2.88569

>  <SCORE.INTRA.VDW.0>
2.61447

>  <SCORE.INTRA.norm>
-0.102181

>  <SCORE.RESTR>
0.395085

>  <SCORE.RESTR.CAVITY>
0.395085

>  <SCORE.RESTR.norm>
0.0171776

>  <SCORE.SYSTEM>
0

>  <SCORE.SYSTEM.CONST>
0

>  <SCORE.SYSTEM.DIHEDRAL>
0

>  <SCORE.SYSTEM.SOLV>
0

>  <SCORE.SYSTEM.norm>
0

>  <SCORE.heavy>
23

>  <SCORE.norm>
-1.63972

>  <RMSD>
20.985

$$$$

 OpenBabel11021811403D
libRbt.so/2013.1/901 2013/11/27
 23 25  0  0  0  0  0  0  0  0999 V2000
  -12.7208   23.0143    0.7578 S   0  0  0  0  0  0  0  0  0  0  0  0
  -14.8749   23.2143    2.8045 N   0  0  0  0  0  0  0  0  0  0  0  0
  -15.8983   25.2266    1.9574 C   0  0  0  0  0  0  0  0  0  0  0  0
  -15.9206   26.2478    0.9984 C   0  0  0  0  0  0  0  0  0  0  0  0
  -14.9762   26.2703   -0.0234 C   0  0  0  0  0  0  0  0  0  0  0  0
  -14.0036   25.2787   -0.0909 C   0  0  0  0  0  0  0  0  0  0  0  0
  -13.9703   24.2603    0.8583 C   0  0  0  0  0  0  0  0  0  0  0  0
  -14.9176   24.2270    1.8886 C   0  0  0  0  0  0  0  0  0  0  0  0
  -12.5118   23.0045    2.5102 C   0  0  0  0  0  0  0  0  0  0  0  0
  -11.2327   22.8917    3.0629 C   0  0  0  0  0  0  0  0  0  0  0  0
  -11.0719   22.8793    4.4513 C   0  0  0  0  0  0  0  0  0  0  0  0
  -12.1923   22.9756    5.2831 C   0  0  0  0  0  0  0  0  0  0  0  0
  -13.4662   23.0872    4.7249 C   0  0  0  0  0  0  0  0  0  0  0  0
  -13.6295   23.1043    3.3465 C   0  0  0  0  0  0  0  0  0  0  0  0
  -16.0611   22.9182    3.6456 C   0  0  0  0  0  0  0  0  0  0  0  0
  -17.4653   23.0266    2.9627 C   0  0  0  0  0  0  0  0  0  0  0  0
  -18.5397   23.7378    3.8545 C   0  0  0  0  0  0  0  0  0  0  0  0
  -19.9148   23.8650    3.3078 N   0  3  0  0  0  0  0  0  0  0  0  0
  -19.9586   24.8074    2.1599 C   0  0  0  0  0  0  0  0  0  0  0  0
  -20.8802   24.2631    4.3901 C   0  0  0  0  0  0  0  0  0  0  0  0
  -16.9611   27.3291    1.0668 C   0  0  0  0  0  0  0  0  0  0  0  0
  -16.9660   28.4947    0.1077 C   0  0  0  0  0  0  0  0  0  0  0  0
  -17.8665   27.2383    1.8805 O   0  0  0  0  0  0  0  0  0  0  0  0
  1  7  1  0  0  0  0
  1  9  1  0  0  0  0
  2  8  1  0  0  0  0
  2 14  1  0  0  0  0
  2 15  1  0  0  0  0
  3  4  2  0  0  0  0
  3  8  1  0  0  0  0
  4  5  1  0  0  0  0
  4 21  1  0  0  0  0
  5  6  2  0  0  0  0
  6  7  1  0  0  0  0
  7  8  2  0  0  0  0
  9 10  2  0  0  0  0
  9 14  1  0  0  0  0
 10 11  1  0  0  0  0
 11 12  2  0  0  0  0
 12 13  1  0  0  0  0
 13 14  2  0  0  0  0
 15 16  1  0  0  0  0
 16 17  1  0  0  0  0
 17 18  1  0  0  0  0
 18 19  1  0  0  0  0
 18 20  1  0  0  0  0
 21 22  1  0  0  0  0
 21 23  2  0  0  0  0
M  CHG  1  18   1
M  END
>  <CHROM.1>
38.59333783,175.97211522,-137.14521100,-178.72306609,51.42137347,-15.46848787
24.35269150,2.35178474,-0.26847139,0.21137693,-0.81253997

>  <Name>


>  <RI>
0

>  <Rbt.Current_Directory>
/home/itssahil/PROJECTS/Mol_Feturizer/New_Systems/rnas/1lvj

>  <Rbt.Executable>
rbdock ($Id: //depot/dev/client3/rdock/2013.1/src/exe/rbdock.cxx#4 $)

>  <Rbt.Library>
libRbt.so (2013.1, Build901 2013/11/27)

>  <Rbt.Parameter_File>
/export/apps/rDock/src/rDock_2013.1_src/data/scripts/dock_solv.prm

>  <Rbt.Receptor>
prm/blind_docking_60.prm

>  <SCORE>
-28.7318

>  <SCORE.INTER>
-26.1176

>  <SCORE.INTER.CONST>
1

>  <SCORE.INTER.POLAR>
-0.460995

>  <SCORE.INTER.ROT>
5

>  <SCORE.INTER.SOLV>
17.1978

>  <SCORE.INTER.VDW>
-28.541

>  <SCORE.INTER.norm>
-1.13555

>  <SCORE.INTRA>
-2.61422

>  <SCORE.INTRA.DIHEDRAL>
-2.84349

>  <SCORE.INTRA.DIHEDRAL.0>
8.06479

>  <SCORE.INTRA.POLAR>
0

>  <SCORE.INTRA.POLAR.0>
0

>  <SCORE.INTRA.REPUL>
0

>  <SCORE.INTRA.REPUL.0>
0

>  <SCORE.INTRA.SOLV>
0.708464

>  <SCORE.INTRA.SOLV.lig_0>
-29.8054

>  <SCORE.INTRA.VDW>
-1.5467

>  <SCORE.INTRA.VDW.0>
2.61447

>  <SCORE.INTRA.norm>
-0.113662

>  <SCORE.RESTR>
0

>  <SCORE.RESTR.CAVITY>
0

>  <SCORE.RESTR.norm>
0

>  <SCORE.SYSTEM>
0

>  <SCORE.SYSTEM.CONST>
0

>  <SCORE.SYSTEM.DIHEDRAL>
0

>  <SCORE.SYSTEM.SOLV>
0

>  <SCORE.SYSTEM.norm>
0

>  <SCORE.heavy>
23

>  <SCORE.norm>
-1.24921

>  <RMSD>
20.987

$$$$

 OpenBabel11021811403D
libRbt.so/2013.1/901 2013/11/27
 23 25  0  0  0  0  0  0  0  0999 V2000
  -13.0642   22.9377    3.9580 S   0  0  0  0  0  0  0  0  0  0  0  0
  -13.8340   24.2492    1.3974 N   0  0  0  0  0  0  0  0  0  0  0  0
  -16.2216   24.0638    1.6792 C   0  0  0  0  0  0  0  0  0  0  0  0
  -17.3076   23.6497    2.4617 C   0  0  0  0  0  0  0  0  0  0  0  0
  -17.0913   23.0313    3.6894 C   0  0  0  0  0  0  0  0  0  0  0  0
  -15.7930   22.8190    4.1399 C   0  0  0  0  0  0  0  0  0  0  0  0
  -14.7060   23.2242    3.3695 C   0  0  0  0  0  0  0  0  0  0  0  0
  -14.9128   23.8497    2.1342 C   0  0  0  0  0  0  0  0  0  0  0  0
  -12.5016   22.5037    2.3424 C   0  0  0  0  0  0  0  0  0  0  0  0
  -11.6002   21.4486    2.1741 C   0  0  0  0  0  0  0  0  0  0  0  0
  -11.1532   21.1113    0.8933 C   0  0  0  0  0  0  0  0  0  0  0  0
  -11.6065   21.8337   -0.2152 C   0  0  0  0  0  0  0  0  0  0  0  0
  -12.5056   22.8862   -0.0400 C   0  0  0  0  0  0  0  0  0  0  0  0
  -12.9552   23.2213    1.2298 C   0  0  0  0  0  0  0  0  0  0  0  0
  -14.0001   25.2463    0.3110 C   0  0  0  0  0  0  0  0  0  0  0  0
  -14.6632   26.6122    0.6911 C   0  0  0  0  0  0  0  0  0  0  0  0
  -16.1919   26.6792    0.3535 C   0  0  0  0  0  0  0  0  0  0  0  0
  -16.9710   27.8161    0.9069 N   0  3  0  0  0  0  0  0  0  0  0  0
  -17.8750   27.3748    2.0003 C   0  0  0  0  0  0  0  0  0  0  0  0
  -17.7251   28.5229   -0.1857 C   0  0  0  0  0  0  0  0  0  0  0  0
  -18.7141   23.8658    1.9807 C   0  0  0  0  0  0  0  0  0  0  0  0
  -19.8896   23.8752    2.9278 C   0  0  0  0  0  0  0  0  0  0  0  0
  -18.9138   24.1006    0.7996 O   0  0  0  0  0  0  0  0  0  0  0  0
  1  7  1  0  0  0  0
  1  9  1  0  0  0  0
  2  8  1  0  0  0  0
  2 14  1  0  0  0  0
  2 15  1  0  0  0  0
  3  4  2  0  0  0  0
  3  8  1  0  0  0  0
  4  5  1  0  0  0  0
  4 21  1  0  0  0  0
  5  6  2  0  0  0  0
  6  7  1  0  0  0  0
  7  8  2  0  0  0  0
  9 10  2  0  0  0  0
  9 14  1  0  0  0  0
 10 11  1  0  0  0  0
 11 12  2  0  0  0  0
 12 13  1  0  0  0  0
 13 14  2  0  0  0  0
 15 16  1  0  0  0  0
 16 17  1  0  0  0  0
 17 18  1  0  0  0  0
 18 19  1  0  0  0  0
 18 20  1  0  0  0  0
 21 22  1  0  0  0  0
 21 23  2  0  0  0  0
M  CHG  1  18   1
M  END
>  <CHROM.1>
55.13684631,-159.25264825,-98.03106222,168.40342514,12.14058161,-15.19696617
24.16079490,1.79051907,0.50869462,-0.32913319,2.49520081

>  <Name>


>  <RI>
0

>  <Rbt.Current_Directory>
/home/itssahil/PROJECTS/Mol_Feturizer/New_Systems/rnas/1lvj

>  <Rbt.Executable>
rbdock ($Id: //depot/dev/client3/rdock/2013.1/src/exe/rbdock.cxx#4 $)

>  <Rbt.Library>
libRbt.so (2013.1, Build901 2013/11/27)

>  <Rbt.Parameter_File>
/export/apps/rDock/src/rDock_2013.1_src/data/scripts/dock_solv.prm

>  <Rbt.Receptor>
prm/blind_docking_40.prm

>  <SCORE>
-36.6604

>  <SCORE.INTER>
-35.4492

>  <SCORE.INTER.CONST>
1

>  <SCORE.INTER.POLAR>
-1.5

>  <SCORE.INTER.ROT>
5

>  <SCORE.INTER.SOLV>
16.3212

>  <SCORE.INTER.VDW>
-31.0065

>  <SCORE.INTER.norm>
-1.54127

>  <SCORE.INTRA>
-1.90375

>  <SCORE.INTRA.DIHEDRAL>
1.29144

>  <SCORE.INTRA.DIHEDRAL.0>
8.06479

>  <SCORE.INTRA.POLAR>
0

>  <SCORE.INTRA.POLAR.0>
0

>  <SCORE.INTRA.REPUL>
0

>  <SCORE.INTRA.REPUL.0>
0

>  <SCORE.INTRA.SOLV>
1.16536

>  <SCORE.INTRA.SOLV.lig_0>
-29.8054

>  <SCORE.INTRA.VDW>
-3.13215

>  <SCORE.INTRA.VDW.0>
2.61447

>  <SCORE.INTRA.norm>
-0.0827717

>  <SCORE.RESTR>
0.692465

>  <SCORE.RESTR.CAVITY>
0.692465

>  <SCORE.RESTR.norm>
0.0301072

>  <SCORE.SYSTEM>
0

>  <SCORE.SYSTEM.CONST>
0

>  <SCORE.SYSTEM.DIHEDRAL>
0

>  <SCORE.SYSTEM.SOLV>
0

>  <SCORE.SYSTEM.norm>
0

>  <SCORE.heavy>
23

>  <SCORE.norm>
-1.59393

>  <RMSD>
20.994

$$$$

 OpenBabel11021811403D
libRbt.so/2013.1/901 2013/11/27
 23 25  0  0  0  0  0  0  0  0999 V2000
  -13.0479   22.5484    1.0175 S   0  0  0  0  0  0  0  0  0  0  0  0
  -15.5710   23.1584    2.4772 N   0  0  0  0  0  0  0  0  0  0  0  0
  -15.9338   25.3476    1.5337 C   0  0  0  0  0  0  0  0  0  0  0  0
  -15.5122   26.3636    0.6660 C   0  0  0  0  0  0  0  0  0  0  0  0
  -14.3529   26.2056   -0.0873 C   0  0  0  0  0  0  0  0  0  0  0  0
  -13.6070   25.0373    0.0244 C   0  0  0  0  0  0  0  0  0  0  0  0
  -14.0151   24.0219    0.8855 C   0  0  0  0  0  0  0  0  0  0  0  0
  -15.1814   24.1698    1.6457 C   0  0  0  0  0  0  0  0  0  0  0  0
  -13.2983   22.4745    2.7630 C   0  0  0  0  0  0  0  0  0  0  0  0
  -12.2493   22.0962    3.6061 C   0  0  0  0  0  0  0  0  0  0  0  0
  -12.4532   22.0340    4.9876 C   0  0  0  0  0  0  0  0  0  0  0  0
  -13.7077   22.3466    5.5212 C   0  0  0  0  0  0  0  0  0  0  0  0
  -14.7506   22.7227    4.6739 C   0  0  0  0  0  0  0  0  0  0  0  0
  -14.5507   22.7899    3.3020 C   0  0  0  0  0  0  0  0  0  0  0  0
  -16.9665   23.1002    2.9787 C   0  0  0  0  0  0  0  0  0  0  0  0
  -18.1111   23.1620    1.9129 C   0  0  0  0  0  0  0  0  0  0  0  0
  -18.8378   24.5490    1.8572 C   0  0  0  0  0  0  0  0  0  0  0  0
  -19.6909   24.9274    3.0127 N   0  3  0  0  0  0  0  0  0  0  0  0
  -20.9657   25.5473    2.5676 C   0  0  0  0  0  0  0  0  0  0  0  0
  -18.9372   25.8241    3.9561 C   0  0  0  0  0  0  0  0  0  0  0  0
  -16.3052   27.6336    0.5441 C   0  0  0  0  0  0  0  0  0  0  0  0
  -17.6937   27.7667    1.1211 C   0  0  0  0  0  0  0  0  0  0  0  0
  -15.7956   28.6096    0.0170 O   0  0  0  0  0  0  0  0  0  0  0  0
  1  7  1  0  0  0  0
  1  9  1  0  0  0  0
  2  8  1  0  0  0  0
  2 14  1  0  0  0  0
  2 15  1  0  0  0  0
  3  4  2  0  0  0  0
  3  8  1  0  0  0  0
  4  5  1  0  0  0  0
  4 21  1  0  0  0  0
  5  6  2  0  0  0  0
  6  7  1  0  0  0  0
  7  8  2  0  0  0  0
  9 10  2  0  0  0  0
  9 14  1  0  0  0  0
 10 11  1  0  0  0  0
 11 12  2  0  0  0  0
 12 13  1  0  0  0  0
 13 14  2  0  0  0  0
 15 16  1  0  0  0  0
 16 17  1  0  0  0  0
 17 18  1  0  0  0  0
 18 19  1  0  0  0  0
 18 20  1  0  0  0  0
 21 22  1  0  0  0  0
 21 23  2  0  0  0  0
M  CHG  1  18   1
M  END
>  <CHROM.1>
52.85418917,-12.05321895,-104.74461799,-69.49139902,-17.56341428,-15.69057504
24.40271180,2.15144099,-0.59167203,0.29765166,-0.74242220

>  <Name>


>  <RI>
0

>  <Rbt.Current_Directory>
/home/itssahil/PROJECTS/Mol_Feturizer/New_Systems/rnas/1lvj

>  <Rbt.Executable>
rbdock ($Id: //depot/dev/client3/rdock/2013.1/src/exe/rbdock.cxx#4 $)

>  <Rbt.Library>
libRbt.so (2013.1, Build901 2013/11/27)

>  <Rbt.Parameter_File>
/export/apps/rDock/src/rDock_2013.1_src/data/scripts/dock_solv.prm

>  <Rbt.Receptor>
prm/blind_docking_60.prm

>  <SCORE>
-28.7899

>  <SCORE.INTER>
-27.1466

>  <SCORE.INTER.CONST>
1

>  <SCORE.INTER.POLAR>
0

>  <SCORE.INTER.ROT>
5

>  <SCORE.INTER.SOLV>
12.3957

>  <SCORE.INTER.VDW>
-29.1629

>  <SCORE.INTER.norm>
-1.18029

>  <SCORE.INTRA>
-1.7087

>  <SCORE.INTRA.DIHEDRAL>
0.669441

>  <SCORE.INTRA.DIHEDRAL.0>
8.06479

>  <SCORE.INTRA.POLAR>
0

>  <SCORE.INTRA.POLAR.0>
0

>  <SCORE.INTRA.REPUL>
0

>  <SCORE.INTRA.REPUL.0>
0

>  <SCORE.INTRA.SOLV>
1.92548

>  <SCORE.INTRA.SOLV.lig_0>
-29.8054

>  <SCORE.INTRA.VDW>
-3.00616

>  <SCORE.INTRA.VDW.0>
2.61447

>  <SCORE.INTRA.norm>
-0.0742915

>  <SCORE.RESTR>
0.065333

>  <SCORE.RESTR.CAVITY>
0.065333

>  <SCORE.RESTR.norm>
0.00284056

>  <SCORE.SYSTEM>
0

>  <SCORE.SYSTEM.CONST>
0

>  <SCORE.SYSTEM.DIHEDRAL>
0

>  <SCORE.SYSTEM.SOLV>
0

>  <SCORE.SYSTEM.norm>
0

>  <SCORE.heavy>
23

>  <SCORE.norm>
-1.25174

>  <RMSD>
20.997

$$$$

 OpenBabel11021811403D
libRbt.so/2013.1/901 2013/11/27
 23 25  0  0  0  0  0  0  0  0999 V2000
  -12.5995   23.1735    3.9021 S   0  0  0  0  0  0  0  0  0  0  0  0
  -13.6405   24.2463    1.3263 N   0  0  0  0  0  0  0  0  0  0  0  0
  -15.9795   23.8714    1.7764 C   0  0  0  0  0  0  0  0  0  0  0  0
  -16.9734   23.4148    2.6521 C   0  0  0  0  0  0  0  0  0  0  0  0
  -16.6272   22.8974    3.8966 C   0  0  0  0  0  0  0  0  0  0  0  0
  -15.2898   22.8287    4.2715 C   0  0  0  0  0  0  0  0  0  0  0  0
  -14.2934   23.2772    3.4083 C   0  0  0  0  0  0  0  0  0  0  0  0
  -14.6314   23.8020    2.1551 C   0  0  0  0  0  0  0  0  0  0  0  0
  -12.0991   22.6880    2.2807 C   0  0  0  0  0  0  0  0  0  0  0  0
  -11.1171   21.7071    2.1146 C   0  0  0  0  0  0  0  0  0  0  0  0
  -10.7201   21.3290    0.8288 C   0  0  0  0  0  0  0  0  0  0  0  0
  -11.3041   21.9366   -0.2874 C   0  0  0  0  0  0  0  0  0  0  0  0
  -12.2833   22.9156   -0.1144 C   0  0  0  0  0  0  0  0  0  0  0  0
  -12.6833   23.2906    1.1608 C   0  0  0  0  0  0  0  0  0  0  0  0
  -13.9628   25.1536    0.1971 C   0  0  0  0  0  0  0  0  0  0  0  0
  -14.6666   26.5070    0.5475 C   0  0  0  0  0  0  0  0  0  0  0  0
  -16.2236   26.4635    0.3761 C   0  0  0  0  0  0  0  0  0  0  0  0
  -17.0080   27.6068    0.9084 N   0  3  0  0  0  0  0  0  0  0  0  0
  -17.8582   27.1959    2.0555 C   0  0  0  0  0  0  0  0  0  0  0  0
  -17.8206   28.2458   -0.1840 C   0  0  0  0  0  0  0  0  0  0  0  0
  -18.4205   23.4759    2.2539 C   0  0  0  0  0  0  0  0  0  0  0  0
  -19.5323   23.4313    3.2740 C   0  0  0  0  0  0  0  0  0  0  0  0
  -18.7123   23.6261    1.0781 O   0  0  0  0  0  0  0  0  0  0  0  0
  1  7  1  0  0  0  0
  1  9  1  0  0  0  0
  2  8  1  0  0  0  0
  2 14  1  0  0  0  0
  2 15  1  0  0  0  0
  3  4  2  0  0  0  0
  3  8  1  0  0  0  0
  4  5  1  0  0  0  0
  4 21  1  0  0  0  0
  5  6  2  0  0  0  0
  6  7  1  0  0  0  0
  7  8  2  0  0  0  0
  9 10  2  0  0  0  0
  9 14  1  0  0  0  0
 10 11  1  0  0  0  0
 11 12  2  0  0  0  0
 12 13  1  0  0  0  0
 13 14  2  0  0  0  0
 15 16  1  0  0  0  0
 16 17  1  0  0  0  0
 17 18  1  0  0  0  0
 18 19  1  0  0  0  0
 18 20  1  0  0  0  0
 21 22  1  0  0  0  0
 21 23  2  0  0  0  0
M  CHG  1  18   1
M  END
>  <CHROM.1>
57.78288176,-159.78207940,-97.06827225,169.36419047,6.98220669,-14.94358316
24.09021901,1.82492784,0.41373282,-0.32130960,2.43636570

>  <Name>


>  <RI>
0

>  <Rbt.Current_Directory>
/home/itssahil/PROJECTS/Mol_Feturizer/New_Systems/rnas/1lvj

>  <Rbt.Executable>
rbdock ($Id: //depot/dev/client3/rdock/2013.1/src/exe/rbdock.cxx#4 $)

>  <Rbt.Library>
libRbt.so (2013.1, Build901 2013/11/27)

>  <Rbt.Parameter_File>
/export/apps/rDock/src/rDock_2013.1_src/data/scripts/dock_solv.prm

>  <Rbt.Receptor>
prm/blind_docking_80.prm

>  <SCORE>
-38.2381

>  <SCORE.INTER>
-36.6232

>  <SCORE.INTER.CONST>
1

>  <SCORE.INTER.POLAR>
-1.5

>  <SCORE.INTER.ROT>
5

>  <SCORE.INTER.SOLV>
15.6891

>  <SCORE.INTER.VDW>
-31.5785

>  <SCORE.INTER.norm>
-1.59231

>  <SCORE.INTRA>
-2.00655

>  <SCORE.INTRA.DIHEDRAL>
1.26432

>  <SCORE.INTRA.DIHEDRAL.0>
8.06479

>  <SCORE.INTRA.POLAR>
0

>  <SCORE.INTRA.POLAR.0>
0

>  <SCORE.INTRA.REPUL>
0

>  <SCORE.INTRA.REPUL.0>
0

>  <SCORE.INTRA.SOLV>
1.1237

>  <SCORE.INTRA.SOLV.lig_0>
-29.8054

>  <SCORE.INTRA.VDW>
-3.20056

>  <SCORE.INTRA.VDW.0>
2.61447

>  <SCORE.INTRA.norm>
-0.0872414

>  <SCORE.RESTR>
0.391673

>  <SCORE.RESTR.CAVITY>
0.391673

>  <SCORE.RESTR.norm>
0.0170293

>  <SCORE.SYSTEM>
0

>  <SCORE.SYSTEM.CONST>
0

>  <SCORE.SYSTEM.DIHEDRAL>
0

>  <SCORE.SYSTEM.SOLV>
0

>  <SCORE.SYSTEM.norm>
0

>  <SCORE.heavy>
23

>  <SCORE.norm>
-1.66252

>  <RMSD>
20.997

$$$$

 OpenBabel11021811403D
libRbt.so/2013.1/901 2013/11/27
 23 25  0  0  0  0  0  0  0  0999 V2000
  -12.5871   23.1783    3.8918 S   0  0  0  0  0  0  0  0  0  0  0  0
  -13.6370   24.2417    1.3157 N   0  0  0  0  0  0  0  0  0  0  0  0
  -15.9741   23.8641    1.7733 C   0  0  0  0  0  0  0  0  0  0  0  0
  -16.9649   23.4085    2.6530 C   0  0  0  0  0  0  0  0  0  0  0  0
  -16.6144   22.8953    3.8982 C   0  0  0  0  0  0  0  0  0  0  0  0
  -15.2759   22.8300    4.2696 C   0  0  0  0  0  0  0  0  0  0  0  0
  -14.2826   23.2776    3.4023 C   0  0  0  0  0  0  0  0  0  0  0  0
  -14.6249   23.7982    2.1485 C   0  0  0  0  0  0  0  0  0  0  0  0
  -12.0904   22.6888    2.2705 C   0  0  0  0  0  0  0  0  0  0  0  0
  -11.1071   21.7091    2.1045 C   0  0  0  0  0  0  0  0  0  0  0  0
  -10.7130   21.3280    0.8188 C   0  0  0  0  0  0  0  0  0  0  0  0
  -11.3011   21.9314   -0.2976 C   0  0  0  0  0  0  0  0  0  0  0  0
  -12.2815   22.9091   -0.1248 C   0  0  0  0  0  0  0  0  0  0  0  0
  -12.6786   23.2872    1.1504 C   0  0  0  0  0  0  0  0  0  0  0  0
  -13.9640   25.1451    0.1848 C   0  0  0  0  0  0  0  0  0  0  0  0
  -14.6565   26.5046    0.5344 C   0  0  0  0  0  0  0  0  0  0  0  0
  -16.2166   26.4647    0.3940 C   0  0  0  0  0  0  0  0  0  0  0  0
  -16.9854   27.6247    0.9127 N   0  3  0  0  0  0  0  0  0  0  0  0
  -17.8356   27.2404    2.0690 C   0  0  0  0  0  0  0  0  0  0  0  0
  -17.7951   28.2571   -0.1857 C   0  0  0  0  0  0  0  0  0  0  0  0
  -18.4132   23.4659    2.2586 C   0  0  0  0  0  0  0  0  0  0  0  0
  -19.5220   23.4236    3.2820 C   0  0  0  0  0  0  0  0  0  0  0  0
  -18.7085   23.6111    1.0831 O   0  0  0  0  0  0  0  0  0  0  0  0
  1  7  1  0  0  0  0
  1  9  1  0  0  0  0
  2  8  1  0  0  0  0
  2 14  1  0  0  0  0
  2 15  1  0  0  0  0
  3  4  2  0  0  0  0
  3  8  1  0  0  0  0
  4  5  1  0  0  0  0
  4 21  1  0  0  0  0
  5  6  2  0  0  0  0
  6  7  1  0  0  0  0
  7  8  2  0  0  0  0
  9 10  2  0  0  0  0
  9 14  1  0  0  0  0
 10 11  1  0  0  0  0
 11 12  2  0  0  0  0
 12 13  1  0  0  0  0
 13 14  2  0  0  0  0
 15 16  1  0  0  0  0
 16 17  1  0  0  0  0
 17 18  1  0  0  0  0
 18 19  1  0  0  0  0
 18 20  1  0  0  0  0
 21 22  1  0  0  0  0
 21 23  2  0  0  0  0
M  CHG  1  18   1
M  END
>  <CHROM.1>
58.36796107,-159.72632764,-96.36680546,170.17746151,5.86465817,-14.93375645
24.09081393,1.82168979,0.41500339,-0.32264693,2.44134549

>  <Name>


>  <RI>
0

>  <Rbt.Current_Directory>
/home/itssahil/PROJECTS/Mol_Feturizer/New_Systems/rnas/1lvj

>  <Rbt.Executable>
rbdock ($Id: //depot/dev/client3/rdock/2013.1/src/exe/rbdock.cxx#4 $)

>  <Rbt.Library>
libRbt.so (2013.1, Build901 2013/11/27)

>  <Rbt.Parameter_File>
/export/apps/rDock/src/rDock_2013.1_src/data/scripts/dock_solv.prm

>  <Rbt.Receptor>
prm/blind_docking_80.prm

>  <SCORE>
-38.2653

>  <SCORE.INTER>
-36.6226

>  <SCORE.INTER.CONST>
1

>  <SCORE.INTER.POLAR>
-1.5

>  <SCORE.INTER.ROT>
5

>  <SCORE.INTER.SOLV>
15.8292

>  <SCORE.INTER.VDW>
-31.6248

>  <SCORE.INTER.norm>
-1.59229

>  <SCORE.INTRA>
-2.04512

>  <SCORE.INTRA.DIHEDRAL>
1.15735

>  <SCORE.INTRA.DIHEDRAL.0>
8.06479

>  <SCORE.INTRA.POLAR>
0

>  <SCORE.INTRA.POLAR.0>
0

>  <SCORE.INTRA.REPUL>
0

>  <SCORE.INTRA.REPUL.0>
0

>  <SCORE.INTRA.SOLV>
1.11434

>  <SCORE.INTRA.SOLV.lig_0>
-29.8054

>  <SCORE.INTRA.VDW>
-3.18097

>  <SCORE.INTRA.VDW.0>
2.61447

>  <SCORE.INTRA.norm>
-0.0889184

>  <SCORE.RESTR>
0.402496

>  <SCORE.RESTR.CAVITY>
0.402496

>  <SCORE.RESTR.norm>
0.0174998

>  <SCORE.SYSTEM>
0

>  <SCORE.SYSTEM.CONST>
0

>  <SCORE.SYSTEM.DIHEDRAL>
0

>  <SCORE.SYSTEM.SOLV>
0

>  <SCORE.SYSTEM.norm>
0

>  <SCORE.heavy>
23

>  <SCORE.norm>
-1.66371

>  <RMSD>
21.002

$$$$

 OpenBabel11021811403D
libRbt.so/2013.1/901 2013/11/27
 23 25  0  0  0  0  0  0  0  0999 V2000
  -12.4211   22.3505    1.0051 S   0  0  0  0  0  0  0  0  0  0  0  0
  -14.5497   23.0298    2.9741 N   0  0  0  0  0  0  0  0  0  0  0  0
  -15.4028   24.9708    1.8257 C   0  0  0  0  0  0  0  0  0  0  0  0
  -15.3408   25.8360    0.7254 C   0  0  0  0  0  0  0  0  0  0  0  0
  -14.3985   25.6283   -0.2773 C   0  0  0  0  0  0  0  0  0  0  0  0
  -13.5118   24.5610   -0.1854 C   0  0  0  0  0  0  0  0  0  0  0  0
  -13.5626   23.6962    0.9049 C   0  0  0  0  0  0  0  0  0  0  0  0
  -14.5087   23.8948    1.9176 C   0  0  0  0  0  0  0  0  0  0  0  0
  -12.2124   22.5847    2.7419 C   0  0  0  0  0  0  0  0  0  0  0  0
  -10.9467   22.4507    3.3202 C   0  0  0  0  0  0  0  0  0  0  0  0
  -10.7866   22.6320    4.6969 C   0  0  0  0  0  0  0  0  0  0  0  0
  -11.8945   22.9431    5.4919 C   0  0  0  0  0  0  0  0  0  0  0  0
  -13.1551   23.0747    4.9084 C   0  0  0  0  0  0  0  0  0  0  0  0
  -13.3173   22.8997    3.5410 C   0  0  0  0  0  0  0  0  0  0  0  0
  -15.7557   22.9609    3.8359 C   0  0  0  0  0  0  0  0  0  0  0  0
  -17.1461   23.0972    3.1301 C   0  0  0  0  0  0  0  0  0  0  0  0
  -17.8731   24.4504    3.4392 C   0  0  0  0  0  0  0  0  0  0  0  0
  -19.3060   24.5643    3.0655 N   0  3  0  0  0  0  0  0  0  0  0  0
  -20.1765   23.8271    4.0175 C   0  0  0  0  0  0  0  0  0  0  0  0
  -19.5216   24.1081    1.6487 C   0  0  0  0  0  0  0  0  0  0  0  0
  -16.2877   26.9974    0.6203 C   0  0  0  0  0  0  0  0  0  0  0  0
  -17.6108   27.0175    1.3468 C   0  0  0  0  0  0  0  0  0  0  0  0
  -15.9585   27.9824   -0.0212 O   0  0  0  0  0  0  0  0  0  0  0  0
  1  7  1  0  0  0  0
  1  9  1  0  0  0  0
  2  8  1  0  0  0  0
  2 14  1  0  0  0  0
  2 15  1  0  0  0  0
  3  4  2  0  0  0  0
  3  8  1  0  0  0  0
  4  5  1  0  0  0  0
  4 21  1  0  0  0  0
  5  6  2  0  0  0  0
  6  7  1  0  0  0  0
  7  8  2  0  0  0  0
  9 10  2  0  0  0  0
  9 14  1  0  0  0  0
 10 11  1  0  0  0  0
 11 12  2  0  0  0  0
 12 13  1  0  0  0  0
 13 14  2  0  0  0  0
 15 16  1  0  0  0  0
 16 17  1  0  0  0  0
 17 18  1  0  0  0  0
 18 19  1  0  0  0  0
 18 20  1  0  0  0  0
 21 22  1  0  0  0  0
 21 23  2  0  0  0  0
M  CHG  1  18   1
M  END
>  <CHROM.1>
37.94903823,-22.79409087,-109.31049184,-167.20195301,-164.08146383,-15.01836181
24.09300621,2.30258203,-0.36659950,0.22290843,-0.91256515

>  <Name>


>  <RI>
0

>  <Rbt.Current_Directory>
/home/itssahil/PROJECTS/Mol_Feturizer/New_Systems/rnas/1lvj

>  <Rbt.Executable>
rbdock ($Id: //depot/dev/client3/rdock/2013.1/src/exe/rbdock.cxx#4 $)

>  <Rbt.Library>
libRbt.so (2013.1, Build901 2013/11/27)

>  <Rbt.Parameter_File>
/export/apps/rDock/src/rDock_2013.1_src/data/scripts/dock_solv.prm

>  <Rbt.Receptor>
prm/blind_docking_100.prm

>  <SCORE>
-25.0549

>  <SCORE.INTER>
-28.0083

>  <SCORE.INTER.CONST>
1

>  <SCORE.INTER.POLAR>
0

>  <SCORE.INTER.ROT>
5

>  <SCORE.INTER.SOLV>
9.87351

>  <SCORE.INTER.VDW>
-28.8967

>  <SCORE.INTER.norm>
-1.21775

>  <SCORE.INTRA>
1.22444

>  <SCORE.INTRA.DIHEDRAL>
0.668731

>  <SCORE.INTRA.DIHEDRAL.0>
8.06479

>  <SCORE.INTRA.POLAR>
0

>  <SCORE.INTRA.POLAR.0>
0

>  <SCORE.INTRA.REPUL>
0

>  <SCORE.INTRA.REPUL.0>
0

>  <SCORE.INTRA.SOLV>
1.21142

>  <SCORE.INTRA.SOLV.lig_0>
-29.8054

>  <SCORE.INTRA.VDW>
0.284363

>  <SCORE.INTRA.VDW.0>
2.61447

>  <SCORE.INTRA.norm>
0.0532365

>  <SCORE.RESTR>
1.72896

>  <SCORE.RESTR.CAVITY>
1.72896

>  <SCORE.RESTR.norm>
0.0751722

>  <SCORE.SYSTEM>
0

>  <SCORE.SYSTEM.CONST>
0

>  <SCORE.SYSTEM.DIHEDRAL>
0

>  <SCORE.SYSTEM.SOLV>
0

>  <SCORE.SYSTEM.norm>
0

>  <SCORE.heavy>
23

>  <SCORE.norm>
-1.08935

>  <RMSD>
21.004

$$$$

 OpenBabel11021811403D
libRbt.so/2013.1/901 2013/11/27
 23 25  0  0  0  0  0  0  0  0999 V2000
  -12.6161   23.0795    3.9219 S   0  0  0  0  0  0  0  0  0  0  0  0
  -13.5948   24.2387    1.3591 N   0  0  0  0  0  0  0  0  0  0  0  0
  -15.9486   23.9169    1.7716 C   0  0  0  0  0  0  0  0  0  0  0  0
  -16.9656   23.4674    2.6241 C   0  0  0  0  0  0  0  0  0  0  0  0
  -16.6494   22.9124    3.8605 C   0  0  0  0  0  0  0  0  0  0  0  0
  -15.3193   22.7991    4.2501 C   0  0  0  0  0  0  0  0  0  0  0  0
  -14.3002   23.2401    3.4098 C   0  0  0  0  0  0  0  0  0  0  0  0
  -14.6078   23.8024    2.1651 C   0  0  0  0  0  0  0  0  0  0  0  0
  -12.1081   22.6179    2.2959 C   0  0  0  0  0  0  0  0  0  0  0  0
  -11.1505   21.6149    2.1191 C   0  0  0  0  0  0  0  0  0  0  0  0
  -10.7471   21.2557    0.8299 C   0  0  0  0  0  0  0  0  0  0  0  0
  -11.3003   21.9044   -0.2790 C   0  0  0  0  0  0  0  0  0  0  0  0
  -12.2551   22.9052   -0.0954 C   0  0  0  0  0  0  0  0  0  0  0  0
  -12.6614   23.2615    1.1832 C   0  0  0  0  0  0  0  0  0  0  0  0
  -13.8781   25.1800    0.2475 C   0  0  0  0  0  0  0  0  0  0  0  0
  -14.6100   26.5148    0.6115 C   0  0  0  0  0  0  0  0  0  0  0  0
  -16.1330   26.5121    0.2429 C   0  0  0  0  0  0  0  0  0  0  0  0
  -16.9833   27.5858    0.8174 N   0  3  0  0  0  0  0  0  0  0  0  0
  -17.8101   27.0805    1.9438 C   0  0  0  0  0  0  0  0  0  0  0  0
  -17.8298   28.2200   -0.2517 C   0  0  0  0  0  0  0  0  0  0  0  0
  -18.4053   23.5766    2.2097 C   0  0  0  0  0  0  0  0  0  0  0  0
  -19.5325   23.5029    3.2110 C   0  0  0  0  0  0  0  0  0  0  0  0
  -18.6769   23.7910    1.0390 O   0  0  0  0  0  0  0  0  0  0  0  0
  1  7  1  0  0  0  0
  1  9  1  0  0  0  0
  2  8  1  0  0  0  0
  2 14  1  0  0  0  0
  2 15  1  0  0  0  0
  3  4  2  0  0  0  0
  3  8  1  0  0  0  0
  4  5  1  0  0  0  0
  4 21  1  0  0  0  0
  5  6  2  0  0  0  0
  6  7  1  0  0  0  0
  7  8  2  0  0  0  0
  9 10  2  0  0  0  0
  9 14  1  0  0  0  0
 10 11  1  0  0  0  0
 11 12  2  0  0  0  0
 12 13  1  0  0  0  0
 13 14  2  0  0  0  0
 15 16  1  0  0  0  0
 16 17  1  0  0  0  0
 17 18  1  0  0  0  0
 18 19  1  0  0  0  0
 18 20  1  0  0  0  0
 21 22  1  0  0  0  0
 21 23  2  0  0  0  0
M  CHG  1  18   1
M  END
>  <CHROM.1>
55.02120785,-161.39136987,-102.67520285,166.28449956,16.41531154,-14.92884207
24.08180717,1.80833873,0.42961322,-0.32549403,2.42155287

>  <Name>


>  <RI>
0

>  <Rbt.Current_Directory>
/home/itssahil/PROJECTS/Mol_Feturizer/New_Systems/rnas/1lvj

>  <Rbt.Executable>
rbdock ($Id: //depot/dev/client3/rdock/2013.1/src/exe/rbdock.cxx#4 $)

>  <Rbt.Library>
libRbt.so (2013.1, Build901 2013/11/27)

>  <Rbt.Parameter_File>
/export/apps/rDock/src/rDock_2013.1_src/data/scripts/dock_solv.prm

>  <Rbt.Receptor>
prm/blind_docking_80.prm

>  <SCORE>
-38.1507

>  <SCORE.INTER>
-36.522

>  <SCORE.INTER.CONST>
1

>  <SCORE.INTER.POLAR>
-1.49894

>  <SCORE.INTER.ROT>
5

>  <SCORE.INTER.SOLV>
15.2741

>  <SCORE.INTER.VDW>
-31.3762

>  <SCORE.INTER.norm>
-1.58791

>  <SCORE.INTRA>
-2.04504

>  <SCORE.INTRA.DIHEDRAL>
1.52371

>  <SCORE.INTRA.DIHEDRAL.0>
8.06479

>  <SCORE.INTRA.POLAR>
0

>  <SCORE.INTRA.POLAR.0>
0

>  <SCORE.INTRA.REPUL>
0

>  <SCORE.INTRA.REPUL.0>
0

>  <SCORE.INTRA.SOLV>
1.14242

>  <SCORE.INTRA.SOLV.lig_0>
-29.8054

>  <SCORE.INTRA.VDW>
-3.3781

>  <SCORE.INTRA.VDW.0>
2.61447

>  <SCORE.INTRA.norm>
-0.0889148

>  <SCORE.RESTR>
0.416375

>  <SCORE.RESTR.CAVITY>
0.416375

>  <SCORE.RESTR.norm>
0.0181032

>  <SCORE.SYSTEM>
0

>  <SCORE.SYSTEM.CONST>
0

>  <SCORE.SYSTEM.DIHEDRAL>
0

>  <SCORE.SYSTEM.SOLV>
0

>  <SCORE.SYSTEM.norm>
0

>  <SCORE.heavy>
23

>  <SCORE.norm>
-1.65872

>  <RMSD>
21.007

$$$$

 OpenBabel11021811403D
libRbt.so/2013.1/901 2013/11/27
 23 25  0  0  0  0  0  0  0  0999 V2000
  -12.6688   23.1983    3.8799 S   0  0  0  0  0  0  0  0  0  0  0  0
  -13.6863   24.2494    1.2859 N   0  0  0  0  0  0  0  0  0  0  0  0
  -16.0291   23.8754    1.7166 C   0  0  0  0  0  0  0  0  0  0  0  0
  -17.0309   23.4247    2.5864 C   0  0  0  0  0  0  0  0  0  0  0  0
  -16.6960   22.9176    3.8383 C   0  0  0  0  0  0  0  0  0  0  0  0
  -15.3622   22.8534    4.2264 C   0  0  0  0  0  0  0  0  0  0  0  0
  -14.3580   23.2961    3.3692 C   0  0  0  0  0  0  0  0  0  0  0  0
  -14.6846   23.8105    2.1087 C   0  0  0  0  0  0  0  0  0  0  0  0
  -12.1525   22.7004    2.2673 C   0  0  0  0  0  0  0  0  0  0  0  0
  -11.1678   21.7194    2.1183 C   0  0  0  0  0  0  0  0  0  0  0  0
  -10.7582   21.3315    0.8394 C   0  0  0  0  0  0  0  0  0  0  0  0
  -11.3322   21.9297   -0.2871 C   0  0  0  0  0  0  0  0  0  0  0  0
  -12.3140   22.9088   -0.1312 C   0  0  0  0  0  0  0  0  0  0  0  0
  -12.7266   23.2935    1.1371 C   0  0  0  0  0  0  0  0  0  0  0  0
  -13.9988   25.1473    0.1465 C   0  0  0  0  0  0  0  0  0  0  0  0
  -14.6792   26.5163    0.4824 C   0  0  0  0  0  0  0  0  0  0  0  0
  -16.2432   26.4739    0.3956 C   0  0  0  0  0  0  0  0  0  0  0  0
  -16.9936   27.6547    0.8941 N   0  3  0  0  0  0  0  0  0  0  0  0
  -17.8748   27.2967    2.0355 C   0  0  0  0  0  0  0  0  0  0  0  0
  -17.7665   28.3009   -0.2225 C   0  0  0  0  0  0  0  0  0  0  0  0
  -18.4742   23.4810    2.1739 C   0  0  0  0  0  0  0  0  0  0  0  0
  -19.5939   23.5023    3.1861 C   0  0  0  0  0  0  0  0  0  0  0  0
  -18.7555   23.5726    0.9896 O   0  0  0  0  0  0  0  0  0  0  0  0
  1  7  1  0  0  0  0
  1  9  1  0  0  0  0
  2  8  1  0  0  0  0
  2 14  1  0  0  0  0
  2 15  1  0  0  0  0
  3  4  2  0  0  0  0
  3  8  1  0  0  0  0
  4  5  1  0  0  0  0
  4 21  1  0  0  0  0
  5  6  2  0  0  0  0
  6  7  1  0  0  0  0
  7  8  2  0  0  0  0
  9 10  2  0  0  0  0
  9 14  1  0  0  0  0
 10 11  1  0  0  0  0
 11 12  2  0  0  0  0
 12 13  1  0  0  0  0
 13 14  2  0  0  0  0
 15 16  1  0  0  0  0
 16 17  1  0  0  0  0
 17 18  1  0  0  0  0
 18 19  1  0  0  0  0
 18 20  1  0  0  0  0
 21 22  1  0  0  0  0
 21 23  2  0  0  0  0
M  CHG  1  18   1
M  END
>  <CHROM.1>
59.07634904,-157.13719489,-93.84288418,170.86080645,2.04346639,-14.98314465
24.10741185,1.78878379,0.42496674,-0.31559205,2.45366843

>  <Name>


>  <RI>
0

>  <Rbt.Current_Directory>
/home/itssahil/PROJECTS/Mol_Feturizer/New_Systems/rnas/1lvj

>  <Rbt.Executable>
rbdock ($Id: //depot/dev/client3/rdock/2013.1/src/exe/rbdock.cxx#4 $)

>  <Rbt.Library>
libRbt.so (2013.1, Build901 2013/11/27)

>  <Rbt.Parameter_File>
/export/apps/rDock/src/rDock_2013.1_src/data/scripts/dock_solv.prm

>  <Rbt.Receptor>
prm/blind_docking_80.prm

>  <SCORE>
-37.9767

>  <SCORE.INTER>
-36.4045

>  <SCORE.INTER.CONST>
1

>  <SCORE.INTER.POLAR>
-1.5

>  <SCORE.INTER.ROT>
5

>  <SCORE.INTER.SOLV>
15.9184

>  <SCORE.INTER.VDW>
-31.5092

>  <SCORE.INTER.norm>
-1.58281

>  <SCORE.INTRA>
-1.93091

>  <SCORE.INTRA.DIHEDRAL>
1.19214

>  <SCORE.INTRA.DIHEDRAL.0>
8.06479

>  <SCORE.INTRA.POLAR>
0

>  <SCORE.INTRA.POLAR.0>
0

>  <SCORE.INTRA.REPUL>
0

>  <SCORE.INTRA.REPUL.0>
0

>  <SCORE.INTRA.SOLV>
1.10815

>  <SCORE.INTRA.SOLV.lig_0>
-29.8054

>  <SCORE.INTRA.VDW>
-3.08106

>  <SCORE.INTRA.VDW.0>
2.61447

>  <SCORE.INTRA.norm>
-0.0839527

>  <SCORE.RESTR>
0.358751

>  <SCORE.RESTR.CAVITY>
0.358751

>  <SCORE.RESTR.norm>
0.0155979

>  <SCORE.SYSTEM>
0

>  <SCORE.SYSTEM.CONST>
0

>  <SCORE.SYSTEM.DIHEDRAL>
0

>  <SCORE.SYSTEM.SOLV>
0

>  <SCORE.SYSTEM.norm>
0

>  <SCORE.heavy>
23

>  <SCORE.norm>
-1.65116

>  <RMSD>
21.008

$$$$

 OpenBabel11021811403D
libRbt.so/2013.1/901 2013/11/27
 23 25  0  0  0  0  0  0  0  0999 V2000
  -15.6969   26.3766    0.6785 S   0  0  0  0  0  0  0  0  0  0  0  0
  -15.6996   24.0383    2.5228 N   0  0  0  0  0  0  0  0  0  0  0  0
  -13.9120   22.8214    1.4561 C   0  0  0  0  0  0  0  0  0  0  0  0
  -12.9518   22.7491    0.4383 C   0  0  0  0  0  0  0  0  0  0  0  0
  -12.8336   23.7807   -0.4882 C   0  0  0  0  0  0  0  0  0  0  0  0
  -13.6742   24.8855   -0.4071 C   0  0  0  0  0  0  0  0  0  0  0  0
  -14.6339   24.9668    0.5987 C   0  0  0  0  0  0  0  0  0  0  0  0
  -14.7591   23.9357    1.5374 C   0  0  0  0  0  0  0  0  0  0  0  0
  -17.0855   25.3744    1.1054 C   0  0  0  0  0  0  0  0  0  0  0  0
  -18.3431   25.6509    0.5612 C   0  0  0  0  0  0  0  0  0  0  0  0
  -19.4414   24.8578    0.9057 C   0  0  0  0  0  0  0  0  0  0  0  0
  -19.2788   23.7925    1.7974 C   0  0  0  0  0  0  0  0  0  0  0  0
  -18.0208   23.5225    2.3375 C   0  0  0  0  0  0  0  0  0  0  0  0
  -16.9270   24.3051    1.9943 C   0  0  0  0  0  0  0  0  0  0  0  0
  -15.6014   23.1940    3.7392 C   0  0  0  0  0  0  0  0  0  0  0  0
  -14.2533   23.2404    4.5332 C   0  0  0  0  0  0  0  0  0  0  0  0
  -13.2454   22.1148    4.1182 C   0  0  0  0  0  0  0  0  0  0  0  0
  -11.7966   22.3838    4.3040 N   0  3  0  0  0  0  0  0  0  0  0  0
  -11.4990   22.8250    5.6912 C   0  0  0  0  0  0  0  0  0  0  0  0
  -11.3084   23.3795    3.2880 C   0  0  0  0  0  0  0  0  0  0  0  0
  -12.0446   21.5563    0.3358 C   0  0  0  0  0  0  0  0  0  0  0  0
  -10.9551   21.4685   -0.7054 C   0  0  0  0  0  0  0  0  0  0  0  0
  -12.1463   20.6545    1.1522 O   0  0  0  0  0  0  0  0  0  0  0  0
  1  7  1  0  0  0  0
  1  9  1  0  0  0  0
  2  8  1  0  0  0  0
  2 14  1  0  0  0  0
  2 15  1  0  0  0  0
  3  4  2  0  0  0  0
  3  8  1  0  0  0  0
  4  5  1  0  0  0  0
  4 21  1  0  0  0  0
  5  6  2  0  0  0  0
  6  7  1  0  0  0  0
  7  8  2  0  0  0  0
  9 10  2  0  0  0  0
  9 14  1  0  0  0  0
 10 11  1  0  0  0  0
 11 12  2  0  0  0  0
 12 13  1  0  0  0  0
 13 14  2  0  0  0  0
 15 16  1  0  0  0  0
 16 17  1  0  0  0  0
 17 18  1  0  0  0  0
 18 19  1  0  0  0  0
 18 20  1  0  0  0  0
 21 22  1  0  0  0  0
 21 23  2  0  0  0  0
M  CHG  1  18   1
M  END
>  <CHROM.1>
53.81678550,-177.09872154,-93.69052661,153.02773404,172.48101048,-14.57187399
23.65900290,1.80347513,-2.86277449,-0.40609945,1.78445238

>  <Name>


>  <RI>
0

>  <Rbt.Current_Directory>
/home/itssahil/PROJECTS/Mol_Feturizer/New_Systems/rnas/1lvj

>  <Rbt.Executable>
rbdock ($Id: //depot/dev/client3/rdock/2013.1/src/exe/rbdock.cxx#4 $)

>  <Rbt.Library>
libRbt.so (2013.1, Build901 2013/11/27)

>  <Rbt.Parameter_File>
/export/apps/rDock/src/rDock_2013.1_src/data/scripts/dock_solv.prm

>  <Rbt.Receptor>
prm/blind_docking_40.prm

>  <SCORE>
-23.1262

>  <SCORE.INTER>
-23.2295

>  <SCORE.INTER.CONST>
1

>  <SCORE.INTER.POLAR>
0

>  <SCORE.INTER.ROT>
5

>  <SCORE.INTER.SOLV>
11.5104

>  <SCORE.INTER.VDW>
-26.2565

>  <SCORE.INTER.norm>
-1.00998

>  <SCORE.INTRA>
-0.853671

>  <SCORE.INTRA.DIHEDRAL>
-1.97445

>  <SCORE.INTRA.DIHEDRAL.0>
8.06479

>  <SCORE.INTRA.POLAR>
0

>  <SCORE.INTRA.POLAR.0>
0

>  <SCORE.INTRA.REPUL>
0

>  <SCORE.INTRA.REPUL.0>
0

>  <SCORE.INTRA.SOLV>
1.36444

>  <SCORE.INTRA.SOLV.lig_0>
-29.8054

>  <SCORE.INTRA.VDW>
-0.548667

>  <SCORE.INTRA.VDW.0>
2.61447

>  <SCORE.INTRA.norm>
-0.0371161

>  <SCORE.RESTR>
0.95695

>  <SCORE.RESTR.CAVITY>
0.95695

>  <SCORE.RESTR.norm>
0.0416065

>  <SCORE.SYSTEM>
0

>  <SCORE.SYSTEM.CONST>
0

>  <SCORE.SYSTEM.DIHEDRAL>
0

>  <SCORE.SYSTEM.SOLV>
0

>  <SCORE.SYSTEM.norm>
0

>  <SCORE.heavy>
23

>  <SCORE.norm>
-1.00549

>  <RMSD>
21.009

$$$$

 OpenBabel11021811403D
libRbt.so/2013.1/901 2013/11/27
 23 25  0  0  0  0  0  0  0  0999 V2000
  -16.0294   26.1971    0.4502 S   0  0  0  0  0  0  0  0  0  0  0  0
  -15.2928   24.3087    2.6321 N   0  0  0  0  0  0  0  0  0  0  0  0
  -13.4244   23.2779    1.5095 C   0  0  0  0  0  0  0  0  0  0  0  0
  -12.6028   23.1962    0.3775 C   0  0  0  0  0  0  0  0  0  0  0  0
  -12.8282   24.0299   -0.7137 C   0  0  0  0  0  0  0  0  0  0  0  0
  -13.8753   24.9445   -0.6831 C   0  0  0  0  0  0  0  0  0  0  0  0
  -14.6998   25.0327    0.4357 C   0  0  0  0  0  0  0  0  0  0  0  0
  -14.4797   24.2004    1.5398 C   0  0  0  0  0  0  0  0  0  0  0  0
  -17.1007   25.0472    1.2533 C   0  0  0  0  0  0  0  0  0  0  0  0
  -18.4450   24.9624    0.8790 C   0  0  0  0  0  0  0  0  0  0  0  0
  -19.2913   24.0539    1.5210 C   0  0  0  0  0  0  0  0  0  0  0  0
  -18.7909   23.2355    2.5389 C   0  0  0  0  0  0  0  0  0  0  0  0
  -17.4483   23.3258    2.9081 C   0  0  0  0  0  0  0  0  0  0  0  0
  -16.6038   24.2236    2.2699 C   0  0  0  0  0  0  0  0  0  0  0  0
  -14.8640   23.7536    3.9398 C   0  0  0  0  0  0  0  0  0  0  0  0
  -13.4690   24.2082    4.4852 C   0  0  0  0  0  0  0  0  0  0  0  0
  -12.4583   23.0262    4.6763 C   0  0  0  0  0  0  0  0  0  0  0  0
  -12.5428   22.2435    5.9357 N   0  3  0  0  0  0  0  0  0  0  0  0
  -11.5065   21.1800    5.9856 C   0  0  0  0  0  0  0  0  0  0  0  0
  -13.9255   21.6804    6.1174 C   0  0  0  0  0  0  0  0  0  0  0  0
  -11.4745   22.2057    0.3299 C   0  0  0  0  0  0  0  0  0  0  0  0
  -11.5137   20.9928   -0.5678 C   0  0  0  0  0  0  0  0  0  0  0  0
  -10.4679   22.4124    0.9888 O   0  0  0  0  0  0  0  0  0  0  0  0
  1  7  1  0  0  0  0
  1  9  1  0  0  0  0
  2  8  1  0  0  0  0
  2 14  1  0  0  0  0
  2 15  1  0  0  0  0
  3  4  2  0  0  0  0
  3  8  1  0  0  0  0
  4  5  1  0  0  0  0
  4 21  1  0  0  0  0
  5  6  2  0  0  0  0
  6  7  1  0  0  0  0
  7  8  2  0  0  0  0
  9 10  2  0  0  0  0
  9 14  1  0  0  0  0
 10 11  1  0  0  0  0
 11 12  2  0  0  0  0
 12 13  1  0  0  0  0
 13 14  2  0  0  0  0
 15 16  1  0  0  0  0
 16 17  1  0  0  0  0
 17 18  1  0  0  0  0
 18 19  1  0  0  0  0
 18 20  1  0  0  0  0
 21 22  1  0  0  0  0
 21 23  2  0  0  0  0
M  CHG  1  18   1
M  END
>  <CHROM.1>
53.44283339,109.55018493,-118.89276114,-83.41271177,-58.80368187,-14.47916747
23.64447996,2.11445459,-2.63600668,-0.34322627,1.86584959

>  <Name>


>  <RI>
0

>  <Rbt.Current_Directory>
/home/itssahil/PROJECTS/Mol_Feturizer/New_Systems/rnas/1lvj

>  <Rbt.Executable>
rbdock ($Id: //depot/dev/client3/rdock/2013.1/src/exe/rbdock.cxx#4 $)

>  <Rbt.Library>
libRbt.so (2013.1, Build901 2013/11/27)

>  <Rbt.Parameter_File>
/export/apps/rDock/src/rDock_2013.1_src/data/scripts/dock_solv.prm

>  <Rbt.Receptor>
prm/blind_docking_40.prm

>  <SCORE>
-21.4684

>  <SCORE.INTER>
-26.3405

>  <SCORE.INTER.CONST>
1

>  <SCORE.INTER.POLAR>
-1.39346

>  <SCORE.INTER.ROT>
5

>  <SCORE.INTER.SOLV>
17.7719

>  <SCORE.INTER.VDW>
-25.7728

>  <SCORE.INTER.norm>
-1.14524

>  <SCORE.INTRA>
3.56509

>  <SCORE.INTRA.DIHEDRAL>
11.1044

>  <SCORE.INTRA.DIHEDRAL.0>
8.06479

>  <SCORE.INTRA.POLAR>
0

>  <SCORE.INTRA.POLAR.0>
0

>  <SCORE.INTRA.REPUL>
0

>  <SCORE.INTRA.REPUL.0>
0

>  <SCORE.INTRA.SOLV>
0.848946

>  <SCORE.INTRA.SOLV.lig_0>
-29.8054

>  <SCORE.INTRA.VDW>
-2.41155

>  <SCORE.INTRA.VDW.0>
2.61447

>  <SCORE.INTRA.norm>
0.155004

>  <SCORE.RESTR>
1.30698

>  <SCORE.RESTR.CAVITY>
1.30698

>  <SCORE.RESTR.norm>
0.0568253

>  <SCORE.SYSTEM>
0

>  <SCORE.SYSTEM.CONST>
0

>  <SCORE.SYSTEM.DIHEDRAL>
0

>  <SCORE.SYSTEM.SOLV>
0

>  <SCORE.SYSTEM.norm>
0

>  <SCORE.heavy>
23

>  <SCORE.norm>
-0.933408

>  <RMSD>
21.010

$$$$

 OpenBabel11021811403D
libRbt.so/2013.1/901 2013/11/27
 23 25  0  0  0  0  0  0  0  0999 V2000
  -12.8059   23.2251    3.9589 S   0  0  0  0  0  0  0  0  0  0  0  0
  -13.7689   24.2933    1.3510 N   0  0  0  0  0  0  0  0  0  0  0  0
  -16.1211   23.9281    1.7351 C   0  0  0  0  0  0  0  0  0  0  0  0
  -17.1414   23.4779    2.5834 C   0  0  0  0  0  0  0  0  0  0  0  0
  -16.8328   22.9633    3.8390 C   0  0  0  0  0  0  0  0  0  0  0  0
  -15.5070   22.8910    4.2522 C   0  0  0  0  0  0  0  0  0  0  0  0
  -14.4846   23.3332    3.4164 C   0  0  0  0  0  0  0  0  0  0  0  0
  -14.7847   23.8551    2.1525 C   0  0  0  0  0  0  0  0  0  0  0  0
  -12.2611   22.7326    2.3541 C   0  0  0  0  0  0  0  0  0  0  0  0
  -11.2783   21.7477    2.2192 C   0  0  0  0  0  0  0  0  0  0  0  0
  -10.8460   21.3640    0.9465 C   0  0  0  0  0  0  0  0  0  0  0  0
  -11.3956   21.9701   -0.1879 C   0  0  0  0  0  0  0  0  0  0  0  0
  -12.3758   22.9531   -0.0461 C   0  0  0  0  0  0  0  0  0  0  0  0
  -12.8108   23.3336    1.2159 C   0  0  0  0  0  0  0  0  0  0  0  0
  -14.0554   25.1980    0.2102 C   0  0  0  0  0  0  0  0  0  0  0  0
  -14.7149   26.5782    0.5421 C   0  0  0  0  0  0  0  0  0  0  0  0
  -16.2813   26.5415    0.5257 C   0  0  0  0  0  0  0  0  0  0  0  0
  -17.0042   27.7555    0.9836 N   0  3  0  0  0  0  0  0  0  0  0  0
  -17.9189   27.4498    2.1138 C   0  0  0  0  0  0  0  0  0  0  0  0
  -17.7340   28.4008   -0.1623 C   0  0  0  0  0  0  0  0  0  0  0  0
  -18.5763   23.5428    2.1437 C   0  0  0  0  0  0  0  0  0  0  0  0
  -19.7136   23.5979    3.1347 C   0  0  0  0  0  0  0  0  0  0  0  0
  -18.8351   23.6136    0.9528 O   0  0  0  0  0  0  0  0  0  0  0  0
  1  7  1  0  0  0  0
  1  9  1  0  0  0  0
  2  8  1  0  0  0  0
  2 14  1  0  0  0  0
  2 15  1  0  0  0  0
  3  4  2  0  0  0  0
  3  8  1  0  0  0  0
  4  5  1  0  0  0  0
  4 21  1  0  0  0  0
  5  6  2  0  0  0  0
  6  7  1  0  0  0  0
  7  8  2  0  0  0  0
  9 10  2  0  0  0  0
  9 14  1  0  0  0  0
 10 11  1  0  0  0  0
 11 12  2  0  0  0  0
 12 13  1  0  0  0  0
 13 14  2  0  0  0  0
 15 16  1  0  0  0  0
 16 17  1  0  0  0  0
 17 18  1  0  0  0  0
 18 19  1  0  0  0  0
 18 20  1  0  0  0  0
 21 22  1  0  0  0  0
 21 23  2  0  0  0  0
M  CHG  1  18   1
M  END
>  <CHROM.1>
60.03360685,-155.63869528,-90.36247738,172.93084870,-2.49002370,-15.06693459
24.16328149,1.84204144,0.44517755,-0.30492550,2.48271013

>  <Name>


>  <RI>
0

>  <Rbt.Current_Directory>
/home/itssahil/PROJECTS/Mol_Feturizer/New_Systems/rnas/1lvj

>  <Rbt.Executable>
rbdock ($Id: //depot/dev/client3/rdock/2013.1/src/exe/rbdock.cxx#4 $)

>  <Rbt.Library>
libRbt.so (2013.1, Build901 2013/11/27)

>  <Rbt.Parameter_File>
/export/apps/rDock/src/rDock_2013.1_src/data/scripts/dock_solv.prm

>  <Rbt.Receptor>
prm/blind_docking_40.prm

>  <SCORE>
-36.3961

>  <SCORE.INTER>
-35.258

>  <SCORE.INTER.CONST>
1

>  <SCORE.INTER.POLAR>
-1.5

>  <SCORE.INTER.ROT>
5

>  <SCORE.INTER.SOLV>
16.3933

>  <SCORE.INTER.VDW>
-30.9031

>  <SCORE.INTER.norm>
-1.53296

>  <SCORE.INTRA>
-1.92232

>  <SCORE.INTRA.DIHEDRAL>
0.788881

>  <SCORE.INTRA.DIHEDRAL.0>
8.06479

>  <SCORE.INTRA.POLAR>
0

>  <SCORE.INTRA.POLAR.0>
0

>  <SCORE.INTRA.REPUL>
0

>  <SCORE.INTRA.REPUL.0>
0

>  <SCORE.INTRA.SOLV>
1.0894

>  <SCORE.INTRA.SOLV.lig_0>
-29.8054

>  <SCORE.INTRA.VDW>
-2.86146

>  <SCORE.INTRA.VDW.0>
2.61447

>  <SCORE.INTRA.norm>
-0.0835791

>  <SCORE.RESTR>
0.784226

>  <SCORE.RESTR.CAVITY>
0.784226

>  <SCORE.RESTR.norm>
0.0340968

>  <SCORE.SYSTEM>
0

>  <SCORE.SYSTEM.CONST>
0

>  <SCORE.SYSTEM.DIHEDRAL>
0

>  <SCORE.SYSTEM.SOLV>
0

>  <SCORE.SYSTEM.norm>
0

>  <SCORE.heavy>
23

>  <SCORE.norm>
-1.58244

>  <RMSD>
21.013

$$$$

 OpenBabel11021811403D
libRbt.so/2013.1/901 2013/11/27
 23 25  0  0  0  0  0  0  0  0999 V2000
  -13.1034   23.0705    3.9547 S   0  0  0  0  0  0  0  0  0  0  0  0
  -13.9232   24.2971    1.3677 N   0  0  0  0  0  0  0  0  0  0  0  0
  -16.3023   24.0362    1.6603 C   0  0  0  0  0  0  0  0  0  0  0  0
  -17.3718   23.6028    2.4550 C   0  0  0  0  0  0  0  0  0  0  0  0
  -17.1319   23.0199    3.6956 C   0  0  0  0  0  0  0  0  0  0  0  0
  -15.8261   22.8624    4.1470 C   0  0  0  0  0  0  0  0  0  0  0  0
  -14.7553   23.2872    3.3646 C   0  0  0  0  0  0  0  0  0  0  0  0
  -14.9860   23.8774    2.1162 C   0  0  0  0  0  0  0  0  0  0  0  0
  -12.5296   22.6200    2.3477 C   0  0  0  0  0  0  0  0  0  0  0  0
  -11.5927   21.5929    2.2004 C   0  0  0  0  0  0  0  0  0  0  0  0
  -11.1371   21.2425    0.9262 C   0  0  0  0  0  0  0  0  0  0  0  0
  -11.6172   21.9239   -0.1969 C   0  0  0  0  0  0  0  0  0  0  0  0
  -12.5517   22.9486   -0.0427 C   0  0  0  0  0  0  0  0  0  0  0  0
  -13.0098   23.2964    1.2205 C   0  0  0  0  0  0  0  0  0  0  0  0
  -14.1256   25.2633    0.2597 C   0  0  0  0  0  0  0  0  0  0  0  0
  -14.7500   26.6506    0.6278 C   0  0  0  0  0  0  0  0  0  0  0  0
  -16.2996   26.7164    0.4049 C   0  0  0  0  0  0  0  0  0  0  0  0
  -17.0248   27.8936    0.9474 N   0  3  0  0  0  0  0  0  0  0  0  0
  -17.9337   27.5081    2.0577 C   0  0  0  0  0  0  0  0  0  0  0  0
  -17.7615   28.6130   -0.1488 C   0  0  0  0  0  0  0  0  0  0  0  0
  -18.7860   23.7596    1.9733 C   0  0  0  0  0  0  0  0  0  0  0  0
  -19.1523   24.7245    0.8717 C   0  0  0  0  0  0  0  0  0  0  0  0
  -19.6601   23.0467    2.4400 O   0  0  0  0  0  0  0  0  0  0  0  0
  1  7  1  0  0  0  0
  1  9  1  0  0  0  0
  2  8  1  0  0  0  0
  2 14  1  0  0  0  0
  2 15  1  0  0  0  0
  3  4  2  0  0  0  0
  3  8  1  0  0  0  0
  4  5  1  0  0  0  0
  4 21  1  0  0  0  0
  5  6  2  0  0  0  0
  6  7  1  0  0  0  0
  7  8  2  0  0  0  0
  9 10  2  0  0  0  0
  9 14  1  0  0  0  0
 10 11  1  0  0  0  0
 11 12  2  0  0  0  0
 12 13  1  0  0  0  0
 13 14  2  0  0  0  0
 15 16  1  0  0  0  0
 16 17  1  0  0  0  0
 17 18  1  0  0  0  0
 18 19  1  0  0  0  0
 18 20  1  0  0  0  0
 21 22  1  0  0  0  0
 21 23  2  0  0  0  0
M  CHG  1  18   1
M  END
>  <CHROM.1>
58.98984479,-18.85197415,-96.10716207,169.27931088,7.28409621,-15.24764889
24.20299004,1.77936414,0.52854286,-0.28900373,2.54114265

>  <Name>


>  <RI>
0

>  <Rbt.Current_Directory>
/home/itssahil/PROJECTS/Mol_Feturizer/New_Systems/rnas/1lvj

>  <Rbt.Executable>
rbdock ($Id: //depot/dev/client3/rdock/2013.1/src/exe/rbdock.cxx#4 $)

>  <Rbt.Library>
libRbt.so (2013.1, Build901 2013/11/27)

>  <Rbt.Parameter_File>
/export/apps/rDock/src/rDock_2013.1_src/data/scripts/dock_solv.prm

>  <Rbt.Receptor>
prm/blind_docking_40.prm

>  <SCORE>
-35.5657

>  <SCORE.INTER>
-34.5166

>  <SCORE.INTER.CONST>
1

>  <SCORE.INTER.POLAR>
-1.43065

>  <SCORE.INTER.ROT>
5

>  <SCORE.INTER.SOLV>
16.6453

>  <SCORE.INTER.VDW>
-30.724

>  <SCORE.INTER.norm>
-1.50072

>  <SCORE.INTRA>
-1.59192

>  <SCORE.INTRA.DIHEDRAL>
1.41584

>  <SCORE.INTRA.DIHEDRAL.0>
8.06479

>  <SCORE.INTRA.POLAR>
0

>  <SCORE.INTRA.POLAR.0>
0

>  <SCORE.INTRA.REPUL>
0

>  <SCORE.INTRA.REPUL.0>
0

>  <SCORE.INTRA.SOLV>
0.92493

>  <SCORE.INTRA.SOLV.lig_0>
-29.8054

>  <SCORE.INTRA.VDW>
-2.7623

>  <SCORE.INTRA.VDW.0>
2.61447

>  <SCORE.INTRA.norm>
-0.0692138

>  <SCORE.RESTR>
0.54283

>  <SCORE.RESTR.CAVITY>
0.54283

>  <SCORE.RESTR.norm>
0.0236013

>  <SCORE.SYSTEM>
0

>  <SCORE.SYSTEM.CONST>
0

>  <SCORE.SYSTEM.DIHEDRAL>
0

>  <SCORE.SYSTEM.SOLV>
0

>  <SCORE.SYSTEM.norm>
0

>  <SCORE.heavy>
23

>  <SCORE.norm>
-1.54634

>  <RMSD>
21.014

$$$$

 OpenBabel11021811403D
libRbt.so/2013.1/901 2013/11/27
 23 25  0  0  0  0  0  0  0  0999 V2000
  -12.6133   23.1670    3.8910 S   0  0  0  0  0  0  0  0  0  0  0  0
  -13.7036   24.2758    1.3511 N   0  0  0  0  0  0  0  0  0  0  0  0
  -16.0328   23.8827    1.8356 C   0  0  0  0  0  0  0  0  0  0  0  0
  -17.0093   23.4076    2.7209 C   0  0  0  0  0  0  0  0  0  0  0  0
  -16.6392   22.8721    3.9509 C   0  0  0  0  0  0  0  0  0  0  0  0
  -15.2952   22.8037    4.3014 C   0  0  0  0  0  0  0  0  0  0  0  0
  -14.3159   23.2706    3.4283 C   0  0  0  0  0  0  0  0  0  0  0  0
  -14.6780   23.8136    2.1897 C   0  0  0  0  0  0  0  0  0  0  0  0
  -12.1390   22.7097    2.2537 C   0  0  0  0  0  0  0  0  0  0  0  0
  -11.1557   21.7362    2.0549 C   0  0  0  0  0  0  0  0  0  0  0  0
  -10.7794   21.3805    0.7565 C   0  0  0  0  0  0  0  0  0  0  0  0
  -11.3854   22.0031   -0.3395 C   0  0  0  0  0  0  0  0  0  0  0  0
  -12.3658   22.9746   -0.1340 C   0  0  0  0  0  0  0  0  0  0  0  0
  -12.7452   23.3273    1.1538 C   0  0  0  0  0  0  0  0  0  0  0  0
  -14.0495   25.1994    0.2424 C   0  0  0  0  0  0  0  0  0  0  0  0
  -14.7060   26.5662    0.6306 C   0  0  0  0  0  0  0  0  0  0  0  0
  -16.2634   26.5818    0.4587 C   0  0  0  0  0  0  0  0  0  0  0  0
  -17.0022   27.7622    0.9751 N   0  3  0  0  0  0  0  0  0  0  0  0
  -17.8819   27.3969    2.1154 C   0  0  0  0  0  0  0  0  0  0  0  0
  -17.7743   28.4287   -0.1302 C   0  0  0  0  0  0  0  0  0  0  0  0
  -18.4634   23.4682    2.3488 C   0  0  0  0  0  0  0  0  0  0  0  0
  -18.9589   24.3095    1.1976 C   0  0  0  0  0  0  0  0  0  0  0  0
  -19.2655   22.7736    2.9524 O   0  0  0  0  0  0  0  0  0  0  0  0
  1  7  1  0  0  0  0
  1  9  1  0  0  0  0
  2  8  1  0  0  0  0
  2 14  1  0  0  0  0
  2 15  1  0  0  0  0
  3  4  2  0  0  0  0
  3  8  1  0  0  0  0
  4  5  1  0  0  0  0
  4 21  1  0  0  0  0
  5  6  2  0  0  0  0
  6  7  1  0  0  0  0
  7  8  2  0  0  0  0
  9 10  2  0  0  0  0
  9 14  1  0  0  0  0
 10 11  1  0  0  0  0
 11 12  2  0  0  0  0
 12 13  1  0  0  0  0
 13 14  2  0  0  0  0
 15 16  1  0  0  0  0
 16 17  1  0  0  0  0
 17 18  1  0  0  0  0
 18 19  1  0  0  0  0
 18 20  1  0  0  0  0
 21 22  1  0  0  0  0
 21 23  2  0  0  0  0
M  CHG  1  18   1
M  END
>  <CHROM.1>
59.93864916,-14.58628227,-99.74513929,171.73906433,6.22412357,-14.97642471
24.13217404,1.84284120,0.45253799,-0.31386479,2.48804642

>  <Name>


>  <RI>
0

>  <Rbt.Current_Directory>
/home/itssahil/PROJECTS/Mol_Feturizer/New_Systems/rnas/1lvj

>  <Rbt.Executable>
rbdock ($Id: //depot/dev/client3/rdock/2013.1/src/exe/rbdock.cxx#4 $)

>  <Rbt.Library>
libRbt.so (2013.1, Build901 2013/11/27)

>  <Rbt.Parameter_File>
/export/apps/rDock/src/rDock_2013.1_src/data/scripts/dock_solv.prm

>  <Rbt.Receptor>
prm/blind_docking_80.prm

>  <SCORE>
-37.5449

>  <SCORE.INTER>
-35.7903

>  <SCORE.INTER.CONST>
1

>  <SCORE.INTER.POLAR>
-1.5

>  <SCORE.INTER.ROT>
5

>  <SCORE.INTER.SOLV>
16.3034

>  <SCORE.INTER.VDW>
-31.228

>  <SCORE.INTER.norm>
-1.5561

>  <SCORE.INTRA>
-2.12284

>  <SCORE.INTRA.DIHEDRAL>
1.21317

>  <SCORE.INTRA.DIHEDRAL.0>
8.06479

>  <SCORE.INTRA.POLAR>
0

>  <SCORE.INTRA.POLAR.0>
0

>  <SCORE.INTRA.REPUL>
0

>  <SCORE.INTRA.REPUL.0>
0

>  <SCORE.INTRA.SOLV>
0.902311

>  <SCORE.INTRA.SOLV.lig_0>
-29.8054

>  <SCORE.INTRA.VDW>
-3.18057

>  <SCORE.INTRA.VDW.0>
2.61447

>  <SCORE.INTRA.norm>
-0.0922972

>  <SCORE.RESTR>
0.368238

>  <SCORE.RESTR.CAVITY>
0.368238

>  <SCORE.RESTR.norm>
0.0160104

>  <SCORE.SYSTEM>
0

>  <SCORE.SYSTEM.CONST>
0

>  <SCORE.SYSTEM.DIHEDRAL>
0

>  <SCORE.SYSTEM.SOLV>
0

>  <SCORE.SYSTEM.norm>
0

>  <SCORE.heavy>
23

>  <SCORE.norm>
-1.63239

>  <RMSD>
21.018

$$$$

 OpenBabel11021811403D
libRbt.so/2013.1/901 2013/11/27
 23 25  0  0  0  0  0  0  0  0999 V2000
  -12.5566   23.1988    3.8983 S   0  0  0  0  0  0  0  0  0  0  0  0
  -13.5948   24.2367    1.3071 N   0  0  0  0  0  0  0  0  0  0  0  0
  -15.9334   23.8565    1.7547 C   0  0  0  0  0  0  0  0  0  0  0  0
  -16.9279   23.4058    2.6328 C   0  0  0  0  0  0  0  0  0  0  0  0
  -16.5830   22.9046    3.8843 C   0  0  0  0  0  0  0  0  0  0  0  0
  -15.2465   22.8462    4.2638 C   0  0  0  0  0  0  0  0  0  0  0  0
  -14.2495   23.2891    3.3983 C   0  0  0  0  0  0  0  0  0  0  0  0
  -14.5861   23.7977    2.1381 C   0  0  0  0  0  0  0  0  0  0  0  0
  -12.0493   22.6966    2.2842 C   0  0  0  0  0  0  0  0  0  0  0  0
  -11.0624   21.7183    2.1324 C   0  0  0  0  0  0  0  0  0  0  0  0
  -10.6599   21.3270    0.8523 C   0  0  0  0  0  0  0  0  0  0  0  0
  -11.2433   21.9189   -0.2726 C   0  0  0  0  0  0  0  0  0  0  0  0
  -12.2273   22.8954   -0.1140 C   0  0  0  0  0  0  0  0  0  0  0  0
  -12.6328   23.2834    1.1555 C   0  0  0  0  0  0  0  0  0  0  0  0
  -13.9178   25.1293    0.1664 C   0  0  0  0  0  0  0  0  0  0  0  0
  -14.6194   26.4881    0.4999 C   0  0  0  0  0  0  0  0  0  0  0  0
  -16.1722   26.4562    0.2927 C   0  0  0  0  0  0  0  0  0  0  0  0
  -16.9632   27.5919    0.8317 N   0  3  0  0  0  0  0  0  0  0  0  0
  -17.8133   27.1686    1.9743 C   0  0  0  0  0  0  0  0  0  0  0  0
  -17.7771   28.2344   -0.2576 C   0  0  0  0  0  0  0  0  0  0  0  0
  -18.3741   23.4557    2.2296 C   0  0  0  0  0  0  0  0  0  0  0  0
  -19.4891   23.3870    3.2448 C   0  0  0  0  0  0  0  0  0  0  0  0
  -18.6631   23.6165    1.0546 O   0  0  0  0  0  0  0  0  0  0  0  0
  1  7  1  0  0  0  0
  1  9  1  0  0  0  0
  2  8  1  0  0  0  0
  2 14  1  0  0  0  0
  2 15  1  0  0  0  0
  3  4  2  0  0  0  0
  3  8  1  0  0  0  0
  4  5  1  0  0  0  0
  4 21  1  0  0  0  0
  5  6  2  0  0  0  0
  6  7  1  0  0  0  0
  7  8  2  0  0  0  0
  9 10  2  0  0  0  0
  9 14  1  0  0  0  0
 10 11  1  0  0  0  0
 11 12  2  0  0  0  0
 12 13  1  0  0  0  0
 13 14  2  0  0  0  0
 15 16  1  0  0  0  0
 16 17  1  0  0  0  0
 17 18  1  0  0  0  0
 18 19  1  0  0  0  0
 18 20  1  0  0  0  0
 21 22  1  0  0  0  0
 21 23  2  0  0  0  0
M  CHG  1  18   1
M  END
>  <CHROM.1>
58.21385788,-161.17335067,-98.70090887,168.09347627,8.53807088,-14.89595141
24.08367637,1.80165277,0.41624313,-0.31502877,2.42792870

>  <Name>


>  <RI>
0

>  <Rbt.Current_Directory>
/home/itssahil/PROJECTS/Mol_Feturizer/New_Systems/rnas/1lvj

>  <Rbt.Executable>
rbdock ($Id: //depot/dev/client3/rdock/2013.1/src/exe/rbdock.cxx#4 $)

>  <Rbt.Library>
libRbt.so (2013.1, Build901 2013/11/27)

>  <Rbt.Parameter_File>
/export/apps/rDock/src/rDock_2013.1_src/data/scripts/dock_solv.prm

>  <Rbt.Receptor>
prm/blind_docking_80.prm

>  <SCORE>
-38.3648

>  <SCORE.INTER>
-36.6972

>  <SCORE.INTER.CONST>
1

>  <SCORE.INTER.POLAR>
-1.5

>  <SCORE.INTER.ROT>
5

>  <SCORE.INTER.SOLV>
15.6243

>  <SCORE.INTER.VDW>
-31.6063

>  <SCORE.INTER.norm>
-1.59553

>  <SCORE.INTRA>
-2.0877

>  <SCORE.INTRA.DIHEDRAL>
1.36517

>  <SCORE.INTRA.DIHEDRAL.0>
8.06479

>  <SCORE.INTRA.POLAR>
0

>  <SCORE.INTRA.POLAR.0>
0

>  <SCORE.INTRA.REPUL>
0

>  <SCORE.INTRA.REPUL.0>
0

>  <SCORE.INTRA.SOLV>
1.11689

>  <SCORE.INTRA.SOLV.lig_0>
-29.8054

>  <SCORE.INTRA.VDW>
-3.32873

>  <SCORE.INTRA.VDW.0>
2.61447

>  <SCORE.INTRA.norm>
-0.0907696

>  <SCORE.RESTR>
0.420142

>  <SCORE.RESTR.CAVITY>
0.420142

>  <SCORE.RESTR.norm>
0.018267

>  <SCORE.SYSTEM>
0

>  <SCORE.SYSTEM.CONST>
0

>  <SCORE.SYSTEM.DIHEDRAL>
0

>  <SCORE.SYSTEM.SOLV>
0

>  <SCORE.SYSTEM.norm>
0

>  <SCORE.heavy>
23

>  <SCORE.norm>
-1.66803

>  <RMSD>
21.018

$$$$

 OpenBabel11021811403D
libRbt.so/2013.1/901 2013/11/27
 23 25  0  0  0  0  0  0  0  0999 V2000
  -12.2313   23.2593    3.7786 S   0  0  0  0  0  0  0  0  0  0  0  0
  -13.5393   24.1798    1.2664 N   0  0  0  0  0  0  0  0  0  0  0  0
  -15.8098   23.7116    1.9293 C   0  0  0  0  0  0  0  0  0  0  0  0
  -16.7018   23.2427    2.9028 C   0  0  0  0  0  0  0  0  0  0  0  0
  -16.2258   22.7914    4.1302 C   0  0  0  0  0  0  0  0  0  0  0  0
  -14.8598   22.8012    4.3905 C   0  0  0  0  0  0  0  0  0  0  0  0
  -13.9640   23.2627    3.4294 C   0  0  0  0  0  0  0  0  0  0  0  0
  -14.4328   23.7214    2.1925 C   0  0  0  0  0  0  0  0  0  0  0  0
  -11.8456   22.7352    2.1380 C   0  0  0  0  0  0  0  0  0  0  0  0
  -10.8325   21.7965    1.9220 C   0  0  0  0  0  0  0  0  0  0  0  0
  -10.5267   21.3879    0.6207 C   0  0  0  0  0  0  0  0  0  0  0  0
  -11.2331   21.9230   -0.4614 C   0  0  0  0  0  0  0  0  0  0  0  0
  -12.2427   22.8601   -0.2388 C   0  0  0  0  0  0  0  0  0  0  0  0
  -12.5521   23.2651    1.0523 C   0  0  0  0  0  0  0  0  0  0  0  0
  -14.0015   25.0259    0.1383 C   0  0  0  0  0  0  0  0  0  0  0  0
  -14.6758   26.3914    0.4999 C   0  0  0  0  0  0  0  0  0  0  0  0
  -16.2406   26.3534    0.4269 C   0  0  0  0  0  0  0  0  0  0  0  0
  -16.9823   27.5473    0.9070 N   0  3  0  0  0  0  0  0  0  0  0  0
  -18.3739   27.2023    1.2970 C   0  0  0  0  0  0  0  0  0  0  0  0
  -16.9500   28.6411   -0.1248 C   0  0  0  0  0  0  0  0  0  0  0  0
  -18.1786   23.2191    2.6291 C   0  0  0  0  0  0  0  0  0  0  0  0
  -18.7651   23.7909    1.3611 C   0  0  0  0  0  0  0  0  0  0  0  0
  -18.9261   22.6700    3.4227 O   0  0  0  0  0  0  0  0  0  0  0  0
  1  7  1  0  0  0  0
  1  9  1  0  0  0  0
  2  8  1  0  0  0  0
  2 14  1  0  0  0  0
  2 15  1  0  0  0  0
  3  4  2  0  0  0  0
  3  8  1  0  0  0  0
  4  5  1  0  0  0  0
  4 21  1  0  0  0  0
  5  6  2  0  0  0  0
  6  7  1  0  0  0  0
  7  8  2  0  0  0  0
  9 10  2  0  0  0  0
  9 14  1  0  0  0  0
 10 11  1  0  0  0  0
 11 12  2  0  0  0  0
 12 13  1  0  0  0  0
 13 14  2  0  0  0  0
 15 16  1  0  0  0  0
 16 17  1  0  0  0  0
 17 18  1  0  0  0  0
 18 19  1  0  0  0  0
 18 20  1  0  0  0  0
 21 22  1  0  0  0  0
 21 23  2  0  0  0  0
M  CHG  1  18   1
M  END
>  <CHROM.1>
60.82330815,-4.90736084,-100.66255371,172.86435047,-37.03453809,-14.74868267
24.03818139,1.81215662,0.41593371,-0.32165726,2.44532216

>  <Name>


>  <RI>
0

>  <Rbt.Current_Directory>
/home/itssahil/PROJECTS/Mol_Feturizer/New_Systems/rnas/1lvj

>  <Rbt.Executable>
rbdock ($Id: //depot/dev/client3/rdock/2013.1/src/exe/rbdock.cxx#4 $)

>  <Rbt.Library>
libRbt.so (2013.1, Build901 2013/11/27)

>  <Rbt.Parameter_File>
/export/apps/rDock/src/rDock_2013.1_src/data/scripts/dock_solv.prm

>  <Rbt.Receptor>
prm/blind_docking_80.prm

>  <SCORE>
-36.6431

>  <SCORE.INTER>
-33.6977

>  <SCORE.INTER.CONST>
1

>  <SCORE.INTER.POLAR>
-1.46445

>  <SCORE.INTER.ROT>
5

>  <SCORE.INTER.SOLV>
16.7896

>  <SCORE.INTER.VDW>
-30.1135

>  <SCORE.INTER.norm>
-1.46512

>  <SCORE.INTRA>
-3.52721

>  <SCORE.INTRA.DIHEDRAL>
-2.05316

>  <SCORE.INTRA.DIHEDRAL.0>
8.06479

>  <SCORE.INTRA.POLAR>
0

>  <SCORE.INTRA.POLAR.0>
0

>  <SCORE.INTRA.REPUL>
0

>  <SCORE.INTRA.REPUL.0>
0

>  <SCORE.INTRA.SOLV>
0.72119

>  <SCORE.INTRA.SOLV.lig_0>
-29.8054

>  <SCORE.INTRA.VDW>
-2.86123

>  <SCORE.INTRA.VDW.0>
2.61447

>  <SCORE.INTRA.norm>
-0.153357

>  <SCORE.RESTR>
0.581772

>  <SCORE.RESTR.CAVITY>
0.581772

>  <SCORE.RESTR.norm>
0.0252944

>  <SCORE.SYSTEM>
0

>  <SCORE.SYSTEM.CONST>
0

>  <SCORE.SYSTEM.DIHEDRAL>
0

>  <SCORE.SYSTEM.SOLV>
0

>  <SCORE.SYSTEM.norm>
0

>  <SCORE.heavy>
23

>  <SCORE.norm>
-1.59318

>  <RMSD>
21.022

$$$$

 OpenBabel11021811403D
libRbt.so/2013.1/901 2013/11/27
 23 25  0  0  0  0  0  0  0  0999 V2000
  -12.6467   23.2069    3.8474 S   0  0  0  0  0  0  0  0  0  0  0  0
  -13.6949   24.2629    1.2676 N   0  0  0  0  0  0  0  0  0  0  0  0
  -16.0315   23.8757    1.7200 C   0  0  0  0  0  0  0  0  0  0  0  0
  -17.0224   23.4168    2.5979 C   0  0  0  0  0  0  0  0  0  0  0  0
  -16.6727   22.9066    3.8445 C   0  0  0  0  0  0  0  0  0  0  0  0
  -15.3348   22.8474    4.2192 C   0  0  0  0  0  0  0  0  0  0  0  0
  -14.3414   23.2984    3.3538 C   0  0  0  0  0  0  0  0  0  0  0  0
  -14.6829   23.8160    2.0986 C   0  0  0  0  0  0  0  0  0  0  0  0
  -12.1440   22.7177    2.2279 C   0  0  0  0  0  0  0  0  0  0  0  0
  -11.1561   21.7420    2.0654 C   0  0  0  0  0  0  0  0  0  0  0  0
  -10.7572   21.3611    0.7811 C   0  0  0  0  0  0  0  0  0  0  0  0
  -11.3453   21.9607   -0.3374 C   0  0  0  0  0  0  0  0  0  0  0  0
  -12.3302   22.9344   -0.1681 C   0  0  0  0  0  0  0  0  0  0  0  0
  -12.7321   23.3122    1.1057 C   0  0  0  0  0  0  0  0  0  0  0  0
  -14.0230   25.1636    0.1349 C   0  0  0  0  0  0  0  0  0  0  0  0
  -14.6805   26.5402    0.4849 C   0  0  0  0  0  0  0  0  0  0  0  0
  -16.2469   26.4992    0.4949 C   0  0  0  0  0  0  0  0  0  0  0  0
  -16.9651   27.7047    0.9815 N   0  3  0  0  0  0  0  0  0  0  0  0
  -17.8763   27.3769    2.1084 C   0  0  0  0  0  0  0  0  0  0  0  0
  -17.6976   28.3764   -0.1473 C   0  0  0  0  0  0  0  0  0  0  0  0
  -18.4700   23.4676    2.1999 C   0  0  0  0  0  0  0  0  0  0  0  0
  -19.5796   23.4856    3.2232 C   0  0  0  0  0  0  0  0  0  0  0  0
  -18.7635   23.5574    1.0184 O   0  0  0  0  0  0  0  0  0  0  0  0
  1  7  1  0  0  0  0
  1  9  1  0  0  0  0
  2  8  1  0  0  0  0
  2 14  1  0  0  0  0
  2 15  1  0  0  0  0
  3  4  2  0  0  0  0
  3  8  1  0  0  0  0
  4  5  1  0  0  0  0
  4 21  1  0  0  0  0
  5  6  2  0  0  0  0
  6  7  1  0  0  0  0
  7  8  2  0  0  0  0
  9 10  2  0  0  0  0
  9 14  1  0  0  0  0
 10 11  1  0  0  0  0
 11 12  2  0  0  0  0
 12 13  1  0  0  0  0
 13 14  2  0  0  0  0
 15 16  1  0  0  0  0
 16 17  1  0  0  0  0
 17 18  1  0  0  0  0
 18 19  1  0  0  0  0
 18 20  1  0  0  0  0
 21 22  1  0  0  0  0
 21 23  2  0  0  0  0
M  CHG  1  18   1
M  END
>  <CHROM.1>
60.26923953,-156.86671662,-91.30939024,172.44357466,-3.42937676,-14.97536158
24.12398557,1.79269090,0.42279353,-0.32059318,2.47603824

>  <Name>


>  <RI>
0

>  <Rbt.Current_Directory>
/home/itssahil/PROJECTS/Mol_Feturizer/New_Systems/rnas/1lvj

>  <Rbt.Executable>
rbdock ($Id: //depot/dev/client3/rdock/2013.1/src/exe/rbdock.cxx#4 $)

>  <Rbt.Library>
libRbt.so (2013.1, Build901 2013/11/27)

>  <Rbt.Parameter_File>
/export/apps/rDock/src/rDock_2013.1_src/data/scripts/dock_solv.prm

>  <Rbt.Receptor>
prm/blind_docking_80.prm

>  <SCORE>
-37.9882

>  <SCORE.INTER>
-36.3311

>  <SCORE.INTER.CONST>
1

>  <SCORE.INTER.POLAR>
-1.5

>  <SCORE.INTER.ROT>
5

>  <SCORE.INTER.SOLV>
16.4806

>  <SCORE.INTER.VDW>
-31.6476

>  <SCORE.INTER.norm>
-1.57961

>  <SCORE.INTRA>
-2.03483

>  <SCORE.INTRA.DIHEDRAL>
0.746716

>  <SCORE.INTRA.DIHEDRAL.0>
8.06479

>  <SCORE.INTRA.POLAR>
0

>  <SCORE.INTRA.POLAR.0>
0

>  <SCORE.INTRA.REPUL>
0

>  <SCORE.INTRA.REPUL.0>
0

>  <SCORE.INTRA.SOLV>
1.0927

>  <SCORE.INTRA.SOLV.lig_0>
-29.8054

>  <SCORE.INTRA.VDW>
-2.95453

>  <SCORE.INTRA.VDW.0>
2.61447

>  <SCORE.INTRA.norm>
-0.0884707

>  <SCORE.RESTR>
0.377664

>  <SCORE.RESTR.CAVITY>
0.377664

>  <SCORE.RESTR.norm>
0.0164202

>  <SCORE.SYSTEM>
0

>  <SCORE.SYSTEM.CONST>
0

>  <SCORE.SYSTEM.DIHEDRAL>
0

>  <SCORE.SYSTEM.SOLV>
0

>  <SCORE.SYSTEM.norm>
0

>  <SCORE.heavy>
23

>  <SCORE.norm>
-1.65166

>  <RMSD>
21.023

$$$$

 OpenBabel11021811403D
libRbt.so/2013.1/901 2013/11/27
 23 25  0  0  0  0  0  0  0  0999 V2000
  -12.6115   23.1890    3.9001 S   0  0  0  0  0  0  0  0  0  0  0  0
  -13.6432   24.2484    1.3150 N   0  0  0  0  0  0  0  0  0  0  0  0
  -15.9844   23.8833    1.7620 C   0  0  0  0  0  0  0  0  0  0  0  0
  -16.9817   23.4353    2.6382 C   0  0  0  0  0  0  0  0  0  0  0  0
  -16.6400   22.9249    3.8868 C   0  0  0  0  0  0  0  0  0  0  0  0
  -15.3037   22.8546    4.2653 C   0  0  0  0  0  0  0  0  0  0  0  0
  -14.3039   23.2946    3.4016 C   0  0  0  0  0  0  0  0  0  0  0  0
  -14.6374   23.8123    2.1443 C   0  0  0  0  0  0  0  0  0  0  0  0
  -12.1088   22.6916    2.2831 C   0  0  0  0  0  0  0  0  0  0  0  0
  -11.1293   21.7067    2.1256 C   0  0  0  0  0  0  0  0  0  0  0  0
  -10.7304   21.3192    0.8432 C   0  0  0  0  0  0  0  0  0  0  0  0
  -11.3100   21.9215   -0.2783 C   0  0  0  0  0  0  0  0  0  0  0  0
  -12.2866   22.9044   -0.1139 C   0  0  0  0  0  0  0  0  0  0  0  0
  -12.6885   23.2888    1.1579 C   0  0  0  0  0  0  0  0  0  0  0  0
  -13.9602   25.1493    0.1793 C   0  0  0  0  0  0  0  0  0  0  0  0
  -14.6375   26.5182    0.5217 C   0  0  0  0  0  0  0  0  0  0  0  0
  -16.1952   26.5036    0.3521 C   0  0  0  0  0  0  0  0  0  0  0  0
  -16.9548   27.6753    0.8578 N   0  3  0  0  0  0  0  0  0  0  0  0
  -17.8462   27.2999    1.9857 C   0  0  0  0  0  0  0  0  0  0  0  0
  -17.7189   28.3329   -0.2583 C   0  0  0  0  0  0  0  0  0  0  0  0
  -18.4277   23.4982    2.2361 C   0  0  0  0  0  0  0  0  0  0  0  0
  -19.5424   23.4472    3.2528 C   0  0  0  0  0  0  0  0  0  0  0  0
  -18.7162   23.6551    1.0604 O   0  0  0  0  0  0  0  0  0  0  0  0
  1  7  1  0  0  0  0
  1  9  1  0  0  0  0
  2  8  1  0  0  0  0
  2 14  1  0  0  0  0
  2 15  1  0  0  0  0
  3  4  2  0  0  0  0
  3  8  1  0  0  0  0
  4  5  1  0  0  0  0
  4 21  1  0  0  0  0
  5  6  2  0  0  0  0
  6  7  1  0  0  0  0
  7  8  2  0  0  0  0
  9 10  2  0  0  0  0
  9 14  1  0  0  0  0
 10 11  1  0  0  0  0
 11 12  2  0  0  0  0
 12 13  1  0  0  0  0
 13 14  2  0  0  0  0
 15 16  1  0  0  0  0
 16 17  1  0  0  0  0
 17 18  1  0  0  0  0
 18 19  1  0  0  0  0
 18 20  1  0  0  0  0
 21 22  1  0  0  0  0
 21 23  2  0  0  0  0
M  CHG  1  18   1
M  END
>  <CHROM.1>
58.84806816,-160.51106394,-97.59249541,170.34463593,5.10227926,-14.93949606
24.11165685,1.80898100,0.43059588,-0.32016939,2.44495565

>  <Name>


>  <RI>
0

>  <Rbt.Current_Directory>
/home/itssahil/PROJECTS/Mol_Feturizer/New_Systems/rnas/1lvj

>  <Rbt.Executable>
rbdock ($Id: //depot/dev/client3/rdock/2013.1/src/exe/rbdock.cxx#4 $)

>  <Rbt.Library>
libRbt.so (2013.1, Build901 2013/11/27)

>  <Rbt.Parameter_File>
/export/apps/rDock/src/rDock_2013.1_src/data/scripts/dock_solv.prm

>  <Rbt.Receptor>
prm/blind_docking_80.prm

>  <SCORE>
-38.1722

>  <SCORE.INTER>
-36.4524

>  <SCORE.INTER.CONST>
1

>  <SCORE.INTER.POLAR>
-1.5

>  <SCORE.INTER.ROT>
5

>  <SCORE.INTER.SOLV>
15.9236

>  <SCORE.INTER.VDW>
-31.5428

>  <SCORE.INTER.norm>
-1.58489

>  <SCORE.INTRA>
-2.10209

>  <SCORE.INTRA.DIHEDRAL>
1.23354

>  <SCORE.INTRA.DIHEDRAL.0>
8.06479

>  <SCORE.INTRA.POLAR>
0

>  <SCORE.INTRA.POLAR.0>
0

>  <SCORE.INTRA.REPUL>
0

>  <SCORE.INTRA.REPUL.0>
0

>  <SCORE.INTRA.SOLV>
1.10719

>  <SCORE.INTRA.SOLV.lig_0>
-29.8054

>  <SCORE.INTRA.VDW>
-3.27246

>  <SCORE.INTRA.VDW.0>
2.61447

>  <SCORE.INTRA.norm>
-0.0913954

>  <SCORE.RESTR>
0.38233

>  <SCORE.RESTR.CAVITY>
0.38233

>  <SCORE.RESTR.norm>
0.016623

>  <SCORE.SYSTEM>
0

>  <SCORE.SYSTEM.CONST>
0

>  <SCORE.SYSTEM.DIHEDRAL>
0

>  <SCORE.SYSTEM.SOLV>
0

>  <SCORE.SYSTEM.norm>
0

>  <SCORE.heavy>
23

>  <SCORE.norm>
-1.65966

>  <RMSD>
21.024

$$$$

 OpenBabel11021811403D
libRbt.so/2013.1/901 2013/11/27
 23 25  0  0  0  0  0  0  0  0999 V2000
  -13.2885   23.5691    0.9330 S   0  0  0  0  0  0  0  0  0  0  0  0
  -16.0523   23.5148    2.0410 N   0  0  0  0  0  0  0  0  0  0  0  0
  -16.6295   25.7928    1.5012 C   0  0  0  0  0  0  0  0  0  0  0  0
  -16.2620   27.0202    0.9342 C   0  0  0  0  0  0  0  0  0  0  0  0
  -15.0004   27.1816    0.3694 C   0  0  0  0  0  0  0  0  0  0  0  0
  -14.0990   26.1227    0.3715 C   0  0  0  0  0  0  0  0  0  0  0  0
  -14.4525   24.8991    0.9345 C   0  0  0  0  0  0  0  0  0  0  0  0
  -15.7202   24.7256    1.5027 C   0  0  0  0  0  0  0  0  0  0  0  0
  -13.7597   23.0817    2.5625 C   0  0  0  0  0  0  0  0  0  0  0  0
  -12.7888   22.6649    3.4777 C   0  0  0  0  0  0  0  0  0  0  0  0
  -13.1668   22.2749    4.7657 C   0  0  0  0  0  0  0  0  0  0  0  0
  -14.5161   22.2991    5.1329 C   0  0  0  0  0  0  0  0  0  0  0  0
  -15.4803   22.7155    4.2142 C   0  0  0  0  0  0  0  0  0  0  0  0
  -15.1083   23.1077    2.9357 C   0  0  0  0  0  0  0  0  0  0  0  0
  -17.4755   23.1694    2.2804 C   0  0  0  0  0  0  0  0  0  0  0  0
  -18.0977   23.6134    3.6462 C   0  0  0  0  0  0  0  0  0  0  0  0
  -18.5996   25.0978    3.6503 C   0  0  0  0  0  0  0  0  0  0  0  0
  -19.9812   25.3597    3.1726 N   0  3  0  0  0  0  0  0  0  0  0  0
  -20.9872   24.6434    3.9987 C   0  0  0  0  0  0  0  0  0  0  0  0
  -20.1121   25.0136    1.7149 C   0  0  0  0  0  0  0  0  0  0  0  0
  -17.2244   28.1736    0.9345 C   0  0  0  0  0  0  0  0  0  0  0  0
  -18.5291   28.1249    1.6921 C   0  0  0  0  0  0  0  0  0  0  0  0
  -16.9225   29.2057    0.3568 O   0  0  0  0  0  0  0  0  0  0  0  0
  1  7  1  0  0  0  0
  1  9  1  0  0  0  0
  2  8  1  0  0  0  0
  2 14  1  0  0  0  0
  2 15  1  0  0  0  0
  3  4  2  0  0  0  0
  3  8  1  0  0  0  0
  4  5  1  0  0  0  0
  4 21  1  0  0  0  0
  5  6  2  0  0  0  0
  6  7  1  0  0  0  0
  7  8  2  0  0  0  0
  9 10  2  0  0  0  0
  9 14  1  0  0  0  0
 10 11  1  0  0  0  0
 11 12  2  0  0  0  0
 12 13  1  0  0  0  0
 13 14  2  0  0  0  0
 15 16  1  0  0  0  0
 16 17  1  0  0  0  0
 17 18  1  0  0  0  0
 18 19  1  0  0  0  0
 18 20  1  0  0  0  0
 21 22  1  0  0  0  0
 21 23  2  0  0  0  0
M  CHG  1  18   1
M  END
>  <CHROM.1>
-86.99702866,8.29482136,83.35205456,86.77238492,-179.72212632,-16.22565614
24.81600059,2.24002424,-0.58159974,0.27615201,-0.63409417

>  <Name>


>  <RI>
0

>  <Rbt.Current_Directory>
/home/itssahil/PROJECTS/Mol_Feturizer/New_Systems/rnas/1lvj

>  <Rbt.Executable>
rbdock ($Id: //depot/dev/client3/rdock/2013.1/src/exe/rbdock.cxx#4 $)

>  <Rbt.Library>
libRbt.so (2013.1, Build901 2013/11/27)

>  <Rbt.Parameter_File>
/export/apps/rDock/src/rDock_2013.1_src/data/scripts/dock_solv.prm

>  <Rbt.Receptor>
prm/blind_docking_60.prm

>  <SCORE>
-29.0768

>  <SCORE.INTER>
-28.5192

>  <SCORE.INTER.CONST>
1

>  <SCORE.INTER.POLAR>
0

>  <SCORE.INTER.ROT>
5

>  <SCORE.INTER.SOLV>
10.449

>  <SCORE.INTER.VDW>
-29.4291

>  <SCORE.INTER.norm>
-1.23997

>  <SCORE.INTRA>
-0.557576

>  <SCORE.INTRA.DIHEDRAL>
-3.22768

>  <SCORE.INTRA.DIHEDRAL.0>
8.06479

>  <SCORE.INTRA.POLAR>
0

>  <SCORE.INTRA.POLAR.0>
0

>  <SCORE.INTRA.REPUL>
0

>  <SCORE.INTRA.REPUL.0>
0

>  <SCORE.INTRA.SOLV>
1.75154

>  <SCORE.INTRA.SOLV.lig_0>
-29.8054

>  <SCORE.INTRA.VDW>
0.180491

>  <SCORE.INTRA.VDW.0>
2.61447

>  <SCORE.INTRA.norm>
-0.0242424

>  <SCORE.RESTR>
0

>  <SCORE.RESTR.CAVITY>
0

>  <SCORE.RESTR.norm>
0

>  <SCORE.SYSTEM>
0

>  <SCORE.SYSTEM.CONST>
0

>  <SCORE.SYSTEM.DIHEDRAL>
0

>  <SCORE.SYSTEM.SOLV>
0

>  <SCORE.SYSTEM.norm>
0

>  <SCORE.heavy>
23

>  <SCORE.norm>
-1.26421

>  <RMSD>
21.032

$$$$

 OpenBabel11021811403D
libRbt.so/2013.1/901 2013/11/27
 23 25  0  0  0  0  0  0  0  0999 V2000
  -12.6868   23.1901    3.9126 S   0  0  0  0  0  0  0  0  0  0  0  0
  -13.6689   24.2748    1.3187 N   0  0  0  0  0  0  0  0  0  0  0  0
  -16.0188   23.9135    1.7207 C   0  0  0  0  0  0  0  0  0  0  0  0
  -17.0330   23.4613    2.5751 C   0  0  0  0  0  0  0  0  0  0  0  0
  -16.7152   22.9391    3.8252 C   0  0  0  0  0  0  0  0  0  0  0  0
  -15.3862   22.8613    4.2268 C   0  0  0  0  0  0  0  0  0  0  0  0
  -14.3697   23.3054    3.3849 C   0  0  0  0  0  0  0  0  0  0  0  0
  -14.6791   23.8349    2.1263 C   0  0  0  0  0  0  0  0  0  0  0  0
  -12.1568   22.7049    2.3006 C   0  0  0  0  0  0  0  0  0  0  0  0
  -11.1777   21.7182    2.1521 C   0  0  0  0  0  0  0  0  0  0  0  0
  -10.7571   21.3404    0.8737 C   0  0  0  0  0  0  0  0  0  0  0  0
  -11.3148   21.9541   -0.2526 C   0  0  0  0  0  0  0  0  0  0  0  0
  -12.2911   22.9387   -0.0973 C   0  0  0  0  0  0  0  0  0  0  0  0
  -12.7145   23.3135    1.1704 C   0  0  0  0  0  0  0  0  0  0  0  0
  -13.9627   25.1865    0.1853 C   0  0  0  0  0  0  0  0  0  0  0  0
  -14.6466   26.5523    0.5268 C   0  0  0  0  0  0  0  0  0  0  0  0
  -16.2092   26.5128    0.4167 C   0  0  0  0  0  0  0  0  0  0  0  0
  -16.9666   27.6809    0.9340 N   0  3  0  0  0  0  0  0  0  0  0  0
  -17.8548   27.2971    2.0615 C   0  0  0  0  0  0  0  0  0  0  0  0
  -17.7335   28.3478   -0.1746 C   0  0  0  0  0  0  0  0  0  0  0  0
  -18.4714   23.5322    2.1478 C   0  0  0  0  0  0  0  0  0  0  0  0
  -19.6022   23.5406    3.1478 C   0  0  0  0  0  0  0  0  0  0  0  0
  -18.7391   23.6469    0.9624 O   0  0  0  0  0  0  0  0  0  0  0  0
  1  7  1  0  0  0  0
  1  9  1  0  0  0  0
  2  8  1  0  0  0  0
  2 14  1  0  0  0  0
  2 15  1  0  0  0  0
  3  4  2  0  0  0  0
  3  8  1  0  0  0  0
  4  5  1  0  0  0  0
  4 21  1  0  0  0  0
  5  6  2  0  0  0  0
  6  7  1  0  0  0  0
  7  8  2  0  0  0  0
  9 10  2  0  0  0  0
  9 14  1  0  0  0  0
 10 11  1  0  0  0  0
 11 12  2  0  0  0  0
 12 13  1  0  0  0  0
 13 14  2  0  0  0  0
 15 16  1  0  0  0  0
 16 17  1  0  0  0  0
 17 18  1  0  0  0  0
 18 19  1  0  0  0  0
 18 20  1  0  0  0  0
 21 22  1  0  0  0  0
 21 23  2  0  0  0  0
M  CHG  1  18   1
M  END
>  <CHROM.1>
58.63244692,-157.62132241,-93.79002451,170.06797665,2.56187699,-14.97566730
24.13183892,1.80742968,0.43268856,-0.31217040,2.46263937

>  <Name>


>  <RI>
0

>  <Rbt.Current_Directory>
/home/itssahil/PROJECTS/Mol_Feturizer/New_Systems/rnas/1lvj

>  <Rbt.Executable>
rbdock ($Id: //depot/dev/client3/rdock/2013.1/src/exe/rbdock.cxx#4 $)

>  <Rbt.Library>
libRbt.so (2013.1, Build901 2013/11/27)

>  <Rbt.Parameter_File>
/export/apps/rDock/src/rDock_2013.1_src/data/scripts/dock_solv.prm

>  <Rbt.Receptor>
prm/blind_docking_80.prm

>  <SCORE>
-37.9181

>  <SCORE.INTER>
-36.3492

>  <SCORE.INTER.CONST>
1

>  <SCORE.INTER.POLAR>
-1.5

>  <SCORE.INTER.ROT>
5

>  <SCORE.INTER.SOLV>
16.1081

>  <SCORE.INTER.VDW>
-31.5355

>  <SCORE.INTER.norm>
-1.5804

>  <SCORE.INTRA>
-1.90222

>  <SCORE.INTRA.DIHEDRAL>
1.15355

>  <SCORE.INTRA.DIHEDRAL.0>
8.06479

>  <SCORE.INTRA.POLAR>
0

>  <SCORE.INTRA.POLAR.0>
0

>  <SCORE.INTRA.REPUL>
0

>  <SCORE.INTRA.REPUL.0>
0

>  <SCORE.INTRA.SOLV>
1.12227

>  <SCORE.INTRA.SOLV.lig_0>
-29.8054

>  <SCORE.INTRA.VDW>
-3.04013

>  <SCORE.INTRA.VDW.0>
2.61447

>  <SCORE.INTRA.norm>
-0.0827053

>  <SCORE.RESTR>
0.333354

>  <SCORE.RESTR.CAVITY>
0.333354

>  <SCORE.RESTR.norm>
0.0144937

>  <SCORE.SYSTEM>
0

>  <SCORE.SYSTEM.CONST>
0

>  <SCORE.SYSTEM.DIHEDRAL>
0

>  <SCORE.SYSTEM.SOLV>
0

>  <SCORE.SYSTEM.norm>
0

>  <SCORE.heavy>
23

>  <SCORE.norm>
-1.64861

>  <RMSD>
21.032

$$$$

 OpenBabel11021811403D
libRbt.so/2013.1/901 2013/11/27
 23 25  0  0  0  0  0  0  0  0999 V2000
  -12.3680   22.6070    0.9946 S   0  0  0  0  0  0  0  0  0  0  0  0
  -14.8519   22.9301    2.6056 N   0  0  0  0  0  0  0  0  0  0  0  0
  -15.7368   24.8239    1.4036 C   0  0  0  0  0  0  0  0  0  0  0  0
  -15.6033   25.7510    0.3616 C   0  0  0  0  0  0  0  0  0  0  0  0
  -14.4938   25.7076   -0.4772 C   0  0  0  0  0  0  0  0  0  0  0  0
  -13.5114   24.7437   -0.2785 C   0  0  0  0  0  0  0  0  0  0  0  0
  -13.6323   23.8188    0.7555 C   0  0  0  0  0  0  0  0  0  0  0  0
  -14.7460   23.8522    1.6033 C   0  0  0  0  0  0  0  0  0  0  0  0
  -12.4713   22.7654    2.7494 C   0  0  0  0  0  0  0  0  0  0  0  0
  -11.3083   22.7427    3.5248 C   0  0  0  0  0  0  0  0  0  0  0  0
  -11.3949   22.8634    4.9147 C   0  0  0  0  0  0  0  0  0  0  0  0
  -12.6456   23.0023    5.5252 C   0  0  0  0  0  0  0  0  0  0  0  0
  -13.8025   23.0234    4.7454 C   0  0  0  0  0  0  0  0  0  0  0  0
  -13.7202   22.9082    3.3645 C   0  0  0  0  0  0  0  0  0  0  0  0
  -16.1637   22.6773    3.2516 C   0  0  0  0  0  0  0  0  0  0  0  0
  -17.1270   23.9003    3.4135 C   0  0  0  0  0  0  0  0  0  0  0  0
  -18.2651   23.9450    2.3374 C   0  0  0  0  0  0  0  0  0  0  0  0
  -19.4462   24.8007    2.6182 N   0  3  0  0  0  0  0  0  0  0  0  0
  -20.4106   24.1178    3.5189 C   0  0  0  0  0  0  0  0  0  0  0  0
  -20.0989   25.2395    1.3363 C   0  0  0  0  0  0  0  0  0  0  0  0
  -16.6540   26.8021    0.1434 C   0  0  0  0  0  0  0  0  0  0  0  0
  -16.3273   28.2757    0.1700 C   0  0  0  0  0  0  0  0  0  0  0  0
  -17.7956   26.4616   -0.1230 O   0  0  0  0  0  0  0  0  0  0  0  0
  1  7  1  0  0  0  0
  1  9  1  0  0  0  0
  2  8  1  0  0  0  0
  2 14  1  0  0  0  0
  2 15  1  0  0  0  0
  3  4  2  0  0  0  0
  3  8  1  0  0  0  0
  4  5  1  0  0  0  0
  4 21  1  0  0  0  0
  5  6  2  0  0  0  0
  6  7  1  0  0  0  0
  7  8  2  0  0  0  0
  9 10  2  0  0  0  0
  9 14  1  0  0  0  0
 10 11  1  0  0  0  0
 11 12  2  0  0  0  0
 12 13  1  0  0  0  0
 13 14  2  0  0  0  0
 15 16  1  0  0  0  0
 16 17  1  0  0  0  0
 17 18  1  0  0  0  0
 18 19  1  0  0  0  0
 18 20  1  0  0  0  0
 21 22  1  0  0  0  0
 21 23  2  0  0  0  0
M  CHG  1  18   1
M  END
>  <CHROM.1>
-34.60538222,121.83863355,101.05939425,162.35612709,38.89808300,-15.30210494
24.19896845,2.03947120,-0.43157297,0.20613688,-0.96830818

>  <Name>


>  <RI>
0

>  <Rbt.Current_Directory>
/home/itssahil/PROJECTS/Mol_Feturizer/New_Systems/rnas/1lvj

>  <Rbt.Executable>
rbdock ($Id: //depot/dev/client3/rdock/2013.1/src/exe/rbdock.cxx#4 $)

>  <Rbt.Library>
libRbt.so (2013.1, Build901 2013/11/27)

>  <Rbt.Parameter_File>
/export/apps/rDock/src/rDock_2013.1_src/data/scripts/dock_solv.prm

>  <Rbt.Receptor>
prm/blind_docking_40.prm

>  <SCORE>
-15.0139

>  <SCORE.INTER>
-23.2982

>  <SCORE.INTER.CONST>
1

>  <SCORE.INTER.POLAR>
0

>  <SCORE.INTER.ROT>
5

>  <SCORE.INTER.SOLV>
9.64385

>  <SCORE.INTER.VDW>
-25.6801

>  <SCORE.INTER.norm>
-1.01296

>  <SCORE.INTRA>
8.2624

>  <SCORE.INTRA.DIHEDRAL>
9.52719

>  <SCORE.INTRA.DIHEDRAL.0>
8.06479

>  <SCORE.INTRA.POLAR>
0

>  <SCORE.INTRA.POLAR.0>
0

>  <SCORE.INTRA.REPUL>
0

>  <SCORE.INTRA.REPUL.0>
0

>  <SCORE.INTRA.SOLV>
1.94804

>  <SCORE.INTRA.SOLV.lig_0>
-29.8054

>  <SCORE.INTRA.VDW>
2.52479

>  <SCORE.INTRA.VDW.0>
2.61447

>  <SCORE.INTRA.norm>
0.359235

>  <SCORE.RESTR>
0.0218796

>  <SCORE.RESTR.CAVITY>
0.0218796

>  <SCORE.RESTR.norm>
0.000951286

>  <SCORE.SYSTEM>
0

>  <SCORE.SYSTEM.CONST>
0

>  <SCORE.SYSTEM.DIHEDRAL>
0

>  <SCORE.SYSTEM.SOLV>
0

>  <SCORE.SYSTEM.norm>
0

>  <SCORE.heavy>
23

>  <SCORE.norm>
-0.652778

>  <RMSD>
21.034

$$$$

 OpenBabel11021811403D
libRbt.so/2013.1/901 2013/11/27
 23 25  0  0  0  0  0  0  0  0999 V2000
  -12.7550   23.2009    3.9287 S   0  0  0  0  0  0  0  0  0  0  0  0
  -13.7144   24.2812    1.3245 N   0  0  0  0  0  0  0  0  0  0  0  0
  -16.0683   23.9275    1.7097 C   0  0  0  0  0  0  0  0  0  0  0  0
  -17.0902   23.4805    2.5576 C   0  0  0  0  0  0  0  0  0  0  0  0
  -16.7833   22.9609    3.8116 C   0  0  0  0  0  0  0  0  0  0  0  0
  -15.4575   22.8805    4.2235 C   0  0  0  0  0  0  0  0  0  0  0  0
  -14.4335   23.3194    3.3880 C   0  0  0  0  0  0  0  0  0  0  0  0
  -14.7319   23.8463    2.1257 C   0  0  0  0  0  0  0  0  0  0  0  0
  -12.2142   22.7097    2.3221 C   0  0  0  0  0  0  0  0  0  0  0  0
  -11.2367   21.7200    2.1838 C   0  0  0  0  0  0  0  0  0  0  0  0
  -10.8076   21.3374    0.9097 C   0  0  0  0  0  0  0  0  0  0  0  0
  -11.3550   21.9495   -0.2226 C   0  0  0  0  0  0  0  0  0  0  0  0
  -12.3297   22.9373   -0.0773 C   0  0  0  0  0  0  0  0  0  0  0  0
  -12.7616   23.3168    1.1861 C   0  0  0  0  0  0  0  0  0  0  0  0
  -13.9971   25.1905    0.1864 C   0  0  0  0  0  0  0  0  0  0  0  0
  -14.7158   26.5418    0.5140 C   0  0  0  0  0  0  0  0  0  0  0  0
  -16.2696   26.4854    0.3196 C   0  0  0  0  0  0  0  0  0  0  0  0
  -17.0744   27.6061    0.8694 N   0  3  0  0  0  0  0  0  0  0  0  0
  -18.4273   27.1524    1.2831 C   0  0  0  0  0  0  0  0  0  0  0  0
  -17.1464   28.7397   -0.1165 C   0  0  0  0  0  0  0  0  0  0  0  0
  -18.5251   23.5543    2.1194 C   0  0  0  0  0  0  0  0  0  0  0  0
  -19.6614   23.6102    3.1115 C   0  0  0  0  0  0  0  0  0  0  0  0
  -18.7845   23.6319    0.9291 O   0  0  0  0  0  0  0  0  0  0  0  0
  1  7  1  0  0  0  0
  1  9  1  0  0  0  0
  2  8  1  0  0  0  0
  2 14  1  0  0  0  0
  2 15  1  0  0  0  0
  3  4  2  0  0  0  0
  3  8  1  0  0  0  0
  4  5  1  0  0  0  0
  4 21  1  0  0  0  0
  5  6  2  0  0  0  0
  6  7  1  0  0  0  0
  7  8  2  0  0  0  0
  9 10  2  0  0  0  0
  9 14  1  0  0  0  0
 10 11  1  0  0  0  0
 11 12  2  0  0  0  0
 12 13  1  0  0  0  0
 13 14  2  0  0  0  0
 15 16  1  0  0  0  0
 16 17  1  0  0  0  0
 17 18  1  0  0  0  0
 18 19  1  0  0  0  0
 18 20  1  0  0  0  0
 21 22  1  0  0  0  0
 21 23  2  0  0  0  0
M  CHG  1  18   1
M  END
>  <CHROM.1>
56.96969827,-155.75751038,-95.65059888,167.39105856,-29.43201585,-15.02824292
24.14576898,1.77007006,0.45742816,-0.29244414,2.47063052

>  <Name>


>  <RI>
0

>  <Rbt.Current_Directory>
/home/itssahil/PROJECTS/Mol_Feturizer/New_Systems/rnas/1lvj

>  <Rbt.Executable>
rbdock ($Id: //depot/dev/client3/rdock/2013.1/src/exe/rbdock.cxx#4 $)

>  <Rbt.Library>
libRbt.so (2013.1, Build901 2013/11/27)

>  <Rbt.Parameter_File>
/export/apps/rDock/src/rDock_2013.1_src/data/scripts/dock_solv.prm

>  <Rbt.Receptor>
prm/blind_docking_40.prm

>  <SCORE>
-35.8846

>  <SCORE.INTER>
-34.5138

>  <SCORE.INTER.CONST>
1

>  <SCORE.INTER.POLAR>
-1.39195

>  <SCORE.INTER.ROT>
5

>  <SCORE.INTER.SOLV>
15.9844

>  <SCORE.INTER.VDW>
-30.6308

>  <SCORE.INTER.norm>
-1.5006

>  <SCORE.INTRA>
-2.28188

>  <SCORE.INTRA.DIHEDRAL>
-0.00627703

>  <SCORE.INTRA.DIHEDRAL.0>
8.06479

>  <SCORE.INTRA.POLAR>
0

>  <SCORE.INTRA.POLAR.0>
0

>  <SCORE.INTRA.REPUL>
0

>  <SCORE.INTRA.REPUL.0>
0

>  <SCORE.INTRA.SOLV>
1.19505

>  <SCORE.INTRA.SOLV.lig_0>
-29.8054

>  <SCORE.INTRA.VDW>
-2.87627

>  <SCORE.INTRA.VDW.0>
2.61447

>  <SCORE.INTRA.norm>
-0.0992123

>  <SCORE.RESTR>
0.911049

>  <SCORE.RESTR.CAVITY>
0.911049

>  <SCORE.RESTR.norm>
0.0396108

>  <SCORE.SYSTEM>
0

>  <SCORE.SYSTEM.CONST>
0

>  <SCORE.SYSTEM.DIHEDRAL>
0

>  <SCORE.SYSTEM.SOLV>
0

>  <SCORE.SYSTEM.norm>
0

>  <SCORE.heavy>
23

>  <SCORE.norm>
-1.5602

>  <RMSD>
21.037

$$$$

 OpenBabel11021811403D
libRbt.so/2013.1/901 2013/11/27
 23 25  0  0  0  0  0  0  0  0999 V2000
  -12.5292   23.6208    1.5461 S   0  0  0  0  0  0  0  0  0  0  0  0
  -15.4627   23.3678    1.9931 N   0  0  0  0  0  0  0  0  0  0  0  0
  -16.0583   25.5996    1.3014 C   0  0  0  0  0  0  0  0  0  0  0  0
  -15.6572   26.8509    0.8152 C   0  0  0  0  0  0  0  0  0  0  0  0
  -14.3142   27.1027    0.5517 C   0  0  0  0  0  0  0  0  0  0  0  0
  -13.3656   26.1109    0.7759 C   0  0  0  0  0  0  0  0  0  0  0  0
  -13.7525   24.8644    1.2613 C   0  0  0  0  0  0  0  0  0  0  0  0
  -15.1014   24.6000    1.5270 C   0  0  0  0  0  0  0  0  0  0  0  0
  -13.3264   23.0987    3.0316 C   0  0  0  0  0  0  0  0  0  0  0  0
  -12.5645   22.7509    4.1509 C   0  0  0  0  0  0  0  0  0  0  0  0
  -13.1995   22.3331    5.3239 C   0  0  0  0  0  0  0  0  0  0  0  0
  -14.5955   22.2604    5.3722 C   0  0  0  0  0  0  0  0  0  0  0  0
  -15.3499   22.6083    4.2511 C   0  0  0  0  0  0  0  0  0  0  0  0
  -14.7230   23.0279    3.0859 C   0  0  0  0  0  0  0  0  0  0  0  0
  -16.8752   22.9214    1.9055 C   0  0  0  0  0  0  0  0  0  0  0  0
  -17.8778   23.5163    2.9500 C   0  0  0  0  0  0  0  0  0  0  0  0
  -19.3393   23.6564    2.4027 C   0  0  0  0  0  0  0  0  0  0  0  0
  -20.2800   24.5194    3.1617 N   0  3  0  0  0  0  0  0  0  0  0  0
  -19.7639   25.9070    3.2877 C   0  0  0  0  0  0  0  0  0  0  0  0
  -20.5850   23.9165    4.5054 C   0  0  0  0  0  0  0  0  0  0  0  0
  -16.6722   27.9326    0.5780 C   0  0  0  0  0  0  0  0  0  0  0  0
  -18.1176   27.7745    0.9834 C   0  0  0  0  0  0  0  0  0  0  0  0
  -16.3130   28.9962    0.0985 O   0  0  0  0  0  0  0  0  0  0  0  0
  1  7  1  0  0  0  0
  1  9  1  0  0  0  0
  2  8  1  0  0  0  0
  2 14  1  0  0  0  0
  2 15  1  0  0  0  0
  3  4  2  0  0  0  0
  3  8  1  0  0  0  0
  4  5  1  0  0  0  0
  4 21  1  0  0  0  0
  5  6  2  0  0  0  0
  6  7  1  0  0  0  0
  7  8  2  0  0  0  0
  9 10  2  0  0  0  0
  9 14  1  0  0  0  0
 10 11  1  0  0  0  0
 11 12  2  0  0  0  0
 12 13  1  0  0  0  0
 13 14  2  0  0  0  0
 15 16  1  0  0  0  0
 16 17  1  0  0  0  0
 17 18  1  0  0  0  0
 18 19  1  0  0  0  0
 18 20  1  0  0  0  0
 21 22  1  0  0  0  0
 21 23  2  0  0  0  0
M  CHG  1  18   1
M  END
>  <CHROM.1>
-76.84148822,6.57242318,149.02241737,-164.44347959,177.70758282,-15.84573890
24.64350135,2.34035180,-0.41936639,0.17187419,-0.64860053

>  <Name>


>  <RI>
0

>  <Rbt.Current_Directory>
/home/itssahil/PROJECTS/Mol_Feturizer/New_Systems/rnas/1lvj

>  <Rbt.Executable>
rbdock ($Id: //depot/dev/client3/rdock/2013.1/src/exe/rbdock.cxx#4 $)

>  <Rbt.Library>
libRbt.so (2013.1, Build901 2013/11/27)

>  <Rbt.Parameter_File>
/export/apps/rDock/src/rDock_2013.1_src/data/scripts/dock_solv.prm

>  <Rbt.Receptor>
prm/blind_docking_40.prm

>  <SCORE>
-25.305

>  <SCORE.INTER>
-23.4781

>  <SCORE.INTER.CONST>
1

>  <SCORE.INTER.POLAR>
0

>  <SCORE.INTER.ROT>
5

>  <SCORE.INTER.SOLV>
18.7256

>  <SCORE.INTER.VDW>
-28.8272

>  <SCORE.INTER.norm>
-1.02078

>  <SCORE.INTRA>
-3.05812

>  <SCORE.INTRA.DIHEDRAL>
-3.892

>  <SCORE.INTRA.DIHEDRAL.0>
8.06479

>  <SCORE.INTRA.POLAR>
0

>  <SCORE.INTRA.POLAR.0>
0

>  <SCORE.INTRA.REPUL>
0

>  <SCORE.INTRA.REPUL.0>
0

>  <SCORE.INTRA.SOLV>
-0.581494

>  <SCORE.INTRA.SOLV.lig_0>
-29.8054

>  <SCORE.INTRA.VDW>
-0.821374

>  <SCORE.INTRA.VDW.0>
2.61447

>  <SCORE.INTRA.norm>
-0.132962

>  <SCORE.RESTR>
1.23117

>  <SCORE.RESTR.CAVITY>
1.23117

>  <SCORE.RESTR.norm>
0.0535291

>  <SCORE.SYSTEM>
0

>  <SCORE.SYSTEM.CONST>
0

>  <SCORE.SYSTEM.DIHEDRAL>
0

>  <SCORE.SYSTEM.SOLV>
0

>  <SCORE.SYSTEM.norm>
0

>  <SCORE.heavy>
23

>  <SCORE.norm>
-1.10022

>  <RMSD>
21.038

$$$$

 OpenBabel11021811403D
libRbt.so/2013.1/901 2013/11/27
 23 25  0  0  0  0  0  0  0  0999 V2000
  -12.4229   22.3846    0.8825 S   0  0  0  0  0  0  0  0  0  0  0  0
  -14.5315   23.0385    2.8813 N   0  0  0  0  0  0  0  0  0  0  0  0
  -15.3537   25.0303    1.7993 C   0  0  0  0  0  0  0  0  0  0  0  0
  -15.2802   25.9292    0.7270 C   0  0  0  0  0  0  0  0  0  0  0  0
  -14.3455   25.7368   -0.2858 C   0  0  0  0  0  0  0  0  0  0  0  0
  -13.4779   24.6514   -0.2320 C   0  0  0  0  0  0  0  0  0  0  0  0
  -13.5403   23.7531    0.8302 C   0  0  0  0  0  0  0  0  0  0  0  0
  -14.4788   23.9361    1.8529 C   0  0  0  0  0  0  0  0  0  0  0  0
  -12.2035   22.5592    2.6250 C   0  0  0  0  0  0  0  0  0  0  0  0
  -10.9383   22.3839    3.1931 C   0  0  0  0  0  0  0  0  0  0  0  0
  -10.7698   22.5181    4.5742 C   0  0  0  0  0  0  0  0  0  0  0  0
  -11.8689   22.8233    5.3836 C   0  0  0  0  0  0  0  0  0  0  0  0
  -13.1292   22.9962    4.8100 C   0  0  0  0  0  0  0  0  0  0  0  0
  -13.2996   22.8681    3.4385 C   0  0  0  0  0  0  0  0  0  0  0  0
  -15.7354   22.9636    3.7457 C   0  0  0  0  0  0  0  0  0  0  0  0
  -17.1278   23.0949    3.0430 C   0  0  0  0  0  0  0  0  0  0  0  0
  -17.8446   24.4588    3.3279 C   0  0  0  0  0  0  0  0  0  0  0  0
  -19.3082   24.5323    3.0859 N   0  3  0  0  0  0  0  0  0  0  0  0
  -20.0492   23.5653    3.9364 C   0  0  0  0  0  0  0  0  0  0  0  0
  -19.6140   24.3361    1.6265 C   0  0  0  0  0  0  0  0  0  0  0  0
  -16.2063   27.1101    0.6633 C   0  0  0  0  0  0  0  0  0  0  0  0
  -17.4823   27.1689    1.4677 C   0  0  0  0  0  0  0  0  0  0  0  0
  -15.8952   28.0795   -0.0102 O   0  0  0  0  0  0  0  0  0  0  0  0
  1  7  1  0  0  0  0
  1  9  1  0  0  0  0
  2  8  1  0  0  0  0
  2 14  1  0  0  0  0
  2 15  1  0  0  0  0
  3  4  2  0  0  0  0
  3  8  1  0  0  0  0
  4  5  1  0  0  0  0
  4 21  1  0  0  0  0
  5  6  2  0  0  0  0
  6  7  1  0  0  0  0
  7  8  2  0  0  0  0
  9 10  2  0  0  0  0
  9 14  1  0  0  0  0
 10 11  1  0  0  0  0
 11 12  2  0  0  0  0
 12 13  1  0  0  0  0
 13 14  2  0  0  0  0
 15 16  1  0  0  0  0
 16 17  1  0  0  0  0
 17 18  1  0  0  0  0
 18 19  1  0  0  0  0
 18 20  1  0  0  0  0
 21 22  1  0  0  0  0
 21 23  2  0  0  0  0
M  CHG  1  18   1
M  END
>  <CHROM.1>
40.13306451,-18.65582901,-107.94539632,-161.18622360,-179.39063403,-14.98802071
24.10988417,2.24424869,-0.37428691,0.22415452,-0.86393952

>  <Name>


>  <RI>
0

>  <Rbt.Current_Directory>
/home/itssahil/PROJECTS/Mol_Feturizer/New_Systems/rnas/1lvj

>  <Rbt.Executable>
rbdock ($Id: //depot/dev/client3/rdock/2013.1/src/exe/rbdock.cxx#4 $)

>  <Rbt.Library>
libRbt.so (2013.1, Build901 2013/11/27)

>  <Rbt.Parameter_File>
/export/apps/rDock/src/rDock_2013.1_src/data/scripts/dock_solv.prm

>  <Rbt.Receptor>
prm/blind_docking_80.prm

>  <SCORE>
-26.8036

>  <SCORE.INTER>
-27.2474

>  <SCORE.INTER.CONST>
1

>  <SCORE.INTER.POLAR>
0

>  <SCORE.INTER.ROT>
5

>  <SCORE.INTER.SOLV>
9.97009

>  <SCORE.INTER.VDW>
-28.4216

>  <SCORE.INTER.norm>
-1.18467

>  <SCORE.INTRA>
0.288155

>  <SCORE.INTRA.DIHEDRAL>
0.0168661

>  <SCORE.INTRA.DIHEDRAL.0>
8.06479

>  <SCORE.INTRA.POLAR>
0

>  <SCORE.INTRA.POLAR.0>
0

>  <SCORE.INTRA.REPUL>
0

>  <SCORE.INTRA.REPUL.0>
0

>  <SCORE.INTRA.SOLV>
0.817577

>  <SCORE.INTRA.SOLV.lig_0>
-29.8054

>  <SCORE.INTRA.VDW>
-0.129067

>  <SCORE.INTRA.VDW.0>
2.61447

>  <SCORE.INTRA.norm>
0.0125285

>  <SCORE.RESTR>
0.155591

>  <SCORE.RESTR.CAVITY>
0.155591

>  <SCORE.RESTR.norm>
0.00676485

>  <SCORE.SYSTEM>
0

>  <SCORE.SYSTEM.CONST>
0

>  <SCORE.SYSTEM.DIHEDRAL>
0

>  <SCORE.SYSTEM.SOLV>
0

>  <SCORE.SYSTEM.norm>
0

>  <SCORE.heavy>
23

>  <SCORE.norm>
-1.16537

>  <RMSD>
21.038

$$$$

 OpenBabel11021811403D
libRbt.so/2013.1/901 2013/11/27
 23 25  0  0  0  0  0  0  0  0999 V2000
  -12.8656   23.3771    1.2506 S   0  0  0  0  0  0  0  0  0  0  0  0
  -15.7281   23.3674    2.0723 N   0  0  0  0  0  0  0  0  0  0  0  0
  -16.2354   25.6252    1.3946 C   0  0  0  0  0  0  0  0  0  0  0  0
  -15.8057   26.8306    0.8241 C   0  0  0  0  0  0  0  0  0  0  0  0
  -14.4924   26.9693    0.3855 C   0  0  0  0  0  0  0  0  0  0  0  0
  -13.6014   25.9099    0.5176 C   0  0  0  0  0  0  0  0  0  0  0  0
  -14.0168   24.7081    1.0854 C   0  0  0  0  0  0  0  0  0  0  0  0
  -15.3366   24.5573    1.5274 C   0  0  0  0  0  0  0  0  0  0  0  0
  -13.5029   22.9501    2.8400 C   0  0  0  0  0  0  0  0  0  0  0  0
  -12.6323   22.5654    3.8640 C   0  0  0  0  0  0  0  0  0  0  0  0
  -13.1415   22.2232    5.1199 C   0  0  0  0  0  0  0  0  0  0  0  0
  -14.5211   22.2628    5.3465 C   0  0  0  0  0  0  0  0  0  0  0  0
  -15.3845   22.6469    4.3199 C   0  0  0  0  0  0  0  0  0  0  0  0
  -14.8823   22.9918    3.0726 C   0  0  0  0  0  0  0  0  0  0  0  0
  -17.1700   23.0331    2.1776 C   0  0  0  0  0  0  0  0  0  0  0  0
  -17.9662   23.6729    3.3637 C   0  0  0  0  0  0  0  0  0  0  0  0
  -19.5207   23.6149    3.1751 C   0  0  0  0  0  0  0  0  0  0  0  0
  -20.1642   24.7152    2.4128 N   0  3  0  0  0  0  0  0  0  0  0  0
  -19.6436   24.7909    1.0233 C   0  0  0  0  0  0  0  0  0  0  0  0
  -20.0064   26.0239    3.1368 C   0  0  0  0  0  0  0  0  0  0  0  0
  -16.7571   27.9846    0.6847 C   0  0  0  0  0  0  0  0  0  0  0  0
  -18.0905   28.0105    1.3919 C   0  0  0  0  0  0  0  0  0  0  0  0
  -16.4240   28.9597    0.0303 O   0  0  0  0  0  0  0  0  0  0  0  0
  1  7  1  0  0  0  0
  1  9  1  0  0  0  0
  2  8  1  0  0  0  0
  2 14  1  0  0  0  0
  2 15  1  0  0  0  0
  3  4  2  0  0  0  0
  3  8  1  0  0  0  0
  4  5  1  0  0  0  0
  4 21  1  0  0  0  0
  5  6  2  0  0  0  0
  6  7  1  0  0  0  0
  7  8  2  0  0  0  0
  9 10  2  0  0  0  0
  9 14  1  0  0  0  0
 10 11  1  0  0  0  0
 11 12  2  0  0  0  0
 12 13  1  0  0  0  0
 13 14  2  0  0  0  0
 15 16  1  0  0  0  0
 16 17  1  0  0  0  0
 17 18  1  0  0  0  0
 18 19  1  0  0  0  0
 18 20  1  0  0  0  0
 21 22  1  0  0  0  0
 21 23  2  0  0  0  0
M  CHG  1  18   1
M  END
>  <CHROM.1>
-79.71681659,12.99958406,163.35748790,-86.42286207,-179.60729982,-15.94283192
24.65700718,2.15219892,-0.66024309,0.16001577,-0.63405131

>  <Name>


>  <RI>
0

>  <Rbt.Current_Directory>
/home/itssahil/PROJECTS/Mol_Feturizer/New_Systems/rnas/1lvj

>  <Rbt.Executable>
rbdock ($Id: //depot/dev/client3/rdock/2013.1/src/exe/rbdock.cxx#4 $)

>  <Rbt.Library>
libRbt.so (2013.1, Build901 2013/11/27)

>  <Rbt.Parameter_File>
/export/apps/rDock/src/rDock_2013.1_src/data/scripts/dock_solv.prm

>  <Rbt.Receptor>
prm/blind_docking_80.prm

>  <SCORE>
-27.1804

>  <SCORE.INTER>
-25.2892

>  <SCORE.INTER.CONST>
1

>  <SCORE.INTER.POLAR>
0

>  <SCORE.INTER.ROT>
5

>  <SCORE.INTER.SOLV>
18.9478

>  <SCORE.INTER.VDW>
-30.1088

>  <SCORE.INTER.norm>
-1.09953

>  <SCORE.INTRA>
-2.63069

>  <SCORE.INTRA.DIHEDRAL>
-4.00702

>  <SCORE.INTRA.DIHEDRAL.0>
8.06479

>  <SCORE.INTRA.POLAR>
0

>  <SCORE.INTRA.POLAR.0>
0

>  <SCORE.INTRA.REPUL>
0

>  <SCORE.INTRA.REPUL.0>
0

>  <SCORE.INTRA.SOLV>
-0.432847

>  <SCORE.INTRA.SOLV.lig_0>
-29.8054

>  <SCORE.INTRA.VDW>
-0.410754

>  <SCORE.INTRA.VDW.0>
2.61447

>  <SCORE.INTRA.norm>
-0.114378

>  <SCORE.RESTR>
0.739549

>  <SCORE.RESTR.CAVITY>
0.739549

>  <SCORE.RESTR.norm>
0.0321543

>  <SCORE.SYSTEM>
0

>  <SCORE.SYSTEM.CONST>
0

>  <SCORE.SYSTEM.DIHEDRAL>
0

>  <SCORE.SYSTEM.SOLV>
0

>  <SCORE.SYSTEM.norm>
0

>  <SCORE.heavy>
23

>  <SCORE.norm>
-1.18176

>  <RMSD>
21.042

$$$$

 OpenBabel11021811403D
libRbt.so/2013.1/901 2013/11/27
 23 25  0  0  0  0  0  0  0  0999 V2000
  -16.0717   26.5500    0.8888 S   0  0  0  0  0  0  0  0  0  0  0  0
  -15.9746   24.0171    2.4523 N   0  0  0  0  0  0  0  0  0  0  0  0
  -14.1319   23.0109    1.2665 C   0  0  0  0  0  0  0  0  0  0  0  0
  -13.1669   23.0985    0.2545 C   0  0  0  0  0  0  0  0  0  0  0  0
  -13.0926   24.2340   -0.5465 C   0  0  0  0  0  0  0  0  0  0  0  0
  -13.9818   25.2841   -0.3455 C   0  0  0  0  0  0  0  0  0  0  0  0
  -14.9467   25.2068    0.6557 C   0  0  0  0  0  0  0  0  0  0  0  0
  -15.0280   24.0700    1.4688 C   0  0  0  0  0  0  0  0  0  0  0  0
  -17.4152   25.4451    1.1873 C   0  0  0  0  0  0  0  0  0  0  0  0
  -18.6826   25.7268    0.6689 C   0  0  0  0  0  0  0  0  0  0  0  0
  -19.7452   24.8517    0.9118 C   0  0  0  0  0  0  0  0  0  0  0  0
  -19.5375   23.6991    1.6764 C   0  0  0  0  0  0  0  0  0  0  0  0
  -18.2701   23.4244    2.1915 C   0  0  0  0  0  0  0  0  0  0  0  0
  -17.2114   24.2887    1.9487 C   0  0  0  0  0  0  0  0  0  0  0  0
  -15.8418   23.0436    3.5644 C   0  0  0  0  0  0  0  0  0  0  0  0
  -14.5671   23.1588    4.4654 C   0  0  0  0  0  0  0  0  0  0  0  0
  -13.3332   22.3728    3.9044 C   0  0  0  0  0  0  0  0  0  0  0  0
  -11.9880   22.9719    4.0980 N   0  3  0  0  0  0  0  0  0  0  0  0
  -11.5490   23.7235    2.8939 C   0  0  0  0  0  0  0  0  0  0  0  0
  -10.9897   21.9169    4.4884 C   0  0  0  0  0  0  0  0  0  0  0  0
  -12.2072   21.9665    0.0225 C   0  0  0  0  0  0  0  0  0  0  0  0
  -12.1984   20.7351    0.8956 C   0  0  0  0  0  0  0  0  0  0  0  0
  -11.4498   22.0099   -0.9339 O   0  0  0  0  0  0  0  0  0  0  0  0
  1  7  1  0  0  0  0
  1  9  1  0  0  0  0
  2  8  1  0  0  0  0
  2 14  1  0  0  0  0
  2 15  1  0  0  0  0
  3  4  2  0  0  0  0
  3  8  1  0  0  0  0
  4  5  1  0  0  0  0
  4 21  1  0  0  0  0
  5  6  2  0  0  0  0
  6  7  1  0  0  0  0
  7  8  2  0  0  0  0
  9 10  2  0  0  0  0
  9 14  1  0  0  0  0
 10 11  1  0  0  0  0
 11 12  2  0  0  0  0
 12 13  1  0  0  0  0
 13 14  2  0  0  0  0
 15 16  1  0  0  0  0
 16 17  1  0  0  0  0
 17 18  1  0  0  0  0
 18 19  1  0  0  0  0
 18 20  1  0  0  0  0
 21 22  1  0  0  0  0
 21 23  2  0  0  0  0
M  CHG  1  18   1
M  END
>  <CHROM.1>
60.21827469,-2.88092215,-86.46102107,144.01789806,23.06218245,-14.80377322
23.79450739,1.66246296,-2.88513441,-0.35446368,1.92109770

>  <Name>


>  <RI>
0

>  <Rbt.Current_Directory>
/home/itssahil/PROJECTS/Mol_Feturizer/New_Systems/rnas/1lvj

>  <Rbt.Executable>
rbdock ($Id: //depot/dev/client3/rdock/2013.1/src/exe/rbdock.cxx#4 $)

>  <Rbt.Library>
libRbt.so (2013.1, Build901 2013/11/27)

>  <Rbt.Parameter_File>
/export/apps/rDock/src/rDock_2013.1_src/data/scripts/dock_solv.prm

>  <Rbt.Receptor>
prm/blind_docking_80.prm

>  <SCORE>
-25.6315

>  <SCORE.INTER>
-24.9041

>  <SCORE.INTER.CONST>
1

>  <SCORE.INTER.POLAR>
0

>  <SCORE.INTER.ROT>
5

>  <SCORE.INTER.SOLV>
15.0448

>  <SCORE.INTER.VDW>
-28.551

>  <SCORE.INTER.norm>
-1.08278

>  <SCORE.INTRA>
-1.13951

>  <SCORE.INTRA.DIHEDRAL>
0.84513

>  <SCORE.INTRA.DIHEDRAL.0>
8.06479

>  <SCORE.INTRA.POLAR>
0

>  <SCORE.INTRA.POLAR.0>
0

>  <SCORE.INTRA.REPUL>
0

>  <SCORE.INTRA.REPUL.0>
0

>  <SCORE.INTRA.SOLV>
1.14125

>  <SCORE.INTRA.SOLV.lig_0>
-29.8054

>  <SCORE.INTRA.VDW>
-2.1327

>  <SCORE.INTRA.VDW.0>
2.61447

>  <SCORE.INTRA.norm>
-0.049544

>  <SCORE.RESTR>
0.412082

>  <SCORE.RESTR.CAVITY>
0.412082

>  <SCORE.RESTR.norm>
0.0179166

>  <SCORE.SYSTEM>
0

>  <SCORE.SYSTEM.CONST>
0

>  <SCORE.SYSTEM.DIHEDRAL>
0

>  <SCORE.SYSTEM.SOLV>
0

>  <SCORE.SYSTEM.norm>
0

>  <SCORE.heavy>
23

>  <SCORE.norm>
-1.11441

>  <RMSD>
21.046

$$$$

 OpenBabel11021811403D
libRbt.so/2013.1/901 2013/11/27
 23 25  0  0  0  0  0  0  0  0999 V2000
  -13.2484   23.2845    3.8547 S   0  0  0  0  0  0  0  0  0  0  0  0
  -14.4957   24.9355    1.7128 N   0  0  0  0  0  0  0  0  0  0  0  0
  -16.7869   24.3594    2.1952 C   0  0  0  0  0  0  0  0  0  0  0  0
  -17.7046   23.6525    2.9833 C   0  0  0  0  0  0  0  0  0  0  0  0
  -17.2583   22.8491    4.0282 C   0  0  0  0  0  0  0  0  0  0  0  0
  -15.8964   22.7433    4.2889 C   0  0  0  0  0  0  0  0  0  0  0  0
  -14.9751   23.4394    3.5105 C   0  0  0  0  0  0  0  0  0  0  0  0
  -15.4140   24.2525    2.4587 C   0  0  0  0  0  0  0  0  0  0  0  0
  -12.8523   23.2514    2.1351 C   0  0  0  0  0  0  0  0  0  0  0  0
  -11.8604   22.3881    1.6608 C   0  0  0  0  0  0  0  0  0  0  0  0
  -11.5462   22.3686    0.2989 C   0  0  0  0  0  0  0  0  0  0  0  0
  -12.2229   23.2164   -0.5841 C   0  0  0  0  0  0  0  0  0  0  0  0
  -13.2113   24.0762   -0.1040 C   0  0  0  0  0  0  0  0  0  0  0  0
  -13.5292   24.0953    1.2471 C   0  0  0  0  0  0  0  0  0  0  0  0
  -14.9196   26.0870    0.8783 C   0  0  0  0  0  0  0  0  0  0  0  0
  -16.2024   25.8989    0.0013 C   0  0  0  0  0  0  0  0  0  0  0  0
  -17.0268   27.2177   -0.1898 C   0  0  0  0  0  0  0  0  0  0  0  0
  -17.1873   28.1072    0.9887 N   0  3  0  0  0  0  0  0  0  0  0  0
  -17.9672   27.4461    2.0668 C   0  0  0  0  0  0  0  0  0  0  0  0
  -17.8025   29.4182    0.5826 C   0  0  0  0  0  0  0  0  0  0  0  0
  -19.1773   23.7522    2.7050 C   0  0  0  0  0  0  0  0  0  0  0  0
  -19.7165   24.5178    1.5210 C   0  0  0  0  0  0  0  0  0  0  0  0
  -19.9638   23.1498    3.4183 O   0  0  0  0  0  0  0  0  0  0  0  0
  1  7  1  0  0  0  0
  1  9  1  0  0  0  0
  2  8  1  0  0  0  0
  2 14  1  0  0  0  0
  2 15  1  0  0  0  0
  3  4  2  0  0  0  0
  3  8  1  0  0  0  0
  4  5  1  0  0  0  0
  4 21  1  0  0  0  0
  5  6  2  0  0  0  0
  6  7  1  0  0  0  0
  7  8  2  0  0  0  0
  9 10  2  0  0  0  0
  9 14  1  0  0  0  0
 10 11  1  0  0  0  0
 11 12  2  0  0  0  0
 12 13  1  0  0  0  0
 13 14  2  0  0  0  0
 15 16  1  0  0  0  0
 16 17  1  0  0  0  0
 17 18  1  0  0  0  0
 18 19  1  0  0  0  0
 18 20  1  0  0  0  0
 21 22  1  0  0  0  0
 21 23  2  0  0  0  0
M  CHG  1  18   1
M  END
>  <CHROM.1>
-45.99319138,4.75911506,147.74159591,-41.03164136,55.61663542,-15.65006485
24.56122292,1.90527083,0.40592582,-0.31077028,2.50160314

>  <Name>


>  <RI>
0

>  <Rbt.Current_Directory>
/home/itssahil/PROJECTS/Mol_Feturizer/New_Systems/rnas/1lvj

>  <Rbt.Executable>
rbdock ($Id: //depot/dev/client3/rdock/2013.1/src/exe/rbdock.cxx#4 $)

>  <Rbt.Library>
libRbt.so (2013.1, Build901 2013/11/27)

>  <Rbt.Parameter_File>
/export/apps/rDock/src/rDock_2013.1_src/data/scripts/dock_solv.prm

>  <Rbt.Receptor>
prm/blind_docking_40.prm

>  <SCORE>
-28.9

>  <SCORE.INTER>
-28.6715

>  <SCORE.INTER.CONST>
1

>  <SCORE.INTER.POLAR>
-1.5

>  <SCORE.INTER.ROT>
5

>  <SCORE.INTER.SOLV>
16.4557

>  <SCORE.INTER.VDW>
-26.5329

>  <SCORE.INTER.norm>
-1.24659

>  <SCORE.INTRA>
-0.228543

>  <SCORE.INTRA.DIHEDRAL>
-2.61098

>  <SCORE.INTRA.DIHEDRAL.0>
8.06479

>  <SCORE.INTRA.POLAR>
0

>  <SCORE.INTRA.POLAR.0>
0

>  <SCORE.INTRA.REPUL>
0

>  <SCORE.INTRA.REPUL.0>
0

>  <SCORE.INTRA.SOLV>
2.50687

>  <SCORE.INTRA.SOLV.lig_0>
-29.8054

>  <SCORE.INTRA.VDW>
-0.176486

>  <SCORE.INTRA.VDW.0>
2.61447

>  <SCORE.INTRA.norm>
-0.00993665

>  <SCORE.RESTR>
0

>  <SCORE.RESTR.CAVITY>
0

>  <SCORE.RESTR.norm>
0

>  <SCORE.SYSTEM>
0

>  <SCORE.SYSTEM.CONST>
0

>  <SCORE.SYSTEM.DIHEDRAL>
0

>  <SCORE.SYSTEM.SOLV>
0

>  <SCORE.SYSTEM.norm>
0

>  <SCORE.heavy>
23

>  <SCORE.norm>
-1.25652

>  <RMSD>
21.058

$$$$

 OpenBabel11021811403D
libRbt.so/2013.1/901 2013/11/27
 23 25  0  0  0  0  0  0  0  0999 V2000
  -12.9416   23.1371    4.0048 S   0  0  0  0  0  0  0  0  0  0  0  0
  -13.7774   24.2990    1.3931 N   0  0  0  0  0  0  0  0  0  0  0  0
  -16.1531   24.0160    1.6931 C   0  0  0  0  0  0  0  0  0  0  0  0
  -17.2169   23.5867    2.4976 C   0  0  0  0  0  0  0  0  0  0  0  0
  -16.9694   23.0330    3.7500 C   0  0  0  0  0  0  0  0  0  0  0  0
  -15.6615   22.9007    4.2036 C   0  0  0  0  0  0  0  0  0  0  0  0
  -14.5963   23.3216    3.4116 C   0  0  0  0  0  0  0  0  0  0  0  0
  -14.8348   23.8826    2.1512 C   0  0  0  0  0  0  0  0  0  0  0  0
  -12.3633   22.6596    2.4071 C   0  0  0  0  0  0  0  0  0  0  0  0
  -11.4144   21.6409    2.2807 C   0  0  0  0  0  0  0  0  0  0  0  0
  -10.9553   21.2692    1.0139 C   0  0  0  0  0  0  0  0  0  0  0  0
  -11.4442   21.9210   -0.1230 C   0  0  0  0  0  0  0  0  0  0  0  0
  -12.3907   22.9375    0.0103 C   0  0  0  0  0  0  0  0  0  0  0  0
  -12.8523   23.3064    1.2664 C   0  0  0  0  0  0  0  0  0  0  0  0
  -13.9920   25.2391    0.2652 C   0  0  0  0  0  0  0  0  0  0  0  0
  -14.6809   26.6051    0.5959 C   0  0  0  0  0  0  0  0  0  0  0  0
  -16.2210   26.6134    0.3074 C   0  0  0  0  0  0  0  0  0  0  0  0
  -17.0212   27.7327    0.8667 N   0  3  0  0  0  0  0  0  0  0  0  0
  -18.3846   27.2863    1.2533 C   0  0  0  0  0  0  0  0  0  0  0  0
  -17.0673   28.8849   -0.0988 C   0  0  0  0  0  0  0  0  0  0  0  0
  -18.6331   23.7165    2.0139 C   0  0  0  0  0  0  0  0  0  0  0  0
  -19.8019   23.7642    2.9680 C   0  0  0  0  0  0  0  0  0  0  0  0
  -18.8484   23.8477    0.8195 O   0  0  0  0  0  0  0  0  0  0  0  0
  1  7  1  0  0  0  0
  1  9  1  0  0  0  0
  2  8  1  0  0  0  0
  2 14  1  0  0  0  0
  2 15  1  0  0  0  0
  3  4  2  0  0  0  0
  3  8  1  0  0  0  0
  4  5  1  0  0  0  0
  4 21  1  0  0  0  0
  5  6  2  0  0  0  0
  6  7  1  0  0  0  0
  7  8  2  0  0  0  0
  9 10  2  0  0  0  0
  9 14  1  0  0  0  0
 10 11  1  0  0  0  0
 11 12  2  0  0  0  0
 12 13  1  0  0  0  0
 13 14  2  0  0  0  0
 15 16  1  0  0  0  0
 16 17  1  0  0  0  0
 17 18  1  0  0  0  0
 18 19  1  0  0  0  0
 18 20  1  0  0  0  0
 21 22  1  0  0  0  0
 21 23  2  0  0  0  0
M  CHG  1  18   1
M  END
>  <CHROM.1>
56.79588293,-156.94572976,-97.30862681,166.34654806,-25.92361694,-15.11191776
24.19598778,1.78758129,0.50482263,-0.28614204,2.49770704

>  <Name>


>  <RI>
0

>  <Rbt.Current_Directory>
/home/itssahil/PROJECTS/Mol_Feturizer/New_Systems/rnas/1lvj

>  <Rbt.Executable>
rbdock ($Id: //depot/dev/client3/rdock/2013.1/src/exe/rbdock.cxx#4 $)

>  <Rbt.Library>
libRbt.so (2013.1, Build901 2013/11/27)

>  <Rbt.Parameter_File>
/export/apps/rDock/src/rDock_2013.1_src/data/scripts/dock_solv.prm

>  <Rbt.Receptor>
prm/blind_docking_40.prm

>  <SCORE>
-34.6852

>  <SCORE.INTER>
-33.1718

>  <SCORE.INTER.CONST>
1

>  <SCORE.INTER.POLAR>
-1.35027

>  <SCORE.INTER.ROT>
5

>  <SCORE.INTER.SOLV>
16.3348

>  <SCORE.INTER.VDW>
-29.9919

>  <SCORE.INTER.norm>
-1.44225

>  <SCORE.INTRA>
-2.175

>  <SCORE.INTRA.DIHEDRAL>
0.454674

>  <SCORE.INTRA.DIHEDRAL.0>
8.06479

>  <SCORE.INTRA.POLAR>
0

>  <SCORE.INTRA.POLAR.0>
0

>  <SCORE.INTRA.REPUL>
0

>  <SCORE.INTRA.REPUL.0>
0

>  <SCORE.INTRA.SOLV>
1.2294

>  <SCORE.INTRA.SOLV.lig_0>
-29.8054

>  <SCORE.INTRA.VDW>
-3.01704

>  <SCORE.INTRA.VDW.0>
2.61447

>  <SCORE.INTRA.norm>
-0.0945653

>  <SCORE.RESTR>
0.66161

>  <SCORE.RESTR.CAVITY>
0.66161

>  <SCORE.RESTR.norm>
0.0287656

>  <SCORE.SYSTEM>
0

>  <SCORE.SYSTEM.CONST>
0

>  <SCORE.SYSTEM.DIHEDRAL>
0

>  <SCORE.SYSTEM.SOLV>
0

>  <SCORE.SYSTEM.norm>
0

>  <SCORE.heavy>
23

>  <SCORE.norm>
-1.50805

>  <RMSD>
21.058

$$$$

 OpenBabel11021811403D
libRbt.so/2013.1/901 2013/11/27
 23 25  0  0  0  0  0  0  0  0999 V2000
  -16.3738   26.9699    0.2309 S   0  0  0  0  0  0  0  0  0  0  0  0
  -16.1926   24.8173    2.2811 N   0  0  0  0  0  0  0  0  0  0  0  0
  -14.3237   23.6436    1.3096 C   0  0  0  0  0  0  0  0  0  0  0  0
  -13.3655   23.5496    0.2917 C   0  0  0  0  0  0  0  0  0  0  0  0
  -13.3293   24.4975   -0.7265 C   0  0  0  0  0  0  0  0  0  0  0  0
  -14.2500   25.5395   -0.7370 C   0  0  0  0  0  0  0  0  0  0  0  0
  -15.2084   25.6415    0.2681 C   0  0  0  0  0  0  0  0  0  0  0  0
  -15.2516   24.6946    1.2984 C   0  0  0  0  0  0  0  0  0  0  0  0
  -17.6814   25.9108    0.7635 C   0  0  0  0  0  0  0  0  0  0  0  0
  -18.9587   26.0419    0.2108 C   0  0  0  0  0  0  0  0  0  0  0  0
  -19.9927   25.2045    0.6389 C   0  0  0  0  0  0  0  0  0  0  0  0
  -19.7466   24.2407    1.6222 C   0  0  0  0  0  0  0  0  0  0  0  0
  -18.4695   24.1157    2.1703 C   0  0  0  0  0  0  0  0  0  0  0  0
  -17.4390   24.9426    1.7445 C   0  0  0  0  0  0  0  0  0  0  0  0
  -16.0258   24.0981    3.5683 C   0  0  0  0  0  0  0  0  0  0  0  0
  -15.5156   22.6200    3.4990 C   0  0  0  0  0  0  0  0  0  0  0  0
  -13.9773   22.4777    3.7609 C   0  0  0  0  0  0  0  0  0  0  0  0
  -13.4768   22.8004    5.1214 N   0  3  0  0  0  0  0  0  0  0  0  0
  -11.9951   22.9093    5.1442 C   0  0  0  0  0  0  0  0  0  0  0  0
  -13.9748   21.7935    6.1215 C   0  0  0  0  0  0  0  0  0  0  0  0
  -12.3718   22.4230    0.2882 C   0  0  0  0  0  0  0  0  0  0  0  0
  -12.4845   21.2556    1.2385 C   0  0  0  0  0  0  0  0  0  0  0  0
  -11.4789   22.4146   -0.5442 O   0  0  0  0  0  0  0  0  0  0  0  0
  1  7  1  0  0  0  0
  1  9  1  0  0  0  0
  2  8  1  0  0  0  0
  2 14  1  0  0  0  0
  2 15  1  0  0  0  0
  3  4  2  0  0  0  0
  3  8  1  0  0  0  0
  4  5  1  0  0  0  0
  4 21  1  0  0  0  0
  5  6  2  0  0  0  0
  6  7  1  0  0  0  0
  7  8  2  0  0  0  0
  9 10  2  0  0  0  0
  9 14  1  0  0  0  0
 10 11  1  0  0  0  0
 11 12  2  0  0  0  0
 12 13  1  0  0  0  0
 13 14  2  0  0  0  0
 15 16  1  0  0  0  0
 16 17  1  0  0  0  0
 17 18  1  0  0  0  0
 18 19  1  0  0  0  0
 18 20  1  0  0  0  0
 21 22  1  0  0  0  0
 21 23  2  0  0  0  0
M  CHG  1  18   1
M  END
>  <CHROM.1>
-42.12738811,9.11801833,98.29160390,66.74195521,-47.61409240,-15.27424790
24.12448906,1.71642380,-2.58101138,-0.37332183,1.99370206

>  <Name>


>  <RI>
0

>  <Rbt.Current_Directory>
/home/itssahil/PROJECTS/Mol_Feturizer/New_Systems/rnas/1lvj

>  <Rbt.Executable>
rbdock ($Id: //depot/dev/client3/rdock/2013.1/src/exe/rbdock.cxx#4 $)

>  <Rbt.Library>
libRbt.so (2013.1, Build901 2013/11/27)

>  <Rbt.Parameter_File>
/export/apps/rDock/src/rDock_2013.1_src/data/scripts/dock_solv.prm

>  <Rbt.Receptor>
prm/blind_docking_40.prm

>  <SCORE>
-15.4077

>  <SCORE.INTER>
-18.7674

>  <SCORE.INTER.CONST>
1

>  <SCORE.INTER.POLAR>
0

>  <SCORE.INTER.ROT>
5

>  <SCORE.INTER.SOLV>
18.0658

>  <SCORE.INTER.VDW>
-25.4669

>  <SCORE.INTER.norm>
-0.815972

>  <SCORE.INTRA>
3.29501

>  <SCORE.INTRA.DIHEDRAL>
-2.28886

>  <SCORE.INTRA.DIHEDRAL.0>
8.06479

>  <SCORE.INTRA.POLAR>
0

>  <SCORE.INTRA.POLAR.0>
0

>  <SCORE.INTRA.REPUL>
0

>  <SCORE.INTRA.REPUL.0>
0

>  <SCORE.INTRA.SOLV>
2.17095

>  <SCORE.INTRA.SOLV.lig_0>
-29.8054

>  <SCORE.INTRA.VDW>
3.35397

>  <SCORE.INTRA.VDW.0>
2.61447

>  <SCORE.INTRA.norm>
0.143261

>  <SCORE.RESTR>
0.0646513

>  <SCORE.RESTR.CAVITY>
0.0646513

>  <SCORE.RESTR.norm>
0.00281092

>  <SCORE.SYSTEM>
0

>  <SCORE.SYSTEM.CONST>
0

>  <SCORE.SYSTEM.DIHEDRAL>
0

>  <SCORE.SYSTEM.SOLV>
0

>  <SCORE.SYSTEM.norm>
0

>  <SCORE.heavy>
23

>  <SCORE.norm>
-0.6699

>  <RMSD>
21.058

$$$$

 OpenBabel11021811403D
libRbt.so/2013.1/901 2013/11/27
 23 25  0  0  0  0  0  0  0  0999 V2000
  -12.7761   23.2162    3.9277 S   0  0  0  0  0  0  0  0  0  0  0  0
  -13.7199   24.2911    1.3156 N   0  0  0  0  0  0  0  0  0  0  0  0
  -16.0759   23.9368    1.6868 C   0  0  0  0  0  0  0  0  0  0  0  0
  -17.1028   23.4908    2.5292 C   0  0  0  0  0  0  0  0  0  0  0  0
  -16.8034   22.9737    3.7860 C   0  0  0  0  0  0  0  0  0  0  0  0
  -15.4802   22.8947    4.2062 C   0  0  0  0  0  0  0  0  0  0  0  0
  -14.4513   23.3327    3.3763 C   0  0  0  0  0  0  0  0  0  0  0  0
  -14.7421   23.8571    2.1112 C   0  0  0  0  0  0  0  0  0  0  0  0
  -12.2250   22.7224    2.3254 C   0  0  0  0  0  0  0  0  0  0  0  0
  -11.2462   21.7329    2.1949 C   0  0  0  0  0  0  0  0  0  0  0  0
  -10.8089   21.3483    0.9242 C   0  0  0  0  0  0  0  0  0  0  0  0
  -11.3496   21.9580   -0.2126 C   0  0  0  0  0  0  0  0  0  0  0  0
  -12.3258   22.9455   -0.0752 C   0  0  0  0  0  0  0  0  0  0  0  0
  -12.7657   23.3270    1.1849 C   0  0  0  0  0  0  0  0  0  0  0  0
  -13.9960   25.1982    0.1741 C   0  0  0  0  0  0  0  0  0  0  0  0
  -14.6885   26.5638    0.4990 C   0  0  0  0  0  0  0  0  0  0  0  0
  -16.2442   26.5344    0.3134 C   0  0  0  0  0  0  0  0  0  0  0  0
  -17.0255   27.6725    0.8613 N   0  3  0  0  0  0  0  0  0  0  0  0
  -18.4027   27.2575    1.2334 C   0  0  0  0  0  0  0  0  0  0  0  0
  -17.0349   28.8232   -0.1071 C   0  0  0  0  0  0  0  0  0  0  0  0
  -18.5350   23.5629    2.0819 C   0  0  0  0  0  0  0  0  0  0  0  0
  -19.6737   23.6864    3.0652 C   0  0  0  0  0  0  0  0  0  0  0  0
  -18.7893   23.5831    0.8881 O   0  0  0  0  0  0  0  0  0  0  0  0
  1  7  1  0  0  0  0
  1  9  1  0  0  0  0
  2  8  1  0  0  0  0
  2 14  1  0  0  0  0
  2 15  1  0  0  0  0
  3  4  2  0  0  0  0
  3  8  1  0  0  0  0
  4  5  1  0  0  0  0
  4 21  1  0  0  0  0
  5  6  2  0  0  0  0
  6  7  1  0  0  0  0
  7  8  2  0  0  0  0
  9 10  2  0  0  0  0
  9 14  1  0  0  0  0
 10 11  1  0  0  0  0
 11 12  2  0  0  0  0
 12 13  1  0  0  0  0
 13 14  2  0  0  0  0
 15 16  1  0  0  0  0
 16 17  1  0  0  0  0
 17 18  1  0  0  0  0
 18 19  1  0  0  0  0
 18 20  1  0  0  0  0
 21 22  1  0  0  0  0
 21 23  2  0  0  0  0
M  CHG  1  18   1
M  END
>  <CHROM.1>
58.30642324,-152.78147891,-95.81722453,167.42763772,-31.76046335,-15.02502821
24.16925723,1.75744548,0.47169129,-0.28640398,2.48861228

>  <Name>


>  <RI>
0

>  <Rbt.Current_Directory>
/home/itssahil/PROJECTS/Mol_Feturizer/New_Systems/rnas/1lvj

>  <Rbt.Executable>
rbdock ($Id: //depot/dev/client3/rdock/2013.1/src/exe/rbdock.cxx#4 $)

>  <Rbt.Library>
libRbt.so (2013.1, Build901 2013/11/27)

>  <Rbt.Parameter_File>
/export/apps/rDock/src/rDock_2013.1_src/data/scripts/dock_solv.prm

>  <Rbt.Receptor>
prm/blind_docking_40.prm

>  <SCORE>
-35.7698

>  <SCORE.INTER>
-34.3337

>  <SCORE.INTER.CONST>
1

>  <SCORE.INTER.POLAR>
-1.36693

>  <SCORE.INTER.ROT>
5

>  <SCORE.INTER.SOLV>
16.3555

>  <SCORE.INTER.VDW>
-30.7179

>  <SCORE.INTER.norm>
-1.49277

>  <SCORE.INTRA>
-2.32638

>  <SCORE.INTRA.DIHEDRAL>
0.324183

>  <SCORE.INTRA.DIHEDRAL.0>
8.06479

>  <SCORE.INTRA.POLAR>
0

>  <SCORE.INTRA.POLAR.0>
0

>  <SCORE.INTRA.REPUL>
0

>  <SCORE.INTRA.REPUL.0>
0

>  <SCORE.INTRA.SOLV>
1.11029

>  <SCORE.INTRA.SOLV.lig_0>
-29.8054

>  <SCORE.INTRA.VDW>
-3.04362

>  <SCORE.INTRA.VDW.0>
2.61447

>  <SCORE.INTRA.norm>
-0.101147

>  <SCORE.RESTR>
0.890299

>  <SCORE.RESTR.CAVITY>
0.890299

>  <SCORE.RESTR.norm>
0.0387086

>  <SCORE.SYSTEM>
0

>  <SCORE.SYSTEM.CONST>
0

>  <SCORE.SYSTEM.DIHEDRAL>
0

>  <SCORE.SYSTEM.SOLV>
0

>  <SCORE.SYSTEM.norm>
0

>  <SCORE.heavy>
23

>  <SCORE.norm>
-1.55521

>  <RMSD>
21.067

$$$$

 OpenBabel11021811403D
libRbt.so/2013.1/901 2013/11/27
 23 25  0  0  0  0  0  0  0  0999 V2000
  -16.3759   26.9905    0.2228 S   0  0  0  0  0  0  0  0  0  0  0  0
  -16.1967   24.8361    2.2712 N   0  0  0  0  0  0  0  0  0  0  0  0
  -14.3297   23.6608    1.2981 C   0  0  0  0  0  0  0  0  0  0  0  0
  -13.3720   23.5663    0.2798 C   0  0  0  0  0  0  0  0  0  0  0  0
  -13.3349   24.5149   -0.7376 C   0  0  0  0  0  0  0  0  0  0  0  0
  -14.2543   25.5582   -0.7470 C   0  0  0  0  0  0  0  0  0  0  0  0
  -15.2122   25.6606    0.2585 C   0  0  0  0  0  0  0  0  0  0  0  0
  -15.2562   24.7130    1.2881 C   0  0  0  0  0  0  0  0  0  0  0  0
  -17.6846   25.9327    0.7550 C   0  0  0  0  0  0  0  0  0  0  0  0
  -18.9620   26.0658    0.2029 C   0  0  0  0  0  0  0  0  0  0  0  0
  -19.9969   25.2294    0.6308 C   0  0  0  0  0  0  0  0  0  0  0  0
  -19.7517   24.2646    1.6132 C   0  0  0  0  0  0  0  0  0  0  0  0
  -18.4745   24.1375    2.1607 C   0  0  0  0  0  0  0  0  0  0  0  0
  -17.4432   24.9633    1.7352 C   0  0  0  0  0  0  0  0  0  0  0  0
  -16.0303   24.1157    3.5578 C   0  0  0  0  0  0  0  0  0  0  0  0
  -15.5476   22.6285    3.4858 C   0  0  0  0  0  0  0  0  0  0  0  0
  -14.0135   22.4565    3.7545 C   0  0  0  0  0  0  0  0  0  0  0  0
  -13.5085   22.7962    5.1093 N   0  3  0  0  0  0  0  0  0  0  0  0
  -12.0288   22.9302    5.1203 C   0  0  0  0  0  0  0  0  0  0  0  0
  -13.9820   21.7873    6.1192 C   0  0  0  0  0  0  0  0  0  0  0  0
  -12.3797   22.4385    0.2751 C   0  0  0  0  0  0  0  0  0  0  0  0
  -12.5145   21.2521    1.1986 C   0  0  0  0  0  0  0  0  0  0  0  0
  -11.4688   22.4456   -0.5375 O   0  0  0  0  0  0  0  0  0  0  0  0
  1  7  1  0  0  0  0
  1  9  1  0  0  0  0
  2  8  1  0  0  0  0
  2 14  1  0  0  0  0
  2 15  1  0  0  0  0
  3  4  2  0  0  0  0
  3  8  1  0  0  0  0
  4  5  1  0  0  0  0
  4 21  1  0  0  0  0
  5  6  2  0  0  0  0
  6  7  1  0  0  0  0
  7  8  2  0  0  0  0
  9 10  2  0  0  0  0
  9 14  1  0  0  0  0
 10 11  1  0  0  0  0
 11 12  2  0  0  0  0
 12 13  1  0  0  0  0
 13 14  2  0  0  0  0
 15 16  1  0  0  0  0
 16 17  1  0  0  0  0
 17 18  1  0  0  0  0
 18 19  1  0  0  0  0
 18 20  1  0  0  0  0
 21 22  1  0  0  0  0
 21 23  2  0  0  0  0
M  CHG  1  18   1
M  END
>  <CHROM.1>
-43.23341216,10.81911169,99.17199394,65.31288464,-45.11568800,-15.28445673
24.13932393,1.70568436,-2.57805457,-0.37456311,1.99913572

>  <Name>


>  <RI>
0

>  <Rbt.Current_Directory>
/home/itssahil/PROJECTS/Mol_Feturizer/New_Systems/rnas/1lvj

>  <Rbt.Executable>
rbdock ($Id: //depot/dev/client3/rdock/2013.1/src/exe/rbdock.cxx#4 $)

>  <Rbt.Library>
libRbt.so (2013.1, Build901 2013/11/27)

>  <Rbt.Parameter_File>
/export/apps/rDock/src/rDock_2013.1_src/data/scripts/dock_solv.prm

>  <Rbt.Receptor>
prm/blind_docking_40.prm

>  <SCORE>
-15.3262

>  <SCORE.INTER>
-18.1642

>  <SCORE.INTER.CONST>
1

>  <SCORE.INTER.POLAR>
0

>  <SCORE.INTER.ROT>
5

>  <SCORE.INTER.SOLV>
18.0783

>  <SCORE.INTER.VDW>
-25.0689

>  <SCORE.INTER.norm>
-0.789748

>  <SCORE.INTRA>
2.80137

>  <SCORE.INTRA.DIHEDRAL>
-2.04896

>  <SCORE.INTRA.DIHEDRAL.0>
8.06479

>  <SCORE.INTRA.POLAR>
0

>  <SCORE.INTRA.POLAR.0>
0

>  <SCORE.INTRA.REPUL>
0

>  <SCORE.INTRA.REPUL.0>
0

>  <SCORE.INTRA.SOLV>
2.22985

>  <SCORE.INTRA.SOLV.lig_0>
-29.8054

>  <SCORE.INTRA.VDW>
2.71092

>  <SCORE.INTRA.VDW.0>
2.61447

>  <SCORE.INTRA.norm>
0.121799

>  <SCORE.RESTR>
0.0366468

>  <SCORE.RESTR.CAVITY>
0.0366468

>  <SCORE.RESTR.norm>
0.00159334

>  <SCORE.SYSTEM>
0

>  <SCORE.SYSTEM.CONST>
0

>  <SCORE.SYSTEM.DIHEDRAL>
0

>  <SCORE.SYSTEM.SOLV>
0

>  <SCORE.SYSTEM.norm>
0

>  <SCORE.heavy>
23

>  <SCORE.norm>
-0.666356

>  <RMSD>
21.068

$$$$

 OpenBabel11021811403D
libRbt.so/2013.1/901 2013/11/27
 23 25  0  0  0  0  0  0  0  0999 V2000
  -13.1369   23.4402    0.9741 S   0  0  0  0  0  0  0  0  0  0  0  0
  -15.7922   23.3876    2.3217 N   0  0  0  0  0  0  0  0  0  0  0  0
  -16.4746   25.6185    1.7124 C   0  0  0  0  0  0  0  0  0  0  0  0
  -16.1904   26.8200    1.0499 C   0  0  0  0  0  0  0  0  0  0  0  0
  -14.9872   26.9770    0.3688 C   0  0  0  0  0  0  0  0  0  0  0  0
  -14.0609   25.9400    0.3489 C   0  0  0  0  0  0  0  0  0  0  0  0
  -14.3316   24.7424    1.0060 C   0  0  0  0  0  0  0  0  0  0  0  0
  -15.5404   24.5733    1.6918 C   0  0  0  0  0  0  0  0  0  0  0  0
  -13.4525   23.0348    2.6626 C   0  0  0  0  0  0  0  0  0  0  0  0
  -12.3952   22.6914    3.5103 C   0  0  0  0  0  0  0  0  0  0  0  0
  -12.6500   22.3661    4.8457 C   0  0  0  0  0  0  0  0  0  0  0  0
  -13.9628   22.3813    5.3280 C   0  0  0  0  0  0  0  0  0  0  0  0
  -15.0134   22.7243    4.4763 C   0  0  0  0  0  0  0  0  0  0  0  0
  -14.7640   23.0522    3.1508 C   0  0  0  0  0  0  0  0  0  0  0  0
  -17.1797   23.0250    2.7033 C   0  0  0  0  0  0  0  0  0  0  0  0
  -18.3036   23.2943    1.6478 C   0  0  0  0  0  0  0  0  0  0  0  0
  -19.5951   23.9356    2.2611 C   0  0  0  0  0  0  0  0  0  0  0  0
  -19.9142   25.3367    1.8857 N   0  3  0  0  0  0  0  0  0  0  0  0
  -21.1546   25.8094    2.5530 C   0  0  0  0  0  0  0  0  0  0  0  0
  -19.9996   25.4780    0.3908 C   0  0  0  0  0  0  0  0  0  0  0  0
  -17.1797   27.9501    1.0724 C   0  0  0  0  0  0  0  0  0  0  0  0
  -16.9654   29.2153    0.2774 C   0  0  0  0  0  0  0  0  0  0  0  0
  -18.2179   27.8248    1.7022 O   0  0  0  0  0  0  0  0  0  0  0  0
  1  7  1  0  0  0  0
  1  9  1  0  0  0  0
  2  8  1  0  0  0  0
  2 14  1  0  0  0  0
  2 15  1  0  0  0  0
  3  4  2  0  0  0  0
  3  8  1  0  0  0  0
  4  5  1  0  0  0  0
  4 21  1  0  0  0  0
  5  6  2  0  0  0  0
  6  7  1  0  0  0  0
  7  8  2  0  0  0  0
  9 10  2  0  0  0  0
  9 14  1  0  0  0  0
 10 11  1  0  0  0  0
 11 12  2  0  0  0  0
 12 13  1  0  0  0  0
 13 14  2  0  0  0  0
 15 16  1  0  0  0  0
 16 17  1  0  0  0  0
 17 18  1  0  0  0  0
 18 19  1  0  0  0  0
 18 20  1  0  0  0  0
 21 22  1  0  0  0  0
 21 23  2  0  0  0  0
M  CHG  1  18   1
M  END
>  <CHROM.1>
43.57819583,-174.75325971,-136.24589509,111.82735745,-59.46091221,-16.10236115
24.73884638,2.00491097,-0.61728572,0.09247199,-0.59454826

>  <Name>


>  <RI>
0

>  <Rbt.Current_Directory>
/home/itssahil/PROJECTS/Mol_Feturizer/New_Systems/rnas/1lvj

>  <Rbt.Executable>
rbdock ($Id: //depot/dev/client3/rdock/2013.1/src/exe/rbdock.cxx#4 $)

>  <Rbt.Library>
libRbt.so (2013.1, Build901 2013/11/27)

>  <Rbt.Parameter_File>
/export/apps/rDock/src/rDock_2013.1_src/data/scripts/dock_solv.prm

>  <Rbt.Receptor>
prm/blind_docking_80.prm

>  <SCORE>
-32.0079

>  <SCORE.INTER>
-30.783

>  <SCORE.INTER.CONST>
1

>  <SCORE.INTER.POLAR>
0

>  <SCORE.INTER.ROT>
5

>  <SCORE.INTER.SOLV>
9.75338

>  <SCORE.INTER.VDW>
-30.7065

>  <SCORE.INTER.norm>
-1.33839

>  <SCORE.INTRA>
-2.08424

>  <SCORE.INTRA.DIHEDRAL>
2.10753

>  <SCORE.INTRA.DIHEDRAL.0>
8.06479

>  <SCORE.INTRA.POLAR>
-1.24588

>  <SCORE.INTRA.POLAR.0>
0

>  <SCORE.INTRA.REPUL>
0

>  <SCORE.INTRA.REPUL.0>
0

>  <SCORE.INTRA.SOLV>
6.77881

>  <SCORE.INTRA.SOLV.lig_0>
-29.8054

>  <SCORE.INTRA.VDW>
-2.29142

>  <SCORE.INTRA.VDW.0>
2.61447

>  <SCORE.INTRA.norm>
-0.0906192

>  <SCORE.RESTR>
0.859363

>  <SCORE.RESTR.CAVITY>
0.859363

>  <SCORE.RESTR.norm>
0.0373636

>  <SCORE.SYSTEM>
0

>  <SCORE.SYSTEM.CONST>
0

>  <SCORE.SYSTEM.DIHEDRAL>
0

>  <SCORE.SYSTEM.SOLV>
0

>  <SCORE.SYSTEM.norm>
0

>  <SCORE.heavy>
23

>  <SCORE.norm>
-1.39165

>  <RMSD>
21.075

$$$$

 OpenBabel11021811403D
libRbt.so/2013.1/901 2013/11/27
 23 25  0  0  0  0  0  0  0  0999 V2000
  -16.3262   26.4431    0.7740 S   0  0  0  0  0  0  0  0  0  0  0  0
  -15.6278   24.2074    2.6133 N   0  0  0  0  0  0  0  0  0  0  0  0
  -13.8243   23.2972    1.2969 C   0  0  0  0  0  0  0  0  0  0  0  0
  -13.0278   23.3645    0.1461 C   0  0  0  0  0  0  0  0  0  0  0  0
  -13.2388   24.3680   -0.7945 C   0  0  0  0  0  0  0  0  0  0  0  0
  -14.2467   25.3051   -0.5948 C   0  0  0  0  0  0  0  0  0  0  0  0
  -15.0461   25.2464    0.5440 C   0  0  0  0  0  0  0  0  0  0  0  0
  -14.8401   24.2424    1.4977 C   0  0  0  0  0  0  0  0  0  0  0  0
  -17.4289   25.2220    1.4127 C   0  0  0  0  0  0  0  0  0  0  0  0
  -18.7822   25.2482    1.0630 C   0  0  0  0  0  0  0  0  0  0  0  0
  -19.6531   24.2822    1.5749 C   0  0  0  0  0  0  0  0  0  0  0  0
  -19.1682   23.2950    2.4389 C   0  0  0  0  0  0  0  0  0  0  0  0
  -17.8164   23.2751    2.7845 C   0  0  0  0  0  0  0  0  0  0  0  0
  -16.9476   24.2301    2.2746 C   0  0  0  0  0  0  0  0  0  0  0  0
  -15.1981   23.4369    3.8065 C   0  0  0  0  0  0  0  0  0  0  0  0
  -13.8643   23.8765    4.4976 C   0  0  0  0  0  0  0  0  0  0  0  0
  -13.1483   22.7151    5.2681 C   0  0  0  0  0  0  0  0  0  0  0  0
  -12.0633   21.9860    4.5629 N   0  3  0  0  0  0  0  0  0  0  0  0
  -11.3189   21.0920    5.4872 C   0  0  0  0  0  0  0  0  0  0  0  0
  -11.1451   22.9501    3.8636 C   0  0  0  0  0  0  0  0  0  0  0  0
  -11.9422   22.3521   -0.0843 C   0  0  0  0  0  0  0  0  0  0  0  0
  -11.4872   21.4076    1.0017 C   0  0  0  0  0  0  0  0  0  0  0  0
  -11.4505   22.2439   -1.1964 O   0  0  0  0  0  0  0  0  0  0  0  0
  1  7  1  0  0  0  0
  1  9  1  0  0  0  0
  2  8  1  0  0  0  0
  2 14  1  0  0  0  0
  2 15  1  0  0  0  0
  3  4  2  0  0  0  0
  3  8  1  0  0  0  0
  4  5  1  0  0  0  0
  4 21  1  0  0  0  0
  5  6  2  0  0  0  0
  6  7  1  0  0  0  0
  7  8  2  0  0  0  0
  9 10  2  0  0  0  0
  9 14  1  0  0  0  0
 10 11  1  0  0  0  0
 11 12  2  0  0  0  0
 12 13  1  0  0  0  0
 13 14  2  0  0  0  0
 15 16  1  0  0  0  0
 16 17  1  0  0  0  0
 17 18  1  0  0  0  0
 18 19  1  0  0  0  0
 18 20  1  0  0  0  0
 21 22  1  0  0  0  0
 21 23  2  0  0  0  0
M  CHG  1  18   1
M  END
>  <CHROM.1>
61.47397864,-12.03989505,-153.55590360,96.36513764,-70.36425802,-14.66125263
23.74967492,1.91399470,-2.80501231,-0.34906571,1.89043097

>  <Name>


>  <RI>
0

>  <Rbt.Current_Directory>
/home/itssahil/PROJECTS/Mol_Feturizer/New_Systems/rnas/1lvj

>  <Rbt.Executable>
rbdock ($Id: //depot/dev/client3/rdock/2013.1/src/exe/rbdock.cxx#4 $)

>  <Rbt.Library>
libRbt.so (2013.1, Build901 2013/11/27)

>  <Rbt.Parameter_File>
/export/apps/rDock/src/rDock_2013.1_src/data/scripts/dock_solv.prm

>  <Rbt.Receptor>
prm/blind_docking_40.prm

>  <SCORE>
-21.8324

>  <SCORE.INTER>
-23.0951

>  <SCORE.INTER.CONST>
1

>  <SCORE.INTER.POLAR>
0

>  <SCORE.INTER.ROT>
5

>  <SCORE.INTER.SOLV>
15.0709

>  <SCORE.INTER.VDW>
-27.3537

>  <SCORE.INTER.norm>
-1.00414

>  <SCORE.INTRA>
-0.180346

>  <SCORE.INTRA.DIHEDRAL>
-0.65457

>  <SCORE.INTRA.DIHEDRAL.0>
8.06479

>  <SCORE.INTRA.POLAR>
0

>  <SCORE.INTRA.POLAR.0>
0

>  <SCORE.INTRA.REPUL>
0

>  <SCORE.INTRA.REPUL.0>
0

>  <SCORE.INTRA.SOLV>
3.48075

>  <SCORE.INTRA.SOLV.lig_0>
-29.8054

>  <SCORE.INTRA.VDW>
-1.59343

>  <SCORE.INTRA.VDW.0>
2.61447

>  <SCORE.INTRA.norm>
-0.00784111

>  <SCORE.RESTR>
1.44303

>  <SCORE.RESTR.CAVITY>
1.44303

>  <SCORE.RESTR.norm>
0.0627404

>  <SCORE.SYSTEM>
0

>  <SCORE.SYSTEM.CONST>
0

>  <SCORE.SYSTEM.DIHEDRAL>
0

>  <SCORE.SYSTEM.SOLV>
0

>  <SCORE.SYSTEM.norm>
0

>  <SCORE.heavy>
23

>  <SCORE.norm>
-0.949236

>  <RMSD>
21.087

$$$$

 OpenBabel11021811403D
libRbt.so/2013.1/901 2013/11/27
 23 25  0  0  0  0  0  0  0  0999 V2000
  -13.6425   23.0870    3.9070 S   0  0  0  0  0  0  0  0  0  0  0  0
  -14.5961   24.9469    1.7855 N   0  0  0  0  0  0  0  0  0  0  0  0
  -16.9544   24.5346    2.0724 C   0  0  0  0  0  0  0  0  0  0  0  0
  -17.9800   23.8636    2.7514 C   0  0  0  0  0  0  0  0  0  0  0  0
  -17.6759   22.9715    3.7752 C   0  0  0  0  0  0  0  0  0  0  0  0
  -16.3494   22.7411    4.1231 C   0  0  0  0  0  0  0  0  0  0  0  0
  -15.3218   23.4005    3.4534 C   0  0  0  0  0  0  0  0  0  0  0  0
  -15.6173   24.3020    2.4238 C   0  0  0  0  0  0  0  0  0  0  0  0
  -13.1240   23.1141    2.2202 C   0  0  0  0  0  0  0  0  0  0  0  0
  -12.1696   22.1994    1.7655 C   0  0  0  0  0  0  0  0  0  0  0  0
  -11.7580   22.2274    0.4300 C   0  0  0  0  0  0  0  0  0  0  0  0
  -12.2996   23.1738   -0.4460 C   0  0  0  0  0  0  0  0  0  0  0  0
  -13.2513   24.0844    0.0146 C   0  0  0  0  0  0  0  0  0  0  0  0
  -13.6658   24.0567    1.3390 C   0  0  0  0  0  0  0  0  0  0  0  0
  -14.8665   26.1722    0.9934 C   0  0  0  0  0  0  0  0  0  0  0  0
  -15.9480   26.0694   -0.1334 C   0  0  0  0  0  0  0  0  0  0  0  0
  -17.3069   26.7536    0.2414 C   0  0  0  0  0  0  0  0  0  0  0  0
  -17.2501   28.0677    0.9312 N   0  3  0  0  0  0  0  0  0  0  0  0
  -18.4997   28.3394    1.6875 C   0  0  0  0  0  0  0  0  0  0  0  0
  -16.9439   29.1671   -0.0484 C   0  0  0  0  0  0  0  0  0  0  0  0
  -19.4160   24.0980    2.3778 C   0  0  0  0  0  0  0  0  0  0  0  0
  -19.8035   24.8570    1.1319 C   0  0  0  0  0  0  0  0  0  0  0  0
  -20.3005   23.6124    3.0648 O   0  0  0  0  0  0  0  0  0  0  0  0
  1  7  1  0  0  0  0
  1  9  1  0  0  0  0
  2  8  1  0  0  0  0
  2 14  1  0  0  0  0
  2 15  1  0  0  0  0
  3  4  2  0  0  0  0
  3  8  1  0  0  0  0
  4  5  1  0  0  0  0
  4 21  1  0  0  0  0
  5  6  2  0  0  0  0
  6  7  1  0  0  0  0
  7  8  2  0  0  0  0
  9 10  2  0  0  0  0
  9 14  1  0  0  0  0
 10 11  1  0  0  0  0
 11 12  2  0  0  0  0
 12 13  1  0  0  0  0
 13 14  2  0  0  0  0
 15 16  1  0  0  0  0
 16 17  1  0  0  0  0
 17 18  1  0  0  0  0
 18 19  1  0  0  0  0
 18 20  1  0  0  0  0
 21 22  1  0  0  0  0
 21 23  2  0  0  0  0
M  CHG  1  18   1
M  END
>  <CHROM.1>
-55.07161364,10.73519274,104.85848642,41.98904657,-37.45833301,-15.82118650
24.61020896,1.82849352,0.46996982,-0.29367448,2.52314440

>  <Name>


>  <RI>
0

>  <Rbt.Current_Directory>
/home/itssahil/PROJECTS/Mol_Feturizer/New_Systems/rnas/1lvj

>  <Rbt.Executable>
rbdock ($Id: //depot/dev/client3/rdock/2013.1/src/exe/rbdock.cxx#4 $)

>  <Rbt.Library>
libRbt.so (2013.1, Build901 2013/11/27)

>  <Rbt.Parameter_File>
/export/apps/rDock/src/rDock_2013.1_src/data/scripts/dock_solv.prm

>  <Rbt.Receptor>
prm/blind_docking_60.prm

>  <SCORE>
-29.2317

>  <SCORE.INTER>
-30.2335

>  <SCORE.INTER.CONST>
1

>  <SCORE.INTER.POLAR>
-1.5

>  <SCORE.INTER.ROT>
5

>  <SCORE.INTER.SOLV>
15.9408

>  <SCORE.INTER.VDW>
-27.4026

>  <SCORE.INTER.norm>
-1.3145

>  <SCORE.INTRA>
0.948951

>  <SCORE.INTRA.DIHEDRAL>
-0.360197

>  <SCORE.INTRA.DIHEDRAL.0>
8.06479

>  <SCORE.INTRA.POLAR>
0

>  <SCORE.INTRA.POLAR.0>
0

>  <SCORE.INTRA.REPUL>
0

>  <SCORE.INTRA.REPUL.0>
0

>  <SCORE.INTRA.SOLV>
3.65573

>  <SCORE.INTRA.SOLV.lig_0>
-29.8054

>  <SCORE.INTRA.VDW>
-0.698815

>  <SCORE.INTRA.VDW.0>
2.61447

>  <SCORE.INTRA.norm>
0.0412587

>  <SCORE.RESTR>
0.0528192

>  <SCORE.RESTR.CAVITY>
0.0528192

>  <SCORE.RESTR.norm>
0.00229649

>  <SCORE.SYSTEM>
0

>  <SCORE.SYSTEM.CONST>
0

>  <SCORE.SYSTEM.DIHEDRAL>
0

>  <SCORE.SYSTEM.SOLV>
0

>  <SCORE.SYSTEM.norm>
0

>  <SCORE.heavy>
23

>  <SCORE.norm>
-1.27094

>  <RMSD>
21.092

$$$$

 OpenBabel11021811403D
libRbt.so/2013.1/901 2013/11/27
 23 25  0  0  0  0  0  0  0  0999 V2000
  -13.4132   23.1984    3.8918 S   0  0  0  0  0  0  0  0  0  0  0  0
  -14.5202   24.9347    1.7403 N   0  0  0  0  0  0  0  0  0  0  0  0
  -16.8466   24.4304    2.1242 C   0  0  0  0  0  0  0  0  0  0  0  0
  -17.8175   23.7407    2.8623 C   0  0  0  0  0  0  0  0  0  0  0  0
  -17.4394   22.9014    3.9059 C   0  0  0  0  0  0  0  0  0  0  0  0
  -16.0929   22.7425    4.2150 C   0  0  0  0  0  0  0  0  0  0  0  0
  -15.1191   23.4210    3.4866 C   0  0  0  0  0  0  0  0  0  0  0  0
  -15.4893   24.2698    2.4366 C   0  0  0  0  0  0  0  0  0  0  0  0
  -12.9532   23.1857    2.1880 C   0  0  0  0  0  0  0  0  0  0  0  0
  -11.9743   22.2975    1.7329 C   0  0  0  0  0  0  0  0  0  0  0  0
  -11.6092   22.2940    0.3836 C   0  0  0  0  0  0  0  0  0  0  0  0
  -12.2220   23.1826   -0.5059 C   0  0  0  0  0  0  0  0  0  0  0  0
  -13.1978   24.0670   -0.0449 C   0  0  0  0  0  0  0  0  0  0  0  0
  -13.5661   24.0704    1.2934 C   0  0  0  0  0  0  0  0  0  0  0  0
  -14.8720   26.1169    0.9151 C   0  0  0  0  0  0  0  0  0  0  0  0
  -16.0132   25.9361   -0.1407 C   0  0  0  0  0  0  0  0  0  0  0  0
  -17.3472   26.6582    0.2522 C   0  0  0  0  0  0  0  0  0  0  0  0
  -17.6246   27.9791   -0.3677 N   0  3  0  0  0  0  0  0  0  0  0  0
  -16.5781   28.9742   -0.0183 C   0  0  0  0  0  0  0  0  0  0  0  0
  -18.9981   28.4626    0.0086 C   0  0  0  0  0  0  0  0  0  0  0  0
  -19.2743   23.8978    2.5312 C   0  0  0  0  0  0  0  0  0  0  0  0
  -19.7408   24.6990    1.3400 C   0  0  0  0  0  0  0  0  0  0  0  0
  -20.1080   23.3145    3.2056 O   0  0  0  0  0  0  0  0  0  0  0  0
  1  7  1  0  0  0  0
  1  9  1  0  0  0  0
  2  8  1  0  0  0  0
  2 14  1  0  0  0  0
  2 15  1  0  0  0  0
  3  4  2  0  0  0  0
  3  8  1  0  0  0  0
  4  5  1  0  0  0  0
  4 21  1  0  0  0  0
  5  6  2  0  0  0  0
  6  7  1  0  0  0  0
  7  8  2  0  0  0  0
  9 10  2  0  0  0  0
  9 14  1  0  0  0  0
 10 11  1  0  0  0  0
 11 12  2  0  0  0  0
 12 13  1  0  0  0  0
 13 14  2  0  0  0  0
 15 16  1  0  0  0  0
 16 17  1  0  0  0  0
 17 18  1  0  0  0  0
 18 19  1  0  0  0  0
 18 20  1  0  0  0  0
 21 22  1  0  0  0  0
 21 23  2  0  0  0  0
M  CHG  1  18   1
M  END
>  <CHROM.1>
-53.37083212,5.10916755,107.67878517,99.21185859,59.15266260,-15.73768690
24.56919987,1.70951233,0.51717625,-0.26005778,2.42356357

>  <Name>


>  <RI>
0

>  <Rbt.Current_Directory>
/home/itssahil/PROJECTS/Mol_Feturizer/New_Systems/rnas/1lvj

>  <Rbt.Executable>
rbdock ($Id: //depot/dev/client3/rdock/2013.1/src/exe/rbdock.cxx#4 $)

>  <Rbt.Library>
libRbt.so (2013.1, Build901 2013/11/27)

>  <Rbt.Parameter_File>
/export/apps/rDock/src/rDock_2013.1_src/data/scripts/dock_solv.prm

>  <Rbt.Receptor>
prm/blind_docking_80.prm

>  <SCORE>
-25.842

>  <SCORE.INTER>
-27.2398

>  <SCORE.INTER.CONST>
1

>  <SCORE.INTER.POLAR>
-1.26308

>  <SCORE.INTER.ROT>
5

>  <SCORE.INTER.SOLV>
20.13

>  <SCORE.INTER.VDW>
-27.5929

>  <SCORE.INTER.norm>
-1.18434

>  <SCORE.INTRA>
0.988311

>  <SCORE.INTRA.DIHEDRAL>
1.6471

>  <SCORE.INTRA.DIHEDRAL.0>
8.06479

>  <SCORE.INTRA.POLAR>
0

>  <SCORE.INTRA.POLAR.0>
0

>  <SCORE.INTRA.REPUL>
0

>  <SCORE.INTRA.REPUL.0>
0

>  <SCORE.INTRA.SOLV>
0.662449

>  <SCORE.INTRA.SOLV.lig_0>
-29.8054

>  <SCORE.INTRA.VDW>
-0.166464

>  <SCORE.INTRA.VDW.0>
2.61447

>  <SCORE.INTRA.norm>
0.04297

>  <SCORE.RESTR>
0.409468

>  <SCORE.RESTR.CAVITY>
0.409468

>  <SCORE.RESTR.norm>
0.0178029

>  <SCORE.SYSTEM>
0

>  <SCORE.SYSTEM.CONST>
0

>  <SCORE.SYSTEM.DIHEDRAL>
0

>  <SCORE.SYSTEM.SOLV>
0

>  <SCORE.SYSTEM.norm>
0

>  <SCORE.heavy>
23

>  <SCORE.norm>
-1.12357

>  <RMSD>
21.095

$$$$

 OpenBabel11021811403D
libRbt.so/2013.1/901 2013/11/27
 23 25  0  0  0  0  0  0  0  0999 V2000
  -16.1619   26.2256    0.8732 S   0  0  0  0  0  0  0  0  0  0  0  0
  -15.3436   24.1232    2.8172 N   0  0  0  0  0  0  0  0  0  0  0  0
  -13.5218   23.2191    1.5220 C   0  0  0  0  0  0  0  0  0  0  0  0
  -12.7450   23.2574    0.3565 C   0  0  0  0  0  0  0  0  0  0  0  0
  -13.0115   24.1992   -0.6327 C   0  0  0  0  0  0  0  0  0  0  0  0
  -14.0553   25.1029   -0.4667 C   0  0  0  0  0  0  0  0  0  0  0  0
  -14.8355   25.0725    0.6864 C   0  0  0  0  0  0  0  0  0  0  0  0
  -14.5738   24.1308    1.6887 C   0  0  0  0  0  0  0  0  0  0  0  0
  -17.2028   24.9959    1.5937 C   0  0  0  0  0  0  0  0  0  0  0  0
  -18.5607   24.9469    1.2652 C   0  0  0  0  0  0  0  0  0  0  0  0
  -19.3827   23.9745    1.8419 C   0  0  0  0  0  0  0  0  0  0  0  0
  -18.8442   23.0563    2.7492 C   0  0  0  0  0  0  0  0  0  0  0  0
  -17.4882   23.1113    3.0733 C   0  0  0  0  0  0  0  0  0  0  0  0
  -16.6678   24.0727    2.4993 C   0  0  0  0  0  0  0  0  0  0  0  0
  -14.8650   23.4366    4.0426 C   0  0  0  0  0  0  0  0  0  0  0  0
  -13.6382   24.0681    4.7815 C   0  0  0  0  0  0  0  0  0  0  0  0
  -12.2780   23.8446    4.0364 C   0  0  0  0  0  0  0  0  0  0  0  0
  -11.5253   22.5993    4.3340 N   0  3  0  0  0  0  0  0  0  0  0  0
  -11.7009   21.5879    3.2600 C   0  0  0  0  0  0  0  0  0  0  0  0
  -11.9160   22.0533    5.6799 C   0  0  0  0  0  0  0  0  0  0  0  0
  -11.6208   22.2801    0.1627 C   0  0  0  0  0  0  0  0  0  0  0  0
  -11.7899   21.0189   -0.6494 C   0  0  0  0  0  0  0  0  0  0  0  0
  -10.5191   22.5358    0.6220 O   0  0  0  0  0  0  0  0  0  0  0  0
  1  7  1  0  0  0  0
  1  9  1  0  0  0  0
  2  8  1  0  0  0  0
  2 14  1  0  0  0  0
  2 15  1  0  0  0  0
  3  4  2  0  0  0  0
  3  8  1  0  0  0  0
  4  5  1  0  0  0  0
  4 21  1  0  0  0  0
  5  6  2  0  0  0  0
  6  7  1  0  0  0  0
  7  8  2  0  0  0  0
  9 10  2  0  0  0  0
  9 14  1  0  0  0  0
 10 11  1  0  0  0  0
 11 12  2  0  0  0  0
 12 13  1  0  0  0  0
 13 14  2  0  0  0  0
 15 16  1  0  0  0  0
 16 17  1  0  0  0  0
 17 18  1  0  0  0  0
 18 19  1  0  0  0  0
 18 20  1  0  0  0  0
 21 22  1  0  0  0  0
 21 23  2  0  0  0  0
M  CHG  1  18   1
M  END
>  <CHROM.1>
68.38895832,97.49709483,-73.75698143,-87.78599039,-138.24143163,-14.43183074
23.70068546,1.99497484,-2.97976056,-0.33145154,1.81047382

>  <Name>


>  <RI>
0

>  <Rbt.Current_Directory>
/home/itssahil/PROJECTS/Mol_Feturizer/New_Systems/rnas/1lvj

>  <Rbt.Executable>
rbdock ($Id: //depot/dev/client3/rdock/2013.1/src/exe/rbdock.cxx#4 $)

>  <Rbt.Library>
libRbt.so (2013.1, Build901 2013/11/27)

>  <Rbt.Parameter_File>
/export/apps/rDock/src/rDock_2013.1_src/data/scripts/dock_solv.prm

>  <Rbt.Receptor>
prm/blind_docking_100.prm

>  <SCORE>
-9.78318

>  <SCORE.INTER>
-19.7098

>  <SCORE.INTER.CONST>
1

>  <SCORE.INTER.POLAR>
0

>  <SCORE.INTER.ROT>
5

>  <SCORE.INTER.SOLV>
12.9357

>  <SCORE.INTER.VDW>
-24.3851

>  <SCORE.INTER.norm>
-0.85695

>  <SCORE.INTRA>
6.86398

>  <SCORE.INTRA.DIHEDRAL>
11.1174

>  <SCORE.INTRA.DIHEDRAL.0>
8.06479

>  <SCORE.INTRA.POLAR>
0

>  <SCORE.INTRA.POLAR.0>
0

>  <SCORE.INTRA.REPUL>
0

>  <SCORE.INTRA.REPUL.0>
0

>  <SCORE.INTRA.SOLV>
0.323046

>  <SCORE.INTRA.SOLV.lig_0>
-29.8054

>  <SCORE.INTRA.VDW>
1.14376

>  <SCORE.INTRA.VDW.0>
2.61447

>  <SCORE.INTRA.norm>
0.298434

>  <SCORE.RESTR>
3.06268

>  <SCORE.RESTR.CAVITY>
3.06268

>  <SCORE.RESTR.norm>
0.13316

>  <SCORE.SYSTEM>
0

>  <SCORE.SYSTEM.CONST>
0

>  <SCORE.SYSTEM.DIHEDRAL>
0

>  <SCORE.SYSTEM.SOLV>
0

>  <SCORE.SYSTEM.norm>
0

>  <SCORE.heavy>
23

>  <SCORE.norm>
-0.425356

>  <RMSD>
21.105

$$$$

 OpenBabel11021811403D
libRbt.so/2013.1/901 2013/11/27
 23 25  0  0  0  0  0  0  0  0999 V2000
  -13.0631   23.2120    3.9557 S   0  0  0  0  0  0  0  0  0  0  0  0
  -13.9621   24.4652    1.4081 N   0  0  0  0  0  0  0  0  0  0  0  0
  -16.3244   24.0916    1.7150 C   0  0  0  0  0  0  0  0  0  0  0  0
  -17.3657   23.5912    2.5078 C   0  0  0  0  0  0  0  0  0  0  0  0
  -17.0879   22.9886    3.7310 C   0  0  0  0  0  0  0  0  0  0  0  0
  -15.7719   22.8782    4.1667 C   0  0  0  0  0  0  0  0  0  0  0  0
  -14.7288   23.3697    3.3860 C   0  0  0  0  0  0  0  0  0  0  0  0
  -14.9979   23.9801    2.1551 C   0  0  0  0  0  0  0  0  0  0  0  0
  -12.4860   22.8278    2.3327 C   0  0  0  0  0  0  0  0  0  0  0  0
  -11.5062   21.8474    2.1510 C   0  0  0  0  0  0  0  0  0  0  0  0
  -11.0482   21.5497    0.8644 C   0  0  0  0  0  0  0  0  0  0  0  0
  -11.5692   22.2369   -0.2367 C   0  0  0  0  0  0  0  0  0  0  0  0
  -12.5464   23.2149   -0.0483 C   0  0  0  0  0  0  0  0  0  0  0  0
  -13.0069   23.5102    1.2274 C   0  0  0  0  0  0  0  0  0  0  0  0
  -14.2182   25.4489    0.3269 C   0  0  0  0  0  0  0  0  0  0  0  0
  -15.0689   26.7098    0.6961 C   0  0  0  0  0  0  0  0  0  0  0  0
  -16.5276   26.6676    0.1253 C   0  0  0  0  0  0  0  0  0  0  0  0
  -17.4485   27.7694    0.5046 N   0  3  0  0  0  0  0  0  0  0  0  0
  -16.8989   29.0947    0.1186 C   0  0  0  0  0  0  0  0  0  0  0  0
  -17.7710   27.7084    1.9724 C   0  0  0  0  0  0  0  0  0  0  0  0
  -18.7901   23.6969    2.0428 C   0  0  0  0  0  0  0  0  0  0  0  0
  -19.2075   24.6632    0.9608 C   0  0  0  0  0  0  0  0  0  0  0  0
  -19.6292   22.9411    2.5065 O   0  0  0  0  0  0  0  0  0  0  0  0
  1  7  1  0  0  0  0
  1  9  1  0  0  0  0
  2  8  1  0  0  0  0
  2 14  1  0  0  0  0
  2 15  1  0  0  0  0
  3  4  2  0  0  0  0
  3  8  1  0  0  0  0
  4  5  1  0  0  0  0
  4 21  1  0  0  0  0
  5  6  2  0  0  0  0
  6  7  1  0  0  0  0
  7  8  2  0  0  0  0
  9 10  2  0  0  0  0
  9 14  1  0  0  0  0
 10 11  1  0  0  0  0
 11 12  2  0  0  0  0
 12 13  1  0  0  0  0
 13 14  2  0  0  0  0
 15 16  1  0  0  0  0
 16 17  1  0  0  0  0
 17 18  1  0  0  0  0
 18 19  1  0  0  0  0
 18 20  1  0  0  0  0
 21 22  1  0  0  0  0
 21 23  2  0  0  0  0
M  CHG  1  18   1
M  END
>  <CHROM.1>
50.98115301,-18.29801885,-106.11019130,175.51394382,177.40878000,-15.23647706
24.31410115,1.77243158,0.52398331,-0.26091663,2.55433673

>  <Name>


>  <RI>
0

>  <Rbt.Current_Directory>
/home/itssahil/PROJECTS/Mol_Feturizer/New_Systems/rnas/1lvj

>  <Rbt.Executable>
rbdock ($Id: //depot/dev/client3/rdock/2013.1/src/exe/rbdock.cxx#4 $)

>  <Rbt.Library>
libRbt.so (2013.1, Build901 2013/11/27)

>  <Rbt.Parameter_File>
/export/apps/rDock/src/rDock_2013.1_src/data/scripts/dock_solv.prm

>  <Rbt.Receptor>
prm/blind_docking_80.prm

>  <SCORE>
-30.8207

>  <SCORE.INTER>
-29.0813

>  <SCORE.INTER.CONST>
1

>  <SCORE.INTER.POLAR>
0

>  <SCORE.INTER.ROT>
5

>  <SCORE.INTER.SOLV>
11.1749

>  <SCORE.INTER.VDW>
-30.0459

>  <SCORE.INTER.norm>
-1.26441

>  <SCORE.INTRA>
-1.74967

>  <SCORE.INTRA.DIHEDRAL>
-1.40653

>  <SCORE.INTRA.DIHEDRAL.0>
8.06479

>  <SCORE.INTRA.POLAR>
0

>  <SCORE.INTRA.POLAR.0>
0

>  <SCORE.INTRA.REPUL>
0

>  <SCORE.INTRA.REPUL.0>
0

>  <SCORE.INTRA.SOLV>
0.91528

>  <SCORE.INTRA.SOLV.lig_0>
-29.8054

>  <SCORE.INTRA.VDW>
-1.50405

>  <SCORE.INTRA.VDW.0>
2.61447

>  <SCORE.INTRA.norm>
-0.0760727

>  <SCORE.RESTR>
0.0103584

>  <SCORE.RESTR.CAVITY>
0.0103584

>  <SCORE.RESTR.norm>
0.000450366

>  <SCORE.SYSTEM>
0

>  <SCORE.SYSTEM.CONST>
0

>  <SCORE.SYSTEM.DIHEDRAL>
0

>  <SCORE.SYSTEM.SOLV>
0

>  <SCORE.SYSTEM.norm>
0

>  <SCORE.heavy>
23

>  <SCORE.norm>
-1.34003

>  <RMSD>
21.110

$$$$

 OpenBabel11021811403D
libRbt.so/2013.1/901 2013/11/27
 23 25  0  0  0  0  0  0  0  0999 V2000
  -13.2051   23.2048    3.9429 S   0  0  0  0  0  0  0  0  0  0  0  0
  -14.0551   24.4865    1.3927 N   0  0  0  0  0  0  0  0  0  0  0  0
  -16.4279   24.1698    1.6818 C   0  0  0  0  0  0  0  0  0  0  0  0
  -17.4867   23.6928    2.4658 C   0  0  0  0  0  0  0  0  0  0  0  0
  -17.2324   23.0803    3.6892 C   0  0  0  0  0  0  0  0  0  0  0  0
  -15.9226   22.9366    4.1339 C   0  0  0  0  0  0  0  0  0  0  0  0
  -14.8623   23.4046    3.3619 C   0  0  0  0  0  0  0  0  0  0  0  0
  -15.1077   24.0248    2.1309 C   0  0  0  0  0  0  0  0  0  0  0  0
  -12.6259   22.8110    2.3229 C   0  0  0  0  0  0  0  0  0  0  0  0
  -11.6690   21.8076    2.1453 C   0  0  0  0  0  0  0  0  0  0  0  0
  -11.2093   21.5022    0.8611 C   0  0  0  0  0  0  0  0  0  0  0  0
  -11.7055   22.2050   -0.2417 C   0  0  0  0  0  0  0  0  0  0  0  0
  -12.6599   23.2060   -0.0573 C   0  0  0  0  0  0  0  0  0  0  0  0
  -13.1222   23.5090    1.2160 C   0  0  0  0  0  0  0  0  0  0  0  0
  -14.2794   25.4791    0.3126 C   0  0  0  0  0  0  0  0  0  0  0  0
  -15.1127   26.7532    0.6760 C   0  0  0  0  0  0  0  0  0  0  0  0
  -16.5918   26.6993    0.1617 C   0  0  0  0  0  0  0  0  0  0  0  0
  -17.4873   27.8294    0.5179 N   0  3  0  0  0  0  0  0  0  0  0  0
  -16.9034   29.1343    0.1133 C   0  0  0  0  0  0  0  0  0  0  0  0
  -17.8186   27.8004    1.9847 C   0  0  0  0  0  0  0  0  0  0  0  0
  -18.9048   23.8345    1.9910 C   0  0  0  0  0  0  0  0  0  0  0  0
  -19.2823   24.7744    0.8718 C   0  0  0  0  0  0  0  0  0  0  0  0
  -19.7731   23.1288    2.4791 O   0  0  0  0  0  0  0  0  0  0  0  0
  1  7  1  0  0  0  0
  1  9  1  0  0  0  0
  2  8  1  0  0  0  0
  2 14  1  0  0  0  0
  2 15  1  0  0  0  0
  3  4  2  0  0  0  0
  3  8  1  0  0  0  0
  4  5  1  0  0  0  0
  4 21  1  0  0  0  0
  5  6  2  0  0  0  0
  6  7  1  0  0  0  0
  7  8  2  0  0  0  0
  9 10  2  0  0  0  0
  9 14  1  0  0  0  0
 10 11  1  0  0  0  0
 11 12  2  0  0  0  0
 12 13  1  0  0  0  0
 13 14  2  0  0  0  0
 15 16  1  0  0  0  0
 16 17  1  0  0  0  0
 17 18  1  0  0  0  0
 18 19  1  0  0  0  0
 18 20  1  0  0  0  0
 21 22  1  0  0  0  0
 21 23  2  0  0  0  0
M  CHG  1  18   1
M  END
>  <CHROM.1>
50.44271493,-15.85332769,-102.51616597,176.80661163,174.20659859,-15.34183797
24.35694256,1.75492004,0.53751835,-0.27090529,2.55902706

>  <Name>


>  <RI>
0

>  <Rbt.Current_Directory>
/home/itssahil/PROJECTS/Mol_Feturizer/New_Systems/rnas/1lvj

>  <Rbt.Executable>
rbdock ($Id: //depot/dev/client3/rdock/2013.1/src/exe/rbdock.cxx#4 $)

>  <Rbt.Library>
libRbt.so (2013.1, Build901 2013/11/27)

>  <Rbt.Parameter_File>
/export/apps/rDock/src/rDock_2013.1_src/data/scripts/dock_solv.prm

>  <Rbt.Receptor>
prm/blind_docking_40.prm

>  <SCORE>
-30.3167

>  <SCORE.INTER>
-28.9939

>  <SCORE.INTER.CONST>
1

>  <SCORE.INTER.POLAR>
0

>  <SCORE.INTER.ROT>
5

>  <SCORE.INTER.SOLV>
11.0278

>  <SCORE.INTER.VDW>
-29.9385

>  <SCORE.INTER.norm>
-1.2606

>  <SCORE.INTRA>
-1.60468

>  <SCORE.INTRA.DIHEDRAL>
-2.06767

>  <SCORE.INTRA.DIHEDRAL.0>
8.06479

>  <SCORE.INTRA.POLAR>
0

>  <SCORE.INTRA.POLAR.0>
0

>  <SCORE.INTRA.REPUL>
0

>  <SCORE.INTRA.REPUL.0>
0

>  <SCORE.INTRA.SOLV>
1.00198

>  <SCORE.INTRA.SOLV.lig_0>
-29.8054

>  <SCORE.INTRA.VDW>
-1.07183

>  <SCORE.INTRA.VDW.0>
2.61447

>  <SCORE.INTRA.norm>
-0.0697685

>  <SCORE.RESTR>
0.281904

>  <SCORE.RESTR.CAVITY>
0.281904

>  <SCORE.RESTR.norm>
0.0122567

>  <SCORE.SYSTEM>
0

>  <SCORE.SYSTEM.CONST>
0

>  <SCORE.SYSTEM.DIHEDRAL>
0

>  <SCORE.SYSTEM.SOLV>
0

>  <SCORE.SYSTEM.norm>
0

>  <SCORE.heavy>
23

>  <SCORE.norm>
-1.31812

>  <RMSD>
21.111

$$$$

 OpenBabel11021811403D
libRbt.so/2013.1/901 2013/11/27
 23 25  0  0  0  0  0  0  0  0999 V2000
  -18.7426   22.9496    3.9622 S   0  0  0  0  0  0  0  0  0  0  0  0
  -18.5869   24.9541    1.7652 N   0  0  0  0  0  0  0  0  0  0  0  0
  -16.2623   24.6143    1.2224 C   0  0  0  0  0  0  0  0  0  0  0  0
  -15.0612   23.9355    1.4667 C   0  0  0  0  0  0  0  0  0  0  0  0
  -14.9953   22.9632    2.4601 C   0  0  0  0  0  0  0  0  0  0  0  0
  -16.1239   22.6668    3.2164 C   0  0  0  0  0  0  0  0  0  0  0  0
  -17.3223   23.3369    2.9840 C   0  0  0  0  0  0  0  0  0  0  0  0
  -17.3999   24.3148    1.9852 C   0  0  0  0  0  0  0  0  0  0  0  0
  -19.2123   24.6484    4.0522 C   0  0  0  0  0  0  0  0  0  0  0  0
  -19.7193   25.1732    5.2446 C   0  0  0  0  0  0  0  0  0  0  0  0
  -20.0948   26.5180    5.3102 C   0  0  0  0  0  0  0  0  0  0  0  0
  -19.9659   27.3331    4.1809 C   0  0  0  0  0  0  0  0  0  0  0  0
  -19.4598   26.8027    2.9937 C   0  0  0  0  0  0  0  0  0  0  0  0
  -19.0817   25.4688    2.9259 C   0  0  0  0  0  0  0  0  0  0  0  0
  -18.8186   25.6809    0.4923 C   0  0  0  0  0  0  0  0  0  0  0  0
  -20.2998   25.8089    0.0030 C   0  0  0  0  0  0  0  0  0  0  0  0
  -20.9372   27.2087    0.3023 C   0  0  0  0  0  0  0  0  0  0  0  0
  -20.4617   28.3676   -0.4955 N   0  3  0  0  0  0  0  0  0  0  0  0
  -20.5758   28.1074   -1.9539 C   0  0  0  0  0  0  0  0  0  0  0  0
  -19.0570   28.7380   -0.1060 C   0  0  0  0  0  0  0  0  0  0  0  0
  -13.8334   24.2540    0.6619 C   0  0  0  0  0  0  0  0  0  0  0  0
  -13.8861   25.1416   -0.5580 C   0  0  0  0  0  0  0  0  0  0  0  0
  -12.7486   23.8353    1.0333 O   0  0  0  0  0  0  0  0  0  0  0  0
  1  7  1  0  0  0  0
  1  9  1  0  0  0  0
  2  8  1  0  0  0  0
  2 14  1  0  0  0  0
  2 15  1  0  0  0  0
  3  4  2  0  0  0  0
  3  8  1  0  0  0  0
  4  5  1  0  0  0  0
  4 21  1  0  0  0  0
  5  6  2  0  0  0  0
  6  7  1  0  0  0  0
  7  8  2  0  0  0  0
  9 10  2  0  0  0  0
  9 14  1  0  0  0  0
 10 11  1  0  0  0  0
 11 12  2  0  0  0  0
 12 13  1  0  0  0  0
 13 14  2  0  0  0  0
 15 16  1  0  0  0  0
 16 17  1  0  0  0  0
 17 18  1  0  0  0  0
 18 19  1  0  0  0  0
 18 20  1  0  0  0  0
 21 22  1  0  0  0  0
 21 23  2  0  0  0  0
M  CHG  1  18   1
M  END
>  <CHROM.1>
152.38962688,-9.48660412,100.98543092,71.62288624,174.13112069,-17.99446176
25.27087076,1.90125681,0.41436676,-0.46879285,2.13202213

>  <Name>


>  <RI>
0

>  <Rbt.Current_Directory>
/home/itssahil/PROJECTS/Mol_Feturizer/New_Systems/rnas/1lvj

>  <Rbt.Executable>
rbdock ($Id: //depot/dev/client3/rdock/2013.1/src/exe/rbdock.cxx#4 $)

>  <Rbt.Library>
libRbt.so (2013.1, Build901 2013/11/27)

>  <Rbt.Parameter_File>
/export/apps/rDock/src/rDock_2013.1_src/data/scripts/dock_solv.prm

>  <Rbt.Receptor>
prm/blind_docking_60.prm

>  <SCORE>
-21.0606

>  <SCORE.INTER>
-19.6945

>  <SCORE.INTER.CONST>
1

>  <SCORE.INTER.POLAR>
0

>  <SCORE.INTER.ROT>
5

>  <SCORE.INTER.SOLV>
6.75408

>  <SCORE.INTER.VDW>
-22.3143

>  <SCORE.INTER.norm>
-0.856282

>  <SCORE.INTRA>
-2.01239

>  <SCORE.INTRA.DIHEDRAL>
-2.13442

>  <SCORE.INTRA.DIHEDRAL.0>
8.06479

>  <SCORE.INTRA.POLAR>
0

>  <SCORE.INTRA.POLAR.0>
0

>  <SCORE.INTRA.REPUL>
0

>  <SCORE.INTRA.REPUL.0>
0

>  <SCORE.INTRA.SOLV>
-0.294726

>  <SCORE.INTRA.SOLV.lig_0>
-29.8054

>  <SCORE.INTRA.VDW>
-0.797814

>  <SCORE.INTRA.VDW.0>
2.61447

>  <SCORE.INTRA.norm>
-0.087495

>  <SCORE.RESTR>
0.646278

>  <SCORE.RESTR.CAVITY>
0.646278

>  <SCORE.RESTR.norm>
0.028099

>  <SCORE.SYSTEM>
0

>  <SCORE.SYSTEM.CONST>
0

>  <SCORE.SYSTEM.DIHEDRAL>
0

>  <SCORE.SYSTEM.SOLV>
0

>  <SCORE.SYSTEM.norm>
0

>  <SCORE.heavy>
23

>  <SCORE.norm>
-0.915678

>  <RMSD>
21.119

$$$$

 OpenBabel11021811403D
libRbt.so/2013.1/901 2013/11/27
 23 25  0  0  0  0  0  0  0  0999 V2000
  -17.9041   23.8056    0.9856 S   0  0  0  0  0  0  0  0  0  0  0  0
  -15.1852   25.0083    0.8124 N   0  0  0  0  0  0  0  0  0  0  0  0
  -14.3391   24.1207    2.8886 C   0  0  0  0  0  0  0  0  0  0  0  0
  -14.5522   23.3453    4.0360 C   0  0  0  0  0  0  0  0  0  0  0  0
  -15.7765   22.7156    4.2388 C   0  0  0  0  0  0  0  0  0  0  0  0
  -16.7941   22.8597    3.3021 C   0  0  0  0  0  0  0  0  0  0  0  0
  -16.5944   23.6299    2.1593 C   0  0  0  0  0  0  0  0  0  0  0  0
  -15.3655   24.2653    1.9445 C   0  0  0  0  0  0  0  0  0  0  0  0
  -17.5212   25.5095    0.7305 C   0  0  0  0  0  0  0  0  0  0  0  0
  -18.5499   26.4447    0.5842 C   0  0  0  0  0  0  0  0  0  0  0  0
  -18.2423   27.7925    0.3774 C   0  0  0  0  0  0  0  0  0  0  0  0
  -16.9058   28.2000    0.3132 C   0  0  0  0  0  0  0  0  0  0  0  0
  -15.8840   27.2611    0.4593 C   0  0  0  0  0  0  0  0  0  0  0  0
  -16.1854   25.9226    0.6692 C   0  0  0  0  0  0  0  0  0  0  0  0
  -13.8158   25.3536    0.3565 C   0  0  0  0  0  0  0  0  0  0  0  0
  -12.6464   24.4397    0.8536 C   0  0  0  0  0  0  0  0  0  0  0  0
  -12.8267   22.9312    0.4699 C   0  0  0  0  0  0  0  0  0  0  0  0
  -11.8342   21.9617    0.9996 N   0  3  0  0  0  0  0  0  0  0  0  0
  -11.9976   20.6219    0.3783 C   0  0  0  0  0  0  0  0  0  0  0  0
  -11.9116   21.8910    2.4999 C   0  0  0  0  0  0  0  0  0  0  0  0
  -13.4631   23.1903    5.0588 C   0  0  0  0  0  0  0  0  0  0  0  0
  -13.3012   21.9262    5.8679 C   0  0  0  0  0  0  0  0  0  0  0  0
  -12.6452   24.0849    5.2032 O   0  0  0  0  0  0  0  0  0  0  0  0
  1  7  1  0  0  0  0
  1  9  1  0  0  0  0
  2  8  1  0  0  0  0
  2 14  1  0  0  0  0
  2 15  1  0  0  0  0
  3  4  2  0  0  0  0
  3  8  1  0  0  0  0
  4  5  1  0  0  0  0
  4 21  1  0  0  0  0
  5  6  2  0  0  0  0
  6  7  1  0  0  0  0
  7  8  2  0  0  0  0
  9 10  2  0  0  0  0
  9 14  1  0  0  0  0
 10 11  1  0  0  0  0
 11 12  2  0  0  0  0
 12 13  1  0  0  0  0
 13 14  2  0  0  0  0
 15 16  1  0  0  0  0
 16 17  1  0  0  0  0
 17 18  1  0  0  0  0
 18 19  1  0  0  0  0
 18 20  1  0  0  0  0
 21 22  1  0  0  0  0
 21 23  2  0  0  0  0
M  CHG  1  18   1
M  END
>  <CHROM.1>
22.34226540,-147.67085615,57.66797284,-174.61811330,-50.63751108,-15.01880018
24.14102129,1.92325354,2.50811373,0.49672155,-1.14119204

>  <Name>


>  <RI>
0

>  <Rbt.Current_Directory>
/home/itssahil/PROJECTS/Mol_Feturizer/New_Systems/rnas/1lvj

>  <Rbt.Executable>
rbdock ($Id: //depot/dev/client3/rdock/2013.1/src/exe/rbdock.cxx#4 $)

>  <Rbt.Library>
libRbt.so (2013.1, Build901 2013/11/27)

>  <Rbt.Parameter_File>
/export/apps/rDock/src/rDock_2013.1_src/data/scripts/dock_solv.prm

>  <Rbt.Receptor>
prm/blind_docking_40.prm

>  <SCORE>
-27.5594

>  <SCORE.INTER>
-27.315

>  <SCORE.INTER.CONST>
1

>  <SCORE.INTER.POLAR>
0

>  <SCORE.INTER.ROT>
5

>  <SCORE.INTER.SOLV>
12.8047

>  <SCORE.INTER.VDW>
-29.4116

>  <SCORE.INTER.norm>
-1.18761

>  <SCORE.INTRA>
-0.244334

>  <SCORE.INTRA.DIHEDRAL>
-3.42066

>  <SCORE.INTRA.DIHEDRAL.0>
8.06479

>  <SCORE.INTRA.POLAR>
0

>  <SCORE.INTRA.POLAR.0>
0

>  <SCORE.INTRA.REPUL>
0

>  <SCORE.INTRA.REPUL.0>
0

>  <SCORE.INTRA.SOLV>
0.779434

>  <SCORE.INTRA.SOLV.lig_0>
-29.8054

>  <SCORE.INTRA.VDW>
1.07628

>  <SCORE.INTRA.VDW.0>
2.61447

>  <SCORE.INTRA.norm>
-0.0106232

>  <SCORE.RESTR>
0

>  <SCORE.RESTR.CAVITY>
0

>  <SCORE.RESTR.norm>
0

>  <SCORE.SYSTEM>
0

>  <SCORE.SYSTEM.CONST>
0

>  <SCORE.SYSTEM.DIHEDRAL>
0

>  <SCORE.SYSTEM.SOLV>
0

>  <SCORE.SYSTEM.norm>
0

>  <SCORE.heavy>
23

>  <SCORE.norm>
-1.19823

>  <RMSD>
21.135

$$$$

 OpenBabel11021811403D
libRbt.so/2013.1/901 2013/11/27
 23 25  0  0  0  0  0  0  0  0999 V2000
  -13.6570   23.2282    3.8915 S   0  0  0  0  0  0  0  0  0  0  0  0
  -14.6753   25.0270    1.7475 N   0  0  0  0  0  0  0  0  0  0  0  0
  -17.0197   24.5573    2.0595 C   0  0  0  0  0  0  0  0  0  0  0  0
  -18.0220   23.8708    2.7574 C   0  0  0  0  0  0  0  0  0  0  0  0
  -17.6868   23.0040    3.7932 C   0  0  0  0  0  0  0  0  0  0  0  0
  -16.3520   22.8145    4.1344 C   0  0  0  0  0  0  0  0  0  0  0  0
  -15.3473   23.4897    3.4460 C   0  0  0  0  0  0  0  0  0  0  0  0
  -15.6742   24.3660    2.4043 C   0  0  0  0  0  0  0  0  0  0  0  0
  -13.1519   23.2412    2.2004 C   0  0  0  0  0  0  0  0  0  0  0  0
  -12.1770   22.3446    1.7533 C   0  0  0  0  0  0  0  0  0  0  0  0
  -11.7761   22.3616    0.4143 C   0  0  0  0  0  0  0  0  0  0  0  0
  -12.3491   23.2787   -0.4727 C   0  0  0  0  0  0  0  0  0  0  0  0
  -13.3212   24.1713   -0.0196 C   0  0  0  0  0  0  0  0  0  0  0  0
  -13.7250   24.1545    1.3083 C   0  0  0  0  0  0  0  0  0  0  0  0
  -14.9841   26.2316    0.9377 C   0  0  0  0  0  0  0  0  0  0  0  0
  -16.1024   26.0938   -0.1487 C   0  0  0  0  0  0  0  0  0  0  0  0
  -17.4450   26.7995    0.2446 C   0  0  0  0  0  0  0  0  0  0  0  0
  -17.7305   28.1250   -0.3616 N   0  3  0  0  0  0  0  0  0  0  0  0
  -16.7171   29.1354    0.0381 C   0  0  0  0  0  0  0  0  0  0  0  0
  -19.1253   28.5733   -0.0217 C   0  0  0  0  0  0  0  0  0  0  0  0
  -19.4664   24.0609    2.3913 C   0  0  0  0  0  0  0  0  0  0  0  0
  -19.8839   24.8216    1.1561 C   0  0  0  0  0  0  0  0  0  0  0  0
  -20.3315   23.5372    3.0751 O   0  0  0  0  0  0  0  0  0  0  0  0
  1  7  1  0  0  0  0
  1  9  1  0  0  0  0
  2  8  1  0  0  0  0
  2 14  1  0  0  0  0
  2 15  1  0  0  0  0
  3  4  2  0  0  0  0
  3  8  1  0  0  0  0
  4  5  1  0  0  0  0
  4 21  1  0  0  0  0
  5  6  2  0  0  0  0
  6  7  1  0  0  0  0
  7  8  2  0  0  0  0
  9 10  2  0  0  0  0
  9 14  1  0  0  0  0
 10 11  1  0  0  0  0
 11 12  2  0  0  0  0
 12 13  1  0  0  0  0
 13 14  2  0  0  0  0
 15 16  1  0  0  0  0
 16 17  1  0  0  0  0
 17 18  1  0  0  0  0
 18 19  1  0  0  0  0
 18 20  1  0  0  0  0
 21 22  1  0  0  0  0
 21 23  2  0  0  0  0
M  CHG  1  18   1
M  END
>  <CHROM.1>
-53.20623098,9.01791704,106.02094768,101.15303637,57.46517417,-15.90994285
24.67594991,1.68019200,0.53653094,-0.25223853,2.44407253

>  <Name>


>  <RI>
0

>  <Rbt.Current_Directory>
/home/itssahil/PROJECTS/Mol_Feturizer/New_Systems/rnas/1lvj

>  <Rbt.Executable>
rbdock ($Id: //depot/dev/client3/rdock/2013.1/src/exe/rbdock.cxx#4 $)

>  <Rbt.Library>
libRbt.so (2013.1, Build901 2013/11/27)

>  <Rbt.Parameter_File>
/export/apps/rDock/src/rDock_2013.1_src/data/scripts/dock_solv.prm

>  <Rbt.Receptor>
prm/blind_docking_60.prm

>  <SCORE>
-26.7315

>  <SCORE.INTER>
-27.9572

>  <SCORE.INTER.CONST>
1

>  <SCORE.INTER.POLAR>
-1.25407

>  <SCORE.INTER.ROT>
5

>  <SCORE.INTER.SOLV>
19.8077

>  <SCORE.INTER.VDW>
-27.9938

>  <SCORE.INTER.norm>
-1.21553

>  <SCORE.INTRA>
1.22563

>  <SCORE.INTRA.DIHEDRAL>
1.93604

>  <SCORE.INTRA.DIHEDRAL.0>
8.06479

>  <SCORE.INTRA.POLAR>
0

>  <SCORE.INTRA.POLAR.0>
0

>  <SCORE.INTRA.REPUL>
0

>  <SCORE.INTRA.REPUL.0>
0

>  <SCORE.INTRA.SOLV>
0.680138

>  <SCORE.INTRA.SOLV.lig_0>
-29.8054

>  <SCORE.INTRA.VDW>
-0.0824571

>  <SCORE.INTRA.VDW.0>
2.61447

>  <SCORE.INTRA.norm>
0.0532883

>  <SCORE.RESTR>
0

>  <SCORE.RESTR.CAVITY>
0

>  <SCORE.RESTR.norm>
0

>  <SCORE.SYSTEM>
0

>  <SCORE.SYSTEM.CONST>
0

>  <SCORE.SYSTEM.DIHEDRAL>
0

>  <SCORE.SYSTEM.SOLV>
0

>  <SCORE.SYSTEM.norm>
0

>  <SCORE.heavy>
23

>  <SCORE.norm>
-1.16224

>  <RMSD>
21.136

$$$$

 OpenBabel11021811403D
libRbt.so/2013.1/901 2013/11/27
 23 25  0  0  0  0  0  0  0  0999 V2000
  -17.8977   23.7801    0.9985 S   0  0  0  0  0  0  0  0  0  0  0  0
  -15.1937   25.0165    0.8273 N   0  0  0  0  0  0  0  0  0  0  0  0
  -14.3397   24.1430    2.9062 C   0  0  0  0  0  0  0  0  0  0  0  0
  -14.5448   23.3669    4.0546 C   0  0  0  0  0  0  0  0  0  0  0  0
  -15.7614   22.7223    4.2567 C   0  0  0  0  0  0  0  0  0  0  0  0
  -16.7794   22.8520    3.3183 C   0  0  0  0  0  0  0  0  0  0  0  0
  -16.5876   23.6228    2.1745 C   0  0  0  0  0  0  0  0  0  0  0  0
  -15.3664   24.2732    1.9604 C   0  0  0  0  0  0  0  0  0  0  0  0
  -17.5357   25.4882    0.7411 C   0  0  0  0  0  0  0  0  0  0  0  0
  -18.5758   26.4103    0.5917 C   0  0  0  0  0  0  0  0  0  0  0  0
  -18.2848   27.7615    0.3830 C   0  0  0  0  0  0  0  0  0  0  0  0
  -16.9535   28.1856    0.3202 C   0  0  0  0  0  0  0  0  0  0  0  0
  -15.9201   27.2598    0.4693 C   0  0  0  0  0  0  0  0  0  0  0  0
  -16.2052   25.9179    0.6811 C   0  0  0  0  0  0  0  0  0  0  0  0
  -13.8282   25.3782    0.3729 C   0  0  0  0  0  0  0  0  0  0  0  0
  -12.6511   24.4642    0.8517 C   0  0  0  0  0  0  0  0  0  0  0  0
  -12.8322   22.9575    0.4614 C   0  0  0  0  0  0  0  0  0  0  0  0
  -11.8287   21.9881    0.9702 N   0  3  0  0  0  0  0  0  0  0  0  0
  -12.0104   20.6461    0.3591 C   0  0  0  0  0  0  0  0  0  0  0  0
  -11.8685   21.9240    2.4723 C   0  0  0  0  0  0  0  0  0  0  0  0
  -13.4554   23.2272    5.0793 C   0  0  0  0  0  0  0  0  0  0  0  0
  -13.2529   21.9519    5.8611 C   0  0  0  0  0  0  0  0  0  0  0  0
  -12.6700   24.1464    5.2475 O   0  0  0  0  0  0  0  0  0  0  0  0
  1  7  1  0  0  0  0
  1  9  1  0  0  0  0
  2  8  1  0  0  0  0
  2 14  1  0  0  0  0
  2 15  1  0  0  0  0
  3  4  2  0  0  0  0
  3  8  1  0  0  0  0
  4  5  1  0  0  0  0
  4 21  1  0  0  0  0
  5  6  2  0  0  0  0
  6  7  1  0  0  0  0
  7  8  2  0  0  0  0
  9 10  2  0  0  0  0
  9 14  1  0  0  0  0
 10 11  1  0  0  0  0
 11 12  2  0  0  0  0
 12 13  1  0  0  0  0
 13 14  2  0  0  0  0
 15 16  1  0  0  0  0
 16 17  1  0  0  0  0
 17 18  1  0  0  0  0
 18 19  1  0  0  0  0
 18 20  1  0  0  0  0
 21 22  1  0  0  0  0
 21 23  2  0  0  0  0
M  CHG  1  18   1
M  END
>  <CHROM.1>
23.44178413,-145.78727404,56.87730691,-174.84893002,-51.52681716,-15.02224611
24.14896872,1.93034443,2.52164010,0.49940051,-1.16081162

>  <Name>


>  <RI>
0

>  <Rbt.Current_Directory>
/home/itssahil/PROJECTS/Mol_Feturizer/New_Systems/rnas/1lvj

>  <Rbt.Executable>
rbdock ($Id: //depot/dev/client3/rdock/2013.1/src/exe/rbdock.cxx#4 $)

>  <Rbt.Library>
libRbt.so (2013.1, Build901 2013/11/27)

>  <Rbt.Parameter_File>
/export/apps/rDock/src/rDock_2013.1_src/data/scripts/dock_solv.prm

>  <Rbt.Receptor>
prm/blind_docking_40.prm

>  <SCORE>
-27.5561

>  <SCORE.INTER>
-27.0629

>  <SCORE.INTER.CONST>
1

>  <SCORE.INTER.POLAR>
0

>  <SCORE.INTER.ROT>
5

>  <SCORE.INTER.SOLV>
13.0313

>  <SCORE.INTER.VDW>
-29.319

>  <SCORE.INTER.norm>
-1.17665

>  <SCORE.INTRA>
-0.493199

>  <SCORE.INTRA.DIHEDRAL>
-3.12475

>  <SCORE.INTRA.DIHEDRAL.0>
8.06479

>  <SCORE.INTRA.POLAR>
0

>  <SCORE.INTRA.POLAR.0>
0

>  <SCORE.INTRA.REPUL>
0

>  <SCORE.INTRA.REPUL.0>
0

>  <SCORE.INTRA.SOLV>
0.744742

>  <SCORE.INTRA.SOLV.lig_0>
-29.8054

>  <SCORE.INTRA.VDW>
0.696804

>  <SCORE.INTRA.VDW.0>
2.61447

>  <SCORE.INTRA.norm>
-0.0214434

>  <SCORE.RESTR>
0

>  <SCORE.RESTR.CAVITY>
0

>  <SCORE.RESTR.norm>
0

>  <SCORE.SYSTEM>
0

>  <SCORE.SYSTEM.CONST>
0

>  <SCORE.SYSTEM.DIHEDRAL>
0

>  <SCORE.SYSTEM.SOLV>
0

>  <SCORE.SYSTEM.norm>
0

>  <SCORE.heavy>
23

>  <SCORE.norm>
-1.19809

>  <RMSD>
21.139

$$$$

 OpenBabel11021811403D
libRbt.so/2013.1/901 2013/11/27
 23 25  0  0  0  0  0  0  0  0999 V2000
  -18.9777   24.7816    0.8281 S   0  0  0  0  0  0  0  0  0  0  0  0
  -16.0074   24.8855    0.6393 N   0  0  0  0  0  0  0  0  0  0  0  0
  -15.5417   23.6961    2.6844 C   0  0  0  0  0  0  0  0  0  0  0  0
  -16.0222   23.0290    3.8190 C   0  0  0  0  0  0  0  0  0  0  0  0
  -17.3918   22.8974    4.0271 C   0  0  0  0  0  0  0  0  0  0  0  0
  -18.2876   23.4337    3.1085 C   0  0  0  0  0  0  0  0  0  0  0  0
  -17.8214   24.1011    1.9787 C   0  0  0  0  0  0  0  0  0  0  0  0
  -16.4454   24.2364    1.7586 C   0  0  0  0  0  0  0  0  0  0  0  0
  -17.9873   26.2248    0.6019 C   0  0  0  0  0  0  0  0  0  0  0  0
  -18.5927   27.4798    0.4896 C   0  0  0  0  0  0  0  0  0  0  0  0
  -17.8050   28.6197    0.3055 C   0  0  0  0  0  0  0  0  0  0  0  0
  -16.4135   28.5000    0.2300 C   0  0  0  0  0  0  0  0  0  0  0  0
  -15.8157   27.2442    0.3420 C   0  0  0  0  0  0  0  0  0  0  0  0
  -16.5943   26.1104    0.5293 C   0  0  0  0  0  0  0  0  0  0  0  0
  -14.6111   24.7053    0.1703 C   0  0  0  0  0  0  0  0  0  0  0  0
  -13.4720   24.9146    1.2233 C   0  0  0  0  0  0  0  0  0  0  0  0
  -12.1036   24.2815    0.7966 C   0  0  0  0  0  0  0  0  0  0  0  0
  -11.8262   22.8865    1.2243 N   0  3  0  0  0  0  0  0  0  0  0  0
  -13.0305   22.0269    1.0902 C   0  0  0  0  0  0  0  0  0  0  0  0
  -11.2792   22.8611    2.6251 C   0  0  0  0  0  0  0  0  0  0  0  0
  -15.0637   22.4536    4.8224 C   0  0  0  0  0  0  0  0  0  0  0  0
  -13.5743   22.6790    4.7246 C   0  0  0  0  0  0  0  0  0  0  0  0
  -15.4993   21.8351    5.7804 O   0  0  0  0  0  0  0  0  0  0  0  0
  1  7  1  0  0  0  0
  1  9  1  0  0  0  0
  2  8  1  0  0  0  0
  2 14  1  0  0  0  0
  2 15  1  0  0  0  0
  3  4  2  0  0  0  0
  3  8  1  0  0  0  0
  4  5  1  0  0  0  0
  4 21  1  0  0  0  0
  5  6  2  0  0  0  0
  6  7  1  0  0  0  0
  7  8  2  0  0  0  0
  9 10  2  0  0  0  0
  9 14  1  0  0  0  0
 10 11  1  0  0  0  0
 11 12  2  0  0  0  0
 12 13  1  0  0  0  0
 13 14  2  0  0  0  0
 15 16  1  0  0  0  0
 16 17  1  0  0  0  0
 17 18  1  0  0  0  0
 18 19  1  0  0  0  0
 18 20  1  0  0  0  0
 21 22  1  0  0  0  0
 21 23  2  0  0  0  0
M  CHG  1  18   1
M  END
>  <CHROM.1>
-51.03907170,5.90103782,161.72940897,-91.35247346,161.24898590,-15.73091395
24.46479770,1.86682532,2.36626861,0.21478953,-0.78008927

>  <Name>


>  <RI>
0

>  <Rbt.Current_Directory>
/home/itssahil/PROJECTS/Mol_Feturizer/New_Systems/rnas/1lvj

>  <Rbt.Executable>
rbdock ($Id: //depot/dev/client3/rdock/2013.1/src/exe/rbdock.cxx#4 $)

>  <Rbt.Library>
libRbt.so (2013.1, Build901 2013/11/27)

>  <Rbt.Parameter_File>
/export/apps/rDock/src/rDock_2013.1_src/data/scripts/dock_solv.prm

>  <Rbt.Receptor>
prm/blind_docking_80.prm

>  <SCORE>
-24.6601

>  <SCORE.INTER>
-25.2265

>  <SCORE.INTER.CONST>
1

>  <SCORE.INTER.POLAR>
0

>  <SCORE.INTER.ROT>
5

>  <SCORE.INTER.SOLV>
15.51

>  <SCORE.INTER.VDW>
-28.921

>  <SCORE.INTER.norm>
-1.0968

>  <SCORE.INTRA>
0.566375

>  <SCORE.INTRA.DIHEDRAL>
-2.19985

>  <SCORE.INTRA.DIHEDRAL.0>
8.06479

>  <SCORE.INTRA.POLAR>
0

>  <SCORE.INTRA.POLAR.0>
0

>  <SCORE.INTRA.REPUL>
0

>  <SCORE.INTRA.REPUL.0>
0

>  <SCORE.INTRA.SOLV>
-0.277024

>  <SCORE.INTRA.SOLV.lig_0>
-29.8054

>  <SCORE.INTRA.VDW>
1.80481

>  <SCORE.INTRA.VDW.0>
2.61447

>  <SCORE.INTRA.norm>
0.024625

>  <SCORE.RESTR>
0

>  <SCORE.RESTR.CAVITY>
0

>  <SCORE.RESTR.norm>
0

>  <SCORE.SYSTEM>
0

>  <SCORE.SYSTEM.CONST>
0

>  <SCORE.SYSTEM.DIHEDRAL>
0

>  <SCORE.SYSTEM.SOLV>
0

>  <SCORE.SYSTEM.norm>
0

>  <SCORE.heavy>
23

>  <SCORE.norm>
-1.07218

>  <RMSD>
21.139

$$$$

 OpenBabel11021811403D
libRbt.so/2013.1/901 2013/11/27
 23 25  0  0  0  0  0  0  0  0999 V2000
  -18.2921   24.1468    0.9417 S   0  0  0  0  0  0  0  0  0  0  0  0
  -15.4922   25.1493    0.7830 N   0  0  0  0  0  0  0  0  0  0  0  0
  -14.6961   24.1181    2.8120 C   0  0  0  0  0  0  0  0  0  0  0  0
  -14.9562   23.3153    3.9305 C   0  0  0  0  0  0  0  0  0  0  0  0
  -16.2224   22.7710    4.1232 C   0  0  0  0  0  0  0  0  0  0  0  0
  -17.2349   23.0282    3.2054 C   0  0  0  0  0  0  0  0  0  0  0  0
  -16.9885   23.8268    2.0916 C   0  0  0  0  0  0  0  0  0  0  0  0
  -15.7174   24.3768    1.8870 C   0  0  0  0  0  0  0  0  0  0  0  0
  -17.7847   25.8263    0.7494 C   0  0  0  0  0  0  0  0  0  0  0  0
  -18.7416   26.8408    0.6527 C   0  0  0  0  0  0  0  0  0  0  0  0
  -18.3357   28.1691    0.4955 C   0  0  0  0  0  0  0  0  0  0  0  0
  -16.9731   28.4780    0.4312 C   0  0  0  0  0  0  0  0  0  0  0  0
  -16.0232   27.4604    0.5276 C   0  0  0  0  0  0  0  0  0  0  0  0
  -16.4224   26.1407    0.6882 C   0  0  0  0  0  0  0  0  0  0  0  0
  -14.1051   25.4096    0.3244 C   0  0  0  0  0  0  0  0  0  0  0  0
  -12.9782   24.4892    0.9014 C   0  0  0  0  0  0  0  0  0  0  0  0
  -13.0956   22.9958    0.4417 C   0  0  0  0  0  0  0  0  0  0  0  0
  -12.0241   22.0581    0.8643 N   0  3  0  0  0  0  0  0  0  0  0  0
  -11.9754   20.8582   -0.0106 C   0  0  0  0  0  0  0  0  0  0  0  0
  -12.1887   21.6836    2.3116 C   0  0  0  0  0  0  0  0  0  0  0  0
  -13.8724   23.0383    4.9330 C   0  0  0  0  0  0  0  0  0  0  0  0
  -12.5127   23.6872    4.8392 C   0  0  0  0  0  0  0  0  0  0  0  0
  -14.1100   22.3152    5.8874 O   0  0  0  0  0  0  0  0  0  0  0  0
  1  7  1  0  0  0  0
  1  9  1  0  0  0  0
  2  8  1  0  0  0  0
  2 14  1  0  0  0  0
  2 15  1  0  0  0  0
  3  4  2  0  0  0  0
  3  8  1  0  0  0  0
  4  5  1  0  0  0  0
  4 21  1  0  0  0  0
  5  6  2  0  0  0  0
  6  7  1  0  0  0  0
  7  8  2  0  0  0  0
  9 10  2  0  0  0  0
  9 14  1  0  0  0  0
 10 11  1  0  0  0  0
 11 12  2  0  0  0  0
 12 13  1  0  0  0  0
 13 14  2  0  0  0  0
 15 16  1  0  0  0  0
 16 17  1  0  0  0  0
 17 18  1  0  0  0  0
 18 19  1  0  0  0  0
 18 20  1  0  0  0  0
 21 22  1  0  0  0  0
 21 23  2  0  0  0  0
M  CHG  1  18   1
M  END
>  <CHROM.1>
15.55763732,4.78226031,66.29640251,176.17581801,-39.13672133,-15.30846678
24.27104218,1.86277020,2.51253342,0.50194217,-1.05514556

>  <Name>


>  <RI>
0

>  <Rbt.Current_Directory>
/home/itssahil/PROJECTS/Mol_Feturizer/New_Systems/rnas/1lvj

>  <Rbt.Executable>
rbdock ($Id: //depot/dev/client3/rdock/2013.1/src/exe/rbdock.cxx#4 $)

>  <Rbt.Library>
libRbt.so (2013.1, Build901 2013/11/27)

>  <Rbt.Parameter_File>
/export/apps/rDock/src/rDock_2013.1_src/data/scripts/dock_solv.prm

>  <Rbt.Receptor>
prm/blind_docking_40.prm

>  <SCORE>
-24.6027

>  <SCORE.INTER>
-25.6725

>  <SCORE.INTER.CONST>
1

>  <SCORE.INTER.POLAR>
0

>  <SCORE.INTER.ROT>
5

>  <SCORE.INTER.SOLV>
13.1067

>  <SCORE.INTER.VDW>
-28.4172

>  <SCORE.INTER.norm>
-1.1162

>  <SCORE.INTRA>
0.998892

>  <SCORE.INTRA.DIHEDRAL>
-5.60688

>  <SCORE.INTRA.DIHEDRAL.0>
8.06479

>  <SCORE.INTRA.POLAR>
0

>  <SCORE.INTRA.POLAR.0>
0

>  <SCORE.INTRA.REPUL>
0

>  <SCORE.INTRA.REPUL.0>
0

>  <SCORE.INTRA.SOLV>
0.853061

>  <SCORE.INTRA.SOLV.lig_0>
-29.8054

>  <SCORE.INTRA.VDW>
3.3758

>  <SCORE.INTRA.VDW.0>
2.61447

>  <SCORE.INTRA.norm>
0.0434301

>  <SCORE.RESTR>
0.0708728

>  <SCORE.RESTR.CAVITY>
0.0708728

>  <SCORE.RESTR.norm>
0.00308143

>  <SCORE.SYSTEM>
0

>  <SCORE.SYSTEM.CONST>
0

>  <SCORE.SYSTEM.DIHEDRAL>
0

>  <SCORE.SYSTEM.SOLV>
0

>  <SCORE.SYSTEM.norm>
0

>  <SCORE.heavy>
23

>  <SCORE.norm>
-1.06968

>  <RMSD>
21.144

$$$$

 OpenBabel11021811403D
libRbt.so/2013.1/901 2013/11/27
 23 25  0  0  0  0  0  0  0  0999 V2000
  -13.2370   23.2598    3.9030 S   0  0  0  0  0  0  0  0  0  0  0  0
  -14.0675   24.5448    1.3479 N   0  0  0  0  0  0  0  0  0  0  0  0
  -16.4409   24.2075    1.6080 C   0  0  0  0  0  0  0  0  0  0  0  0
  -17.5048   23.7188    2.3775 C   0  0  0  0  0  0  0  0  0  0  0  0
  -17.2599   23.1035    3.6014 C   0  0  0  0  0  0  0  0  0  0  0  0
  -15.9543   22.9687    4.0609 C   0  0  0  0  0  0  0  0  0  0  0  0
  -14.8889   23.4485    3.3033 C   0  0  0  0  0  0  0  0  0  0  0  0
  -15.1249   24.0715    2.0720 C   0  0  0  0  0  0  0  0  0  0  0  0
  -12.6357   22.8773    2.2884 C   0  0  0  0  0  0  0  0  0  0  0  0
  -11.6686   21.8824    2.1181 C   0  0  0  0  0  0  0  0  0  0  0  0
  -11.1913   21.5860    0.8382 C   0  0  0  0  0  0  0  0  0  0  0  0
  -11.6803   22.2891   -0.2676 C   0  0  0  0  0  0  0  0  0  0  0  0
  -12.6450   23.2815   -0.0905 C   0  0  0  0  0  0  0  0  0  0  0  0
  -13.1246   23.5756    1.1784 C   0  0  0  0  0  0  0  0  0  0  0  0
  -14.2873   25.5398    0.2692 C   0  0  0  0  0  0  0  0  0  0  0  0
  -15.1264   26.8107    0.6306 C   0  0  0  0  0  0  0  0  0  0  0  0
  -16.6144   26.7349    0.1455 C   0  0  0  0  0  0  0  0  0  0  0  0
  -17.5229   27.8445    0.5319 N   0  3  0  0  0  0  0  0  0  0  0  0
  -16.9637   29.1653    0.1443 C   0  0  0  0  0  0  0  0  0  0  0  0
  -17.8369   27.7843    2.0016 C   0  0  0  0  0  0  0  0  0  0  0  0
  -18.9184   23.8509    1.8868 C   0  0  0  0  0  0  0  0  0  0  0  0
  -19.3079   24.8622    0.8359 C   0  0  0  0  0  0  0  0  0  0  0  0
  -19.7707   23.0815    2.3014 O   0  0  0  0  0  0  0  0  0  0  0  0
  1  7  1  0  0  0  0
  1  9  1  0  0  0  0
  2  8  1  0  0  0  0
  2 14  1  0  0  0  0
  2 15  1  0  0  0  0
  3  4  2  0  0  0  0
  3  8  1  0  0  0  0
  4  5  1  0  0  0  0
  4 21  1  0  0  0  0
  5  6  2  0  0  0  0
  6  7  1  0  0  0  0
  7  8  2  0  0  0  0
  9 10  2  0  0  0  0
  9 14  1  0  0  0  0
 10 11  1  0  0  0  0
 11 12  2  0  0  0  0
 12 13  1  0  0  0  0
 13 14  2  0  0  0  0
 15 16  1  0  0  0  0
 16 17  1  0  0  0  0
 17 18  1  0  0  0  0
 18 19  1  0  0  0  0
 18 20  1  0  0  0  0
 21 22  1  0  0  0  0
 21 23  2  0  0  0  0
M  CHG  1  18   1
M  END
>  <CHROM.1>
50.87802540,-20.32316880,-100.70548895,175.30548065,173.53661285,-15.35746044
24.40059674,1.70944505,0.53159816,-0.25649964,2.57409953

>  <Name>


>  <RI>
0

>  <Rbt.Current_Directory>
/home/itssahil/PROJECTS/Mol_Feturizer/New_Systems/rnas/1lvj

>  <Rbt.Executable>
rbdock ($Id: //depot/dev/client3/rdock/2013.1/src/exe/rbdock.cxx#4 $)

>  <Rbt.Library>
libRbt.so (2013.1, Build901 2013/11/27)

>  <Rbt.Parameter_File>
/export/apps/rDock/src/rDock_2013.1_src/data/scripts/dock_solv.prm

>  <Rbt.Receptor>
prm/blind_docking_40.prm

>  <SCORE>
-30.2382

>  <SCORE.INTER>
-29.3629

>  <SCORE.INTER.CONST>
1

>  <SCORE.INTER.POLAR>
0

>  <SCORE.INTER.ROT>
5

>  <SCORE.INTER.SOLV>
10.989

>  <SCORE.INTER.VDW>
-30.1716

>  <SCORE.INTER.norm>
-1.27665

>  <SCORE.INTRA>
-1.16951

>  <SCORE.INTRA.DIHEDRAL>
-1.57944

>  <SCORE.INTRA.DIHEDRAL.0>
8.06479

>  <SCORE.INTRA.POLAR>
0

>  <SCORE.INTRA.POLAR.0>
0

>  <SCORE.INTRA.REPUL>
0

>  <SCORE.INTRA.REPUL.0>
0

>  <SCORE.INTRA.SOLV>
1.12783

>  <SCORE.INTRA.SOLV.lig_0>
-29.8054

>  <SCORE.INTRA.VDW>
-0.943708

>  <SCORE.INTRA.VDW.0>
2.61447

>  <SCORE.INTRA.norm>
-0.0508483

>  <SCORE.RESTR>
0.294227

>  <SCORE.RESTR.CAVITY>
0.294227

>  <SCORE.RESTR.norm>
0.0127925

>  <SCORE.SYSTEM>
0

>  <SCORE.SYSTEM.CONST>
0

>  <SCORE.SYSTEM.DIHEDRAL>
0

>  <SCORE.SYSTEM.SOLV>
0

>  <SCORE.SYSTEM.norm>
0

>  <SCORE.heavy>
23

>  <SCORE.norm>
-1.31471

>  <RMSD>
21.155

$$$$

 OpenBabel11021811403D
libRbt.so/2013.1/901 2013/11/27
 23 25  0  0  0  0  0  0  0  0999 V2000
  -12.9648   23.9742    0.9588 S   0  0  0  0  0  0  0  0  0  0  0  0
  -15.7490   23.5832    1.9408 N   0  0  0  0  0  0  0  0  0  0  0  0
  -16.5554   25.7964    1.4254 C   0  0  0  0  0  0  0  0  0  0  0  0
  -16.3046   27.0717    0.9023 C   0  0  0  0  0  0  0  0  0  0  0  0
  -15.0466   27.3875    0.3981 C   0  0  0  0  0  0  0  0  0  0  0  0
  -14.0328   26.4359    0.4174 C   0  0  0  0  0  0  0  0  0  0  0  0
  -14.2699   25.1659    0.9373 C   0  0  0  0  0  0  0  0  0  0  0  0
  -15.5328   24.8373    1.4444 C   0  0  0  0  0  0  0  0  0  0  0  0
  -13.4463   23.3942    2.5546 C   0  0  0  0  0  0  0  0  0  0  0  0
  -12.4739   23.0638    3.5031 C   0  0  0  0  0  0  0  0  0  0  0  0
  -12.8594   22.6000    4.7641 C   0  0  0  0  0  0  0  0  0  0  0  0
  -14.2172   22.4641    5.0711 C   0  0  0  0  0  0  0  0  0  0  0  0
  -15.1826   22.7949    4.1194 C   0  0  0  0  0  0  0  0  0  0  0  0
  -14.8037   23.2600    2.8677 C   0  0  0  0  0  0  0  0  0  0  0  0
  -17.1332   23.0752    2.1087 C   0  0  0  0  0  0  0  0  0  0  0  0
  -17.9252   23.5645    3.3670 C   0  0  0  0  0  0  0  0  0  0  0  0
  -19.3595   24.0996    3.0326 C   0  0  0  0  0  0  0  0  0  0  0  0
  -20.0930   24.8217    4.1033 N   0  3  0  0  0  0  0  0  0  0  0  0
  -21.4998   25.0938    3.7104 C   0  0  0  0  0  0  0  0  0  0  0  0
  -19.3685   26.0839    4.4829 C   0  0  0  0  0  0  0  0  0  0  0  0
  -17.3897   28.1103    0.8847 C   0  0  0  0  0  0  0  0  0  0  0  0
  -18.7711   27.8316    1.4259 C   0  0  0  0  0  0  0  0  0  0  0  0
  -17.1375   29.2331    0.4773 O   0  0  0  0  0  0  0  0  0  0  0  0
  1  7  1  0  0  0  0
  1  9  1  0  0  0  0
  2  8  1  0  0  0  0
  2 14  1  0  0  0  0
  2 15  1  0  0  0  0
  3  4  2  0  0  0  0
  3  8  1  0  0  0  0
  4  5  1  0  0  0  0
  4 21  1  0  0  0  0
  5  6  2  0  0  0  0
  6  7  1  0  0  0  0
  7  8  2  0  0  0  0
  9 10  2  0  0  0  0
  9 14  1  0  0  0  0
 10 11  1  0  0  0  0
 11 12  2  0  0  0  0
 12 13  1  0  0  0  0
 13 14  2  0  0  0  0
 15 16  1  0  0  0  0
 16 17  1  0  0  0  0
 17 18  1  0  0  0  0
 18 19  1  0  0  0  0
 18 20  1  0  0  0  0
 21 22  1  0  0  0  0
 21 23  2  0  0  0  0
M  CHG  1  18   1
M  END
>  <CHROM.1>
-79.20400817,0.26731166,130.58584656,-168.63945107,-51.78865266,-16.12625296
24.92773943,2.33197450,-0.35308129,0.29212321,-0.66098001

>  <Name>


>  <RI>
0

>  <Rbt.Current_Directory>
/home/itssahil/PROJECTS/Mol_Feturizer/New_Systems/rnas/1lvj

>  <Rbt.Executable>
rbdock ($Id: //depot/dev/client3/rdock/2013.1/src/exe/rbdock.cxx#4 $)

>  <Rbt.Library>
libRbt.so (2013.1, Build901 2013/11/27)

>  <Rbt.Parameter_File>
/export/apps/rDock/src/rDock_2013.1_src/data/scripts/dock_solv.prm

>  <Rbt.Receptor>
prm/blind_docking_60.prm

>  <SCORE>
-29.8275

>  <SCORE.INTER>
-27.017

>  <SCORE.INTER.CONST>
1

>  <SCORE.INTER.POLAR>
0

>  <SCORE.INTER.ROT>
5

>  <SCORE.INTER.SOLV>
12.6457

>  <SCORE.INTER.VDW>
-29.1599

>  <SCORE.INTER.norm>
-1.17465

>  <SCORE.INTRA>
-2.81056

>  <SCORE.INTRA.DIHEDRAL>
-2.05779

>  <SCORE.INTRA.DIHEDRAL.0>
8.06479

>  <SCORE.INTRA.POLAR>
0

>  <SCORE.INTRA.POLAR.0>
0

>  <SCORE.INTRA.REPUL>
0

>  <SCORE.INTRA.REPUL.0>
0

>  <SCORE.INTRA.SOLV>
0.353404

>  <SCORE.INTRA.SOLV.lig_0>
-29.8054

>  <SCORE.INTRA.VDW>
-1.95837

>  <SCORE.INTRA.VDW.0>
2.61447

>  <SCORE.INTRA.norm>
-0.122198

>  <SCORE.RESTR>
0

>  <SCORE.RESTR.CAVITY>
0

>  <SCORE.RESTR.norm>
0

>  <SCORE.SYSTEM>
0

>  <SCORE.SYSTEM.CONST>
0

>  <SCORE.SYSTEM.DIHEDRAL>
0

>  <SCORE.SYSTEM.SOLV>
0

>  <SCORE.SYSTEM.norm>
0

>  <SCORE.heavy>
23

>  <SCORE.norm>
-1.29685

>  <RMSD>
21.156

$$$$

 OpenBabel11021811403D
libRbt.so/2013.1/901 2013/11/27
 23 25  0  0  0  0  0  0  0  0999 V2000
  -17.9716   24.0209    1.1217 S   0  0  0  0  0  0  0  0  0  0  0  0
  -15.0378   24.4797    0.8949 N   0  0  0  0  0  0  0  0  0  0  0  0
  -14.4222   23.4906    3.0060 C   0  0  0  0  0  0  0  0  0  0  0  0
  -14.8128   22.8430    4.1855 C   0  0  0  0  0  0  0  0  0  0  0  0
  -16.1549   22.5564    4.4162 C   0  0  0  0  0  0  0  0  0  0  0  0
  -17.1129   22.9177    3.4752 C   0  0  0  0  0  0  0  0  0  0  0  0
  -16.7365   23.5639    2.3005 C   0  0  0  0  0  0  0  0  0  0  0  0
  -15.3886   23.8544    2.0577 C   0  0  0  0  0  0  0  0  0  0  0  0
  -17.1689   25.5582    0.7942 C   0  0  0  0  0  0  0  0  0  0  0  0
  -17.9260   26.7188    0.6094 C   0  0  0  0  0  0  0  0  0  0  0  0
  -17.2866   27.9334    0.3452 C   0  0  0  0  0  0  0  0  0  0  0  0
  -15.8912   27.9824    0.2625 C   0  0  0  0  0  0  0  0  0  0  0  0
  -15.1416   26.8201    0.4472 C   0  0  0  0  0  0  0  0  0  0  0  0
  -15.7727   25.6129    0.7141 C   0  0  0  0  0  0  0  0  0  0  0  0
  -13.6311   24.4443    0.4234 C   0  0  0  0  0  0  0  0  0  0  0  0
  -12.5166   24.7485    1.4794 C   0  0  0  0  0  0  0  0  0  0  0  0
  -11.1602   24.0224    1.1821 C   0  0  0  0  0  0  0  0  0  0  0  0
  -11.1788   22.5407    1.0824 N   0  3  0  0  0  0  0  0  0  0  0  0
  -11.8298   22.0884   -0.1743 C   0  0  0  0  0  0  0  0  0  0  0  0
  -11.8324   21.9365    2.2947 C   0  0  0  0  0  0  0  0  0  0  0  0
  -13.7875   22.4563    5.2129 C   0  0  0  0  0  0  0  0  0  0  0  0
  -12.4180   23.0899    5.2526 C   0  0  0  0  0  0  0  0  0  0  0  0
  -14.0836   21.6504    6.0807 O   0  0  0  0  0  0  0  0  0  0  0  0
  1  7  1  0  0  0  0
  1  9  1  0  0  0  0
  2  8  1  0  0  0  0
  2 14  1  0  0  0  0
  2 15  1  0  0  0  0
  3  4  2  0  0  0  0
  3  8  1  0  0  0  0
  4  5  1  0  0  0  0
  4 21  1  0  0  0  0
  5  6  2  0  0  0  0
  6  7  1  0  0  0  0
  7  8  2  0  0  0  0
  9 10  2  0  0  0  0
  9 14  1  0  0  0  0
 10 11  1  0  0  0  0
 11 12  2  0  0  0  0
 12 13  1  0  0  0  0
 13 14  2  0  0  0  0
 15 16  1  0  0  0  0
 16 17  1  0  0  0  0
 17 18  1  0  0  0  0
 18 19  1  0  0  0  0
 18 20  1  0  0  0  0
 21 22  1  0  0  0  0
 21 23  2  0  0  0  0
M  CHG  1  18   1
M  END
>  <CHROM.1>
-46.26918567,19.22432762,150.45740480,-57.79180945,-167.51190146,-14.82036266
24.07768890,2.02483361,2.38542993,0.28115950,-0.91868282

>  <Name>


>  <RI>
0

>  <Rbt.Current_Directory>
/home/itssahil/PROJECTS/Mol_Feturizer/New_Systems/rnas/1lvj

>  <Rbt.Executable>
rbdock ($Id: //depot/dev/client3/rdock/2013.1/src/exe/rbdock.cxx#4 $)

>  <Rbt.Library>
libRbt.so (2013.1, Build901 2013/11/27)

>  <Rbt.Parameter_File>
/export/apps/rDock/src/rDock_2013.1_src/data/scripts/dock_solv.prm

>  <Rbt.Receptor>
prm/blind_docking_40.prm

>  <SCORE>
-24.3091

>  <SCORE.INTER>
-25.5169

>  <SCORE.INTER.CONST>
1

>  <SCORE.INTER.POLAR>
0

>  <SCORE.INTER.ROT>
5

>  <SCORE.INTER.SOLV>
14.1729

>  <SCORE.INTER.VDW>
-28.6689

>  <SCORE.INTER.norm>
-1.10943

>  <SCORE.INTRA>
1.15147

>  <SCORE.INTRA.DIHEDRAL>
-2.92103

>  <SCORE.INTRA.DIHEDRAL.0>
8.06479

>  <SCORE.INTRA.POLAR>
0

>  <SCORE.INTRA.POLAR.0>
0

>  <SCORE.INTRA.REPUL>
0

>  <SCORE.INTRA.REPUL.0>
0

>  <SCORE.INTRA.SOLV>
-0.0904056

>  <SCORE.INTRA.SOLV.lig_0>
-29.8054

>  <SCORE.INTRA.VDW>
2.65719

>  <SCORE.INTRA.VDW.0>
2.61447

>  <SCORE.INTRA.norm>
0.0500639

>  <SCORE.RESTR>
0.0564171

>  <SCORE.RESTR.CAVITY>
0.0564171

>  <SCORE.RESTR.norm>
0.00245292

>  <SCORE.SYSTEM>
0

>  <SCORE.SYSTEM.CONST>
0

>  <SCORE.SYSTEM.DIHEDRAL>
0

>  <SCORE.SYSTEM.SOLV>
0

>  <SCORE.SYSTEM.norm>
0

>  <SCORE.heavy>
23

>  <SCORE.norm>
-1.05692

>  <RMSD>
21.165

$$$$

 OpenBabel11021811403D
libRbt.so/2013.1/901 2013/11/27
 23 25  0  0  0  0  0  0  0  0999 V2000
  -13.6887   22.9185    3.9084 S   0  0  0  0  0  0  0  0  0  0  0  0
  -14.4625   24.8979    1.8222 N   0  0  0  0  0  0  0  0  0  0  0  0
  -16.8494   24.6307    2.0353 C   0  0  0  0  0  0  0  0  0  0  0  0
  -17.9341   24.0077    2.6665 C   0  0  0  0  0  0  0  0  0  0  0  0
  -17.7161   23.0680    3.6694 C   0  0  0  0  0  0  0  0  0  0  0  0
  -16.4171   22.7421    4.0440 C   0  0  0  0  0  0  0  0  0  0  0  0
  -15.3314   23.3532    3.4218 C   0  0  0  0  0  0  0  0  0  0  0  0
  -15.5401   24.3019    2.4136 C   0  0  0  0  0  0  0  0  0  0  0  0
  -13.1231   22.9618    2.2372 C   0  0  0  0  0  0  0  0  0  0  0  0
  -12.2168   22.0011    1.7789 C   0  0  0  0  0  0  0  0  0  0  0  0
  -11.7674   22.0419    0.4559 C   0  0  0  0  0  0  0  0  0  0  0  0
  -12.2230   23.0467   -0.4038 C   0  0  0  0  0  0  0  0  0  0  0  0
  -13.1270   24.0029    0.0604 C   0  0  0  0  0  0  0  0  0  0  0  0
  -13.5790   23.9631    1.3722 C   0  0  0  0  0  0  0  0  0  0  0  0
  -14.6322   26.1611    1.0620 C   0  0  0  0  0  0  0  0  0  0  0  0
  -15.9833   26.3574    0.2966 C   0  0  0  0  0  0  0  0  0  0  0  0
  -16.4504   27.8515    0.2280 C   0  0  0  0  0  0  0  0  0  0  0  0
  -17.8875   28.1365    0.4717 N   0  3  0  0  0  0  0  0  0  0  0  0
  -18.7153   27.8145   -0.7194 C   0  0  0  0  0  0  0  0  0  0  0  0
  -18.0775   29.5624    0.9107 C   0  0  0  0  0  0  0  0  0  0  0  0
  -19.3413   24.3453    2.2635 C   0  0  0  0  0  0  0  0  0  0  0  0
  -19.6511   25.0755    0.9792 C   0  0  0  0  0  0  0  0  0  0  0  0
  -20.2704   23.9691    2.9603 O   0  0  0  0  0  0  0  0  0  0  0  0
  1  7  1  0  0  0  0
  1  9  1  0  0  0  0
  2  8  1  0  0  0  0
  2 14  1  0  0  0  0
  2 15  1  0  0  0  0
  3  4  2  0  0  0  0
  3  8  1  0  0  0  0
  4  5  1  0  0  0  0
  4 21  1  0  0  0  0
  5  6  2  0  0  0  0
  6  7  1  0  0  0  0
  7  8  2  0  0  0  0
  9 10  2  0  0  0  0
  9 14  1  0  0  0  0
 10 11  1  0  0  0  0
 11 12  2  0  0  0  0
 12 13  1  0  0  0  0
 13 14  2  0  0  0  0
 15 16  1  0  0  0  0
 16 17  1  0  0  0  0
 17 18  1  0  0  0  0
 18 19  1  0  0  0  0
 18 20  1  0  0  0  0
 21 22  1  0  0  0  0
 21 23  2  0  0  0  0
M  CHG  1  18   1
M  END
>  <CHROM.1>
-33.18476386,15.37018766,147.24551202,-137.00124244,42.25663223,-15.84512720
24.66116726,1.74096006,0.58238016,-0.29601250,2.48863034

>  <Name>


>  <RI>
0

>  <Rbt.Current_Directory>
/home/itssahil/PROJECTS/Mol_Feturizer/New_Systems/rnas/1lvj

>  <Rbt.Executable>
rbdock ($Id: //depot/dev/client3/rdock/2013.1/src/exe/rbdock.cxx#4 $)

>  <Rbt.Library>
libRbt.so (2013.1, Build901 2013/11/27)

>  <Rbt.Parameter_File>
/export/apps/rDock/src/rDock_2013.1_src/data/scripts/dock_solv.prm

>  <Rbt.Receptor>
prm/blind_docking_40.prm

>  <SCORE>
-21.7605

>  <SCORE.INTER>
-27.7416

>  <SCORE.INTER.CONST>
1

>  <SCORE.INTER.POLAR>
0

>  <SCORE.INTER.ROT>
5

>  <SCORE.INTER.SOLV>
10.2107

>  <SCORE.INTER.VDW>
-28.8313

>  <SCORE.INTER.norm>
-1.20616

>  <SCORE.INTRA>
5.98112

>  <SCORE.INTRA.DIHEDRAL>
2.79381

>  <SCORE.INTRA.DIHEDRAL.0>
8.06479

>  <SCORE.INTRA.POLAR>
0

>  <SCORE.INTRA.POLAR.0>
0

>  <SCORE.INTRA.REPUL>
0

>  <SCORE.INTRA.REPUL.0>
0

>  <SCORE.INTRA.SOLV>
4.09947

>  <SCORE.INTRA.SOLV.lig_0>
-29.8054

>  <SCORE.INTRA.VDW>
2.53448

>  <SCORE.INTRA.VDW.0>
2.61447

>  <SCORE.INTRA.norm>
0.260049

>  <SCORE.RESTR>
0

>  <SCORE.RESTR.CAVITY>
0

>  <SCORE.RESTR.norm>
0

>  <SCORE.SYSTEM>
0

>  <SCORE.SYSTEM.CONST>
0

>  <SCORE.SYSTEM.DIHEDRAL>
0

>  <SCORE.SYSTEM.SOLV>
0

>  <SCORE.SYSTEM.norm>
0

>  <SCORE.heavy>
23

>  <SCORE.norm>
-0.946109

>  <RMSD>
21.170

$$$$

 OpenBabel11021811403D
libRbt.so/2013.1/901 2013/11/27
 23 25  0  0  0  0  0  0  0  0999 V2000
  -17.9736   24.0475    0.9195 S   0  0  0  0  0  0  0  0  0  0  0  0
  -15.1308   24.9218    0.7669 N   0  0  0  0  0  0  0  0  0  0  0  0
  -14.4037   23.9177    2.8350 C   0  0  0  0  0  0  0  0  0  0  0  0
  -14.7115   23.1606    3.9731 C   0  0  0  0  0  0  0  0  0  0  0  0
  -16.0025   22.6780    4.1657 C   0  0  0  0  0  0  0  0  0  0  0  0
  -16.9923   22.9517    3.2281 C   0  0  0  0  0  0  0  0  0  0  0  0
  -16.6984   23.7053    2.0945 C   0  0  0  0  0  0  0  0  0  0  0  0
  -15.4021   24.1931    1.8900 C   0  0  0  0  0  0  0  0  0  0  0  0
  -17.3908   25.6968    0.6846 C   0  0  0  0  0  0  0  0  0  0  0  0
  -18.3010   26.7488    0.5463 C   0  0  0  0  0  0  0  0  0  0  0  0
  -17.8354   28.0528    0.3555 C   0  0  0  0  0  0  0  0  0  0  0  0
  -16.4599   28.3000    0.2994 C   0  0  0  0  0  0  0  0  0  0  0  0
  -15.5568   27.2453    0.4374 C   0  0  0  0  0  0  0  0  0  0  0  0
  -16.0153   25.9496    0.6315 C   0  0  0  0  0  0  0  0  0  0  0  0
  -13.7285   25.1076    0.3184 C   0  0  0  0  0  0  0  0  0  0  0  0
  -12.9887   23.8511   -0.2506 C   0  0  0  0  0  0  0  0  0  0  0  0
  -12.9429   22.6470    0.7510 C   0  0  0  0  0  0  0  0  0  0  0  0
  -11.7517   21.7609    0.7098 N   0  3  0  0  0  0  0  0  0  0  0  0
  -12.0718   20.3963    1.2028 C   0  0  0  0  0  0  0  0  0  0  0  0
  -10.6096   22.3732    1.4731 C   0  0  0  0  0  0  0  0  0  0  0  0
  -13.6523   22.8666    4.9969 C   0  0  0  0  0  0  0  0  0  0  0  0
  -12.2357   23.3658    4.8466 C   0  0  0  0  0  0  0  0  0  0  0  0
  -13.9527   22.2579    6.0115 O   0  0  0  0  0  0  0  0  0  0  0  0
  1  7  1  0  0  0  0
  1  9  1  0  0  0  0
  2  8  1  0  0  0  0
  2 14  1  0  0  0  0
  2 15  1  0  0  0  0
  3  4  2  0  0  0  0
  3  8  1  0  0  0  0
  4  5  1  0  0  0  0
  4 21  1  0  0  0  0
  5  6  2  0  0  0  0
  6  7  1  0  0  0  0
  7  8  2  0  0  0  0
  9 10  2  0  0  0  0
  9 14  1  0  0  0  0
 10 11  1  0  0  0  0
 11 12  2  0  0  0  0
 12 13  1  0  0  0  0
 13 14  2  0  0  0  0
 15 16  1  0  0  0  0
 16 17  1  0  0  0  0
 17 18  1  0  0  0  0
 18 19  1  0  0  0  0
 18 20  1  0  0  0  0
 21 22  1  0  0  0  0
 21 23  2  0  0  0  0
M  CHG  1  18   1
M  END
>  <CHROM.1>
69.86418015,0.01925480,-57.09928616,-147.23933500,-34.16247354,-14.96537297
24.10043992,1.82185008,2.48582940,0.47482015,-1.02722490

>  <Name>


>  <RI>
0

>  <Rbt.Current_Directory>
/home/itssahil/PROJECTS/Mol_Feturizer/New_Systems/rnas/1lvj

>  <Rbt.Executable>
rbdock ($Id: //depot/dev/client3/rdock/2013.1/src/exe/rbdock.cxx#4 $)

>  <Rbt.Library>
libRbt.so (2013.1, Build901 2013/11/27)

>  <Rbt.Parameter_File>
/export/apps/rDock/src/rDock_2013.1_src/data/scripts/dock_solv.prm

>  <Rbt.Receptor>
prm/blind_docking_40.prm

>  <SCORE>
-29.743

>  <SCORE.INTER>
-26.472

>  <SCORE.INTER.CONST>
1

>  <SCORE.INTER.POLAR>
0

>  <SCORE.INTER.ROT>
5

>  <SCORE.INTER.SOLV>
14.475

>  <SCORE.INTER.VDW>
-29.4063

>  <SCORE.INTER.norm>
-1.15095

>  <SCORE.INTRA>
-3.27527

>  <SCORE.INTRA.DIHEDRAL>
-2.82256

>  <SCORE.INTRA.DIHEDRAL.0>
8.06479

>  <SCORE.INTRA.POLAR>
0

>  <SCORE.INTRA.POLAR.0>
0

>  <SCORE.INTRA.REPUL>
0

>  <SCORE.INTRA.REPUL.0>
0

>  <SCORE.INTRA.SOLV>
0.770906

>  <SCORE.INTRA.SOLV.lig_0>
-29.8054

>  <SCORE.INTRA.VDW>
-2.24945

>  <SCORE.INTRA.VDW.0>
2.61447

>  <SCORE.INTRA.norm>
-0.142403

>  <SCORE.RESTR>
0.00422502

>  <SCORE.RESTR.CAVITY>
0.00422502

>  <SCORE.RESTR.norm>
0.000183697

>  <SCORE.SYSTEM>
0

>  <SCORE.SYSTEM.CONST>
0

>  <SCORE.SYSTEM.DIHEDRAL>
0

>  <SCORE.SYSTEM.SOLV>
0

>  <SCORE.SYSTEM.norm>
0

>  <SCORE.heavy>
23

>  <SCORE.norm>
-1.29317

>  <RMSD>
21.172

$$$$

 OpenBabel11021811403D
libRbt.so/2013.1/901 2013/11/27
 23 25  0  0  0  0  0  0  0  0999 V2000
  -13.0752   23.2266    3.9435 S   0  0  0  0  0  0  0  0  0  0  0  0
  -13.8912   24.3660    1.3158 N   0  0  0  0  0  0  0  0  0  0  0  0
  -16.2631   24.0125    1.5666 C   0  0  0  0  0  0  0  0  0  0  0  0
  -17.3301   23.5510    2.3488 C   0  0  0  0  0  0  0  0  0  0  0  0
  -17.0920   23.0035    3.6058 C   0  0  0  0  0  0  0  0  0  0  0  0
  -15.7904   22.9095    4.0862 C   0  0  0  0  0  0  0  0  0  0  0  0
  -14.7221   23.3627    3.3165 C   0  0  0  0  0  0  0  0  0  0  0  0
  -14.9511   23.9177    2.0517 C   0  0  0  0  0  0  0  0  0  0  0  0
  -12.4503   22.7682    2.3579 C   0  0  0  0  0  0  0  0  0  0  0  0
  -11.4692   21.7782    2.2506 C   0  0  0  0  0  0  0  0  0  0  0  0
  -10.9733   21.4216    0.9933 C   0  0  0  0  0  0  0  0  0  0  0  0
  -11.4578   22.0599   -0.1531 C   0  0  0  0  0  0  0  0  0  0  0  0
  -12.4366   23.0478   -0.0388 C   0  0  0  0  0  0  0  0  0  0  0  0
  -12.9346   23.4015    1.2076 C   0  0  0  0  0  0  0  0  0  0  0  0
  -14.1103   25.3006    0.1841 C   0  0  0  0  0  0  0  0  0  0  0  0
  -14.7125   26.7047    0.5244 C   0  0  0  0  0  0  0  0  0  0  0  0
  -16.2609   26.7909    0.2997 C   0  0  0  0  0  0  0  0  0  0  0  0
  -16.9511   28.0351    0.7254 N   0  3  0  0  0  0  0  0  0  0  0  0
  -18.4278   27.8931    0.6431 C   0  0  0  0  0  0  0  0  0  0  0  0
  -16.4613   29.2120   -0.0728 C   0  0  0  0  0  0  0  0  0  0  0  0
  -18.7392   23.6392    1.8361 C   0  0  0  0  0  0  0  0  0  0  0  0
  -19.1859   24.7481    0.9145 C   0  0  0  0  0  0  0  0  0  0  0  0
  -19.5362   22.7594    2.1205 O   0  0  0  0  0  0  0  0  0  0  0  0
  1  7  1  0  0  0  0
  1  9  1  0  0  0  0
  2  8  1  0  0  0  0
  2 14  1  0  0  0  0
  2 15  1  0  0  0  0
  3  4  2  0  0  0  0
  3  8  1  0  0  0  0
  4  5  1  0  0  0  0
  4 21  1  0  0  0  0
  5  6  2  0  0  0  0
  6  7  1  0  0  0  0
  7  8  2  0  0  0  0
  9 10  2  0  0  0  0
  9 14  1  0  0  0  0
 10 11  1  0  0  0  0
 11 12  2  0  0  0  0
 12 13  1  0  0  0  0
 13 14  2  0  0  0  0
 15 16  1  0  0  0  0
 16 17  1  0  0  0  0
 17 18  1  0  0  0  0
 18 19  1  0  0  0  0
 18 20  1  0  0  0  0
 21 22  1  0  0  0  0
 21 23  2  0  0  0  0
M  CHG  1  18   1
M  END
>  <CHROM.1>
62.88643584,-31.53958636,-97.62337170,173.84391713,-51.36942514,-15.15768417
24.29696879,1.66413086,0.59302909,-0.21118182,2.59967143

>  <Name>


>  <RI>
0

>  <Rbt.Current_Directory>
/home/itssahil/PROJECTS/Mol_Feturizer/New_Systems/rnas/1lvj

>  <Rbt.Executable>
rbdock ($Id: //depot/dev/client3/rdock/2013.1/src/exe/rbdock.cxx#4 $)

>  <Rbt.Library>
libRbt.so (2013.1, Build901 2013/11/27)

>  <Rbt.Parameter_File>
/export/apps/rDock/src/rDock_2013.1_src/data/scripts/dock_solv.prm

>  <Rbt.Receptor>
prm/blind_docking_80.prm

>  <SCORE>
-32.7217

>  <SCORE.INTER>
-30.7645

>  <SCORE.INTER.CONST>
1

>  <SCORE.INTER.POLAR>
-0.757001

>  <SCORE.INTER.ROT>
5

>  <SCORE.INTER.SOLV>
16.8266

>  <SCORE.INTER.VDW>
-30.5285

>  <SCORE.INTER.norm>
-1.33759

>  <SCORE.INTRA>
-1.96571

>  <SCORE.INTRA.DIHEDRAL>
0.343155

>  <SCORE.INTRA.DIHEDRAL.0>
8.06479

>  <SCORE.INTRA.POLAR>
0

>  <SCORE.INTRA.POLAR.0>
0

>  <SCORE.INTRA.REPUL>
0

>  <SCORE.INTRA.REPUL.0>
0

>  <SCORE.INTRA.SOLV>
0.577805

>  <SCORE.INTRA.SOLV.lig_0>
-29.8054

>  <SCORE.INTRA.VDW>
-2.42619

>  <SCORE.INTRA.VDW.0>
2.61447

>  <SCORE.INTRA.norm>
-0.0854657

>  <SCORE.RESTR>
0.00847323

>  <SCORE.RESTR.CAVITY>
0.00847323

>  <SCORE.RESTR.norm>
0.000368401

>  <SCORE.SYSTEM>
0

>  <SCORE.SYSTEM.CONST>
0

>  <SCORE.SYSTEM.DIHEDRAL>
0

>  <SCORE.SYSTEM.SOLV>
0

>  <SCORE.SYSTEM.norm>
0

>  <SCORE.heavy>
23

>  <SCORE.norm>
-1.42268

>  <RMSD>
21.181

$$$$

 OpenBabel11021811403D
libRbt.so/2013.1/901 2013/11/27
 23 25  0  0  0  0  0  0  0  0999 V2000
  -12.8839   23.8666    1.5809 S   0  0  0  0  0  0  0  0  0  0  0  0
  -15.8525   23.7229    1.3902 N   0  0  0  0  0  0  0  0  0  0  0  0
  -16.2170   26.0198    0.7536 C   0  0  0  0  0  0  0  0  0  0  0  0
  -15.6824   27.2796    0.4530 C   0  0  0  0  0  0  0  0  0  0  0  0
  -14.3066   27.4847    0.4928 C   0  0  0  0  0  0  0  0  0  0  0  0
  -13.4588   26.4373    0.8364 C   0  0  0  0  0  0  0  0  0  0  0  0
  -13.9792   25.1817    1.1394 C   0  0  0  0  0  0  0  0  0  0  0  0
  -15.3616   24.9642    1.0997 C   0  0  0  0  0  0  0  0  0  0  0  0
  -13.9919   23.2882    2.8271 C   0  0  0  0  0  0  0  0  0  0  0  0
  -13.4938   22.8343    4.0518 C   0  0  0  0  0  0  0  0  0  0  0  0
  -14.3744   22.3723    5.0342 C   0  0  0  0  0  0  0  0  0  0  0  0
  -15.7509   22.3621    4.7866 C   0  0  0  0  0  0  0  0  0  0  0  0
  -16.2413   22.8159    3.5616 C   0  0  0  0  0  0  0  0  0  0  0  0
  -15.3703   23.2795    2.5852 C   0  0  0  0  0  0  0  0  0  0  0  0
  -17.2287   23.3495    0.9796 C   0  0  0  0  0  0  0  0  0  0  0  0
  -18.3961   24.2627    1.4827 C   0  0  0  0  0  0  0  0  0  0  0  0
  -19.1871   23.6555    2.6913 C   0  0  0  0  0  0  0  0  0  0  0  0
  -20.0245   24.5775    3.5003 N   0  3  0  0  0  0  0  0  0  0  0  0
  -20.6621   23.8725    4.6422 C   0  0  0  0  0  0  0  0  0  0  0  0
  -21.0434   25.2653    2.6338 C   0  0  0  0  0  0  0  0  0  0  0  0
  -16.5893   28.4205    0.0895 C   0  0  0  0  0  0  0  0  0  0  0  0
  -18.0908   28.2681    0.0564 C   0  0  0  0  0  0  0  0  0  0  0  0
  -16.1090   29.5214   -0.1286 O   0  0  0  0  0  0  0  0  0  0  0  0
  1  7  1  0  0  0  0
  1  9  1  0  0  0  0
  2  8  1  0  0  0  0
  2 14  1  0  0  0  0
  2 15  1  0  0  0  0
  3  4  2  0  0  0  0
  3  8  1  0  0  0  0
  4  5  1  0  0  0  0
  4 21  1  0  0  0  0
  5  6  2  0  0  0  0
  6  7  1  0  0  0  0
  7  8  2  0  0  0  0
  9 10  2  0  0  0  0
  9 14  1  0  0  0  0
 10 11  1  0  0  0  0
 11 12  2  0  0  0  0
 12 13  1  0  0  0  0
 13 14  2  0  0  0  0
 15 16  1  0  0  0  0
 16 17  1  0  0  0  0
 17 18  1  0  0  0  0
 18 19  1  0  0  0  0
 18 20  1  0  0  0  0
 21 22  1  0  0  0  0
 21 23  2  0  0  0  0
M  CHG  1  18   1
M  END
>  <CHROM.1>
-56.62538181,1.07610397,-102.06070786,162.05618888,-57.47155571,-16.20146970
24.89156247,2.00345791,-0.43560577,-0.15054236,2.52436587

>  <Name>


>  <RI>
0

>  <Rbt.Current_Directory>
/home/itssahil/PROJECTS/Mol_Feturizer/New_Systems/rnas/1lvj

>  <Rbt.Executable>
rbdock ($Id: //depot/dev/client3/rdock/2013.1/src/exe/rbdock.cxx#4 $)

>  <Rbt.Library>
libRbt.so (2013.1, Build901 2013/11/27)

>  <Rbt.Parameter_File>
/export/apps/rDock/src/rDock_2013.1_src/data/scripts/dock_solv.prm

>  <Rbt.Receptor>
prm/blind_docking_60.prm

>  <SCORE>
-23.9508

>  <SCORE.INTER>
-22.512

>  <SCORE.INTER.CONST>
1

>  <SCORE.INTER.POLAR>
0

>  <SCORE.INTER.ROT>
5

>  <SCORE.INTER.SOLV>
13.6157

>  <SCORE.INTER.VDW>
-26.4799

>  <SCORE.INTER.norm>
-0.978782

>  <SCORE.INTRA>
-1.82633

>  <SCORE.INTRA.DIHEDRAL>
-2.02565

>  <SCORE.INTRA.DIHEDRAL.0>
8.06479

>  <SCORE.INTRA.POLAR>
0

>  <SCORE.INTRA.POLAR.0>
0

>  <SCORE.INTRA.REPUL>
0

>  <SCORE.INTRA.REPUL.0>
0

>  <SCORE.INTRA.SOLV>
0.606885

>  <SCORE.INTRA.SOLV.lig_0>
-29.8054

>  <SCORE.INTRA.VDW>
-1.11695

>  <SCORE.INTRA.VDW.0>
2.61447

>  <SCORE.INTRA.norm>
-0.0794058

>  <SCORE.RESTR>
0.387508

>  <SCORE.RESTR.CAVITY>
0.387508

>  <SCORE.RESTR.norm>
0.0168482

>  <SCORE.SYSTEM>
0

>  <SCORE.SYSTEM.CONST>
0

>  <SCORE.SYSTEM.DIHEDRAL>
0

>  <SCORE.SYSTEM.SOLV>
0

>  <SCORE.SYSTEM.norm>
0

>  <SCORE.heavy>
23

>  <SCORE.norm>
-1.04134

>  <RMSD>
21.182

$$$$

 OpenBabel11021811403D
libRbt.so/2013.1/901 2013/11/27
 23 25  0  0  0  0  0  0  0  0999 V2000
  -13.3147   23.3772    3.7474 S   0  0  0  0  0  0  0  0  0  0  0  0
  -14.2183   24.7260    1.2506 N   0  0  0  0  0  0  0  0  0  0  0  0
  -16.5828   24.3752    1.5670 C   0  0  0  0  0  0  0  0  0  0  0  0
  -17.6240   23.8636    2.3526 C   0  0  0  0  0  0  0  0  0  0  0  0
  -17.3440   23.2173    3.5527 C   0  0  0  0  0  0  0  0  0  0  0  0
  -16.0260   23.0743    3.9724 C   0  0  0  0  0  0  0  0  0  0  0  0
  -14.9830   23.5767    3.1985 C   0  0  0  0  0  0  0  0  0  0  0  0
  -15.2542   24.2309    1.9909 C   0  0  0  0  0  0  0  0  0  0  0  0
  -12.7574   23.0386    2.1073 C   0  0  0  0  0  0  0  0  0  0  0  0
  -11.7932   22.0513    1.8846 C   0  0  0  0  0  0  0  0  0  0  0  0
  -11.3508   21.7897    0.5847 C   0  0  0  0  0  0  0  0  0  0  0  0
  -11.8717   22.5200   -0.4885 C   0  0  0  0  0  0  0  0  0  0  0  0
  -12.8333   23.5047   -0.2590 C   0  0  0  0  0  0  0  0  0  0  0  0
  -13.2783   23.7643    1.0299 C   0  0  0  0  0  0  0  0  0  0  0  0
  -14.4698   25.7481    0.2047 C   0  0  0  0  0  0  0  0  0  0  0  0
  -15.2660   27.0260    0.6325 C   0  0  0  0  0  0  0  0  0  0  0  0
  -16.7641   27.0109    0.1735 C   0  0  0  0  0  0  0  0  0  0  0  0
  -17.6039   28.1853    0.5219 N   0  3  0  0  0  0  0  0  0  0  0  0
  -18.0530   28.1319    1.9371 C   0  0  0  0  0  0  0  0  0  0  0  0
  -18.7660   28.3049   -0.4252 C   0  0  0  0  0  0  0  0  0  0  0  0
  -19.0509   24.0043    1.9045 C   0  0  0  0  0  0  0  0  0  0  0  0
  -19.4493   24.9405    0.7894 C   0  0  0  0  0  0  0  0  0  0  0  0
  -19.9100   23.3008    2.4115 O   0  0  0  0  0  0  0  0  0  0  0  0
  1  7  1  0  0  0  0
  1  9  1  0  0  0  0
  2  8  1  0  0  0  0
  2 14  1  0  0  0  0
  2 15  1  0  0  0  0
  3  4  2  0  0  0  0
  3  8  1  0  0  0  0
  4  5  1  0  0  0  0
  4 21  1  0  0  0  0
  5  6  2  0  0  0  0
  6  7  1  0  0  0  0
  7  8  2  0  0  0  0
  9 10  2  0  0  0  0
  9 14  1  0  0  0  0
 10 11  1  0  0  0  0
 11 12  2  0  0  0  0
 12 13  1  0  0  0  0
 13 14  2  0  0  0  0
 15 16  1  0  0  0  0
 16 17  1  0  0  0  0
 17 18  1  0  0  0  0
 18 19  1  0  0  0  0
 18 20  1  0  0  0  0
 21 22  1  0  0  0  0
 21 23  2  0  0  0  0
M  CHG  1  18   1
M  END
>  <CHROM.1>
52.58929437,-13.81359024,-102.76093382,-179.54594888,41.13504211,-15.56278166
24.54174100,1.60215412,0.48268694,-0.28453638,2.49719221

>  <Name>


>  <RI>
0

>  <Rbt.Current_Directory>
/home/itssahil/PROJECTS/Mol_Feturizer/New_Systems/rnas/1lvj

>  <Rbt.Executable>
rbdock ($Id: //depot/dev/client3/rdock/2013.1/src/exe/rbdock.cxx#4 $)

>  <Rbt.Library>
libRbt.so (2013.1, Build901 2013/11/27)

>  <Rbt.Parameter_File>
/export/apps/rDock/src/rDock_2013.1_src/data/scripts/dock_solv.prm

>  <Rbt.Receptor>
prm/blind_docking_60.prm

>  <SCORE>
-27.1627

>  <SCORE.INTER>
-24.7946

>  <SCORE.INTER.CONST>
1

>  <SCORE.INTER.POLAR>
0

>  <SCORE.INTER.ROT>
5

>  <SCORE.INTER.SOLV>
14.1598

>  <SCORE.INTER.VDW>
-28.183

>  <SCORE.INTER.norm>
-1.07802

>  <SCORE.INTRA>
-3.18755

>  <SCORE.INTRA.DIHEDRAL>
-1.50777

>  <SCORE.INTRA.DIHEDRAL.0>
8.06479

>  <SCORE.INTRA.POLAR>
0

>  <SCORE.INTRA.POLAR.0>
0

>  <SCORE.INTRA.REPUL>
0

>  <SCORE.INTRA.REPUL.0>
0

>  <SCORE.INTRA.SOLV>
0.642263

>  <SCORE.INTRA.SOLV.lig_0>
-29.8054

>  <SCORE.INTRA.VDW>
-2.7548

>  <SCORE.INTRA.VDW.0>
2.61447

>  <SCORE.INTRA.norm>
-0.138589

>  <SCORE.RESTR>
0.819393

>  <SCORE.RESTR.CAVITY>
0.819393

>  <SCORE.RESTR.norm>
0.0356258

>  <SCORE.SYSTEM>
0

>  <SCORE.SYSTEM.CONST>
0

>  <SCORE.SYSTEM.DIHEDRAL>
0

>  <SCORE.SYSTEM.SOLV>
0

>  <SCORE.SYSTEM.norm>
0

>  <SCORE.heavy>
23

>  <SCORE.norm>
-1.18099

>  <RMSD>
21.185

$$$$

 OpenBabel11021811403D
libRbt.so/2013.1/901 2013/11/27
 23 25  0  0  0  0  0  0  0  0999 V2000
  -13.4931   22.8908    3.8657 S   0  0  0  0  0  0  0  0  0  0  0  0
  -14.2855   24.8721    1.7882 N   0  0  0  0  0  0  0  0  0  0  0  0
  -16.6704   24.6491    2.0647 C   0  0  0  0  0  0  0  0  0  0  0  0
  -17.7493   24.0492    2.7275 C   0  0  0  0  0  0  0  0  0  0  0  0
  -17.5220   23.1113    3.7301 C   0  0  0  0  0  0  0  0  0  0  0  0
  -16.2197   22.7643    4.0729 C   0  0  0  0  0  0  0  0  0  0  0  0
  -15.1398   23.3522    3.4191 C   0  0  0  0  0  0  0  0  0  0  0  0
  -15.3577   24.2989    2.4110 C   0  0  0  0  0  0  0  0  0  0  0  0
  -12.9704   22.9146    2.1801 C   0  0  0  0  0  0  0  0  0  0  0  0
  -12.0936   21.9352    1.7043 C   0  0  0  0  0  0  0  0  0  0  0  0
  -11.6781   21.9605    0.3700 C   0  0  0  0  0  0  0  0  0  0  0  0
  -12.1380   22.9685   -0.4837 C   0  0  0  0  0  0  0  0  0  0  0  0
  -13.0124   23.9434   -0.0021 C   0  0  0  0  0  0  0  0  0  0  0  0
  -13.4307   23.9191    1.3212 C   0  0  0  0  0  0  0  0  0  0  0  0
  -14.4523   26.1338    1.0251 C   0  0  0  0  0  0  0  0  0  0  0  0
  -15.8015   26.3298    0.2562 C   0  0  0  0  0  0  0  0  0  0  0  0
  -16.3095   27.8121    0.2548 C   0  0  0  0  0  0  0  0  0  0  0  0
  -17.7488   28.0480    0.5356 N   0  3  0  0  0  0  0  0  0  0  0  0
  -18.6074   27.5473   -0.5687 C   0  0  0  0  0  0  0  0  0  0  0  0
  -18.0014   29.5032    0.8191 C   0  0  0  0  0  0  0  0  0  0  0  0
  -19.1602   24.4098    2.3591 C   0  0  0  0  0  0  0  0  0  0  0  0
  -20.3054   24.2473    3.3291 C   0  0  0  0  0  0  0  0  0  0  0  0
  -19.3860   24.9050    1.2664 O   0  0  0  0  0  0  0  0  0  0  0  0
  1  7  1  0  0  0  0
  1  9  1  0  0  0  0
  2  8  1  0  0  0  0
  2 14  1  0  0  0  0
  2 15  1  0  0  0  0
  3  4  2  0  0  0  0
  3  8  1  0  0  0  0
  4  5  1  0  0  0  0
  4 21  1  0  0  0  0
  5  6  2  0  0  0  0
  6  7  1  0  0  0  0
  7  8  2  0  0  0  0
  9 10  2  0  0  0  0
  9 14  1  0  0  0  0
 10 11  1  0  0  0  0
 11 12  2  0  0  0  0
 12 13  1  0  0  0  0
 13 14  2  0  0  0  0
 15 16  1  0  0  0  0
 16 17  1  0  0  0  0
 17 18  1  0  0  0  0
 18 19  1  0  0  0  0
 18 20  1  0  0  0  0
 21 22  1  0  0  0  0
 21 23  2  0  0  0  0
M  CHG  1  18   1
M  END
>  <CHROM.1>
-35.08398547,-155.61015178,143.90156699,-135.29272118,51.36212698,-15.69146051
24.63461731,1.75842158,0.53935166,-0.33469213,2.46141670

>  <Name>


>  <RI>
0

>  <Rbt.Current_Directory>
/home/itssahil/PROJECTS/Mol_Feturizer/New_Systems/rnas/1lvj

>  <Rbt.Executable>
rbdock ($Id: //depot/dev/client3/rdock/2013.1/src/exe/rbdock.cxx#4 $)

>  <Rbt.Library>
libRbt.so (2013.1, Build901 2013/11/27)

>  <Rbt.Parameter_File>
/export/apps/rDock/src/rDock_2013.1_src/data/scripts/dock_solv.prm

>  <Rbt.Receptor>
prm/blind_docking_40.prm

>  <SCORE>
-21.4635

>  <SCORE.INTER>
-27.1565

>  <SCORE.INTER.CONST>
1

>  <SCORE.INTER.POLAR>
0

>  <SCORE.INTER.ROT>
5

>  <SCORE.INTER.SOLV>
10.1651

>  <SCORE.INTER.VDW>
-28.426

>  <SCORE.INTER.norm>
-1.18072

>  <SCORE.INTRA>
5.69294

>  <SCORE.INTRA.DIHEDRAL>
3.96081

>  <SCORE.INTRA.DIHEDRAL.0>
8.06479

>  <SCORE.INTRA.POLAR>
0

>  <SCORE.INTRA.POLAR.0>
0

>  <SCORE.INTRA.REPUL>
0

>  <SCORE.INTRA.REPUL.0>
0

>  <SCORE.INTRA.SOLV>
3.95963

>  <SCORE.INTRA.SOLV.lig_0>
-29.8054

>  <SCORE.INTRA.VDW>
1.73272

>  <SCORE.INTRA.VDW.0>
2.61447

>  <SCORE.INTRA.norm>
0.247519

>  <SCORE.RESTR>
0

>  <SCORE.RESTR.CAVITY>
0

>  <SCORE.RESTR.norm>
0

>  <SCORE.SYSTEM>
0

>  <SCORE.SYSTEM.CONST>
0

>  <SCORE.SYSTEM.DIHEDRAL>
0

>  <SCORE.SYSTEM.SOLV>
0

>  <SCORE.SYSTEM.norm>
0

>  <SCORE.heavy>
23

>  <SCORE.norm>
-0.933197

>  <RMSD>
21.190

$$$$

 OpenBabel11021811403D
libRbt.so/2013.1/901 2013/11/27
 23 25  0  0  0  0  0  0  0  0999 V2000
  -12.5546   22.3602    0.7998 S   0  0  0  0  0  0  0  0  0  0  0  0
  -14.5233   23.3197    2.8179 N   0  0  0  0  0  0  0  0  0  0  0  0
  -15.1866   25.3229    1.6512 C   0  0  0  0  0  0  0  0  0  0  0  0
  -15.0631   26.1531    0.5293 C   0  0  0  0  0  0  0  0  0  0  0  0
  -14.1854   25.8181   -0.4973 C   0  0  0  0  0  0  0  0  0  0  0  0
  -13.4243   24.6576   -0.4080 C   0  0  0  0  0  0  0  0  0  0  0  0
  -13.5370   23.8263    0.7035 C   0  0  0  0  0  0  0  0  0  0  0  0
  -14.4192   24.1530    1.7404 C   0  0  0  0  0  0  0  0  0  0  0  0
  -12.2617   22.6033    2.5231 C   0  0  0  0  0  0  0  0  0  0  0  0
  -11.0009   22.3356    3.0644 C   0  0  0  0  0  0  0  0  0  0  0  0
  -10.7744   22.5246    4.4307 C   0  0  0  0  0  0  0  0  0  0  0  0
  -11.8118   22.9772    5.2525 C   0  0  0  0  0  0  0  0  0  0  0  0
  -13.0680   23.2418    4.7059 C   0  0  0  0  0  0  0  0  0  0  0  0
  -13.2955   23.0595    3.3488 C   0  0  0  0  0  0  0  0  0  0  0  0
  -15.6994   23.4076    3.7185 C   0  0  0  0  0  0  0  0  0  0  0  0
  -17.0332   23.9449    3.1003 C   0  0  0  0  0  0  0  0  0  0  0  0
  -18.2564   22.9935    3.3323 C   0  0  0  0  0  0  0  0  0  0  0  0
  -19.5759   23.4260    2.8053 N   0  3  0  0  0  0  0  0  0  0  0  0
  -19.4396   24.1120    1.4944 C   0  0  0  0  0  0  0  0  0  0  0  0
  -20.2913   24.2864    3.8102 C   0  0  0  0  0  0  0  0  0  0  0  0
  -15.8736   27.4137    0.4265 C   0  0  0  0  0  0  0  0  0  0  0  0
  -15.2370   28.7511    0.1355 C   0  0  0  0  0  0  0  0  0  0  0  0
  -17.0892   27.3535    0.5206 O   0  0  0  0  0  0  0  0  0  0  0  0
  1  7  1  0  0  0  0
  1  9  1  0  0  0  0
  2  8  1  0  0  0  0
  2 14  1  0  0  0  0
  2 15  1  0  0  0  0
  3  4  2  0  0  0  0
  3  8  1  0  0  0  0
  4  5  1  0  0  0  0
  4 21  1  0  0  0  0
  5  6  2  0  0  0  0
  6  7  1  0  0  0  0
  7  8  2  0  0  0  0
  9 10  2  0  0  0  0
  9 14  1  0  0  0  0
 10 11  1  0  0  0  0
 11 12  2  0  0  0  0
 12 13  1  0  0  0  0
 13 14  2  0  0  0  0
 15 16  1  0  0  0  0
 16 17  1  0  0  0  0
 17 18  1  0  0  0  0
 18 19  1  0  0  0  0
 18 20  1  0  0  0  0
 21 22  1  0  0  0  0
 21 23  2  0  0  0  0
M  CHG  1  18   1
M  END
>  <CHROM.1>
27.01066811,127.85598773,126.97184003,178.88969108,157.63655879,-14.94639288
24.18406325,2.10072304,-0.36027809,0.15830617,-0.77620236

>  <Name>


>  <RI>
0

>  <Rbt.Current_Directory>
/home/itssahil/PROJECTS/Mol_Feturizer/New_Systems/rnas/1lvj

>  <Rbt.Executable>
rbdock ($Id: //depot/dev/client3/rdock/2013.1/src/exe/rbdock.cxx#4 $)

>  <Rbt.Library>
libRbt.so (2013.1, Build901 2013/11/27)

>  <Rbt.Parameter_File>
/export/apps/rDock/src/rDock_2013.1_src/data/scripts/dock_solv.prm

>  <Rbt.Receptor>
prm/blind_docking_100.prm

>  <SCORE>
-15.5162

>  <SCORE.INTER>
-23.3949

>  <SCORE.INTER.CONST>
1

>  <SCORE.INTER.POLAR>
-0.795152

>  <SCORE.INTER.ROT>
5

>  <SCORE.INTER.SOLV>
18.4533

>  <SCORE.INTER.VDW>
-26.0305

>  <SCORE.INTER.norm>
-1.01717

>  <SCORE.INTRA>
5.41421

>  <SCORE.INTRA.DIHEDRAL>
7.6148

>  <SCORE.INTRA.DIHEDRAL.0>
8.06479

>  <SCORE.INTRA.POLAR>
0

>  <SCORE.INTRA.POLAR.0>
0

>  <SCORE.INTRA.REPUL>
0

>  <SCORE.INTRA.REPUL.0>
0

>  <SCORE.INTRA.SOLV>
-0.459608

>  <SCORE.INTRA.SOLV.lig_0>
-29.8054

>  <SCORE.INTRA.VDW>
1.83661

>  <SCORE.INTRA.VDW.0>
2.61447

>  <SCORE.INTRA.norm>
0.2354

>  <SCORE.RESTR>
2.46457

>  <SCORE.RESTR.CAVITY>
2.46457

>  <SCORE.RESTR.norm>
0.107155

>  <SCORE.SYSTEM>
0

>  <SCORE.SYSTEM.CONST>
0

>  <SCORE.SYSTEM.DIHEDRAL>
0

>  <SCORE.SYSTEM.SOLV>
0

>  <SCORE.SYSTEM.norm>
0

>  <SCORE.heavy>
23

>  <SCORE.norm>
-0.674616

>  <RMSD>
21.191

$$$$

 OpenBabel11021811403D
libRbt.so/2013.1/901 2013/11/27
 23 25  0  0  0  0  0  0  0  0999 V2000
  -12.7481   24.2921    1.0207 S   0  0  0  0  0  0  0  0  0  0  0  0
  -15.4783   23.6122    1.9971 N   0  0  0  0  0  0  0  0  0  0  0  0
  -16.5190   25.7165    1.4470 C   0  0  0  0  0  0  0  0  0  0  0  0
  -16.4063   27.0044    0.9068 C   0  0  0  0  0  0  0  0  0  0  0  0
  -15.1877   27.4490    0.4032 C   0  0  0  0  0  0  0  0  0  0  0  0
  -14.0760   26.6144    0.4401 C   0  0  0  0  0  0  0  0  0  0  0  0
  -14.1756   25.3334    0.9770 C   0  0  0  0  0  0  0  0  0  0  0  0
  -15.3978   24.8755    1.4837 C   0  0  0  0  0  0  0  0  0  0  0  0
  -13.1721   23.6848    2.6227 C   0  0  0  0  0  0  0  0  0  0  0  0
  -12.1747   23.4758    3.5796 C   0  0  0  0  0  0  0  0  0  0  0  0
  -12.5141   22.9900    4.8455 C   0  0  0  0  0  0  0  0  0  0  0  0
  -13.8505   22.7105    5.1490 C   0  0  0  0  0  0  0  0  0  0  0  0
  -14.8410   22.9206    4.1890 C   0  0  0  0  0  0  0  0  0  0  0  0
  -14.5084   23.4072    2.9322 C   0  0  0  0  0  0  0  0  0  0  0  0
  -16.7995   22.9582    2.1667 C   0  0  0  0  0  0  0  0  0  0  0  0
  -17.7917   23.6081    3.1880 C   0  0  0  0  0  0  0  0  0  0  0  0
  -19.1778   23.9818    2.5602 C   0  0  0  0  0  0  0  0  0  0  0  0
  -20.0704   24.8752    3.3418 N   0  3  0  0  0  0  0  0  0  0  0  0
  -20.6935   24.1575    4.4838 C   0  0  0  0  0  0  0  0  0  0  0  0
  -21.1055   25.5024    2.4490 C   0  0  0  0  0  0  0  0  0  0  0  0
  -17.5984   27.9177    0.8701 C   0  0  0  0  0  0  0  0  0  0  0  0
  -17.5248   29.3038    0.2768 C   0  0  0  0  0  0  0  0  0  0  0  0
  -18.6761   27.5124    1.2756 O   0  0  0  0  0  0  0  0  0  0  0  0
  1  7  1  0  0  0  0
  1  9  1  0  0  0  0
  2  8  1  0  0  0  0
  2 14  1  0  0  0  0
  2 15  1  0  0  0  0
  3  4  2  0  0  0  0
  3  8  1  0  0  0  0
  4  5  1  0  0  0  0
  4 21  1  0  0  0  0
  5  6  2  0  0  0  0
  6  7  1  0  0  0  0
  7  8  2  0  0  0  0
  9 10  2  0  0  0  0
  9 14  1  0  0  0  0
 10 11  1  0  0  0  0
 11 12  2  0  0  0  0
 12 13  1  0  0  0  0
 13 14  2  0  0  0  0
 15 16  1  0  0  0  0
 16 17  1  0  0  0  0
 17 18  1  0  0  0  0
 18 19  1  0  0  0  0
 18 20  1  0  0  0  0
 21 22  1  0  0  0  0
 21 23  2  0  0  0  0
M  CHG  1  18   1
M  END
>  <CHROM.1>
-64.52883088,-179.00196165,123.88195983,-166.27750177,45.60115256,-16.05782433
24.93939629,2.22851244,-0.33859031,0.16275276,-0.67700891

>  <Name>


>  <RI>
0

>  <Rbt.Current_Directory>
/home/itssahil/PROJECTS/Mol_Feturizer/New_Systems/rnas/1lvj

>  <Rbt.Executable>
rbdock ($Id: //depot/dev/client3/rdock/2013.1/src/exe/rbdock.cxx#4 $)

>  <Rbt.Library>
libRbt.so (2013.1, Build901 2013/11/27)

>  <Rbt.Parameter_File>
/export/apps/rDock/src/rDock_2013.1_src/data/scripts/dock_solv.prm

>  <Rbt.Receptor>
prm/blind_docking_60.prm

>  <SCORE>
-32.1798

>  <SCORE.INTER>
-30.3054

>  <SCORE.INTER.CONST>
1

>  <SCORE.INTER.POLAR>
0

>  <SCORE.INTER.ROT>
5

>  <SCORE.INTER.SOLV>
9.02179

>  <SCORE.INTER.VDW>
-30.1442

>  <SCORE.INTER.norm>
-1.31763

>  <SCORE.INTRA>
-1.88203

>  <SCORE.INTRA.DIHEDRAL>
-1.03053

>  <SCORE.INTRA.DIHEDRAL.0>
8.06479

>  <SCORE.INTRA.POLAR>
0

>  <SCORE.INTRA.POLAR.0>
0

>  <SCORE.INTRA.REPUL>
0

>  <SCORE.INTRA.REPUL.0>
0

>  <SCORE.INTRA.SOLV>
2.12796

>  <SCORE.INTRA.SOLV.lig_0>
-29.8054

>  <SCORE.INTRA.VDW>
-2.43075

>  <SCORE.INTRA.VDW.0>
2.61447

>  <SCORE.INTRA.norm>
-0.0818274

>  <SCORE.RESTR>
0.00766118

>  <SCORE.RESTR.CAVITY>
0.00766118

>  <SCORE.RESTR.norm>
0.000333095

>  <SCORE.SYSTEM>
0

>  <SCORE.SYSTEM.CONST>
0

>  <SCORE.SYSTEM.DIHEDRAL>
0

>  <SCORE.SYSTEM.SOLV>
0

>  <SCORE.SYSTEM.norm>
0

>  <SCORE.heavy>
23

>  <SCORE.norm>
-1.39912

>  <RMSD>
21.202

$$$$

 OpenBabel11021811403D
libRbt.so/2013.1/901 2013/11/27
 23 25  0  0  0  0  0  0  0  0999 V2000
  -12.8288   24.4104    0.8913 S   0  0  0  0  0  0  0  0  0  0  0  0
  -15.4794   23.6449    2.0126 N   0  0  0  0  0  0  0  0  0  0  0  0
  -16.6147   25.7145    1.5208 C   0  0  0  0  0  0  0  0  0  0  0  0
  -16.5724   27.0047    0.9761 C   0  0  0  0  0  0  0  0  0  0  0  0
  -15.3973   27.4874    0.4080 C   0  0  0  0  0  0  0  0  0  0  0  0
  -14.2593   26.6887    0.3845 C   0  0  0  0  0  0  0  0  0  0  0  0
  -14.2890   25.4057    0.9251 C   0  0  0  0  0  0  0  0  0  0  0  0
  -15.4670   24.9097    1.4965 C   0  0  0  0  0  0  0  0  0  0  0  0
  -13.1464   23.7916    2.5133 C   0  0  0  0  0  0  0  0  0  0  0  0
  -12.0928   23.6155    3.4151 C   0  0  0  0  0  0  0  0  0  0  0  0
  -12.3480   23.1203    4.6971 C   0  0  0  0  0  0  0  0  0  0  0  0
  -13.6567   22.7988    5.0718 C   0  0  0  0  0  0  0  0  0  0  0  0
  -14.7036   22.9762    4.1665 C   0  0  0  0  0  0  0  0  0  0  0  0
  -14.4547   23.4718    2.8941 C   0  0  0  0  0  0  0  0  0  0  0  0
  -16.7681   22.9493    2.2525 C   0  0  0  0  0  0  0  0  0  0  0  0
  -17.5017   23.2513    3.6018 C   0  0  0  0  0  0  0  0  0  0  0  0
  -19.0572   23.0825    3.5180 C   0  0  0  0  0  0  0  0  0  0  0  0
  -19.8509   24.2388    3.0293 N   0  3  0  0  0  0  0  0  0  0  0  0
  -19.6589   24.4531    1.5717 C   0  0  0  0  0  0  0  0  0  0  0  0
  -19.5255   25.4763    3.8199 C   0  0  0  0  0  0  0  0  0  0  0  0
  -17.7932   27.8795    1.0042 C   0  0  0  0  0  0  0  0  0  0  0  0
  -17.8144   29.2423    0.3554 C   0  0  0  0  0  0  0  0  0  0  0  0
  -18.8201   27.4585    1.5125 O   0  0  0  0  0  0  0  0  0  0  0  0
  1  7  1  0  0  0  0
  1  9  1  0  0  0  0
  2  8  1  0  0  0  0
  2 14  1  0  0  0  0
  2 15  1  0  0  0  0
  3  4  2  0  0  0  0
  3  8  1  0  0  0  0
  4  5  1  0  0  0  0
  4 21  1  0  0  0  0
  5  6  2  0  0  0  0
  6  7  1  0  0  0  0
  7  8  2  0  0  0  0
  9 10  2  0  0  0  0
  9 14  1  0  0  0  0
 10 11  1  0  0  0  0
 11 12  2  0  0  0  0
 12 13  1  0  0  0  0
 13 14  2  0  0  0  0
 15 16  1  0  0  0  0
 16 17  1  0  0  0  0
 17 18  1  0  0  0  0
 18 19  1  0  0  0  0
 18 20  1  0  0  0  0
 21 22  1  0  0  0  0
 21 23  2  0  0  0  0
M  CHG  1  18   1
M  END
>  <CHROM.1>
-84.17882190,-176.24827289,152.23081611,-85.20704380,-168.50423224,-15.95514652
24.90270089,2.19355483,-0.47315676,0.13183193,-0.64845308

>  <Name>


>  <RI>
0

>  <Rbt.Current_Directory>
/home/itssahil/PROJECTS/Mol_Feturizer/New_Systems/rnas/1lvj

>  <Rbt.Executable>
rbdock ($Id: //depot/dev/client3/rdock/2013.1/src/exe/rbdock.cxx#4 $)

>  <Rbt.Library>
libRbt.so (2013.1, Build901 2013/11/27)

>  <Rbt.Parameter_File>
/export/apps/rDock/src/rDock_2013.1_src/data/scripts/dock_solv.prm

>  <Rbt.Receptor>
prm/blind_docking_40.prm

>  <SCORE>
-29.5907

>  <SCORE.INTER>
-28.4534

>  <SCORE.INTER.CONST>
1

>  <SCORE.INTER.POLAR>
0

>  <SCORE.INTER.ROT>
5

>  <SCORE.INTER.SOLV>
15.626

>  <SCORE.INTER.VDW>
-31.111

>  <SCORE.INTER.norm>
-1.23711

>  <SCORE.INTRA>
-1.8507

>  <SCORE.INTRA.DIHEDRAL>
-2.8537

>  <SCORE.INTRA.DIHEDRAL.0>
8.06479

>  <SCORE.INTRA.POLAR>
0

>  <SCORE.INTRA.POLAR.0>
0

>  <SCORE.INTRA.REPUL>
0

>  <SCORE.INTRA.REPUL.0>
0

>  <SCORE.INTRA.SOLV>
0.0655545

>  <SCORE.INTRA.SOLV.lig_0>
-29.8054

>  <SCORE.INTRA.VDW>
-0.456629

>  <SCORE.INTRA.VDW.0>
2.61447

>  <SCORE.INTRA.norm>
-0.0804652

>  <SCORE.RESTR>
0.713449

>  <SCORE.RESTR.CAVITY>
0.713449

>  <SCORE.RESTR.norm>
0.0310195

>  <SCORE.SYSTEM>
0

>  <SCORE.SYSTEM.CONST>
0

>  <SCORE.SYSTEM.DIHEDRAL>
0

>  <SCORE.SYSTEM.SOLV>
0

>  <SCORE.SYSTEM.norm>
0

>  <SCORE.heavy>
23

>  <SCORE.norm>
-1.28655

>  <RMSD>
21.206

$$$$

 OpenBabel11021811403D
libRbt.so/2013.1/901 2013/11/27
 23 25  0  0  0  0  0  0  0  0999 V2000
  -18.8598   24.6322    0.8654 S   0  0  0  0  0  0  0  0  0  0  0  0
  -15.8985   24.8849    0.6760 N   0  0  0  0  0  0  0  0  0  0  0  0
  -15.3728   23.7097    2.7148 C   0  0  0  0  0  0  0  0  0  0  0  0
  -15.8187   23.0137    3.8460 C   0  0  0  0  0  0  0  0  0  0  0  0
  -17.1799   22.8129    4.0540 C   0  0  0  0  0  0  0  0  0  0  0  0
  -18.1019   23.3087    3.1386 C   0  0  0  0  0  0  0  0  0  0  0  0
  -17.6703   24.0042    2.0120 C   0  0  0  0  0  0  0  0  0  0  0  0
  -16.3029   24.2091    1.7921 C   0  0  0  0  0  0  0  0  0  0  0  0
  -17.9427   26.1240    0.6462 C   0  0  0  0  0  0  0  0  0  0  0  0
  -18.6099   27.3479    0.5407 C   0  0  0  0  0  0  0  0  0  0  0  0
  -17.8801   28.5266    0.3621 C   0  0  0  0  0  0  0  0  0  0  0  0
  -16.4844   28.4767    0.2854 C   0  0  0  0  0  0  0  0  0  0  0  0
  -15.8247   27.2517    0.3907 C   0  0  0  0  0  0  0  0  0  0  0  0
  -16.5458   26.0796    0.5725 C   0  0  0  0  0  0  0  0  0  0  0  0
  -14.4952   24.7769    0.2056 C   0  0  0  0  0  0  0  0  0  0  0  0
  -13.3724   25.2204    1.2019 C   0  0  0  0  0  0  0  0  0  0  0  0
  -12.0356   24.4209    1.0318 C   0  0  0  0  0  0  0  0  0  0  0  0
  -12.0466   22.9771    1.3803 N   0  3  0  0  0  0  0  0  0  0  0  0
  -10.9115   22.6242    2.2716 C   0  0  0  0  0  0  0  0  0  0  0  0
  -12.0590   22.1322    0.1361 C   0  0  0  0  0  0  0  0  0  0  0  0
  -14.8321   22.4816    4.8461 C   0  0  0  0  0  0  0  0  0  0  0  0
  -13.3520   22.7553    4.7314 C   0  0  0  0  0  0  0  0  0  0  0  0
  -15.2377   21.8595    5.8149 O   0  0  0  0  0  0  0  0  0  0  0  0
  1  7  1  0  0  0  0
  1  9  1  0  0  0  0
  2  8  1  0  0  0  0
  2 14  1  0  0  0  0
  2 15  1  0  0  0  0
  3  4  2  0  0  0  0
  3  8  1  0  0  0  0
  4  5  1  0  0  0  0
  4 21  1  0  0  0  0
  5  6  2  0  0  0  0
  6  7  1  0  0  0  0
  7  8  2  0  0  0  0
  9 10  2  0  0  0  0
  9 14  1  0  0  0  0
 10 11  1  0  0  0  0
 11 12  2  0  0  0  0
 12 13  1  0  0  0  0
 13 14  2  0  0  0  0
 15 16  1  0  0  0  0
 16 17  1  0  0  0  0
 17 18  1  0  0  0  0
 18 19  1  0  0  0  0
 18 20  1  0  0  0  0
 21 22  1  0  0  0  0
 21 23  2  0  0  0  0
M  CHG  1  18   1
M  END
>  <CHROM.1>
-58.93927053,4.48375816,148.58158647,-67.08473593,-10.77548973,-15.58730070
24.44931742,1.85447342,2.43402936,0.23668816,-0.80169724

>  <Name>


>  <RI>
0

>  <Rbt.Current_Directory>
/home/itssahil/PROJECTS/Mol_Feturizer/New_Systems/rnas/1lvj

>  <Rbt.Executable>
rbdock ($Id: //depot/dev/client3/rdock/2013.1/src/exe/rbdock.cxx#4 $)

>  <Rbt.Library>
libRbt.so (2013.1, Build901 2013/11/27)

>  <Rbt.Parameter_File>
/export/apps/rDock/src/rDock_2013.1_src/data/scripts/dock_solv.prm

>  <Rbt.Receptor>
prm/blind_docking_80.prm

>  <SCORE>
-28.3704

>  <SCORE.INTER>
-28.0268

>  <SCORE.INTER.CONST>
1

>  <SCORE.INTER.POLAR>
0

>  <SCORE.INTER.ROT>
5

>  <SCORE.INTER.SOLV>
12.8553

>  <SCORE.INTER.VDW>
-29.903

>  <SCORE.INTER.norm>
-1.21856

>  <SCORE.INTRA>
-0.353524

>  <SCORE.INTRA.DIHEDRAL>
-1.23067

>  <SCORE.INTRA.DIHEDRAL.0>
8.06479

>  <SCORE.INTRA.POLAR>
0

>  <SCORE.INTRA.POLAR.0>
0

>  <SCORE.INTRA.REPUL>
0

>  <SCORE.INTRA.REPUL.0>
0

>  <SCORE.INTRA.SOLV>
6.17833

>  <SCORE.INTRA.SOLV.lig_0>
-29.8054

>  <SCORE.INTRA.VDW>
-2.82735

>  <SCORE.INTRA.VDW.0>
2.61447

>  <SCORE.INTRA.norm>
-0.0153706

>  <SCORE.RESTR>
0.00993266

>  <SCORE.RESTR.CAVITY>
0.00993266

>  <SCORE.RESTR.norm>
0.000431855

>  <SCORE.SYSTEM>
0

>  <SCORE.SYSTEM.CONST>
0

>  <SCORE.SYSTEM.DIHEDRAL>
0

>  <SCORE.SYSTEM.SOLV>
0

>  <SCORE.SYSTEM.norm>
0

>  <SCORE.heavy>
23

>  <SCORE.norm>
-1.2335

>  <RMSD>
21.206

$$$$

 OpenBabel11021811403D
libRbt.so/2013.1/901 2013/11/27
 23 25  0  0  0  0  0  0  0  0999 V2000
  -12.5262   24.3878    1.0889 S   0  0  0  0  0  0  0  0  0  0  0  0
  -15.2497   23.6087    2.0081 N   0  0  0  0  0  0  0  0  0  0  0  0
  -16.3542   25.6746    1.4369 C   0  0  0  0  0  0  0  0  0  0  0  0
  -16.2770   26.9662    0.8993 C   0  0  0  0  0  0  0  0  0  0  0  0
  -15.0650   27.4550    0.4213 C   0  0  0  0  0  0  0  0  0  0  0  0
  -13.9248   26.6611    0.4812 C   0  0  0  0  0  0  0  0  0  0  0  0
  -13.9892   25.3769    1.0157 C   0  0  0  0  0  0  0  0  0  0  0  0
  -15.2043   24.8747    1.4968 C   0  0  0  0  0  0  0  0  0  0  0  0
  -12.9612   23.7641    2.6816 C   0  0  0  0  0  0  0  0  0  0  0  0
  -11.9770   23.5904    3.6591 C   0  0  0  0  0  0  0  0  0  0  0  0
  -12.3248   23.0915    4.9176 C   0  0  0  0  0  0  0  0  0  0  0  0
  -13.6563   22.7636    5.1931 C   0  0  0  0  0  0  0  0  0  0  0  0
  -14.6336   22.9386    4.2127 C   0  0  0  0  0  0  0  0  0  0  0  0
  -14.2927   23.4381    2.9632 C   0  0  0  0  0  0  0  0  0  0  0  0
  -16.5496   22.9072    2.1501 C   0  0  0  0  0  0  0  0  0  0  0  0
  -17.5709   23.4982    3.1785 C   0  0  0  0  0  0  0  0  0  0  0  0
  -19.0512   23.0599    2.9103 C   0  0  0  0  0  0  0  0  0  0  0  0
  -20.1291   24.0173    3.2671 N   0  3  0  0  0  0  0  0  0  0  0  0
  -20.1449   25.1853    2.3489 C   0  0  0  0  0  0  0  0  0  0  0  0
  -20.0052   24.4427    4.7043 C   0  0  0  0  0  0  0  0  0  0  0  0
  -17.5003   27.8358    0.8380 C   0  0  0  0  0  0  0  0  0  0  0  0
  -17.4526   29.2444    0.2974 C   0  0  0  0  0  0  0  0  0  0  0  0
  -18.5792   27.3767    1.1776 O   0  0  0  0  0  0  0  0  0  0  0  0
  1  7  1  0  0  0  0
  1  9  1  0  0  0  0
  2  8  1  0  0  0  0
  2 14  1  0  0  0  0
  2 15  1  0  0  0  0
  3  4  2  0  0  0  0
  3  8  1  0  0  0  0
  4  5  1  0  0  0  0
  4 21  1  0  0  0  0
  5  6  2  0  0  0  0
  6  7  1  0  0  0  0
  7  8  2  0  0  0  0
  9 10  2  0  0  0  0
  9 14  1  0  0  0  0
 10 11  1  0  0  0  0
 11 12  2  0  0  0  0
 12 13  1  0  0  0  0
 13 14  2  0  0  0  0
 15 16  1  0  0  0  0
 16 17  1  0  0  0  0
 17 18  1  0  0  0  0
 18 19  1  0  0  0  0
 18 20  1  0  0  0  0
 21 22  1  0  0  0  0
 21 23  2  0  0  0  0
M  CHG  1  18   1
M  END
>  <CHROM.1>
-66.10518501,178.49329376,158.93390006,-148.11717654,-169.44515301,-15.83735670
24.86133281,2.26092129,-0.32893025,0.12271566,-0.67136567

>  <Name>


>  <RI>
0

>  <Rbt.Current_Directory>
/home/itssahil/PROJECTS/Mol_Feturizer/New_Systems/rnas/1lvj

>  <Rbt.Executable>
rbdock ($Id: //depot/dev/client3/rdock/2013.1/src/exe/rbdock.cxx#4 $)

>  <Rbt.Library>
libRbt.so (2013.1, Build901 2013/11/27)

>  <Rbt.Parameter_File>
/export/apps/rDock/src/rDock_2013.1_src/data/scripts/dock_solv.prm

>  <Rbt.Receptor>
prm/blind_docking_80.prm

>  <SCORE>
-26.6409

>  <SCORE.INTER>
-25.4772

>  <SCORE.INTER.CONST>
1

>  <SCORE.INTER.POLAR>
0

>  <SCORE.INTER.ROT>
5

>  <SCORE.INTER.SOLV>
18.6039

>  <SCORE.INTER.VDW>
-30.1194

>  <SCORE.INTER.norm>
-1.1077

>  <SCORE.INTRA>
-2.32555

>  <SCORE.INTRA.DIHEDRAL>
-3.01703

>  <SCORE.INTRA.DIHEDRAL.0>
8.06479

>  <SCORE.INTRA.POLAR>
0

>  <SCORE.INTRA.POLAR.0>
0

>  <SCORE.INTRA.REPUL>
0

>  <SCORE.INTRA.REPUL.0>
0

>  <SCORE.INTRA.SOLV>
-0.301243

>  <SCORE.INTRA.SOLV.lig_0>
-29.8054

>  <SCORE.INTRA.VDW>
-0.666414

>  <SCORE.INTRA.VDW.0>
2.61447

>  <SCORE.INTRA.norm>
-0.101111

>  <SCORE.RESTR>
1.16177

>  <SCORE.RESTR.CAVITY>
1.16177

>  <SCORE.RESTR.norm>
0.0505119

>  <SCORE.SYSTEM>
0

>  <SCORE.SYSTEM.CONST>
0

>  <SCORE.SYSTEM.DIHEDRAL>
0

>  <SCORE.SYSTEM.SOLV>
0

>  <SCORE.SYSTEM.norm>
0

>  <SCORE.heavy>
23

>  <SCORE.norm>
-1.1583

>  <RMSD>
21.220

$$$$

 OpenBabel11021811403D
libRbt.so/2013.1/901 2013/11/27
 23 25  0  0  0  0  0  0  0  0999 V2000
  -12.8416   24.4041    0.9033 S   0  0  0  0  0  0  0  0  0  0  0  0
  -15.4978   23.6586    2.0247 N   0  0  0  0  0  0  0  0  0  0  0  0
  -16.6231   25.7292    1.5147 C   0  0  0  0  0  0  0  0  0  0  0  0
  -16.5741   27.0151    0.9602 C   0  0  0  0  0  0  0  0  0  0  0  0
  -15.3957   27.4883    0.3909 C   0  0  0  0  0  0  0  0  0  0  0  0
  -14.2611   26.6845    0.3760 C   0  0  0  0  0  0  0  0  0  0  0  0
  -14.2975   25.4058    0.9264 C   0  0  0  0  0  0  0  0  0  0  0  0
  -15.4788   24.9193    1.4990 C   0  0  0  0  0  0  0  0  0  0  0  0
  -13.1653   23.7990    2.5293 C   0  0  0  0  0  0  0  0  0  0  0  0
  -12.1143   23.6253    3.4346 C   0  0  0  0  0  0  0  0  0  0  0  0
  -12.3744   23.1411    4.7198 C   0  0  0  0  0  0  0  0  0  0  0  0
  -13.6852   22.8281    5.0942 C   0  0  0  0  0  0  0  0  0  0  0  0
  -14.7294   23.0031    4.1854 C   0  0  0  0  0  0  0  0  0  0  0  0
  -14.4757   23.4879    2.9097 C   0  0  0  0  0  0  0  0  0  0  0  0
  -16.7900   22.9704    2.2673 C   0  0  0  0  0  0  0  0  0  0  0  0
  -17.5252   23.2860    3.6126 C   0  0  0  0  0  0  0  0  0  0  0  0
  -19.0825   23.1379    3.5225 C   0  0  0  0  0  0  0  0  0  0  0  0
  -19.8539   24.2851    2.9797 N   0  3  0  0  0  0  0  0  0  0  0  0
  -19.6435   24.4385    1.5169 C   0  0  0  0  0  0  0  0  0  0  0  0
  -19.5189   25.5482    3.7241 C   0  0  0  0  0  0  0  0  0  0  0  0
  -17.7911   27.8953    0.9790 C   0  0  0  0  0  0  0  0  0  0  0  0
  -17.7778   29.2892    0.3997 C   0  0  0  0  0  0  0  0  0  0  0  0
  -18.8412   27.4560    1.4199 O   0  0  0  0  0  0  0  0  0  0  0  0
  1  7  1  0  0  0  0
  1  9  1  0  0  0  0
  2  8  1  0  0  0  0
  2 14  1  0  0  0  0
  2 15  1  0  0  0  0
  3  4  2  0  0  0  0
  3  8  1  0  0  0  0
  4  5  1  0  0  0  0
  4 21  1  0  0  0  0
  5  6  2  0  0  0  0
  6  7  1  0  0  0  0
  7  8  2  0  0  0  0
  9 10  2  0  0  0  0
  9 14  1  0  0  0  0
 10 11  1  0  0  0  0
 11 12  2  0  0  0  0
 12 13  1  0  0  0  0
 13 14  2  0  0  0  0
 15 16  1  0  0  0  0
 16 17  1  0  0  0  0
 17 18  1  0  0  0  0
 18 19  1  0  0  0  0
 18 20  1  0  0  0  0
 21 22  1  0  0  0  0
 21 23  2  0  0  0  0
M  CHG  1  18   1
M  END
>  <CHROM.1>
-84.17175233,179.64227186,151.62282863,-82.97463016,-168.69874727,-15.96528588
24.92036050,2.18668937,-0.48483133,0.12707732,-0.65001672

>  <Name>


>  <RI>
0

>  <Rbt.Current_Directory>
/home/itssahil/PROJECTS/Mol_Feturizer/New_Systems/rnas/1lvj

>  <Rbt.Executable>
rbdock ($Id: //depot/dev/client3/rdock/2013.1/src/exe/rbdock.cxx#4 $)

>  <Rbt.Library>
libRbt.so (2013.1, Build901 2013/11/27)

>  <Rbt.Parameter_File>
/export/apps/rDock/src/rDock_2013.1_src/data/scripts/dock_solv.prm

>  <Rbt.Receptor>
prm/blind_docking_40.prm

>  <SCORE>
-29.6948

>  <SCORE.INTER>
-28.5345

>  <SCORE.INTER.CONST>
1

>  <SCORE.INTER.POLAR>
0

>  <SCORE.INTER.ROT>
5

>  <SCORE.INTER.SOLV>
15.5229

>  <SCORE.INTER.VDW>
-31.1306

>  <SCORE.INTER.norm>
-1.24063

>  <SCORE.INTRA>
-1.87498

>  <SCORE.INTRA.DIHEDRAL>
-3.08621

>  <SCORE.INTRA.DIHEDRAL.0>
8.06479

>  <SCORE.INTRA.POLAR>
0

>  <SCORE.INTRA.POLAR.0>
0

>  <SCORE.INTRA.REPUL>
0

>  <SCORE.INTRA.REPUL.0>
0

>  <SCORE.INTRA.SOLV>
0.0887043

>  <SCORE.INTRA.SOLV.lig_0>
-29.8054

>  <SCORE.INTRA.VDW>
-0.376227

>  <SCORE.INTRA.VDW.0>
2.61447

>  <SCORE.INTRA.norm>
-0.0815208

>  <SCORE.RESTR>
0.714686

>  <SCORE.RESTR.CAVITY>
0.714686

>  <SCORE.RESTR.norm>
0.0310733

>  <SCORE.SYSTEM>
0

>  <SCORE.SYSTEM.CONST>
0

>  <SCORE.SYSTEM.DIHEDRAL>
0

>  <SCORE.SYSTEM.SOLV>
0

>  <SCORE.SYSTEM.norm>
0

>  <SCORE.heavy>
23

>  <SCORE.norm>
-1.29108

>  <RMSD>
21.221

$$$$

 OpenBabel11021811403D
libRbt.so/2013.1/901 2013/11/27
 23 25  0  0  0  0  0  0  0  0999 V2000
  -12.9373   24.2578    0.9527 S   0  0  0  0  0  0  0  0  0  0  0  0
  -15.6999   23.6290    1.8702 N   0  0  0  0  0  0  0  0  0  0  0  0
  -16.6720   25.7776    1.3679 C   0  0  0  0  0  0  0  0  0  0  0  0
  -16.5147   27.0768    0.8674 C   0  0  0  0  0  0  0  0  0  0  0  0
  -15.2765   27.5005    0.3943 C   0  0  0  0  0  0  0  0  0  0  0  0
  -14.1897   26.6334    0.4222 C   0  0  0  0  0  0  0  0  0  0  0  0
  -14.3338   25.3407    0.9197 C   0  0  0  0  0  0  0  0  0  0  0  0
  -15.5759   24.9039    1.3955 C   0  0  0  0  0  0  0  0  0  0  0  0
  -13.4021   23.6167    2.5300 C   0  0  0  0  0  0  0  0  0  0  0  0
  -12.4254   23.3513    3.4942 C   0  0  0  0  0  0  0  0  0  0  0  0
  -12.7973   22.8389    4.7404 C   0  0  0  0  0  0  0  0  0  0  0  0
  -14.1455   22.5895    5.0167 C   0  0  0  0  0  0  0  0  0  0  0  0
  -15.1152   22.8559    4.0495 C   0  0  0  0  0  0  0  0  0  0  0  0
  -14.7503   23.3690    2.8124 C   0  0  0  0  0  0  0  0  0  0  0  0
  -17.0416   23.0088    2.0019 C   0  0  0  0  0  0  0  0  0  0  0  0
  -17.9392   23.4949    3.1885 C   0  0  0  0  0  0  0  0  0  0  0  0
  -19.0801   24.4743    2.7475 C   0  0  0  0  0  0  0  0  0  0  0  0
  -19.8371   25.1762    3.8152 N   0  3  0  0  0  0  0  0  0  0  0  0
  -18.9370   25.9819    4.6802 C   0  0  0  0  0  0  0  0  0  0  0  0
  -20.6499   24.1983    4.6184 C   0  0  0  0  0  0  0  0  0  0  0  0
  -17.6796   28.0249    0.8409 C   0  0  0  0  0  0  0  0  0  0  0  0
  -17.5573   29.4254    0.2913 C   0  0  0  0  0  0  0  0  0  0  0  0
  -18.7746   27.6389    1.2180 O   0  0  0  0  0  0  0  0  0  0  0  0
  1  7  1  0  0  0  0
  1  9  1  0  0  0  0
  2  8  1  0  0  0  0
  2 14  1  0  0  0  0
  2 15  1  0  0  0  0
  3  4  2  0  0  0  0
  3  8  1  0  0  0  0
  4  5  1  0  0  0  0
  4 21  1  0  0  0  0
  5  6  2  0  0  0  0
  6  7  1  0  0  0  0
  7  8  2  0  0  0  0
  9 10  2  0  0  0  0
  9 14  1  0  0  0  0
 10 11  1  0  0  0  0
 11 12  2  0  0  0  0
 12 13  1  0  0  0  0
 13 14  2  0  0  0  0
 15 16  1  0  0  0  0
 16 17  1  0  0  0  0
 17 18  1  0  0  0  0
 18 19  1  0  0  0  0
 18 20  1  0  0  0  0
 21 22  1  0  0  0  0
 21 23  2  0  0  0  0
M  CHG  1  18   1
M  END
>  <CHROM.1>
-74.64454459,-179.07229539,103.49487897,-169.63300153,178.04097543,-16.09067425
24.99505044,2.30492718,-0.41566896,0.28987103,-0.70095335

>  <Name>


>  <RI>
0

>  <Rbt.Current_Directory>
/home/itssahil/PROJECTS/Mol_Feturizer/New_Systems/rnas/1lvj

>  <Rbt.Executable>
rbdock ($Id: //depot/dev/client3/rdock/2013.1/src/exe/rbdock.cxx#4 $)

>  <Rbt.Library>
libRbt.so (2013.1, Build901 2013/11/27)

>  <Rbt.Parameter_File>
/export/apps/rDock/src/rDock_2013.1_src/data/scripts/dock_solv.prm

>  <Rbt.Receptor>
prm/blind_docking_60.prm

>  <SCORE>
-31.4037

>  <SCORE.INTER>
-29.1339

>  <SCORE.INTER.CONST>
1

>  <SCORE.INTER.POLAR>
0

>  <SCORE.INTER.ROT>
5

>  <SCORE.INTER.SOLV>
8.90002

>  <SCORE.INTER.VDW>
-29.3226

>  <SCORE.INTER.norm>
-1.26669

>  <SCORE.INTRA>
-2.26978

>  <SCORE.INTRA.DIHEDRAL>
-2.83721

>  <SCORE.INTRA.DIHEDRAL.0>
8.06479

>  <SCORE.INTRA.POLAR>
0

>  <SCORE.INTRA.POLAR.0>
0

>  <SCORE.INTRA.REPUL>
0

>  <SCORE.INTRA.REPUL.0>
0

>  <SCORE.INTRA.SOLV>
0.453729

>  <SCORE.INTRA.SOLV.lig_0>
-29.8054

>  <SCORE.INTRA.VDW>
-1.07804

>  <SCORE.INTRA.VDW.0>
2.61447

>  <SCORE.INTRA.norm>
-0.0986861

>  <SCORE.RESTR>
0

>  <SCORE.RESTR.CAVITY>
0

>  <SCORE.RESTR.norm>
0

>  <SCORE.SYSTEM>
0

>  <SCORE.SYSTEM.CONST>
0

>  <SCORE.SYSTEM.DIHEDRAL>
0

>  <SCORE.SYSTEM.SOLV>
0

>  <SCORE.SYSTEM.norm>
0

>  <SCORE.heavy>
23

>  <SCORE.norm>
-1.36538

>  <RMSD>
21.239

$$$$

 OpenBabel11021811403D
libRbt.so/2013.1/901 2013/11/27
 23 25  0  0  0  0  0  0  0  0999 V2000
  -12.3728   24.5163    1.1802 S   0  0  0  0  0  0  0  0  0  0  0  0
  -15.1196   23.6020    1.8789 N   0  0  0  0  0  0  0  0  0  0  0  0
  -16.2654   25.6410    1.2927 C   0  0  0  0  0  0  0  0  0  0  0  0
  -16.2039   26.9516    0.8011 C   0  0  0  0  0  0  0  0  0  0  0  0
  -14.9825   27.5027    0.4257 C   0  0  0  0  0  0  0  0  0  0  0  0
  -13.8177   26.7523    0.5429 C   0  0  0  0  0  0  0  0  0  0  0  0
  -13.8665   25.4496    1.0326 C   0  0  0  0  0  0  0  0  0  0  0  0
  -15.0906   24.8849    1.4104 C   0  0  0  0  0  0  0  0  0  0  0  0
  -12.8923   23.8240    2.7183 C   0  0  0  0  0  0  0  0  0  0  0  0
  -11.9727   23.6568    3.7578 C   0  0  0  0  0  0  0  0  0  0  0  0
  -12.3871   23.1034    4.9727 C   0  0  0  0  0  0  0  0  0  0  0  0
  -13.7200   22.7151    5.1425 C   0  0  0  0  0  0  0  0  0  0  0  0
  -14.6325   22.8842    4.1006 C   0  0  0  0  0  0  0  0  0  0  0  0
  -14.2258   23.4374    2.8942 C   0  0  0  0  0  0  0  0  0  0  0  0
  -16.3964   22.8462    1.9065 C   0  0  0  0  0  0  0  0  0  0  0  0
  -17.4392   23.2466    3.0029 C   0  0  0  0  0  0  0  0  0  0  0  0
  -18.8880   23.4497    2.4418 C   0  0  0  0  0  0  0  0  0  0  0  0
  -19.7180   24.5220    3.0477 N   0  3  0  0  0  0  0  0  0  0  0  0
  -20.4698   24.0256    4.2292 C   0  0  0  0  0  0  0  0  0  0  0  0
  -20.6350   25.1263    2.0201 C   0  0  0  0  0  0  0  0  0  0  0  0
  -17.4547   27.7745    0.6788 C   0  0  0  0  0  0  0  0  0  0  0  0
  -18.5890   27.6556    1.6677 C   0  0  0  0  0  0  0  0  0  0  0  0
  -17.5385   28.6084   -0.2087 O   0  0  0  0  0  0  0  0  0  0  0  0
  1  7  1  0  0  0  0
  1  9  1  0  0  0  0
  2  8  1  0  0  0  0
  2 14  1  0  0  0  0
  2 15  1  0  0  0  0
  3  4  2  0  0  0  0
  3  8  1  0  0  0  0
  4  5  1  0  0  0  0
  4 21  1  0  0  0  0
  5  6  2  0  0  0  0
  6  7  1  0  0  0  0
  7  8  2  0  0  0  0
  9 10  2  0  0  0  0
  9 14  1  0  0  0  0
 10 11  1  0  0  0  0
 11 12  2  0  0  0  0
 12 13  1  0  0  0  0
 13 14  2  0  0  0  0
 15 16  1  0  0  0  0
 16 17  1  0  0  0  0
 17 18  1  0  0  0  0
 18 19  1  0  0  0  0
 18 20  1  0  0  0  0
 21 22  1  0  0  0  0
 21 23  2  0  0  0  0
M  CHG  1  18   1
M  END
>  <CHROM.1>
-73.75225262,34.54273749,131.52470272,-144.07625833,32.06661730,-15.79501796
24.87484981,2.15896718,-0.33032206,0.08769480,-0.67891058

>  <Name>


>  <RI>
0

>  <Rbt.Current_Directory>
/home/itssahil/PROJECTS/Mol_Feturizer/New_Systems/rnas/1lvj

>  <Rbt.Executable>
rbdock ($Id: //depot/dev/client3/rdock/2013.1/src/exe/rbdock.cxx#4 $)

>  <Rbt.Library>
libRbt.so (2013.1, Build901 2013/11/27)

>  <Rbt.Parameter_File>
/export/apps/rDock/src/rDock_2013.1_src/data/scripts/dock_solv.prm

>  <Rbt.Receptor>
prm/blind_docking_80.prm

>  <SCORE>
-23.478

>  <SCORE.INTER>
-26.1282

>  <SCORE.INTER.CONST>
1

>  <SCORE.INTER.POLAR>
0

>  <SCORE.INTER.ROT>
5

>  <SCORE.INTER.SOLV>
10.3098

>  <SCORE.INTER.VDW>
-27.7887

>  <SCORE.INTER.norm>
-1.13601

>  <SCORE.INTRA>
1.82969

>  <SCORE.INTRA.DIHEDRAL>
6.33536

>  <SCORE.INTRA.DIHEDRAL.0>
8.06479

>  <SCORE.INTRA.POLAR>
0

>  <SCORE.INTRA.POLAR.0>
0

>  <SCORE.INTRA.REPUL>
0

>  <SCORE.INTRA.REPUL.0>
0

>  <SCORE.INTRA.SOLV>
3.21972

>  <SCORE.INTRA.SOLV.lig_0>
-29.8054

>  <SCORE.INTRA.VDW>
-2.94785

>  <SCORE.INTRA.VDW.0>
2.61447

>  <SCORE.INTRA.norm>
0.0795517

>  <SCORE.RESTR>
0.820478

>  <SCORE.RESTR.CAVITY>
0.820478

>  <SCORE.RESTR.norm>
0.035673

>  <SCORE.SYSTEM>
0

>  <SCORE.SYSTEM.CONST>
0

>  <SCORE.SYSTEM.DIHEDRAL>
0

>  <SCORE.SYSTEM.SOLV>
0

>  <SCORE.SYSTEM.norm>
0

>  <SCORE.heavy>
23

>  <SCORE.norm>
-1.02078

>  <RMSD>
21.247

$$$$

 OpenBabel11021811403D
libRbt.so/2013.1/901 2013/11/27
 23 25  0  0  0  0  0  0  0  0999 V2000
  -13.0348   24.3056    0.7262 S   0  0  0  0  0  0  0  0  0  0  0  0
  -15.5757   23.6980    2.1559 N   0  0  0  0  0  0  0  0  0  0  0  0
  -16.6803   25.7908    1.6931 C   0  0  0  0  0  0  0  0  0  0  0  0
  -16.6493   27.0544    1.0887 C   0  0  0  0  0  0  0  0  0  0  0  0
  -15.5253   27.4639    0.3778 C   0  0  0  0  0  0  0  0  0  0  0  0
  -14.4266   26.6183    0.2703 C   0  0  0  0  0  0  0  0  0  0  0  0
  -14.4452   25.3612    0.8691 C   0  0  0  0  0  0  0  0  0  0  0  0
  -15.5723   24.9387    1.5842 C   0  0  0  0  0  0  0  0  0  0  0  0
  -13.1985   23.7683    2.3994 C   0  0  0  0  0  0  0  0  0  0  0  0
  -12.0612   23.5862    3.1915 C   0  0  0  0  0  0  0  0  0  0  0  0
  -12.1949   23.1557    4.5146 C   0  0  0  0  0  0  0  0  0  0  0  0
  -13.4665   22.9046    5.0402 C   0  0  0  0  0  0  0  0  0  0  0  0
  -14.5975   23.0876    4.2438 C   0  0  0  0  0  0  0  0  0  0  0  0
  -14.4690   23.5193    2.9308 C   0  0  0  0  0  0  0  0  0  0  0  0
  -16.8558   23.0671    2.5626 C   0  0  0  0  0  0  0  0  0  0  0  0
  -18.0965   23.3111    1.6401 C   0  0  0  0  0  0  0  0  0  0  0  0
  -19.4274   23.5456    2.4331 C   0  0  0  0  0  0  0  0  0  0  0  0
  -19.6569   24.8942    3.0114 N   0  3  0  0  0  0  0  0  0  0  0  0
  -18.7774   25.1402    4.1834 C   0  0  0  0  0  0  0  0  0  0  0  0
  -21.1084   25.0820    3.3575 C   0  0  0  0  0  0  0  0  0  0  0  0
  -17.8269   27.9796    1.2060 C   0  0  0  0  0  0  0  0  0  0  0  0
  -17.7980   29.3836    0.6523 C   0  0  0  0  0  0  0  0  0  0  0  0
  -18.8615   27.5714    1.7093 O   0  0  0  0  0  0  0  0  0  0  0  0
  1  7  1  0  0  0  0
  1  9  1  0  0  0  0
  2  8  1  0  0  0  0
  2 14  1  0  0  0  0
  2 15  1  0  0  0  0
  3  4  2  0  0  0  0
  3  8  1  0  0  0  0
  4  5  1  0  0  0  0
  4 21  1  0  0  0  0
  5  6  2  0  0  0  0
  6  7  1  0  0  0  0
  7  8  2  0  0  0  0
  9 10  2  0  0  0  0
  9 14  1  0  0  0  0
 10 11  1  0  0  0  0
 11 12  2  0  0  0  0
 12 13  1  0  0  0  0
 13 14  2  0  0  0  0
 15 16  1  0  0  0  0
 16 17  1  0  0  0  0
 17 18  1  0  0  0  0
 18 19  1  0  0  0  0
 18 20  1  0  0  0  0
 21 22  1  0  0  0  0
 21 23  2  0  0  0  0
M  CHG  1  18   1
M  END
>  <CHROM.1>
36.84195977,175.69001805,-140.08806242,79.33056530,47.53217605,-16.05679282
24.99431165,2.18138745,-0.39794600,0.17563480,-0.63496273

>  <Name>


>  <RI>
0

>  <Rbt.Current_Directory>
/home/itssahil/PROJECTS/Mol_Feturizer/New_Systems/rnas/1lvj

>  <Rbt.Executable>
rbdock ($Id: //depot/dev/client3/rdock/2013.1/src/exe/rbdock.cxx#4 $)

>  <Rbt.Library>
libRbt.so (2013.1, Build901 2013/11/27)

>  <Rbt.Parameter_File>
/export/apps/rDock/src/rDock_2013.1_src/data/scripts/dock_solv.prm

>  <Rbt.Receptor>
prm/blind_docking_60.prm

>  <SCORE>
-33.0877

>  <SCORE.INTER>
-28.4934

>  <SCORE.INTER.CONST>
1

>  <SCORE.INTER.POLAR>
0

>  <SCORE.INTER.ROT>
5

>  <SCORE.INTER.SOLV>
8.56692

>  <SCORE.INTER.VDW>
-28.7846

>  <SCORE.INTER.norm>
-1.23884

>  <SCORE.INTRA>
-4.59427

>  <SCORE.INTRA.DIHEDRAL>
-1.62729

>  <SCORE.INTRA.DIHEDRAL.0>
8.06479

>  <SCORE.INTRA.POLAR>
-1.49691

>  <SCORE.INTRA.POLAR.0>
0

>  <SCORE.INTRA.REPUL>
0

>  <SCORE.INTRA.REPUL.0>
0

>  <SCORE.INTRA.SOLV>
6.45429

>  <SCORE.INTRA.SOLV.lig_0>
-29.8054

>  <SCORE.INTRA.VDW>
-1.91826

>  <SCORE.INTRA.VDW.0>
2.61447

>  <SCORE.INTRA.norm>
-0.199751

>  <SCORE.RESTR>
0

>  <SCORE.RESTR.CAVITY>
0

>  <SCORE.RESTR.norm>
0

>  <SCORE.SYSTEM>
0

>  <SCORE.SYSTEM.CONST>
0

>  <SCORE.SYSTEM.DIHEDRAL>
0

>  <SCORE.SYSTEM.SOLV>
0

>  <SCORE.SYSTEM.norm>
0

>  <SCORE.heavy>
23

>  <SCORE.norm>
-1.43859

>  <RMSD>
21.248

$$$$

 OpenBabel11021811403D
libRbt.so/2013.1/901 2013/11/27
 23 25  0  0  0  0  0  0  0  0999 V2000
  -18.2046   24.0870    1.0839 S   0  0  0  0  0  0  0  0  0  0  0  0
  -15.3288   24.7869    0.7534 N   0  0  0  0  0  0  0  0  0  0  0  0
  -14.5510   23.8133    2.8177 C   0  0  0  0  0  0  0  0  0  0  0  0
  -14.8403   23.1151    3.9974 C   0  0  0  0  0  0  0  0  0  0  0  0
  -16.1445   22.7161    4.2738 C   0  0  0  0  0  0  0  0  0  0  0  0
  -17.1657   23.0152    3.3785 C   0  0  0  0  0  0  0  0  0  0  0  0
  -16.8902   23.7109    2.2041 C   0  0  0  0  0  0  0  0  0  0  0  0
  -15.5810   24.1143    1.9154 C   0  0  0  0  0  0  0  0  0  0  0  0
  -17.5422   25.6901    0.7581 C   0  0  0  0  0  0  0  0  0  0  0  0
  -18.3971   26.7884    0.6274 C   0  0  0  0  0  0  0  0  0  0  0  0
  -17.8688   28.0555    0.3644 C   0  0  0  0  0  0  0  0  0  0  0  0
  -16.4864   28.2193    0.2288 C   0  0  0  0  0  0  0  0  0  0  0  0
  -15.6388   27.1187    0.3597 C   0  0  0  0  0  0  0  0  0  0  0  0
  -16.1594   25.8596    0.6252 C   0  0  0  0  0  0  0  0  0  0  0  0
  -13.9441   24.8744    0.2271 C   0  0  0  0  0  0  0  0  0  0  0  0
  -12.8044   25.1611    1.2610 C   0  0  0  0  0  0  0  0  0  0  0  0
  -11.6274   24.1290    1.1947 C   0  0  0  0  0  0  0  0  0  0  0  0
  -11.9702   22.6861    1.2747 N   0  3  0  0  0  0  0  0  0  0  0  0
  -11.2843   22.0267    2.4158 C   0  0  0  0  0  0  0  0  0  0  0  0
  -11.6684   21.9971   -0.0276 C   0  0  0  0  0  0  0  0  0  0  0  0
  -13.7466   22.7946    4.9760 C   0  0  0  0  0  0  0  0  0  0  0  0
  -13.9337   21.7820    6.0797 C   0  0  0  0  0  0  0  0  0  0  0  0
  -12.6526   23.3201    4.8447 O   0  0  0  0  0  0  0  0  0  0  0  0
  1  7  1  0  0  0  0
  1  9  1  0  0  0  0
  2  8  1  0  0  0  0
  2 14  1  0  0  0  0
  2 15  1  0  0  0  0
  3  4  2  0  0  0  0
  3  8  1  0  0  0  0
  4  5  1  0  0  0  0
  4 21  1  0  0  0  0
  5  6  2  0  0  0  0
  6  7  1  0  0  0  0
  7  8  2  0  0  0  0
  9 10  2  0  0  0  0
  9 14  1  0  0  0  0
 10 11  1  0  0  0  0
 11 12  2  0  0  0  0
 12 13  1  0  0  0  0
 13 14  2  0  0  0  0
 15 16  1  0  0  0  0
 16 17  1  0  0  0  0
 17 18  1  0  0  0  0
 18 19  1  0  0  0  0
 18 20  1  0  0  0  0
 21 22  1  0  0  0  0
 21 23  2  0  0  0  0
M  CHG  1  18   1
M  END
>  <CHROM.1>
-42.55817270,-165.29406800,127.37219930,-52.43048689,-2.02547113,-15.04293609
24.27004255,1.94761946,2.42891568,0.27115306,-0.90816618

>  <Name>


>  <RI>
0

>  <Rbt.Current_Directory>
/home/itssahil/PROJECTS/Mol_Feturizer/New_Systems/rnas/1lvj

>  <Rbt.Executable>
rbdock ($Id: //depot/dev/client3/rdock/2013.1/src/exe/rbdock.cxx#4 $)

>  <Rbt.Library>
libRbt.so (2013.1, Build901 2013/11/27)

>  <Rbt.Parameter_File>
/export/apps/rDock/src/rDock_2013.1_src/data/scripts/dock_solv.prm

>  <Rbt.Receptor>
prm/blind_docking_40.prm

>  <SCORE>
-22.9847

>  <SCORE.INTER>
-27.6865

>  <SCORE.INTER.CONST>
1

>  <SCORE.INTER.POLAR>
0

>  <SCORE.INTER.ROT>
5

>  <SCORE.INTER.SOLV>
11.3534

>  <SCORE.INTER.VDW>
-29.1755

>  <SCORE.INTER.norm>
-1.20376

>  <SCORE.INTRA>
4.70183

>  <SCORE.INTRA.DIHEDRAL>
2.83207

>  <SCORE.INTRA.DIHEDRAL.0>
8.06479

>  <SCORE.INTRA.POLAR>
0

>  <SCORE.INTRA.POLAR.0>
0

>  <SCORE.INTRA.REPUL>
0

>  <SCORE.INTRA.REPUL.0>
0

>  <SCORE.INTRA.SOLV>
7.535

>  <SCORE.INTRA.SOLV.lig_0>
-29.8054

>  <SCORE.INTRA.VDW>
-0.481699

>  <SCORE.INTRA.VDW.0>
2.61447

>  <SCORE.INTRA.norm>
0.204428

>  <SCORE.RESTR>
0

>  <SCORE.RESTR.CAVITY>
0

>  <SCORE.RESTR.norm>
0

>  <SCORE.SYSTEM>
0

>  <SCORE.SYSTEM.CONST>
0

>  <SCORE.SYSTEM.DIHEDRAL>
0

>  <SCORE.SYSTEM.SOLV>
0

>  <SCORE.SYSTEM.norm>
0

>  <SCORE.heavy>
23

>  <SCORE.norm>
-0.999334

>  <RMSD>
21.249

$$$$

 OpenBabel11021811403D
libRbt.so/2013.1/901 2013/11/27
 23 25  0  0  0  0  0  0  0  0999 V2000
  -12.8505   24.4129    0.9422 S   0  0  0  0  0  0  0  0  0  0  0  0
  -15.5337   23.6405    1.9781 N   0  0  0  0  0  0  0  0  0  0  0  0
  -16.6542   25.7128    1.4643 C   0  0  0  0  0  0  0  0  0  0  0  0
  -16.5958   27.0062    0.9288 C   0  0  0  0  0  0  0  0  0  0  0  0
  -15.4041   27.4924    0.3994 C   0  0  0  0  0  0  0  0  0  0  0  0
  -14.2656   26.6939    0.4057 C   0  0  0  0  0  0  0  0  0  0  0  0
  -14.3114   25.4078    0.9376 C   0  0  0  0  0  0  0  0  0  0  0  0
  -15.5060   24.9083    1.4701 C   0  0  0  0  0  0  0  0  0  0  0  0
  -13.2170   23.7845    2.5502 C   0  0  0  0  0  0  0  0  0  0  0  0
  -12.1912   23.6032    3.4824 C   0  0  0  0  0  0  0  0  0  0  0  0
  -12.4850   23.1005    4.7532 C   0  0  0  0  0  0  0  0  0  0  0  0
  -13.8042   22.7765    5.0861 C   0  0  0  0  0  0  0  0  0  0  0  0
  -14.8233   22.9592    4.1506 C   0  0  0  0  0  0  0  0  0  0  0  0
  -14.5361   23.4624    2.8892 C   0  0  0  0  0  0  0  0  0  0  0  0
  -16.8289   22.9434    2.1748 C   0  0  0  0  0  0  0  0  0  0  0  0
  -17.7220   23.4202    3.3685 C   0  0  0  0  0  0  0  0  0  0  0  0
  -19.0144   24.1817    2.9157 C   0  0  0  0  0  0  0  0  0  0  0  0
  -19.8783   24.7638    3.9743 N   0  3  0  0  0  0  0  0  0  0  0  0
  -21.2260   25.1048    3.4500 C   0  0  0  0  0  0  0  0  0  0  0  0
  -19.2112   25.9541    4.6070 C   0  0  0  0  0  0  0  0  0  0  0  0
  -17.8171   27.8807    0.9250 C   0  0  0  0  0  0  0  0  0  0  0  0
  -17.8154   29.2525    0.2949 C   0  0  0  0  0  0  0  0  0  0  0  0
  -18.8615   27.4528    1.3901 O   0  0  0  0  0  0  0  0  0  0  0  0
  1  7  1  0  0  0  0
  1  9  1  0  0  0  0
  2  8  1  0  0  0  0
  2 14  1  0  0  0  0
  2 15  1  0  0  0  0
  3  4  2  0  0  0  0
  3  8  1  0  0  0  0
  4  5  1  0  0  0  0
  4 21  1  0  0  0  0
  5  6  2  0  0  0  0
  6  7  1  0  0  0  0
  7  8  2  0  0  0  0
  9 10  2  0  0  0  0
  9 14  1  0  0  0  0
 10 11  1  0  0  0  0
 11 12  2  0  0  0  0
 12 13  1  0  0  0  0
 13 14  2  0  0  0  0
 15 16  1  0  0  0  0
 16 17  1  0  0  0  0
 17 18  1  0  0  0  0
 18 19  1  0  0  0  0
 18 20  1  0  0  0  0
 21 22  1  0  0  0  0
 21 23  2  0  0  0  0
M  CHG  1  18   1
M  END
>  <CHROM.1>
-73.61987531,-176.81573782,109.43869721,-175.55766291,-43.89232992,-16.05959160
25.02842818,2.31579715,-0.35208914,0.24243190,-0.72228298

>  <Name>


>  <RI>
0

>  <Rbt.Current_Directory>
/home/itssahil/PROJECTS/Mol_Feturizer/New_Systems/rnas/1lvj

>  <Rbt.Executable>
rbdock ($Id: //depot/dev/client3/rdock/2013.1/src/exe/rbdock.cxx#4 $)

>  <Rbt.Library>
libRbt.so (2013.1, Build901 2013/11/27)

>  <Rbt.Parameter_File>
/export/apps/rDock/src/rDock_2013.1_src/data/scripts/dock_solv.prm

>  <Rbt.Receptor>
prm/blind_docking_60.prm

>  <SCORE>
-31.4333

>  <SCORE.INTER>
-28.3223

>  <SCORE.INTER.CONST>
1

>  <SCORE.INTER.POLAR>
0

>  <SCORE.INTER.ROT>
5

>  <SCORE.INTER.SOLV>
11.6224

>  <SCORE.INTER.VDW>
-29.689

>  <SCORE.INTER.norm>
-1.23141

>  <SCORE.INTRA>
-3.11575

>  <SCORE.INTRA.DIHEDRAL>
-2.14166

>  <SCORE.INTRA.DIHEDRAL.0>
8.06479

>  <SCORE.INTRA.POLAR>
0

>  <SCORE.INTRA.POLAR.0>
0

>  <SCORE.INTRA.REPUL>
0

>  <SCORE.INTRA.REPUL.0>
0

>  <SCORE.INTRA.SOLV>
0.947539

>  <SCORE.INTRA.SOLV.lig_0>
-29.8054

>  <SCORE.INTRA.VDW>
-2.51869

>  <SCORE.INTRA.VDW.0>
2.61447

>  <SCORE.INTRA.norm>
-0.135467

>  <SCORE.RESTR>
0.00478847

>  <SCORE.RESTR.CAVITY>
0.00478847

>  <SCORE.RESTR.norm>
0.000208194

>  <SCORE.SYSTEM>
0

>  <SCORE.SYSTEM.CONST>
0

>  <SCORE.SYSTEM.DIHEDRAL>
0

>  <SCORE.SYSTEM.SOLV>
0

>  <SCORE.SYSTEM.norm>
0

>  <SCORE.heavy>
23

>  <SCORE.norm>
-1.36667

>  <RMSD>
21.270

$$$$

 OpenBabel11021811403D
libRbt.so/2013.1/901 2013/11/27
 23 25  0  0  0  0  0  0  0  0999 V2000
  -18.1044   23.9078    1.0442 S   0  0  0  0  0  0  0  0  0  0  0  0
  -15.3664   25.0548    0.8058 N   0  0  0  0  0  0  0  0  0  0  0  0
  -14.4806   24.1262    2.8471 C   0  0  0  0  0  0  0  0  0  0  0  0
  -14.6773   23.3425    3.9917 C   0  0  0  0  0  0  0  0  0  0  0  0
  -15.9085   22.7365    4.2230 C   0  0  0  0  0  0  0  0  0  0  0  0
  -16.9492   22.9125    3.3176 C   0  0  0  0  0  0  0  0  0  0  0  0
  -16.7657   23.6913    2.1778 C   0  0  0  0  0  0  0  0  0  0  0  0
  -15.5302   24.3030    1.9345 C   0  0  0  0  0  0  0  0  0  0  0  0
  -17.6926   25.6060    0.7965 C   0  0  0  0  0  0  0  0  0  0  0  0
  -18.7048   26.5643    0.6899 C   0  0  0  0  0  0  0  0  0  0  0  0
  -18.3746   27.9075    0.4888 C   0  0  0  0  0  0  0  0  0  0  0  0
  -17.0321   28.2875    0.3906 C   0  0  0  0  0  0  0  0  0  0  0  0
  -16.0267   27.3258    0.4971 C   0  0  0  0  0  0  0  0  0  0  0  0
  -16.3506   25.9916    0.7013 C   0  0  0  0  0  0  0  0  0  0  0  0
  -14.0036   25.3764    0.3144 C   0  0  0  0  0  0  0  0  0  0  0  0
  -13.1636   24.1982   -0.2824 C   0  0  0  0  0  0  0  0  0  0  0  0
  -13.1564   22.9172    0.6199 C   0  0  0  0  0  0  0  0  0  0  0  0
  -11.8536   22.2410    0.8467 N   0  3  0  0  0  0  0  0  0  0  0  0
  -10.9152   23.1087    1.6044 C   0  0  0  0  0  0  0  0  0  0  0  0
  -11.2588   21.7863   -0.4577 C   0  0  0  0  0  0  0  0  0  0  0  0
  -13.5630   23.1530    4.9811 C   0  0  0  0  0  0  0  0  0  0  0  0
  -13.4912   21.9433    5.8812 C   0  0  0  0  0  0  0  0  0  0  0  0
  -12.6540   23.9667    5.0224 O   0  0  0  0  0  0  0  0  0  0  0  0
  1  7  1  0  0  0  0
  1  9  1  0  0  0  0
  2  8  1  0  0  0  0
  2 14  1  0  0  0  0
  2 15  1  0  0  0  0
  3  4  2  0  0  0  0
  3  8  1  0  0  0  0
  4  5  1  0  0  0  0
  4 21  1  0  0  0  0
  5  6  2  0  0  0  0
  6  7  1  0  0  0  0
  7  8  2  0  0  0  0
  9 10  2  0  0  0  0
  9 14  1  0  0  0  0
 10 11  1  0  0  0  0
 11 12  2  0  0  0  0
 12 13  1  0  0  0  0
 13 14  2  0  0  0  0
 15 16  1  0  0  0  0
 16 17  1  0  0  0  0
 17 18  1  0  0  0  0
 18 19  1  0  0  0  0
 18 20  1  0  0  0  0
 21 22  1  0  0  0  0
 21 23  2  0  0  0  0
M  CHG  1  18   1
M  END
>  <CHROM.1>
69.90899725,-154.58330788,-48.09394227,-134.58551122,-175.21446934,-15.09624784
24.28336880,1.80315082,2.59701842,0.42283668,-1.10152156

>  <Name>


>  <RI>
0

>  <Rbt.Current_Directory>
/home/itssahil/PROJECTS/Mol_Feturizer/New_Systems/rnas/1lvj

>  <Rbt.Executable>
rbdock ($Id: //depot/dev/client3/rdock/2013.1/src/exe/rbdock.cxx#4 $)

>  <Rbt.Library>
libRbt.so (2013.1, Build901 2013/11/27)

>  <Rbt.Parameter_File>
/export/apps/rDock/src/rDock_2013.1_src/data/scripts/dock_solv.prm

>  <Rbt.Receptor>
prm/blind_docking_80.prm

>  <SCORE>
-28.1053

>  <SCORE.INTER>
-27.2114

>  <SCORE.INTER.CONST>
1

>  <SCORE.INTER.POLAR>
0

>  <SCORE.INTER.ROT>
5

>  <SCORE.INTER.SOLV>
11.5205

>  <SCORE.INTER.VDW>
-28.9145

>  <SCORE.INTER.norm>
-1.18311

>  <SCORE.INTRA>
-1.00758

>  <SCORE.INTRA.DIHEDRAL>
0.108461

>  <SCORE.INTRA.DIHEDRAL.0>
8.06479

>  <SCORE.INTRA.POLAR>
0

>  <SCORE.INTRA.POLAR.0>
0

>  <SCORE.INTRA.REPUL>
0

>  <SCORE.INTRA.REPUL.0>
0

>  <SCORE.INTRA.SOLV>
-0.0113869

>  <SCORE.INTRA.SOLV.lig_0>
-29.8054

>  <SCORE.INTRA.VDW>
-1.05611

>  <SCORE.INTRA.VDW.0>
2.61447

>  <SCORE.INTRA.norm>
-0.0438077

>  <SCORE.RESTR>
0.113703

>  <SCORE.RESTR.CAVITY>
0.113703

>  <SCORE.RESTR.norm>
0.00494363

>  <SCORE.SYSTEM>
0

>  <SCORE.SYSTEM.CONST>
0

>  <SCORE.SYSTEM.DIHEDRAL>
0

>  <SCORE.SYSTEM.SOLV>
0

>  <SCORE.SYSTEM.norm>
0

>  <SCORE.heavy>
23

>  <SCORE.norm>
-1.22197

>  <RMSD>
21.276

$$$$

 OpenBabel11021811403D
libRbt.so/2013.1/901 2013/11/27
 23 25  0  0  0  0  0  0  0  0999 V2000
  -19.0006   25.0730    0.7286 S   0  0  0  0  0  0  0  0  0  0  0  0
  -16.0343   25.1619    0.4789 N   0  0  0  0  0  0  0  0  0  0  0  0
  -15.5340   23.9134    2.4802 C   0  0  0  0  0  0  0  0  0  0  0  0
  -15.9952   23.2184    3.6060 C   0  0  0  0  0  0  0  0  0  0  0  0
  -17.3610   23.0905    3.8398 C   0  0  0  0  0  0  0  0  0  0  0  0
  -18.2721   23.6581    2.9558 C   0  0  0  0  0  0  0  0  0  0  0  0
  -17.8252   24.3532    1.8350 C   0  0  0  0  0  0  0  0  0  0  0  0
  -16.4532   24.4852    1.5892 C   0  0  0  0  0  0  0  0  0  0  0  0
  -18.0046   26.5151    0.5208 C   0  0  0  0  0  0  0  0  0  0  0  0
  -18.6030   27.7769    0.4561 C   0  0  0  0  0  0  0  0  0  0  0  0
  -17.8109   28.9160    0.2864 C   0  0  0  0  0  0  0  0  0  0  0  0
  -16.4223   28.7890    0.1778 C   0  0  0  0  0  0  0  0  0  0  0  0
  -15.8316   27.5265    0.2424 C   0  0  0  0  0  0  0  0  0  0  0  0
  -16.6144   26.3933    0.4152 C   0  0  0  0  0  0  0  0  0  0  0  0
  -14.6496   24.9852   -0.0247 C   0  0  0  0  0  0  0  0  0  0  0  0
  -13.4909   25.0866    1.0227 C   0  0  0  0  0  0  0  0  0  0  0  0
  -12.2962   24.1166    0.7277 C   0  0  0  0  0  0  0  0  0  0  0  0
  -12.6215   22.7389    0.2785 N   0  3  0  0  0  0  0  0  0  0  0  0
  -13.4253   22.0112    1.2943 C   0  0  0  0  0  0  0  0  0  0  0  0
  -11.3679   21.9887   -0.0790 C   0  0  0  0  0  0  0  0  0  0  0  0
  -15.0198   22.6091    4.5725 C   0  0  0  0  0  0  0  0  0  0  0  0
  -13.5311   22.8260    4.4483 C   0  0  0  0  0  0  0  0  0  0  0  0
  -15.4395   21.9681    5.5228 O   0  0  0  0  0  0  0  0  0  0  0  0
  1  7  1  0  0  0  0
  1  9  1  0  0  0  0
  2  8  1  0  0  0  0
  2 14  1  0  0  0  0
  2 15  1  0  0  0  0
  3  4  2  0  0  0  0
  3  8  1  0  0  0  0
  4  5  1  0  0  0  0
  4 21  1  0  0  0  0
  5  6  2  0  0  0  0
  6  7  1  0  0  0  0
  7  8  2  0  0  0  0
  9 10  2  0  0  0  0
  9 14  1  0  0  0  0
 10 11  1  0  0  0  0
 11 12  2  0  0  0  0
 12 13  1  0  0  0  0
 13 14  2  0  0  0  0
 15 16  1  0  0  0  0
 16 17  1  0  0  0  0
 17 18  1  0  0  0  0
 18 19  1  0  0  0  0
 18 20  1  0  0  0  0
 21 22  1  0  0  0  0
 21 23  2  0  0  0  0
M  CHG  1  18   1
M  END
>  <CHROM.1>
-48.06093614,5.85024973,144.84123649,-41.38225237,59.63206151,-15.80135851
24.60806550,1.58065109,2.38580014,0.38909002,-0.78652229

>  <Name>


>  <RI>
0

>  <Rbt.Current_Directory>
/home/itssahil/PROJECTS/Mol_Feturizer/New_Systems/rnas/1lvj

>  <Rbt.Executable>
rbdock ($Id: //depot/dev/client3/rdock/2013.1/src/exe/rbdock.cxx#4 $)

>  <Rbt.Library>
libRbt.so (2013.1, Build901 2013/11/27)

>  <Rbt.Parameter_File>
/export/apps/rDock/src/rDock_2013.1_src/data/scripts/dock_solv.prm

>  <Rbt.Receptor>
prm/blind_docking_80.prm

>  <SCORE>
-35.912

>  <SCORE.INTER>
-36.3644

>  <SCORE.INTER.CONST>
1

>  <SCORE.INTER.POLAR>
-1.58745

>  <SCORE.INTER.ROT>
5

>  <SCORE.INTER.SOLV>
18.1161

>  <SCORE.INTER.VDW>
-31.9235

>  <SCORE.INTER.norm>
-1.58106

>  <SCORE.INTRA>
0.449383

>  <SCORE.INTRA.DIHEDRAL>
-2.39099

>  <SCORE.INTRA.DIHEDRAL.0>
8.06479

>  <SCORE.INTRA.POLAR>
0

>  <SCORE.INTRA.POLAR.0>
0

>  <SCORE.INTRA.REPUL>
0

>  <SCORE.INTRA.REPUL.0>
0

>  <SCORE.INTRA.SOLV>
2.51579

>  <SCORE.INTRA.SOLV.lig_0>
-29.8054

>  <SCORE.INTRA.VDW>
0.386985

>  <SCORE.INTRA.VDW.0>
2.61447

>  <SCORE.INTRA.norm>
0.0195384

>  <SCORE.RESTR>
0.00296621

>  <SCORE.RESTR.CAVITY>
0.00296621

>  <SCORE.RESTR.norm>
0.000128966

>  <SCORE.SYSTEM>
0

>  <SCORE.SYSTEM.CONST>
0

>  <SCORE.SYSTEM.DIHEDRAL>
0

>  <SCORE.SYSTEM.SOLV>
0

>  <SCORE.SYSTEM.norm>
0

>  <SCORE.heavy>
23

>  <SCORE.norm>
-1.56139

>  <RMSD>
21.287

$$$$

 OpenBabel11021811403D
libRbt.so/2013.1/901 2013/11/27
 23 25  0  0  0  0  0  0  0  0999 V2000
  -12.9212   24.2692    0.9606 S   0  0  0  0  0  0  0  0  0  0  0  0
  -15.6677   23.6404    1.9253 N   0  0  0  0  0  0  0  0  0  0  0  0
  -16.6557   25.7791    1.4119 C   0  0  0  0  0  0  0  0  0  0  0  0
  -16.5110   27.0729    0.8940 C   0  0  0  0  0  0  0  0  0  0  0  0
  -15.2815   27.4958    0.3980 C   0  0  0  0  0  0  0  0  0  0  0  0
  -14.1909   26.6334    0.4203 C   0  0  0  0  0  0  0  0  0  0  0  0
  -14.3225   25.3461    0.9350 C   0  0  0  0  0  0  0  0  0  0  0  0
  -15.5558   24.9101    1.4339 C   0  0  0  0  0  0  0  0  0  0  0  0
  -13.3607   23.6449    2.5518 C   0  0  0  0  0  0  0  0  0  0  0  0
  -12.3690   23.3948    3.5049 C   0  0  0  0  0  0  0  0  0  0  0  0
  -12.7208   22.8956    4.7623 C   0  0  0  0  0  0  0  0  0  0  0  0
  -14.0639   22.6442    5.0610 C   0  0  0  0  0  0  0  0  0  0  0  0
  -15.0485   22.8954    4.1048 C   0  0  0  0  0  0  0  0  0  0  0  0
  -14.7036   23.3952    2.8566 C   0  0  0  0  0  0  0  0  0  0  0  0
  -17.0048   23.0165    2.0837 C   0  0  0  0  0  0  0  0  0  0  0  0
  -17.7757   23.3089    3.4142 C   0  0  0  0  0  0  0  0  0  0  0  0
  -18.4117   24.7400    3.4655 C   0  0  0  0  0  0  0  0  0  0  0  0
  -19.2642   25.0742    4.6348 N   0  3  0  0  0  0  0  0  0  0  0  0
  -20.5947   24.4192    4.5426 C   0  0  0  0  0  0  0  0  0  0  0  0
  -19.3889   26.5649    4.7905 C   0  0  0  0  0  0  0  0  0  0  0  0
  -17.6801   28.0160    0.8732 C   0  0  0  0  0  0  0  0  0  0  0  0
  -17.5742   29.4069    0.2962 C   0  0  0  0  0  0  0  0  0  0  0  0
  -18.7660   27.6328    1.2784 O   0  0  0  0  0  0  0  0  0  0  0  0
  1  7  1  0  0  0  0
  1  9  1  0  0  0  0
  2  8  1  0  0  0  0
  2 14  1  0  0  0  0
  2 15  1  0  0  0  0
  3  4  2  0  0  0  0
  3  8  1  0  0  0  0
  4  5  1  0  0  0  0
  4 21  1  0  0  0  0
  5  6  2  0  0  0  0
  6  7  1  0  0  0  0
  7  8  2  0  0  0  0
  9 10  2  0  0  0  0
  9 14  1  0  0  0  0
 10 11  1  0  0  0  0
 11 12  2  0  0  0  0
 12 13  1  0  0  0  0
 13 14  2  0  0  0  0
 15 16  1  0  0  0  0
 16 17  1  0  0  0  0
 17 18  1  0  0  0  0
 18 19  1  0  0  0  0
 18 20  1  0  0  0  0
 21 22  1  0  0  0  0
 21 23  2  0  0  0  0
M  CHG  1  18   1
M  END
>  <CHROM.1>
-85.76360631,-178.61670518,76.07939150,174.79587601,44.80891921,-16.02326269
25.03816750,2.41185328,-0.40728792,0.35083893,-0.73788399

>  <Name>


>  <RI>
0

>  <Rbt.Current_Directory>
/home/itssahil/PROJECTS/Mol_Feturizer/New_Systems/rnas/1lvj

>  <Rbt.Executable>
rbdock ($Id: //depot/dev/client3/rdock/2013.1/src/exe/rbdock.cxx#4 $)

>  <Rbt.Library>
libRbt.so (2013.1, Build901 2013/11/27)

>  <Rbt.Parameter_File>
/export/apps/rDock/src/rDock_2013.1_src/data/scripts/dock_solv.prm

>  <Rbt.Receptor>
prm/blind_docking_60.prm

>  <SCORE>
-35.7673

>  <SCORE.INTER>
-32.4747

>  <SCORE.INTER.CONST>
1

>  <SCORE.INTER.POLAR>
-1.23693

>  <SCORE.INTER.ROT>
5

>  <SCORE.INTER.SOLV>
15.0037

>  <SCORE.INTER.VDW>
-29.4613

>  <SCORE.INTER.norm>
-1.41195

>  <SCORE.INTRA>
-3.29252

>  <SCORE.INTRA.DIHEDRAL>
-5.89503

>  <SCORE.INTRA.DIHEDRAL.0>
8.06479

>  <SCORE.INTRA.POLAR>
0

>  <SCORE.INTRA.POLAR.0>
0

>  <SCORE.INTRA.REPUL>
0

>  <SCORE.INTRA.REPUL.0>
0

>  <SCORE.INTRA.SOLV>
0.847924

>  <SCORE.INTRA.SOLV.lig_0>
-29.8054

>  <SCORE.INTRA.VDW>
-0.768967

>  <SCORE.INTRA.VDW.0>
2.61447

>  <SCORE.INTRA.norm>
-0.143153

>  <SCORE.RESTR>
0

>  <SCORE.RESTR.CAVITY>
0

>  <SCORE.RESTR.norm>
0

>  <SCORE.SYSTEM>
0

>  <SCORE.SYSTEM.CONST>
0

>  <SCORE.SYSTEM.DIHEDRAL>
0

>  <SCORE.SYSTEM.SOLV>
0

>  <SCORE.SYSTEM.norm>
0

>  <SCORE.heavy>
23

>  <SCORE.norm>
-1.5551

>  <RMSD>
21.297

$$$$

 OpenBabel11021811403D
libRbt.so/2013.1/901 2013/11/27
 23 25  0  0  0  0  0  0  0  0999 V2000
  -12.8527   24.2666    0.9996 S   0  0  0  0  0  0  0  0  0  0  0  0
  -15.5963   23.6252    1.9644 N   0  0  0  0  0  0  0  0  0  0  0  0
  -16.6003   25.7507    1.4275 C   0  0  0  0  0  0  0  0  0  0  0  0
  -16.4649   27.0404    0.8971 C   0  0  0  0  0  0  0  0  0  0  0  0
  -15.2377   27.4683    0.3997 C   0  0  0  0  0  0  0  0  0  0  0  0
  -14.1402   26.6150    0.4330 C   0  0  0  0  0  0  0  0  0  0  0  0
  -14.2625   25.3319    0.9602 C   0  0  0  0  0  0  0  0  0  0  0  0
  -15.4935   24.8908    1.4606 C   0  0  0  0  0  0  0  0  0  0  0  0
  -13.2908   23.6546    2.5960 C   0  0  0  0  0  0  0  0  0  0  0  0
  -12.2994   23.4220    3.5537 C   0  0  0  0  0  0  0  0  0  0  0  0
  -12.6500   22.9325    4.8152 C   0  0  0  0  0  0  0  0  0  0  0  0
  -13.9917   22.6732    5.1134 C   0  0  0  0  0  0  0  0  0  0  0  0
  -14.9762   22.9069    4.1526 C   0  0  0  0  0  0  0  0  0  0  0  0
  -14.6324   23.3971    2.9003 C   0  0  0  0  0  0  0  0  0  0  0  0
  -16.9287   22.9921    2.1260 C   0  0  0  0  0  0  0  0  0  0  0  0
  -17.7181   23.3156    3.4382 C   0  0  0  0  0  0  0  0  0  0  0  0
  -18.4274   24.7126    3.4116 C   0  0  0  0  0  0  0  0  0  0  0  0
  -19.2540   25.0886    4.5868 N   0  3  0  0  0  0  0  0  0  0  0  0
  -20.5827   24.4244    4.5521 C   0  0  0  0  0  0  0  0  0  0  0  0
  -19.3833   26.5837    4.6867 C   0  0  0  0  0  0  0  0  0  0  0  0
  -17.6415   27.9737    0.8643 C   0  0  0  0  0  0  0  0  0  0  0  0
  -17.5515   29.3513    0.2537 C   0  0  0  0  0  0  0  0  0  0  0  0
  -18.7208   27.5919    1.2879 O   0  0  0  0  0  0  0  0  0  0  0  0
  1  7  1  0  0  0  0
  1  9  1  0  0  0  0
  2  8  1  0  0  0  0
  2 14  1  0  0  0  0
  2 15  1  0  0  0  0
  3  4  2  0  0  0  0
  3  8  1  0  0  0  0
  4  5  1  0  0  0  0
  4 21  1  0  0  0  0
  5  6  2  0  0  0  0
  6  7  1  0  0  0  0
  7  8  2  0  0  0  0
  9 10  2  0  0  0  0
  9 14  1  0  0  0  0
 10 11  1  0  0  0  0
 11 12  2  0  0  0  0
 12 13  1  0  0  0  0
 13 14  2  0  0  0  0
 15 16  1  0  0  0  0
 16 17  1  0  0  0  0
 17 18  1  0  0  0  0
 18 19  1  0  0  0  0
 18 20  1  0  0  0  0
 21 22  1  0  0  0  0
 21 23  2  0  0  0  0
M  CHG  1  18   1
M  END
>  <CHROM.1>
-84.50301027,-177.60904695,78.88694004,177.32377272,41.39247052,-15.97380147
25.03030643,2.42399974,-0.40182073,0.33857771,-0.74567636

>  <Name>


>  <RI>
0

>  <Rbt.Current_Directory>
/home/itssahil/PROJECTS/Mol_Feturizer/New_Systems/rnas/1lvj

>  <Rbt.Executable>
rbdock ($Id: //depot/dev/client3/rdock/2013.1/src/exe/rbdock.cxx#4 $)

>  <Rbt.Library>
libRbt.so (2013.1, Build901 2013/11/27)

>  <Rbt.Parameter_File>
/export/apps/rDock/src/rDock_2013.1_src/data/scripts/dock_solv.prm

>  <Rbt.Receptor>
prm/blind_docking_60.prm

>  <SCORE>
-35.7408

>  <SCORE.INTER>
-32.5346

>  <SCORE.INTER.CONST>
1

>  <SCORE.INTER.POLAR>
-1.23693

>  <SCORE.INTER.ROT>
5

>  <SCORE.INTER.SOLV>
14.8584

>  <SCORE.INTER.VDW>
-29.4528

>  <SCORE.INTER.norm>
-1.41455

>  <SCORE.INTRA>
-3.20623

>  <SCORE.INTRA.DIHEDRAL>
-5.42598

>  <SCORE.INTRA.DIHEDRAL.0>
8.06479

>  <SCORE.INTRA.POLAR>
0

>  <SCORE.INTRA.POLAR.0>
0

>  <SCORE.INTRA.REPUL>
0

>  <SCORE.INTRA.REPUL.0>
0

>  <SCORE.INTRA.SOLV>
0.929598

>  <SCORE.INTRA.SOLV.lig_0>
-29.8054

>  <SCORE.INTRA.VDW>
-0.958036

>  <SCORE.INTRA.VDW.0>
2.61447

>  <SCORE.INTRA.norm>
-0.139401

>  <SCORE.RESTR>
0

>  <SCORE.RESTR.CAVITY>
0

>  <SCORE.RESTR.norm>
0

>  <SCORE.SYSTEM>
0

>  <SCORE.SYSTEM.CONST>
0

>  <SCORE.SYSTEM.DIHEDRAL>
0

>  <SCORE.SYSTEM.SOLV>
0

>  <SCORE.SYSTEM.norm>
0

>  <SCORE.heavy>
23

>  <SCORE.norm>
-1.55395

>  <RMSD>
21.308

$$$$

 OpenBabel11021811403D
libRbt.so/2013.1/901 2013/11/27
 23 25  0  0  0  0  0  0  0  0999 V2000
  -12.3651   24.7088    1.3376 S   0  0  0  0  0  0  0  0  0  0  0  0
  -15.1071   23.6336    1.7790 N   0  0  0  0  0  0  0  0  0  0  0  0
  -16.3088   25.6254    1.1444 C   0  0  0  0  0  0  0  0  0  0  0  0
  -16.2777   26.9504    0.6899 C   0  0  0  0  0  0  0  0  0  0  0  0
  -15.0609   27.5745    0.4325 C   0  0  0  0  0  0  0  0  0  0  0  0
  -13.8709   26.8829    0.6311 C   0  0  0  0  0  0  0  0  0  0  0  0
  -13.8897   25.5665    1.0849 C   0  0  0  0  0  0  0  0  0  0  0  0
  -15.1087   24.9286    1.3442 C   0  0  0  0  0  0  0  0  0  0  0  0
  -12.9732   23.9484    2.8097 C   0  0  0  0  0  0  0  0  0  0  0  0
  -12.1361   23.8009    3.9195 C   0  0  0  0  0  0  0  0  0  0  0  0
  -12.6201   23.1936    5.0818 C   0  0  0  0  0  0  0  0  0  0  0  0
  -13.9394   22.7318    5.1287 C   0  0  0  0  0  0  0  0  0  0  0  0
  -14.7694   22.8815    4.0170 C   0  0  0  0  0  0  0  0  0  0  0  0
  -14.2937   23.4880    2.8626 C   0  0  0  0  0  0  0  0  0  0  0  0
  -16.3387   22.8117    1.6806 C   0  0  0  0  0  0  0  0  0  0  0  0
  -17.4871   23.1222    2.6978 C   0  0  0  0  0  0  0  0  0  0  0  0
  -18.7369   23.8009    2.0401 C   0  0  0  0  0  0  0  0  0  0  0  0
  -19.6227   24.6100    2.9157 N   0  3  0  0  0  0  0  0  0  0  0  0
  -20.1982   23.7904    4.0133 C   0  0  0  0  0  0  0  0  0  0  0  0
  -20.6954   25.2844    2.1054 C   0  0  0  0  0  0  0  0  0  0  0  0
  -17.5567   27.7099    0.4806 C   0  0  0  0  0  0  0  0  0  0  0  0
  -17.5751   29.2083    0.2981 C   0  0  0  0  0  0  0  0  0  0  0  0
  -18.6094   27.0980    0.3947 O   0  0  0  0  0  0  0  0  0  0  0  0
  1  7  1  0  0  0  0
  1  9  1  0  0  0  0
  2  8  1  0  0  0  0
  2 14  1  0  0  0  0
  2 15  1  0  0  0  0
  3  4  2  0  0  0  0
  3  8  1  0  0  0  0
  4  5  1  0  0  0  0
  4 21  1  0  0  0  0
  5  6  2  0  0  0  0
  6  7  1  0  0  0  0
  7  8  2  0  0  0  0
  9 10  2  0  0  0  0
  9 14  1  0  0  0  0
 10 11  1  0  0  0  0
 11 12  2  0  0  0  0
 12 13  1  0  0  0  0
 13 14  2  0  0  0  0
 15 16  1  0  0  0  0
 16 17  1  0  0  0  0
 17 18  1  0  0  0  0
 18 19  1  0  0  0  0
 18 20  1  0  0  0  0
 21 22  1  0  0  0  0
 21 23  2  0  0  0  0
M  CHG  1  18   1
M  END
>  <CHROM.1>
-74.04504289,165.93200118,109.18673762,-156.29498869,59.80026951,-15.82905565
24.92845509,2.08016263,-0.40266403,0.03474080,-0.66398845

>  <Name>


>  <RI>
0

>  <Rbt.Current_Directory>
/home/itssahil/PROJECTS/Mol_Feturizer/New_Systems/rnas/1lvj

>  <Rbt.Executable>
rbdock ($Id: //depot/dev/client3/rdock/2013.1/src/exe/rbdock.cxx#4 $)

>  <Rbt.Library>
libRbt.so (2013.1, Build901 2013/11/27)

>  <Rbt.Parameter_File>
/export/apps/rDock/src/rDock_2013.1_src/data/scripts/dock_solv.prm

>  <Rbt.Receptor>
prm/blind_docking_80.prm

>  <SCORE>
-27.5914

>  <SCORE.INTER>
-27.1016

>  <SCORE.INTER.CONST>
1

>  <SCORE.INTER.POLAR>
0

>  <SCORE.INTER.ROT>
5

>  <SCORE.INTER.SOLV>
10.1244

>  <SCORE.INTER.VDW>
-28.3759

>  <SCORE.INTER.norm>
-1.17833

>  <SCORE.INTRA>
-1.03037

>  <SCORE.INTRA.DIHEDRAL>
0.0707207

>  <SCORE.INTRA.DIHEDRAL.0>
8.06479

>  <SCORE.INTRA.POLAR>
0

>  <SCORE.INTRA.POLAR.0>
0

>  <SCORE.INTRA.REPUL>
0

>  <SCORE.INTRA.REPUL.0>
0

>  <SCORE.INTRA.SOLV>
2.20693

>  <SCORE.INTRA.SOLV.lig_0>
-29.8054

>  <SCORE.INTRA.VDW>
-2.16919

>  <SCORE.INTRA.VDW.0>
2.61447

>  <SCORE.INTRA.norm>
-0.0447986

>  <SCORE.RESTR>
0.540585

>  <SCORE.RESTR.CAVITY>
0.540585

>  <SCORE.RESTR.norm>
0.0235037

>  <SCORE.SYSTEM>
0

>  <SCORE.SYSTEM.CONST>
0

>  <SCORE.SYSTEM.DIHEDRAL>
0

>  <SCORE.SYSTEM.SOLV>
0

>  <SCORE.SYSTEM.norm>
0

>  <SCORE.heavy>
23

>  <SCORE.norm>
-1.19963

>  <RMSD>
21.309

$$$$

 OpenBabel11021811403D
libRbt.so/2013.1/901 2013/11/27
 23 25  0  0  0  0  0  0  0  0999 V2000
  -13.3843   24.9692    0.8717 S   0  0  0  0  0  0  0  0  0  0  0  0
  -16.1449   23.9444    1.3167 N   0  0  0  0  0  0  0  0  0  0  0  0
  -17.2990   26.0201    0.8998 C   0  0  0  0  0  0  0  0  0  0  0  0
  -17.2382   27.3781    0.5606 C   0  0  0  0  0  0  0  0  0  0  0  0
  -16.0102   27.9847    0.3145 C   0  0  0  0  0  0  0  0  0  0  0  0
  -14.8383   27.2421    0.4099 C   0  0  0  0  0  0  0  0  0  0  0  0
  -14.8866   25.8922    0.7487 C   0  0  0  0  0  0  0  0  0  0  0  0
  -16.1172   25.2719    0.9956 C   0  0  0  0  0  0  0  0  0  0  0  0
  -13.9687   24.1022    2.2935 C   0  0  0  0  0  0  0  0  0  0  0  0
  -13.1008   23.8325    3.3558 C   0  0  0  0  0  0  0  0  0  0  0  0
  -13.5664   23.1411    4.4779 C   0  0  0  0  0  0  0  0  0  0  0  0
  -14.8983   22.7178    4.5320 C   0  0  0  0  0  0  0  0  0  0  0  0
  -15.7590   22.9896    3.4679 C   0  0  0  0  0  0  0  0  0  0  0  0
  -15.3016   23.6797    2.3539 C   0  0  0  0  0  0  0  0  0  0  0  0
  -17.4062   23.1725    1.1920 C   0  0  0  0  0  0  0  0  0  0  0  0
  -18.6910   23.7965    1.8322 C   0  0  0  0  0  0  0  0  0  0  0  0
  -18.4902   24.2507    3.3184 C   0  0  0  0  0  0  0  0  0  0  0  0
  -19.5853   25.0247    3.9567 N   0  3  0  0  0  0  0  0  0  0  0  0
  -19.0680   25.9209    5.0229 C   0  0  0  0  0  0  0  0  0  0  0  0
  -20.6527   24.1017    4.4769 C   0  0  0  0  0  0  0  0  0  0  0  0
  -18.4970   28.1921    0.4636 C   0  0  0  0  0  0  0  0  0  0  0  0
  -18.4682   29.6822    0.2237 C   0  0  0  0  0  0  0  0  0  0  0  0
  -19.5793   27.6303    0.5197 O   0  0  0  0  0  0  0  0  0  0  0  0
  1  7  1  0  0  0  0
  1  9  1  0  0  0  0
  2  8  1  0  0  0  0
  2 14  1  0  0  0  0
  2 15  1  0  0  0  0
  3  4  2  0  0  0  0
  3  8  1  0  0  0  0
  4  5  1  0  0  0  0
  4 21  1  0  0  0  0
  5  6  2  0  0  0  0
  6  7  1  0  0  0  0
  7  8  2  0  0  0  0
  9 10  2  0  0  0  0
  9 14  1  0  0  0  0
 10 11  1  0  0  0  0
 11 12  2  0  0  0  0
 12 13  1  0  0  0  0
 13 14  2  0  0  0  0
 15 16  1  0  0  0  0
 16 17  1  0  0  0  0
 17 18  1  0  0  0  0
 18 19  1  0  0  0  0
 18 20  1  0  0  0  0
 21 22  1  0  0  0  0
 21 23  2  0  0  0  0
M  CHG  1  18   1
M  END
>  <CHROM.1>
-49.07671389,174.39436021,-50.34256086,171.68241521,-32.38507112,-16.58160106
25.26032593,2.03051783,-0.59585569,0.26795555,-0.71123979

>  <Name>


>  <RI>
0

>  <Rbt.Current_Directory>
/home/itssahil/PROJECTS/Mol_Feturizer/New_Systems/rnas/1lvj

>  <Rbt.Executable>
rbdock ($Id: //depot/dev/client3/rdock/2013.1/src/exe/rbdock.cxx#4 $)

>  <Rbt.Library>
libRbt.so (2013.1, Build901 2013/11/27)

>  <Rbt.Parameter_File>
/export/apps/rDock/src/rDock_2013.1_src/data/scripts/dock_solv.prm

>  <Rbt.Receptor>
prm/blind_docking_60.prm

>  <SCORE>
-30.5825

>  <SCORE.INTER>
-28.2007

>  <SCORE.INTER.CONST>
1

>  <SCORE.INTER.POLAR>
0

>  <SCORE.INTER.ROT>
5

>  <SCORE.INTER.SOLV>
9.18927

>  <SCORE.INTER.VDW>
-28.7969

>  <SCORE.INTER.norm>
-1.22612

>  <SCORE.INTRA>
-2.38967

>  <SCORE.INTRA.DIHEDRAL>
-5.0074

>  <SCORE.INTRA.DIHEDRAL.0>
8.06479

>  <SCORE.INTRA.POLAR>
0

>  <SCORE.INTRA.POLAR.0>
0

>  <SCORE.INTRA.REPUL>
0

>  <SCORE.INTRA.REPUL.0>
0

>  <SCORE.INTRA.SOLV>
1.89014

>  <SCORE.INTRA.SOLV.lig_0>
-29.8054

>  <SCORE.INTRA.VDW>
-0.831043

>  <SCORE.INTRA.VDW.0>
2.61447

>  <SCORE.INTRA.norm>
-0.103899

>  <SCORE.RESTR>
0.00779968

>  <SCORE.RESTR.CAVITY>
0.00779968

>  <SCORE.RESTR.norm>
0.000339116

>  <SCORE.SYSTEM>
0

>  <SCORE.SYSTEM.CONST>
0

>  <SCORE.SYSTEM.DIHEDRAL>
0

>  <SCORE.SYSTEM.SOLV>
0

>  <SCORE.SYSTEM.norm>
0

>  <SCORE.heavy>
23

>  <SCORE.norm>
-1.32968

>  <RMSD>
21.328

$$$$

 OpenBabel11021811403D
libRbt.so/2013.1/901 2013/11/27
 23 25  0  0  0  0  0  0  0  0999 V2000
  -18.3957   24.4273    0.8945 S   0  0  0  0  0  0  0  0  0  0  0  0
  -15.5177   25.1575    0.6650 N   0  0  0  0  0  0  0  0  0  0  0  0
  -14.7772   24.0703    2.6858 C   0  0  0  0  0  0  0  0  0  0  0  0
  -15.0869   23.3041    3.8173 C   0  0  0  0  0  0  0  0  0  0  0  0
  -16.3943   22.8843    4.0429 C   0  0  0  0  0  0  0  0  0  0  0  0
  -17.3985   23.2299    3.1451 C   0  0  0  0  0  0  0  0  0  0  0  0
  -17.1026   23.9931    2.0186 C   0  0  0  0  0  0  0  0  0  0  0  0
  -15.7900   24.4181    1.7810 C   0  0  0  0  0  0  0  0  0  0  0  0
  -17.7357   26.0494    0.6752 C   0  0  0  0  0  0  0  0  0  0  0  0
  -18.5938   27.1496    0.5899 C   0  0  0  0  0  0  0  0  0  0  0  0
  -18.0672   28.4320    0.4112 C   0  0  0  0  0  0  0  0  0  0  0  0
  -16.6832   28.6094    0.3141 C   0  0  0  0  0  0  0  0  0  0  0  0
  -15.8324   27.5067    0.3993 C   0  0  0  0  0  0  0  0  0  0  0  0
  -16.3513   26.2322    0.5812 C   0  0  0  0  0  0  0  0  0  0  0  0
  -14.1229   25.2812    0.1737 C   0  0  0  0  0  0  0  0  0  0  0  0
  -13.3051   23.9571    0.0064 C   0  0  0  0  0  0  0  0  0  0  0  0
  -12.1257   23.8185    1.0287 C   0  0  0  0  0  0  0  0  0  0  0  0
  -11.5216   22.4734    1.2062 N   0  3  0  0  0  0  0  0  0  0  0  0
  -11.1606   21.8628   -0.0993 C   0  0  0  0  0  0  0  0  0  0  0  0
  -12.4363   21.5829    2.0015 C   0  0  0  0  0  0  0  0  0  0  0  0
  -14.0118   22.9326    4.7984 C   0  0  0  0  0  0  0  0  0  0  0  0
  -12.6366   23.5530    4.7493 C   0  0  0  0  0  0  0  0  0  0  0  0
  -14.2685   22.1517    5.7009 O   0  0  0  0  0  0  0  0  0  0  0  0
  1  7  1  0  0  0  0
  1  9  1  0  0  0  0
  2  8  1  0  0  0  0
  2 14  1  0  0  0  0
  2 15  1  0  0  0  0
  3  4  2  0  0  0  0
  3  8  1  0  0  0  0
  4  5  1  0  0  0  0
  4 21  1  0  0  0  0
  5  6  2  0  0  0  0
  6  7  1  0  0  0  0
  7  8  2  0  0  0  0
  9 10  2  0  0  0  0
  9 14  1  0  0  0  0
 10 11  1  0  0  0  0
 11 12  2  0  0  0  0
 12 13  1  0  0  0  0
 13 14  2  0  0  0  0
 15 16  1  0  0  0  0
 16 17  1  0  0  0  0
 17 18  1  0  0  0  0
 18 19  1  0  0  0  0
 18 20  1  0  0  0  0
 21 22  1  0  0  0  0
 21 23  2  0  0  0  0
M  CHG  1  18   1
M  END
>  <CHROM.1>
49.88048791,10.92566645,-111.74415896,164.00534244,170.50103605,-15.25070411
24.40627565,1.77093857,2.48831291,0.40005663,-0.93203602

>  <Name>


>  <RI>
0

>  <Rbt.Current_Directory>
/home/itssahil/PROJECTS/Mol_Feturizer/New_Systems/rnas/1lvj

>  <Rbt.Executable>
rbdock ($Id: //depot/dev/client3/rdock/2013.1/src/exe/rbdock.cxx#4 $)

>  <Rbt.Library>
libRbt.so (2013.1, Build901 2013/11/27)

>  <Rbt.Parameter_File>
/export/apps/rDock/src/rDock_2013.1_src/data/scripts/dock_solv.prm

>  <Rbt.Receptor>
prm/blind_docking_80.prm

>  <SCORE>
-30.1116

>  <SCORE.INTER>
-28.5414

>  <SCORE.INTER.CONST>
1

>  <SCORE.INTER.POLAR>
0

>  <SCORE.INTER.ROT>
5

>  <SCORE.INTER.SOLV>
12.1103

>  <SCORE.INTER.VDW>
-29.9977

>  <SCORE.INTER.norm>
-1.24093

>  <SCORE.INTRA>
-1.60742

>  <SCORE.INTRA.DIHEDRAL>
-1.02133

>  <SCORE.INTRA.DIHEDRAL.0>
8.06479

>  <SCORE.INTRA.POLAR>
0

>  <SCORE.INTRA.POLAR.0>
0

>  <SCORE.INTRA.REPUL>
0

>  <SCORE.INTRA.REPUL.0>
0

>  <SCORE.INTRA.SOLV>
0.468031

>  <SCORE.INTRA.SOLV.lig_0>
-29.8054

>  <SCORE.INTRA.VDW>
-1.33077

>  <SCORE.INTRA.VDW.0>
2.61447

>  <SCORE.INTRA.norm>
-0.0698879

>  <SCORE.RESTR>
0.0372253

>  <SCORE.RESTR.CAVITY>
0.0372253

>  <SCORE.RESTR.norm>
0.00161849

>  <SCORE.SYSTEM>
0

>  <SCORE.SYSTEM.CONST>
0

>  <SCORE.SYSTEM.DIHEDRAL>
0

>  <SCORE.SYSTEM.SOLV>
0

>  <SCORE.SYSTEM.norm>
0

>  <SCORE.heavy>
23

>  <SCORE.norm>
-1.3092

>  <RMSD>
21.328

$$$$

 OpenBabel11021811403D
libRbt.so/2013.1/901 2013/11/27
 23 25  0  0  0  0  0  0  0  0999 V2000
  -13.1970   24.0308    0.8309 S   0  0  0  0  0  0  0  0  0  0  0  0
  -15.9258   23.6277    1.9536 N   0  0  0  0  0  0  0  0  0  0  0  0
  -16.7668   25.8375    1.4810 C   0  0  0  0  0  0  0  0  0  0  0  0
  -16.5485   27.1140    0.9462 C   0  0  0  0  0  0  0  0  0  0  0  0
  -15.3193   27.4353    0.3786 C   0  0  0  0  0  0  0  0  0  0  0  0
  -14.3018   26.4880    0.3457 C   0  0  0  0  0  0  0  0  0  0  0  0
  -14.5066   25.2169    0.8765 C   0  0  0  0  0  0  0  0  0  0  0  0
  -15.7406   24.8829    1.4473 C   0  0  0  0  0  0  0  0  0  0  0  0
  -13.5939   23.4484    2.4489 C   0  0  0  0  0  0  0  0  0  0  0  0
  -12.5730   23.1220    3.3464 C   0  0  0  0  0  0  0  0  0  0  0  0
  -12.8916   22.6563    4.6252 C   0  0  0  0  0  0  0  0  0  0  0  0
  -14.2314   22.5146    5.0011 C   0  0  0  0  0  0  0  0  0  0  0  0
  -15.2455   22.8414    4.1001 C   0  0  0  0  0  0  0  0  0  0  0  0
  -14.9330   23.3084    2.8309 C   0  0  0  0  0  0  0  0  0  0  0  0
  -17.2974   23.1138    2.1918 C   0  0  0  0  0  0  0  0  0  0  0  0
  -17.9946   23.5336    3.5288 C   0  0  0  0  0  0  0  0  0  0  0  0
  -18.5513   24.9982    3.5094 C   0  0  0  0  0  0  0  0  0  0  0  0
  -19.0032   25.5811    4.7985 N   0  3  0  0  0  0  0  0  0  0  0  0
  -20.4653   25.4023    4.9933 C   0  0  0  0  0  0  0  0  0  0  0  0
  -18.6033   27.0278    4.8947 C   0  0  0  0  0  0  0  0  0  0  0  0
  -17.6375   28.1480    0.9845 C   0  0  0  0  0  0  0  0  0  0  0  0
  -17.4791   29.4995    0.3309 C   0  0  0  0  0  0  0  0  0  0  0  0
  -18.7065   27.8729    1.5057 O   0  0  0  0  0  0  0  0  0  0  0  0
  1  7  1  0  0  0  0
  1  9  1  0  0  0  0
  2  8  1  0  0  0  0
  2 14  1  0  0  0  0
  2 15  1  0  0  0  0
  3  4  2  0  0  0  0
  3  8  1  0  0  0  0
  4  5  1  0  0  0  0
  4 21  1  0  0  0  0
  5  6  2  0  0  0  0
  6  7  1  0  0  0  0
  7  8  2  0  0  0  0
  9 10  2  0  0  0  0
  9 14  1  0  0  0  0
 10 11  1  0  0  0  0
 11 12  2  0  0  0  0
 12 13  1  0  0  0  0
 13 14  2  0  0  0  0
 15 16  1  0  0  0  0
 16 17  1  0  0  0  0
 17 18  1  0  0  0  0
 18 19  1  0  0  0  0
 18 20  1  0  0  0  0
 21 22  1  0  0  0  0
 21 23  2  0  0  0  0
M  CHG  1  18   1
M  END
>  <CHROM.1>
-82.62372039,-175.44266240,77.34047300,-168.93209791,25.41099949,-16.09789062
25.10100682,2.44152709,-0.48056626,0.47737483,-0.75544539

>  <Name>


>  <RI>
0

>  <Rbt.Current_Directory>
/home/itssahil/PROJECTS/Mol_Feturizer/New_Systems/rnas/1lvj

>  <Rbt.Executable>
rbdock ($Id: //depot/dev/client3/rdock/2013.1/src/exe/rbdock.cxx#4 $)

>  <Rbt.Library>
libRbt.so (2013.1, Build901 2013/11/27)

>  <Rbt.Parameter_File>
/export/apps/rDock/src/rDock_2013.1_src/data/scripts/dock_solv.prm

>  <Rbt.Receptor>
prm/blind_docking_60.prm

>  <SCORE>
-34.9386

>  <SCORE.INTER>
-32.5264

>  <SCORE.INTER.CONST>
1

>  <SCORE.INTER.POLAR>
-1.23693

>  <SCORE.INTER.ROT>
5

>  <SCORE.INTER.SOLV>
14.6022

>  <SCORE.INTER.VDW>
-29.3619

>  <SCORE.INTER.norm>
-1.41419

>  <SCORE.INTRA>
-2.41218

>  <SCORE.INTRA.DIHEDRAL>
-3.76424

>  <SCORE.INTRA.DIHEDRAL.0>
8.06479

>  <SCORE.INTRA.POLAR>
0

>  <SCORE.INTRA.POLAR.0>
0

>  <SCORE.INTRA.REPUL>
0

>  <SCORE.INTRA.REPUL.0>
0

>  <SCORE.INTRA.SOLV>
1.21197

>  <SCORE.INTRA.SOLV.lig_0>
-29.8054

>  <SCORE.INTRA.VDW>
-1.13605

>  <SCORE.INTRA.VDW.0>
2.61447

>  <SCORE.INTRA.norm>
-0.104878

>  <SCORE.RESTR>
0

>  <SCORE.RESTR.CAVITY>
0

>  <SCORE.RESTR.norm>
0

>  <SCORE.SYSTEM>
0

>  <SCORE.SYSTEM.CONST>
0

>  <SCORE.SYSTEM.DIHEDRAL>
0

>  <SCORE.SYSTEM.SOLV>
0

>  <SCORE.SYSTEM.norm>
0

>  <SCORE.heavy>
23

>  <SCORE.norm>
-1.51907

>  <RMSD>
21.331

$$$$

 OpenBabel11021811403D
libRbt.so/2013.1/901 2013/11/27
 23 25  0  0  0  0  0  0  0  0999 V2000
  -13.4895   23.6554    3.7014 S   0  0  0  0  0  0  0  0  0  0  0  0
  -14.4224   24.9644    1.1943 N   0  0  0  0  0  0  0  0  0  0  0  0
  -16.7775   24.5526    1.5073 C   0  0  0  0  0  0  0  0  0  0  0  0
  -17.8067   24.0181    2.2935 C   0  0  0  0  0  0  0  0  0  0  0  0
  -17.5126   23.3869    3.4983 C   0  0  0  0  0  0  0  0  0  0  0  0
  -16.1923   23.2816    3.9219 C   0  0  0  0  0  0  0  0  0  0  0  0
  -15.1610   23.8069    3.1474 C   0  0  0  0  0  0  0  0  0  0  0  0
  -15.4466   24.4464    1.9351 C   0  0  0  0  0  0  0  0  0  0  0  0
  -12.9192   23.3218    2.0648 C   0  0  0  0  0  0  0  0  0  0  0  0
  -11.9285   22.3592    1.8504 C   0  0  0  0  0  0  0  0  0  0  0  0
  -11.4760   22.1016    0.5532 C   0  0  0  0  0  0  0  0  0  0  0  0
  -12.0134   22.8112   -0.5257 C   0  0  0  0  0  0  0  0  0  0  0  0
  -13.0015   23.7713   -0.3045 C   0  0  0  0  0  0  0  0  0  0  0  0
  -13.4566   24.0268    0.9817 C   0  0  0  0  0  0  0  0  0  0  0  0
  -14.6985   25.9731    0.1415 C   0  0  0  0  0  0  0  0  0  0  0  0
  -15.6548   27.1537    0.5176 C   0  0  0  0  0  0  0  0  0  0  0  0
  -17.0963   27.0033   -0.0779 C   0  0  0  0  0  0  0  0  0  0  0  0
  -17.8147   28.2437   -0.4664 N   0  3  0  0  0  0  0  0  0  0  0  0
  -17.4568   29.3802    0.4212 C   0  0  0  0  0  0  0  0  0  0  0  0
  -19.2999   28.0085   -0.4955 C   0  0  0  0  0  0  0  0  0  0  0  0
  -19.2357   24.1181    1.8412 C   0  0  0  0  0  0  0  0  0  0  0  0
  -19.6427   24.9679    0.6619 C   0  0  0  0  0  0  0  0  0  0  0  0
  -20.0893   23.4489    2.4013 O   0  0  0  0  0  0  0  0  0  0  0  0
  1  7  1  0  0  0  0
  1  9  1  0  0  0  0
  2  8  1  0  0  0  0
  2 14  1  0  0  0  0
  2 15  1  0  0  0  0
  3  4  2  0  0  0  0
  3  8  1  0  0  0  0
  4  5  1  0  0  0  0
  4 21  1  0  0  0  0
  5  6  2  0  0  0  0
  6  7  1  0  0  0  0
  7  8  2  0  0  0  0
  9 10  2  0  0  0  0
  9 14  1  0  0  0  0
 10 11  1  0  0  0  0
 11 12  2  0  0  0  0
 12 13  1  0  0  0  0
 13 14  2  0  0  0  0
 15 16  1  0  0  0  0
 16 17  1  0  0  0  0
 17 18  1  0  0  0  0
 18 19  1  0  0  0  0
 18 20  1  0  0  0  0
 21 22  1  0  0  0  0
 21 23  2  0  0  0  0
M  CHG  1  18   1
M  END
>  <CHROM.1>
46.27094675,-9.76727121,-103.73922444,-146.53777124,87.06605249,-15.73790904
24.76204880,1.42564973,0.53191641,-0.23245744,2.46883921

>  <Name>


>  <RI>
0

>  <Rbt.Current_Directory>
/home/itssahil/PROJECTS/Mol_Feturizer/New_Systems/rnas/1lvj

>  <Rbt.Executable>
rbdock ($Id: //depot/dev/client3/rdock/2013.1/src/exe/rbdock.cxx#4 $)

>  <Rbt.Library>
libRbt.so (2013.1, Build901 2013/11/27)

>  <Rbt.Parameter_File>
/export/apps/rDock/src/rDock_2013.1_src/data/scripts/dock_solv.prm

>  <Rbt.Receptor>
prm/blind_docking_40.prm

>  <SCORE>
-25.4716

>  <SCORE.INTER>
-27.9712

>  <SCORE.INTER.CONST>
1

>  <SCORE.INTER.POLAR>
-1.52596

>  <SCORE.INTER.ROT>
5

>  <SCORE.INTER.SOLV>
20.0563

>  <SCORE.INTER.VDW>
-27.1797

>  <SCORE.INTER.norm>
-1.21614

>  <SCORE.INTRA>
2.49962

>  <SCORE.INTRA.DIHEDRAL>
1.8728

>  <SCORE.INTRA.DIHEDRAL.0>
8.06479

>  <SCORE.INTRA.POLAR>
0

>  <SCORE.INTRA.POLAR.0>
0

>  <SCORE.INTRA.REPUL>
0

>  <SCORE.INTRA.REPUL.0>
0

>  <SCORE.INTRA.SOLV>
0.270115

>  <SCORE.INTRA.SOLV.lig_0>
-29.8054

>  <SCORE.INTRA.VDW>
1.42817

>  <SCORE.INTRA.VDW.0>
2.61447

>  <SCORE.INTRA.norm>
0.108679

>  <SCORE.RESTR>
0

>  <SCORE.RESTR.CAVITY>
0

>  <SCORE.RESTR.norm>
0

>  <SCORE.SYSTEM>
0

>  <SCORE.SYSTEM.CONST>
0

>  <SCORE.SYSTEM.DIHEDRAL>
0

>  <SCORE.SYSTEM.SOLV>
0

>  <SCORE.SYSTEM.norm>
0

>  <SCORE.heavy>
23

>  <SCORE.norm>
-1.10746

>  <RMSD>
21.342

$$$$

 OpenBabel11021811403D
libRbt.so/2013.1/901 2013/11/27
 23 25  0  0  0  0  0  0  0  0999 V2000
  -19.7099   27.1889   -0.7485 S   0  0  0  0  0  0  0  0  0  0  0  0
  -17.5703   25.3452    0.1959 N   0  0  0  0  0  0  0  0  0  0  0  0
  -18.7930   24.4009    2.0472 C   0  0  0  0  0  0  0  0  0  0  0  0
  -19.9737   24.3437    2.7993 C   0  0  0  0  0  0  0  0  0  0  0  0
  -21.0596   25.1455    2.4610 C   0  0  0  0  0  0  0  0  0  0  0  0
  -20.9717   26.0103    1.3756 C   0  0  0  0  0  0  0  0  0  0  0  0
  -19.8023   26.0773    0.6225 C   0  0  0  0  0  0  0  0  0  0  0  0
  -18.7052   25.2728    0.9528 C   0  0  0  0  0  0  0  0  0  0  0  0
  -18.0447   27.6224   -0.3557 C   0  0  0  0  0  0  0  0  0  0  0  0
  -17.6175   28.9477   -0.4800 C   0  0  0  0  0  0  0  0  0  0  0  0
  -16.2966   29.2859   -0.1727 C   0  0  0  0  0  0  0  0  0  0  0  0
  -15.4055   28.2960    0.2544 C   0  0  0  0  0  0  0  0  0  0  0  0
  -15.8383   26.9750    0.3756 C   0  0  0  0  0  0  0  0  0  0  0  0
  -17.1504   26.6361    0.0756 C   0  0  0  0  0  0  0  0  0  0  0  0
  -16.5629   24.2572    0.2551 C   0  0  0  0  0  0  0  0  0  0  0  0
  -15.7082   24.1463    1.5617 C   0  0  0  0  0  0  0  0  0  0  0  0
  -14.5058   23.1492    1.4382 C   0  0  0  0  0  0  0  0  0  0  0  0
  -13.2341   23.5159    2.1121 N   0  3  0  0  0  0  0  0  0  0  0  0
  -12.6296   24.7315    1.5084 C   0  0  0  0  0  0  0  0  0  0  0  0
  -12.2762   22.3564    2.1026 C   0  0  0  0  0  0  0  0  0  0  0  0
  -20.0765   23.4199    3.9793 C   0  0  0  0  0  0  0  0  0  0  0  0
  -19.1807   22.2143    4.1304 C   0  0  0  0  0  0  0  0  0  0  0  0
  -20.8641   23.6784    4.8754 O   0  0  0  0  0  0  0  0  0  0  0  0
  1  7  1  0  0  0  0
  1  9  1  0  0  0  0
  2  8  1  0  0  0  0
  2 14  1  0  0  0  0
  2 15  1  0  0  0  0
  3  4  2  0  0  0  0
  3  8  1  0  0  0  0
  4  5  1  0  0  0  0
  4 21  1  0  0  0  0
  5  6  2  0  0  0  0
  6  7  1  0  0  0  0
  7  8  2  0  0  0  0
  9 10  2  0  0  0  0
  9 14  1  0  0  0  0
 10 11  1  0  0  0  0
 11 12  2  0  0  0  0
 12 13  1  0  0  0  0
 13 14  2  0  0  0  0
 15 16  1  0  0  0  0
 16 17  1  0  0  0  0
 17 18  1  0  0  0  0
 18 19  1  0  0  0  0
 18 20  1  0  0  0  0
 21 22  1  0  0  0  0
 21 23  2  0  0  0  0
M  CHG  1  18   1
M  END
>  <CHROM.1>
-71.66472007,-21.69700747,-169.51390269,142.42467791,54.81101155,-17.51671201
25.37045545,1.29716539,-2.98411511,-0.15729334,2.49413763

>  <Name>


>  <RI>
0

>  <Rbt.Current_Directory>
/home/itssahil/PROJECTS/Mol_Feturizer/New_Systems/rnas/1lvj

>  <Rbt.Executable>
rbdock ($Id: //depot/dev/client3/rdock/2013.1/src/exe/rbdock.cxx#4 $)

>  <Rbt.Library>
libRbt.so (2013.1, Build901 2013/11/27)

>  <Rbt.Parameter_File>
/export/apps/rDock/src/rDock_2013.1_src/data/scripts/dock_solv.prm

>  <Rbt.Receptor>
prm/blind_docking_40.prm

>  <SCORE>
-5.60554

>  <SCORE.INTER>
-5.1898

>  <SCORE.INTER.CONST>
1

>  <SCORE.INTER.POLAR>
0

>  <SCORE.INTER.ROT>
5

>  <SCORE.INTER.SOLV>
11.7219

>  <SCORE.INTER.VDW>
-14.3005

>  <SCORE.INTER.norm>
-0.225644

>  <SCORE.INTRA>
-2.85751

>  <SCORE.INTRA.DIHEDRAL>
-1.49281

>  <SCORE.INTRA.DIHEDRAL.0>
8.06479

>  <SCORE.INTRA.POLAR>
0

>  <SCORE.INTRA.POLAR.0>
0

>  <SCORE.INTRA.REPUL>
0

>  <SCORE.INTRA.REPUL.0>
0

>  <SCORE.INTRA.SOLV>
0.288465

>  <SCORE.INTRA.SOLV.lig_0>
-29.8054

>  <SCORE.INTRA.VDW>
-2.25533

>  <SCORE.INTRA.VDW.0>
2.61447

>  <SCORE.INTRA.norm>
-0.124239

>  <SCORE.RESTR>
2.44177

>  <SCORE.RESTR.CAVITY>
2.44177

>  <SCORE.RESTR.norm>
0.106164

>  <SCORE.SYSTEM>
0

>  <SCORE.SYSTEM.CONST>
0

>  <SCORE.SYSTEM.DIHEDRAL>
0

>  <SCORE.SYSTEM.SOLV>
0

>  <SCORE.SYSTEM.norm>
0

>  <SCORE.heavy>
23

>  <SCORE.norm>
-0.243719

>  <RMSD>
21.348

$$$$

 OpenBabel11021811403D
libRbt.so/2013.1/901 2013/11/27
 23 25  0  0  0  0  0  0  0  0999 V2000
  -12.2077   24.7530    1.5631 S   0  0  0  0  0  0  0  0  0  0  0  0
  -14.9529   23.5987    1.5985 N   0  0  0  0  0  0  0  0  0  0  0  0
  -16.1183   25.5926    0.9054 C   0  0  0  0  0  0  0  0  0  0  0  0
  -16.0660   26.9385    0.5193 C   0  0  0  0  0  0  0  0  0  0  0  0
  -14.8440   27.6005    0.4493 C   0  0  0  0  0  0  0  0  0  0  0  0
  -13.6704   26.9259    0.7679 C   0  0  0  0  0  0  0  0  0  0  0  0
  -13.7107   25.5889    1.1553 C   0  0  0  0  0  0  0  0  0  0  0  0
  -14.9347   24.9130    1.2262 C   0  0  0  0  0  0  0  0  0  0  0  0
  -12.9774   23.9091    2.9086 C   0  0  0  0  0  0  0  0  0  0  0  0
  -12.2851   23.7260    4.1092 C   0  0  0  0  0  0  0  0  0  0  0  0
  -12.8965   23.0528    5.1707 C   0  0  0  0  0  0  0  0  0  0  0  0
  -14.1978   22.5609    5.0263 C   0  0  0  0  0  0  0  0  0  0  0  0
  -14.8829   22.7464    3.8249 C   0  0  0  0  0  0  0  0  0  0  0  0
  -14.2807   23.4183    2.7701 C   0  0  0  0  0  0  0  0  0  0  0  0
  -16.1387   22.7562    1.3051 C   0  0  0  0  0  0  0  0  0  0  0  0
  -17.5185   23.2497    1.8553 C   0  0  0  0  0  0  0  0  0  0  0  0
  -17.6244   23.1915    3.4175 C   0  0  0  0  0  0  0  0  0  0  0  0
  -18.6157   24.0809    4.0750 N   0  3  0  0  0  0  0  0  0  0  0  0
  -20.0058   23.6086    3.8463 C   0  0  0  0  0  0  0  0  0  0  0  0
  -18.4316   25.5038    3.6240 C   0  0  0  0  0  0  0  0  0  0  0  0
  -17.3282   27.6796    0.1817 C   0  0  0  0  0  0  0  0  0  0  0  0
  -18.5316   27.6641    1.0928 C   0  0  0  0  0  0  0  0  0  0  0  0
  -17.3686   28.3648   -0.8277 O   0  0  0  0  0  0  0  0  0  0  0  0
  1  7  1  0  0  0  0
  1  9  1  0  0  0  0
  2  8  1  0  0  0  0
  2 14  1  0  0  0  0
  2 15  1  0  0  0  0
  3  4  2  0  0  0  0
  3  8  1  0  0  0  0
  4  5  1  0  0  0  0
  4 21  1  0  0  0  0
  5  6  2  0  0  0  0
  6  7  1  0  0  0  0
  7  8  2  0  0  0  0
  9 10  2  0  0  0  0
  9 14  1  0  0  0  0
 10 11  1  0  0  0  0
 11 12  2  0  0  0  0
 12 13  1  0  0  0  0
 13 14  2  0  0  0  0
 15 16  1  0  0  0  0
 16 17  1  0  0  0  0
 17 18  1  0  0  0  0
 18 19  1  0  0  0  0
 18 20  1  0  0  0  0
 21 22  1  0  0  0  0
 21 23  2  0  0  0  0
M  CHG  1  18   1
M  END
>  <CHROM.1>
-56.44618637,49.80028605,-68.16724334,156.99859054,-167.56231757,-15.55574273
24.84985053,2.17235280,-0.70362108,0.08963050,-0.73038339

>  <Name>


>  <RI>
0

>  <Rbt.Current_Directory>
/home/itssahil/PROJECTS/Mol_Feturizer/New_Systems/rnas/1lvj

>  <Rbt.Executable>
rbdock ($Id: //depot/dev/client3/rdock/2013.1/src/exe/rbdock.cxx#4 $)

>  <Rbt.Library>
libRbt.so (2013.1, Build901 2013/11/27)

>  <Rbt.Parameter_File>
/export/apps/rDock/src/rDock_2013.1_src/data/scripts/dock_solv.prm

>  <Rbt.Receptor>
prm/blind_docking_80.prm

>  <SCORE>
-26.7505

>  <SCORE.INTER>
-28.027

>  <SCORE.INTER.CONST>
1

>  <SCORE.INTER.POLAR>
-1.67239

>  <SCORE.INTER.ROT>
5

>  <SCORE.INTER.SOLV>
19.5103

>  <SCORE.INTER.VDW>
-26.5468

>  <SCORE.INTER.norm>
-1.21857

>  <SCORE.INTRA>
0.985429

>  <SCORE.INTRA.DIHEDRAL>
1.86207

>  <SCORE.INTRA.DIHEDRAL.0>
8.06479

>  <SCORE.INTRA.POLAR>
0

>  <SCORE.INTRA.POLAR.0>
0

>  <SCORE.INTRA.REPUL>
0

>  <SCORE.INTRA.REPUL.0>
0

>  <SCORE.INTRA.SOLV>
-0.164393

>  <SCORE.INTRA.SOLV.lig_0>
-29.8054

>  <SCORE.INTRA.VDW>
0.136588

>  <SCORE.INTRA.VDW.0>
2.61447

>  <SCORE.INTRA.norm>
0.0428447

>  <SCORE.RESTR>
0.291115

>  <SCORE.RESTR.CAVITY>
0.291115

>  <SCORE.RESTR.norm>
0.0126572

>  <SCORE.SYSTEM>
0

>  <SCORE.SYSTEM.CONST>
0

>  <SCORE.SYSTEM.DIHEDRAL>
0

>  <SCORE.SYSTEM.SOLV>
0

>  <SCORE.SYSTEM.norm>
0

>  <SCORE.heavy>
23

>  <SCORE.norm>
-1.16306

>  <RMSD>
21.352

$$$$

 OpenBabel11021811403D
libRbt.so/2013.1/901 2013/11/27
 23 25  0  0  0  0  0  0  0  0999 V2000
  -18.3030   24.3569    0.9172 S   0  0  0  0  0  0  0  0  0  0  0  0
  -15.4398   25.1340    0.6579 N   0  0  0  0  0  0  0  0  0  0  0  0
  -14.6608   24.0595    2.6710 C   0  0  0  0  0  0  0  0  0  0  0  0
  -14.9462   23.2887    3.8057 C   0  0  0  0  0  0  0  0  0  0  0  0
  -16.2442   22.8476    4.0449 C   0  0  0  0  0  0  0  0  0  0  0  0
  -17.2631   23.1765    3.1575 C   0  0  0  0  0  0  0  0  0  0  0  0
  -16.9914   23.9442    2.0278 C   0  0  0  0  0  0  0  0  0  0  0  0
  -15.6885   24.3906    1.7766 C   0  0  0  0  0  0  0  0  0  0  0  0
  -17.6718   25.9895    0.6909 C   0  0  0  0  0  0  0  0  0  0  0  0
  -18.5487   27.0756    0.6144 C   0  0  0  0  0  0  0  0  0  0  0  0
  -18.0450   28.3664    0.4301 C   0  0  0  0  0  0  0  0  0  0  0  0
  -16.6652   28.5663    0.3187 C   0  0  0  0  0  0  0  0  0  0  0  0
  -15.7956   27.4777    0.3952 C   0  0  0  0  0  0  0  0  0  0  0  0
  -16.2917   26.1949    0.5826 C   0  0  0  0  0  0  0  0  0  0  0  0
  -14.0524   25.2803    0.1521 C   0  0  0  0  0  0  0  0  0  0  0  0
  -13.2269   23.9671   -0.0574 C   0  0  0  0  0  0  0  0  0  0  0  0
  -12.1688   23.7085    1.0690 C   0  0  0  0  0  0  0  0  0  0  0  0
  -11.4474   22.4103    1.0525 N   0  3  0  0  0  0  0  0  0  0  0  0
  -12.3675   21.2736    1.3148 C   0  0  0  0  0  0  0  0  0  0  0  0
  -10.2990   22.4303    2.0233 C   0  0  0  0  0  0  0  0  0  0  0  0
  -13.8552   22.9351    4.7757 C   0  0  0  0  0  0  0  0  0  0  0  0
  -12.4430   23.4419    4.6090 C   0  0  0  0  0  0  0  0  0  0  0  0
  -14.1238   22.2683    5.7623 O   0  0  0  0  0  0  0  0  0  0  0  0
  1  7  1  0  0  0  0
  1  9  1  0  0  0  0
  2  8  1  0  0  0  0
  2 14  1  0  0  0  0
  2 15  1  0  0  0  0
  3  4  2  0  0  0  0
  3  8  1  0  0  0  0
  4  5  1  0  0  0  0
  4 21  1  0  0  0  0
  5  6  2  0  0  0  0
  6  7  1  0  0  0  0
  7  8  2  0  0  0  0
  9 10  2  0  0  0  0
  9 14  1  0  0  0  0
 10 11  1  0  0  0  0
 11 12  2  0  0  0  0
 12 13  1  0  0  0  0
 13 14  2  0  0  0  0
 15 16  1  0  0  0  0
 16 17  1  0  0  0  0
 17 18  1  0  0  0  0
 18 19  1  0  0  0  0
 18 20  1  0  0  0  0
 21 22  1  0  0  0  0
 21 23  2  0  0  0  0
M  CHG  1  18   1
M  END
>  <CHROM.1>
51.36696540,2.98465598,-103.34812968,172.82955378,53.94365907,-15.12888828
24.38369349,1.82312835,2.47999602,0.32531773,-0.89368468

>  <Name>


>  <RI>
0

>  <Rbt.Current_Directory>
/home/itssahil/PROJECTS/Mol_Feturizer/New_Systems/rnas/1lvj

>  <Rbt.Executable>
rbdock ($Id: //depot/dev/client3/rdock/2013.1/src/exe/rbdock.cxx#4 $)

>  <Rbt.Library>
libRbt.so (2013.1, Build901 2013/11/27)

>  <Rbt.Parameter_File>
/export/apps/rDock/src/rDock_2013.1_src/data/scripts/dock_solv.prm

>  <Rbt.Receptor>
prm/blind_docking_40.prm

>  <SCORE>
-32.2342

>  <SCORE.INTER>
-28.5954

>  <SCORE.INTER.CONST>
1

>  <SCORE.INTER.POLAR>
0

>  <SCORE.INTER.ROT>
5

>  <SCORE.INTER.SOLV>
14.4256

>  <SCORE.INTER.VDW>
-30.8054

>  <SCORE.INTER.norm>
-1.24328

>  <SCORE.INTRA>
-3.63888

>  <SCORE.INTRA.DIHEDRAL>
-2.94461

>  <SCORE.INTRA.DIHEDRAL.0>
8.06479

>  <SCORE.INTRA.POLAR>
0

>  <SCORE.INTRA.POLAR.0>
0

>  <SCORE.INTRA.REPUL>
0

>  <SCORE.INTRA.REPUL.0>
0

>  <SCORE.INTRA.SOLV>
0.501085

>  <SCORE.INTRA.SOLV.lig_0>
-29.8054

>  <SCORE.INTRA.VDW>
-2.41712

>  <SCORE.INTRA.VDW.0>
2.61447

>  <SCORE.INTRA.norm>
-0.158212

>  <SCORE.RESTR>
0

>  <SCORE.RESTR.CAVITY>
0

>  <SCORE.RESTR.norm>
0

>  <SCORE.SYSTEM>
0

>  <SCORE.SYSTEM.CONST>
0

>  <SCORE.SYSTEM.DIHEDRAL>
0

>  <SCORE.SYSTEM.SOLV>
0

>  <SCORE.SYSTEM.norm>
0

>  <SCORE.heavy>
23

>  <SCORE.norm>
-1.40149

>  <RMSD>
21.363

$$$$

 OpenBabel11021811403D
libRbt.so/2013.1/901 2013/11/27
 23 25  0  0  0  0  0  0  0  0999 V2000
  -12.5265   25.0128    1.2862 S   0  0  0  0  0  0  0  0  0  0  0  0
  -15.2168   23.7713    1.5862 N   0  0  0  0  0  0  0  0  0  0  0  0
  -16.5059   25.7091    0.9561 C   0  0  0  0  0  0  0  0  0  0  0  0
  -16.5337   27.0463    0.5386 C   0  0  0  0  0  0  0  0  0  0  0  0
  -15.3459   27.7458    0.3479 C   0  0  0  0  0  0  0  0  0  0  0  0
  -14.1266   27.1174    0.5766 C   0  0  0  0  0  0  0  0  0  0  0  0
  -14.0870   25.7895    0.9941 C   0  0  0  0  0  0  0  0  0  0  0  0
  -15.2763   25.0762    1.1863 C   0  0  0  0  0  0  0  0  0  0  0  0
  -13.1469   24.1770    2.7115 C   0  0  0  0  0  0  0  0  0  0  0  0
  -12.3471   24.0453    3.8503 C   0  0  0  0  0  0  0  0  0  0  0  0
  -12.8404   23.3782    4.9753 C   0  0  0  0  0  0  0  0  0  0  0  0
  -14.1317   22.8410    4.9558 C   0  0  0  0  0  0  0  0  0  0  0  0
  -14.9245   22.9754    3.8155 C   0  0  0  0  0  0  0  0  0  0  0  0
  -14.4397   23.6410    2.6981 C   0  0  0  0  0  0  0  0  0  0  0  0
  -16.3940   22.8840    1.4158 C   0  0  0  0  0  0  0  0  0  0  0  0
  -17.5563   23.0331    2.4534 C   0  0  0  0  0  0  0  0  0  0  0  0
  -18.6388   24.0844    2.0312 C   0  0  0  0  0  0  0  0  0  0  0  0
  -19.9127   24.1068    2.7944 N   0  3  0  0  0  0  0  0  0  0  0  0
  -20.8365   25.1507    2.2801 C   0  0  0  0  0  0  0  0  0  0  0  0
  -19.6461   24.2771    4.2648 C   0  0  0  0  0  0  0  0  0  0  0  0
  -17.8453   27.7378    0.2973 C   0  0  0  0  0  0  0  0  0  0  0  0
  -17.9504   29.2407    0.2030 C   0  0  0  0  0  0  0  0  0  0  0  0
  -18.8496   27.0691    0.1117 O   0  0  0  0  0  0  0  0  0  0  0  0
  1  7  1  0  0  0  0
  1  9  1  0  0  0  0
  2  8  1  0  0  0  0
  2 14  1  0  0  0  0
  2 15  1  0  0  0  0
  3  4  2  0  0  0  0
  3  8  1  0  0  0  0
  4  5  1  0  0  0  0
  4 21  1  0  0  0  0
  5  6  2  0  0  0  0
  6  7  1  0  0  0  0
  7  8  2  0  0  0  0
  9 10  2  0  0  0  0
  9 14  1  0  0  0  0
 10 11  1  0  0  0  0
 11 12  2  0  0  0  0
 12 13  1  0  0  0  0
 13 14  2  0  0  0  0
 15 16  1  0  0  0  0
 16 17  1  0  0  0  0
 17 18  1  0  0  0  0
 18 19  1  0  0  0  0
 18 20  1  0  0  0  0
 21 22  1  0  0  0  0
 21 23  2  0  0  0  0
M  CHG  1  18   1
M  END
>  <CHROM.1>
-78.10382416,163.71671958,89.73144382,167.82682269,-59.98211883,-15.98248032
25.04036368,1.97307419,-0.41208249,0.02171663,-0.67392775

>  <Name>


>  <RI>
0

>  <Rbt.Current_Directory>
/home/itssahil/PROJECTS/Mol_Feturizer/New_Systems/rnas/1lvj

>  <Rbt.Executable>
rbdock ($Id: //depot/dev/client3/rdock/2013.1/src/exe/rbdock.cxx#4 $)

>  <Rbt.Library>
libRbt.so (2013.1, Build901 2013/11/27)

>  <Rbt.Parameter_File>
/export/apps/rDock/src/rDock_2013.1_src/data/scripts/dock_solv.prm

>  <Rbt.Receptor>
prm/blind_docking_40.prm

>  <SCORE>
-25.7562

>  <SCORE.INTER>
-24.8072

>  <SCORE.INTER.CONST>
1

>  <SCORE.INTER.POLAR>
-0.319691

>  <SCORE.INTER.ROT>
5

>  <SCORE.INTER.SOLV>
18.4555

>  <SCORE.INTER.VDW>
-28.5577

>  <SCORE.INTER.norm>
-1.07857

>  <SCORE.INTRA>
-2.05922

>  <SCORE.INTRA.DIHEDRAL>
-3.30055

>  <SCORE.INTRA.DIHEDRAL.0>
8.06479

>  <SCORE.INTRA.POLAR>
0

>  <SCORE.INTRA.POLAR.0>
0

>  <SCORE.INTRA.REPUL>
0

>  <SCORE.INTRA.REPUL.0>
0

>  <SCORE.INTRA.SOLV>
0.784804

>  <SCORE.INTRA.SOLV.lig_0>
-29.8054

>  <SCORE.INTRA.VDW>
-0.801347

>  <SCORE.INTRA.VDW.0>
2.61447

>  <SCORE.INTRA.norm>
-0.0895313

>  <SCORE.RESTR>
1.11017

>  <SCORE.RESTR.CAVITY>
1.11017

>  <SCORE.RESTR.norm>
0.0482685

>  <SCORE.SYSTEM>
0

>  <SCORE.SYSTEM.CONST>
0

>  <SCORE.SYSTEM.DIHEDRAL>
0

>  <SCORE.SYSTEM.SOLV>
0

>  <SCORE.SYSTEM.norm>
0

>  <SCORE.heavy>
23

>  <SCORE.norm>
-1.11983

>  <RMSD>
21.368

$$$$

 OpenBabel11021811403D
libRbt.so/2013.1/901 2013/11/27
 23 25  0  0  0  0  0  0  0  0999 V2000
  -12.3878   24.9246    1.3977 S   0  0  0  0  0  0  0  0  0  0  0  0
  -15.1015   23.6998    1.4714 N   0  0  0  0  0  0  0  0  0  0  0  0
  -16.3307   25.6716    0.8271 C   0  0  0  0  0  0  0  0  0  0  0  0
  -16.3204   27.0231    0.4576 C   0  0  0  0  0  0  0  0  0  0  0  0
  -15.1172   27.7171    0.3725 C   0  0  0  0  0  0  0  0  0  0  0  0
  -13.9208   27.0689    0.6594 C   0  0  0  0  0  0  0  0  0  0  0  0
  -13.9194   25.7266    1.0301 C   0  0  0  0  0  0  0  0  0  0  0  0
  -15.1241   25.0187    1.1160 C   0  0  0  0  0  0  0  0  0  0  0  0
  -13.1091   24.0445    2.7468 C   0  0  0  0  0  0  0  0  0  0  0  0
  -12.3887   23.8642    3.9312 C   0  0  0  0  0  0  0  0  0  0  0  0
  -12.9616   23.1623    4.9955 C   0  0  0  0  0  0  0  0  0  0  0  0
  -14.2526   22.6389    4.8701 C   0  0  0  0  0  0  0  0  0  0  0  0
  -14.9659   22.8218    3.6848 C   0  0  0  0  0  0  0  0  0  0  0  0
  -14.4019   23.5221    2.6273 C   0  0  0  0  0  0  0  0  0  0  0  0
  -16.2711   22.8309    1.1902 C   0  0  0  0  0  0  0  0  0  0  0  0
  -17.6504   23.2780    1.7796 C   0  0  0  0  0  0  0  0  0  0  0  0
  -17.6874   23.2840    3.3461 C   0  0  0  0  0  0  0  0  0  0  0  0
  -18.6680   24.1810    4.0092 N   0  3  0  0  0  0  0  0  0  0  0  0
  -20.0599   23.6941    3.8274 C   0  0  0  0  0  0  0  0  0  0  0  0
  -18.5063   25.5946    3.5220 C   0  0  0  0  0  0  0  0  0  0  0  0
  -17.6075   27.7357    0.1543 C   0  0  0  0  0  0  0  0  0  0  0  0
  -18.9310   27.0109    0.1120 C   0  0  0  0  0  0  0  0  0  0  0  0
  -17.5989   28.9459   -0.0048 O   0  0  0  0  0  0  0  0  0  0  0  0
  1  7  1  0  0  0  0
  1  9  1  0  0  0  0
  2  8  1  0  0  0  0
  2 14  1  0  0  0  0
  2 15  1  0  0  0  0
  3  4  2  0  0  0  0
  3  8  1  0  0  0  0
  4  5  1  0  0  0  0
  4 21  1  0  0  0  0
  5  6  2  0  0  0  0
  6  7  1  0  0  0  0
  7  8  2  0  0  0  0
  9 10  2  0  0  0  0
  9 14  1  0  0  0  0
 10 11  1  0  0  0  0
 11 12  2  0  0  0  0
 12 13  1  0  0  0  0
 13 14  2  0  0  0  0
 15 16  1  0  0  0  0
 16 17  1  0  0  0  0
 17 18  1  0  0  0  0
 18 19  1  0  0  0  0
 18 20  1  0  0  0  0
 21 22  1  0  0  0  0
 21 23  2  0  0  0  0
M  CHG  1  18   1
M  END
>  <CHROM.1>
-56.74876011,-5.58708553,-64.24646306,155.21191435,-169.25467772,-15.71646523
24.94278650,2.06671677,-0.66971542,0.07606695,-0.70767005

>  <Name>


>  <RI>
0

>  <Rbt.Current_Directory>
/home/itssahil/PROJECTS/Mol_Feturizer/New_Systems/rnas/1lvj

>  <Rbt.Executable>
rbdock ($Id: //depot/dev/client3/rdock/2013.1/src/exe/rbdock.cxx#4 $)

>  <Rbt.Library>
libRbt.so (2013.1, Build901 2013/11/27)

>  <Rbt.Parameter_File>
/export/apps/rDock/src/rDock_2013.1_src/data/scripts/dock_solv.prm

>  <Rbt.Receptor>
prm/blind_docking_80.prm

>  <SCORE>
-30.4937

>  <SCORE.INTER>
-28.7238

>  <SCORE.INTER.CONST>
1

>  <SCORE.INTER.POLAR>
-1.23693

>  <SCORE.INTER.ROT>
5

>  <SCORE.INTER.SOLV>
18.1034

>  <SCORE.INTER.VDW>
-27.9939

>  <SCORE.INTER.norm>
-1.24886

>  <SCORE.INTRA>
-1.93374

>  <SCORE.INTRA.DIHEDRAL>
-5.06958

>  <SCORE.INTRA.DIHEDRAL.0>
8.06479

>  <SCORE.INTRA.POLAR>
0

>  <SCORE.INTRA.POLAR.0>
0

>  <SCORE.INTRA.REPUL>
0

>  <SCORE.INTRA.REPUL.0>
0

>  <SCORE.INTRA.SOLV>
-0.119679

>  <SCORE.INTRA.SOLV.lig_0>
-29.8054

>  <SCORE.INTRA.VDW>
0.660888

>  <SCORE.INTRA.VDW.0>
2.61447

>  <SCORE.INTRA.norm>
-0.0840757

>  <SCORE.RESTR>
0.163891

>  <SCORE.RESTR.CAVITY>
0.163891

>  <SCORE.RESTR.norm>
0.00712569

>  <SCORE.SYSTEM>
0

>  <SCORE.SYSTEM.CONST>
0

>  <SCORE.SYSTEM.DIHEDRAL>
0

>  <SCORE.SYSTEM.SOLV>
0

>  <SCORE.SYSTEM.norm>
0

>  <SCORE.heavy>
23

>  <SCORE.norm>
-1.32581

>  <RMSD>
21.379

$$$$

 OpenBabel11021811403D
libRbt.so/2013.1/901 2013/11/27
 23 25  0  0  0  0  0  0  0  0999 V2000
  -13.4195   25.2738    0.8924 S   0  0  0  0  0  0  0  0  0  0  0  0
  -16.1240   24.0473    1.1175 N   0  0  0  0  0  0  0  0  0  0  0  0
  -17.3921   26.0526    0.6880 C   0  0  0  0  0  0  0  0  0  0  0  0
  -17.4054   27.4229    0.3960 C   0  0  0  0  0  0  0  0  0  0  0  0
  -16.2098   28.1205    0.2526 C   0  0  0  0  0  0  0  0  0  0  0  0
  -14.9972   27.4569    0.4040 C   0  0  0  0  0  0  0  0  0  0  0  0
  -14.9720   26.0957    0.6968 C   0  0  0  0  0  0  0  0  0  0  0  0
  -16.1692   25.3842    0.8403 C   0  0  0  0  0  0  0  0  0  0  0  0
  -14.0329   24.3186    2.2438 C   0  0  0  0  0  0  0  0  0  0  0  0
  -13.2195   24.0713    3.3535 C   0  0  0  0  0  0  0  0  0  0  0  0
  -13.7073   23.3101    4.4196 C   0  0  0  0  0  0  0  0  0  0  0  0
  -15.0067   22.7949    4.3702 C   0  0  0  0  0  0  0  0  0  0  0  0
  -15.8131   23.0449    3.2593 C   0  0  0  0  0  0  0  0  0  0  0  0
  -15.3336   23.8041    2.2007 C   0  0  0  0  0  0  0  0  0  0  0  0
  -17.3167   23.1958    0.8838 C   0  0  0  0  0  0  0  0  0  0  0  0
  -18.6784   23.6989    1.4690 C   0  0  0  0  0  0  0  0  0  0  0  0
  -18.5777   24.1840    2.9556 C   0  0  0  0  0  0  0  0  0  0  0  0
  -19.8377   24.5654    3.6432 N   0  3  0  0  0  0  0  0  0  0  0  0
  -20.6633   25.4708    2.8028 C   0  0  0  0  0  0  0  0  0  0  0  0
  -19.5445   25.1705    4.9885 C   0  0  0  0  0  0  0  0  0  0  0  0
  -18.7095   28.1517    0.2393 C   0  0  0  0  0  0  0  0  0  0  0  0
  -18.7687   29.6420    0.0064 C   0  0  0  0  0  0  0  0  0  0  0  0
  -19.7532   27.5186    0.2394 O   0  0  0  0  0  0  0  0  0  0  0  0
  1  7  1  0  0  0  0
  1  9  1  0  0  0  0
  2  8  1  0  0  0  0
  2 14  1  0  0  0  0
  2 15  1  0  0  0  0
  3  4  2  0  0  0  0
  3  8  1  0  0  0  0
  4  5  1  0  0  0  0
  4 21  1  0  0  0  0
  5  6  2  0  0  0  0
  6  7  1  0  0  0  0
  7  8  2  0  0  0  0
  9 10  2  0  0  0  0
  9 14  1  0  0  0  0
 10 11  1  0  0  0  0
 11 12  2  0  0  0  0
 12 13  1  0  0  0  0
 13 14  2  0  0  0  0
 15 16  1  0  0  0  0
 16 17  1  0  0  0  0
 17 18  1  0  0  0  0
 18 19  1  0  0  0  0
 18 20  1  0  0  0  0
 21 22  1  0  0  0  0
 21 23  2  0  0  0  0
M  CHG  1  18   1
M  END
>  <CHROM.1>
-49.77134564,176.28926594,-46.65724479,-174.58889899,72.15544456,-16.69721339
25.34522443,1.80844647,-0.60138898,0.17925114,-0.69516183

>  <Name>


>  <RI>
0

>  <Rbt.Current_Directory>
/home/itssahil/PROJECTS/Mol_Feturizer/New_Systems/rnas/1lvj

>  <Rbt.Executable>
rbdock ($Id: //depot/dev/client3/rdock/2013.1/src/exe/rbdock.cxx#4 $)

>  <Rbt.Library>
libRbt.so (2013.1, Build901 2013/11/27)

>  <Rbt.Parameter_File>
/export/apps/rDock/src/rDock_2013.1_src/data/scripts/dock_solv.prm

>  <Rbt.Receptor>
prm/blind_docking_60.prm

>  <SCORE>
-28.8682

>  <SCORE.INTER>
-26.4178

>  <SCORE.INTER.CONST>
1

>  <SCORE.INTER.POLAR>
0

>  <SCORE.INTER.ROT>
5

>  <SCORE.INTER.SOLV>
13.7137

>  <SCORE.INTER.VDW>
-29.1165

>  <SCORE.INTER.norm>
-1.1486

>  <SCORE.INTRA>
-2.45038

>  <SCORE.INTRA.DIHEDRAL>
-6.12897

>  <SCORE.INTRA.DIHEDRAL.0>
8.06479

>  <SCORE.INTRA.POLAR>
0

>  <SCORE.INTRA.POLAR.0>
0

>  <SCORE.INTRA.REPUL>
0

>  <SCORE.INTRA.REPUL.0>
0

>  <SCORE.INTRA.SOLV>
0.558961

>  <SCORE.INTRA.SOLV.lig_0>
-29.8054

>  <SCORE.INTRA.VDW>
0.334629

>  <SCORE.INTRA.VDW.0>
2.61447

>  <SCORE.INTRA.norm>
-0.106538

>  <SCORE.RESTR>
0

>  <SCORE.RESTR.CAVITY>
0

>  <SCORE.RESTR.norm>
0

>  <SCORE.SYSTEM>
0

>  <SCORE.SYSTEM.CONST>
0

>  <SCORE.SYSTEM.DIHEDRAL>
0

>  <SCORE.SYSTEM.SOLV>
0

>  <SCORE.SYSTEM.norm>
0

>  <SCORE.heavy>
23

>  <SCORE.norm>
-1.25514

>  <RMSD>
21.395

$$$$

 OpenBabel11021811403D
libRbt.so/2013.1/901 2013/11/27
 23 25  0  0  0  0  0  0  0  0999 V2000
  -12.5358   24.9780    1.2747 S   0  0  0  0  0  0  0  0  0  0  0  0
  -15.2400   23.7689    1.5818 N   0  0  0  0  0  0  0  0  0  0  0  0
  -16.5074   25.7201    0.9490 C   0  0  0  0  0  0  0  0  0  0  0  0
  -16.5201   27.0566    0.5284 C   0  0  0  0  0  0  0  0  0  0  0  0
  -15.3245   27.7416    0.3341 C   0  0  0  0  0  0  0  0  0  0  0  0
  -14.1123   27.0995    0.5625 C   0  0  0  0  0  0  0  0  0  0  0  0
  -14.0876   25.7722    0.9831 C   0  0  0  0  0  0  0  0  0  0  0  0
  -15.2849   25.0734    1.1788 C   0  0  0  0  0  0  0  0  0  0  0  0
  -13.1638   24.1529    2.7029 C   0  0  0  0  0  0  0  0  0  0  0  0
  -12.3637   24.0145    3.8408 C   0  0  0  0  0  0  0  0  0  0  0  0
  -12.8631   23.3560    4.9681 C   0  0  0  0  0  0  0  0  0  0  0  0
  -14.1606   22.8339    4.9520 C   0  0  0  0  0  0  0  0  0  0  0  0
  -14.9535   22.9748    3.8125 C   0  0  0  0  0  0  0  0  0  0  0  0
  -14.4627   23.6321    2.6928 C   0  0  0  0  0  0  0  0  0  0  0  0
  -16.4278   22.8950    1.4153 C   0  0  0  0  0  0  0  0  0  0  0  0
  -17.6453   23.1572    2.3634 C   0  0  0  0  0  0  0  0  0  0  0  0
  -18.8456   23.8727    1.6545 C   0  0  0  0  0  0  0  0  0  0  0  0
  -19.6873   24.7819    2.4734 N   0  3  0  0  0  0  0  0  0  0  0  0
  -20.3704   24.0494    3.5709 C   0  0  0  0  0  0  0  0  0  0  0  0
  -20.6678   25.5213    1.6051 C   0  0  0  0  0  0  0  0  0  0  0  0
  -17.8239   27.7628    0.2875 C   0  0  0  0  0  0  0  0  0  0  0  0
  -17.9332   29.2681    0.3115 C   0  0  0  0  0  0  0  0  0  0  0  0
  -18.8155   27.1095    0.0045 O   0  0  0  0  0  0  0  0  0  0  0  0
  1  7  1  0  0  0  0
  1  9  1  0  0  0  0
  2  8  1  0  0  0  0
  2 14  1  0  0  0  0
  2 15  1  0  0  0  0
  3  4  2  0  0  0  0
  3  8  1  0  0  0  0
  4  5  1  0  0  0  0
  4 21  1  0  0  0  0
  5  6  2  0  0  0  0
  6  7  1  0  0  0  0
  7  8  2  0  0  0  0
  9 10  2  0  0  0  0
  9 14  1  0  0  0  0
 10 11  1  0  0  0  0
 11 12  2  0  0  0  0
 12 13  1  0  0  0  0
 13 14  2  0  0  0  0
 15 16  1  0  0  0  0
 16 17  1  0  0  0  0
 17 18  1  0  0  0  0
 18 19  1  0  0  0  0
 18 20  1  0  0  0  0
 21 22  1  0  0  0  0
 21 23  2  0  0  0  0
M  CHG  1  18   1
M  END
>  <CHROM.1>
-72.12360111,158.18074403,105.15224794,-148.46578932,57.18938609,-16.01105694
25.07577941,1.87117954,-0.44657977,-0.01052254,-0.64292959

>  <Name>


>  <RI>
0

>  <Rbt.Current_Directory>
/home/itssahil/PROJECTS/Mol_Feturizer/New_Systems/rnas/1lvj

>  <Rbt.Executable>
rbdock ($Id: //depot/dev/client3/rdock/2013.1/src/exe/rbdock.cxx#4 $)

>  <Rbt.Library>
libRbt.so (2013.1, Build901 2013/11/27)

>  <Rbt.Parameter_File>
/export/apps/rDock/src/rDock_2013.1_src/data/scripts/dock_solv.prm

>  <Rbt.Receptor>
prm/blind_docking_40.prm

>  <SCORE>
-26.6251

>  <SCORE.INTER>
-27.8834

>  <SCORE.INTER.CONST>
1

>  <SCORE.INTER.POLAR>
0

>  <SCORE.INTER.ROT>
5

>  <SCORE.INTER.SOLV>
10.2896

>  <SCORE.INTER.VDW>
-28.9521

>  <SCORE.INTER.norm>
-1.21232

>  <SCORE.INTRA>
0.566077

>  <SCORE.INTRA.DIHEDRAL>
1.94001

>  <SCORE.INTRA.DIHEDRAL.0>
8.06479

>  <SCORE.INTRA.POLAR>
0

>  <SCORE.INTRA.POLAR.0>
0

>  <SCORE.INTRA.REPUL>
0

>  <SCORE.INTRA.REPUL.0>
0

>  <SCORE.INTRA.SOLV>
3.48329

>  <SCORE.INTRA.SOLV.lig_0>
-29.8054

>  <SCORE.INTRA.VDW>
-2.14557

>  <SCORE.INTRA.VDW.0>
2.61447

>  <SCORE.INTRA.norm>
0.024612

>  <SCORE.RESTR>
0.69223

>  <SCORE.RESTR.CAVITY>
0.69223

>  <SCORE.RESTR.norm>
0.030097

>  <SCORE.SYSTEM>
0

>  <SCORE.SYSTEM.CONST>
0

>  <SCORE.SYSTEM.DIHEDRAL>
0

>  <SCORE.SYSTEM.SOLV>
0

>  <SCORE.SYSTEM.norm>
0

>  <SCORE.heavy>
23

>  <SCORE.norm>
-1.15761

>  <RMSD>
21.400

$$$$

 OpenBabel11021811403D
libRbt.so/2013.1/901 2013/11/27
 23 25  0  0  0  0  0  0  0  0999 V2000
  -12.3998   24.9768    1.3517 S   0  0  0  0  0  0  0  0  0  0  0  0
  -15.0921   23.7102    1.4795 N   0  0  0  0  0  0  0  0  0  0  0  0
  -16.3634   25.6590    0.8471 C   0  0  0  0  0  0  0  0  0  0  0  0
  -16.3808   27.0085    0.4707 C   0  0  0  0  0  0  0  0  0  0  0  0
  -15.1904   27.7208    0.3608 C   0  0  0  0  0  0  0  0  0  0  0  0
  -13.9791   27.0930    0.6298 C   0  0  0  0  0  0  0  0  0  0  0  0
  -13.9500   25.7528    1.0072 C   0  0  0  0  0  0  0  0  0  0  0  0
  -15.1417   25.0266    1.1179 C   0  0  0  0  0  0  0  0  0  0  0  0
  -13.0832   24.0927    2.7178 C   0  0  0  0  0  0  0  0  0  0  0  0
  -12.3394   23.9300    3.8901 C   0  0  0  0  0  0  0  0  0  0  0  0
  -12.8824   23.2249    4.9679 C   0  0  0  0  0  0  0  0  0  0  0  0
  -14.1670   22.6807    4.8679 C   0  0  0  0  0  0  0  0  0  0  0  0
  -14.9038   22.8461    3.6945 C   0  0  0  0  0  0  0  0  0  0  0  0
  -14.3696   23.5496    2.6237 C   0  0  0  0  0  0  0  0  0  0  0  0
  -16.2526   22.8215    1.2234 C   0  0  0  0  0  0  0  0  0  0  0  0
  -17.6316   23.2584    1.8212 C   0  0  0  0  0  0  0  0  0  0  0  0
  -17.6597   23.2625    3.3878 C   0  0  0  0  0  0  0  0  0  0  0  0
  -18.6357   24.1596    4.0576 N   0  3  0  0  0  0  0  0  0  0  0  0
  -20.0236   23.6448    3.9304 C   0  0  0  0  0  0  0  0  0  0  0  0
  -18.5136   25.5628    3.5302 C   0  0  0  0  0  0  0  0  0  0  0  0
  -17.6841   27.6992    0.1865 C   0  0  0  0  0  0  0  0  0  0  0  0
  -17.7942   29.2035    0.1253 C   0  0  0  0  0  0  0  0  0  0  0  0
  -18.6746   27.0304   -0.0620 O   0  0  0  0  0  0  0  0  0  0  0  0
  1  7  1  0  0  0  0
  1  9  1  0  0  0  0
  2  8  1  0  0  0  0
  2 14  1  0  0  0  0
  2 15  1  0  0  0  0
  3  4  2  0  0  0  0
  3  8  1  0  0  0  0
  4  5  1  0  0  0  0
  4 21  1  0  0  0  0
  5  6  2  0  0  0  0
  6  7  1  0  0  0  0
  7  8  2  0  0  0  0
  9 10  2  0  0  0  0
  9 14  1  0  0  0  0
 10 11  1  0  0  0  0
 11 12  2  0  0  0  0
 12 13  1  0  0  0  0
 13 14  2  0  0  0  0
 15 16  1  0  0  0  0
 16 17  1  0  0  0  0
 17 18  1  0  0  0  0
 18 19  1  0  0  0  0
 18 20  1  0  0  0  0
 21 22  1  0  0  0  0
 21 23  2  0  0  0  0
M  CHG  1  18   1
M  END
>  <CHROM.1>
-56.07508738,164.11709797,-65.25372435,154.76238454,-166.93249716,-15.71211416
24.95912613,2.06908646,-0.68871841,0.07996312,-0.70744774

>  <Name>


>  <RI>
0

>  <Rbt.Current_Directory>
/home/itssahil/PROJECTS/Mol_Feturizer/New_Systems/rnas/1lvj

>  <Rbt.Executable>
rbdock ($Id: //depot/dev/client3/rdock/2013.1/src/exe/rbdock.cxx#4 $)

>  <Rbt.Library>
libRbt.so (2013.1, Build901 2013/11/27)

>  <Rbt.Parameter_File>
/export/apps/rDock/src/rDock_2013.1_src/data/scripts/dock_solv.prm

>  <Rbt.Receptor>
prm/blind_docking_80.prm

>  <SCORE>
-30.9107

>  <SCORE.INTER>
-29.7259

>  <SCORE.INTER.CONST>
1

>  <SCORE.INTER.POLAR>
-1.23693

>  <SCORE.INTER.ROT>
5

>  <SCORE.INTER.SOLV>
18.1371

>  <SCORE.INTER.VDW>
-28.6732

>  <SCORE.INTER.norm>
-1.29243

>  <SCORE.INTRA>
-1.27434

>  <SCORE.INTRA.DIHEDRAL>
-3.88263

>  <SCORE.INTRA.DIHEDRAL.0>
8.06479

>  <SCORE.INTRA.POLAR>
0

>  <SCORE.INTRA.POLAR.0>
0

>  <SCORE.INTRA.REPUL>
0

>  <SCORE.INTRA.REPUL.0>
0

>  <SCORE.INTRA.SOLV>
0.0159932

>  <SCORE.INTRA.SOLV.lig_0>
-29.8054

>  <SCORE.INTRA.VDW>
0.658982

>  <SCORE.INTRA.VDW.0>
2.61447

>  <SCORE.INTRA.norm>
-0.0554059

>  <SCORE.RESTR>
0.089513

>  <SCORE.RESTR.CAVITY>
0.089513

>  <SCORE.RESTR.norm>
0.00389187

>  <SCORE.SYSTEM>
0

>  <SCORE.SYSTEM.CONST>
0

>  <SCORE.SYSTEM.DIHEDRAL>
0

>  <SCORE.SYSTEM.SOLV>
0

>  <SCORE.SYSTEM.norm>
0

>  <SCORE.heavy>
23

>  <SCORE.norm>
-1.34394

>  <RMSD>
21.408

$$$$

 OpenBabel11021811403D
libRbt.so/2013.1/901 2013/11/27
 23 25  0  0  0  0  0  0  0  0999 V2000
  -12.4664   24.9070    1.4860 S   0  0  0  0  0  0  0  0  0  0  0  0
  -15.1940   23.7133    1.4163 N   0  0  0  0  0  0  0  0  0  0  0  0
  -16.3692   25.7066    0.7382 C   0  0  0  0  0  0  0  0  0  0  0  0
  -16.3262   27.0621    0.3859 C   0  0  0  0  0  0  0  0  0  0  0  0
  -15.1127   27.7429    0.3663 C   0  0  0  0  0  0  0  0  0  0  0  0
  -13.9386   27.0775    0.7018 C   0  0  0  0  0  0  0  0  0  0  0  0
  -13.9697   25.7311    1.0559 C   0  0  0  0  0  0  0  0  0  0  0  0
  -15.1850   25.0364    1.0761 C   0  0  0  0  0  0  0  0  0  0  0  0
  -13.2607   24.0199    2.7887 C   0  0  0  0  0  0  0  0  0  0  0  0
  -12.5996   23.8176    4.0037 C   0  0  0  0  0  0  0  0  0  0  0  0
  -13.2303   23.1102    5.0311 C   0  0  0  0  0  0  0  0  0  0  0  0
  -14.5196   22.6035    4.8383 C   0  0  0  0  0  0  0  0  0  0  0  0
  -15.1735   22.8084    3.6229 C   0  0  0  0  0  0  0  0  0  0  0  0
  -14.5522   23.5142    2.6018 C   0  0  0  0  0  0  0  0  0  0  0  0
  -16.3585   22.8614    1.0695 C   0  0  0  0  0  0  0  0  0  0  0  0
  -17.7759   23.3947    1.4652 C   0  0  0  0  0  0  0  0  0  0  0  0
  -17.7945   24.1647    2.8298 C   0  0  0  0  0  0  0  0  0  0  0  0
  -19.1047   24.6590    3.3246 N   0  3  0  0  0  0  0  0  0  0  0  0
  -19.9088   23.5624    3.9233 C   0  0  0  0  0  0  0  0  0  0  0  0
  -19.8547   25.3615    2.2265 C   0  0  0  0  0  0  0  0  0  0  0  0
  -17.5894   27.7931    0.0305 C   0  0  0  0  0  0  0  0  0  0  0  0
  -17.6954   29.2961    0.1226 C   0  0  0  0  0  0  0  0  0  0  0  0
  -18.5426   27.1658   -0.4030 O   0  0  0  0  0  0  0  0  0  0  0  0
  1  7  1  0  0  0  0
  1  9  1  0  0  0  0
  2  8  1  0  0  0  0
  2 14  1  0  0  0  0
  2 15  1  0  0  0  0
  3  4  2  0  0  0  0
  3  8  1  0  0  0  0
  4  5  1  0  0  0  0
  4 21  1  0  0  0  0
  5  6  2  0  0  0  0
  6  7  1  0  0  0  0
  7  8  2  0  0  0  0
  9 10  2  0  0  0  0
  9 14  1  0  0  0  0
 10 11  1  0  0  0  0
 11 12  2  0  0  0  0
 12 13  1  0  0  0  0
 13 14  2  0  0  0  0
 15 16  1  0  0  0  0
 16 17  1  0  0  0  0
 17 18  1  0  0  0  0
 18 19  1  0  0  0  0
 18 20  1  0  0  0  0
 21 22  1  0  0  0  0
 21 23  2  0  0  0  0
M  CHG  1  18   1
M  END
>  <CHROM.1>
-50.39059648,157.88840267,-36.30215886,-177.34804567,-162.30822155,-15.86102281
25.01088022,1.91734672,-0.65259072,0.03260024,-0.68330405

>  <Name>


>  <RI>
0

>  <Rbt.Current_Directory>
/home/itssahil/PROJECTS/Mol_Feturizer/New_Systems/rnas/1lvj

>  <Rbt.Executable>
rbdock ($Id: //depot/dev/client3/rdock/2013.1/src/exe/rbdock.cxx#4 $)

>  <Rbt.Library>
libRbt.so (2013.1, Build901 2013/11/27)

>  <Rbt.Parameter_File>
/export/apps/rDock/src/rDock_2013.1_src/data/scripts/dock_solv.prm

>  <Rbt.Receptor>
prm/blind_docking_80.prm

>  <SCORE>
-26.3807

>  <SCORE.INTER>
-26.1813

>  <SCORE.INTER.CONST>
1

>  <SCORE.INTER.POLAR>
0

>  <SCORE.INTER.ROT>
5

>  <SCORE.INTER.SOLV>
12.1627

>  <SCORE.INTER.VDW>
-28.4417

>  <SCORE.INTER.norm>
-1.13832

>  <SCORE.INTRA>
-0.493883

>  <SCORE.INTRA.DIHEDRAL>
-2.73579

>  <SCORE.INTRA.DIHEDRAL.0>
8.06479

>  <SCORE.INTRA.POLAR>
0

>  <SCORE.INTRA.POLAR.0>
0

>  <SCORE.INTRA.REPUL>
0

>  <SCORE.INTRA.REPUL.0>
0

>  <SCORE.INTRA.SOLV>
-0.0959396

>  <SCORE.INTRA.SOLV.lig_0>
-29.8054

>  <SCORE.INTRA.VDW>
0.921982

>  <SCORE.INTRA.VDW.0>
2.61447

>  <SCORE.INTRA.norm>
-0.0214732

>  <SCORE.RESTR>
0.294412

>  <SCORE.RESTR.CAVITY>
0.294412

>  <SCORE.RESTR.norm>
0.0128005

>  <SCORE.SYSTEM>
0

>  <SCORE.SYSTEM.CONST>
0

>  <SCORE.SYSTEM.DIHEDRAL>
0

>  <SCORE.SYSTEM.SOLV>
0

>  <SCORE.SYSTEM.norm>
0

>  <SCORE.heavy>
23

>  <SCORE.norm>
-1.14699

>  <RMSD>
21.415

$$$$

 OpenBabel11021811403D
libRbt.so/2013.1/901 2013/11/27
 23 25  0  0  0  0  0  0  0  0999 V2000
  -12.3892   24.0197    1.8333 S   0  0  0  0  0  0  0  0  0  0  0  0
  -15.3178   23.5337    1.5971 N   0  0  0  0  0  0  0  0  0  0  0  0
  -15.9275   25.7558    0.8866 C   0  0  0  0  0  0  0  0  0  0  0  0
  -15.5333   27.0595    0.5579 C   0  0  0  0  0  0  0  0  0  0  0  0
  -14.1907   27.4209    0.6147 C   0  0  0  0  0  0  0  0  0  0  0  0
  -13.2367   26.4867    1.0033 C   0  0  0  0  0  0  0  0  0  0  0  0
  -13.6174   25.1889    1.3347 C   0  0  0  0  0  0  0  0  0  0  0  0
  -14.9652   24.8143    1.2782 C   0  0  0  0  0  0  0  0  0  0  0  0
  -13.4492   23.3535    3.0772 C   0  0  0  0  0  0  0  0  0  0  0  0
  -12.9276   22.9931    4.3231 C   0  0  0  0  0  0  0  0  0  0  0  0
  -13.7696   22.4611    5.3038 C   0  0  0  0  0  0  0  0  0  0  0  0
  -15.1309   22.2873    5.0335 C   0  0  0  0  0  0  0  0  0  0  0  0
  -15.6448   22.6484    3.7875 C   0  0  0  0  0  0  0  0  0  0  0  0
  -14.8126   23.1811    2.8126 C   0  0  0  0  0  0  0  0  0  0  0  0
  -16.6344   22.9948    1.1746 C   0  0  0  0  0  0  0  0  0  0  0  0
  -17.8993   23.5332    1.9230 C   0  0  0  0  0  0  0  0  0  0  0  0
  -18.6385   24.6806    1.1535 C   0  0  0  0  0  0  0  0  0  0  0  0
  -19.4301   25.6492    1.9542 N   0  3  0  0  0  0  0  0  0  0  0  0
  -18.5653   26.4218    2.8831 C   0  0  0  0  0  0  0  0  0  0  0  0
  -20.5423   24.9483    2.6847 C   0  0  0  0  0  0  0  0  0  0  0  0
  -16.5563   28.0792    0.1455 C   0  0  0  0  0  0  0  0  0  0  0  0
  -17.9980   27.7084   -0.1045 C   0  0  0  0  0  0  0  0  0  0  0  0
  -16.2330   29.2537    0.0663 O   0  0  0  0  0  0  0  0  0  0  0  0
  1  7  1  0  0  0  0
  1  9  1  0  0  0  0
  2  8  1  0  0  0  0
  2 14  1  0  0  0  0
  2 15  1  0  0  0  0
  3  4  2  0  0  0  0
  3  8  1  0  0  0  0
  4  5  1  0  0  0  0
  4 21  1  0  0  0  0
  5  6  2  0  0  0  0
  6  7  1  0  0  0  0
  7  8  2  0  0  0  0
  9 10  2  0  0  0  0
  9 14  1  0  0  0  0
 10 11  1  0  0  0  0
 11 12  2  0  0  0  0
 12 13  1  0  0  0  0
 13 14  2  0  0  0  0
 15 16  1  0  0  0  0
 16 17  1  0  0  0  0
 17 18  1  0  0  0  0
 18 19  1  0  0  0  0
 18 20  1  0  0  0  0
 21 22  1  0  0  0  0
 21 23  2  0  0  0  0
M  CHG  1  18   1
M  END
>  <CHROM.1>
-72.48271814,-8.07797230,97.80155033,-153.62539565,-176.75771491,-15.72366619
24.97059599,1.94234488,-0.78293244,0.04723047,-0.61521516

>  <Name>


>  <RI>
0

>  <Rbt.Current_Directory>
/home/itssahil/PROJECTS/Mol_Feturizer/New_Systems/rnas/1lvj

>  <Rbt.Executable>
rbdock ($Id: //depot/dev/client3/rdock/2013.1/src/exe/rbdock.cxx#4 $)

>  <Rbt.Library>
libRbt.so (2013.1, Build901 2013/11/27)

>  <Rbt.Parameter_File>
/export/apps/rDock/src/rDock_2013.1_src/data/scripts/dock_solv.prm

>  <Rbt.Receptor>
prm/blind_docking_80.prm

>  <SCORE>
-22.3602

>  <SCORE.INTER>
-22.5438

>  <SCORE.INTER.CONST>
1

>  <SCORE.INTER.POLAR>
0

>  <SCORE.INTER.ROT>
5

>  <SCORE.INTER.SOLV>
12.2949

>  <SCORE.INTER.VDW>
-26.0609

>  <SCORE.INTER.norm>
-0.980167

>  <SCORE.INTRA>
-0.103651

>  <SCORE.INTRA.DIHEDRAL>
-1.36893

>  <SCORE.INTRA.DIHEDRAL.0>
8.06479

>  <SCORE.INTRA.POLAR>
0

>  <SCORE.INTRA.POLAR.0>
0

>  <SCORE.INTRA.REPUL>
0

>  <SCORE.INTRA.REPUL.0>
0

>  <SCORE.INTRA.SOLV>
1.99841

>  <SCORE.INTRA.SOLV.lig_0>
-29.8054

>  <SCORE.INTRA.VDW>
-0.418394

>  <SCORE.INTRA.VDW.0>
2.61447

>  <SCORE.INTRA.norm>
-0.00450655

>  <SCORE.RESTR>
0.287263

>  <SCORE.RESTR.CAVITY>
0.287263

>  <SCORE.RESTR.norm>
0.0124897

>  <SCORE.SYSTEM>
0

>  <SCORE.SYSTEM.CONST>
0

>  <SCORE.SYSTEM.DIHEDRAL>
0

>  <SCORE.SYSTEM.SOLV>
0

>  <SCORE.SYSTEM.norm>
0

>  <SCORE.heavy>
23

>  <SCORE.norm>
-0.972184

>  <RMSD>
21.443

$$$$

 OpenBabel11021811403D
libRbt.so/2013.1/901 2013/11/27
 23 25  0  0  0  0  0  0  0  0999 V2000
  -19.3376   24.9062    1.3725 S   0  0  0  0  0  0  0  0  0  0  0  0
  -16.5077   25.2527    0.5118 N   0  0  0  0  0  0  0  0  0  0  0  0
  -15.5091   23.8886    2.2311 C   0  0  0  0  0  0  0  0  0  0  0  0
  -15.6711   23.0690    3.3559 C   0  0  0  0  0  0  0  0  0  0  0  0
  -16.9430   22.8132    3.8593 C   0  0  0  0  0  0  0  0  0  0  0  0
  -18.0574   23.3765    3.2472 C   0  0  0  0  0  0  0  0  0  0  0  0
  -17.9081   24.1947    2.1302 C   0  0  0  0  0  0  0  0  0  0  0  0
  -16.6331   24.4559    1.6143 C   0  0  0  0  0  0  0  0  0  0  0  0
  -18.5000   26.4357    1.1003 C   0  0  0  0  0  0  0  0  0  0  0  0
  -19.1735   27.6465    1.2866 C   0  0  0  0  0  0  0  0  0  0  0  0
  -18.5080   28.8555    1.0651 C   0  0  0  0  0  0  0  0  0  0  0  0
  -17.1712   28.8495    0.6537 C   0  0  0  0  0  0  0  0  0  0  0  0
  -16.5051   27.6374    0.4690 C   0  0  0  0  0  0  0  0  0  0  0  0
  -17.1613   26.4348    0.6922 C   0  0  0  0  0  0  0  0  0  0  0  0
  -15.2577   25.2295   -0.2876 C   0  0  0  0  0  0  0  0  0  0  0  0
  -14.0555   26.0802    0.2426 C   0  0  0  0  0  0  0  0  0  0  0  0
  -13.3638   25.4636    1.5061 C   0  0  0  0  0  0  0  0  0  0  0  0
  -12.2100   24.5547    1.2859 N   0  3  0  0  0  0  0  0  0  0  0  0
  -12.5525   23.4601    0.3414 C   0  0  0  0  0  0  0  0  0  0  0  0
  -11.7006   24.0188    2.5956 C   0  0  0  0  0  0  0  0  0  0  0  0
  -14.4737   22.4626    4.0305 C   0  0  0  0  0  0  0  0  0  0  0  0
  -14.4298   22.2292    5.5212 C   0  0  0  0  0  0  0  0  0  0  0  0
  -13.5290   22.0905    3.3528 O   0  0  0  0  0  0  0  0  0  0  0  0
  1  7  1  0  0  0  0
  1  9  1  0  0  0  0
  2  8  1  0  0  0  0
  2 14  1  0  0  0  0
  2 15  1  0  0  0  0
  3  4  2  0  0  0  0
  3  8  1  0  0  0  0
  4  5  1  0  0  0  0
  4 21  1  0  0  0  0
  5  6  2  0  0  0  0
  6  7  1  0  0  0  0
  7  8  2  0  0  0  0
  9 10  2  0  0  0  0
  9 14  1  0  0  0  0
 10 11  1  0  0  0  0
 11 12  2  0  0  0  0
 12 13  1  0  0  0  0
 13 14  2  0  0  0  0
 15 16  1  0  0  0  0
 16 17  1  0  0  0  0
 17 18  1  0  0  0  0
 18 19  1  0  0  0  0
 18 20  1  0  0  0  0
 21 22  1  0  0  0  0
 21 23  2  0  0  0  0
M  CHG  1  18   1
M  END
>  <CHROM.1>
-81.38601657,146.78449994,73.04822493,92.04249612,66.82196382,-15.94753443
24.88627884,1.81215755,2.45825044,0.16172421,-0.66097955

>  <Name>


>  <RI>
0

>  <Rbt.Current_Directory>
/home/itssahil/PROJECTS/Mol_Feturizer/New_Systems/rnas/1lvj

>  <Rbt.Executable>
rbdock ($Id: //depot/dev/client3/rdock/2013.1/src/exe/rbdock.cxx#4 $)

>  <Rbt.Library>
libRbt.so (2013.1, Build901 2013/11/27)

>  <Rbt.Parameter_File>
/export/apps/rDock/src/rDock_2013.1_src/data/scripts/dock_solv.prm

>  <Rbt.Receptor>
prm/blind_docking_60.prm

>  <SCORE>
-26.7464

>  <SCORE.INTER>
-28.4813

>  <SCORE.INTER.CONST>
1

>  <SCORE.INTER.POLAR>
-1.18246

>  <SCORE.INTER.ROT>
5

>  <SCORE.INTER.SOLV>
19.8033

>  <SCORE.INTER.VDW>
-28.5804

>  <SCORE.INTER.norm>
-1.23832

>  <SCORE.INTRA>
1.73497

>  <SCORE.INTRA.DIHEDRAL>
0.201475

>  <SCORE.INTRA.DIHEDRAL.0>
8.06479

>  <SCORE.INTRA.POLAR>
0

>  <SCORE.INTRA.POLAR.0>
0

>  <SCORE.INTRA.REPUL>
0

>  <SCORE.INTRA.REPUL.0>
0

>  <SCORE.INTRA.SOLV>
1.43294

>  <SCORE.INTRA.SOLV.lig_0>
-29.8054

>  <SCORE.INTRA.VDW>
0.917763

>  <SCORE.INTRA.VDW.0>
2.61447

>  <SCORE.INTRA.norm>
0.0754335

>  <SCORE.RESTR>
0

>  <SCORE.RESTR.CAVITY>
0

>  <SCORE.RESTR.norm>
0

>  <SCORE.SYSTEM>
0

>  <SCORE.SYSTEM.CONST>
0

>  <SCORE.SYSTEM.DIHEDRAL>
0

>  <SCORE.SYSTEM.SOLV>
0

>  <SCORE.SYSTEM.norm>
0

>  <SCORE.heavy>
23

>  <SCORE.norm>
-1.16289

>  <RMSD>
21.451

$$$$

 OpenBabel11021811403D
libRbt.so/2013.1/901 2013/11/27
 23 25  0  0  0  0  0  0  0  0999 V2000
  -19.0690   24.8110    0.8347 S   0  0  0  0  0  0  0  0  0  0  0  0
  -16.2703   25.8131    0.6539 N   0  0  0  0  0  0  0  0  0  0  0  0
  -15.3822   24.5366    2.4966 C   0  0  0  0  0  0  0  0  0  0  0  0
  -15.5931   23.6033    3.5202 C   0  0  0  0  0  0  0  0  0  0  0  0
  -16.8535   23.0450    3.7107 C   0  0  0  0  0  0  0  0  0  0  0  0
  -17.9091   23.4177    2.8856 C   0  0  0  0  0  0  0  0  0  0  0  0
  -17.7116   24.3462    1.8668 C   0  0  0  0  0  0  0  0  0  0  0  0
  -16.4468   24.9116    1.6650 C   0  0  0  0  0  0  0  0  0  0  0  0
  -18.5541   26.4991    0.8236 C   0  0  0  0  0  0  0  0  0  0  0  0
  -19.5037   27.5220    0.9023 C   0  0  0  0  0  0  0  0  0  0  0  0
  -19.0921   28.8578    0.8882 C   0  0  0  0  0  0  0  0  0  0  0  0
  -17.7313   29.1663    0.7911 C   0  0  0  0  0  0  0  0  0  0  0  0
  -16.7888   28.1404    0.7120 C   0  0  0  0  0  0  0  0  0  0  0  0
  -17.1934   26.8127    0.7302 C   0  0  0  0  0  0  0  0  0  0  0  0
  -14.9059   26.1217    0.1587 C   0  0  0  0  0  0  0  0  0  0  0  0
  -14.0838   24.9383   -0.4524 C   0  0  0  0  0  0  0  0  0  0  0  0
  -13.0202   24.3431    0.5323 C   0  0  0  0  0  0  0  0  0  0  0  0
  -12.7636   22.8816    0.4689 N   0  3  0  0  0  0  0  0  0  0  0  0
  -13.6566   22.1322    1.3901 C   0  0  0  0  0  0  0  0  0  0  0  0
  -11.3138   22.5863    0.7388 C   0  0  0  0  0  0  0  0  0  0  0  0
  -14.4623   23.2003    4.4231 C   0  0  0  0  0  0  0  0  0  0  0  0
  -13.1200   23.8894    4.3785 C   0  0  0  0  0  0  0  0  0  0  0  0
  -14.6453   22.3314    5.2608 O   0  0  0  0  0  0  0  0  0  0  0  0
  1  7  1  0  0  0  0
  1  9  1  0  0  0  0
  2  8  1  0  0  0  0
  2 14  1  0  0  0  0
  2 15  1  0  0  0  0
  3  4  2  0  0  0  0
  3  8  1  0  0  0  0
  4  5  1  0  0  0  0
  4 21  1  0  0  0  0
  5  6  2  0  0  0  0
  6  7  1  0  0  0  0
  7  8  2  0  0  0  0
  9 10  2  0  0  0  0
  9 14  1  0  0  0  0
 10 11  1  0  0  0  0
 11 12  2  0  0  0  0
 12 13  1  0  0  0  0
 13 14  2  0  0  0  0
 15 16  1  0  0  0  0
 16 17  1  0  0  0  0
 17 18  1  0  0  0  0
 18 19  1  0  0  0  0
 18 20  1  0  0  0  0
 21 22  1  0  0  0  0
 21 23  2  0  0  0  0
M  CHG  1  18   1
M  END
>  <CHROM.1>
61.13031131,7.41813454,-100.86002774,145.12252774,29.73744280,-15.97935054
24.87361120,1.66465293,2.50363782,0.37085866,-0.81832969

>  <Name>


>  <RI>
0

>  <Rbt.Current_Directory>
/home/itssahil/PROJECTS/Mol_Feturizer/New_Systems/rnas/1lvj

>  <Rbt.Executable>
rbdock ($Id: //depot/dev/client3/rdock/2013.1/src/exe/rbdock.cxx#4 $)

>  <Rbt.Library>
libRbt.so (2013.1, Build901 2013/11/27)

>  <Rbt.Parameter_File>
/export/apps/rDock/src/rDock_2013.1_src/data/scripts/dock_solv.prm

>  <Rbt.Receptor>
prm/blind_docking_40.prm

>  <SCORE>
-34.8279

>  <SCORE.INTER>
-33.2275

>  <SCORE.INTER.CONST>
1

>  <SCORE.INTER.POLAR>
-1.56772

>  <SCORE.INTER.ROT>
5

>  <SCORE.INTER.SOLV>
15.6766

>  <SCORE.INTER.VDW>
-29.0848

>  <SCORE.INTER.norm>
-1.44467

>  <SCORE.INTRA>
-1.60045

>  <SCORE.INTRA.DIHEDRAL>
2.17077

>  <SCORE.INTRA.DIHEDRAL.0>
8.06479

>  <SCORE.INTRA.POLAR>
0

>  <SCORE.INTRA.POLAR.0>
0

>  <SCORE.INTRA.REPUL>
0

>  <SCORE.INTRA.REPUL.0>
0

>  <SCORE.INTRA.SOLV>
0.996641

>  <SCORE.INTRA.SOLV.lig_0>
-29.8054

>  <SCORE.INTRA.VDW>
-3.18416

>  <SCORE.INTRA.VDW.0>
2.61447

>  <SCORE.INTRA.norm>
-0.0695849

>  <SCORE.RESTR>
0

>  <SCORE.RESTR.CAVITY>
0

>  <SCORE.RESTR.norm>
0

>  <SCORE.SYSTEM>
0

>  <SCORE.SYSTEM.CONST>
0

>  <SCORE.SYSTEM.DIHEDRAL>
0

>  <SCORE.SYSTEM.SOLV>
0

>  <SCORE.SYSTEM.norm>
0

>  <SCORE.heavy>
23

>  <SCORE.norm>
-1.51426

>  <RMSD>
21.454

$$$$

 OpenBabel11021811403D
libRbt.so/2013.1/901 2013/11/27
 23 25  0  0  0  0  0  0  0  0999 V2000
  -18.6241   24.6411    0.8325 S   0  0  0  0  0  0  0  0  0  0  0  0
  -15.7557   25.3974    0.5697 N   0  0  0  0  0  0  0  0  0  0  0  0
  -14.9664   24.2407    2.5326 C   0  0  0  0  0  0  0  0  0  0  0  0
  -15.2478   23.4311    3.6410 C   0  0  0  0  0  0  0  0  0  0  0  0
  -16.5477   22.9949    3.8784 C   0  0  0  0  0  0  0  0  0  0  0  0
  -17.5726   23.3673    3.0154 C   0  0  0  0  0  0  0  0  0  0  0  0
  -17.3051   24.1737    1.9121 C   0  0  0  0  0  0  0  0  0  0  0  0
  -16.0002   24.6155    1.6629 C   0  0  0  0  0  0  0  0  0  0  0  0
  -17.9779   26.2743    0.6599 C   0  0  0  0  0  0  0  0  0  0  0  0
  -18.8437   27.3715    0.6336 C   0  0  0  0  0  0  0  0  0  0  0  0
  -18.3281   28.6630    0.4917 C   0  0  0  0  0  0  0  0  0  0  0  0
  -16.9475   28.8525    0.3722 C   0  0  0  0  0  0  0  0  0  0  0  0
  -16.0890   27.7529    0.3984 C   0  0  0  0  0  0  0  0  0  0  0  0
  -16.5969   26.4692    0.5436 C   0  0  0  0  0  0  0  0  0  0  0  0
  -14.3724   25.5481    0.0541 C   0  0  0  0  0  0  0  0  0  0  0  0
  -13.5225   24.2429   -0.1010 C   0  0  0  0  0  0  0  0  0  0  0  0
  -12.4301   24.0737    1.0095 C   0  0  0  0  0  0  0  0  0  0  0  0
  -11.6850   22.7897    1.0538 N   0  3  0  0  0  0  0  0  0  0  0  0
  -12.5738   21.6576    1.4227 C   0  0  0  0  0  0  0  0  0  0  0  0
  -10.5051   22.8938    1.9807 C   0  0  0  0  0  0  0  0  0  0  0  0
  -14.1500   23.0303    4.5849 C   0  0  0  0  0  0  0  0  0  0  0  0
  -12.7666   23.6285    4.5012 C   0  0  0  0  0  0  0  0  0  0  0  0
  -14.3925   22.2430    5.4857 O   0  0  0  0  0  0  0  0  0  0  0  0
  1  7  1  0  0  0  0
  1  9  1  0  0  0  0
  2  8  1  0  0  0  0
  2 14  1  0  0  0  0
  2 15  1  0  0  0  0
  3  4  2  0  0  0  0
  3  8  1  0  0  0  0
  4  5  1  0  0  0  0
  4 21  1  0  0  0  0
  5  6  2  0  0  0  0
  6  7  1  0  0  0  0
  7  8  2  0  0  0  0
  9 10  2  0  0  0  0
  9 14  1  0  0  0  0
 10 11  1  0  0  0  0
 11 12  2  0  0  0  0
 12 13  1  0  0  0  0
 13 14  2  0  0  0  0
 15 16  1  0  0  0  0
 16 17  1  0  0  0  0
 17 18  1  0  0  0  0
 18 19  1  0  0  0  0
 18 20  1  0  0  0  0
 21 22  1  0  0  0  0
 21 23  2  0  0  0  0
M  CHG  1  18   1
M  END
>  <CHROM.1>
46.43260931,8.91020204,-104.98169333,172.48881376,53.47767819,-15.41891961
24.63758593,1.75070436,2.46886594,0.27657615,-0.82225533

>  <Name>


>  <RI>
0

>  <Rbt.Current_Directory>
/home/itssahil/PROJECTS/Mol_Feturizer/New_Systems/rnas/1lvj

>  <Rbt.Executable>
rbdock ($Id: //depot/dev/client3/rdock/2013.1/src/exe/rbdock.cxx#4 $)

>  <Rbt.Library>
libRbt.so (2013.1, Build901 2013/11/27)

>  <Rbt.Parameter_File>
/export/apps/rDock/src/rDock_2013.1_src/data/scripts/dock_solv.prm

>  <Rbt.Receptor>
prm/blind_docking_40.prm

>  <SCORE>
-32.2332

>  <SCORE.INTER>
-29.1651

>  <SCORE.INTER.CONST>
1

>  <SCORE.INTER.POLAR>
0

>  <SCORE.INTER.ROT>
5

>  <SCORE.INTER.SOLV>
14.8145

>  <SCORE.INTER.VDW>
-31.3149

>  <SCORE.INTER.norm>
-1.26805

>  <SCORE.INTRA>
-3.06804

>  <SCORE.INTRA.DIHEDRAL>
-2.53882

>  <SCORE.INTRA.DIHEDRAL.0>
8.06479

>  <SCORE.INTRA.POLAR>
0

>  <SCORE.INTRA.POLAR.0>
0

>  <SCORE.INTRA.REPUL>
0

>  <SCORE.INTRA.REPUL.0>
0

>  <SCORE.INTRA.SOLV>
0.574099

>  <SCORE.INTRA.SOLV.lig_0>
-29.8054

>  <SCORE.INTRA.VDW>
-2.08568

>  <SCORE.INTRA.VDW.0>
2.61447

>  <SCORE.INTRA.norm>
-0.133393

>  <SCORE.RESTR>
0

>  <SCORE.RESTR.CAVITY>
0

>  <SCORE.RESTR.norm>
0

>  <SCORE.SYSTEM>
0

>  <SCORE.SYSTEM.CONST>
0

>  <SCORE.SYSTEM.DIHEDRAL>
0

>  <SCORE.SYSTEM.SOLV>
0

>  <SCORE.SYSTEM.norm>
0

>  <SCORE.heavy>
23

>  <SCORE.norm>
-1.40144

>  <RMSD>
21.474

$$$$

 OpenBabel11021811403D
libRbt.so/2013.1/901 2013/11/27
 23 25  0  0  0  0  0  0  0  0999 V2000
  -19.2227   25.3501    0.6995 S   0  0  0  0  0  0  0  0  0  0  0  0
  -16.2622   25.3365    0.3760 N   0  0  0  0  0  0  0  0  0  0  0  0
  -15.7590   24.0245    2.3354 C   0  0  0  0  0  0  0  0  0  0  0  0
  -16.2175   23.3208    3.4569 C   0  0  0  0  0  0  0  0  0  0  0  0
  -17.5809   23.2373    3.7227 C   0  0  0  0  0  0  0  0  0  0  0  0
  -18.4921   23.8581    2.8752 C   0  0  0  0  0  0  0  0  0  0  0  0
  -18.0476   24.5623    1.7591 C   0  0  0  0  0  0  0  0  0  0  0  0
  -16.6782   24.6499    1.4813 C   0  0  0  0  0  0  0  0  0  0  0  0
  -18.1794   26.7594    0.4986 C   0  0  0  0  0  0  0  0  0  0  0  0
  -18.7321   28.0432    0.4774 C   0  0  0  0  0  0  0  0  0  0  0  0
  -17.9029   29.1564    0.3130 C   0  0  0  0  0  0  0  0  0  0  0  0
  -16.5230   28.9814    0.1660 C   0  0  0  0  0  0  0  0  0  0  0  0
  -15.9780   27.6971    0.1873 C   0  0  0  0  0  0  0  0  0  0  0  0
  -16.7977   26.5895    0.3547 C   0  0  0  0  0  0  0  0  0  0  0  0
  -14.8979   25.1213   -0.1667 C   0  0  0  0  0  0  0  0  0  0  0  0
  -13.7241   25.0386    0.8655 C   0  0  0  0  0  0  0  0  0  0  0  0
  -12.5136   24.1780    0.3663 C   0  0  0  0  0  0  0  0  0  0  0  0
  -12.0929   23.0274    1.2059 N   0  3  0  0  0  0  0  0  0  0  0  0
  -11.1117   23.4404    2.2423 C   0  0  0  0  0  0  0  0  0  0  0  0
  -11.5587   21.9133    0.3483 C   0  0  0  0  0  0  0  0  0  0  0  0
  -15.2418   22.6540    4.3842 C   0  0  0  0  0  0  0  0  0  0  0  0
  -13.7492   22.7984    4.2113 C   0  0  0  0  0  0  0  0  0  0  0  0
  -15.6607   22.0247    5.3427 O   0  0  0  0  0  0  0  0  0  0  0  0
  1  7  1  0  0  0  0
  1  9  1  0  0  0  0
  2  8  1  0  0  0  0
  2 14  1  0  0  0  0
  2 15  1  0  0  0  0
  3  4  2  0  0  0  0
  3  8  1  0  0  0  0
  4  5  1  0  0  0  0
  4 21  1  0  0  0  0
  5  6  2  0  0  0  0
  6  7  1  0  0  0  0
  7  8  2  0  0  0  0
  9 10  2  0  0  0  0
  9 14  1  0  0  0  0
 10 11  1  0  0  0  0
 11 12  2  0  0  0  0
 12 13  1  0  0  0  0
 13 14  2  0  0  0  0
 15 16  1  0  0  0  0
 16 17  1  0  0  0  0
 17 18  1  0  0  0  0
 18 19  1  0  0  0  0
 18 20  1  0  0  0  0
 21 22  1  0  0  0  0
 21 23  2  0  0  0  0
M  CHG  1  18   1
M  END
>  <CHROM.1>
-43.16776590,4.68159328,152.60581663,-122.89151365,32.37557201,-15.85362954
24.81265913,1.59863055,2.45144374,0.27659357,-0.73614451

>  <Name>


>  <RI>
0

>  <Rbt.Current_Directory>
/home/itssahil/PROJECTS/Mol_Feturizer/New_Systems/rnas/1lvj

>  <Rbt.Executable>
rbdock ($Id: //depot/dev/client3/rdock/2013.1/src/exe/rbdock.cxx#4 $)

>  <Rbt.Library>
libRbt.so (2013.1, Build901 2013/11/27)

>  <Rbt.Parameter_File>
/export/apps/rDock/src/rDock_2013.1_src/data/scripts/dock_solv.prm

>  <Rbt.Receptor>
prm/blind_docking_80.prm

>  <SCORE>
-26.4368

>  <SCORE.INTER>
-30.3293

>  <SCORE.INTER.CONST>
1

>  <SCORE.INTER.POLAR>
0

>  <SCORE.INTER.ROT>
5

>  <SCORE.INTER.SOLV>
12.6615

>  <SCORE.INTER.VDW>
-31.3734

>  <SCORE.INTER.norm>
-1.31866

>  <SCORE.INTRA>
3.72571

>  <SCORE.INTRA.DIHEDRAL>
2.69364

>  <SCORE.INTRA.DIHEDRAL.0>
8.06479

>  <SCORE.INTRA.POLAR>
0

>  <SCORE.INTRA.POLAR.0>
0

>  <SCORE.INTRA.REPUL>
0

>  <SCORE.INTRA.REPUL.0>
0

>  <SCORE.INTRA.SOLV>
4.63267

>  <SCORE.INTRA.SOLV.lig_0>
-29.8054

>  <SCORE.INTRA.VDW>
0.0625536

>  <SCORE.INTRA.VDW.0>
2.61447

>  <SCORE.INTRA.norm>
0.161987

>  <SCORE.RESTR>
0.166805

>  <SCORE.RESTR.CAVITY>
0.166805

>  <SCORE.RESTR.norm>
0.00725239

>  <SCORE.SYSTEM>
0

>  <SCORE.SYSTEM.CONST>
0

>  <SCORE.SYSTEM.DIHEDRAL>
0

>  <SCORE.SYSTEM.SOLV>
0

>  <SCORE.SYSTEM.norm>
0

>  <SCORE.heavy>
23

>  <SCORE.norm>
-1.14942

>  <RMSD>
21.481

$$$$

 OpenBabel11021811403D
libRbt.so/2013.1/901 2013/11/27
 23 25  0  0  0  0  0  0  0  0999 V2000
  -18.5646   24.6532    0.8513 S   0  0  0  0  0  0  0  0  0  0  0  0
  -15.6554   25.2370    0.5968 N   0  0  0  0  0  0  0  0  0  0  0  0
  -14.9501   24.0906    2.5974 C   0  0  0  0  0  0  0  0  0  0  0  0
  -15.2867   23.3288    3.7241 C   0  0  0  0  0  0  0  0  0  0  0  0
  -16.6115   22.9742    3.9601 C   0  0  0  0  0  0  0  0  0  0  0  0
  -17.6061   23.3810    3.0775 C   0  0  0  0  0  0  0  0  0  0  0  0
  -17.2835   24.1406    1.9558 C   0  0  0  0  0  0  0  0  0  0  0  0
  -15.9534   24.5002    1.7078 C   0  0  0  0  0  0  0  0  0  0  0  0
  -17.8242   26.2415    0.6417 C   0  0  0  0  0  0  0  0  0  0  0  0
  -18.6254   27.3853    0.5778 C   0  0  0  0  0  0  0  0  0  0  0  0
  -18.0354   28.6409    0.4067 C   0  0  0  0  0  0  0  0  0  0  0  0
  -16.6452   28.7479    0.2958 C   0  0  0  0  0  0  0  0  0  0  0  0
  -15.8515   27.6021    0.3596 C   0  0  0  0  0  0  0  0  0  0  0  0
  -16.4334   26.3540    0.5339 C   0  0  0  0  0  0  0  0  0  0  0  0
  -14.2615   25.2943    0.0910 C   0  0  0  0  0  0  0  0  0  0  0  0
  -13.4465   23.9580    0.0918 C   0  0  0  0  0  0  0  0  0  0  0  0
  -12.1864   23.9959    1.0224 C   0  0  0  0  0  0  0  0  0  0  0  0
  -11.5406   22.7022    1.3616 N   0  3  0  0  0  0  0  0  0  0  0  0
  -10.2938   22.9054    2.1438 C   0  0  0  0  0  0  0  0  0  0  0  0
  -11.2904   21.8933    0.1186 C   0  0  0  0  0  0  0  0  0  0  0  0
  -14.2216   22.8916    4.6890 C   0  0  0  0  0  0  0  0  0  0  0  0
  -12.8091   23.4184    4.6121 C   0  0  0  0  0  0  0  0  0  0  0  0
  -14.5138   22.1345    5.6009 O   0  0  0  0  0  0  0  0  0  0  0  0
  1  7  1  0  0  0  0
  1  9  1  0  0  0  0
  2  8  1  0  0  0  0
  2 14  1  0  0  0  0
  2 15  1  0  0  0  0
  3  4  2  0  0  0  0
  3  8  1  0  0  0  0
  4  5  1  0  0  0  0
  4 21  1  0  0  0  0
  5  6  2  0  0  0  0
  6  7  1  0  0  0  0
  7  8  2  0  0  0  0
  9 10  2  0  0  0  0
  9 14  1  0  0  0  0
 10 11  1  0  0  0  0
 11 12  2  0  0  0  0
 12 13  1  0  0  0  0
 13 14  2  0  0  0  0
 15 16  1  0  0  0  0
 16 17  1  0  0  0  0
 17 18  1  0  0  0  0
 18 19  1  0  0  0  0
 18 20  1  0  0  0  0
 21 22  1  0  0  0  0
 21 23  2  0  0  0  0
M  CHG  1  18   1
M  END
>  <CHROM.1>
41.44419426,9.56698305,-117.12779330,165.14878806,-65.22461009,-15.27753307
24.56032890,1.74823408,2.52652097,0.31319869,-0.86946677

>  <Name>


>  <RI>
0

>  <Rbt.Current_Directory>
/home/itssahil/PROJECTS/Mol_Feturizer/New_Systems/rnas/1lvj

>  <Rbt.Executable>
rbdock ($Id: //depot/dev/client3/rdock/2013.1/src/exe/rbdock.cxx#4 $)

>  <Rbt.Library>
libRbt.so (2013.1, Build901 2013/11/27)

>  <Rbt.Parameter_File>
/export/apps/rDock/src/rDock_2013.1_src/data/scripts/dock_solv.prm

>  <Rbt.Receptor>
prm/blind_docking_80.prm

>  <SCORE>
-30.1064

>  <SCORE.INTER>
-30.2342

>  <SCORE.INTER.CONST>
1

>  <SCORE.INTER.POLAR>
0

>  <SCORE.INTER.ROT>
5

>  <SCORE.INTER.SOLV>
11.5038

>  <SCORE.INTER.VDW>
-30.9241

>  <SCORE.INTER.norm>
-1.31453

>  <SCORE.INTRA>
0.102478

>  <SCORE.INTRA.DIHEDRAL>
-1.12275

>  <SCORE.INTRA.DIHEDRAL.0>
8.06479

>  <SCORE.INTRA.POLAR>
0

>  <SCORE.INTRA.POLAR.0>
0

>  <SCORE.INTRA.REPUL>
0

>  <SCORE.INTRA.REPUL.0>
0

>  <SCORE.INTRA.SOLV>
3.50968

>  <SCORE.INTRA.SOLV.lig_0>
-29.8054

>  <SCORE.INTRA.VDW>
-1.09099

>  <SCORE.INTRA.VDW.0>
2.61447

>  <SCORE.INTRA.norm>
0.00445557

>  <SCORE.RESTR>
0.0253894

>  <SCORE.RESTR.CAVITY>
0.0253894

>  <SCORE.RESTR.norm>
0.00110389

>  <SCORE.SYSTEM>
0

>  <SCORE.SYSTEM.CONST>
0

>  <SCORE.SYSTEM.DIHEDRAL>
0

>  <SCORE.SYSTEM.SOLV>
0

>  <SCORE.SYSTEM.norm>
0

>  <SCORE.heavy>
23

>  <SCORE.norm>
-1.30897

>  <RMSD>
21.483

$$$$

 OpenBabel11021811403D
libRbt.so/2013.1/901 2013/11/27
 23 25  0  0  0  0  0  0  0  0999 V2000
  -16.9460   29.0972    0.1985 S   0  0  0  0  0  0  0  0  0  0  0  0
  -18.4550   27.0565    1.7567 N   0  0  0  0  0  0  0  0  0  0  0  0
  -16.7121   25.3916    1.8244 C   0  0  0  0  0  0  0  0  0  0  0  0
  -15.4085   25.0065    1.4847 C   0  0  0  0  0  0  0  0  0  0  0  0
  -14.5878   25.8698    0.7652 C   0  0  0  0  0  0  0  0  0  0  0  0
  -15.0640   27.1175    0.3777 C   0  0  0  0  0  0  0  0  0  0  0  0
  -16.3587   27.5098    0.7077 C   0  0  0  0  0  0  0  0  0  0  0  0
  -17.1915   26.6498    1.4336 C   0  0  0  0  0  0  0  0  0  0  0  0
  -18.5399   28.4449   -0.1876 C   0  0  0  0  0  0  0  0  0  0  0  0
  -19.2220   28.8882   -1.3244 C   0  0  0  0  0  0  0  0  0  0  0  0
  -20.4863   28.3728   -1.6239 C   0  0  0  0  0  0  0  0  0  0  0  0
  -21.0664   27.4179   -0.7824 C   0  0  0  0  0  0  0  0  0  0  0  0
  -20.3803   26.9803    0.3511 C   0  0  0  0  0  0  0  0  0  0  0  0
  -19.1228   27.4866    0.6494 C   0  0  0  0  0  0  0  0  0  0  0  0
  -19.2068   26.3702    2.8364 C   0  0  0  0  0  0  0  0  0  0  0  0
  -20.3358   25.3778    2.4003 C   0  0  0  0  0  0  0  0  0  0  0  0
  -20.2962   24.0116    3.1666 C   0  0  0  0  0  0  0  0  0  0  0  0
  -19.2325   23.0436    2.7956 N   0  3  0  0  0  0  0  0  0  0  0  0
  -18.1158   23.0608    3.7755 C   0  0  0  0  0  0  0  0  0  0  0  0
  -18.7468   23.3015    1.3958 C   0  0  0  0  0  0  0  0  0  0  0  0
  -14.8868   23.6575    1.8902 C   0  0  0  0  0  0  0  0  0  0  0  0
  -13.5290   23.1622    1.4547 C   0  0  0  0  0  0  0  0  0  0  0  0
  -15.5491   22.9606    2.6425 O   0  0  0  0  0  0  0  0  0  0  0  0
  1  7  1  0  0  0  0
  1  9  1  0  0  0  0
  2  8  1  0  0  0  0
  2 14  1  0  0  0  0
  2 15  1  0  0  0  0
  3  4  2  0  0  0  0
  3  8  1  0  0  0  0
  4  5  1  0  0  0  0
  4 21  1  0  0  0  0
  5  6  2  0  0  0  0
  6  7  1  0  0  0  0
  7  8  2  0  0  0  0
  9 10  2  0  0  0  0
  9 14  1  0  0  0  0
 10 11  1  0  0  0  0
 11 12  2  0  0  0  0
 12 13  1  0  0  0  0
 13 14  2  0  0  0  0
 15 16  1  0  0  0  0
 16 17  1  0  0  0  0
 17 18  1  0  0  0  0
 18 19  1  0  0  0  0
 18 20  1  0  0  0  0
 21 22  1  0  0  0  0
 21 23  2  0  0  0  0
M  CHG  1  18   1
M  END
>  <CHROM.1>
-103.77716989,175.22858636,133.75846743,-74.38503444,-138.72452101,-17.76093236
25.99701310,1.21883096,-2.06889985,-0.06464234,2.60373278

>  <Name>


>  <RI>
0

>  <Rbt.Current_Directory>
/home/itssahil/PROJECTS/Mol_Feturizer/New_Systems/rnas/1lvj

>  <Rbt.Executable>
rbdock ($Id: //depot/dev/client3/rdock/2013.1/src/exe/rbdock.cxx#4 $)

>  <Rbt.Library>
libRbt.so (2013.1, Build901 2013/11/27)

>  <Rbt.Parameter_File>
/export/apps/rDock/src/rDock_2013.1_src/data/scripts/dock_solv.prm

>  <Rbt.Receptor>
prm/blind_docking_60.prm

>  <SCORE>
-18.9659

>  <SCORE.INTER>
-27.5703

>  <SCORE.INTER.CONST>
1

>  <SCORE.INTER.POLAR>
-1.16846

>  <SCORE.INTER.ROT>
5

>  <SCORE.INTER.SOLV>
17.5639

>  <SCORE.INTER.VDW>
-27.2732

>  <SCORE.INTER.norm>
-1.19871

>  <SCORE.INTRA>
8.60438

>  <SCORE.INTRA.DIHEDRAL>
1.67243

>  <SCORE.INTRA.DIHEDRAL.0>
8.06479

>  <SCORE.INTRA.POLAR>
0

>  <SCORE.INTRA.POLAR.0>
0

>  <SCORE.INTRA.REPUL>
0

>  <SCORE.INTRA.REPUL.0>
0

>  <SCORE.INTRA.SOLV>
0.368738

>  <SCORE.INTRA.SOLV.lig_0>
-29.8054

>  <SCORE.INTRA.VDW>
7.5838

>  <SCORE.INTRA.VDW.0>
2.61447

>  <SCORE.INTRA.norm>
0.374104

>  <SCORE.RESTR>
0

>  <SCORE.RESTR.CAVITY>
0

>  <SCORE.RESTR.norm>
0

>  <SCORE.SYSTEM>
0

>  <SCORE.SYSTEM.CONST>
0

>  <SCORE.SYSTEM.DIHEDRAL>
0

>  <SCORE.SYSTEM.SOLV>
0

>  <SCORE.SYSTEM.norm>
0

>  <SCORE.heavy>
23

>  <SCORE.norm>
-0.824603

>  <RMSD>
21.489

$$$$

 OpenBabel11021811403D
libRbt.so/2013.1/901 2013/11/27
 23 25  0  0  0  0  0  0  0  0999 V2000
  -18.3364   23.0392    3.9446 S   0  0  0  0  0  0  0  0  0  0  0  0
  -17.1934   25.2289    2.2809 N   0  0  0  0  0  0  0  0  0  0  0  0
  -14.8792   24.5898    2.5047 C   0  0  0  0  0  0  0  0  0  0  0  0
  -13.9247   23.7066    3.0263 C   0  0  0  0  0  0  0  0  0  0  0  0
  -14.3221   22.6303    3.8137 C   0  0  0  0  0  0  0  0  0  0  0  0
  -15.6710   22.4324    4.0881 C   0  0  0  0  0  0  0  0  0  0  0  0
  -16.6282   23.3052    3.5771 C   0  0  0  0  0  0  0  0  0  0  0  0
  -16.2389   24.3895    2.7815 C   0  0  0  0  0  0  0  0  0  0  0  0
  -18.6200   24.7698    4.1434 C   0  0  0  0  0  0  0  0  0  0  0  0
  -19.4575   25.2301    5.1637 C   0  0  0  0  0  0  0  0  0  0  0  0
  -19.6835   26.6013    5.3146 C   0  0  0  0  0  0  0  0  0  0  0  0
  -19.0739   27.5079    4.4412 C   0  0  0  0  0  0  0  0  0  0  0  0
  -18.2397   27.0416    3.4246 C   0  0  0  0  0  0  0  0  0  0  0  0
  -18.0094   25.6810    3.2743 C   0  0  0  0  0  0  0  0  0  0  0  0
  -16.8771   26.1221    1.1389 C   0  0  0  0  0  0  0  0  0  0  0  0
  -18.0791   26.8444    0.4435 C   0  0  0  0  0  0  0  0  0  0  0  0
  -17.6607   28.1285   -0.3509 C   0  0  0  0  0  0  0  0  0  0  0  0
  -18.7125   29.1388   -0.6316 N   0  3  0  0  0  0  0  0  0  0  0  0
  -19.1567   29.8210    0.6112 C   0  0  0  0  0  0  0  0  0  0  0  0
  -19.8670   28.5119   -1.3638 C   0  0  0  0  0  0  0  0  0  0  0  0
  -12.4643   23.9160    2.7438 C   0  0  0  0  0  0  0  0  0  0  0  0
  -11.9833   24.5878    1.4805 C   0  0  0  0  0  0  0  0  0  0  0  0
  -11.6393   23.5900    3.5824 O   0  0  0  0  0  0  0  0  0  0  0  0
  1  7  1  0  0  0  0
  1  9  1  0  0  0  0
  2  8  1  0  0  0  0
  2 14  1  0  0  0  0
  2 15  1  0  0  0  0
  3  4  2  0  0  0  0
  3  8  1  0  0  0  0
  4  5  1  0  0  0  0
  4 21  1  0  0  0  0
  5  6  2  0  0  0  0
  6  7  1  0  0  0  0
  7  8  2  0  0  0  0
  9 10  2  0  0  0  0
  9 14  1  0  0  0  0
 10 11  1  0  0  0  0
 11 12  2  0  0  0  0
 12 13  1  0  0  0  0
 13 14  2  0  0  0  0
 15 16  1  0  0  0  0
 16 17  1  0  0  0  0
 17 18  1  0  0  0  0
 18 19  1  0  0  0  0
 18 20  1  0  0  0  0
 21 22  1  0  0  0  0
 21 23  2  0  0  0  0
M  CHG  1  18   1
M  END
>  <CHROM.1>
168.40664465,-28.80318998,158.35354388,-158.67166394,-171.19391648,-16.89241703
25.45146300,2.57400723,0.75287504,-0.35018115,2.31030336

>  <Name>


>  <RI>
0

>  <Rbt.Current_Directory>
/home/itssahil/PROJECTS/Mol_Feturizer/New_Systems/rnas/1lvj

>  <Rbt.Executable>
rbdock ($Id: //depot/dev/client3/rdock/2013.1/src/exe/rbdock.cxx#4 $)

>  <Rbt.Library>
libRbt.so (2013.1, Build901 2013/11/27)

>  <Rbt.Parameter_File>
/export/apps/rDock/src/rDock_2013.1_src/data/scripts/dock_solv.prm

>  <Rbt.Receptor>
prm/blind_docking_60.prm

>  <SCORE>
-30.7183

>  <SCORE.INTER>
-28.6899

>  <SCORE.INTER.CONST>
1

>  <SCORE.INTER.POLAR>
-1.52971

>  <SCORE.INTER.ROT>
5

>  <SCORE.INTER.SOLV>
16.8505

>  <SCORE.INTER.VDW>
-26.5777

>  <SCORE.INTER.norm>
-1.24739

>  <SCORE.INTRA>
-2.0297

>  <SCORE.INTRA.DIHEDRAL>
-1.29692

>  <SCORE.INTRA.DIHEDRAL.0>
8.06479

>  <SCORE.INTRA.POLAR>
0

>  <SCORE.INTRA.POLAR.0>
0

>  <SCORE.INTRA.REPUL>
0

>  <SCORE.INTRA.REPUL.0>
0

>  <SCORE.INTRA.SOLV>
-0.587504

>  <SCORE.INTRA.SOLV.lig_0>
-29.8054

>  <SCORE.INTRA.VDW>
-1.08749

>  <SCORE.INTRA.VDW.0>
2.61447

>  <SCORE.INTRA.norm>
-0.088248

>  <SCORE.RESTR>
0.00126339

>  <SCORE.RESTR.CAVITY>
0.00126339

>  <SCORE.RESTR.norm>
5.493e-05

>  <SCORE.SYSTEM>
0

>  <SCORE.SYSTEM.CONST>
0

>  <SCORE.SYSTEM.DIHEDRAL>
0

>  <SCORE.SYSTEM.SOLV>
0

>  <SCORE.SYSTEM.norm>
0

>  <SCORE.heavy>
23

>  <SCORE.norm>
-1.33558

>  <RMSD>
21.496

$$$$

 OpenBabel11021811403D
libRbt.so/2013.1/901 2013/11/27
 23 25  0  0  0  0  0  0  0  0999 V2000
  -19.3377   25.0892    0.6348 S   0  0  0  0  0  0  0  0  0  0  0  0
  -16.3809   25.3806    0.4318 N   0  0  0  0  0  0  0  0  0  0  0  0
  -15.8222   24.0587    2.3695 C   0  0  0  0  0  0  0  0  0  0  0  0
  -16.2493   23.2752    3.4496 C   0  0  0  0  0  0  0  0  0  0  0  0
  -17.6064   23.0478    3.6571 C   0  0  0  0  0  0  0  0  0  0  0  0
  -18.5429   23.6037    2.7923 C   0  0  0  0  0  0  0  0  0  0  0  0
  -18.1300   24.3862    1.7170 C   0  0  0  0  0  0  0  0  0  0  0  0
  -16.7669   24.6187    1.4979 C   0  0  0  0  0  0  0  0  0  0  0  0
  -18.4346   26.6011    0.5192 C   0  0  0  0  0  0  0  0  0  0  0  0
  -19.1123   27.8237    0.5144 C   0  0  0  0  0  0  0  0  0  0  0  0
  -18.3936   29.0187    0.4176 C   0  0  0  0  0  0  0  0  0  0  0  0
  -16.9986   28.9866    0.3216 C   0  0  0  0  0  0  0  0  0  0  0  0
  -16.3285   27.7627    0.3262 C   0  0  0  0  0  0  0  0  0  0  0  0
  -17.0384   26.5742    0.4266 C   0  0  0  0  0  0  0  0  0  0  0  0
  -14.9825   25.3204   -0.0612 C   0  0  0  0  0  0  0  0  0  0  0  0
  -13.8929   26.0516    0.7920 C   0  0  0  0  0  0  0  0  0  0  0  0
  -13.1486   25.1068    1.7962 C   0  0  0  0  0  0  0  0  0  0  0  0
  -12.0066   24.3114    1.2773 N   0  3  0  0  0  0  0  0  0  0  0  0
  -12.4433   23.3523    0.2299 C   0  0  0  0  0  0  0  0  0  0  0  0
  -11.2906   23.6165    2.4026 C   0  0  0  0  0  0  0  0  0  0  0  0
  -15.2469   22.6772    4.3952 C   0  0  0  0  0  0  0  0  0  0  0  0
  -13.7624   22.8923    4.2264 C   0  0  0  0  0  0  0  0  0  0  0  0
  -15.6395   22.0477    5.3646 O   0  0  0  0  0  0  0  0  0  0  0  0
  1  7  1  0  0  0  0
  1  9  1  0  0  0  0
  2  8  1  0  0  0  0
  2 14  1  0  0  0  0
  2 15  1  0  0  0  0
  3  4  2  0  0  0  0
  3  8  1  0  0  0  0
  4  5  1  0  0  0  0
  4 21  1  0  0  0  0
  5  6  2  0  0  0  0
  6  7  1  0  0  0  0
  7  8  2  0  0  0  0
  9 10  2  0  0  0  0
  9 14  1  0  0  0  0
 10 11  1  0  0  0  0
 11 12  2  0  0  0  0
 12 13  1  0  0  0  0
 13 14  2  0  0  0  0
 15 16  1  0  0  0  0
 16 17  1  0  0  0  0
 17 18  1  0  0  0  0
 18 19  1  0  0  0  0
 18 20  1  0  0  0  0
 21 22  1  0  0  0  0
 21 23  2  0  0  0  0
M  CHG  1  18   1
M  END
>  <CHROM.1>
-75.12058124,0.07003390,95.44900032,83.61832653,56.80228425,-16.04671444
24.97981843,1.67698800,2.42985354,0.11264424,-0.69882847

>  <Name>


>  <RI>
0

>  <Rbt.Current_Directory>
/home/itssahil/PROJECTS/Mol_Feturizer/New_Systems/rnas/1lvj

>  <Rbt.Executable>
rbdock ($Id: //depot/dev/client3/rdock/2013.1/src/exe/rbdock.cxx#4 $)

>  <Rbt.Library>
libRbt.so (2013.1, Build901 2013/11/27)

>  <Rbt.Parameter_File>
/export/apps/rDock/src/rDock_2013.1_src/data/scripts/dock_solv.prm

>  <Rbt.Receptor>
prm/blind_docking_40.prm

>  <SCORE>
-37.6106

>  <SCORE.INTER>
-36.816

>  <SCORE.INTER.CONST>
1

>  <SCORE.INTER.POLAR>
-1.18086

>  <SCORE.INTER.ROT>
5

>  <SCORE.INTER.SOLV>
21.1579

>  <SCORE.INTER.VDW>
-34.5938

>  <SCORE.INTER.norm>
-1.6007

>  <SCORE.INTRA>
-0.79457

>  <SCORE.INTRA.DIHEDRAL>
-2.35738

>  <SCORE.INTRA.DIHEDRAL.0>
8.06479

>  <SCORE.INTRA.POLAR>
0

>  <SCORE.INTRA.POLAR.0>
0

>  <SCORE.INTRA.REPUL>
0

>  <SCORE.INTRA.REPUL.0>
0

>  <SCORE.INTRA.SOLV>
1.00419

>  <SCORE.INTRA.SOLV.lig_0>
-29.8054

>  <SCORE.INTRA.VDW>
-0.117977

>  <SCORE.INTRA.VDW.0>
2.61447

>  <SCORE.INTRA.norm>
-0.0345465

>  <SCORE.RESTR>
0

>  <SCORE.RESTR.CAVITY>
0

>  <SCORE.RESTR.norm>
0

>  <SCORE.SYSTEM>
0

>  <SCORE.SYSTEM.CONST>
0

>  <SCORE.SYSTEM.DIHEDRAL>
0

>  <SCORE.SYSTEM.SOLV>
0

>  <SCORE.SYSTEM.norm>
0

>  <SCORE.heavy>
23

>  <SCORE.norm>
-1.63524

>  <RMSD>
21.517

$$$$

 OpenBabel11021811403D
libRbt.so/2013.1/901 2013/11/27
 23 25  0  0  0  0  0  0  0  0999 V2000
  -19.3124   25.1396    0.6175 S   0  0  0  0  0  0  0  0  0  0  0  0
  -16.3519   25.4034    0.4295 N   0  0  0  0  0  0  0  0  0  0  0  0
  -15.8158   24.0843    2.3754 C   0  0  0  0  0  0  0  0  0  0  0  0
  -16.2559   23.3089    3.4563 C   0  0  0  0  0  0  0  0  0  0  0  0
  -17.6161   23.0947    3.6572 C   0  0  0  0  0  0  0  0  0  0  0  0
  -18.5428   23.6556    2.7852 C   0  0  0  0  0  0  0  0  0  0  0  0
  -18.1170   24.4301    1.7091 C   0  0  0  0  0  0  0  0  0  0  0  0
  -16.7506   24.6493    1.4965 C   0  0  0  0  0  0  0  0  0  0  0  0
  -18.3949   26.6428    0.5009 C   0  0  0  0  0  0  0  0  0  0  0  0
  -19.0615   27.8715    0.4876 C   0  0  0  0  0  0  0  0  0  0  0  0
  -18.3315   29.0595    0.3900 C   0  0  0  0  0  0  0  0  0  0  0  0
  -16.9363   29.0144    0.3018 C   0  0  0  0  0  0  0  0  0  0  0  0
  -16.2773   27.7846    0.3149 C   0  0  0  0  0  0  0  0  0  0  0  0
  -16.9986   26.6029    0.4161 C   0  0  0  0  0  0  0  0  0  0  0  0
  -14.9515   25.3287   -0.0556 C   0  0  0  0  0  0  0  0  0  0  0  0
  -13.8578   26.0402    0.8090 C   0  0  0  0  0  0  0  0  0  0  0  0
  -13.1198   25.0758    1.7991 C   0  0  0  0  0  0  0  0  0  0  0  0
  -11.9836   24.2800    1.2682 N   0  3  0  0  0  0  0  0  0  0  0  0
  -12.4261   23.3449    0.2017 C   0  0  0  0  0  0  0  0  0  0  0  0
  -11.2772   23.5574    2.3821 C   0  0  0  0  0  0  0  0  0  0  0  0
  -15.2641   22.7057    4.4097 C   0  0  0  0  0  0  0  0  0  0  0  0
  -13.7805   22.9533    4.2816 C   0  0  0  0  0  0  0  0  0  0  0  0
  -15.6665   22.0439    5.3532 O   0  0  0  0  0  0  0  0  0  0  0  0
  1  7  1  0  0  0  0
  1  9  1  0  0  0  0
  2  8  1  0  0  0  0
  2 14  1  0  0  0  0
  2 15  1  0  0  0  0
  3  4  2  0  0  0  0
  3  8  1  0  0  0  0
  4  5  1  0  0  0  0
  4 21  1  0  0  0  0
  5  6  2  0  0  0  0
  6  7  1  0  0  0  0
  7  8  2  0  0  0  0
  9 10  2  0  0  0  0
  9 14  1  0  0  0  0
 10 11  1  0  0  0  0
 11 12  2  0  0  0  0
 12 13  1  0  0  0  0
 13 14  2  0  0  0  0
 15 16  1  0  0  0  0
 16 17  1  0  0  0  0
 17 18  1  0  0  0  0
 18 19  1  0  0  0  0
 18 20  1  0  0  0  0
 21 22  1  0  0  0  0
 21 23  2  0  0  0  0
M  CHG  1  18   1
M  END
>  <CHROM.1>
-74.47579548,2.63774950,96.13927242,83.53998862,57.14092623,-16.02659990
25.00043894,1.67158049,2.42249181,0.12014840,-0.70299866

>  <Name>


>  <RI>
0

>  <Rbt.Current_Directory>
/home/itssahil/PROJECTS/Mol_Feturizer/New_Systems/rnas/1lvj

>  <Rbt.Executable>
rbdock ($Id: //depot/dev/client3/rdock/2013.1/src/exe/rbdock.cxx#4 $)

>  <Rbt.Library>
libRbt.so (2013.1, Build901 2013/11/27)

>  <Rbt.Parameter_File>
/export/apps/rDock/src/rDock_2013.1_src/data/scripts/dock_solv.prm

>  <Rbt.Receptor>
prm/blind_docking_60.prm

>  <SCORE>
-37.67

>  <SCORE.INTER>
-36.7338

>  <SCORE.INTER.CONST>
1

>  <SCORE.INTER.POLAR>
-1.18915

>  <SCORE.INTER.ROT>
5

>  <SCORE.INTER.SOLV>
21.1509

>  <SCORE.INTER.VDW>
-34.509

>  <SCORE.INTER.norm>
-1.59712

>  <SCORE.INTRA>
-0.943592

>  <SCORE.INTRA.DIHEDRAL>
-2.29093

>  <SCORE.INTRA.DIHEDRAL.0>
8.06479

>  <SCORE.INTRA.POLAR>
0

>  <SCORE.INTRA.POLAR.0>
0

>  <SCORE.INTRA.REPUL>
0

>  <SCORE.INTRA.REPUL.0>
0

>  <SCORE.INTRA.SOLV>
0.99499

>  <SCORE.INTRA.SOLV.lig_0>
-29.8054

>  <SCORE.INTRA.VDW>
-0.295621

>  <SCORE.INTRA.VDW.0>
2.61447

>  <SCORE.INTRA.norm>
-0.0410257

>  <SCORE.RESTR>
0.00731288

>  <SCORE.RESTR.CAVITY>
0.00731288

>  <SCORE.RESTR.norm>
0.000317951

>  <SCORE.SYSTEM>
0

>  <SCORE.SYSTEM.CONST>
0

>  <SCORE.SYSTEM.DIHEDRAL>
0

>  <SCORE.SYSTEM.SOLV>
0

>  <SCORE.SYSTEM.norm>
0

>  <SCORE.heavy>
23

>  <SCORE.norm>
-1.63783

>  <RMSD>
21.542

$$$$

 OpenBabel11021811403D
libRbt.so/2013.1/901 2013/11/27
 23 25  0  0  0  0  0  0  0  0999 V2000
  -19.1460   25.1256    0.5882 S   0  0  0  0  0  0  0  0  0  0  0  0
  -16.1789   25.3262    0.4283 N   0  0  0  0  0  0  0  0  0  0  0  0
  -15.6906   24.0325    2.4035 C   0  0  0  0  0  0  0  0  0  0  0  0
  -16.1579   23.2860    3.4933 C   0  0  0  0  0  0  0  0  0  0  0  0
  -17.5242   23.1029    3.6830 C   0  0  0  0  0  0  0  0  0  0  0  0
  -18.4300   23.6663    2.7908 C   0  0  0  0  0  0  0  0  0  0  0  0
  -17.9770   24.4122    1.7056 C   0  0  0  0  0  0  0  0  0  0  0  0
  -16.6043   24.6000    1.5043 C   0  0  0  0  0  0  0  0  0  0  0  0
  -18.1970   26.6076    0.4546 C   0  0  0  0  0  0  0  0  0  0  0  0
  -18.8383   27.8490    0.4117 C   0  0  0  0  0  0  0  0  0  0  0  0
  -18.0832   29.0201    0.3007 C   0  0  0  0  0  0  0  0  0  0  0  0
  -16.6884   28.9453    0.2288 C   0  0  0  0  0  0  0  0  0  0  0  0
  -16.0547   27.7029    0.2714 C   0  0  0  0  0  0  0  0  0  0  0  0
  -16.8009   26.5381    0.3860 C   0  0  0  0  0  0  0  0  0  0  0  0
  -14.7752   25.2145   -0.0399 C   0  0  0  0  0  0  0  0  0  0  0  0
  -13.6725   25.8877    0.8437 C   0  0  0  0  0  0  0  0  0  0  0  0
  -12.9642   24.8918    1.8243 C   0  0  0  0  0  0  0  0  0  0  0  0
  -11.8259   24.0970    1.2966 N   0  3  0  0  0  0  0  0  0  0  0  0
  -12.2774   23.1042    0.2876 C   0  0  0  0  0  0  0  0  0  0  0  0
  -11.0712   23.4421    2.4207 C   0  0  0  0  0  0  0  0  0  0  0  0
  -15.1888   22.6805    4.4684 C   0  0  0  0  0  0  0  0  0  0  0  0
  -13.7010   22.9139    4.3653 C   0  0  0  0  0  0  0  0  0  0  0  0
  -15.6141   22.0287    5.4089 O   0  0  0  0  0  0  0  0  0  0  0  0
  1  7  1  0  0  0  0
  1  9  1  0  0  0  0
  2  8  1  0  0  0  0
  2 14  1  0  0  0  0
  2 15  1  0  0  0  0
  3  4  2  0  0  0  0
  3  8  1  0  0  0  0
  4  5  1  0  0  0  0
  4 21  1  0  0  0  0
  5  6  2  0  0  0  0
  6  7  1  0  0  0  0
  7  8  2  0  0  0  0
  9 10  2  0  0  0  0
  9 14  1  0  0  0  0
 10 11  1  0  0  0  0
 11 12  2  0  0  0  0
 12 13  1  0  0  0  0
 13 14  2  0  0  0  0
 15 16  1  0  0  0  0
 16 17  1  0  0  0  0
 17 18  1  0  0  0  0
 18 19  1  0  0  0  0
 18 20  1  0  0  0  0
 21 22  1  0  0  0  0
 21 23  2  0  0  0  0
M  CHG  1  18   1
M  END
>  <CHROM.1>
-72.92232502,3.64274443,96.78294822,84.65081950,51.88129335,-15.86915613
24.93149909,1.67737345,2.40896449,0.13028609,-0.71886261

>  <Name>


>  <RI>
0

>  <Rbt.Current_Directory>
/home/itssahil/PROJECTS/Mol_Feturizer/New_Systems/rnas/1lvj

>  <Rbt.Executable>
rbdock ($Id: //depot/dev/client3/rdock/2013.1/src/exe/rbdock.cxx#4 $)

>  <Rbt.Library>
libRbt.so (2013.1, Build901 2013/11/27)

>  <Rbt.Parameter_File>
/export/apps/rDock/src/rDock_2013.1_src/data/scripts/dock_solv.prm

>  <Rbt.Receptor>
prm/blind_docking_80.prm

>  <SCORE>
-37

>  <SCORE.INTER>
-35.9118

>  <SCORE.INTER.CONST>
1

>  <SCORE.INTER.POLAR>
-1.17469

>  <SCORE.INTER.ROT>
5

>  <SCORE.INTER.SOLV>
20.9563

>  <SCORE.INTER.VDW>
-33.9443

>  <SCORE.INTER.norm>
-1.56138

>  <SCORE.INTRA>
-1.32645

>  <SCORE.INTRA.DIHEDRAL>
-1.86976

>  <SCORE.INTRA.DIHEDRAL.0>
8.06479

>  <SCORE.INTRA.POLAR>
0

>  <SCORE.INTRA.POLAR.0>
0

>  <SCORE.INTRA.REPUL>
0

>  <SCORE.INTRA.REPUL.0>
0

>  <SCORE.INTRA.SOLV>
1.07315

>  <SCORE.INTRA.SOLV.lig_0>
-29.8054

>  <SCORE.INTRA.VDW>
-0.928143

>  <SCORE.INTRA.VDW.0>
2.61447

>  <SCORE.INTRA.norm>
-0.0576717

>  <SCORE.RESTR>
0.238252

>  <SCORE.RESTR.CAVITY>
0.238252

>  <SCORE.RESTR.norm>
0.0103588

>  <SCORE.SYSTEM>
0

>  <SCORE.SYSTEM.CONST>
0

>  <SCORE.SYSTEM.DIHEDRAL>
0

>  <SCORE.SYSTEM.SOLV>
0

>  <SCORE.SYSTEM.norm>
0

>  <SCORE.heavy>
23

>  <SCORE.norm>
-1.60869

>  <RMSD>
21.542

$$$$

 OpenBabel11021811403D
libRbt.so/2013.1/901 2013/11/27
 23 25  0  0  0  0  0  0  0  0999 V2000
  -12.4737   24.8829    1.4828 S   0  0  0  0  0  0  0  0  0  0  0  0
  -15.2002   23.6851    1.4578 N   0  0  0  0  0  0  0  0  0  0  0  0
  -16.3880   25.6737    0.7879 C   0  0  0  0  0  0  0  0  0  0  0  0
  -16.3521   27.0276    0.4290 C   0  0  0  0  0  0  0  0  0  0  0  0
  -15.1400   27.7100    0.3888 C   0  0  0  0  0  0  0  0  0  0  0  0
  -13.9602   27.0478    0.7103 C   0  0  0  0  0  0  0  0  0  0  0  0
  -13.9842   25.7029    1.0708 C   0  0  0  0  0  0  0  0  0  0  0  0
  -15.1981   25.0066    1.1117 C   0  0  0  0  0  0  0  0  0  0  0  0
  -13.2478   24.0006    2.8008 C   0  0  0  0  0  0  0  0  0  0  0  0
  -12.5688   23.8046    4.0070 C   0  0  0  0  0  0  0  0  0  0  0  0
  -13.1836   23.1010    5.0466 C   0  0  0  0  0  0  0  0  0  0  0  0
  -14.4748   22.5916    4.8747 C   0  0  0  0  0  0  0  0  0  0  0  0
  -15.1466   22.7901    3.6679 C   0  0  0  0  0  0  0  0  0  0  0  0
  -14.5411   23.4921    2.6348 C   0  0  0  0  0  0  0  0  0  0  0  0
  -16.3683   22.8300    1.1317 C   0  0  0  0  0  0  0  0  0  0  0  0
  -17.7689   23.5264    1.0750 C   0  0  0  0  0  0  0  0  0  0  0  0
  -18.1853   24.2021    2.4260 C   0  0  0  0  0  0  0  0  0  0  0  0
  -19.0865   25.3807    2.3586 N   0  3  0  0  0  0  0  0  0  0  0  0
  -18.5874   26.4959    3.2039 C   0  0  0  0  0  0  0  0  0  0  0  0
  -20.4930   24.9934    2.7242 C   0  0  0  0  0  0  0  0  0  0  0  0
  -17.6214   27.7552    0.0886 C   0  0  0  0  0  0  0  0  0  0  0  0
  -17.6625   29.2552   -0.0763 C   0  0  0  0  0  0  0  0  0  0  0  0
  -18.6402   27.1163   -0.1209 O   0  0  0  0  0  0  0  0  0  0  0  0
  1  7  1  0  0  0  0
  1  9  1  0  0  0  0
  2  8  1  0  0  0  0
  2 14  1  0  0  0  0
  2 15  1  0  0  0  0
  3  4  2  0  0  0  0
  3  8  1  0  0  0  0
  4  5  1  0  0  0  0
  4 21  1  0  0  0  0
  5  6  2  0  0  0  0
  6  7  1  0  0  0  0
  7  8  2  0  0  0  0
  9 10  2  0  0  0  0
  9 14  1  0  0  0  0
 10 11  1  0  0  0  0
 11 12  2  0  0  0  0
 12 13  1  0  0  0  0
 13 14  2  0  0  0  0
 15 16  1  0  0  0  0
 16 17  1  0  0  0  0
 17 18  1  0  0  0  0
 18 19  1  0  0  0  0
 18 20  1  0  0  0  0
 21 22  1  0  0  0  0
 21 23  2  0  0  0  0
M  CHG  1  18   1
M  END
>  <CHROM.1>
-29.78759338,169.55387412,-59.82056530,151.32598880,-12.36298143,-15.84959294
25.14643349,1.84695080,-0.64940005,0.04146162,-0.65824022

>  <Name>


>  <RI>
0

>  <Rbt.Current_Directory>
/home/itssahil/PROJECTS/Mol_Feturizer/New_Systems/rnas/1lvj

>  <Rbt.Executable>
rbdock ($Id: //depot/dev/client3/rdock/2013.1/src/exe/rbdock.cxx#4 $)

>  <Rbt.Library>
libRbt.so (2013.1, Build901 2013/11/27)

>  <Rbt.Parameter_File>
/export/apps/rDock/src/rDock_2013.1_src/data/scripts/dock_solv.prm

>  <Rbt.Receptor>
prm/blind_docking_80.prm

>  <SCORE>
-19.0025

>  <SCORE.INTER>
-24.4827

>  <SCORE.INTER.CONST>
1

>  <SCORE.INTER.POLAR>
0

>  <SCORE.INTER.ROT>
5

>  <SCORE.INTER.SOLV>
10.5842

>  <SCORE.INTER.VDW>
-26.7832

>  <SCORE.INTER.norm>
-1.06446

>  <SCORE.INTRA>
5.1834

>  <SCORE.INTRA.DIHEDRAL>
-0.0321362

>  <SCORE.INTRA.DIHEDRAL.0>
8.06479

>  <SCORE.INTRA.POLAR>
-0.54037

>  <SCORE.INTRA.POLAR.0>
0

>  <SCORE.INTRA.REPUL>
0

>  <SCORE.INTRA.REPUL.0>
0

>  <SCORE.INTRA.SOLV>
7.11899

>  <SCORE.INTRA.SOLV.lig_0>
-29.8054

>  <SCORE.INTRA.VDW>
3.47723

>  <SCORE.INTRA.VDW.0>
2.61447

>  <SCORE.INTRA.norm>
0.225365

>  <SCORE.RESTR>
0.296795

>  <SCORE.RESTR.CAVITY>
0.296795

>  <SCORE.RESTR.norm>
0.0129041

>  <SCORE.SYSTEM>
0

>  <SCORE.SYSTEM.CONST>
0

>  <SCORE.SYSTEM.DIHEDRAL>
0

>  <SCORE.SYSTEM.SOLV>
0

>  <SCORE.SYSTEM.norm>
0

>  <SCORE.heavy>
23

>  <SCORE.norm>
-0.826195

>  <RMSD>
21.553

$$$$

 OpenBabel11021811403D
libRbt.so/2013.1/901 2013/11/27
 23 25  0  0  0  0  0  0  0  0999 V2000
  -17.0579   29.0037    0.0490 S   0  0  0  0  0  0  0  0  0  0  0  0
  -18.6009   27.0213    1.6484 N   0  0  0  0  0  0  0  0  0  0  0  0
  -16.8334   25.3988    1.8887 C   0  0  0  0  0  0  0  0  0  0  0  0
  -15.5086   25.0226    1.6309 C   0  0  0  0  0  0  0  0  0  0  0  0
  -14.6709   25.8617    0.9024 C   0  0  0  0  0  0  0  0  0  0  0  0
  -15.1509   27.0761    0.4244 C   0  0  0  0  0  0  0  0  0  0  0  0
  -16.4665   27.4592    0.6724 C   0  0  0  0  0  0  0  0  0  0  0  0
  -17.3166   26.6235    1.4066 C   0  0  0  0  0  0  0  0  0  0  0  0
  -18.6199   28.2985   -0.3724 C   0  0  0  0  0  0  0  0  0  0  0  0
  -19.2561   28.6644   -1.5622 C   0  0  0  0  0  0  0  0  0  0  0  0
  -20.4955   28.1073   -1.8897 C   0  0  0  0  0  0  0  0  0  0  0  0
  -21.0970   27.1885   -1.0235 C   0  0  0  0  0  0  0  0  0  0  0  0
  -20.4569   26.8282    0.1628 C   0  0  0  0  0  0  0  0  0  0  0  0
  -19.2239   27.3759    0.4894 C   0  0  0  0  0  0  0  0  0  0  0  0
  -19.3899   26.3801    2.7294 C   0  0  0  0  0  0  0  0  0  0  0  0
  -18.9864   26.7175    4.2036 C   0  0  0  0  0  0  0  0  0  0  0  0
  -20.0472   26.2586    5.2616 C   0  0  0  0  0  0  0  0  0  0  0  0
  -20.1566   24.8043    5.5423 N   0  3  0  0  0  0  0  0  0  0  0  0
  -20.3833   24.0257    4.2973 C   0  0  0  0  0  0  0  0  0  0  0  0
  -21.2282   24.5413    6.5643 C   0  0  0  0  0  0  0  0  0  0  0  0
  -14.9823   23.7089    2.1346 C   0  0  0  0  0  0  0  0  0  0  0  0
  -15.6181   22.9868    3.2978 C   0  0  0  0  0  0  0  0  0  0  0  0
  -14.0508   23.1746    1.5540 O   0  0  0  0  0  0  0  0  0  0  0  0
  1  7  1  0  0  0  0
  1  9  1  0  0  0  0
  2  8  1  0  0  0  0
  2 14  1  0  0  0  0
  2 15  1  0  0  0  0
  3  4  2  0  0  0  0
  3  8  1  0  0  0  0
  4  5  1  0  0  0  0
  4 21  1  0  0  0  0
  5  6  2  0  0  0  0
  6  7  1  0  0  0  0
  7  8  2  0  0  0  0
  9 10  2  0  0  0  0
  9 14  1  0  0  0  0
 10 11  1  0  0  0  0
 11 12  2  0  0  0  0
 12 13  1  0  0  0  0
 13 14  2  0  0  0  0
 15 16  1  0  0  0  0
 16 17  1  0  0  0  0
 17 18  1  0  0  0  0
 18 19  1  0  0  0  0
 18 20  1  0  0  0  0
 21 22  1  0  0  0  0
 21 23  2  0  0  0  0
M  CHG  1  18   1
M  END
>  <CHROM.1>
71.64604463,-22.16354040,167.40955254,73.04171799,65.49449457,-18.03673230
26.28055585,1.75417566,-1.40881521,-0.34105287,2.20406490

>  <Name>


>  <RI>
0

>  <Rbt.Current_Directory>
/home/itssahil/PROJECTS/Mol_Feturizer/New_Systems/rnas/1lvj

>  <Rbt.Executable>
rbdock ($Id: //depot/dev/client3/rdock/2013.1/src/exe/rbdock.cxx#4 $)

>  <Rbt.Library>
libRbt.so (2013.1, Build901 2013/11/27)

>  <Rbt.Parameter_File>
/export/apps/rDock/src/rDock_2013.1_src/data/scripts/dock_solv.prm

>  <Rbt.Receptor>
prm/blind_docking_60.prm

>  <SCORE>
-28.2514

>  <SCORE.INTER>
-25.8478

>  <SCORE.INTER.CONST>
1

>  <SCORE.INTER.POLAR>
-1.23693

>  <SCORE.INTER.ROT>
5

>  <SCORE.INTER.SOLV>
14.6663

>  <SCORE.INTER.VDW>
-24.9308

>  <SCORE.INTER.norm>
-1.12382

>  <SCORE.INTRA>
-2.42394

>  <SCORE.INTRA.DIHEDRAL>
-3.88636

>  <SCORE.INTRA.DIHEDRAL.0>
8.06479

>  <SCORE.INTRA.POLAR>
0

>  <SCORE.INTRA.POLAR.0>
0

>  <SCORE.INTRA.REPUL>
0

>  <SCORE.INTRA.REPUL.0>
0

>  <SCORE.INTRA.SOLV>
0.794415

>  <SCORE.INTRA.SOLV.lig_0>
-29.8054

>  <SCORE.INTRA.VDW>
-0.877964

>  <SCORE.INTRA.VDW.0>
2.61447

>  <SCORE.INTRA.norm>
-0.105389

>  <SCORE.RESTR>
0.0203057

>  <SCORE.RESTR.CAVITY>
0.0203057

>  <SCORE.RESTR.norm>
0.000882859

>  <SCORE.SYSTEM>
0

>  <SCORE.SYSTEM.CONST>
0

>  <SCORE.SYSTEM.DIHEDRAL>
0

>  <SCORE.SYSTEM.SOLV>
0

>  <SCORE.SYSTEM.norm>
0

>  <SCORE.heavy>
23

>  <SCORE.norm>
-1.22832

>  <RMSD>
21.565

$$$$

 OpenBabel11021811403D
libRbt.so/2013.1/901 2013/11/27
 23 25  0  0  0  0  0  0  0  0999 V2000
  -17.9331   23.1335    3.6186 S   0  0  0  0  0  0  0  0  0  0  0  0
  -16.6956   25.2374    1.9123 N   0  0  0  0  0  0  0  0  0  0  0  0
  -14.4057   24.5395    2.2006 C   0  0  0  0  0  0  0  0  0  0  0  0
  -13.4873   23.6458    2.7672 C   0  0  0  0  0  0  0  0  0  0  0  0
  -13.9307   22.6060    3.5788 C   0  0  0  0  0  0  0  0  0  0  0  0
  -15.2897   22.4554    3.8326 C   0  0  0  0  0  0  0  0  0  0  0  0
  -16.2112   23.3391    3.2768 C   0  0  0  0  0  0  0  0  0  0  0  0
  -15.7757   24.3869    2.4567 C   0  0  0  0  0  0  0  0  0  0  0  0
  -18.1697   24.8768    3.7595 C   0  0  0  0  0  0  0  0  0  0  0  0
  -19.0124   25.3921    4.7488 C   0  0  0  0  0  0  0  0  0  0  0  0
  -19.2010   26.7731    4.8538 C   0  0  0  0  0  0  0  0  0  0  0  0
  -18.5489   27.6346    3.9656 C   0  0  0  0  0  0  0  0  0  0  0  0
  -17.7098   27.1136    2.9800 C   0  0  0  0  0  0  0  0  0  0  0  0
  -17.5165   25.7431    2.8754 C   0  0  0  0  0  0  0  0  0  0  0  0
  -16.3321   26.0857    0.7503 C   0  0  0  0  0  0  0  0  0  0  0  0
  -17.5017   26.5869   -0.1612 C   0  0  0  0  0  0  0  0  0  0  0  0
  -17.9722   28.0439    0.1720 C   0  0  0  0  0  0  0  0  0  0  0  0
  -18.8753   28.7154   -0.7972 N   0  3  0  0  0  0  0  0  0  0  0  0
  -19.2536   30.0760   -0.3354 C   0  0  0  0  0  0  0  0  0  0  0  0
  -20.0856   27.8652   -1.0699 C   0  0  0  0  0  0  0  0  0  0  0  0
  -12.0164   23.8045    2.5073 C   0  0  0  0  0  0  0  0  0  0  0  0
  -10.9894   22.9078    3.1553 C   0  0  0  0  0  0  0  0  0  0  0  0
  -11.6371   24.6417    1.7039 O   0  0  0  0  0  0  0  0  0  0  0  0
  1  7  1  0  0  0  0
  1  9  1  0  0  0  0
  2  8  1  0  0  0  0
  2 14  1  0  0  0  0
  2 15  1  0  0  0  0
  3  4  2  0  0  0  0
  3  8  1  0  0  0  0
  4  5  1  0  0  0  0
  4 21  1  0  0  0  0
  5  6  2  0  0  0  0
  6  7  1  0  0  0  0
  7  8  2  0  0  0  0
  9 10  2  0  0  0  0
  9 14  1  0  0  0  0
 10 11  1  0  0  0  0
 11 12  2  0  0  0  0
 12 13  1  0  0  0  0
 13 14  2  0  0  0  0
 15 16  1  0  0  0  0
 16 17  1  0  0  0  0
 17 18  1  0  0  0  0
 18 19  1  0  0  0  0
 18 20  1  0  0  0  0
 21 22  1  0  0  0  0
 21 23  2  0  0  0  0
M  CHG  1  18   1
M  END
>  <CHROM.1>
156.48010329,176.77289351,97.73296652,167.85528554,-61.05215870,-16.54508187
25.39995759,2.28013152,0.67934223,-0.33914560,2.29193460

>  <Name>


>  <RI>
0

>  <Rbt.Current_Directory>
/home/itssahil/PROJECTS/Mol_Feturizer/New_Systems/rnas/1lvj

>  <Rbt.Executable>
rbdock ($Id: //depot/dev/client3/rdock/2013.1/src/exe/rbdock.cxx#4 $)

>  <Rbt.Library>
libRbt.so (2013.1, Build901 2013/11/27)

>  <Rbt.Parameter_File>
/export/apps/rDock/src/rDock_2013.1_src/data/scripts/dock_solv.prm

>  <Rbt.Receptor>
prm/blind_docking_60.prm

>  <SCORE>
-32.1296

>  <SCORE.INTER>
-29.6914

>  <SCORE.INTER.CONST>
1

>  <SCORE.INTER.POLAR>
-1.54224

>  <SCORE.INTER.ROT>
5

>  <SCORE.INTER.SOLV>
18.1975

>  <SCORE.INTER.VDW>
-27.6526

>  <SCORE.INTER.norm>
-1.29093

>  <SCORE.INTRA>
-2.49206

>  <SCORE.INTRA.DIHEDRAL>
-3.14654

>  <SCORE.INTRA.DIHEDRAL.0>
8.06479

>  <SCORE.INTRA.POLAR>
0

>  <SCORE.INTRA.POLAR.0>
0

>  <SCORE.INTRA.REPUL>
0

>  <SCORE.INTRA.REPUL.0>
0

>  <SCORE.INTRA.SOLV>
0.4038

>  <SCORE.INTRA.SOLV.lig_0>
-29.8054

>  <SCORE.INTRA.VDW>
-1.12069

>  <SCORE.INTRA.VDW.0>
2.61447

>  <SCORE.INTRA.norm>
-0.108351

>  <SCORE.RESTR>
0.053836

>  <SCORE.RESTR.CAVITY>
0.053836

>  <SCORE.RESTR.norm>
0.00234069

>  <SCORE.SYSTEM>
0

>  <SCORE.SYSTEM.CONST>
0

>  <SCORE.SYSTEM.DIHEDRAL>
0

>  <SCORE.SYSTEM.SOLV>
0

>  <SCORE.SYSTEM.norm>
0

>  <SCORE.heavy>
23

>  <SCORE.norm>
-1.39694

>  <RMSD>
21.623

$$$$

 OpenBabel11021811403D
libRbt.so/2013.1/901 2013/11/27
 23 25  0  0  0  0  0  0  0  0999 V2000
  -17.9536   23.1797    3.6113 S   0  0  0  0  0  0  0  0  0  0  0  0
  -16.6559   25.2570    1.9171 N   0  0  0  0  0  0  0  0  0  0  0  0
  -14.3796   24.5462    2.2737 C   0  0  0  0  0  0  0  0  0  0  0  0
  -13.4831   23.6521    2.8739 C   0  0  0  0  0  0  0  0  0  0  0  0
  -13.9556   22.6239    3.6839 C   0  0  0  0  0  0  0  0  0  0  0  0
  -15.3218   22.4854    3.9028 C   0  0  0  0  0  0  0  0  0  0  0  0
  -16.2218   23.3697    3.3135 C   0  0  0  0  0  0  0  0  0  0  0  0
  -15.7569   24.4058    2.4946 C   0  0  0  0  0  0  0  0  0  0  0  0
  -18.1813   24.9260    3.7278 C   0  0  0  0  0  0  0  0  0  0  0  0
  -19.0463   25.4574    4.6889 C   0  0  0  0  0  0  0  0  0  0  0  0
  -19.2276   26.8408    4.7746 C   0  0  0  0  0  0  0  0  0  0  0  0
  -18.5459   27.6884    3.8954 C   0  0  0  0  0  0  0  0  0  0  0  0
  -17.6845   27.1513    2.9380 C   0  0  0  0  0  0  0  0  0  0  0  0
  -17.4985   25.7784    2.8527 C   0  0  0  0  0  0  0  0  0  0  0  0
  -16.2553   26.0905    0.7566 C   0  0  0  0  0  0  0  0  0  0  0  0
  -17.3977   26.5999   -0.1844 C   0  0  0  0  0  0  0  0  0  0  0  0
  -17.8883   28.0483    0.1570 C   0  0  0  0  0  0  0  0  0  0  0  0
  -18.8369   28.6950   -0.7852 N   0  3  0  0  0  0  0  0  0  0  0  0
  -19.2464   30.0406   -0.3066 C   0  0  0  0  0  0  0  0  0  0  0  0
  -20.0261   27.8078   -1.0316 C   0  0  0  0  0  0  0  0  0  0  0  0
  -12.0047   23.7978    2.6517 C   0  0  0  0  0  0  0  0  0  0  0  0
  -11.0004   22.9205    3.3590 C   0  0  0  0  0  0  0  0  0  0  0  0
  -11.5990   24.6065    1.8322 O   0  0  0  0  0  0  0  0  0  0  0  0
  1  7  1  0  0  0  0
  1  9  1  0  0  0  0
  2  8  1  0  0  0  0
  2 14  1  0  0  0  0
  2 15  1  0  0  0  0
  3  4  2  0  0  0  0
  3  8  1  0  0  0  0
  4  5  1  0  0  0  0
  4 21  1  0  0  0  0
  5  6  2  0  0  0  0
  6  7  1  0  0  0  0
  7  8  2  0  0  0  0
  9 10  2  0  0  0  0
  9 14  1  0  0  0  0
 10 11  1  0  0  0  0
 11 12  2  0  0  0  0
 12 13  1  0  0  0  0
 13 14  2  0  0  0  0
 15 16  1  0  0  0  0
 16 17  1  0  0  0  0
 17 18  1  0  0  0  0
 18 19  1  0  0  0  0
 18 20  1  0  0  0  0
 21 22  1  0  0  0  0
 21 23  2  0  0  0  0
M  CHG  1  18   1
M  END
>  <CHROM.1>
156.95712919,175.42083412,95.81022897,171.90958451,-61.98368927,-16.52934505
25.41598316,2.30730070,0.68731541,-0.32507760,2.29459768

>  <Name>


>  <RI>
0

>  <Rbt.Current_Directory>
/home/itssahil/PROJECTS/Mol_Feturizer/New_Systems/rnas/1lvj

>  <Rbt.Executable>
rbdock ($Id: //depot/dev/client3/rdock/2013.1/src/exe/rbdock.cxx#4 $)

>  <Rbt.Library>
libRbt.so (2013.1, Build901 2013/11/27)

>  <Rbt.Parameter_File>
/export/apps/rDock/src/rDock_2013.1_src/data/scripts/dock_solv.prm

>  <Rbt.Receptor>
prm/blind_docking_60.prm

>  <SCORE>
-32.3226

>  <SCORE.INTER>
-29.8785

>  <SCORE.INTER.CONST>
1

>  <SCORE.INTER.POLAR>
-1.55881

>  <SCORE.INTER.ROT>
5

>  <SCORE.INTER.SOLV>
18.3368

>  <SCORE.INTER.VDW>
-27.7686

>  <SCORE.INTER.norm>
-1.29907

>  <SCORE.INTRA>
-2.54815

>  <SCORE.INTRA.DIHEDRAL>
-3.64537

>  <SCORE.INTRA.DIHEDRAL.0>
8.06479

>  <SCORE.INTRA.POLAR>
0

>  <SCORE.INTRA.POLAR.0>
0

>  <SCORE.INTRA.REPUL>
0

>  <SCORE.INTRA.REPUL.0>
0

>  <SCORE.INTRA.SOLV>
0.369626

>  <SCORE.INTRA.SOLV.lig_0>
-29.8054

>  <SCORE.INTRA.VDW>
-0.910274

>  <SCORE.INTRA.VDW.0>
2.61447

>  <SCORE.INTRA.norm>
-0.110789

>  <SCORE.RESTR>
0.104087

>  <SCORE.RESTR.CAVITY>
0.104087

>  <SCORE.RESTR.norm>
0.00452552

>  <SCORE.SYSTEM>
0

>  <SCORE.SYSTEM.CONST>
0

>  <SCORE.SYSTEM.DIHEDRAL>
0

>  <SCORE.SYSTEM.SOLV>
0

>  <SCORE.SYSTEM.norm>
0

>  <SCORE.heavy>
23

>  <SCORE.norm>
-1.40533

>  <RMSD>
21.630

$$$$

 OpenBabel11021811403D
libRbt.so/2013.1/901 2013/11/27
 23 25  0  0  0  0  0  0  0  0999 V2000
  -19.9908   26.5286   -0.4427 S   0  0  0  0  0  0  0  0  0  0  0  0
  -17.0949   26.0077    0.0171 N   0  0  0  0  0  0  0  0  0  0  0  0
  -17.3600   24.5044    1.8836 C   0  0  0  0  0  0  0  0  0  0  0  0
  -18.2127   23.8236    2.7625 C   0  0  0  0  0  0  0  0  0  0  0  0
  -19.5925   23.9680    2.6530 C   0  0  0  0  0  0  0  0  0  0  0  0
  -20.1275   24.7943    1.6708 C   0  0  0  0  0  0  0  0  0  0  0  0
  -19.2895   25.4777    0.7933 C   0  0  0  0  0  0  0  0  0  0  0  0
  -17.9002   25.3371    0.8934 C   0  0  0  0  0  0  0  0  0  0  0  0
  -18.7278   27.7390   -0.2088 C   0  0  0  0  0  0  0  0  0  0  0  0
  -19.0480   29.0996   -0.2322 C   0  0  0  0  0  0  0  0  0  0  0  0
  -18.0439   30.0551   -0.0515 C   0  0  0  0  0  0  0  0  0  0  0  0
  -16.7212   29.6464    0.1479 C   0  0  0  0  0  0  0  0  0  0  0  0
  -16.4084   28.2868    0.1693 C   0  0  0  0  0  0  0  0  0  0  0  0
  -17.4035   27.3348   -0.0053 C   0  0  0  0  0  0  0  0  0  0  0  0
  -15.6842   25.5875   -0.1716 C   0  0  0  0  0  0  0  0  0  0  0  0
  -14.7175   25.7657    1.0465 C   0  0  0  0  0  0  0  0  0  0  0  0
  -13.3332   25.0574    0.8535 C   0  0  0  0  0  0  0  0  0  0  0  0
  -13.3370   23.5945    0.5971 N   0  3  0  0  0  0  0  0  0  0  0  0
  -14.1415   22.8666    1.6122 C   0  0  0  0  0  0  0  0  0  0  0  0
  -11.9308   23.0666    0.5206 C   0  0  0  0  0  0  0  0  0  0  0  0
  -17.6454   22.9355    3.8330 C   0  0  0  0  0  0  0  0  0  0  0  0
  -16.1577   22.7693    4.0276 C   0  0  0  0  0  0  0  0  0  0  0  0
  -18.4023   22.3756    4.6100 O   0  0  0  0  0  0  0  0  0  0  0  0
  1  7  1  0  0  0  0
  1  9  1  0  0  0  0
  2  8  1  0  0  0  0
  2 14  1  0  0  0  0
  2 15  1  0  0  0  0
  3  4  2  0  0  0  0
  3  8  1  0  0  0  0
  4  5  1  0  0  0  0
  4 21  1  0  0  0  0
  5  6  2  0  0  0  0
  6  7  1  0  0  0  0
  7  8  2  0  0  0  0
  9 10  2  0  0  0  0
  9 14  1  0  0  0  0
 10 11  1  0  0  0  0
 11 12  2  0  0  0  0
 12 13  1  0  0  0  0
 13 14  2  0  0  0  0
 15 16  1  0  0  0  0
 16 17  1  0  0  0  0
 17 18  1  0  0  0  0
 18 19  1  0  0  0  0
 18 20  1  0  0  0  0
 21 22  1  0  0  0  0
 21 23  2  0  0  0  0
M  CHG  1  18   1
M  END
>  <CHROM.1>
-66.34527861,1.60215958,169.18698391,-57.79835871,68.28037742,-17.07814313
25.47837896,1.10812766,2.22606370,0.19770844,-0.58015709

>  <Name>


>  <RI>
0

>  <Rbt.Current_Directory>
/home/itssahil/PROJECTS/Mol_Feturizer/New_Systems/rnas/1lvj

>  <Rbt.Executable>
rbdock ($Id: //depot/dev/client3/rdock/2013.1/src/exe/rbdock.cxx#4 $)

>  <Rbt.Library>
libRbt.so (2013.1, Build901 2013/11/27)

>  <Rbt.Parameter_File>
/export/apps/rDock/src/rDock_2013.1_src/data/scripts/dock_solv.prm

>  <Rbt.Receptor>
prm/blind_docking_40.prm

>  <SCORE>
-34.6481

>  <SCORE.INTER>
-31.6523

>  <SCORE.INTER.CONST>
1

>  <SCORE.INTER.POLAR>
-1.69512

>  <SCORE.INTER.ROT>
5

>  <SCORE.INTER.SOLV>
16.5811

>  <SCORE.INTER.VDW>
-27.9115

>  <SCORE.INTER.norm>
-1.37619

>  <SCORE.INTRA>
-3.39619

>  <SCORE.INTRA.DIHEDRAL>
-7.24035

>  <SCORE.INTRA.DIHEDRAL.0>
8.06479

>  <SCORE.INTRA.POLAR>
0

>  <SCORE.INTRA.POLAR.0>
0

>  <SCORE.INTRA.REPUL>
0

>  <SCORE.INTRA.REPUL.0>
0

>  <SCORE.INTRA.SOLV>
1.76337

>  <SCORE.INTRA.SOLV.lig_0>
-29.8054

>  <SCORE.INTRA.VDW>
-0.657702

>  <SCORE.INTRA.VDW.0>
2.61447

>  <SCORE.INTRA.norm>
-0.14766

>  <SCORE.RESTR>
0.400381

>  <SCORE.RESTR.CAVITY>
0.400381

>  <SCORE.RESTR.norm>
0.0174079

>  <SCORE.SYSTEM>
0

>  <SCORE.SYSTEM.CONST>
0

>  <SCORE.SYSTEM.DIHEDRAL>
0

>  <SCORE.SYSTEM.SOLV>
0

>  <SCORE.SYSTEM.norm>
0

>  <SCORE.heavy>
23

>  <SCORE.norm>
-1.50644

>  <RMSD>
21.678

$$$$

 OpenBabel11021811403D
libRbt.so/2013.1/901 2013/11/27
 23 25  0  0  0  0  0  0  0  0999 V2000
  -19.1827   23.0172    3.2399 S   0  0  0  0  0  0  0  0  0  0  0  0
  -18.9749   25.7589    2.0959 N   0  0  0  0  0  0  0  0  0  0  0  0
  -16.7171   25.5628    1.2727 C   0  0  0  0  0  0  0  0  0  0  0  0
  -15.5651   24.7826    1.1072 C   0  0  0  0  0  0  0  0  0  0  0  0
  -15.5289   23.4762    1.5853 C   0  0  0  0  0  0  0  0  0  0  0  0
  -16.6380   22.9440    2.2338 C   0  0  0  0  0  0  0  0  0  0  0  0
  -17.7874   23.7111    2.4061 C   0  0  0  0  0  0  0  0  0  0  0  0
  -17.8350   25.0255    1.9264 C   0  0  0  0  0  0  0  0  0  0  0  0
  -19.5055   24.5354    4.0800 C   0  0  0  0  0  0  0  0  0  0  0  0
  -19.9058   24.5240    5.4193 C   0  0  0  0  0  0  0  0  0  0  0  0
  -20.1653   25.7284    6.0795 C   0  0  0  0  0  0  0  0  0  0  0  0
  -20.0275   26.9410    5.3962 C   0  0  0  0  0  0  0  0  0  0  0  0
  -19.6283   26.9452    4.0592 C   0  0  0  0  0  0  0  0  0  0  0  0
  -19.3655   25.7514    3.4014 C   0  0  0  0  0  0  0  0  0  0  0  0
  -19.2107   26.9725    1.2750 C   0  0  0  0  0  0  0  0  0  0  0  0
  -19.6502   26.7545   -0.2113 C   0  0  0  0  0  0  0  0  0  0  0  0
  -19.4335   28.0143   -1.1175 C   0  0  0  0  0  0  0  0  0  0  0  0
  -19.4962   29.3490   -0.4690 N   0  3  0  0  0  0  0  0  0  0  0  0
  -19.9152   30.4015   -1.4304 C   0  0  0  0  0  0  0  0  0  0  0  0
  -18.1826   29.6835    0.1825 C   0  0  0  0  0  0  0  0  0  0  0  0
  -14.3581   25.3503    0.4163 C   0  0  0  0  0  0  0  0  0  0  0  0
  -13.2259   24.4741   -0.0623 C   0  0  0  0  0  0  0  0  0  0  0  0
  -14.3118   26.5466    0.1782 O   0  0  0  0  0  0  0  0  0  0  0  0
  1  7  1  0  0  0  0
  1  9  1  0  0  0  0
  2  8  1  0  0  0  0
  2 14  1  0  0  0  0
  2 15  1  0  0  0  0
  3  4  2  0  0  0  0
  3  8  1  0  0  0  0
  4  5  1  0  0  0  0
  4 21  1  0  0  0  0
  5  6  2  0  0  0  0
  6  7  1  0  0  0  0
  7  8  2  0  0  0  0
  9 10  2  0  0  0  0
  9 14  1  0  0  0  0
 10 11  1  0  0  0  0
 11 12  2  0  0  0  0
 12 13  1  0  0  0  0
 13 14  2  0  0  0  0
 15 16  1  0  0  0  0
 16 17  1  0  0  0  0
 17 18  1  0  0  0  0
 18 19  1  0  0  0  0
 18 20  1  0  0  0  0
 21 22  1  0  0  0  0
 21 23  2  0  0  0  0
M  CHG  1  18   1
M  END
>  <CHROM.1>
75.88294174,-165.83908827,-161.42194930,-28.67265056,-33.08976664,-18.08138103
25.85453656,1.85861351,-1.73117641,0.55664736,-0.74752598

>  <Name>


>  <RI>
0

>  <Rbt.Current_Directory>
/home/itssahil/PROJECTS/Mol_Feturizer/New_Systems/rnas/1lvj

>  <Rbt.Executable>
rbdock ($Id: //depot/dev/client3/rdock/2013.1/src/exe/rbdock.cxx#4 $)

>  <Rbt.Library>
libRbt.so (2013.1, Build901 2013/11/27)

>  <Rbt.Parameter_File>
/export/apps/rDock/src/rDock_2013.1_src/data/scripts/dock_solv.prm

>  <Rbt.Receptor>
prm/blind_docking_60.prm

>  <SCORE>
-19.9262

>  <SCORE.INTER>
-19.6881

>  <SCORE.INTER.CONST>
1

>  <SCORE.INTER.POLAR>
0

>  <SCORE.INTER.ROT>
5

>  <SCORE.INTER.SOLV>
7.90068

>  <SCORE.INTER.VDW>
-22.6923

>  <SCORE.INTER.norm>
-0.856004

>  <SCORE.INTRA>
-1.12102

>  <SCORE.INTRA.DIHEDRAL>
-0.863702

>  <SCORE.INTRA.DIHEDRAL.0>
8.06479

>  <SCORE.INTRA.POLAR>
0

>  <SCORE.INTRA.POLAR.0>
0

>  <SCORE.INTRA.REPUL>
0

>  <SCORE.INTRA.REPUL.0>
0

>  <SCORE.INTRA.SOLV>
2.27006

>  <SCORE.INTRA.SOLV.lig_0>
-29.8054

>  <SCORE.INTRA.VDW>
-1.8242

>  <SCORE.INTRA.VDW.0>
2.61447

>  <SCORE.INTRA.norm>
-0.0487401

>  <SCORE.RESTR>
0.882934

>  <SCORE.RESTR.CAVITY>
0.882934

>  <SCORE.RESTR.norm>
0.0383884

>  <SCORE.SYSTEM>
0

>  <SCORE.SYSTEM.CONST>
0

>  <SCORE.SYSTEM.DIHEDRAL>
0

>  <SCORE.SYSTEM.SOLV>
0

>  <SCORE.SYSTEM.norm>
0

>  <SCORE.heavy>
23

>  <SCORE.norm>
-0.866356

>  <RMSD>
21.714

$$$$

 OpenBabel11021811403D
libRbt.so/2013.1/901 2013/11/27
 23 25  0  0  0  0  0  0  0  0999 V2000
  -18.3587   23.1550    3.6167 S   0  0  0  0  0  0  0  0  0  0  0  0
  -17.9137   25.3940    1.7041 N   0  0  0  0  0  0  0  0  0  0  0  0
  -15.6372   24.8426    1.1317 C   0  0  0  0  0  0  0  0  0  0  0  0
  -14.5333   23.9943    1.2899 C   0  0  0  0  0  0  0  0  0  0  0  0
  -14.6074   22.9001    2.1465 C   0  0  0  0  0  0  0  0  0  0  0  0
  -15.7793   22.6497    2.8520 C   0  0  0  0  0  0  0  0  0  0  0  0
  -16.8818   23.4876    2.7046 C   0  0  0  0  0  0  0  0  0  0  0  0
  -16.8184   24.5894    1.8432 C   0  0  0  0  0  0  0  0  0  0  0  0
  -18.6191   24.8726    3.9280 C   0  0  0  0  0  0  0  0  0  0  0  0
  -19.0829   25.2962    5.1769 C   0  0  0  0  0  0  0  0  0  0  0  0
  -19.2926   26.6571    5.4176 C   0  0  0  0  0  0  0  0  0  0  0  0
  -19.0416   27.5901    4.4063 C   0  0  0  0  0  0  0  0  0  0  0  0
  -18.5795   27.1604    3.1618 C   0  0  0  0  0  0  0  0  0  0  0  0
  -18.3659   25.8103    2.9203 C   0  0  0  0  0  0  0  0  0  0  0  0
  -18.0283   26.3036    0.5372 C   0  0  0  0  0  0  0  0  0  0  0  0
  -19.4716   26.6420    0.0352 C   0  0  0  0  0  0  0  0  0  0  0  0
  -19.5254   27.8836   -0.9192 C   0  0  0  0  0  0  0  0  0  0  0  0
  -19.5136   29.2323   -0.2972 N   0  3  0  0  0  0  0  0  0  0  0  0
  -19.9668   30.2758   -1.2529 C   0  0  0  0  0  0  0  0  0  0  0  0
  -18.1532   29.5454    0.2625 C   0  0  0  0  0  0  0  0  0  0  0  0
  -13.2594   24.2604    0.5397 C   0  0  0  0  0  0  0  0  0  0  0  0
  -11.9640   23.5721    0.8958 C   0  0  0  0  0  0  0  0  0  0  0  0
  -13.2775   25.0085   -0.4248 O   0  0  0  0  0  0  0  0  0  0  0  0
  1  7  1  0  0  0  0
  1  9  1  0  0  0  0
  2  8  1  0  0  0  0
  2 14  1  0  0  0  0
  2 15  1  0  0  0  0
  3  4  2  0  0  0  0
  3  8  1  0  0  0  0
  4  5  1  0  0  0  0
  4 21  1  0  0  0  0
  5  6  2  0  0  0  0
  6  7  1  0  0  0  0
  7  8  2  0  0  0  0
  9 10  2  0  0  0  0
  9 14  1  0  0  0  0
 10 11  1  0  0  0  0
 11 12  2  0  0  0  0
 12 13  1  0  0  0  0
 13 14  2  0  0  0  0
 15 16  1  0  0  0  0
 16 17  1  0  0  0  0
 17 18  1  0  0  0  0
 18 19  1  0  0  0  0
 18 20  1  0  0  0  0
 21 22  1  0  0  0  0
 21 23  2  0  0  0  0
M  CHG  1  18   1
M  END
>  <CHROM.1>
150.57769774,166.31220853,164.23722201,-80.78069405,-43.16227202,-17.31431919
25.63962326,1.82675234,0.60099740,-0.56157842,2.28635271

>  <Name>


>  <RI>
0

>  <Rbt.Current_Directory>
/home/itssahil/PROJECTS/Mol_Feturizer/New_Systems/rnas/1lvj

>  <Rbt.Executable>
rbdock ($Id: //depot/dev/client3/rdock/2013.1/src/exe/rbdock.cxx#4 $)

>  <Rbt.Library>
libRbt.so (2013.1, Build901 2013/11/27)

>  <Rbt.Parameter_File>
/export/apps/rDock/src/rDock_2013.1_src/data/scripts/dock_solv.prm

>  <Rbt.Receptor>
prm/blind_docking_60.prm

>  <SCORE>
-26.7877

>  <SCORE.INTER>
-23.3204

>  <SCORE.INTER.CONST>
1

>  <SCORE.INTER.POLAR>
0

>  <SCORE.INTER.ROT>
5

>  <SCORE.INTER.SOLV>
8.74077

>  <SCORE.INTER.VDW>
-25.3939

>  <SCORE.INTER.norm>
-1.01393

>  <SCORE.INTRA>
-3.54085

>  <SCORE.INTRA.DIHEDRAL>
-3.63153

>  <SCORE.INTRA.DIHEDRAL.0>
8.06479

>  <SCORE.INTRA.POLAR>
0

>  <SCORE.INTRA.POLAR.0>
0

>  <SCORE.INTRA.REPUL>
0

>  <SCORE.INTRA.REPUL.0>
0

>  <SCORE.INTRA.SOLV>
1.65872

>  <SCORE.INTRA.SOLV.lig_0>
-29.8054

>  <SCORE.INTRA.VDW>
-2.55445

>  <SCORE.INTRA.VDW.0>
2.61447

>  <SCORE.INTRA.norm>
-0.15395

>  <SCORE.RESTR>
0.073586

>  <SCORE.RESTR.CAVITY>
0.073586

>  <SCORE.RESTR.norm>
0.00319939

>  <SCORE.SYSTEM>
0

>  <SCORE.SYSTEM.CONST>
0

>  <SCORE.SYSTEM.DIHEDRAL>
0

>  <SCORE.SYSTEM.SOLV>
0

>  <SCORE.SYSTEM.norm>
0

>  <SCORE.heavy>
23

>  <SCORE.norm>
-1.16468

>  <RMSD>
21.743

$$$$

 OpenBabel11021811403D
libRbt.so/2013.1/901 2013/11/27
 23 25  0  0  0  0  0  0  0  0999 V2000
  -20.0279   26.5607   -0.4527 S   0  0  0  0  0  0  0  0  0  0  0  0
  -17.1311   26.0216   -0.0202 N   0  0  0  0  0  0  0  0  0  0  0  0
  -17.3885   24.5155    1.8452 C   0  0  0  0  0  0  0  0  0  0  0  0
  -18.2373   23.8378    2.7303 C   0  0  0  0  0  0  0  0  0  0  0  0
  -19.6170   23.9906    2.6334 C   0  0  0  0  0  0  0  0  0  0  0  0
  -20.1560   24.8223    1.6580 C   0  0  0  0  0  0  0  0  0  0  0  0
  -19.3218   25.5028    0.7746 C   0  0  0  0  0  0  0  0  0  0  0  0
  -17.9325   25.3538    0.8618 C   0  0  0  0  0  0  0  0  0  0  0  0
  -18.7557   27.7631   -0.2275 C   0  0  0  0  0  0  0  0  0  0  0  0
  -19.0680   29.1256   -0.2449 C   0  0  0  0  0  0  0  0  0  0  0  0
  -18.0567   30.0747   -0.0711 C   0  0  0  0  0  0  0  0  0  0  0  0
  -16.7347   29.6577    0.1155 C   0  0  0  0  0  0  0  0  0  0  0  0
  -16.4298   28.2962    0.1310 C   0  0  0  0  0  0  0  0  0  0  0  0
  -17.4320   27.3506   -0.0368 C   0  0  0  0  0  0  0  0  0  0  0  0
  -15.7247   25.5935   -0.2224 C   0  0  0  0  0  0  0  0  0  0  0  0
  -14.7066   25.9251    0.9192 C   0  0  0  0  0  0  0  0  0  0  0  0
  -13.3313   25.1909    0.7618 C   0  0  0  0  0  0  0  0  0  0  0  0
  -13.2613   23.7638    1.1671 N   0  3  0  0  0  0  0  0  0  0  0  0
  -13.1130   23.6231    2.6388 C   0  0  0  0  0  0  0  0  0  0  0  0
  -12.1585   23.0569    0.4280 C   0  0  0  0  0  0  0  0  0  0  0  0
  -17.6657   22.9439    3.7936 C   0  0  0  0  0  0  0  0  0  0  0  0
  -16.1774   22.7629    3.9698 C   0  0  0  0  0  0  0  0  0  0  0  0
  -18.4185   22.3913    4.5798 O   0  0  0  0  0  0  0  0  0  0  0  0
  1  7  1  0  0  0  0
  1  9  1  0  0  0  0
  2  8  1  0  0  0  0
  2 14  1  0  0  0  0
  2 15  1  0  0  0  0
  3  4  2  0  0  0  0
  3  8  1  0  0  0  0
  4  5  1  0  0  0  0
  4 21  1  0  0  0  0
  5  6  2  0  0  0  0
  6  7  1  0  0  0  0
  7  8  2  0  0  0  0
  9 10  2  0  0  0  0
  9 14  1  0  0  0  0
 10 11  1  0  0  0  0
 11 12  2  0  0  0  0
 12 13  1  0  0  0  0
 13 14  2  0  0  0  0
 15 16  1  0  0  0  0
 16 17  1  0  0  0  0
 17 18  1  0  0  0  0
 18 19  1  0  0  0  0
 18 20  1  0  0  0  0
 21 22  1  0  0  0  0
 21 23  2  0  0  0  0
M  CHG  1  18   1
M  END
>  <CHROM.1>
-73.75960437,1.27939741,168.18814743,-78.73362920,39.57392113,-17.05937592
25.54546095,1.14760440,2.26245480,0.13659671,-0.59552908

>  <Name>


>  <RI>
0

>  <Rbt.Current_Directory>
/home/itssahil/PROJECTS/Mol_Feturizer/New_Systems/rnas/1lvj

>  <Rbt.Executable>
rbdock ($Id: //depot/dev/client3/rdock/2013.1/src/exe/rbdock.cxx#4 $)

>  <Rbt.Library>
libRbt.so (2013.1, Build901 2013/11/27)

>  <Rbt.Parameter_File>
/export/apps/rDock/src/rDock_2013.1_src/data/scripts/dock_solv.prm

>  <Rbt.Receptor>
prm/blind_docking_40.prm

>  <SCORE>
-28.6593

>  <SCORE.INTER>
-25.5841

>  <SCORE.INTER.CONST>
1

>  <SCORE.INTER.POLAR>
-0.115189

>  <SCORE.INTER.ROT>
5

>  <SCORE.INTER.SOLV>
14.0079

>  <SCORE.INTER.VDW>
-28.2748

>  <SCORE.INTER.norm>
-1.11235

>  <SCORE.INTRA>
-3.53991

>  <SCORE.INTRA.DIHEDRAL>
-5.02647

>  <SCORE.INTRA.DIHEDRAL.0>
8.06479

>  <SCORE.INTRA.POLAR>
0

>  <SCORE.INTRA.POLAR.0>
0

>  <SCORE.INTRA.REPUL>
0

>  <SCORE.INTRA.REPUL.0>
0

>  <SCORE.INTRA.SOLV>
3.00196

>  <SCORE.INTRA.SOLV.lig_0>
-29.8054

>  <SCORE.INTRA.VDW>
-2.52766

>  <SCORE.INTRA.VDW.0>
2.61447

>  <SCORE.INTRA.norm>
-0.153909

>  <SCORE.RESTR>
0.464745

>  <SCORE.RESTR.CAVITY>
0.464745

>  <SCORE.RESTR.norm>
0.0202063

>  <SCORE.SYSTEM>
0

>  <SCORE.SYSTEM.CONST>
0

>  <SCORE.SYSTEM.DIHEDRAL>
0

>  <SCORE.SYSTEM.SOLV>
0

>  <SCORE.SYSTEM.norm>
0

>  <SCORE.heavy>
23

>  <SCORE.norm>
-1.24606

>  <RMSD>
21.750

$$$$

 OpenBabel11021811403D
libRbt.so/2013.1/901 2013/11/27
 23 25  0  0  0  0  0  0  0  0999 V2000
  -20.7330   25.9182   -0.4935 S   0  0  0  0  0  0  0  0  0  0  0  0
  -18.3242   27.1613    0.7400 N   0  0  0  0  0  0  0  0  0  0  0  0
  -18.7790   26.4914    3.0113 C   0  0  0  0  0  0  0  0  0  0  0  0
  -19.6092   25.8221    3.9201 C   0  0  0  0  0  0  0  0  0  0  0  0
  -20.7649   25.1864    3.4766 C   0  0  0  0  0  0  0  0  0  0  0  0
  -21.1002   25.2188    2.1274 C   0  0  0  0  0  0  0  0  0  0  0  0
  -20.2839   25.8832    1.2156 C   0  0  0  0  0  0  0  0  0  0  0  0
  -19.1176   26.5236    1.6511 C   0  0  0  0  0  0  0  0  0  0  0  0
  -20.2185   27.5991   -0.6511 C   0  0  0  0  0  0  0  0  0  0  0  0
  -20.9694   28.4928   -1.4203 C   0  0  0  0  0  0  0  0  0  0  0  0
  -20.5557   29.8220   -1.5466 C   0  0  0  0  0  0  0  0  0  0  0  0
  -19.3890   30.2521   -0.9062 C   0  0  0  0  0  0  0  0  0  0  0  0
  -18.6438   29.3547   -0.1406 C   0  0  0  0  0  0  0  0  0  0  0  0
  -19.0538   28.0351   -0.0091 C   0  0  0  0  0  0  0  0  0  0  0  0
  -16.9180   27.4937    1.0781 C   0  0  0  0  0  0  0  0  0  0  0  0
  -15.7968   26.7102    0.3172 C   0  0  0  0  0  0  0  0  0  0  0  0
  -15.8470   25.1620    0.5536 C   0  0  0  0  0  0  0  0  0  0  0  0
  -15.1748   24.6274    1.7652 N   0  3  0  0  0  0  0  0  0  0  0  0
  -13.7093   24.4940    1.5600 C   0  0  0  0  0  0  0  0  0  0  0  0
  -15.7975   23.3242    2.1847 C   0  0  0  0  0  0  0  0  0  0  0  0
  -19.2616   25.7884    5.3811 C   0  0  0  0  0  0  0  0  0  0  0  0
  -20.1715   25.1528    6.4042 C   0  0  0  0  0  0  0  0  0  0  0  0
  -18.1865   26.2326    5.7513 O   0  0  0  0  0  0  0  0  0  0  0  0
  1  7  1  0  0  0  0
  1  9  1  0  0  0  0
  2  8  1  0  0  0  0
  2 14  1  0  0  0  0
  2 15  1  0  0  0  0
  3  4  2  0  0  0  0
  3  8  1  0  0  0  0
  4  5  1  0  0  0  0
  4 21  1  0  0  0  0
  5  6  2  0  0  0  0
  6  7  1  0  0  0  0
  7  8  2  0  0  0  0
  9 10  2  0  0  0  0
  9 14  1  0  0  0  0
 10 11  1  0  0  0  0
 11 12  2  0  0  0  0
 12 13  1  0  0  0  0
 13 14  2  0  0  0  0
 15 16  1  0  0  0  0
 16 17  1  0  0  0  0
 17 18  1  0  0  0  0
 18 19  1  0  0  0  0
 18 20  1  0  0  0  0
 21 22  1  0  0  0  0
 21 23  2  0  0  0  0
M  CHG  1  18   1
M  END
>  <CHROM.1>
111.11975785,176.13630979,-60.74498427,-84.55675611,39.29970612,-18.64483404
26.46317136,1.50215041,2.05766301,0.31159339,-1.08306517

>  <Name>


>  <RI>
0

>  <Rbt.Current_Directory>
/home/itssahil/PROJECTS/Mol_Feturizer/New_Systems/rnas/1lvj

>  <Rbt.Executable>
rbdock ($Id: //depot/dev/client3/rdock/2013.1/src/exe/rbdock.cxx#4 $)

>  <Rbt.Library>
libRbt.so (2013.1, Build901 2013/11/27)

>  <Rbt.Parameter_File>
/export/apps/rDock/src/rDock_2013.1_src/data/scripts/dock_solv.prm

>  <Rbt.Receptor>
prm/blind_docking_60.prm

>  <SCORE>
-28.9398

>  <SCORE.INTER>
-25.6402

>  <SCORE.INTER.CONST>
1

>  <SCORE.INTER.POLAR>
-1.40712

>  <SCORE.INTER.ROT>
5

>  <SCORE.INTER.SOLV>
11.2181

>  <SCORE.INTER.VDW>
-23.0758

>  <SCORE.INTER.norm>
-1.11479

>  <SCORE.INTRA>
-3.65436

>  <SCORE.INTRA.DIHEDRAL>
-2.67111

>  <SCORE.INTRA.DIHEDRAL.0>
8.06479

>  <SCORE.INTRA.POLAR>
0

>  <SCORE.INTRA.POLAR.0>
0

>  <SCORE.INTRA.REPUL>
0

>  <SCORE.INTRA.REPUL.0>
0

>  <SCORE.INTRA.SOLV>
2.38523

>  <SCORE.INTRA.SOLV.lig_0>
-29.8054

>  <SCORE.INTRA.VDW>
-3.51142

>  <SCORE.INTRA.VDW.0>
2.61447

>  <SCORE.INTRA.norm>
-0.158885

>  <SCORE.RESTR>
0.354814

>  <SCORE.RESTR.CAVITY>
0.354814

>  <SCORE.RESTR.norm>
0.0154267

>  <SCORE.SYSTEM>
0

>  <SCORE.SYSTEM.CONST>
0

>  <SCORE.SYSTEM.DIHEDRAL>
0

>  <SCORE.SYSTEM.SOLV>
0

>  <SCORE.SYSTEM.norm>
0

>  <SCORE.heavy>
23

>  <SCORE.norm>
-1.25825

>  <RMSD>
21.904

$$$$

 OpenBabel11021811403D
libRbt.so/2013.1/901 2013/11/27
 23 25  0  0  0  0  0  0  0  0999 V2000
  -19.8002   23.8768    2.2980 S   0  0  0  0  0  0  0  0  0  0  0  0
  -18.2901   26.4417    2.3997 N   0  0  0  0  0  0  0  0  0  0  0  0
  -16.2090   25.5916    1.5278 C   0  0  0  0  0  0  0  0  0  0  0  0
  -15.4708   24.5097    1.0301 C   0  0  0  0  0  0  0  0  0  0  0  0
  -16.0578   23.2530    0.9182 C   0  0  0  0  0  0  0  0  0  0  0  0
  -17.3804   23.0683    1.3058 C   0  0  0  0  0  0  0  0  0  0  0  0
  -18.1230   24.1357    1.8042 C   0  0  0  0  0  0  0  0  0  0  0  0
  -17.5426   25.4047    1.9182 C   0  0  0  0  0  0  0  0  0  0  0  0
  -19.6076   24.9299    3.7012 C   0  0  0  0  0  0  0  0  0  0  0  0
  -20.1994   24.5878    4.9207 C   0  0  0  0  0  0  0  0  0  0  0  0
  -20.0486   25.4271    6.0282 C   0  0  0  0  0  0  0  0  0  0  0  0
  -19.3094   26.6087    5.9112 C   0  0  0  0  0  0  0  0  0  0  0  0
  -18.7220   26.9445    4.6909 C   0  0  0  0  0  0  0  0  0  0  0  0
  -18.8658   26.1114    3.5900 C   0  0  0  0  0  0  0  0  0  0  0  0
  -17.8615   27.8429    2.1652 C   0  0  0  0  0  0  0  0  0  0  0  0
  -17.5434   28.2543    0.6890 C   0  0  0  0  0  0  0  0  0  0  0  0
  -18.2753   29.5631    0.2342 C   0  0  0  0  0  0  0  0  0  0  0  0
  -19.6871   29.4442   -0.2113 N   0  3  0  0  0  0  0  0  0  0  0  0
  -19.7948   28.6743   -1.4775 C   0  0  0  0  0  0  0  0  0  0  0  0
  -20.3205   30.8029   -0.3322 C   0  0  0  0  0  0  0  0  0  0  0  0
  -14.0386   24.6957    0.6169 C   0  0  0  0  0  0  0  0  0  0  0  0
  -13.1444   25.7197    1.2733 C   0  0  0  0  0  0  0  0  0  0  0  0
  -13.5599   23.9608   -0.2321 O   0  0  0  0  0  0  0  0  0  0  0  0
  1  7  1  0  0  0  0
  1  9  1  0  0  0  0
  2  8  1  0  0  0  0
  2 14  1  0  0  0  0
  2 15  1  0  0  0  0
  3  4  2  0  0  0  0
  3  8  1  0  0  0  0
  4  5  1  0  0  0  0
  4 21  1  0  0  0  0
  5  6  2  0  0  0  0
  6  7  1  0  0  0  0
  7  8  2  0  0  0  0
  9 10  2  0  0  0  0
  9 14  1  0  0  0  0
 10 11  1  0  0  0  0
 11 12  2  0  0  0  0
 12 13  1  0  0  0  0
 13 14  2  0  0  0  0
 15 16  1  0  0  0  0
 16 17  1  0  0  0  0
 17 18  1  0  0  0  0
 18 19  1  0  0  0  0
 18 20  1  0  0  0  0
 21 22  1  0  0  0  0
 21 23  2  0  0  0  0
M  CHG  1  18   1
M  END
>  <CHROM.1>
52.00778670,30.23185298,129.37865910,-81.77511811,52.92795874,-17.92001467
26.03935656,1.88677827,0.46966153,-0.59326568,2.44129228

>  <Name>


>  <RI>
0

>  <Rbt.Current_Directory>
/home/itssahil/PROJECTS/Mol_Feturizer/New_Systems/rnas/1lvj

>  <Rbt.Executable>
rbdock ($Id: //depot/dev/client3/rdock/2013.1/src/exe/rbdock.cxx#4 $)

>  <Rbt.Library>
libRbt.so (2013.1, Build901 2013/11/27)

>  <Rbt.Parameter_File>
/export/apps/rDock/src/rDock_2013.1_src/data/scripts/dock_solv.prm

>  <Rbt.Receptor>
prm/blind_docking_60.prm

>  <SCORE>
-20.9765

>  <SCORE.INTER>
-20.4527

>  <SCORE.INTER.CONST>
1

>  <SCORE.INTER.POLAR>
0

>  <SCORE.INTER.ROT>
5

>  <SCORE.INTER.SOLV>
8.27566

>  <SCORE.INTER.VDW>
-23.327

>  <SCORE.INTER.norm>
-0.889246

>  <SCORE.INTRA>
-0.534271

>  <SCORE.INTRA.DIHEDRAL>
2.10341

>  <SCORE.INTRA.DIHEDRAL.0>
8.06479

>  <SCORE.INTRA.POLAR>
0

>  <SCORE.INTRA.POLAR.0>
0

>  <SCORE.INTRA.REPUL>
0

>  <SCORE.INTRA.REPUL.0>
0

>  <SCORE.INTRA.SOLV>
1.94926

>  <SCORE.INTRA.SOLV.lig_0>
-29.8054

>  <SCORE.INTRA.VDW>
-2.56061

>  <SCORE.INTRA.VDW.0>
2.61447

>  <SCORE.INTRA.norm>
-0.0232292

>  <SCORE.RESTR>
0.0104236

>  <SCORE.RESTR.CAVITY>
0.0104236

>  <SCORE.RESTR.norm>
0.0004532

>  <SCORE.SYSTEM>
0

>  <SCORE.SYSTEM.CONST>
0

>  <SCORE.SYSTEM.DIHEDRAL>
0

>  <SCORE.SYSTEM.SOLV>
0

>  <SCORE.SYSTEM.norm>
0

>  <SCORE.heavy>
23

>  <SCORE.norm>
-0.912022

>  <RMSD>
21.915

$$$$

 OpenBabel11021811403D
libRbt.so/2013.1/901 2013/11/27
 23 25  0  0  0  0  0  0  0  0999 V2000
  -19.0388   23.8105    2.0764 S   0  0  0  0  0  0  0  0  0  0  0  0
  -17.5985   26.3614    1.5403 N   0  0  0  0  0  0  0  0  0  0  0  0
  -15.4197   25.3963    1.1726 C   0  0  0  0  0  0  0  0  0  0  0  0
  -14.6113   24.2542    1.1005 C   0  0  0  0  0  0  0  0  0  0  0  0
  -15.1584   22.9935    1.3192 C   0  0  0  0  0  0  0  0  0  0  0  0
  -16.5112   22.8663    1.6150 C   0  0  0  0  0  0  0  0  0  0  0  0
  -17.3236   23.9947    1.6917 C   0  0  0  0  0  0  0  0  0  0  0  0
  -16.7836   25.2673    1.4707 C   0  0  0  0  0  0  0  0  0  0  0  0
  -19.0186   25.2442    3.1055 C   0  0  0  0  0  0  0  0  0  0  0  0
  -19.7313   25.2538    4.3082 C   0  0  0  0  0  0  0  0  0  0  0  0
  -19.7167   26.3930    5.1179 C   0  0  0  0  0  0  0  0  0  0  0  0
  -18.9923   27.5213    4.7197 C   0  0  0  0  0  0  0  0  0  0  0  0
  -18.2838   27.5053    3.5178 C   0  0  0  0  0  0  0  0  0  0  0  0
  -18.2923   26.3742    2.7131 C   0  0  0  0  0  0  0  0  0  0  0  0
  -17.1744   27.6478    0.9341 C   0  0  0  0  0  0  0  0  0  0  0  0
  -18.1238   28.8766    1.1304 C   0  0  0  0  0  0  0  0  0  0  0  0
  -18.7174   29.4273   -0.2111 C   0  0  0  0  0  0  0  0  0  0  0  0
  -19.6671   28.5589   -0.9527 N   0  3  0  0  0  0  0  0  0  0  0  0
  -20.1230   29.2027   -2.2117 C   0  0  0  0  0  0  0  0  0  0  0  0
  -20.8261   28.1721   -0.0757 C   0  0  0  0  0  0  0  0  0  0  0  0
  -13.1469   24.3805    0.7907 C   0  0  0  0  0  0  0  0  0  0  0  0
  -12.3512   23.2357    0.2120 C   0  0  0  0  0  0  0  0  0  0  0  0
  -12.5910   25.4551    0.9530 O   0  0  0  0  0  0  0  0  0  0  0  0
  1  7  1  0  0  0  0
  1  9  1  0  0  0  0
  2  8  1  0  0  0  0
  2 14  1  0  0  0  0
  2 15  1  0  0  0  0
  3  4  2  0  0  0  0
  3  8  1  0  0  0  0
  4  5  1  0  0  0  0
  4 21  1  0  0  0  0
  5  6  2  0  0  0  0
  6  7  1  0  0  0  0
  7  8  2  0  0  0  0
  9 10  2  0  0  0  0
  9 14  1  0  0  0  0
 10 11  1  0  0  0  0
 11 12  2  0  0  0  0
 12 13  1  0  0  0  0
 13 14  2  0  0  0  0
 15 16  1  0  0  0  0
 16 17  1  0  0  0  0
 17 18  1  0  0  0  0
 18 19  1  0  0  0  0
 18 20  1  0  0  0  0
 21 22  1  0  0  0  0
 21 23  2  0  0  0  0
M  CHG  1  18   1
M  END
>  <CHROM.1>
-176.40625382,-157.14867984,-116.51571079,66.90537873,-58.95395768,-17.45327174
25.94990373,1.51972733,0.42182573,-0.49242182,2.31694040

>  <Name>


>  <RI>
0

>  <Rbt.Current_Directory>
/home/itssahil/PROJECTS/Mol_Feturizer/New_Systems/rnas/1lvj

>  <Rbt.Executable>
rbdock ($Id: //depot/dev/client3/rdock/2013.1/src/exe/rbdock.cxx#4 $)

>  <Rbt.Library>
libRbt.so (2013.1, Build901 2013/11/27)

>  <Rbt.Parameter_File>
/export/apps/rDock/src/rDock_2013.1_src/data/scripts/dock_solv.prm

>  <Rbt.Receptor>
prm/blind_docking_60.prm

>  <SCORE>
-19.3014

>  <SCORE.INTER>
-20.7367

>  <SCORE.INTER.CONST>
1

>  <SCORE.INTER.POLAR>
0

>  <SCORE.INTER.ROT>
5

>  <SCORE.INTER.SOLV>
11.7272

>  <SCORE.INTER.VDW>
-24.6669

>  <SCORE.INTER.norm>
-0.901596

>  <SCORE.INTRA>
1.29077

>  <SCORE.INTRA.DIHEDRAL>
-0.206593

>  <SCORE.INTRA.DIHEDRAL.0>
8.06479

>  <SCORE.INTRA.POLAR>
0

>  <SCORE.INTRA.POLAR.0>
0

>  <SCORE.INTRA.REPUL>
0

>  <SCORE.INTRA.REPUL.0>
0

>  <SCORE.INTRA.SOLV>
2.51214

>  <SCORE.INTRA.SOLV.lig_0>
-29.8054

>  <SCORE.INTRA.VDW>
0.138004

>  <SCORE.INTRA.VDW.0>
2.61447

>  <SCORE.INTRA.norm>
0.0561207

>  <SCORE.RESTR>
0.144503

>  <SCORE.RESTR.CAVITY>
0.144503

>  <SCORE.RESTR.norm>
0.00628273

>  <SCORE.SYSTEM>
0

>  <SCORE.SYSTEM.CONST>
0

>  <SCORE.SYSTEM.DIHEDRAL>
0

>  <SCORE.SYSTEM.SOLV>
0

>  <SCORE.SYSTEM.norm>
0

>  <SCORE.heavy>
23

>  <SCORE.norm>
-0.839193

>  <RMSD>
21.994

$$$$

 OpenBabel11021811403D
libRbt.so/2013.1/901 2013/11/27
 23 25  0  0  0  0  0  0  0  0999 V2000
  -19.1683   24.0556    1.6033 S   0  0  0  0  0  0  0  0  0  0  0  0
  -17.5317   26.5320    1.3625 N   0  0  0  0  0  0  0  0  0  0  0  0
  -15.4053   25.4465    1.0247 C   0  0  0  0  0  0  0  0  0  0  0  0
  -14.6728   24.2591    0.8959 C   0  0  0  0  0  0  0  0  0  0  0  0
  -15.3149   23.0272    0.9772 C   0  0  0  0  0  0  0  0  0  0  0  0
  -16.6878   22.9736    1.1917 C   0  0  0  0  0  0  0  0  0  0  0  0
  -17.4255   24.1472    1.3237 C   0  0  0  0  0  0  0  0  0  0  0  0
  -16.7895   25.3917    1.2407 C   0  0  0  0  0  0  0  0  0  0  0  0
  -19.1103   25.3946    2.7516 C   0  0  0  0  0  0  0  0  0  0  0  0
  -19.8878   25.3564    3.9127 C   0  0  0  0  0  0  0  0  0  0  0  0
  -19.8427   26.4213    4.8171 C   0  0  0  0  0  0  0  0  0  0  0  0
  -19.0227   27.5235    4.5548 C   0  0  0  0  0  0  0  0  0  0  0  0
  -18.2498   27.5556    3.3936 C   0  0  0  0  0  0  0  0  0  0  0  0
  -18.2885   26.4981    2.4953 C   0  0  0  0  0  0  0  0  0  0  0  0
  -16.9883   27.8301    0.8916 C   0  0  0  0  0  0  0  0  0  0  0  0
  -17.5930   28.4213   -0.4255 C   0  0  0  0  0  0  0  0  0  0  0  0
  -19.1598   28.4348   -0.4419 C   0  0  0  0  0  0  0  0  0  0  0  0
  -19.8320   28.9740   -1.6515 N   0  3  0  0  0  0  0  0  0  0  0  0
  -19.9589   30.4531   -1.5894 C   0  0  0  0  0  0  0  0  0  0  0  0
  -21.1662   28.3106   -1.8560 C   0  0  0  0  0  0  0  0  0  0  0  0
  -13.1879   24.3052    0.6731 C   0  0  0  0  0  0  0  0  0  0  0  0
  -12.2226   24.6284    1.7876 C   0  0  0  0  0  0  0  0  0  0  0  0
  -12.7377   24.0154   -0.4240 O   0  0  0  0  0  0  0  0  0  0  0  0
  1  7  1  0  0  0  0
  1  9  1  0  0  0  0
  2  8  1  0  0  0  0
  2 14  1  0  0  0  0
  2 15  1  0  0  0  0
  3  4  2  0  0  0  0
  3  8  1  0  0  0  0
  4  5  1  0  0  0  0
  4 21  1  0  0  0  0
  5  6  2  0  0  0  0
  6  7  1  0  0  0  0
  7  8  2  0  0  0  0
  9 10  2  0  0  0  0
  9 14  1  0  0  0  0
 10 11  1  0  0  0  0
 11 12  2  0  0  0  0
 12 13  1  0  0  0  0
 13 14  2  0  0  0  0
 15 16  1  0  0  0  0
 16 17  1  0  0  0  0
 17 18  1  0  0  0  0
 18 19  1  0  0  0  0
 18 20  1  0  0  0  0
 21 22  1  0  0  0  0
 21 23  2  0  0  0  0
M  CHG  1  18   1
M  END
>  <CHROM.1>
106.68126395,75.61716930,48.87444242,-179.83468130,35.28844914,-17.50267250
26.03786515,1.17530538,2.66381080,0.47425637,-0.91634102

>  <Name>


>  <RI>
0

>  <Rbt.Current_Directory>
/home/itssahil/PROJECTS/Mol_Feturizer/New_Systems/rnas/1lvj

>  <Rbt.Executable>
rbdock ($Id: //depot/dev/client3/rdock/2013.1/src/exe/rbdock.cxx#4 $)

>  <Rbt.Library>
libRbt.so (2013.1, Build901 2013/11/27)

>  <Rbt.Parameter_File>
/export/apps/rDock/src/rDock_2013.1_src/data/scripts/dock_solv.prm

>  <Rbt.Receptor>
prm/blind_docking_60.prm

>  <SCORE>
-26.0601

>  <SCORE.INTER>
-26.2294

>  <SCORE.INTER.CONST>
1

>  <SCORE.INTER.POLAR>
-1.27279

>  <SCORE.INTER.ROT>
5

>  <SCORE.INTER.SOLV>
15.6268

>  <SCORE.INTER.VDW>
-25.3859

>  <SCORE.INTER.norm>
-1.14041

>  <SCORE.INTRA>
-0.0493909

>  <SCORE.INTRA.DIHEDRAL>
7.85634

>  <SCORE.INTRA.DIHEDRAL.0>
8.06479

>  <SCORE.INTRA.POLAR>
0

>  <SCORE.INTRA.POLAR.0>
0

>  <SCORE.INTRA.REPUL>
0

>  <SCORE.INTRA.REPUL.0>
0

>  <SCORE.INTRA.SOLV>
0.636698

>  <SCORE.INTRA.SOLV.lig_0>
-29.8054

>  <SCORE.INTRA.VDW>
-4.29591

>  <SCORE.INTRA.VDW.0>
2.61447

>  <SCORE.INTRA.norm>
-0.00214743

>  <SCORE.RESTR>
0.218747

>  <SCORE.RESTR.CAVITY>
0.218747

>  <SCORE.RESTR.norm>
0.00951075

>  <SCORE.SYSTEM>
0

>  <SCORE.SYSTEM.CONST>
0

>  <SCORE.SYSTEM.DIHEDRAL>
0

>  <SCORE.SYSTEM.SOLV>
0

>  <SCORE.SYSTEM.norm>
0

>  <SCORE.heavy>
23

>  <SCORE.norm>
-1.13305

>  <RMSD>
22.143

$$$$

 OpenBabel11021811403D
libRbt.so/2013.1/901 2013/11/27
 23 25  0  0  0  0  0  0  0  0999 V2000
  -19.0748   24.0176    1.6228 S   0  0  0  0  0  0  0  0  0  0  0  0
  -17.4778   26.5112    1.3047 N   0  0  0  0  0  0  0  0  0  0  0  0
  -15.3277   25.4512    1.0449 C   0  0  0  0  0  0  0  0  0  0  0  0
  -14.5727   24.2729    0.9767 C   0  0  0  0  0  0  0  0  0  0  0  0
  -15.1945   23.0340    1.0992 C   0  0  0  0  0  0  0  0  0  0  0  0
  -16.5696   22.9645    1.2946 C   0  0  0  0  0  0  0  0  0  0  0  0
  -17.3296   24.1291    1.3665 C   0  0  0  0  0  0  0  0  0  0  0  0
  -16.7140   25.3803    1.2417 C   0  0  0  0  0  0  0  0  0  0  0  0
  -19.0586   25.4037    2.7153 C   0  0  0  0  0  0  0  0  0  0  0  0
  -19.8539   25.3993    3.8650 C   0  0  0  0  0  0  0  0  0  0  0  0
  -19.8419   26.5011    4.7250 C   0  0  0  0  0  0  0  0  0  0  0  0
  -19.0370   27.6063    4.4299 C   0  0  0  0  0  0  0  0  0  0  0  0
  -18.2462   27.6044    3.2803 C   0  0  0  0  0  0  0  0  0  0  0  0
  -18.2521   26.5103    2.4262 C   0  0  0  0  0  0  0  0  0  0  0  0
  -16.9496   27.7984    0.7888 C   0  0  0  0  0  0  0  0  0  0  0  0
  -17.9680   28.9767    0.6331 C   0  0  0  0  0  0  0  0  0  0  0  0
  -19.3258   28.5460   -0.0198 C   0  0  0  0  0  0  0  0  0  0  0  0
  -19.5882   28.9808   -1.4155 N   0  3  0  0  0  0  0  0  0  0  0  0
  -20.0850   30.3802   -1.4648 C   0  0  0  0  0  0  0  0  0  0  0  0
  -20.5350   28.0313   -2.0967 C   0  0  0  0  0  0  0  0  0  0  0  0
  -13.0855   24.3365    0.7750 C   0  0  0  0  0  0  0  0  0  0  0  0
  -12.3053   23.1732    0.2121 C   0  0  0  0  0  0  0  0  0  0  0  0
  -12.4925   25.3762    1.0149 O   0  0  0  0  0  0  0  0  0  0  0  0
  1  7  1  0  0  0  0
  1  9  1  0  0  0  0
  2  8  1  0  0  0  0
  2 14  1  0  0  0  0
  2 15  1  0  0  0  0
  3  4  2  0  0  0  0
  3  8  1  0  0  0  0
  4  5  1  0  0  0  0
  4 21  1  0  0  0  0
  5  6  2  0  0  0  0
  6  7  1  0  0  0  0
  7  8  2  0  0  0  0
  9 10  2  0  0  0  0
  9 14  1  0  0  0  0
 10 11  1  0  0  0  0
 11 12  2  0  0  0  0
 12 13  1  0  0  0  0
 13 14  2  0  0  0  0
 15 16  1  0  0  0  0
 16 17  1  0  0  0  0
 17 18  1  0  0  0  0
 18 19  1  0  0  0  0
 18 20  1  0  0  0  0
 21 22  1  0  0  0  0
 21 23  2  0  0  0  0
M  CHG  1  18   1
M  END
>  <CHROM.1>
168.23354451,-157.68734422,-44.36236583,-107.47100860,38.70706967,-17.43872557
26.05639031,1.23725059,2.65288070,0.47579520,-0.83127588

>  <Name>


>  <RI>
0

>  <Rbt.Current_Directory>
/home/itssahil/PROJECTS/Mol_Feturizer/New_Systems/rnas/1lvj

>  <Rbt.Executable>
rbdock ($Id: //depot/dev/client3/rdock/2013.1/src/exe/rbdock.cxx#4 $)

>  <Rbt.Library>
libRbt.so (2013.1, Build901 2013/11/27)

>  <Rbt.Parameter_File>
/export/apps/rDock/src/rDock_2013.1_src/data/scripts/dock_solv.prm

>  <Rbt.Receptor>
prm/blind_docking_60.prm

>  <SCORE>
-29.3188

>  <SCORE.INTER>
-27.9815

>  <SCORE.INTER.CONST>
1

>  <SCORE.INTER.POLAR>
-1.47618

>  <SCORE.INTER.ROT>
5

>  <SCORE.INTER.SOLV>
14.998

>  <SCORE.INTER.VDW>
-25.6664

>  <SCORE.INTER.norm>
-1.21659

>  <SCORE.INTRA>
-1.37599

>  <SCORE.INTRA.DIHEDRAL>
0.727556

>  <SCORE.INTRA.DIHEDRAL.0>
8.06479

>  <SCORE.INTRA.POLAR>
0

>  <SCORE.INTRA.POLAR.0>
0

>  <SCORE.INTRA.REPUL>
0

>  <SCORE.INTRA.REPUL.0>
0

>  <SCORE.INTRA.SOLV>
1.46306

>  <SCORE.INTRA.SOLV.lig_0>
-29.8054

>  <SCORE.INTRA.VDW>
-2.4713

>  <SCORE.INTRA.VDW.0>
2.61447

>  <SCORE.INTRA.norm>
-0.0598258

>  <SCORE.RESTR>
0.0386606

>  <SCORE.RESTR.CAVITY>
0.0386606

>  <SCORE.RESTR.norm>
0.0016809

>  <SCORE.SYSTEM>
0

>  <SCORE.SYSTEM.CONST>
0

>  <SCORE.SYSTEM.DIHEDRAL>
0

>  <SCORE.SYSTEM.SOLV>
0

>  <SCORE.SYSTEM.norm>
0

>  <SCORE.heavy>
23

>  <SCORE.norm>
-1.27473

>  <RMSD>
22.150

$$$$

 OpenBabel11021811403D
libRbt.so/2013.1/901 2013/11/27
 23 25  0  0  0  0  0  0  0  0999 V2000
  -18.9564   23.9944    1.4757 S   0  0  0  0  0  0  0  0  0  0  0  0
  -17.3259   26.4763    1.2503 N   0  0  0  0  0  0  0  0  0  0  0  0
  -15.1746   25.3999    1.0853 C   0  0  0  0  0  0  0  0  0  0  0  0
  -14.4268   24.2157    1.0449 C   0  0  0  0  0  0  0  0  0  0  0  0
  -15.0638   22.9814    1.1294 C   0  0  0  0  0  0  0  0  0  0  0  0
  -16.4470   22.9222    1.2591 C   0  0  0  0  0  0  0  0  0  0  0  0
  -17.2002   24.0927    1.3029 C   0  0  0  0  0  0  0  0  0  0  0  0
  -16.5692   25.3395    1.2158 C   0  0  0  0  0  0  0  0  0  0  0  0
  -18.9806   25.3732    2.5771 C   0  0  0  0  0  0  0  0  0  0  0  0
  -19.8294   25.3682    3.6878 C   0  0  0  0  0  0  0  0  0  0  0  0
  -19.8492   26.4644    4.5549 C   0  0  0  0  0  0  0  0  0  0  0  0
  -19.0223   27.5646    4.3056 C   0  0  0  0  0  0  0  0  0  0  0  0
  -18.1780   27.5634    3.1947 C   0  0  0  0  0  0  0  0  0  0  0  0
  -18.1523   26.4748    2.3339 C   0  0  0  0  0  0  0  0  0  0  0  0
  -16.7634   27.7622    0.7686 C   0  0  0  0  0  0  0  0  0  0  0  0
  -17.7445   28.7440    0.0452 C   0  0  0  0  0  0  0  0  0  0  0  0
  -19.0200   29.0860    0.8887 C   0  0  0  0  0  0  0  0  0  0  0  0
  -19.7408   30.3447    0.5692 N   0  3  0  0  0  0  0  0  0  0  0  0
  -20.8809   30.5685    1.4953 C   0  0  0  0  0  0  0  0  0  0  0  0
  -20.1838   30.3510   -0.8681 C   0  0  0  0  0  0  0  0  0  0  0  0
  -12.9312   24.2680    0.9141 C   0  0  0  0  0  0  0  0  0  0  0  0
  -12.1311   23.0884    0.4172 C   0  0  0  0  0  0  0  0  0  0  0  0
  -12.3448   25.3105    1.1581 O   0  0  0  0  0  0  0  0  0  0  0  0
  1  7  1  0  0  0  0
  1  9  1  0  0  0  0
  2  8  1  0  0  0  0
  2 14  1  0  0  0  0
  2 15  1  0  0  0  0
  3  4  2  0  0  0  0
  3  8  1  0  0  0  0
  4  5  1  0  0  0  0
  4 21  1  0  0  0  0
  5  6  2  0  0  0  0
  6  7  1  0  0  0  0
  7  8  2  0  0  0  0
  9 10  2  0  0  0  0
  9 14  1  0  0  0  0
 10 11  1  0  0  0  0
 11 12  2  0  0  0  0
 12 13  1  0  0  0  0
 13 14  2  0  0  0  0
 15 16  1  0  0  0  0
 16 17  1  0  0  0  0
 17 18  1  0  0  0  0
 18 19  1  0  0  0  0
 18 20  1  0  0  0  0
 21 22  1  0  0  0  0
 21 23  2  0  0  0  0
M  CHG  1  18   1
M  END
>  <CHROM.1>
144.75342978,-159.42361827,54.35139942,157.45209165,-56.99524297,-17.35514640
26.21574620,1.51013227,0.63348465,-0.41211053,2.72727431

>  <Name>


>  <RI>
0

>  <Rbt.Current_Directory>
/home/itssahil/PROJECTS/Mol_Feturizer/New_Systems/rnas/1lvj

>  <Rbt.Executable>
rbdock ($Id: //depot/dev/client3/rdock/2013.1/src/exe/rbdock.cxx#4 $)

>  <Rbt.Library>
libRbt.so (2013.1, Build901 2013/11/27)

>  <Rbt.Parameter_File>
/export/apps/rDock/src/rDock_2013.1_src/data/scripts/dock_solv.prm

>  <Rbt.Receptor>
prm/blind_docking_60.prm

>  <SCORE>
-26.4361

>  <SCORE.INTER>
-23.7045

>  <SCORE.INTER.CONST>
1

>  <SCORE.INTER.POLAR>
-0.736597

>  <SCORE.INTER.ROT>
5

>  <SCORE.INTER.SOLV>
13.8816

>  <SCORE.INTER.VDW>
-24.9082

>  <SCORE.INTER.norm>
-1.03063

>  <SCORE.INTRA>
-3.05285

>  <SCORE.INTRA.DIHEDRAL>
-3.9679

>  <SCORE.INTRA.DIHEDRAL.0>
8.06479

>  <SCORE.INTRA.POLAR>
0

>  <SCORE.INTRA.POLAR.0>
0

>  <SCORE.INTRA.REPUL>
0

>  <SCORE.INTRA.REPUL.0>
0

>  <SCORE.INTRA.SOLV>
0.617714

>  <SCORE.INTRA.SOLV.lig_0>
-29.8054

>  <SCORE.INTRA.VDW>
-1.37776

>  <SCORE.INTRA.VDW.0>
2.61447

>  <SCORE.INTRA.norm>
-0.132733

>  <SCORE.RESTR>
0.321249

>  <SCORE.RESTR.CAVITY>
0.321249

>  <SCORE.RESTR.norm>
0.0139674

>  <SCORE.SYSTEM>
0

>  <SCORE.SYSTEM.CONST>
0

>  <SCORE.SYSTEM.DIHEDRAL>
0

>  <SCORE.SYSTEM.SOLV>
0

>  <SCORE.SYSTEM.norm>
0

>  <SCORE.heavy>
23

>  <SCORE.norm>
-1.1494

>  <RMSD>
22.272

$$$$

 OpenBabel11021811403D
libRbt.so/2013.1/901 2013/11/27
 23 25  0  0  0  0  0  0  0  0999 V2000
  -18.1430   27.5528    3.8306 S   0  0  0  0  0  0  0  0  0  0  0  0
  -17.3494   26.3573    1.2210 N   0  0  0  0  0  0  0  0  0  0  0  0
  -18.6231   27.8469   -0.1835 C   0  0  0  0  0  0  0  0  0  0  0  0
  -19.4921   28.9405   -0.2933 C   0  0  0  0  0  0  0  0  0  0  0  0
  -19.9345   29.6015    0.8486 C   0  0  0  0  0  0  0  0  0  0  0  0
  -19.5168   29.1728    2.1038 C   0  0  0  0  0  0  0  0  0  0  0  0
  -18.6553   28.0854    2.2250 C   0  0  0  0  0  0  0  0  0  0  0  0
  -18.2022   27.4154    1.0823 C   0  0  0  0  0  0  0  0  0  0  0  0
  -18.2712   25.8543    3.3686 C   0  0  0  0  0  0  0  0  0  0  0  0
  -18.7865   24.9194    4.2712 C   0  0  0  0  0  0  0  0  0  0  0  0
  -18.8817   23.5743    3.9032 C   0  0  0  0  0  0  0  0  0  0  0  0
  -18.4570   23.1677    2.6340 C   0  0  0  0  0  0  0  0  0  0  0  0
  -17.9430   24.1059    1.7382 C   0  0  0  0  0  0  0  0  0  0  0  0
  -17.8510   25.4433    2.0985 C   0  0  0  0  0  0  0  0  0  0  0  0
  -16.5479   25.8880    0.0636 C   0  0  0  0  0  0  0  0  0  0  0  0
  -15.4740   24.7834    0.3401 C   0  0  0  0  0  0  0  0  0  0  0  0
  -14.4829   25.1520    1.4964 C   0  0  0  0  0  0  0  0  0  0  0  0
  -13.5211   24.1101    1.9385 N   0  3  0  0  0  0  0  0  0  0  0  0
  -13.0378   24.3671    3.3198 C   0  0  0  0  0  0  0  0  0  0  0  0
  -12.3812   23.9942    0.9642 C   0  0  0  0  0  0  0  0  0  0  0  0
  -19.9569   29.4065   -1.6436 C   0  0  0  0  0  0  0  0  0  0  0  0
  -20.5149   30.7920   -1.8619 C   0  0  0  0  0  0  0  0  0  0  0  0
  -19.8275   28.6702   -2.6085 O   0  0  0  0  0  0  0  0  0  0  0  0
  1  7  1  0  0  0  0
  1  9  1  0  0  0  0
  2  8  1  0  0  0  0
  2 14  1  0  0  0  0
  2 15  1  0  0  0  0
  3  4  2  0  0  0  0
  3  8  1  0  0  0  0
  4  5  1  0  0  0  0
  4 21  1  0  0  0  0
  5  6  2  0  0  0  0
  6  7  1  0  0  0  0
  7  8  2  0  0  0  0
  9 10  2  0  0  0  0
  9 14  1  0  0  0  0
 10 11  1  0  0  0  0
 11 12  2  0  0  0  0
 12 13  1  0  0  0  0
 13 14  2  0  0  0  0
 15 16  1  0  0  0  0
 16 17  1  0  0  0  0
 17 18  1  0  0  0  0
 18 19  1  0  0  0  0
 18 20  1  0  0  0  0
 21 22  1  0  0  0  0
 21 23  2  0  0  0  0
M  CHG  1  18   1
M  END
>  <CHROM.1>
173.04030790,-160.36457493,-53.12033877,173.39148660,-37.71939922,-17.58674019
26.51893766,1.44090741,2.42190472,0.52264835,-1.02832829

>  <Name>


>  <RI>
0

>  <Rbt.Current_Directory>
/home/itssahil/PROJECTS/Mol_Feturizer/New_Systems/rnas/1lvj

>  <Rbt.Executable>
rbdock ($Id: //depot/dev/client3/rdock/2013.1/src/exe/rbdock.cxx#4 $)

>  <Rbt.Library>
libRbt.so (2013.1, Build901 2013/11/27)

>  <Rbt.Parameter_File>
/export/apps/rDock/src/rDock_2013.1_src/data/scripts/dock_solv.prm

>  <Rbt.Receptor>
prm/blind_docking_60.prm

>  <SCORE>
-26.3597

>  <SCORE.INTER>
-22.1568

>  <SCORE.INTER.CONST>
1

>  <SCORE.INTER.POLAR>
0

>  <SCORE.INTER.ROT>
5

>  <SCORE.INTER.SOLV>
9.17987

>  <SCORE.INTER.VDW>
-24.7645

>  <SCORE.INTER.norm>
-0.963339

>  <SCORE.INTRA>
-4.20285

>  <SCORE.INTRA.DIHEDRAL>
-5.28832

>  <SCORE.INTRA.DIHEDRAL.0>
8.06479

>  <SCORE.INTRA.POLAR>
0

>  <SCORE.INTRA.POLAR.0>
0

>  <SCORE.INTRA.REPUL>
0

>  <SCORE.INTRA.REPUL.0>
0

>  <SCORE.INTRA.SOLV>
0.800484

>  <SCORE.INTRA.SOLV.lig_0>
-29.8054

>  <SCORE.INTRA.VDW>
-1.95893

>  <SCORE.INTRA.VDW.0>
2.61447

>  <SCORE.INTRA.norm>
-0.182733

>  <SCORE.RESTR>
0

>  <SCORE.RESTR.CAVITY>
0

>  <SCORE.RESTR.norm>
0

>  <SCORE.SYSTEM>
0

>  <SCORE.SYSTEM.CONST>
0

>  <SCORE.SYSTEM.DIHEDRAL>
0

>  <SCORE.SYSTEM.SOLV>
0

>  <SCORE.SYSTEM.norm>
0

>  <SCORE.heavy>
23

>  <SCORE.norm>
-1.14607

>  <RMSD>
22.600

$$$$

 OpenBabel11021811403D
libRbt.so/2013.1/901 2013/11/27
 23 25  0  0  0  0  0  0  0  0999 V2000
  -19.3293   30.4121   -0.5317 S   0  0  0  0  0  0  0  0  0  0  0  0
  -20.0914   27.5382   -0.7036 N   0  0  0  0  0  0  0  0  0  0  0  0
  -17.9207   26.6275   -0.1817 C   0  0  0  0  0  0  0  0  0  0  0  0
  -16.5763   26.8465    0.1466 C   0  0  0  0  0  0  0  0  0  0  0  0
  -16.0876   28.1436    0.2707 C   0  0  0  0  0  0  0  0  0  0  0  0
  -16.9348   29.2267    0.0636 C   0  0  0  0  0  0  0  0  0  0  0  0
  -18.2721   29.0209   -0.2656 C   0  0  0  0  0  0  0  0  0  0  0  0
  -18.7743   27.7200   -0.3900 C   0  0  0  0  0  0  0  0  0  0  0  0
  -20.1293   29.6146   -1.8878 C   0  0  0  0  0  0  0  0  0  0  0  0
  -20.4711   30.3465   -3.0287 C   0  0  0  0  0  0  0  0  0  0  0  0
  -21.1091   29.7123   -4.0985 C   0  0  0  0  0  0  0  0  0  0  0  0
  -21.4071   28.3478   -4.0219 C   0  0  0  0  0  0  0  0  0  0  0  0
  -21.0638   27.6234   -2.8798 C   0  0  0  0  0  0  0  0  0  0  0  0
  -20.4262   28.2488   -1.8172 C   0  0  0  0  0  0  0  0  0  0  0  0
  -20.7441   26.2289   -0.4550 C   0  0  0  0  0  0  0  0  0  0  0  0
  -20.8271   25.7435    1.0308 C   0  0  0  0  0  0  0  0  0  0  0  0
  -19.6449   24.8032    1.4471 C   0  0  0  0  0  0  0  0  0  0  0  0
  -19.4221   24.5768    2.8980 N   0  3  0  0  0  0  0  0  0  0  0  0
  -18.7599   25.7443    3.5351 C   0  0  0  0  0  0  0  0  0  0  0  0
  -18.6468   23.3078    3.1230 C   0  0  0  0  0  0  0  0  0  0  0  0
  -15.6501   25.6840    0.3635 C   0  0  0  0  0  0  0  0  0  0  0  0
  -14.1866   25.8769    0.6792 C   0  0  0  0  0  0  0  0  0  0  0  0
  -16.0989   24.5490    0.3446 O   0  0  0  0  0  0  0  0  0  0  0  0
  1  7  1  0  0  0  0
  1  9  1  0  0  0  0
  2  8  1  0  0  0  0
  2 14  1  0  0  0  0
  2 15  1  0  0  0  0
  3  4  2  0  0  0  0
  3  8  1  0  0  0  0
  4  5  1  0  0  0  0
  4 21  1  0  0  0  0
  5  6  2  0  0  0  0
  6  7  1  0  0  0  0
  7  8  2  0  0  0  0
  9 10  2  0  0  0  0
  9 14  1  0  0  0  0
 10 11  1  0  0  0  0
 11 12  2  0  0  0  0
 12 13  1  0  0  0  0
 13 14  2  0  0  0  0
 15 16  1  0  0  0  0
 16 17  1  0  0  0  0
 17 18  1  0  0  0  0
 18 19  1  0  0  0  0
 18 20  1  0  0  0  0
 21 22  1  0  0  0  0
 21 23  2  0  0  0  0
M  CHG  1  18   1
M  END
>  <CHROM.1>
62.52699451,178.20035668,-94.25366722,164.18388174,43.38654738,-18.81789596
27.29281948,-0.20040687,-2.02675260,0.18781920,2.45825140

>  <Name>


>  <RI>
0

>  <Rbt.Current_Directory>
/home/itssahil/PROJECTS/Mol_Feturizer/New_Systems/rnas/1lvj

>  <Rbt.Executable>
rbdock ($Id: //depot/dev/client3/rdock/2013.1/src/exe/rbdock.cxx#4 $)

>  <Rbt.Library>
libRbt.so (2013.1, Build901 2013/11/27)

>  <Rbt.Parameter_File>
/export/apps/rDock/src/rDock_2013.1_src/data/scripts/dock_solv.prm

>  <Rbt.Receptor>
prm/blind_docking_60.prm

>  <SCORE>
-33.3098

>  <SCORE.INTER>
-29.3948

>  <SCORE.INTER.CONST>
1

>  <SCORE.INTER.POLAR>
0

>  <SCORE.INTER.ROT>
5

>  <SCORE.INTER.SOLV>
12.0346

>  <SCORE.INTER.VDW>
-30.5414

>  <SCORE.INTER.norm>
-1.27804

>  <SCORE.INTRA>
-3.93517

>  <SCORE.INTRA.DIHEDRAL>
-2.51889

>  <SCORE.INTRA.DIHEDRAL.0>
8.06479

>  <SCORE.INTRA.POLAR>
0

>  <SCORE.INTRA.POLAR.0>
0

>  <SCORE.INTRA.REPUL>
0

>  <SCORE.INTRA.REPUL.0>
0

>  <SCORE.INTRA.SOLV>
0.832707

>  <SCORE.INTRA.SOLV.lig_0>
-29.8054

>  <SCORE.INTRA.VDW>
-3.09208

>  <SCORE.INTRA.VDW.0>
2.61447

>  <SCORE.INTRA.norm>
-0.171094

>  <SCORE.RESTR>
0.020187

>  <SCORE.RESTR.CAVITY>
0.020187

>  <SCORE.RESTR.norm>
0.000877696

>  <SCORE.SYSTEM>
0

>  <SCORE.SYSTEM.CONST>
0

>  <SCORE.SYSTEM.DIHEDRAL>
0

>  <SCORE.SYSTEM.SOLV>
0

>  <SCORE.SYSTEM.norm>
0

>  <SCORE.heavy>
23

>  <SCORE.norm>
-1.44825

>  <RMSD>
22.856

$$$$

 OpenBabel11021811403D
libRbt.so/2013.1/901 2013/11/27
 23 25  0  0  0  0  0  0  0  0999 V2000
  -19.2549   30.4546   -0.5868 S   0  0  0  0  0  0  0  0  0  0  0  0
  -19.9613   27.5622   -0.6501 N   0  0  0  0  0  0  0  0  0  0  0  0
  -17.7624   26.7122   -0.1439 C   0  0  0  0  0  0  0  0  0  0  0  0
  -16.4165   26.9685    0.1495 C   0  0  0  0  0  0  0  0  0  0  0  0
  -15.9520   28.2783    0.2214 C   0  0  0  0  0  0  0  0  0  0  0  0
  -16.8252   29.3371   -0.0029 C   0  0  0  0  0  0  0  0  0  0  0  0
  -18.1643   29.0941   -0.2977 C   0  0  0  0  0  0  0  0  0  0  0  0
  -18.6422   27.7801   -0.3698 C   0  0  0  0  0  0  0  0  0  0  0  0
  -20.0652   29.5976   -1.8997 C   0  0  0  0  0  0  0  0  0  0  0  0
  -20.4447   30.2849   -3.0564 C   0  0  0  0  0  0  0  0  0  0  0  0
  -21.0907   29.6034   -4.0918 C   0  0  0  0  0  0  0  0  0  0  0  0
  -21.3591   28.2366   -3.9650 C   0  0  0  0  0  0  0  0  0  0  0  0
  -20.9784   27.5568   -2.8074 C   0  0  0  0  0  0  0  0  0  0  0  0
  -20.3327   28.2292   -1.7790 C   0  0  0  0  0  0  0  0  0  0  0  0
  -20.5819   26.2490   -0.3460 C   0  0  0  0  0  0  0  0  0  0  0  0
  -21.2686   26.0908    1.0516 C   0  0  0  0  0  0  0  0  0  0  0  0
  -20.7001   24.8989    1.8951 C   0  0  0  0  0  0  0  0  0  0  0  0
  -19.2853   24.9817    2.3392 N   0  3  0  0  0  0  0  0  0  0  0  0
  -18.4386   23.9749    1.6485 C   0  0  0  0  0  0  0  0  0  0  0  0
  -19.1914   24.8536    3.8348 C   0  0  0  0  0  0  0  0  0  0  0  0
  -15.4625   25.8322    0.3847 C   0  0  0  0  0  0  0  0  0  0  0  0
  -14.0552   26.0605    0.8808 C   0  0  0  0  0  0  0  0  0  0  0  0
  -15.8481   24.6845    0.2295 O   0  0  0  0  0  0  0  0  0  0  0  0
  1  7  1  0  0  0  0
  1  9  1  0  0  0  0
  2  8  1  0  0  0  0
  2 14  1  0  0  0  0
  2 15  1  0  0  0  0
  3  4  2  0  0  0  0
  3  8  1  0  0  0  0
  4  5  1  0  0  0  0
  4 21  1  0  0  0  0
  5  6  2  0  0  0  0
  6  7  1  0  0  0  0
  7  8  2  0  0  0  0
  9 10  2  0  0  0  0
  9 14  1  0  0  0  0
 10 11  1  0  0  0  0
 11 12  2  0  0  0  0
 12 13  1  0  0  0  0
 13 14  2  0  0  0  0
 15 16  1  0  0  0  0
 16 17  1  0  0  0  0
 17 18  1  0  0  0  0
 18 19  1  0  0  0  0
 18 20  1  0  0  0  0
 21 22  1  0  0  0  0
 21 23  2  0  0  0  0
M  CHG  1  18   1
M  END
>  <CHROM.1>
92.02582959,-171.73631207,-123.45776582,65.14600808,8.47622580,-18.79359131
27.35721553,-0.25411258,-2.07705613,0.16132356,2.45508790

>  <Name>


>  <RI>
0

>  <Rbt.Current_Directory>
/home/itssahil/PROJECTS/Mol_Feturizer/New_Systems/rnas/1lvj

>  <Rbt.Executable>
rbdock ($Id: //depot/dev/client3/rdock/2013.1/src/exe/rbdock.cxx#4 $)

>  <Rbt.Library>
libRbt.so (2013.1, Build901 2013/11/27)

>  <Rbt.Parameter_File>
/export/apps/rDock/src/rDock_2013.1_src/data/scripts/dock_solv.prm

>  <Rbt.Receptor>
prm/blind_docking_60.prm

>  <SCORE>
-26.2541

>  <SCORE.INTER>
-27.0571

>  <SCORE.INTER.CONST>
1

>  <SCORE.INTER.POLAR>
0

>  <SCORE.INTER.ROT>
5

>  <SCORE.INTER.SOLV>
9.81808

>  <SCORE.INTER.VDW>
-28.2441

>  <SCORE.INTER.norm>
-1.17639

>  <SCORE.INTRA>
0.711365

>  <SCORE.INTRA.DIHEDRAL>
3.00817

>  <SCORE.INTRA.DIHEDRAL.0>
8.06479

>  <SCORE.INTRA.POLAR>
0

>  <SCORE.INTRA.POLAR.0>
0

>  <SCORE.INTRA.REPUL>
0

>  <SCORE.INTRA.REPUL.0>
0

>  <SCORE.INTRA.SOLV>
6.24722

>  <SCORE.INTRA.SOLV.lig_0>
-29.8054

>  <SCORE.INTRA.VDW>
-3.91633

>  <SCORE.INTRA.VDW.0>
2.61447

>  <SCORE.INTRA.norm>
0.0309289

>  <SCORE.RESTR>
0.0916071

>  <SCORE.RESTR.CAVITY>
0.0916071

>  <SCORE.RESTR.norm>
0.00398292

>  <SCORE.SYSTEM>
0

>  <SCORE.SYSTEM.CONST>
0

>  <SCORE.SYSTEM.DIHEDRAL>
0

>  <SCORE.SYSTEM.SOLV>
0

>  <SCORE.SYSTEM.norm>
0

>  <SCORE.heavy>
23

>  <SCORE.norm>
-1.14148

>  <RMSD>
22.907

$$$$
