ligand
 OpenBabel11021811473D
libRbt.so/2013.1/901 2013/11/27
 13 14  0  0  0  0  0  0  0  0999 V2000
   34.2404   33.9551   23.1337 N   0  0  0  0  0  0  0  0  0  0  0  0
   33.4990   32.6296   23.5851 C   0  0  0  0  0  0  0  0  0  0  0  0
   32.4119   32.1871   22.8571 N   0  0  0  0  0  0  0  0  0  0  0  0
   34.0144   32.1292   24.6280 N   0  0  0  0  0  0  0  0  0  0  0  0
   35.0723   32.5114   25.3692 C   0  0  0  0  0  0  0  0  0  0  0  0
   35.7659   33.6217   25.0502 C   0  0  0  0  0  0  0  0  0  0  0  0
   35.2843   34.4444   23.7907 C   0  0  0  0  0  0  0  0  0  0  0  0
   35.9064   35.4202   23.5181 O   0  0  0  0  0  0  0  0  0  0  0  0
   36.9222   33.9022   26.0279 C   0  0  0  0  0  0  0  0  0  0  0  0
   36.8783   32.9031   26.9164 C   0  0  0  0  0  0  0  0  0  0  0  0
   35.8730   31.9946   26.7210 N   0  0  0  0  0  0  0  0  0  0  0  0
   37.8797   35.0288   25.9535 C   0  0  0  0  0  0  0  0  0  0  0  0
   38.5846   35.9407   25.8621 N   0  0  0  0  0  0  0  0  0  0  0  0
  1  2  1  0  0  0  0
  1  7  1  0  0  0  0
  2  3  1  0  0  0  0
  2  4  2  0  0  0  0
  4  5  1  0  0  0  0
  5  6  2  0  0  0  0
  5 11  1  0  0  0  0
  6  7  1  0  0  0  0
  6  9  1  0  0  0  0
  7  8  2  0  0  0  0
  9 10  2  0  0  0  0
  9 12  1  0  0  0  0
 10 11  1  0  0  0  0
 12 13  3  0  0  0  0
M  END
>  <CHROM.1>
35.54042774,33.61232963,24.83211541,-3.11075651,0.65632239,2.38507799

>  <Name>
ligand

>  <RI>
0

>  <Rbt.Current_Directory>
/home/itssahil/PROJECTS/Mol_Feturizer/New_Systems/rnas/3GCA

>  <Rbt.Executable>
rbdock ($Id: //depot/dev/client3/rdock/2013.1/src/exe/rbdock.cxx#4 $)

>  <Rbt.Library>
libRbt.so (2013.1, Build901 2013/11/27)

>  <Rbt.Parameter_File>
/export/apps/rDock/src/rDock_2013.1_src/data/scripts/dock_solv.prm

>  <Rbt.Receptor>
prm/pocket_docking_2.prm

>  <SCORE>
-18.7954

>  <SCORE.INTER>
-18.7954

>  <SCORE.INTER.CONST>
1

>  <SCORE.INTER.POLAR>
0

>  <SCORE.INTER.ROT>
0

>  <SCORE.INTER.SOLV>
19.812

>  <SCORE.INTER.VDW>
-22.7342

>  <SCORE.INTER.norm>
-1.4458

>  <SCORE.INTRA>
0

>  <SCORE.INTRA.DIHEDRAL>
0

>  <SCORE.INTRA.DIHEDRAL.0>
0

>  <SCORE.INTRA.POLAR>
0

>  <SCORE.INTRA.POLAR.0>
0

>  <SCORE.INTRA.REPUL>
0

>  <SCORE.INTRA.REPUL.0>
0

>  <SCORE.INTRA.SOLV>
0

>  <SCORE.INTRA.SOLV.lig_0>
-33.1994

>  <SCORE.INTRA.VDW>
0

>  <SCORE.INTRA.VDW.0>
0

>  <SCORE.INTRA.norm>
0

>  <SCORE.RESTR>
0

>  <SCORE.RESTR.CAVITY>
0

>  <SCORE.RESTR.norm>
0

>  <SCORE.SYSTEM>
0

>  <SCORE.SYSTEM.CONST>
0

>  <SCORE.SYSTEM.DIHEDRAL>
0

>  <SCORE.SYSTEM.SOLV>
0

>  <SCORE.SYSTEM.norm>
0

>  <SCORE.heavy>
13

>  <SCORE.norm>
-1.4458

>  <RMSD>
0.184

$$$$
ligand
 OpenBabel11021811473D
libRbt.so/2013.1/901 2013/11/27
 13 14  0  0  0  0  0  0  0  0999 V2000
   34.1862   33.9531   23.1491 N   0  0  0  0  0  0  0  0  0  0  0  0
   33.4681   32.6162   23.6045 C   0  0  0  0  0  0  0  0  0  0  0  0
   32.3762   32.1634   22.8901 N   0  0  0  0  0  0  0  0  0  0  0  0
   34.0048   32.1174   24.6375 N   0  0  0  0  0  0  0  0  0  0  0  0
   35.0683   32.5094   25.3652 C   0  0  0  0  0  0  0  0  0  0  0  0
   35.7433   33.6298   25.0417 C   0  0  0  0  0  0  0  0  0  0  0  0
   35.2332   34.4524   23.7934 C   0  0  0  0  0  0  0  0  0  0  0  0
   35.8389   35.4373   23.5168 O   0  0  0  0  0  0  0  0  0  0  0  0
   36.9099   33.9203   26.0042 C   0  0  0  0  0  0  0  0  0  0  0  0
   36.8914   32.9164   26.8882 C   0  0  0  0  0  0  0  0  0  0  0  0
   35.8949   31.9963   26.7028 N   0  0  0  0  0  0  0  0  0  0  0  0
   37.8520   35.0592   25.9215 C   0  0  0  0  0  0  0  0  0  0  0  0
   38.5440   35.9804   25.8245 N   0  0  0  0  0  0  0  0  0  0  0  0
  1  2  1  0  0  0  0
  1  7  1  0  0  0  0
  2  3  1  0  0  0  0
  2  4  2  0  0  0  0
  4  5  1  0  0  0  0
  5  6  2  0  0  0  0
  5 11  1  0  0  0  0
  6  7  1  0  0  0  0
  6  9  1  0  0  0  0
  7  8  2  0  0  0  0
  9 10  2  0  0  0  0
  9 12  1  0  0  0  0
 10 11  1  0  0  0  0
 12 13  3  0  0  0  0
M  END
>  <CHROM.1>
35.51477489,33.61867665,24.82689163,-3.13477019,0.65430919,2.40457041

>  <Name>
ligand

>  <RI>
0

>  <Rbt.Current_Directory>
/home/itssahil/PROJECTS/Mol_Feturizer/New_Systems/rnas/3GCA

>  <Rbt.Executable>
rbdock ($Id: //depot/dev/client3/rdock/2013.1/src/exe/rbdock.cxx#4 $)

>  <Rbt.Library>
libRbt.so (2013.1, Build901 2013/11/27)

>  <Rbt.Parameter_File>
/export/apps/rDock/src/rDock_2013.1_src/data/scripts/dock_solv.prm

>  <Rbt.Receptor>
prm/pocket_docking_2.prm

>  <SCORE>
-18.758

>  <SCORE.INTER>
-18.758

>  <SCORE.INTER.CONST>
1

>  <SCORE.INTER.POLAR>
0

>  <SCORE.INTER.ROT>
0

>  <SCORE.INTER.SOLV>
19.8703

>  <SCORE.INTER.VDW>
-22.7288

>  <SCORE.INTER.norm>
-1.44292

>  <SCORE.INTRA>
0

>  <SCORE.INTRA.DIHEDRAL>
0

>  <SCORE.INTRA.DIHEDRAL.0>
0

>  <SCORE.INTRA.POLAR>
0

>  <SCORE.INTRA.POLAR.0>
0

>  <SCORE.INTRA.REPUL>
0

>  <SCORE.INTRA.REPUL.0>
0

>  <SCORE.INTRA.SOLV>
0

>  <SCORE.INTRA.SOLV.lig_0>
-33.1994

>  <SCORE.INTRA.VDW>
0

>  <SCORE.INTRA.VDW.0>
0

>  <SCORE.INTRA.norm>
0

>  <SCORE.RESTR>
0

>  <SCORE.RESTR.CAVITY>
0

>  <SCORE.RESTR.norm>
0

>  <SCORE.SYSTEM>
0

>  <SCORE.SYSTEM.CONST>
0

>  <SCORE.SYSTEM.DIHEDRAL>
0

>  <SCORE.SYSTEM.SOLV>
0

>  <SCORE.SYSTEM.norm>
0

>  <SCORE.heavy>
13

>  <SCORE.norm>
-1.44292

>  <RMSD>
0.186

$$$$
ligand
 OpenBabel11021811473D
libRbt.so/2013.1/901 2013/11/27
 13 14  0  0  0  0  0  0  0  0999 V2000
   34.1994   34.0073   23.1183 N   0  0  0  0  0  0  0  0  0  0  0  0
   33.4654   32.6801   23.5766 C   0  0  0  0  0  0  0  0  0  0  0  0
   32.3647   32.2420   22.8665 N   0  0  0  0  0  0  0  0  0  0  0  0
   33.9996   32.1739   24.6072 N   0  0  0  0  0  0  0  0  0  0  0  0
   35.0712   32.5516   25.3307 C   0  0  0  0  0  0  0  0  0  0  0  0
   35.7598   33.6630   25.0046 C   0  0  0  0  0  0  0  0  0  0  0  0
   35.2556   34.4925   23.7585 C   0  0  0  0  0  0  0  0  0  0  0  0
   35.8733   35.4693   23.4795 O   0  0  0  0  0  0  0  0  0  0  0  0
   36.9341   33.9377   25.9623 C   0  0  0  0  0  0  0  0  0  0  0  0
   36.9058   32.9340   26.8463 C   0  0  0  0  0  0  0  0  0  0  0  0
   35.8963   32.0273   26.6649 N   0  0  0  0  0  0  0  0  0  0  0  0
   37.8909   35.0639   25.8760 C   0  0  0  0  0  0  0  0  0  0  0  0
   38.5948   35.9758   25.7762 N   0  0  0  0  0  0  0  0  0  0  0  0
  1  2  1  0  0  0  0
  1  7  1  0  0  0  0
  2  3  1  0  0  0  0
  2  4  2  0  0  0  0
  4  5  1  0  0  0  0
  5  6  2  0  0  0  0
  5 11  1  0  0  0  0
  6  7  1  0  0  0  0
  6  9  1  0  0  0  0
  7  8  2  0  0  0  0
  9 10  2  0  0  0  0
  9 12  1  0  0  0  0
 10 11  1  0  0  0  0
 12 13  3  0  0  0  0
M  END
>  <CHROM.1>
35.53026223,33.65490891,24.79070883,-3.12583864,0.64230849,2.39931238

>  <Name>
ligand

>  <RI>
0

>  <Rbt.Current_Directory>
/home/itssahil/PROJECTS/Mol_Feturizer/New_Systems/rnas/3GCA

>  <Rbt.Executable>
rbdock ($Id: //depot/dev/client3/rdock/2013.1/src/exe/rbdock.cxx#4 $)

>  <Rbt.Library>
libRbt.so (2013.1, Build901 2013/11/27)

>  <Rbt.Parameter_File>
/export/apps/rDock/src/rDock_2013.1_src/data/scripts/dock_solv.prm

>  <Rbt.Receptor>
prm/pocket_docking_2.prm

>  <SCORE>
-18.8355

>  <SCORE.INTER>
-18.8355

>  <SCORE.INTER.CONST>
1

>  <SCORE.INTER.POLAR>
0

>  <SCORE.INTER.ROT>
0

>  <SCORE.INTER.SOLV>
19.8466

>  <SCORE.INTER.VDW>
-22.7725

>  <SCORE.INTER.norm>
-1.44889

>  <SCORE.INTRA>
0

>  <SCORE.INTRA.DIHEDRAL>
0

>  <SCORE.INTRA.DIHEDRAL.0>
0

>  <SCORE.INTRA.POLAR>
0

>  <SCORE.INTRA.POLAR.0>
0

>  <SCORE.INTRA.REPUL>
0

>  <SCORE.INTRA.REPUL.0>
0

>  <SCORE.INTRA.SOLV>
0

>  <SCORE.INTRA.SOLV.lig_0>
-33.1994

>  <SCORE.INTRA.VDW>
0

>  <SCORE.INTRA.VDW.0>
0

>  <SCORE.INTRA.norm>
0

>  <SCORE.RESTR>
0

>  <SCORE.RESTR.CAVITY>
0

>  <SCORE.RESTR.norm>
0

>  <SCORE.SYSTEM>
0

>  <SCORE.SYSTEM.CONST>
0

>  <SCORE.SYSTEM.DIHEDRAL>
0

>  <SCORE.SYSTEM.SOLV>
0

>  <SCORE.SYSTEM.norm>
0

>  <SCORE.heavy>
13

>  <SCORE.norm>
-1.44889

>  <RMSD>
0.187

$$$$
ligand
 OpenBabel11021811473D
libRbt.so/2013.1/901 2013/11/27
 13 14  0  0  0  0  0  0  0  0999 V2000
   34.2007   33.9960   23.1247 N   0  0  0  0  0  0  0  0  0  0  0  0
   33.4803   32.6609   23.5815 C   0  0  0  0  0  0  0  0  0  0  0  0
   32.3779   32.2178   22.8772 N   0  0  0  0  0  0  0  0  0  0  0  0
   34.0258   32.1538   24.6057 N   0  0  0  0  0  0  0  0  0  0  0  0
   35.0997   32.5362   25.3233 C   0  0  0  0  0  0  0  0  0  0  0  0
   35.7773   33.6545   24.9979 C   0  0  0  0  0  0  0  0  0  0  0  0
   35.2577   34.4863   23.7596 C   0  0  0  0  0  0  0  0  0  0  0  0
   35.8657   35.4692   23.4811 O   0  0  0  0  0  0  0  0  0  0  0  0
   36.9563   33.9336   25.9485 C   0  0  0  0  0  0  0  0  0  0  0  0
   36.9422   32.9254   26.8276 C   0  0  0  0  0  0  0  0  0  0  0  0
   35.9385   32.0117   26.6489 N   0  0  0  0  0  0  0  0  0  0  0  0
   37.9037   35.0677   25.8609 C   0  0  0  0  0  0  0  0  0  0  0  0
   38.5998   35.9855   25.7607 N   0  0  0  0  0  0  0  0  0  0  0  0
  1  2  1  0  0  0  0
  1  7  1  0  0  0  0
  2  3  1  0  0  0  0
  2  4  2  0  0  0  0
  4  5  1  0  0  0  0
  5  6  2  0  0  0  0
  5 11  1  0  0  0  0
  6  7  1  0  0  0  0
  6  9  1  0  0  0  0
  7  8  2  0  0  0  0
  9 10  2  0  0  0  0
  9 12  1  0  0  0  0
 10 11  1  0  0  0  0
 12 13  3  0  0  0  0
M  END
>  <CHROM.1>
35.54627020,33.64573068,24.78559683,-3.13909873,0.64217016,2.41226545

>  <Name>
ligand

>  <RI>
0

>  <Rbt.Current_Directory>
/home/itssahil/PROJECTS/Mol_Feturizer/New_Systems/rnas/3GCA

>  <Rbt.Executable>
rbdock ($Id: //depot/dev/client3/rdock/2013.1/src/exe/rbdock.cxx#4 $)

>  <Rbt.Library>
libRbt.so (2013.1, Build901 2013/11/27)

>  <Rbt.Parameter_File>
/export/apps/rDock/src/rDock_2013.1_src/data/scripts/dock_solv.prm

>  <Rbt.Receptor>
prm/pocket_docking_2.prm

>  <SCORE>
-18.7739

>  <SCORE.INTER>
-18.7739

>  <SCORE.INTER.CONST>
1

>  <SCORE.INTER.POLAR>
0

>  <SCORE.INTER.ROT>
0

>  <SCORE.INTER.SOLV>
19.8366

>  <SCORE.INTER.VDW>
-22.7281

>  <SCORE.INTER.norm>
-1.44414

>  <SCORE.INTRA>
0

>  <SCORE.INTRA.DIHEDRAL>
0

>  <SCORE.INTRA.DIHEDRAL.0>
0

>  <SCORE.INTRA.POLAR>
0

>  <SCORE.INTRA.POLAR.0>
0

>  <SCORE.INTRA.REPUL>
0

>  <SCORE.INTRA.REPUL.0>
0

>  <SCORE.INTRA.SOLV>
0

>  <SCORE.INTRA.SOLV.lig_0>
-33.1994

>  <SCORE.INTRA.VDW>
0

>  <SCORE.INTRA.VDW.0>
0

>  <SCORE.INTRA.norm>
0

>  <SCORE.RESTR>
0

>  <SCORE.RESTR.CAVITY>
0

>  <SCORE.RESTR.norm>
0

>  <SCORE.SYSTEM>
0

>  <SCORE.SYSTEM.CONST>
0

>  <SCORE.SYSTEM.DIHEDRAL>
0

>  <SCORE.SYSTEM.SOLV>
0

>  <SCORE.SYSTEM.norm>
0

>  <SCORE.heavy>
13

>  <SCORE.norm>
-1.44414

>  <RMSD>
0.205

$$$$
ligand
 OpenBabel11021811473D
libRbt.so/2013.1/901 2013/11/27
 13 14  0  0  0  0  0  0  0  0999 V2000
   34.2386   33.9832   23.1126 N   0  0  0  0  0  0  0  0  0  0  0  0
   33.4984   32.6645   23.5852 C   0  0  0  0  0  0  0  0  0  0  0  0
   32.4207   32.2013   22.8561 N   0  0  0  0  0  0  0  0  0  0  0  0
   34.0055   32.1891   24.6438 N   0  0  0  0  0  0  0  0  0  0  0  0
   35.0541   32.5920   25.3870 C   0  0  0  0  0  0  0  0  0  0  0  0
   35.7461   33.6983   25.0510 C   0  0  0  0  0  0  0  0  0  0  0  0
   35.2737   34.4914   23.7693 C   0  0  0  0  0  0  0  0  0  0  0  0
   35.8942   35.4639   23.4818 O   0  0  0  0  0  0  0  0  0  0  0  0
   36.8912   34.0052   26.0340 C   0  0  0  0  0  0  0  0  0  0  0  0
   36.8427   33.0253   26.9434 C   0  0  0  0  0  0  0  0  0  0  0  0
   35.8434   32.1083   26.7577 N   0  0  0  0  0  0  0  0  0  0  0  0
   37.8445   35.1342   25.9447 C   0  0  0  0  0  0  0  0  0  0  0  0
   38.5463   36.0472   25.8406 N   0  0  0  0  0  0  0  0  0  0  0  0
  1  2  1  0  0  0  0
  1  7  1  0  0  0  0
  2  3  1  0  0  0  0
  2  4  2  0  0  0  0
  4  5  1  0  0  0  0
  5  6  2  0  0  0  0
  5 11  1  0  0  0  0
  6  7  1  0  0  0  0
  6  9  1  0  0  0  0
  7  8  2  0  0  0  0
  9 10  2  0  0  0  0
  9 12  1  0  0  0  0
 10 11  1  0  0  0  0
 12 13  3  0  0  0  0
M  END
>  <CHROM.1>
35.52286089,33.68320501,24.83094936,-3.10595870,0.66664848,2.36047021

>  <Name>
ligand

>  <RI>
0

>  <Rbt.Current_Directory>
/home/itssahil/PROJECTS/Mol_Feturizer/New_Systems/rnas/3GCA

>  <Rbt.Executable>
rbdock ($Id: //depot/dev/client3/rdock/2013.1/src/exe/rbdock.cxx#4 $)

>  <Rbt.Library>
libRbt.so (2013.1, Build901 2013/11/27)

>  <Rbt.Parameter_File>
/export/apps/rDock/src/rDock_2013.1_src/data/scripts/dock_solv.prm

>  <Rbt.Receptor>
prm/pocket_docking_2.prm

>  <SCORE>
-18.8108

>  <SCORE.INTER>
-18.8108

>  <SCORE.INTER.CONST>
1

>  <SCORE.INTER.POLAR>
0

>  <SCORE.INTER.ROT>
0

>  <SCORE.INTER.SOLV>
19.809

>  <SCORE.INTER.VDW>
-22.7435

>  <SCORE.INTER.norm>
-1.44698

>  <SCORE.INTRA>
0

>  <SCORE.INTRA.DIHEDRAL>
0

>  <SCORE.INTRA.DIHEDRAL.0>
0

>  <SCORE.INTRA.POLAR>
0

>  <SCORE.INTRA.POLAR.0>
0

>  <SCORE.INTRA.REPUL>
0

>  <SCORE.INTRA.REPUL.0>
0

>  <SCORE.INTRA.SOLV>
0

>  <SCORE.INTRA.SOLV.lig_0>
-33.1994

>  <SCORE.INTRA.VDW>
0

>  <SCORE.INTRA.VDW.0>
0

>  <SCORE.INTRA.norm>
0

>  <SCORE.RESTR>
0

>  <SCORE.RESTR.CAVITY>
0

>  <SCORE.RESTR.norm>
0

>  <SCORE.SYSTEM>
0

>  <SCORE.SYSTEM.CONST>
0

>  <SCORE.SYSTEM.DIHEDRAL>
0

>  <SCORE.SYSTEM.SOLV>
0

>  <SCORE.SYSTEM.norm>
0

>  <SCORE.heavy>
13

>  <SCORE.norm>
-1.44698

>  <RMSD>
0.211

$$$$
ligand
 OpenBabel11021811473D
libRbt.so/2013.1/901 2013/11/27
 13 14  0  0  0  0  0  0  0  0999 V2000
   34.2559   33.9710   23.1232 N   0  0  0  0  0  0  0  0  0  0  0  0
   33.5136   32.6537   23.5966 C   0  0  0  0  0  0  0  0  0  0  0  0
   32.4367   32.1904   22.8664 N   0  0  0  0  0  0  0  0  0  0  0  0
   34.0184   32.1795   24.6568 N   0  0  0  0  0  0  0  0  0  0  0  0
   35.0661   32.5826   25.4012 C   0  0  0  0  0  0  0  0  0  0  0  0
   35.7597   33.6877   25.0647 C   0  0  0  0  0  0  0  0  0  0  0  0
   35.2902   34.4793   23.7809 C   0  0  0  0  0  0  0  0  0  0  0  0
   35.9122   35.4508   23.4930 O   0  0  0  0  0  0  0  0  0  0  0  0
   36.9034   33.9950   26.0492 C   0  0  0  0  0  0  0  0  0  0  0  0
   36.8524   33.0166   26.9600 C   0  0  0  0  0  0  0  0  0  0  0  0
   35.8525   32.1002   26.7740 N   0  0  0  0  0  0  0  0  0  0  0  0
   37.8579   35.1231   25.9598 C   0  0  0  0  0  0  0  0  0  0  0  0
   38.5608   36.0352   25.8555 N   0  0  0  0  0  0  0  0  0  0  0  0
  1  2  1  0  0  0  0
  1  7  1  0  0  0  0
  2  3  1  0  0  0  0
  2  4  2  0  0  0  0
  4  5  1  0  0  0  0
  5  6  2  0  0  0  0
  5 11  1  0  0  0  0
  6  7  1  0  0  0  0
  6  9  1  0  0  0  0
  7  8  2  0  0  0  0
  9 10  2  0  0  0  0
  9 12  1  0  0  0  0
 10 11  1  0  0  0  0
 12 13  3  0  0  0  0
M  END
>  <CHROM.1>
35.53685014,33.67248559,24.84425653,-3.10355690,0.66721219,2.35744445

>  <Name>
ligand

>  <RI>
0

>  <Rbt.Current_Directory>
/home/itssahil/PROJECTS/Mol_Feturizer/New_Systems/rnas/3GCA

>  <Rbt.Executable>
rbdock ($Id: //depot/dev/client3/rdock/2013.1/src/exe/rbdock.cxx#4 $)

>  <Rbt.Library>
libRbt.so (2013.1, Build901 2013/11/27)

>  <Rbt.Parameter_File>
/export/apps/rDock/src/rDock_2013.1_src/data/scripts/dock_solv.prm

>  <Rbt.Receptor>
prm/pocket_docking_2.prm

>  <SCORE>
-18.7843

>  <SCORE.INTER>
-18.7843

>  <SCORE.INTER.CONST>
1

>  <SCORE.INTER.POLAR>
0

>  <SCORE.INTER.ROT>
0

>  <SCORE.INTER.SOLV>
19.7699

>  <SCORE.INTER.VDW>
-22.7129

>  <SCORE.INTER.norm>
-1.44495

>  <SCORE.INTRA>
0

>  <SCORE.INTRA.DIHEDRAL>
0

>  <SCORE.INTRA.DIHEDRAL.0>
0

>  <SCORE.INTRA.POLAR>
0

>  <SCORE.INTRA.POLAR.0>
0

>  <SCORE.INTRA.REPUL>
0

>  <SCORE.INTRA.REPUL.0>
0

>  <SCORE.INTRA.SOLV>
0

>  <SCORE.INTRA.SOLV.lig_0>
-33.1994

>  <SCORE.INTRA.VDW>
0

>  <SCORE.INTRA.VDW.0>
0

>  <SCORE.INTRA.norm>
0

>  <SCORE.RESTR>
0

>  <SCORE.RESTR.CAVITY>
0

>  <SCORE.RESTR.norm>
0

>  <SCORE.SYSTEM>
0

>  <SCORE.SYSTEM.CONST>
0

>  <SCORE.SYSTEM.DIHEDRAL>
0

>  <SCORE.SYSTEM.SOLV>
0

>  <SCORE.SYSTEM.norm>
0

>  <SCORE.heavy>
13

>  <SCORE.norm>
-1.44495

>  <RMSD>
0.219

$$$$
ligand
 OpenBabel11021811473D
libRbt.so/2013.1/901 2013/11/27
 13 14  0  0  0  0  0  0  0  0999 V2000
   34.2739   33.9359   23.1387 N   0  0  0  0  0  0  0  0  0  0  0  0
   33.5545   32.6012   23.5986 C   0  0  0  0  0  0  0  0  0  0  0  0
   32.4826   32.1295   22.8664 N   0  0  0  0  0  0  0  0  0  0  0  0
   34.0705   32.1225   24.6514 N   0  0  0  0  0  0  0  0  0  0  0  0
   35.1142   32.5334   25.3971 C   0  0  0  0  0  0  0  0  0  0  0  0
   35.7889   33.6535   25.0717 C   0  0  0  0  0  0  0  0  0  0  0  0
   35.3023   34.4527   23.7991 C   0  0  0  0  0  0  0  0  0  0  0  0
   35.9076   35.4375   23.5209 O   0  0  0  0  0  0  0  0  0  0  0  0
   36.9309   33.9673   26.0560 C   0  0  0  0  0  0  0  0  0  0  0  0
   36.8988   32.9773   26.9551 C   0  0  0  0  0  0  0  0  0  0  0  0
   35.9131   32.0473   26.7614 N   0  0  0  0  0  0  0  0  0  0  0  0
   37.8669   35.1115   25.9772 C   0  0  0  0  0  0  0  0  0  0  0  0
   38.5547   36.0360   25.8816 N   0  0  0  0  0  0  0  0  0  0  0  0
  1  2  1  0  0  0  0
  1  7  1  0  0  0  0
  2  3  1  0  0  0  0
  2  4  2  0  0  0  0
  4  5  1  0  0  0  0
  5  6  2  0  0  0  0
  5 11  1  0  0  0  0
  6  7  1  0  0  0  0
  6  9  1  0  0  0  0
  7  8  2  0  0  0  0
  9 10  2  0  0  0  0
  9 12  1  0  0  0  0
 10 11  1  0  0  0  0
 12 13  3  0  0  0  0
M  END
>  <CHROM.1>
35.56550793,33.63731872,24.85182923,-3.12125907,0.67599337,2.38050353

>  <Name>
ligand

>  <RI>
0

>  <Rbt.Current_Directory>
/home/itssahil/PROJECTS/Mol_Feturizer/New_Systems/rnas/3GCA

>  <Rbt.Executable>
rbdock ($Id: //depot/dev/client3/rdock/2013.1/src/exe/rbdock.cxx#4 $)

>  <Rbt.Library>
libRbt.so (2013.1, Build901 2013/11/27)

>  <Rbt.Parameter_File>
/export/apps/rDock/src/rDock_2013.1_src/data/scripts/dock_solv.prm

>  <Rbt.Receptor>
prm/pocket_docking_2.prm

>  <SCORE>
-18.7883

>  <SCORE.INTER>
-18.7883

>  <SCORE.INTER.CONST>
1

>  <SCORE.INTER.POLAR>
0

>  <SCORE.INTER.ROT>
0

>  <SCORE.INTER.SOLV>
19.7179

>  <SCORE.INTER.VDW>
-22.6982

>  <SCORE.INTER.norm>
-1.44525

>  <SCORE.INTRA>
0

>  <SCORE.INTRA.DIHEDRAL>
0

>  <SCORE.INTRA.DIHEDRAL.0>
0

>  <SCORE.INTRA.POLAR>
0

>  <SCORE.INTRA.POLAR.0>
0

>  <SCORE.INTRA.REPUL>
0

>  <SCORE.INTRA.REPUL.0>
0

>  <SCORE.INTRA.SOLV>
0

>  <SCORE.INTRA.SOLV.lig_0>
-33.1994

>  <SCORE.INTRA.VDW>
0

>  <SCORE.INTRA.VDW.0>
0

>  <SCORE.INTRA.norm>
0

>  <SCORE.RESTR>
0

>  <SCORE.RESTR.CAVITY>
0

>  <SCORE.RESTR.norm>
0

>  <SCORE.SYSTEM>
0

>  <SCORE.SYSTEM.CONST>
0

>  <SCORE.SYSTEM.DIHEDRAL>
0

>  <SCORE.SYSTEM.SOLV>
0

>  <SCORE.SYSTEM.norm>
0

>  <SCORE.heavy>
13

>  <SCORE.norm>
-1.44525

>  <RMSD>
0.239

$$$$
ligand
 OpenBabel11021811473D
libRbt.so/2013.1/901 2013/11/27
 13 14  0  0  0  0  0  0  0  0999 V2000
   34.2832   33.9537   23.1486 N   0  0  0  0  0  0  0  0  0  0  0  0
   33.5573   32.6220   23.6066 C   0  0  0  0  0  0  0  0  0  0  0  0
   32.4839   32.1559   22.8730 N   0  0  0  0  0  0  0  0  0  0  0  0
   34.0701   32.1398   24.6594 N   0  0  0  0  0  0  0  0  0  0  0  0
   35.1150   32.5453   25.4065 C   0  0  0  0  0  0  0  0  0  0  0  0
   35.7951   33.6625   25.0827 C   0  0  0  0  0  0  0  0  0  0  0  0
   35.3134   34.4652   23.8104 C   0  0  0  0  0  0  0  0  0  0  0  0
   35.9235   35.4474   23.5337 O   0  0  0  0  0  0  0  0  0  0  0  0
   36.9377   33.9701   26.0684 C   0  0  0  0  0  0  0  0  0  0  0  0
   36.9001   32.9794   26.9666 C   0  0  0  0  0  0  0  0  0  0  0  0
   35.9103   32.0542   26.7711 N   0  0  0  0  0  0  0  0  0  0  0  0
   37.8790   35.1100   25.9915 C   0  0  0  0  0  0  0  0  0  0  0  0
   38.5712   36.0314   25.8973 N   0  0  0  0  0  0  0  0  0  0  0  0
  1  2  1  0  0  0  0
  1  7  1  0  0  0  0
  2  3  1  0  0  0  0
  2  4  2  0  0  0  0
  4  5  1  0  0  0  0
  5  6  2  0  0  0  0
  5 11  1  0  0  0  0
  6  7  1  0  0  0  0
  6  9  1  0  0  0  0
  7  8  2  0  0  0  0
  9 10  2  0  0  0  0
  9 12  1  0  0  0  0
 10 11  1  0  0  0  0
 12 13  3  0  0  0  0
M  END
>  <CHROM.1>
35.57187502,33.64757773,24.86264479,-3.11615935,0.67345241,2.37825034

>  <Name>
ligand

>  <RI>
0

>  <Rbt.Current_Directory>
/home/itssahil/PROJECTS/Mol_Feturizer/New_Systems/rnas/3GCA

>  <Rbt.Executable>
rbdock ($Id: //depot/dev/client3/rdock/2013.1/src/exe/rbdock.cxx#4 $)

>  <Rbt.Library>
libRbt.so (2013.1, Build901 2013/11/27)

>  <Rbt.Parameter_File>
/export/apps/rDock/src/rDock_2013.1_src/data/scripts/dock_solv.prm

>  <Rbt.Receptor>
prm/pocket_docking_2.prm

>  <SCORE>
-18.7852

>  <SCORE.INTER>
-18.7852

>  <SCORE.INTER.CONST>
1

>  <SCORE.INTER.POLAR>
0

>  <SCORE.INTER.ROT>
0

>  <SCORE.INTER.SOLV>
19.6741

>  <SCORE.INTER.VDW>
-22.6815

>  <SCORE.INTER.norm>
-1.44501

>  <SCORE.INTRA>
0

>  <SCORE.INTRA.DIHEDRAL>
0

>  <SCORE.INTRA.DIHEDRAL.0>
0

>  <SCORE.INTRA.POLAR>
0

>  <SCORE.INTRA.POLAR.0>
0

>  <SCORE.INTRA.REPUL>
0

>  <SCORE.INTRA.REPUL.0>
0

>  <SCORE.INTRA.SOLV>
0

>  <SCORE.INTRA.SOLV.lig_0>
-33.1994

>  <SCORE.INTRA.VDW>
0

>  <SCORE.INTRA.VDW.0>
0

>  <SCORE.INTRA.norm>
0

>  <SCORE.RESTR>
2.1774e-06

>  <SCORE.RESTR.CAVITY>
2.1774e-06

>  <SCORE.RESTR.norm>
1.67492e-07

>  <SCORE.SYSTEM>
0

>  <SCORE.SYSTEM.CONST>
0

>  <SCORE.SYSTEM.DIHEDRAL>
0

>  <SCORE.SYSTEM.SOLV>
0

>  <SCORE.SYSTEM.norm>
0

>  <SCORE.heavy>
13

>  <SCORE.norm>
-1.44501

>  <RMSD>
0.245

$$$$
ligand
 OpenBabel11021811473D
libRbt.so/2013.1/901 2013/11/27
 13 14  0  0  0  0  0  0  0  0999 V2000
   34.3092   33.9721   23.1151 N   0  0  0  0  0  0  0  0  0  0  0  0
   33.5852   32.6323   23.5524 C   0  0  0  0  0  0  0  0  0  0  0  0
   32.5196   32.1701   22.8050 N   0  0  0  0  0  0  0  0  0  0  0  0
   34.0916   32.1405   24.6038 N   0  0  0  0  0  0  0  0  0  0  0  0
   35.1288   32.5418   25.3637 C   0  0  0  0  0  0  0  0  0  0  0  0
   35.8069   33.6654   25.0578 C   0  0  0  0  0  0  0  0  0  0  0  0
   35.3319   34.4803   23.7908 C   0  0  0  0  0  0  0  0  0  0  0  0
   35.9401   35.4680   23.5300 O   0  0  0  0  0  0  0  0  0  0  0  0
   36.9402   33.9666   26.0560 C   0  0  0  0  0  0  0  0  0  0  0  0
   36.8997   32.9658   26.9427 C   0  0  0  0  0  0  0  0  0  0  0  0
   35.9153   32.0387   26.7290 N   0  0  0  0  0  0  0  0  0  0  0  0
   37.8774   35.1111   25.9993 C   0  0  0  0  0  0  0  0  0  0  0  0
   38.5664   36.0364   25.9210 N   0  0  0  0  0  0  0  0  0  0  0  0
  1  2  1  0  0  0  0
  1  7  1  0  0  0  0
  2  3  1  0  0  0  0
  2  4  2  0  0  0  0
  4  5  1  0  0  0  0
  5  6  2  0  0  0  0
  5 11  1  0  0  0  0
  6  7  1  0  0  0  0
  6  9  1  0  0  0  0
  7  8  2  0  0  0  0
  9 10  2  0  0  0  0
  9 12  1  0  0  0  0
 10 11  1  0  0  0  0
 12 13  3  0  0  0  0
M  END
>  <CHROM.1>
35.58542178,33.65201189,24.83582879,-3.11295928,0.68208406,2.38742220

>  <Name>
ligand

>  <RI>
0

>  <Rbt.Current_Directory>
/home/itssahil/PROJECTS/Mol_Feturizer/New_Systems/rnas/3GCA

>  <Rbt.Executable>
rbdock ($Id: //depot/dev/client3/rdock/2013.1/src/exe/rbdock.cxx#4 $)

>  <Rbt.Library>
libRbt.so (2013.1, Build901 2013/11/27)

>  <Rbt.Parameter_File>
/export/apps/rDock/src/rDock_2013.1_src/data/scripts/dock_solv.prm

>  <Rbt.Receptor>
prm/pocket_docking_2.prm

>  <SCORE>
-18.7686

>  <SCORE.INTER>
-18.7686

>  <SCORE.INTER.CONST>
1

>  <SCORE.INTER.POLAR>
0

>  <SCORE.INTER.ROT>
0

>  <SCORE.INTER.SOLV>
19.6634

>  <SCORE.INTER.VDW>
-22.6669

>  <SCORE.INTER.norm>
-1.44374

>  <SCORE.INTRA>
0

>  <SCORE.INTRA.DIHEDRAL>
0

>  <SCORE.INTRA.DIHEDRAL.0>
0

>  <SCORE.INTRA.POLAR>
0

>  <SCORE.INTRA.POLAR.0>
0

>  <SCORE.INTRA.REPUL>
0

>  <SCORE.INTRA.REPUL.0>
0

>  <SCORE.INTRA.SOLV>
0

>  <SCORE.INTRA.SOLV.lig_0>
-33.1994

>  <SCORE.INTRA.VDW>
0

>  <SCORE.INTRA.VDW.0>
0

>  <SCORE.INTRA.norm>
0

>  <SCORE.RESTR>
0

>  <SCORE.RESTR.CAVITY>
0

>  <SCORE.RESTR.norm>
0

>  <SCORE.SYSTEM>
0

>  <SCORE.SYSTEM.CONST>
0

>  <SCORE.SYSTEM.DIHEDRAL>
0

>  <SCORE.SYSTEM.SOLV>
0

>  <SCORE.SYSTEM.norm>
0

>  <SCORE.heavy>
13

>  <SCORE.norm>
-1.44374

>  <RMSD>
0.245

$$$$
ligand
 OpenBabel11021811473D
libRbt.so/2013.1/901 2013/11/27
 13 14  0  0  0  0  0  0  0  0999 V2000
   34.2974   33.9230   23.0283 N   0  0  0  0  0  0  0  0  0  0  0  0
   33.5009   32.6702   23.5819 C   0  0  0  0  0  0  0  0  0  0  0  0
   32.3803   32.2333   22.9029 N   0  0  0  0  0  0  0  0  0  0  0  0
   34.0107   32.2175   24.6491 N   0  0  0  0  0  0  0  0  0  0  0  0
   35.0994   32.5965   25.3458 C   0  0  0  0  0  0  0  0  0  0  0  0
   35.8402   33.6464   24.9400 C   0  0  0  0  0  0  0  0  0  0  0  0
   35.3758   34.4037   23.6339 C   0  0  0  0  0  0  0  0  0  0  0  0
   36.0394   35.3264   23.2848 O   0  0  0  0  0  0  0  0  0  0  0  0
   37.0266   33.9355   25.8783 C   0  0  0  0  0  0  0  0  0  0  0  0
   36.9507   33.0031   26.8346 C   0  0  0  0  0  0  0  0  0  0  0  0
   35.8990   32.1345   26.7180 N   0  0  0  0  0  0  0  0  0  0  0  0
   38.0362   35.0053   25.7114 C   0  0  0  0  0  0  0  0  0  0  0  0
   38.7828   35.8726   25.5462 N   0  0  0  0  0  0  0  0  0  0  0  0
  1  2  1  0  0  0  0
  1  7  1  0  0  0  0
  2  3  1  0  0  0  0
  2  4  2  0  0  0  0
  4  5  1  0  0  0  0
  5  6  2  0  0  0  0
  5 11  1  0  0  0  0
  6  7  1  0  0  0  0
  6  9  1  0  0  0  0
  7  8  2  0  0  0  0
  9 10  2  0  0  0  0
  9 12  1  0  0  0  0
 10 11  1  0  0  0  0
 12 13  3  0  0  0  0
M  END
>  <CHROM.1>
35.61047182,33.63335087,24.72655174,-3.08317624,0.60929235,2.29962691

>  <Name>
ligand

>  <RI>
0

>  <Rbt.Current_Directory>
/home/itssahil/PROJECTS/Mol_Feturizer/New_Systems/rnas/3GCA

>  <Rbt.Executable>
rbdock ($Id: //depot/dev/client3/rdock/2013.1/src/exe/rbdock.cxx#4 $)

>  <Rbt.Library>
libRbt.so (2013.1, Build901 2013/11/27)

>  <Rbt.Parameter_File>
/export/apps/rDock/src/rDock_2013.1_src/data/scripts/dock_solv.prm

>  <Rbt.Receptor>
prm/blind_docking_80.prm

>  <SCORE>
-18.8912

>  <SCORE.INTER>
-18.8912

>  <SCORE.INTER.CONST>
1

>  <SCORE.INTER.POLAR>
0

>  <SCORE.INTER.ROT>
0

>  <SCORE.INTER.SOLV>
19.9186

>  <SCORE.INTER.VDW>
-22.8337

>  <SCORE.INTER.norm>
-1.45317

>  <SCORE.INTRA>
0

>  <SCORE.INTRA.DIHEDRAL>
0

>  <SCORE.INTRA.DIHEDRAL.0>
0

>  <SCORE.INTRA.POLAR>
0

>  <SCORE.INTRA.POLAR.0>
0

>  <SCORE.INTRA.REPUL>
0

>  <SCORE.INTRA.REPUL.0>
0

>  <SCORE.INTRA.SOLV>
0

>  <SCORE.INTRA.SOLV.lig_0>
-33.1994

>  <SCORE.INTRA.VDW>
0

>  <SCORE.INTRA.VDW.0>
0

>  <SCORE.INTRA.norm>
0

>  <SCORE.RESTR>
0

>  <SCORE.RESTR.CAVITY>
0

>  <SCORE.RESTR.norm>
0

>  <SCORE.SYSTEM>
0

>  <SCORE.SYSTEM.CONST>
0

>  <SCORE.SYSTEM.DIHEDRAL>
0

>  <SCORE.SYSTEM.SOLV>
0

>  <SCORE.SYSTEM.norm>
0

>  <SCORE.heavy>
13

>  <SCORE.norm>
-1.45317

>  <RMSD>
0.266

$$$$
ligand
 OpenBabel11021811473D
libRbt.so/2013.1/901 2013/11/27
 13 14  0  0  0  0  0  0  0  0999 V2000
   34.3286   33.9054   23.0202 N   0  0  0  0  0  0  0  0  0  0  0  0
   33.5278   32.6600   23.5842 C   0  0  0  0  0  0  0  0  0  0  0  0
   32.4155   32.2109   22.8997 N   0  0  0  0  0  0  0  0  0  0  0  0
   34.0263   32.2247   24.6640 N   0  0  0  0  0  0  0  0  0  0  0  0
   35.1065   32.6162   25.3668 C   0  0  0  0  0  0  0  0  0  0  0  0
   35.8503   33.6609   24.9531 C   0  0  0  0  0  0  0  0  0  0  0  0
   35.3995   34.3971   23.6303 C   0  0  0  0  0  0  0  0  0  0  0  0
   36.0656   35.3154   23.2744 O   0  0  0  0  0  0  0  0  0  0  0  0
   37.0258   33.9664   25.9000 C   0  0  0  0  0  0  0  0  0  0  0  0
   36.9405   33.0488   26.8697 C   0  0  0  0  0  0  0  0  0  0  0  0
   35.8914   32.1768   26.7549 N   0  0  0  0  0  0  0  0  0  0  0  0
   38.0356   35.0351   25.7278 C   0  0  0  0  0  0  0  0  0  0  0  0
   38.7827   35.9009   25.5575 N   0  0  0  0  0  0  0  0  0  0  0  0
  1  2  1  0  0  0  0
  1  7  1  0  0  0  0
  2  3  1  0  0  0  0
  2  4  2  0  0  0  0
  4  5  1  0  0  0  0
  5  6  2  0  0  0  0
  5 11  1  0  0  0  0
  6  7  1  0  0  0  0
  6  9  1  0  0  0  0
  7  8  2  0  0  0  0
  9 10  2  0  0  0  0
  9 12  1  0  0  0  0
 10 11  1  0  0  0  0
 12 13  3  0  0  0  0
M  END
>  <CHROM.1>
35.62302185,33.64415943,24.73734158,-3.07412256,0.61779677,2.27891599

>  <Name>
ligand

>  <RI>
0

>  <Rbt.Current_Directory>
/home/itssahil/PROJECTS/Mol_Feturizer/New_Systems/rnas/3GCA

>  <Rbt.Executable>
rbdock ($Id: //depot/dev/client3/rdock/2013.1/src/exe/rbdock.cxx#4 $)

>  <Rbt.Library>
libRbt.so (2013.1, Build901 2013/11/27)

>  <Rbt.Parameter_File>
/export/apps/rDock/src/rDock_2013.1_src/data/scripts/dock_solv.prm

>  <Rbt.Receptor>
prm/blind_docking_60.prm

>  <SCORE>
-18.8792

>  <SCORE.INTER>
-18.8792

>  <SCORE.INTER.CONST>
1

>  <SCORE.INTER.POLAR>
0

>  <SCORE.INTER.ROT>
0

>  <SCORE.INTER.SOLV>
19.8772

>  <SCORE.INTER.VDW>
-22.8118

>  <SCORE.INTER.norm>
-1.45224

>  <SCORE.INTRA>
0

>  <SCORE.INTRA.DIHEDRAL>
0

>  <SCORE.INTRA.DIHEDRAL.0>
0

>  <SCORE.INTRA.POLAR>
0

>  <SCORE.INTRA.POLAR.0>
0

>  <SCORE.INTRA.REPUL>
0

>  <SCORE.INTRA.REPUL.0>
0

>  <SCORE.INTRA.SOLV>
0

>  <SCORE.INTRA.SOLV.lig_0>
-33.1994

>  <SCORE.INTRA.VDW>
0

>  <SCORE.INTRA.VDW.0>
0

>  <SCORE.INTRA.norm>
0

>  <SCORE.RESTR>
0

>  <SCORE.RESTR.CAVITY>
0

>  <SCORE.RESTR.norm>
0

>  <SCORE.SYSTEM>
0

>  <SCORE.SYSTEM.CONST>
0

>  <SCORE.SYSTEM.DIHEDRAL>
0

>  <SCORE.SYSTEM.SOLV>
0

>  <SCORE.SYSTEM.norm>
0

>  <SCORE.heavy>
13

>  <SCORE.norm>
-1.45224

>  <RMSD>
0.282

$$$$
ligand
 OpenBabel11021811473D
libRbt.so/2013.1/901 2013/11/27
 13 14  0  0  0  0  0  0  0  0999 V2000
   34.3084   33.9113   23.0373 N   0  0  0  0  0  0  0  0  0  0  0  0
   33.5257   32.6531   23.5982 C   0  0  0  0  0  0  0  0  0  0  0  0
   32.4034   32.2069   22.9281 N   0  0  0  0  0  0  0  0  0  0  0  0
   34.0468   32.2056   24.6622 N   0  0  0  0  0  0  0  0  0  0  0  0
   35.1377   32.5938   25.3503 C   0  0  0  0  0  0  0  0  0  0  0  0
   35.8674   33.6488   24.9378 C   0  0  0  0  0  0  0  0  0  0  0  0
   35.3876   34.4010   23.6343 C   0  0  0  0  0  0  0  0  0  0  0  0
   36.0415   35.3283   23.2793 O   0  0  0  0  0  0  0  0  0  0  0  0
   37.0585   33.9480   25.8669 C   0  0  0  0  0  0  0  0  0  0  0  0
   36.9969   33.0162   26.8248 C   0  0  0  0  0  0  0  0  0  0  0  0
   35.9510   32.1395   26.7170 N   0  0  0  0  0  0  0  0  0  0  0  0
   38.0586   35.0253   25.6912 C   0  0  0  0  0  0  0  0  0  0  0  0
   38.7973   35.8981   25.5195 N   0  0  0  0  0  0  0  0  0  0  0  0
  1  2  1  0  0  0  0
  1  7  1  0  0  0  0
  2  3  1  0  0  0  0
  2  4  2  0  0  0  0
  4  5  1  0  0  0  0
  5  6  2  0  0  0  0
  5 11  1  0  0  0  0
  6  7  1  0  0  0  0
  6  9  1  0  0  0  0
  7  8  2  0  0  0  0
  9 10  2  0  0  0  0
  9 12  1  0  0  0  0
 10 11  1  0  0  0  0
 12 13  3  0  0  0  0
M  END
>  <CHROM.1>
35.63622522,33.63371878,24.72609316,-3.09614655,0.60999477,2.30588564

>  <Name>
ligand

>  <RI>
0

>  <Rbt.Current_Directory>
/home/itssahil/PROJECTS/Mol_Feturizer/New_Systems/rnas/3GCA

>  <Rbt.Executable>
rbdock ($Id: //depot/dev/client3/rdock/2013.1/src/exe/rbdock.cxx#4 $)

>  <Rbt.Library>
libRbt.so (2013.1, Build901 2013/11/27)

>  <Rbt.Parameter_File>
/export/apps/rDock/src/rDock_2013.1_src/data/scripts/dock_solv.prm

>  <Rbt.Receptor>
prm/blind_docking_100.prm

>  <SCORE>
-18.8948

>  <SCORE.INTER>
-18.8948

>  <SCORE.INTER.CONST>
1

>  <SCORE.INTER.POLAR>
0

>  <SCORE.INTER.ROT>
0

>  <SCORE.INTER.SOLV>
19.8921

>  <SCORE.INTER.VDW>
-22.8273

>  <SCORE.INTER.norm>
-1.45345

>  <SCORE.INTRA>
0

>  <SCORE.INTRA.DIHEDRAL>
0

>  <SCORE.INTRA.DIHEDRAL.0>
0

>  <SCORE.INTRA.POLAR>
0

>  <SCORE.INTRA.POLAR.0>
0

>  <SCORE.INTRA.REPUL>
0

>  <SCORE.INTRA.REPUL.0>
0

>  <SCORE.INTRA.SOLV>
0

>  <SCORE.INTRA.SOLV.lig_0>
-33.1994

>  <SCORE.INTRA.VDW>
0

>  <SCORE.INTRA.VDW.0>
0

>  <SCORE.INTRA.norm>
0

>  <SCORE.RESTR>
0

>  <SCORE.RESTR.CAVITY>
0

>  <SCORE.RESTR.norm>
0

>  <SCORE.SYSTEM>
0

>  <SCORE.SYSTEM.CONST>
0

>  <SCORE.SYSTEM.DIHEDRAL>
0

>  <SCORE.SYSTEM.SOLV>
0

>  <SCORE.SYSTEM.norm>
0

>  <SCORE.heavy>
13

>  <SCORE.norm>
-1.45345

>  <RMSD>
0.297

$$$$
ligand
 OpenBabel11021811473D
libRbt.so/2013.1/901 2013/11/27
 13 14  0  0  0  0  0  0  0  0999 V2000
   34.3104   33.9746   23.1870 N   0  0  0  0  0  0  0  0  0  0  0  0
   33.6185   32.6148   23.6140 C   0  0  0  0  0  0  0  0  0  0  0  0
   32.5546   32.1406   22.8718 N   0  0  0  0  0  0  0  0  0  0  0  0
   34.1461   32.1197   24.6534 N   0  0  0  0  0  0  0  0  0  0  0  0
   35.1831   32.5322   25.4077 C   0  0  0  0  0  0  0  0  0  0  0  0
   35.8348   33.6733   25.1097 C   0  0  0  0  0  0  0  0  0  0  0  0
   35.3298   34.4948   23.8587 C   0  0  0  0  0  0  0  0  0  0  0  0
   35.9149   35.4981   23.6047 O   0  0  0  0  0  0  0  0  0  0  0  0
   36.9725   33.9846   26.0999 C   0  0  0  0  0  0  0  0  0  0  0  0
   36.9618   32.9716   26.9736 C   0  0  0  0  0  0  0  0  0  0  0  0
   35.9943   32.0275   26.7579 N   0  0  0  0  0  0  0  0  0  0  0  0
   37.8855   35.1487   26.0486 C   0  0  0  0  0  0  0  0  0  0  0  0
   38.5547   36.0888   25.9754 N   0  0  0  0  0  0  0  0  0  0  0  0
  1  2  1  0  0  0  0
  1  7  1  0  0  0  0
  2  3  1  0  0  0  0
  2  4  2  0  0  0  0
  4  5  1  0  0  0  0
  5  6  2  0  0  0  0
  5 11  1  0  0  0  0
  6  7  1  0  0  0  0
  6  9  1  0  0  0  0
  7  8  2  0  0  0  0
  9 10  2  0  0  0  0
  9 12  1  0  0  0  0
 10 11  1  0  0  0  0
 12 13  3  0  0  0  0
M  END
>  <CHROM.1>
35.61130596,33.65831317,24.88988975,3.14150945,0.68798580,2.41878748

>  <Name>
ligand

>  <RI>
0

>  <Rbt.Current_Directory>
/home/itssahil/PROJECTS/Mol_Feturizer/New_Systems/rnas/3GCA

>  <Rbt.Executable>
rbdock ($Id: //depot/dev/client3/rdock/2013.1/src/exe/rbdock.cxx#4 $)

>  <Rbt.Library>
libRbt.so (2013.1, Build901 2013/11/27)

>  <Rbt.Parameter_File>
/export/apps/rDock/src/rDock_2013.1_src/data/scripts/dock_solv.prm

>  <Rbt.Receptor>
prm/blind_docking_80.prm

>  <SCORE>
-18.8557

>  <SCORE.INTER>
-18.8557

>  <SCORE.INTER.CONST>
1

>  <SCORE.INTER.POLAR>
0

>  <SCORE.INTER.ROT>
0

>  <SCORE.INTER.SOLV>
19.5201

>  <SCORE.INTER.VDW>
-22.6772

>  <SCORE.INTER.norm>
-1.45044

>  <SCORE.INTRA>
0

>  <SCORE.INTRA.DIHEDRAL>
0

>  <SCORE.INTRA.DIHEDRAL.0>
0

>  <SCORE.INTRA.POLAR>
0

>  <SCORE.INTRA.POLAR.0>
0

>  <SCORE.INTRA.REPUL>
0

>  <SCORE.INTRA.REPUL.0>
0

>  <SCORE.INTRA.SOLV>
0

>  <SCORE.INTRA.SOLV.lig_0>
-33.1994

>  <SCORE.INTRA.VDW>
0

>  <SCORE.INTRA.VDW.0>
0

>  <SCORE.INTRA.norm>
0

>  <SCORE.RESTR>
0

>  <SCORE.RESTR.CAVITY>
0

>  <SCORE.RESTR.norm>
0

>  <SCORE.SYSTEM>
0

>  <SCORE.SYSTEM.CONST>
0

>  <SCORE.SYSTEM.DIHEDRAL>
0

>  <SCORE.SYSTEM.SOLV>
0

>  <SCORE.SYSTEM.norm>
0

>  <SCORE.heavy>
13

>  <SCORE.norm>
-1.45044

>  <RMSD>
0.304

$$$$
ligand
 OpenBabel11021811473D
libRbt.so/2013.1/901 2013/11/27
 13 14  0  0  0  0  0  0  0  0999 V2000
   34.3416   33.9317   23.0599 N   0  0  0  0  0  0  0  0  0  0  0  0
   33.5348   32.6929   23.6299 C   0  0  0  0  0  0  0  0  0  0  0  0
   32.4174   32.2490   22.9502 N   0  0  0  0  0  0  0  0  0  0  0  0
   34.0340   32.2574   24.7092 N   0  0  0  0  0  0  0  0  0  0  0  0
   35.1191   32.6440   25.4074 C   0  0  0  0  0  0  0  0  0  0  0  0
   35.8681   33.6828   24.9884 C   0  0  0  0  0  0  0  0  0  0  0  0
   35.4175   34.4183   23.6651 C   0  0  0  0  0  0  0  0  0  0  0  0
   36.0882   35.3313   23.3044 O   0  0  0  0  0  0  0  0  0  0  0  0
   37.0486   33.9834   25.9305 C   0  0  0  0  0  0  0  0  0  0  0  0
   36.9607   33.0690   26.9030 C   0  0  0  0  0  0  0  0  0  0  0  0
   35.9058   32.2034   26.7940 N   0  0  0  0  0  0  0  0  0  0  0  0
   38.0645   35.0452   25.7520 C   0  0  0  0  0  0  0  0  0  0  0  0
   38.8166   35.9058   25.5769 N   0  0  0  0  0  0  0  0  0  0  0  0
  1  2  1  0  0  0  0
  1  7  1  0  0  0  0
  2  3  1  0  0  0  0
  2  4  2  0  0  0  0
  4  5  1  0  0  0  0
  5  6  2  0  0  0  0
  5 11  1  0  0  0  0
  6  7  1  0  0  0  0
  6  9  1  0  0  0  0
  7  8  2  0  0  0  0
  9 10  2  0  0  0  0
  9 12  1  0  0  0  0
 10 11  1  0  0  0  0
 12 13  3  0  0  0  0
M  END
>  <CHROM.1>
35.63996939,33.66690467,24.77338049,-3.07218093,0.61083048,2.27508531

>  <Name>
ligand

>  <RI>
0

>  <Rbt.Current_Directory>
/home/itssahil/PROJECTS/Mol_Feturizer/New_Systems/rnas/3GCA

>  <Rbt.Executable>
rbdock ($Id: //depot/dev/client3/rdock/2013.1/src/exe/rbdock.cxx#4 $)

>  <Rbt.Library>
libRbt.so (2013.1, Build901 2013/11/27)

>  <Rbt.Parameter_File>
/export/apps/rDock/src/rDock_2013.1_src/data/scripts/dock_solv.prm

>  <Rbt.Receptor>
prm/blind_docking_100.prm

>  <SCORE>
-18.9132

>  <SCORE.INTER>
-18.9132

>  <SCORE.INTER.CONST>
1

>  <SCORE.INTER.POLAR>
0

>  <SCORE.INTER.ROT>
0

>  <SCORE.INTER.SOLV>
19.7612

>  <SCORE.INTER.VDW>
-22.7958

>  <SCORE.INTER.norm>
-1.45486

>  <SCORE.INTRA>
0

>  <SCORE.INTRA.DIHEDRAL>
0

>  <SCORE.INTRA.DIHEDRAL.0>
0

>  <SCORE.INTRA.POLAR>
0

>  <SCORE.INTRA.POLAR.0>
0

>  <SCORE.INTRA.REPUL>
0

>  <SCORE.INTRA.REPUL.0>
0

>  <SCORE.INTRA.SOLV>
0

>  <SCORE.INTRA.SOLV.lig_0>
-33.1994

>  <SCORE.INTRA.VDW>
0

>  <SCORE.INTRA.VDW.0>
0

>  <SCORE.INTRA.norm>
0

>  <SCORE.RESTR>
0

>  <SCORE.RESTR.CAVITY>
0

>  <SCORE.RESTR.norm>
0

>  <SCORE.SYSTEM>
0

>  <SCORE.SYSTEM.CONST>
0

>  <SCORE.SYSTEM.DIHEDRAL>
0

>  <SCORE.SYSTEM.SOLV>
0

>  <SCORE.SYSTEM.norm>
0

>  <SCORE.heavy>
13

>  <SCORE.norm>
-1.45486

>  <RMSD>
0.305

$$$$
ligand
 OpenBabel11021811473D
libRbt.so/2013.1/901 2013/11/27
 13 14  0  0  0  0  0  0  0  0999 V2000
   34.3887   33.9204   23.1292 N   0  0  0  0  0  0  0  0  0  0  0  0
   33.6317   32.6155   23.6136 C   0  0  0  0  0  0  0  0  0  0  0  0
   32.5777   32.1329   22.8628 N   0  0  0  0  0  0  0  0  0  0  0  0
   34.1034   32.1692   24.7008 N   0  0  0  0  0  0  0  0  0  0  0  0
   35.1278   32.5921   25.4664 C   0  0  0  0  0  0  0  0  0  0  0  0
   35.8318   33.6884   25.1228 C   0  0  0  0  0  0  0  0  0  0  0  0
   35.4024   34.4460   23.8050 C   0  0  0  0  0  0  0  0  0  0  0  0
   36.0333   35.4100   23.5113 O   0  0  0  0  0  0  0  0  0  0  0  0
   36.9447   34.0218   26.1338 C   0  0  0  0  0  0  0  0  0  0  0  0
   36.8653   33.0673   27.0678 C   0  0  0  0  0  0  0  0  0  0  0  0
   35.8713   32.1460   26.8749 N   0  0  0  0  0  0  0  0  0  0  0  0
   37.9019   35.1475   26.0446 C   0  0  0  0  0  0  0  0  0  0  0  0
   38.6079   36.0570   25.9384 N   0  0  0  0  0  0  0  0  0  0  0  0
  1  2  1  0  0  0  0
  1  7  1  0  0  0  0
  2  3  1  0  0  0  0
  2  4  2  0  0  0  0
  4  5  1  0  0  0  0
  5  6  2  0  0  0  0
  5 11  1  0  0  0  0
  6  7  1  0  0  0  0
  6  9  1  0  0  0  0
  7  8  2  0  0  0  0
  9 10  2  0  0  0  0
  9 12  1  0  0  0  0
 10 11  1  0  0  0  0
 12 13  3  0  0  0  0
M  END
>  <CHROM.1>
35.61584259,33.66733652,24.89612559,-3.07503493,0.68863213,2.31353019

>  <Name>
ligand

>  <RI>
0

>  <Rbt.Current_Directory>
/home/itssahil/PROJECTS/Mol_Feturizer/New_Systems/rnas/3GCA

>  <Rbt.Executable>
rbdock ($Id: //depot/dev/client3/rdock/2013.1/src/exe/rbdock.cxx#4 $)

>  <Rbt.Library>
libRbt.so (2013.1, Build901 2013/11/27)

>  <Rbt.Parameter_File>
/export/apps/rDock/src/rDock_2013.1_src/data/scripts/dock_solv.prm

>  <Rbt.Receptor>
prm/blind_docking_80.prm

>  <SCORE>
-18.8695

>  <SCORE.INTER>
-18.8695

>  <SCORE.INTER.CONST>
1

>  <SCORE.INTER.POLAR>
0

>  <SCORE.INTER.ROT>
0

>  <SCORE.INTER.SOLV>
19.5151

>  <SCORE.INTER.VDW>
-22.6847

>  <SCORE.INTER.norm>
-1.4515

>  <SCORE.INTRA>
0

>  <SCORE.INTRA.DIHEDRAL>
0

>  <SCORE.INTRA.DIHEDRAL.0>
0

>  <SCORE.INTRA.POLAR>
0

>  <SCORE.INTRA.POLAR.0>
0

>  <SCORE.INTRA.REPUL>
0

>  <SCORE.INTRA.REPUL.0>
0

>  <SCORE.INTRA.SOLV>
0

>  <SCORE.INTRA.SOLV.lig_0>
-33.1994

>  <SCORE.INTRA.VDW>
0

>  <SCORE.INTRA.VDW.0>
0

>  <SCORE.INTRA.norm>
0

>  <SCORE.RESTR>
0

>  <SCORE.RESTR.CAVITY>
0

>  <SCORE.RESTR.norm>
0

>  <SCORE.SYSTEM>
0

>  <SCORE.SYSTEM.CONST>
0

>  <SCORE.SYSTEM.DIHEDRAL>
0

>  <SCORE.SYSTEM.SOLV>
0

>  <SCORE.SYSTEM.norm>
0

>  <SCORE.heavy>
13

>  <SCORE.norm>
-1.4515

>  <RMSD>
0.307

$$$$
ligand
 OpenBabel11021811473D
libRbt.so/2013.1/901 2013/11/27
 13 14  0  0  0  0  0  0  0  0999 V2000
   34.3273   33.9894   23.0876 N   0  0  0  0  0  0  0  0  0  0  0  0
   33.5480   32.7208   23.6294 C   0  0  0  0  0  0  0  0  0  0  0  0
   32.4261   32.2826   22.9535 N   0  0  0  0  0  0  0  0  0  0  0  0
   34.0711   32.2579   24.6857 N   0  0  0  0  0  0  0  0  0  0  0  0
   35.1618   32.6377   25.3788 C   0  0  0  0  0  0  0  0  0  0  0  0
   35.8888   33.7007   24.9823 C   0  0  0  0  0  0  0  0  0  0  0  0
   35.4060   34.4721   23.6912 C   0  0  0  0  0  0  0  0  0  0  0  0
   36.0574   35.4063   23.3501 O   0  0  0  0  0  0  0  0  0  0  0  0
   37.0801   33.9881   25.9149 C   0  0  0  0  0  0  0  0  0  0  0  0
   37.0215   33.0413   26.8580 C   0  0  0  0  0  0  0  0  0  0  0  0
   35.9775   32.1640   26.7376 N   0  0  0  0  0  0  0  0  0  0  0  0
   38.0776   35.0702   25.7551 C   0  0  0  0  0  0  0  0  0  0  0  0
   38.8142   35.9473   25.5964 N   0  0  0  0  0  0  0  0  0  0  0  0
  1  2  1  0  0  0  0
  1  7  1  0  0  0  0
  2  3  1  0  0  0  0
  2  4  2  0  0  0  0
  4  5  1  0  0  0  0
  5  6  2  0  0  0  0
  5 11  1  0  0  0  0
  6  7  1  0  0  0  0
  6  9  1  0  0  0  0
  7  8  2  0  0  0  0
  9 10  2  0  0  0  0
  9 12  1  0  0  0  0
 10 11  1  0  0  0  0
 12 13  3  0  0  0  0
M  END
>  <CHROM.1>
35.65741129,33.68844344,24.77054648,-3.09887163,0.61101977,2.32310335

>  <Name>
ligand

>  <RI>
0

>  <Rbt.Current_Directory>
/home/itssahil/PROJECTS/Mol_Feturizer/New_Systems/rnas/3GCA

>  <Rbt.Executable>
rbdock ($Id: //depot/dev/client3/rdock/2013.1/src/exe/rbdock.cxx#4 $)

>  <Rbt.Library>
libRbt.so (2013.1, Build901 2013/11/27)

>  <Rbt.Parameter_File>
/export/apps/rDock/src/rDock_2013.1_src/data/scripts/dock_solv.prm

>  <Rbt.Receptor>
prm/blind_docking_80.prm

>  <SCORE>
-18.948

>  <SCORE.INTER>
-18.948

>  <SCORE.INTER.CONST>
1

>  <SCORE.INTER.POLAR>
0

>  <SCORE.INTER.ROT>
0

>  <SCORE.INTER.SOLV>
19.6674

>  <SCORE.INTER.VDW>
-22.7878

>  <SCORE.INTER.norm>
-1.45754

>  <SCORE.INTRA>
0

>  <SCORE.INTRA.DIHEDRAL>
0

>  <SCORE.INTRA.DIHEDRAL.0>
0

>  <SCORE.INTRA.POLAR>
0

>  <SCORE.INTRA.POLAR.0>
0

>  <SCORE.INTRA.REPUL>
0

>  <SCORE.INTRA.REPUL.0>
0

>  <SCORE.INTRA.SOLV>
0

>  <SCORE.INTRA.SOLV.lig_0>
-33.1994

>  <SCORE.INTRA.VDW>
0

>  <SCORE.INTRA.VDW.0>
0

>  <SCORE.INTRA.norm>
0

>  <SCORE.RESTR>
0

>  <SCORE.RESTR.CAVITY>
0

>  <SCORE.RESTR.norm>
0

>  <SCORE.SYSTEM>
0

>  <SCORE.SYSTEM.CONST>
0

>  <SCORE.SYSTEM.DIHEDRAL>
0

>  <SCORE.SYSTEM.SOLV>
0

>  <SCORE.SYSTEM.norm>
0

>  <SCORE.heavy>
13

>  <SCORE.norm>
-1.45754

>  <RMSD>
0.317

$$$$
ligand
 OpenBabel11021811473D
libRbt.so/2013.1/901 2013/11/27
 13 14  0  0  0  0  0  0  0  0999 V2000
   34.3348   33.9841   23.0875 N   0  0  0  0  0  0  0  0  0  0  0  0
   33.5486   32.7214   23.6330 C   0  0  0  0  0  0  0  0  0  0  0  0
   32.4264   32.2852   22.9562 N   0  0  0  0  0  0  0  0  0  0  0  0
   34.0672   32.2607   24.6925 N   0  0  0  0  0  0  0  0  0  0  0  0
   35.1579   32.6388   25.3866 C   0  0  0  0  0  0  0  0  0  0  0  0
   35.8905   33.6968   24.9872 C   0  0  0  0  0  0  0  0  0  0  0  0
   35.4142   34.4647   23.6916 C   0  0  0  0  0  0  0  0  0  0  0  0
   36.0705   35.3946   23.3480 O   0  0  0  0  0  0  0  0  0  0  0  0
   37.0808   33.9830   25.9214 C   0  0  0  0  0  0  0  0  0  0  0  0
   37.0158   33.0406   26.8685 C   0  0  0  0  0  0  0  0  0  0  0  0
   35.9682   32.1674   26.7493 N   0  0  0  0  0  0  0  0  0  0  0  0
   38.0835   35.0600   25.7593 C   0  0  0  0  0  0  0  0  0  0  0  0
   38.8243   35.9331   25.5985 N   0  0  0  0  0  0  0  0  0  0  0  0
  1  2  1  0  0  0  0
  1  7  1  0  0  0  0
  2  3  1  0  0  0  0
  2  4  2  0  0  0  0
  4  5  1  0  0  0  0
  5  6  2  0  0  0  0
  5 11  1  0  0  0  0
  6  7  1  0  0  0  0
  6  9  1  0  0  0  0
  7  8  2  0  0  0  0
  9 10  2  0  0  0  0
  9 12  1  0  0  0  0
 10 11  1  0  0  0  0
 12 13  3  0  0  0  0
M  END
>  <CHROM.1>
35.65955913,33.68464981,24.77494578,-3.09307031,0.60942211,2.31542531

>  <Name>
ligand

>  <RI>
0

>  <Rbt.Current_Directory>
/home/itssahil/PROJECTS/Mol_Feturizer/New_Systems/rnas/3GCA

>  <Rbt.Executable>
rbdock ($Id: //depot/dev/client3/rdock/2013.1/src/exe/rbdock.cxx#4 $)

>  <Rbt.Library>
libRbt.so (2013.1, Build901 2013/11/27)

>  <Rbt.Parameter_File>
/export/apps/rDock/src/rDock_2013.1_src/data/scripts/dock_solv.prm

>  <Rbt.Receptor>
prm/blind_docking_100.prm

>  <SCORE>
-18.954

>  <SCORE.INTER>
-18.954

>  <SCORE.INTER.CONST>
1

>  <SCORE.INTER.POLAR>
0

>  <SCORE.INTER.ROT>
0

>  <SCORE.INTER.SOLV>
19.6606

>  <SCORE.INTER.VDW>
-22.7895

>  <SCORE.INTER.norm>
-1.458

>  <SCORE.INTRA>
0

>  <SCORE.INTRA.DIHEDRAL>
0

>  <SCORE.INTRA.DIHEDRAL.0>
0

>  <SCORE.INTRA.POLAR>
0

>  <SCORE.INTRA.POLAR.0>
0

>  <SCORE.INTRA.REPUL>
0

>  <SCORE.INTRA.REPUL.0>
0

>  <SCORE.INTRA.SOLV>
0

>  <SCORE.INTRA.SOLV.lig_0>
-33.1994

>  <SCORE.INTRA.VDW>
0

>  <SCORE.INTRA.VDW.0>
0

>  <SCORE.INTRA.norm>
0

>  <SCORE.RESTR>
0

>  <SCORE.RESTR.CAVITY>
0

>  <SCORE.RESTR.norm>
0

>  <SCORE.SYSTEM>
0

>  <SCORE.SYSTEM.CONST>
0

>  <SCORE.SYSTEM.DIHEDRAL>
0

>  <SCORE.SYSTEM.SOLV>
0

>  <SCORE.SYSTEM.norm>
0

>  <SCORE.heavy>
13

>  <SCORE.norm>
-1.458

>  <RMSD>
0.318

$$$$
ligand
 OpenBabel11021811473D
libRbt.so/2013.1/901 2013/11/27
 13 14  0  0  0  0  0  0  0  0999 V2000
   34.3657   33.9458   23.0780 N   0  0  0  0  0  0  0  0  0  0  0  0
   33.5734   32.6908   23.6326 C   0  0  0  0  0  0  0  0  0  0  0  0
   32.4666   32.2368   22.9423 N   0  0  0  0  0  0  0  0  0  0  0  0
   34.0724   32.2532   24.7111 N   0  0  0  0  0  0  0  0  0  0  0  0
   35.1476   32.6493   25.4192 C   0  0  0  0  0  0  0  0  0  0  0  0
   35.8841   33.7023   25.0136 C   0  0  0  0  0  0  0  0  0  0  0  0
   35.4310   34.4425   23.6939 C   0  0  0  0  0  0  0  0  0  0  0  0
   36.0907   35.3681   23.3451 O   0  0  0  0  0  0  0  0  0  0  0  0
   37.0545   34.0116   25.9655 C   0  0  0  0  0  0  0  0  0  0  0  0
   36.9740   33.0877   26.9296 C   0  0  0  0  0  0  0  0  0  0  0  0
   35.9322   32.2081   26.8068 N   0  0  0  0  0  0  0  0  0  0  0  0
   38.0562   35.0893   25.8022 C   0  0  0  0  0  0  0  0  0  0  0  0
   38.7968   35.9621   25.6390 N   0  0  0  0  0  0  0  0  0  0  0  0
  1  2  1  0  0  0  0
  1  7  1  0  0  0  0
  2  3  1  0  0  0  0
  2  4  2  0  0  0  0
  4  5  1  0  0  0  0
  5  6  2  0  0  0  0
  5 11  1  0  0  0  0
  6  7  1  0  0  0  0
  6  9  1  0  0  0  0
  7  8  2  0  0  0  0
  9 10  2  0  0  0  0
  9 12  1  0  0  0  0
 10 11  1  0  0  0  0
 12 13  3  0  0  0  0
M  END
>  <CHROM.1>
35.65753867,33.68495549,24.79711309,-3.07801429,0.62563925,2.28699602

>  <Name>
ligand

>  <RI>
0

>  <Rbt.Current_Directory>
/home/itssahil/PROJECTS/Mol_Feturizer/New_Systems/rnas/3GCA

>  <Rbt.Executable>
rbdock ($Id: //depot/dev/client3/rdock/2013.1/src/exe/rbdock.cxx#4 $)

>  <Rbt.Library>
libRbt.so (2013.1, Build901 2013/11/27)

>  <Rbt.Parameter_File>
/export/apps/rDock/src/rDock_2013.1_src/data/scripts/dock_solv.prm

>  <Rbt.Receptor>
prm/blind_docking_80.prm

>  <SCORE>
-18.9189

>  <SCORE.INTER>
-18.9189

>  <SCORE.INTER.CONST>
1

>  <SCORE.INTER.POLAR>
0

>  <SCORE.INTER.ROT>
0

>  <SCORE.INTER.SOLV>
19.6319

>  <SCORE.INTER.VDW>
-22.7565

>  <SCORE.INTER.norm>
-1.4553

>  <SCORE.INTRA>
0

>  <SCORE.INTRA.DIHEDRAL>
0

>  <SCORE.INTRA.DIHEDRAL.0>
0

>  <SCORE.INTRA.POLAR>
0

>  <SCORE.INTRA.POLAR.0>
0

>  <SCORE.INTRA.REPUL>
0

>  <SCORE.INTRA.REPUL.0>
0

>  <SCORE.INTRA.SOLV>
0

>  <SCORE.INTRA.SOLV.lig_0>
-33.1994

>  <SCORE.INTRA.VDW>
0

>  <SCORE.INTRA.VDW.0>
0

>  <SCORE.INTRA.norm>
0

>  <SCORE.RESTR>
0

>  <SCORE.RESTR.CAVITY>
0

>  <SCORE.RESTR.norm>
0

>  <SCORE.SYSTEM>
0

>  <SCORE.SYSTEM.CONST>
0

>  <SCORE.SYSTEM.DIHEDRAL>
0

>  <SCORE.SYSTEM.SOLV>
0

>  <SCORE.SYSTEM.norm>
0

>  <SCORE.heavy>
13

>  <SCORE.norm>
-1.4553

>  <RMSD>
0.319

$$$$
ligand
 OpenBabel11021811473D
libRbt.so/2013.1/901 2013/11/27
 13 14  0  0  0  0  0  0  0  0999 V2000
   34.3510   33.9190   23.1140 N   0  0  0  0  0  0  0  0  0  0  0  0
   33.5988   32.6320   23.6507 C   0  0  0  0  0  0  0  0  0  0  0  0
   32.5112   32.1487   22.9500 N   0  0  0  0  0  0  0  0  0  0  0  0
   34.1072   32.1995   24.7270 N   0  0  0  0  0  0  0  0  0  0  0  0
   35.1651   32.6237   25.4448 C   0  0  0  0  0  0  0  0  0  0  0  0
   35.8675   33.7053   25.0545 C   0  0  0  0  0  0  0  0  0  0  0  0
   35.3959   34.4445   23.7406 C   0  0  0  0  0  0  0  0  0  0  0  0
   36.0257   35.3956   23.4054 O   0  0  0  0  0  0  0  0  0  0  0  0
   37.0223   34.0433   26.0156 C   0  0  0  0  0  0  0  0  0  0  0  0
   36.9685   33.1066   26.9691 C   0  0  0  0  0  0  0  0  0  0  0  0
   35.9575   32.1938   26.8315 N   0  0  0  0  0  0  0  0  0  0  0  0
   37.9879   35.1559   25.8692 C   0  0  0  0  0  0  0  0  0  0  0  0
   38.6994   36.0548   25.7194 N   0  0  0  0  0  0  0  0  0  0  0  0
  1  2  1  0  0  0  0
  1  7  1  0  0  0  0
  2  3  1  0  0  0  0
  2  4  2  0  0  0  0
  4  5  1  0  0  0  0
  5  6  2  0  0  0  0
  5 11  1  0  0  0  0
  6  7  1  0  0  0  0
  6  9  1  0  0  0  0
  7  8  2  0  0  0  0
  9 10  2  0  0  0  0
  9 12  1  0  0  0  0
 10 11  1  0  0  0  0
 12 13  3  0  0  0  0
M  END
>  <CHROM.1>
35.64270574,33.68278266,24.83665516,-3.10142854,0.65403798,2.31199753

>  <Name>
ligand

>  <RI>
0

>  <Rbt.Current_Directory>
/home/itssahil/PROJECTS/Mol_Feturizer/New_Systems/rnas/3GCA

>  <Rbt.Executable>
rbdock ($Id: //depot/dev/client3/rdock/2013.1/src/exe/rbdock.cxx#4 $)

>  <Rbt.Library>
libRbt.so (2013.1, Build901 2013/11/27)

>  <Rbt.Parameter_File>
/export/apps/rDock/src/rDock_2013.1_src/data/scripts/dock_solv.prm

>  <Rbt.Receptor>
prm/blind_docking_100.prm

>  <SCORE>
-18.9331

>  <SCORE.INTER>
-18.9331

>  <SCORE.INTER.CONST>
1

>  <SCORE.INTER.POLAR>
0

>  <SCORE.INTER.ROT>
0

>  <SCORE.INTER.SOLV>
19.5839

>  <SCORE.INTER.VDW>
-22.7501

>  <SCORE.INTER.norm>
-1.45639

>  <SCORE.INTRA>
0

>  <SCORE.INTRA.DIHEDRAL>
0

>  <SCORE.INTRA.DIHEDRAL.0>
0

>  <SCORE.INTRA.POLAR>
0

>  <SCORE.INTRA.POLAR.0>
0

>  <SCORE.INTRA.REPUL>
0

>  <SCORE.INTRA.REPUL.0>
0

>  <SCORE.INTRA.SOLV>
0

>  <SCORE.INTRA.SOLV.lig_0>
-33.1994

>  <SCORE.INTRA.VDW>
0

>  <SCORE.INTRA.VDW.0>
0

>  <SCORE.INTRA.norm>
0

>  <SCORE.RESTR>
0

>  <SCORE.RESTR.CAVITY>
0

>  <SCORE.RESTR.norm>
0

>  <SCORE.SYSTEM>
0

>  <SCORE.SYSTEM.CONST>
0

>  <SCORE.SYSTEM.DIHEDRAL>
0

>  <SCORE.SYSTEM.SOLV>
0

>  <SCORE.SYSTEM.norm>
0

>  <SCORE.heavy>
13

>  <SCORE.norm>
-1.45639

>  <RMSD>
0.322

$$$$
ligand
 OpenBabel11021811473D
libRbt.so/2013.1/901 2013/11/27
 13 14  0  0  0  0  0  0  0  0999 V2000
   34.3736   33.9443   23.0644 N   0  0  0  0  0  0  0  0  0  0  0  0
   33.5795   32.6905   23.6191 C   0  0  0  0  0  0  0  0  0  0  0  0
   32.4735   32.2365   22.9276 N   0  0  0  0  0  0  0  0  0  0  0  0
   34.0765   32.2538   24.6989 N   0  0  0  0  0  0  0  0  0  0  0  0
   35.1509   32.6499   25.4082 C   0  0  0  0  0  0  0  0  0  0  0  0
   35.8887   33.7019   25.0026 C   0  0  0  0  0  0  0  0  0  0  0  0
   35.4382   34.4411   23.6813 C   0  0  0  0  0  0  0  0  0  0  0  0
   36.0990   35.3658   23.3326 O   0  0  0  0  0  0  0  0  0  0  0  0
   37.0579   34.0115   25.9560 C   0  0  0  0  0  0  0  0  0  0  0  0
   36.9752   33.0888   26.9210 C   0  0  0  0  0  0  0  0  0  0  0  0
   35.9330   32.2097   26.7976 N   0  0  0  0  0  0  0  0  0  0  0  0
   38.0605   35.0884   25.7931 C   0  0  0  0  0  0  0  0  0  0  0  0
   38.8020   35.9605   25.6301 N   0  0  0  0  0  0  0  0  0  0  0  0
  1  2  1  0  0  0  0
  1  7  1  0  0  0  0
  2  3  1  0  0  0  0
  2  4  2  0  0  0  0
  4  5  1  0  0  0  0
  5  6  2  0  0  0  0
  5 11  1  0  0  0  0
  6  7  1  0  0  0  0
  6  9  1  0  0  0  0
  7  8  2  0  0  0  0
  9 10  2  0  0  0  0
  9 12  1  0  0  0  0
 10 11  1  0  0  0  0
 12 13  3  0  0  0  0
M  END
>  <CHROM.1>
35.66250374,33.68454392,24.78577997,-3.07600847,0.62614572,2.28471289

>  <Name>
ligand

>  <RI>
0

>  <Rbt.Current_Directory>
/home/itssahil/PROJECTS/Mol_Feturizer/New_Systems/rnas/3GCA

>  <Rbt.Executable>
rbdock ($Id: //depot/dev/client3/rdock/2013.1/src/exe/rbdock.cxx#4 $)

>  <Rbt.Library>
libRbt.so (2013.1, Build901 2013/11/27)

>  <Rbt.Parameter_File>
/export/apps/rDock/src/rDock_2013.1_src/data/scripts/dock_solv.prm

>  <Rbt.Receptor>
prm/blind_docking_60.prm

>  <SCORE>
-18.9265

>  <SCORE.INTER>
-18.9265

>  <SCORE.INTER.CONST>
1

>  <SCORE.INTER.POLAR>
0

>  <SCORE.INTER.ROT>
0

>  <SCORE.INTER.SOLV>
19.6419

>  <SCORE.INTER.VDW>
-22.765

>  <SCORE.INTER.norm>
-1.45589

>  <SCORE.INTRA>
0

>  <SCORE.INTRA.DIHEDRAL>
0

>  <SCORE.INTRA.DIHEDRAL.0>
0

>  <SCORE.INTRA.POLAR>
0

>  <SCORE.INTRA.POLAR.0>
0

>  <SCORE.INTRA.REPUL>
0

>  <SCORE.INTRA.REPUL.0>
0

>  <SCORE.INTRA.SOLV>
0

>  <SCORE.INTRA.SOLV.lig_0>
-33.1994

>  <SCORE.INTRA.VDW>
0

>  <SCORE.INTRA.VDW.0>
0

>  <SCORE.INTRA.norm>
0

>  <SCORE.RESTR>
0

>  <SCORE.RESTR.CAVITY>
0

>  <SCORE.RESTR.norm>
0

>  <SCORE.SYSTEM>
0

>  <SCORE.SYSTEM.CONST>
0

>  <SCORE.SYSTEM.DIHEDRAL>
0

>  <SCORE.SYSTEM.SOLV>
0

>  <SCORE.SYSTEM.norm>
0

>  <SCORE.heavy>
13

>  <SCORE.norm>
-1.45589

>  <RMSD>
0.322

$$$$
ligand
 OpenBabel11021811473D
libRbt.so/2013.1/901 2013/11/27
 13 14  0  0  0  0  0  0  0  0999 V2000
   33.9477   32.0446   24.6869 N   0  0  0  0  0  0  0  0  0  0  0  0
   33.3556   32.7696   23.4085 C   0  0  0  0  0  0  0  0  0  0  0  0
   32.2711   32.2104   22.7614 N   0  0  0  0  0  0  0  0  0  0  0  0
   34.0033   33.8173   23.1144 N   0  0  0  0  0  0  0  0  0  0  0  0
   35.0562   34.4093   23.7106 C   0  0  0  0  0  0  0  0  0  0  0  0
   35.6157   33.8650   24.8090 C   0  0  0  0  0  0  0  0  0  0  0  0
   34.9935   32.5186   25.3520 C   0  0  0  0  0  0  0  0  0  0  0  0
   35.4944   32.0501   26.3232 O   0  0  0  0  0  0  0  0  0  0  0  0
   36.8180   34.6755   25.3280 C   0  0  0  0  0  0  0  0  0  0  0  0
   36.9227   35.7170   24.4949 C   0  0  0  0  0  0  0  0  0  0  0  0
   36.0039   35.7452   23.4804 N   0  0  0  0  0  0  0  0  0  0  0  0
   37.6410   34.3593   26.5171 C   0  0  0  0  0  0  0  0  0  0  0  0
   38.2661   34.0521   27.4401 N   0  0  0  0  0  0  0  0  0  0  0  0
  1  2  1  0  0  0  0
  1  7  1  0  0  0  0
  2  3  1  0  0  0  0
  2  4  2  0  0  0  0
  4  5  1  0  0  0  0
  5  6  2  0  0  0  0
  5 11  1  0  0  0  0
  6  7  1  0  0  0  0
  6  9  1  0  0  0  0
  7  8  2  0  0  0  0
  9 10  2  0  0  0  0
  9 12  1  0  0  0  0
 10 11  1  0  0  0  0
 12 13  3  0  0  0  0
M  END
>  <CHROM.1>
35.38613527,33.66337200,24.73744980,3.02586944,-0.66519000,-0.74081796

>  <Name>
ligand

>  <RI>
0

>  <Rbt.Current_Directory>
/home/itssahil/PROJECTS/Mol_Feturizer/New_Systems/rnas/3GCA

>  <Rbt.Executable>
rbdock ($Id: //depot/dev/client3/rdock/2013.1/src/exe/rbdock.cxx#4 $)

>  <Rbt.Library>
libRbt.so (2013.1, Build901 2013/11/27)

>  <Rbt.Parameter_File>
/export/apps/rDock/src/rDock_2013.1_src/data/scripts/dock_solv.prm

>  <Rbt.Receptor>
prm/blind_docking_100.prm

>  <SCORE>
-17.6479

>  <SCORE.INTER>
-17.6479

>  <SCORE.INTER.CONST>
1

>  <SCORE.INTER.POLAR>
0

>  <SCORE.INTER.ROT>
0

>  <SCORE.INTER.SOLV>
20.2811

>  <SCORE.INTER.VDW>
-22.1256

>  <SCORE.INTER.norm>
-1.35753

>  <SCORE.INTRA>
0

>  <SCORE.INTRA.DIHEDRAL>
0

>  <SCORE.INTRA.DIHEDRAL.0>
0

>  <SCORE.INTRA.POLAR>
0

>  <SCORE.INTRA.POLAR.0>
0

>  <SCORE.INTRA.REPUL>
0

>  <SCORE.INTRA.REPUL.0>
0

>  <SCORE.INTRA.SOLV>
0

>  <SCORE.INTRA.SOLV.lig_0>
-33.1994

>  <SCORE.INTRA.VDW>
0

>  <SCORE.INTRA.VDW.0>
0

>  <SCORE.INTRA.norm>
0

>  <SCORE.RESTR>
0

>  <SCORE.RESTR.CAVITY>
0

>  <SCORE.RESTR.norm>
0

>  <SCORE.SYSTEM>
0

>  <SCORE.SYSTEM.CONST>
0

>  <SCORE.SYSTEM.DIHEDRAL>
0

>  <SCORE.SYSTEM.SOLV>
0

>  <SCORE.SYSTEM.norm>
0

>  <SCORE.heavy>
13

>  <SCORE.norm>
-1.35753

>  <RMSD>
2.623

$$$$
ligand
 OpenBabel11021811473D
libRbt.so/2013.1/901 2013/11/27
 13 14  0  0  0  0  0  0  0  0999 V2000
   33.9134   32.0337   24.6860 N   0  0  0  0  0  0  0  0  0  0  0  0
   33.3657   32.7518   23.3842 C   0  0  0  0  0  0  0  0  0  0  0  0
   32.2888   32.2019   22.7166 N   0  0  0  0  0  0  0  0  0  0  0  0
   34.0378   33.7851   23.0939 N   0  0  0  0  0  0  0  0  0  0  0  0
   35.0847   34.3677   23.7094 C   0  0  0  0  0  0  0  0  0  0  0  0
   35.6074   33.8284   24.8282 C   0  0  0  0  0  0  0  0  0  0  0  0
   34.9497   32.4991   25.3717 C   0  0  0  0  0  0  0  0  0  0  0  0
   35.4181   32.0350   26.3610 O   0  0  0  0  0  0  0  0  0  0  0  0
   36.8093   34.6261   25.3676 C   0  0  0  0  0  0  0  0  0  0  0  0
   36.9521   35.6550   24.5248 C   0  0  0  0  0  0  0  0  0  0  0  0
   36.0598   35.6851   23.4870 N   0  0  0  0  0  0  0  0  0  0  0  0
   37.5967   34.3118   26.5811 C   0  0  0  0  0  0  0  0  0  0  0  0
   38.1932   34.0063   27.5234 N   0  0  0  0  0  0  0  0  0  0  0  0
  1  2  1  0  0  0  0
  1  7  1  0  0  0  0
  2  3  1  0  0  0  0
  2  4  2  0  0  0  0
  4  5  1  0  0  0  0
  5  6  2  0  0  0  0
  5 11  1  0  0  0  0
  6  7  1  0  0  0  0
  6  9  1  0  0  0  0
  7  8  2  0  0  0  0
  9 10  2  0  0  0  0
  9 12  1  0  0  0  0
 10 11  1  0  0  0  0
 12 13  3  0  0  0  0
M  END
>  <CHROM.1>
35.37641342,33.62961813,24.75332562,2.98861942,-0.67243078,-0.77639649

>  <Name>
ligand

>  <RI>
0

>  <Rbt.Current_Directory>
/home/itssahil/PROJECTS/Mol_Feturizer/New_Systems/rnas/3GCA

>  <Rbt.Executable>
rbdock ($Id: //depot/dev/client3/rdock/2013.1/src/exe/rbdock.cxx#4 $)

>  <Rbt.Library>
libRbt.so (2013.1, Build901 2013/11/27)

>  <Rbt.Parameter_File>
/export/apps/rDock/src/rDock_2013.1_src/data/scripts/dock_solv.prm

>  <Rbt.Receptor>
prm/blind_docking_80.prm

>  <SCORE>
-17.647

>  <SCORE.INTER>
-17.647

>  <SCORE.INTER.CONST>
1

>  <SCORE.INTER.POLAR>
0

>  <SCORE.INTER.ROT>
0

>  <SCORE.INTER.SOLV>
20.3595

>  <SCORE.INTER.VDW>
-22.1512

>  <SCORE.INTER.norm>
-1.35746

>  <SCORE.INTRA>
0

>  <SCORE.INTRA.DIHEDRAL>
0

>  <SCORE.INTRA.DIHEDRAL.0>
0

>  <SCORE.INTRA.POLAR>
0

>  <SCORE.INTRA.POLAR.0>
0

>  <SCORE.INTRA.REPUL>
0

>  <SCORE.INTRA.REPUL.0>
0

>  <SCORE.INTRA.SOLV>
0

>  <SCORE.INTRA.SOLV.lig_0>
-33.1994

>  <SCORE.INTRA.VDW>
0

>  <SCORE.INTRA.VDW.0>
0

>  <SCORE.INTRA.norm>
0

>  <SCORE.RESTR>
0

>  <SCORE.RESTR.CAVITY>
0

>  <SCORE.RESTR.norm>
0

>  <SCORE.SYSTEM>
0

>  <SCORE.SYSTEM.CONST>
0

>  <SCORE.SYSTEM.DIHEDRAL>
0

>  <SCORE.SYSTEM.SOLV>
0

>  <SCORE.SYSTEM.norm>
0

>  <SCORE.heavy>
13

>  <SCORE.norm>
-1.35746

>  <RMSD>
2.623

$$$$
ligand
 OpenBabel11021811473D
libRbt.so/2013.1/901 2013/11/27
 13 14  0  0  0  0  0  0  0  0999 V2000
   33.8523   32.0460   24.6744 N   0  0  0  0  0  0  0  0  0  0  0  0
   33.3027   32.7600   23.3711 C   0  0  0  0  0  0  0  0  0  0  0  0
   32.2228   32.2099   22.7087 N   0  0  0  0  0  0  0  0  0  0  0  0
   33.9763   33.7907   23.0748 N   0  0  0  0  0  0  0  0  0  0  0  0
   35.0263   34.3733   23.6851 C   0  0  0  0  0  0  0  0  0  0  0  0
   35.5508   33.8374   24.8047 C   0  0  0  0  0  0  0  0  0  0  0  0
   34.8915   32.5119   25.3554 C   0  0  0  0  0  0  0  0  0  0  0  0
   35.3615   32.0507   26.3453 O   0  0  0  0  0  0  0  0  0  0  0  0
   36.7559   34.6345   25.3376 C   0  0  0  0  0  0  0  0  0  0  0  0
   36.8987   35.6597   24.4902 C   0  0  0  0  0  0  0  0  0  0  0  0
   36.0037   35.6876   23.4547 N   0  0  0  0  0  0  0  0  0  0  0  0
   37.5459   34.3234   26.5503 C   0  0  0  0  0  0  0  0  0  0  0  0
   38.1442   34.0204   27.4922 N   0  0  0  0  0  0  0  0  0  0  0  0
  1  2  1  0  0  0  0
  1  7  1  0  0  0  0
  2  3  1  0  0  0  0
  2  4  2  0  0  0  0
  4  5  1  0  0  0  0
  5  6  2  0  0  0  0
  5 11  1  0  0  0  0
  6  7  1  0  0  0  0
  6  9  1  0  0  0  0
  7  8  2  0  0  0  0
  9 10  2  0  0  0  0
  9 12  1  0  0  0  0
 10 11  1  0  0  0  0
 12 13  3  0  0  0  0
M  END
>  <CHROM.1>
35.31911070,33.63883988,24.73126865,2.98895503,-0.66891659,-0.78027014

>  <Name>
ligand

>  <RI>
0

>  <Rbt.Current_Directory>
/home/itssahil/PROJECTS/Mol_Feturizer/New_Systems/rnas/3GCA

>  <Rbt.Executable>
rbdock ($Id: //depot/dev/client3/rdock/2013.1/src/exe/rbdock.cxx#4 $)

>  <Rbt.Library>
libRbt.so (2013.1, Build901 2013/11/27)

>  <Rbt.Parameter_File>
/export/apps/rDock/src/rDock_2013.1_src/data/scripts/dock_solv.prm

>  <Rbt.Receptor>
prm/blind_docking_100.prm

>  <SCORE>
-17.6037

>  <SCORE.INTER>
-17.6037

>  <SCORE.INTER.CONST>
1

>  <SCORE.INTER.POLAR>
0

>  <SCORE.INTER.ROT>
0

>  <SCORE.INTER.SOLV>
20.4653

>  <SCORE.INTER.VDW>
-22.1576

>  <SCORE.INTER.norm>
-1.35413

>  <SCORE.INTRA>
0

>  <SCORE.INTRA.DIHEDRAL>
0

>  <SCORE.INTRA.DIHEDRAL.0>
0

>  <SCORE.INTRA.POLAR>
0

>  <SCORE.INTRA.POLAR.0>
0

>  <SCORE.INTRA.REPUL>
0

>  <SCORE.INTRA.REPUL.0>
0

>  <SCORE.INTRA.SOLV>
0

>  <SCORE.INTRA.SOLV.lig_0>
-33.1994

>  <SCORE.INTRA.VDW>
0

>  <SCORE.INTRA.VDW.0>
0

>  <SCORE.INTRA.norm>
0

>  <SCORE.RESTR>
0

>  <SCORE.RESTR.CAVITY>
0

>  <SCORE.RESTR.norm>
0

>  <SCORE.SYSTEM>
0

>  <SCORE.SYSTEM.CONST>
0

>  <SCORE.SYSTEM.DIHEDRAL>
0

>  <SCORE.SYSTEM.SOLV>
0

>  <SCORE.SYSTEM.norm>
0

>  <SCORE.heavy>
13

>  <SCORE.norm>
-1.35413

>  <RMSD>
2.625

$$$$
ligand
 OpenBabel11021811473D
libRbt.so/2013.1/901 2013/11/27
 13 14  0  0  0  0  0  0  0  0999 V2000
   33.7959   31.9514   24.6263 N   0  0  0  0  0  0  0  0  0  0  0  0
   33.2140   32.6872   23.3494 C   0  0  0  0  0  0  0  0  0  0  0  0
   32.1276   32.1395   22.6957 N   0  0  0  0  0  0  0  0  0  0  0  0
   33.8708   33.7313   23.0629 N   0  0  0  0  0  0  0  0  0  0  0  0
   34.9260   34.3122   23.6657 C   0  0  0  0  0  0  0  0  0  0  0  0
   35.4774   33.7583   24.7633 C   0  0  0  0  0  0  0  0  0  0  0  0
   34.8429   32.4140   25.2975 C   0  0  0  0  0  0  0  0  0  0  0  0
   35.3366   31.9370   26.2681 O   0  0  0  0  0  0  0  0  0  0  0  0
   36.6839   34.5570   25.2906 C   0  0  0  0  0  0  0  0  0  0  0  0
   36.7997   35.6017   24.4631 C   0  0  0  0  0  0  0  0  0  0  0  0
   35.8848   35.6419   23.4455 N   0  0  0  0  0  0  0  0  0  0  0  0
   37.5002   34.2287   26.4811 C   0  0  0  0  0  0  0  0  0  0  0  0
   38.1196   33.9122   27.4048 N   0  0  0  0  0  0  0  0  0  0  0  0
  1  2  1  0  0  0  0
  1  7  1  0  0  0  0
  2  3  1  0  0  0  0
  2  4  2  0  0  0  0
  4  5  1  0  0  0  0
  5  6  2  0  0  0  0
  5 11  1  0  0  0  0
  6  7  1  0  0  0  0
  6  9  1  0  0  0  0
  7  8  2  0  0  0  0
  9 10  2  0  0  0  0
  9 12  1  0  0  0  0
 10 11  1  0  0  0  0
 12 13  3  0  0  0  0
M  END
>  <CHROM.1>
35.24652503,33.55879337,24.69001371,3.01560102,-0.66265430,-0.74222682

>  <Name>
ligand

>  <RI>
0

>  <Rbt.Current_Directory>
/home/itssahil/PROJECTS/Mol_Feturizer/New_Systems/rnas/3GCA

>  <Rbt.Executable>
rbdock ($Id: //depot/dev/client3/rdock/2013.1/src/exe/rbdock.cxx#4 $)

>  <Rbt.Library>
libRbt.so (2013.1, Build901 2013/11/27)

>  <Rbt.Parameter_File>
/export/apps/rDock/src/rDock_2013.1_src/data/scripts/dock_solv.prm

>  <Rbt.Receptor>
prm/blind_docking_80.prm

>  <SCORE>
-17.6267

>  <SCORE.INTER>
-17.6267

>  <SCORE.INTER.CONST>
1

>  <SCORE.INTER.POLAR>
0

>  <SCORE.INTER.ROT>
0

>  <SCORE.INTER.SOLV>
20.6221

>  <SCORE.INTER.VDW>
-22.2252

>  <SCORE.INTER.norm>
-1.3559

>  <SCORE.INTRA>
0

>  <SCORE.INTRA.DIHEDRAL>
0

>  <SCORE.INTRA.DIHEDRAL.0>
0

>  <SCORE.INTRA.POLAR>
0

>  <SCORE.INTRA.POLAR.0>
0

>  <SCORE.INTRA.REPUL>
0

>  <SCORE.INTRA.REPUL.0>
0

>  <SCORE.INTRA.SOLV>
0

>  <SCORE.INTRA.SOLV.lig_0>
-33.1994

>  <SCORE.INTRA.VDW>
0

>  <SCORE.INTRA.VDW.0>
0

>  <SCORE.INTRA.norm>
0

>  <SCORE.RESTR>
0

>  <SCORE.RESTR.CAVITY>
0

>  <SCORE.RESTR.norm>
0

>  <SCORE.SYSTEM>
0

>  <SCORE.SYSTEM.CONST>
0

>  <SCORE.SYSTEM.DIHEDRAL>
0

>  <SCORE.SYSTEM.SOLV>
0

>  <SCORE.SYSTEM.norm>
0

>  <SCORE.heavy>
13

>  <SCORE.norm>
-1.3559

>  <RMSD>
2.626

$$$$
ligand
 OpenBabel11021811473D
libRbt.so/2013.1/901 2013/11/27
 13 14  0  0  0  0  0  0  0  0999 V2000
   37.3702   36.3919   24.8223 N   0  0  0  0  0  0  0  0  0  0  0  0
   36.4329   36.8389   23.6256 C   0  0  0  0  0  0  0  0  0  0  0  0
   36.6539   38.0601   23.0196 N   0  0  0  0  0  0  0  0  0  0  0  0
   35.5364   35.9793   23.3785 N   0  0  0  0  0  0  0  0  0  0  0  0
   35.2810   34.7765   23.9284 C   0  0  0  0  0  0  0  0  0  0  0  0
   36.0355   34.3148   24.9449 C   0  0  0  0  0  0  0  0  0  0  0  0
   37.2102   35.2379   25.4575 C   0  0  0  0  0  0  0  0  0  0  0  0
   37.8702   34.8179   26.3528 O   0  0  0  0  0  0  0  0  0  0  0  0
   35.5731   32.9354   25.4501 C   0  0  0  0  0  0  0  0  0  0  0  0
   34.5306   32.6118   24.6767 C   0  0  0  0  0  0  0  0  0  0  0  0
   34.1900   33.5480   23.7378 N   0  0  0  0  0  0  0  0  0  0  0  0
   36.1922   32.1482   26.5402 C   0  0  0  0  0  0  0  0  0  0  0  0
   36.6991   31.5871   27.4150 N   0  0  0  0  0  0  0  0  0  0  0  0
  1  2  1  0  0  0  0
  1  7  1  0  0  0  0
  2  3  1  0  0  0  0
  2  4  2  0  0  0  0
  4  5  1  0  0  0  0
  5  6  2  0  0  0  0
  5 11  1  0  0  0  0
  6  7  1  0  0  0  0
  6  9  1  0  0  0  0
  7  8  2  0  0  0  0
  9 10  2  0  0  0  0
  9 12  1  0  0  0  0
 10 11  1  0  0  0  0
 12 13  3  0  0  0  0
M  END
>  <CHROM.1>
36.16035731,34.59623836,24.88436792,-1.46251010,0.66448341,2.55055202

>  <Name>
ligand

>  <RI>
0

>  <Rbt.Current_Directory>
/home/itssahil/PROJECTS/Mol_Feturizer/New_Systems/rnas/3GCA

>  <Rbt.Executable>
rbdock ($Id: //depot/dev/client3/rdock/2013.1/src/exe/rbdock.cxx#4 $)

>  <Rbt.Library>
libRbt.so (2013.1, Build901 2013/11/27)

>  <Rbt.Parameter_File>
/export/apps/rDock/src/rDock_2013.1_src/data/scripts/dock_solv.prm

>  <Rbt.Receptor>
prm/blind_docking_60.prm

>  <SCORE>
-17.8933

>  <SCORE.INTER>
-17.8933

>  <SCORE.INTER.CONST>
1

>  <SCORE.INTER.POLAR>
0

>  <SCORE.INTER.ROT>
0

>  <SCORE.INTER.SOLV>
10.8251

>  <SCORE.INTER.VDW>
-19.1373

>  <SCORE.INTER.norm>
-1.37641

>  <SCORE.INTRA>
0

>  <SCORE.INTRA.DIHEDRAL>
0

>  <SCORE.INTRA.DIHEDRAL.0>
0

>  <SCORE.INTRA.POLAR>
0

>  <SCORE.INTRA.POLAR.0>
0

>  <SCORE.INTRA.REPUL>
0

>  <SCORE.INTRA.REPUL.0>
0

>  <SCORE.INTRA.SOLV>
0

>  <SCORE.INTRA.SOLV.lig_0>
-33.1994

>  <SCORE.INTRA.VDW>
0

>  <SCORE.INTRA.VDW.0>
0

>  <SCORE.INTRA.norm>
0

>  <SCORE.RESTR>
0

>  <SCORE.RESTR.CAVITY>
0

>  <SCORE.RESTR.norm>
0

>  <SCORE.SYSTEM>
0

>  <SCORE.SYSTEM.CONST>
0

>  <SCORE.SYSTEM.DIHEDRAL>
0

>  <SCORE.SYSTEM.SOLV>
0

>  <SCORE.SYSTEM.norm>
0

>  <SCORE.heavy>
13

>  <SCORE.norm>
-1.37641

>  <RMSD>
3.980

$$$$
ligand
 OpenBabel11021811473D
libRbt.so/2013.1/901 2013/11/27
 13 14  0  0  0  0  0  0  0  0999 V2000
   36.5601   35.5875   24.2929 N   0  0  0  0  0  0  0  0  0  0  0  0
   37.5207   35.2034   25.4929 C   0  0  0  0  0  0  0  0  0  0  0  0
   38.5665   36.0471   25.8124 N   0  0  0  0  0  0  0  0  0  0  0  0
   37.2010   34.0979   26.0216 N   0  0  0  0  0  0  0  0  0  0  0  0
   36.1937   33.2436   25.7576 C   0  0  0  0  0  0  0  0  0  0  0  0
   35.3244   33.4980   24.7599 C   0  0  0  0  0  0  0  0  0  0  0  0
   35.5423   34.8202   23.9237 C   0  0  0  0  0  0  0  0  0  0  0  0
   34.7670   35.0346   23.0483 O   0  0  0  0  0  0  0  0  0  0  0  0
   34.2611   32.3953   24.6017 C   0  0  0  0  0  0  0  0  0  0  0  0
   34.5414   31.5005   25.5558 C   0  0  0  0  0  0  0  0  0  0  0  0
   35.6310   31.7973   26.3297 N   0  0  0  0  0  0  0  0  0  0  0  0
   33.1581   32.3759   23.6145 C   0  0  0  0  0  0  0  0  0  0  0  0
   32.3307   32.3994   22.8072 N   0  0  0  0  0  0  0  0  0  0  0  0
  1  2  1  0  0  0  0
  1  7  1  0  0  0  0
  2  3  1  0  0  0  0
  2  4  2  0  0  0  0
  4  5  1  0  0  0  0
  5  6  2  0  0  0  0
  5 11  1  0  0  0  0
  6  7  1  0  0  0  0
  6  9  1  0  0  0  0
  7  8  2  0  0  0  0
  9 10  2  0  0  0  0
  9 12  1  0  0  0  0
 10 11  1  0  0  0  0
 12 13  3  0  0  0  0
M  END
>  <CHROM.1>
35.52246278,33.74107153,24.74679410,0.25277967,-0.63528830,-0.65432184

>  <Name>
ligand

>  <RI>
0

>  <Rbt.Current_Directory>
/home/itssahil/PROJECTS/Mol_Feturizer/New_Systems/rnas/3GCA

>  <Rbt.Executable>
rbdock ($Id: //depot/dev/client3/rdock/2013.1/src/exe/rbdock.cxx#4 $)

>  <Rbt.Library>
libRbt.so (2013.1, Build901 2013/11/27)

>  <Rbt.Parameter_File>
/export/apps/rDock/src/rDock_2013.1_src/data/scripts/dock_solv.prm

>  <Rbt.Receptor>
prm/pocket_docking_2.prm

>  <SCORE>
-21.3645

>  <SCORE.INTER>
-21.3744

>  <SCORE.INTER.CONST>
1

>  <SCORE.INTER.POLAR>
0

>  <SCORE.INTER.ROT>
0

>  <SCORE.INTER.SOLV>
11.4812

>  <SCORE.INTER.VDW>
-21.6767

>  <SCORE.INTER.norm>
-1.64419

>  <SCORE.INTRA>
0

>  <SCORE.INTRA.DIHEDRAL>
0

>  <SCORE.INTRA.DIHEDRAL.0>
0

>  <SCORE.INTRA.POLAR>
0

>  <SCORE.INTRA.POLAR.0>
0

>  <SCORE.INTRA.REPUL>
0

>  <SCORE.INTRA.REPUL.0>
0

>  <SCORE.INTRA.SOLV>
0

>  <SCORE.INTRA.SOLV.lig_0>
-33.1994

>  <SCORE.INTRA.VDW>
0

>  <SCORE.INTRA.VDW.0>
0

>  <SCORE.INTRA.norm>
0

>  <SCORE.RESTR>
0.00995519

>  <SCORE.RESTR.CAVITY>
0.00995519

>  <SCORE.RESTR.norm>
0.000765784

>  <SCORE.SYSTEM>
0

>  <SCORE.SYSTEM.CONST>
0

>  <SCORE.SYSTEM.DIHEDRAL>
0

>  <SCORE.SYSTEM.SOLV>
0

>  <SCORE.SYSTEM.norm>
0

>  <SCORE.heavy>
13

>  <SCORE.norm>
-1.64342

>  <RMSD>
4.240

$$$$
ligand
 OpenBabel11021811473D
libRbt.so/2013.1/901 2013/11/27
 13 14  0  0  0  0  0  0  0  0999 V2000
   36.5664   35.7453   24.2056 N   0  0  0  0  0  0  0  0  0  0  0  0
   37.5754   35.4165   25.3821 C   0  0  0  0  0  0  0  0  0  0  0  0
   38.5916   36.3084   25.6642 N   0  0  0  0  0  0  0  0  0  0  0  0
   37.3191   34.3040   25.9302 N   0  0  0  0  0  0  0  0  0  0  0  0
   36.3433   33.4038   25.7026 C   0  0  0  0  0  0  0  0  0  0  0  0
   35.4367   33.6092   24.7271 C   0  0  0  0  0  0  0  0  0  0  0  0
   35.5735   34.9305   23.8724 C   0  0  0  0  0  0  0  0  0  0  0  0
   34.7659   35.1013   23.0168 O   0  0  0  0  0  0  0  0  0  0  0  0
   34.4189   32.4595   24.6092 C   0  0  0  0  0  0  0  0  0  0  0  0
   34.7641   31.5883   25.5638 C   0  0  0  0  0  0  0  0  0  0  0  0
   35.8604   31.9407   26.3041 N   0  0  0  0  0  0  0  0  0  0  0  0
   33.2912   32.3813   23.6533 C   0  0  0  0  0  0  0  0  0  0  0  0
   32.4418   32.3600   22.8691 N   0  0  0  0  0  0  0  0  0  0  0  0
  1  2  1  0  0  0  0
  1  7  1  0  0  0  0
  2  3  1  0  0  0  0
  2  4  2  0  0  0  0
  4  5  1  0  0  0  0
  5  6  2  0  0  0  0
  5 11  1  0  0  0  0
  6  7  1  0  0  0  0
  6  9  1  0  0  0  0
  7  8  2  0  0  0  0
  9 10  2  0  0  0  0
  9 12  1  0  0  0  0
 10 11  1  0  0  0  0
 12 13  3  0  0  0  0
M  END
>  <CHROM.1>
35.62351246,33.86047868,24.70608656,0.31692395,-0.63927145,-0.62645767

>  <Name>
ligand

>  <RI>
0

>  <Rbt.Current_Directory>
/home/itssahil/PROJECTS/Mol_Feturizer/New_Systems/rnas/3GCA

>  <Rbt.Executable>
rbdock ($Id: //depot/dev/client3/rdock/2013.1/src/exe/rbdock.cxx#4 $)

>  <Rbt.Library>
libRbt.so (2013.1, Build901 2013/11/27)

>  <Rbt.Parameter_File>
/export/apps/rDock/src/rDock_2013.1_src/data/scripts/dock_solv.prm

>  <Rbt.Receptor>
prm/blind_docking_60.prm

>  <SCORE>
-21.8821

>  <SCORE.INTER>
-21.8821

>  <SCORE.INTER.CONST>
1

>  <SCORE.INTER.POLAR>
0

>  <SCORE.INTER.ROT>
0

>  <SCORE.INTER.SOLV>
11.4123

>  <SCORE.INTER.VDW>
-21.9922

>  <SCORE.INTER.norm>
-1.68324

>  <SCORE.INTRA>
0

>  <SCORE.INTRA.DIHEDRAL>
0

>  <SCORE.INTRA.DIHEDRAL.0>
0

>  <SCORE.INTRA.POLAR>
0

>  <SCORE.INTRA.POLAR.0>
0

>  <SCORE.INTRA.REPUL>
0

>  <SCORE.INTRA.REPUL.0>
0

>  <SCORE.INTRA.SOLV>
0

>  <SCORE.INTRA.SOLV.lig_0>
-33.1994

>  <SCORE.INTRA.VDW>
0

>  <SCORE.INTRA.VDW.0>
0

>  <SCORE.INTRA.norm>
0

>  <SCORE.RESTR>
0

>  <SCORE.RESTR.CAVITY>
0

>  <SCORE.RESTR.norm>
0

>  <SCORE.SYSTEM>
0

>  <SCORE.SYSTEM.CONST>
0

>  <SCORE.SYSTEM.DIHEDRAL>
0

>  <SCORE.SYSTEM.SOLV>
0

>  <SCORE.SYSTEM.norm>
0

>  <SCORE.heavy>
13

>  <SCORE.norm>
-1.68324

>  <RMSD>
4.241

$$$$
ligand
 OpenBabel11021811473D
libRbt.so/2013.1/901 2013/11/27
 13 14  0  0  0  0  0  0  0  0999 V2000
   36.6151   35.8212   24.1959 N   0  0  0  0  0  0  0  0  0  0  0  0
   37.5903   35.5696   25.4191 C   0  0  0  0  0  0  0  0  0  0  0  0
   38.5849   36.4902   25.6853 N   0  0  0  0  0  0  0  0  0  0  0  0
   37.3315   34.4836   26.0168 N   0  0  0  0  0  0  0  0  0  0  0  0
   36.3756   33.5581   25.8067 C   0  0  0  0  0  0  0  0  0  0  0  0
   35.4980   33.6985   24.7939 C   0  0  0  0  0  0  0  0  0  0  0  0
   35.6444   34.9751   23.8754 C   0  0  0  0  0  0  0  0  0  0  0  0
   34.8623   35.0888   22.9872 O   0  0  0  0  0  0  0  0  0  0  0  0
   34.5000   32.5290   24.7052 C   0  0  0  0  0  0  0  0  0  0  0  0
   34.8262   31.7142   25.7147 C   0  0  0  0  0  0  0  0  0  0  0  0
   35.8935   32.1213   26.4693 N   0  0  0  0  0  0  0  0  0  0  0  0
   33.4046   32.3840   23.7200 C   0  0  0  0  0  0  0  0  0  0  0  0
   32.5810   32.3089   22.9119 N   0  0  0  0  0  0  0  0  0  0  0  0
  1  2  1  0  0  0  0
  1  7  1  0  0  0  0
  2  3  1  0  0  0  0
  2  4  2  0  0  0  0
  4  5  1  0  0  0  0
  5  6  2  0  0  0  0
  5 11  1  0  0  0  0
  6  7  1  0  0  0  0
  6  9  1  0  0  0  0
  7  8  2  0  0  0  0
  9 10  2  0  0  0  0
  9 12  1  0  0  0  0
 10 11  1  0  0  0  0
 12 13  3  0  0  0  0
M  END
>  <CHROM.1>
35.68202908,33.95110720,24.76552932,0.30685180,-0.67299838,-0.68517907

>  <Name>
ligand

>  <RI>
0

>  <Rbt.Current_Directory>
/home/itssahil/PROJECTS/Mol_Feturizer/New_Systems/rnas/3GCA

>  <Rbt.Executable>
rbdock ($Id: //depot/dev/client3/rdock/2013.1/src/exe/rbdock.cxx#4 $)

>  <Rbt.Library>
libRbt.so (2013.1, Build901 2013/11/27)

>  <Rbt.Parameter_File>
/export/apps/rDock/src/rDock_2013.1_src/data/scripts/dock_solv.prm

>  <Rbt.Receptor>
prm/blind_docking_60.prm

>  <SCORE>
-21.8716

>  <SCORE.INTER>
-21.8716

>  <SCORE.INTER.CONST>
1

>  <SCORE.INTER.POLAR>
0

>  <SCORE.INTER.ROT>
0

>  <SCORE.INTER.SOLV>
11.0427

>  <SCORE.INTER.VDW>
-21.862

>  <SCORE.INTER.norm>
-1.68243

>  <SCORE.INTRA>
0

>  <SCORE.INTRA.DIHEDRAL>
0

>  <SCORE.INTRA.DIHEDRAL.0>
0

>  <SCORE.INTRA.POLAR>
0

>  <SCORE.INTRA.POLAR.0>
0

>  <SCORE.INTRA.REPUL>
0

>  <SCORE.INTRA.REPUL.0>
0

>  <SCORE.INTRA.SOLV>
0

>  <SCORE.INTRA.SOLV.lig_0>
-33.1994

>  <SCORE.INTRA.VDW>
0

>  <SCORE.INTRA.VDW.0>
0

>  <SCORE.INTRA.norm>
0

>  <SCORE.RESTR>
0

>  <SCORE.RESTR.CAVITY>
0

>  <SCORE.RESTR.norm>
0

>  <SCORE.SYSTEM>
0

>  <SCORE.SYSTEM.CONST>
0

>  <SCORE.SYSTEM.DIHEDRAL>
0

>  <SCORE.SYSTEM.SOLV>
0

>  <SCORE.SYSTEM.norm>
0

>  <SCORE.heavy>
13

>  <SCORE.norm>
-1.68243

>  <RMSD>
4.241

$$$$
ligand
 OpenBabel11021811473D
libRbt.so/2013.1/901 2013/11/27
 13 14  0  0  0  0  0  0  0  0999 V2000
   36.5617   35.6052   24.3164 N   0  0  0  0  0  0  0  0  0  0  0  0
   37.5208   35.2174   25.5164 C   0  0  0  0  0  0  0  0  0  0  0  0
   38.5633   36.0625   25.8429 N   0  0  0  0  0  0  0  0  0  0  0  0
   37.2034   34.1079   26.0381 N   0  0  0  0  0  0  0  0  0  0  0  0
   36.1994   33.2520   25.7671 C   0  0  0  0  0  0  0  0  0  0  0  0
   35.3315   33.5092   24.7690 C   0  0  0  0  0  0  0  0  0  0  0  0
   35.5471   34.8368   23.9407 C   0  0  0  0  0  0  0  0  0  0  0  0
   34.7731   35.0537   23.0647 O   0  0  0  0  0  0  0  0  0  0  0  0
   34.2720   32.4040   24.6022 C   0  0  0  0  0  0  0  0  0  0  0  0
   34.5531   31.5048   25.5519 C   0  0  0  0  0  0  0  0  0  0  0  0
   35.6400   31.8007   26.3298 N   0  0  0  0  0  0  0  0  0  0  0  0
   33.1713   32.3867   23.6124 C   0  0  0  0  0  0  0  0  0  0  0  0
   32.3457   32.4122   22.8034 N   0  0  0  0  0  0  0  0  0  0  0  0
  1  2  1  0  0  0  0
  1  7  1  0  0  0  0
  2  3  1  0  0  0  0
  2  4  2  0  0  0  0
  4  5  1  0  0  0  0
  5  6  2  0  0  0  0
  5 11  1  0  0  0  0
  6  7  1  0  0  0  0
  6  9  1  0  0  0  0
  7  8  2  0  0  0  0
  9 10  2  0  0  0  0
  9 12  1  0  0  0  0
 10 11  1  0  0  0  0
 12 13  3  0  0  0  0
M  END
>  <CHROM.1>
35.52884772,33.75295404,24.75763104,0.25421603,-0.63896436,-0.64785823

>  <Name>
ligand

>  <RI>
0

>  <Rbt.Current_Directory>
/home/itssahil/PROJECTS/Mol_Feturizer/New_Systems/rnas/3GCA

>  <Rbt.Executable>
rbdock ($Id: //depot/dev/client3/rdock/2013.1/src/exe/rbdock.cxx#4 $)

>  <Rbt.Library>
libRbt.so (2013.1, Build901 2013/11/27)

>  <Rbt.Parameter_File>
/export/apps/rDock/src/rDock_2013.1_src/data/scripts/dock_solv.prm

>  <Rbt.Receptor>
prm/pocket_docking_2.prm

>  <SCORE>
-21.4156

>  <SCORE.INTER>
-21.4367

>  <SCORE.INTER.CONST>
1

>  <SCORE.INTER.POLAR>
0

>  <SCORE.INTER.ROT>
0

>  <SCORE.INTER.SOLV>
11.4025

>  <SCORE.INTER.VDW>
-21.692

>  <SCORE.INTER.norm>
-1.64898

>  <SCORE.INTRA>
0

>  <SCORE.INTRA.DIHEDRAL>
0

>  <SCORE.INTRA.DIHEDRAL.0>
0

>  <SCORE.INTRA.POLAR>
0

>  <SCORE.INTRA.POLAR.0>
0

>  <SCORE.INTRA.REPUL>
0

>  <SCORE.INTRA.REPUL.0>
0

>  <SCORE.INTRA.SOLV>
0

>  <SCORE.INTRA.SOLV.lig_0>
-33.1994

>  <SCORE.INTRA.VDW>
0

>  <SCORE.INTRA.VDW.0>
0

>  <SCORE.INTRA.norm>
0

>  <SCORE.RESTR>
0.0211376

>  <SCORE.RESTR.CAVITY>
0.0211376

>  <SCORE.RESTR.norm>
0.00162597

>  <SCORE.SYSTEM>
0

>  <SCORE.SYSTEM.CONST>
0

>  <SCORE.SYSTEM.DIHEDRAL>
0

>  <SCORE.SYSTEM.SOLV>
0

>  <SCORE.SYSTEM.norm>
0

>  <SCORE.heavy>
13

>  <SCORE.norm>
-1.64735

>  <RMSD>
4.241

$$$$
ligand
 OpenBabel11021811473D
libRbt.so/2013.1/901 2013/11/27
 13 14  0  0  0  0  0  0  0  0999 V2000
   36.5397   35.6137   24.3211 N   0  0  0  0  0  0  0  0  0  0  0  0
   37.5116   35.2213   25.5093 C   0  0  0  0  0  0  0  0  0  0  0  0
   38.5526   36.0692   25.8333 N   0  0  0  0  0  0  0  0  0  0  0  0
   37.2046   34.1061   26.0249 N   0  0  0  0  0  0  0  0  0  0  0  0
   36.2026   33.2471   25.7559 C   0  0  0  0  0  0  0  0  0  0  0  0
   35.3244   33.5078   24.7677 C   0  0  0  0  0  0  0  0  0  0  0  0
   35.5258   34.8431   23.9483 C   0  0  0  0  0  0  0  0  0  0  0  0
   34.7428   35.0630   23.0811 O   0  0  0  0  0  0  0  0  0  0  0  0
   34.2692   32.3985   24.6015 C   0  0  0  0  0  0  0  0  0  0  0  0
   34.5634   31.4932   25.5413 C   0  0  0  0  0  0  0  0  0  0  0  0
   35.6557   31.7884   26.3119 N   0  0  0  0  0  0  0  0  0  0  0  0
   33.1597   32.3835   23.6215 C   0  0  0  0  0  0  0  0  0  0  0  0
   32.3267   32.4112   22.8202 N   0  0  0  0  0  0  0  0  0  0  0  0
  1  2  1  0  0  0  0
  1  7  1  0  0  0  0
  2  3  1  0  0  0  0
  2  4  2  0  0  0  0
  4  5  1  0  0  0  0
  5  6  2  0  0  0  0
  5 11  1  0  0  0  0
  6  7  1  0  0  0  0
  6  9  1  0  0  0  0
  7  8  2  0  0  0  0
  9 10  2  0  0  0  0
  9 12  1  0  0  0  0
 10 11  1  0  0  0  0
 12 13  3  0  0  0  0
M  END
>  <CHROM.1>
35.52042184,33.75268443,24.75658895,0.26604741,-0.63485427,-0.63274047

>  <Name>
ligand

>  <RI>
0

>  <Rbt.Current_Directory>
/home/itssahil/PROJECTS/Mol_Feturizer/New_Systems/rnas/3GCA

>  <Rbt.Executable>
rbdock ($Id: //depot/dev/client3/rdock/2013.1/src/exe/rbdock.cxx#4 $)

>  <Rbt.Library>
libRbt.so (2013.1, Build901 2013/11/27)

>  <Rbt.Parameter_File>
/export/apps/rDock/src/rDock_2013.1_src/data/scripts/dock_solv.prm

>  <Rbt.Receptor>
prm/pocket_docking_2.prm

>  <SCORE>
-21.4194

>  <SCORE.INTER>
-21.4369

>  <SCORE.INTER.CONST>
1

>  <SCORE.INTER.POLAR>
0

>  <SCORE.INTER.ROT>
0

>  <SCORE.INTER.SOLV>
11.4361

>  <SCORE.INTER.VDW>
-21.7033

>  <SCORE.INTER.norm>
-1.64899

>  <SCORE.INTRA>
0

>  <SCORE.INTRA.DIHEDRAL>
0

>  <SCORE.INTRA.DIHEDRAL.0>
0

>  <SCORE.INTRA.POLAR>
0

>  <SCORE.INTRA.POLAR.0>
0

>  <SCORE.INTRA.REPUL>
0

>  <SCORE.INTRA.REPUL.0>
0

>  <SCORE.INTRA.SOLV>
0

>  <SCORE.INTRA.SOLV.lig_0>
-33.1994

>  <SCORE.INTRA.VDW>
0

>  <SCORE.INTRA.VDW.0>
0

>  <SCORE.INTRA.norm>
0

>  <SCORE.RESTR>
0.0175081

>  <SCORE.RESTR.CAVITY>
0.0175081

>  <SCORE.RESTR.norm>
0.00134678

>  <SCORE.SYSTEM>
0

>  <SCORE.SYSTEM.CONST>
0

>  <SCORE.SYSTEM.DIHEDRAL>
0

>  <SCORE.SYSTEM.SOLV>
0

>  <SCORE.SYSTEM.norm>
0

>  <SCORE.heavy>
13

>  <SCORE.norm>
-1.64764

>  <RMSD>
4.241

$$$$
ligand
 OpenBabel11021811473D
libRbt.so/2013.1/901 2013/11/27
 13 14  0  0  0  0  0  0  0  0999 V2000
   36.5589   35.5915   24.3078 N   0  0  0  0  0  0  0  0  0  0  0  0
   37.5181   35.2047   25.5081 C   0  0  0  0  0  0  0  0  0  0  0  0
   38.5593   36.0511   25.8352 N   0  0  0  0  0  0  0  0  0  0  0  0
   37.2019   34.0948   26.0295 N   0  0  0  0  0  0  0  0  0  0  0  0
   36.1991   33.2376   25.7580 C   0  0  0  0  0  0  0  0  0  0  0  0
   35.3312   33.4939   24.7595 C   0  0  0  0  0  0  0  0  0  0  0  0
   35.5455   34.8219   23.9316 C   0  0  0  0  0  0  0  0  0  0  0  0
   34.7715   35.0380   23.0554 O   0  0  0  0  0  0  0  0  0  0  0  0
   34.2732   32.3874   24.5921 C   0  0  0  0  0  0  0  0  0  0  0  0
   34.5551   31.4884   25.5418 C   0  0  0  0  0  0  0  0  0  0  0  0
   35.6413   31.7855   26.3202 N   0  0  0  0  0  0  0  0  0  0  0  0
   33.1729   32.3689   23.6020 C   0  0  0  0  0  0  0  0  0  0  0  0
   32.3475   32.3935   22.7927 N   0  0  0  0  0  0  0  0  0  0  0  0
  1  2  1  0  0  0  0
  1  7  1  0  0  0  0
  2  3  1  0  0  0  0
  2  4  2  0  0  0  0
  4  5  1  0  0  0  0
  5  6  2  0  0  0  0
  5 11  1  0  0  0  0
  6  7  1  0  0  0  0
  6  9  1  0  0  0  0
  7  8  2  0  0  0  0
  9 10  2  0  0  0  0
  9 12  1  0  0  0  0
 10 11  1  0  0  0  0
 12 13  3  0  0  0  0
M  END
>  <CHROM.1>
35.52826684,33.73792056,24.74832467,0.25521097,-0.64002823,-0.64705720

>  <Name>
ligand

>  <RI>
0

>  <Rbt.Current_Directory>
/home/itssahil/PROJECTS/Mol_Feturizer/New_Systems/rnas/3GCA

>  <Rbt.Executable>
rbdock ($Id: //depot/dev/client3/rdock/2013.1/src/exe/rbdock.cxx#4 $)

>  <Rbt.Library>
libRbt.so (2013.1, Build901 2013/11/27)

>  <Rbt.Parameter_File>
/export/apps/rDock/src/rDock_2013.1_src/data/scripts/dock_solv.prm

>  <Rbt.Receptor>
prm/pocket_docking_2.prm

>  <SCORE>
-21.3815

>  <SCORE.INTER>
-21.3884

>  <SCORE.INTER.CONST>
1

>  <SCORE.INTER.POLAR>
0

>  <SCORE.INTER.ROT>
0

>  <SCORE.INTER.SOLV>
11.4449

>  <SCORE.INTER.VDW>
-21.6739

>  <SCORE.INTER.norm>
-1.64526

>  <SCORE.INTRA>
0

>  <SCORE.INTRA.DIHEDRAL>
0

>  <SCORE.INTRA.DIHEDRAL.0>
0

>  <SCORE.INTRA.POLAR>
0

>  <SCORE.INTRA.POLAR.0>
0

>  <SCORE.INTRA.REPUL>
0

>  <SCORE.INTRA.REPUL.0>
0

>  <SCORE.INTRA.SOLV>
0

>  <SCORE.INTRA.SOLV.lig_0>
-33.1994

>  <SCORE.INTRA.VDW>
0

>  <SCORE.INTRA.VDW.0>
0

>  <SCORE.INTRA.norm>
0

>  <SCORE.RESTR>
0.00690094

>  <SCORE.RESTR.CAVITY>
0.00690094

>  <SCORE.RESTR.norm>
0.000530842

>  <SCORE.SYSTEM>
0

>  <SCORE.SYSTEM.CONST>
0

>  <SCORE.SYSTEM.DIHEDRAL>
0

>  <SCORE.SYSTEM.SOLV>
0

>  <SCORE.SYSTEM.norm>
0

>  <SCORE.heavy>
13

>  <SCORE.norm>
-1.64473

>  <RMSD>
4.241

$$$$
ligand
 OpenBabel11021811473D
libRbt.so/2013.1/901 2013/11/27
 13 14  0  0  0  0  0  0  0  0999 V2000
   36.5458   35.6036   24.3132 N   0  0  0  0  0  0  0  0  0  0  0  0
   37.5136   35.2138   25.5055 C   0  0  0  0  0  0  0  0  0  0  0  0
   38.5552   36.0610   25.8294 N   0  0  0  0  0  0  0  0  0  0  0  0
   37.2033   34.1009   26.0242 N   0  0  0  0  0  0  0  0  0  0  0  0
   36.2005   33.2427   25.7555 C   0  0  0  0  0  0  0  0  0  0  0  0
   35.3256   33.5014   24.7639 C   0  0  0  0  0  0  0  0  0  0  0  0
   35.5316   34.8335   23.9403 C   0  0  0  0  0  0  0  0  0  0  0  0
   34.7514   35.0516   23.0701 O   0  0  0  0  0  0  0  0  0  0  0  0
   34.2689   32.3934   24.5986 C   0  0  0  0  0  0  0  0  0  0  0  0
   34.5589   31.4908   25.5425 C   0  0  0  0  0  0  0  0  0  0  0  0
   35.6496   31.7870   26.3150 N   0  0  0  0  0  0  0  0  0  0  0  0
   33.1622   32.3767   23.6156 C   0  0  0  0  0  0  0  0  0  0  0  0
   32.3314   32.4030   22.8118 N   0  0  0  0  0  0  0  0  0  0  0  0
  1  2  1  0  0  0  0
  1  7  1  0  0  0  0
  2  3  1  0  0  0  0
  2  4  2  0  0  0  0
  4  5  1  0  0  0  0
  5  6  2  0  0  0  0
  5 11  1  0  0  0  0
  6  7  1  0  0  0  0
  6  9  1  0  0  0  0
  7  8  2  0  0  0  0
  9 10  2  0  0  0  0
  9 12  1  0  0  0  0
 10 11  1  0  0  0  0
 12 13  3  0  0  0  0
M  END
>  <CHROM.1>
35.52202935,33.74591207,24.75242564,0.26225370,-0.63607546,-0.63854756

>  <Name>
ligand

>  <RI>
0

>  <Rbt.Current_Directory>
/home/itssahil/PROJECTS/Mol_Feturizer/New_Systems/rnas/3GCA

>  <Rbt.Executable>
rbdock ($Id: //depot/dev/client3/rdock/2013.1/src/exe/rbdock.cxx#4 $)

>  <Rbt.Library>
libRbt.so (2013.1, Build901 2013/11/27)

>  <Rbt.Parameter_File>
/export/apps/rDock/src/rDock_2013.1_src/data/scripts/dock_solv.prm

>  <Rbt.Receptor>
prm/pocket_docking_2.prm

>  <SCORE>
-21.4035

>  <SCORE.INTER>
-21.4158

>  <SCORE.INTER.CONST>
1

>  <SCORE.INTER.POLAR>
0

>  <SCORE.INTER.ROT>
0

>  <SCORE.INTER.SOLV>
11.4489

>  <SCORE.INTER.VDW>
-21.6935

>  <SCORE.INTER.norm>
-1.64737

>  <SCORE.INTRA>
0

>  <SCORE.INTRA.DIHEDRAL>
0

>  <SCORE.INTRA.DIHEDRAL.0>
0

>  <SCORE.INTRA.POLAR>
0

>  <SCORE.INTRA.POLAR.0>
0

>  <SCORE.INTRA.REPUL>
0

>  <SCORE.INTRA.REPUL.0>
0

>  <SCORE.INTRA.SOLV>
0

>  <SCORE.INTRA.SOLV.lig_0>
-33.1994

>  <SCORE.INTRA.VDW>
0

>  <SCORE.INTRA.VDW.0>
0

>  <SCORE.INTRA.norm>
0

>  <SCORE.RESTR>
0.0122386

>  <SCORE.RESTR.CAVITY>
0.0122386

>  <SCORE.RESTR.norm>
0.000941434

>  <SCORE.SYSTEM>
0

>  <SCORE.SYSTEM.CONST>
0

>  <SCORE.SYSTEM.DIHEDRAL>
0

>  <SCORE.SYSTEM.SOLV>
0

>  <SCORE.SYSTEM.norm>
0

>  <SCORE.heavy>
13

>  <SCORE.norm>
-1.64642

>  <RMSD>
4.241

$$$$
ligand
 OpenBabel11021811473D
libRbt.so/2013.1/901 2013/11/27
 13 14  0  0  0  0  0  0  0  0999 V2000
   36.5419   35.6054   24.3149 N   0  0  0  0  0  0  0  0  0  0  0  0
   37.5105   35.2150   25.5065 C   0  0  0  0  0  0  0  0  0  0  0  0
   38.5515   36.0627   25.8309 N   0  0  0  0  0  0  0  0  0  0  0  0
   37.2011   34.1014   26.0242 N   0  0  0  0  0  0  0  0  0  0  0  0
   36.1988   33.2428   25.7550 C   0  0  0  0  0  0  0  0  0  0  0  0
   35.3234   33.5018   24.7639 C   0  0  0  0  0  0  0  0  0  0  0  0
   35.5282   34.8348   23.9416 C   0  0  0  0  0  0  0  0  0  0  0  0
   34.7475   35.0533   23.0719 O   0  0  0  0  0  0  0  0  0  0  0  0
   34.2675   32.3932   24.5980 C   0  0  0  0  0  0  0  0  0  0  0  0
   34.5584   31.4900   25.5409 C   0  0  0  0  0  0  0  0  0  0  0  0
   35.6491   31.7861   26.3133 N   0  0  0  0  0  0  0  0  0  0  0  0
   33.1604   32.3767   23.6153 C   0  0  0  0  0  0  0  0  0  0  0  0
   32.3294   32.4032   22.8118 N   0  0  0  0  0  0  0  0  0  0  0  0
  1  2  1  0  0  0  0
  1  7  1  0  0  0  0
  2  3  1  0  0  0  0
  2  4  2  0  0  0  0
  4  5  1  0  0  0  0
  5  6  2  0  0  0  0
  5 11  1  0  0  0  0
  6  7  1  0  0  0  0
  6  9  1  0  0  0  0
  7  8  2  0  0  0  0
  9 10  2  0  0  0  0
  9 12  1  0  0  0  0
 10 11  1  0  0  0  0
 12 13  3  0  0  0  0
M  END
>  <CHROM.1>
35.51967377,33.74647133,24.75265722,0.26321127,-0.63623377,-0.63700550

>  <Name>
ligand

>  <RI>
0

>  <Rbt.Current_Directory>
/home/itssahil/PROJECTS/Mol_Feturizer/New_Systems/rnas/3GCA

>  <Rbt.Executable>
rbdock ($Id: //depot/dev/client3/rdock/2013.1/src/exe/rbdock.cxx#4 $)

>  <Rbt.Library>
libRbt.so (2013.1, Build901 2013/11/27)

>  <Rbt.Parameter_File>
/export/apps/rDock/src/rDock_2013.1_src/data/scripts/dock_solv.prm

>  <Rbt.Receptor>
prm/pocket_docking_2.prm

>  <SCORE>
-21.3938

>  <SCORE.INTER>
-21.4042

>  <SCORE.INTER.CONST>
1

>  <SCORE.INTER.POLAR>
0

>  <SCORE.INTER.ROT>
0

>  <SCORE.INTER.SOLV>
11.456

>  <SCORE.INTER.VDW>
-21.6882

>  <SCORE.INTER.norm>
-1.64648

>  <SCORE.INTRA>
0

>  <SCORE.INTRA.DIHEDRAL>
0

>  <SCORE.INTRA.DIHEDRAL.0>
0

>  <SCORE.INTRA.POLAR>
0

>  <SCORE.INTRA.POLAR.0>
0

>  <SCORE.INTRA.REPUL>
0

>  <SCORE.INTRA.REPUL.0>
0

>  <SCORE.INTRA.SOLV>
0

>  <SCORE.INTRA.SOLV.lig_0>
-33.1994

>  <SCORE.INTRA.VDW>
0

>  <SCORE.INTRA.VDW.0>
0

>  <SCORE.INTRA.norm>
0

>  <SCORE.RESTR>
0.0104218

>  <SCORE.RESTR.CAVITY>
0.0104218

>  <SCORE.RESTR.norm>
0.000801676

>  <SCORE.SYSTEM>
0

>  <SCORE.SYSTEM.CONST>
0

>  <SCORE.SYSTEM.DIHEDRAL>
0

>  <SCORE.SYSTEM.SOLV>
0

>  <SCORE.SYSTEM.norm>
0

>  <SCORE.heavy>
13

>  <SCORE.norm>
-1.64568

>  <RMSD>
4.241

$$$$
ligand
 OpenBabel11021811473D
libRbt.so/2013.1/901 2013/11/27
 13 14  0  0  0  0  0  0  0  0999 V2000
   36.5575   35.5947   24.3094 N   0  0  0  0  0  0  0  0  0  0  0  0
   37.5179   35.2052   25.5079 C   0  0  0  0  0  0  0  0  0  0  0  0
   38.5590   36.0512   25.8363 N   0  0  0  0  0  0  0  0  0  0  0  0
   37.2026   34.0938   26.0268 N   0  0  0  0  0  0  0  0  0  0  0  0
   36.1999   33.2369   25.7539 C   0  0  0  0  0  0  0  0  0  0  0  0
   35.3311   33.4954   24.7568 C   0  0  0  0  0  0  0  0  0  0  0  0
   35.5441   34.8256   23.9321 C   0  0  0  0  0  0  0  0  0  0  0  0
   34.7693   35.0436   23.0570 O   0  0  0  0  0  0  0  0  0  0  0  0
   34.2735   32.3889   24.5875 C   0  0  0  0  0  0  0  0  0  0  0  0
   34.5565   31.4875   25.5346 C   0  0  0  0  0  0  0  0  0  0  0  0
   35.6432   31.7831   26.3129 N   0  0  0  0  0  0  0  0  0  0  0  0
   33.1723   32.3724   23.5982 C   0  0  0  0  0  0  0  0  0  0  0  0
   32.3462   32.3987   22.7897 N   0  0  0  0  0  0  0  0  0  0  0  0
  1  2  1  0  0  0  0
  1  7  1  0  0  0  0
  2  3  1  0  0  0  0
  2  4  2  0  0  0  0
  4  5  1  0  0  0  0
  5  6  2  0  0  0  0
  5 11  1  0  0  0  0
  6  7  1  0  0  0  0
  6  9  1  0  0  0  0
  7  8  2  0  0  0  0
  9 10  2  0  0  0  0
  9 12  1  0  0  0  0
 10 11  1  0  0  0  0
 12 13  3  0  0  0  0
M  END
>  <CHROM.1>
35.52806046,33.73950677,24.74605642,0.25625656,-0.63961705,-0.64390383

>  <Name>
ligand

>  <RI>
0

>  <Rbt.Current_Directory>
/home/itssahil/PROJECTS/Mol_Feturizer/New_Systems/rnas/3GCA

>  <Rbt.Executable>
rbdock ($Id: //depot/dev/client3/rdock/2013.1/src/exe/rbdock.cxx#4 $)

>  <Rbt.Library>
libRbt.so (2013.1, Build901 2013/11/27)

>  <Rbt.Parameter_File>
/export/apps/rDock/src/rDock_2013.1_src/data/scripts/dock_solv.prm

>  <Rbt.Receptor>
prm/pocket_docking_2.prm

>  <SCORE>
-21.3856

>  <SCORE.INTER>
-21.3923

>  <SCORE.INTER.CONST>
1

>  <SCORE.INTER.POLAR>
0

>  <SCORE.INTER.ROT>
0

>  <SCORE.INTER.SOLV>
11.4443

>  <SCORE.INTER.VDW>
-21.6763

>  <SCORE.INTER.norm>
-1.64556

>  <SCORE.INTRA>
0

>  <SCORE.INTRA.DIHEDRAL>
0

>  <SCORE.INTRA.DIHEDRAL.0>
0

>  <SCORE.INTRA.POLAR>
0

>  <SCORE.INTRA.POLAR.0>
0

>  <SCORE.INTRA.REPUL>
0

>  <SCORE.INTRA.REPUL.0>
0

>  <SCORE.INTRA.SOLV>
0

>  <SCORE.INTRA.SOLV.lig_0>
-33.1994

>  <SCORE.INTRA.VDW>
0

>  <SCORE.INTRA.VDW.0>
0

>  <SCORE.INTRA.norm>
0

>  <SCORE.RESTR>
0.00674692

>  <SCORE.RESTR.CAVITY>
0.00674692

>  <SCORE.RESTR.norm>
0.000518994

>  <SCORE.SYSTEM>
0

>  <SCORE.SYSTEM.CONST>
0

>  <SCORE.SYSTEM.DIHEDRAL>
0

>  <SCORE.SYSTEM.SOLV>
0

>  <SCORE.SYSTEM.norm>
0

>  <SCORE.heavy>
13

>  <SCORE.norm>
-1.64504

>  <RMSD>
4.241

$$$$
ligand
 OpenBabel11021811473D
libRbt.so/2013.1/901 2013/11/27
 13 14  0  0  0  0  0  0  0  0999 V2000
   36.5445   35.6043   24.3154 N   0  0  0  0  0  0  0  0  0  0  0  0
   37.5127   35.2135   25.5071 C   0  0  0  0  0  0  0  0  0  0  0  0
   38.5543   36.0606   25.8316 N   0  0  0  0  0  0  0  0  0  0  0  0
   37.2026   34.1001   26.0249 N   0  0  0  0  0  0  0  0  0  0  0  0
   36.1999   33.2421   25.7557 C   0  0  0  0  0  0  0  0  0  0  0  0
   35.3247   33.5016   24.7646 C   0  0  0  0  0  0  0  0  0  0  0  0
   35.5303   34.8343   23.9421 C   0  0  0  0  0  0  0  0  0  0  0  0
   34.7499   35.0531   23.0723 O   0  0  0  0  0  0  0  0  0  0  0  0
   34.2681   32.3935   24.5986 C   0  0  0  0  0  0  0  0  0  0  0  0
   34.5584   31.4902   25.5417 C   0  0  0  0  0  0  0  0  0  0  0  0
   35.6492   31.7858   26.3142 N   0  0  0  0  0  0  0  0  0  0  0  0
   33.1611   32.3776   23.6159 C   0  0  0  0  0  0  0  0  0  0  0  0
   32.3302   32.4045   22.8123 N   0  0  0  0  0  0  0  0  0  0  0  0
  1  2  1  0  0  0  0
  1  7  1  0  0  0  0
  2  3  1  0  0  0  0
  2  4  2  0  0  0  0
  4  5  1  0  0  0  0
  5  6  2  0  0  0  0
  5 11  1  0  0  0  0
  6  7  1  0  0  0  0
  6  9  1  0  0  0  0
  7  8  2  0  0  0  0
  9 10  2  0  0  0  0
  9 12  1  0  0  0  0
 10 11  1  0  0  0  0
 12 13  3  0  0  0  0
M  END
>  <CHROM.1>
35.52111807,33.74606269,24.75328103,0.26253135,-0.63595843,-0.63753147

>  <Name>
ligand

>  <RI>
0

>  <Rbt.Current_Directory>
/home/itssahil/PROJECTS/Mol_Feturizer/New_Systems/rnas/3GCA

>  <Rbt.Executable>
rbdock ($Id: //depot/dev/client3/rdock/2013.1/src/exe/rbdock.cxx#4 $)

>  <Rbt.Library>
libRbt.so (2013.1, Build901 2013/11/27)

>  <Rbt.Parameter_File>
/export/apps/rDock/src/rDock_2013.1_src/data/scripts/dock_solv.prm

>  <Rbt.Receptor>
prm/pocket_docking_2.prm

>  <SCORE>
-21.3971

>  <SCORE.INTER>
-21.4081

>  <SCORE.INTER.CONST>
1

>  <SCORE.INTER.POLAR>
0

>  <SCORE.INTER.ROT>
0

>  <SCORE.INTER.SOLV>
11.4483

>  <SCORE.INTER.VDW>
-21.6882

>  <SCORE.INTER.norm>
-1.64677

>  <SCORE.INTRA>
0

>  <SCORE.INTRA.DIHEDRAL>
0

>  <SCORE.INTRA.DIHEDRAL.0>
0

>  <SCORE.INTRA.POLAR>
0

>  <SCORE.INTRA.POLAR.0>
0

>  <SCORE.INTRA.REPUL>
0

>  <SCORE.INTRA.REPUL.0>
0

>  <SCORE.INTRA.SOLV>
0

>  <SCORE.INTRA.SOLV.lig_0>
-33.1994

>  <SCORE.INTRA.VDW>
0

>  <SCORE.INTRA.VDW.0>
0

>  <SCORE.INTRA.norm>
0

>  <SCORE.RESTR>
0.0109776

>  <SCORE.RESTR.CAVITY>
0.0109776

>  <SCORE.RESTR.norm>
0.00084443

>  <SCORE.SYSTEM>
0

>  <SCORE.SYSTEM.CONST>
0

>  <SCORE.SYSTEM.DIHEDRAL>
0

>  <SCORE.SYSTEM.SOLV>
0

>  <SCORE.SYSTEM.norm>
0

>  <SCORE.heavy>
13

>  <SCORE.norm>
-1.64593

>  <RMSD>
4.241

$$$$
ligand
 OpenBabel11021811473D
libRbt.so/2013.1/901 2013/11/27
 13 14  0  0  0  0  0  0  0  0999 V2000
   36.5582   35.5968   24.3111 N   0  0  0  0  0  0  0  0  0  0  0  0
   37.5188   35.2075   25.5095 C   0  0  0  0  0  0  0  0  0  0  0  0
   38.5599   36.0537   25.8376 N   0  0  0  0  0  0  0  0  0  0  0  0
   37.2039   34.0961   26.0284 N   0  0  0  0  0  0  0  0  0  0  0  0
   36.2013   33.2389   25.7557 C   0  0  0  0  0  0  0  0  0  0  0  0
   35.3323   33.4972   24.7588 C   0  0  0  0  0  0  0  0  0  0  0  0
   35.5449   34.8275   23.9340 C   0  0  0  0  0  0  0  0  0  0  0  0
   34.7699   35.0453   23.0591 O   0  0  0  0  0  0  0  0  0  0  0  0
   34.2748   32.3905   24.5897 C   0  0  0  0  0  0  0  0  0  0  0  0
   34.5582   31.4892   25.5368 C   0  0  0  0  0  0  0  0  0  0  0  0
   35.6450   31.7851   26.3148 N   0  0  0  0  0  0  0  0  0  0  0  0
   33.1735   32.3738   23.6006 C   0  0  0  0  0  0  0  0  0  0  0  0
   32.3473   32.4000   22.7922 N   0  0  0  0  0  0  0  0  0  0  0  0
  1  2  1  0  0  0  0
  1  7  1  0  0  0  0
  2  3  1  0  0  0  0
  2  4  2  0  0  0  0
  4  5  1  0  0  0  0
  5  6  2  0  0  0  0
  5 11  1  0  0  0  0
  6  7  1  0  0  0  0
  6  9  1  0  0  0  0
  7  8  2  0  0  0  0
  9 10  2  0  0  0  0
  9 12  1  0  0  0  0
 10 11  1  0  0  0  0
 12 13  3  0  0  0  0
M  END
>  <CHROM.1>
35.52917298,33.74139648,24.74800016,0.25658625,-0.63959071,-0.64371759

>  <Name>
ligand

>  <RI>
0

>  <Rbt.Current_Directory>
/home/itssahil/PROJECTS/Mol_Feturizer/New_Systems/rnas/3GCA

>  <Rbt.Executable>
rbdock ($Id: //depot/dev/client3/rdock/2013.1/src/exe/rbdock.cxx#4 $)

>  <Rbt.Library>
libRbt.so (2013.1, Build901 2013/11/27)

>  <Rbt.Parameter_File>
/export/apps/rDock/src/rDock_2013.1_src/data/scripts/dock_solv.prm

>  <Rbt.Receptor>
prm/pocket_docking_2.prm

>  <SCORE>
-21.3983

>  <SCORE.INTER>
-21.4082

>  <SCORE.INTER.CONST>
1

>  <SCORE.INTER.POLAR>
0

>  <SCORE.INTER.ROT>
0

>  <SCORE.INTER.SOLV>
11.4347

>  <SCORE.INTER.VDW>
-21.6837

>  <SCORE.INTER.norm>
-1.64678

>  <SCORE.INTRA>
0

>  <SCORE.INTRA.DIHEDRAL>
0

>  <SCORE.INTRA.DIHEDRAL.0>
0

>  <SCORE.INTRA.POLAR>
0

>  <SCORE.INTRA.POLAR.0>
0

>  <SCORE.INTRA.REPUL>
0

>  <SCORE.INTRA.REPUL.0>
0

>  <SCORE.INTRA.SOLV>
0

>  <SCORE.INTRA.SOLV.lig_0>
-33.1994

>  <SCORE.INTRA.VDW>
0

>  <SCORE.INTRA.VDW.0>
0

>  <SCORE.INTRA.norm>
0

>  <SCORE.RESTR>
0.00987091

>  <SCORE.RESTR.CAVITY>
0.00987091

>  <SCORE.RESTR.norm>
0.000759301

>  <SCORE.SYSTEM>
0

>  <SCORE.SYSTEM.CONST>
0

>  <SCORE.SYSTEM.DIHEDRAL>
0

>  <SCORE.SYSTEM.SOLV>
0

>  <SCORE.SYSTEM.norm>
0

>  <SCORE.heavy>
13

>  <SCORE.norm>
-1.64603

>  <RMSD>
4.241

$$$$
ligand
 OpenBabel11021811473D
libRbt.so/2013.1/901 2013/11/27
 13 14  0  0  0  0  0  0  0  0999 V2000
   36.5518   35.6074   24.3193 N   0  0  0  0  0  0  0  0  0  0  0  0
   37.5181   35.2186   25.5132 C   0  0  0  0  0  0  0  0  0  0  0  0
   38.5590   36.0663   25.8380 N   0  0  0  0  0  0  0  0  0  0  0  0
   37.2073   34.1061   26.0323 N   0  0  0  0  0  0  0  0  0  0  0  0
   36.2050   33.2475   25.7629 C   0  0  0  0  0  0  0  0  0  0  0  0
   35.3314   33.5053   24.7698 C   0  0  0  0  0  0  0  0  0  0  0  0
   35.5383   34.8367   23.9455 C   0  0  0  0  0  0  0  0  0  0  0  0
   34.7593   35.0540   23.0741 O   0  0  0  0  0  0  0  0  0  0  0  0
   34.2752   32.3969   24.6040 C   0  0  0  0  0  0  0  0  0  0  0  0
   34.5641   31.4951   25.5490 C   0  0  0  0  0  0  0  0  0  0  0  0
   35.6536   31.7921   26.3228 N   0  0  0  0  0  0  0  0  0  0  0  0
   33.1699   32.3792   23.6194 C   0  0  0  0  0  0  0  0  0  0  0  0
   32.3403   32.4047   22.8144 N   0  0  0  0  0  0  0  0  0  0  0  0
  1  2  1  0  0  0  0
  1  7  1  0  0  0  0
  2  3  1  0  0  0  0
  2  4  2  0  0  0  0
  4  5  1  0  0  0  0
  5  6  2  0  0  0  0
  5 11  1  0  0  0  0
  6  7  1  0  0  0  0
  6  9  1  0  0  0  0
  7  8  2  0  0  0  0
  9 10  2  0  0  0  0
  9 12  1  0  0  0  0
 10 11  1  0  0  0  0
 12 13  3  0  0  0  0
M  END
>  <CHROM.1>
35.52787316,33.74978226,24.75848175,0.26139832,-0.63733894,-0.63984422

>  <Name>
ligand

>  <RI>
0

>  <Rbt.Current_Directory>
/home/itssahil/PROJECTS/Mol_Feturizer/New_Systems/rnas/3GCA

>  <Rbt.Executable>
rbdock ($Id: //depot/dev/client3/rdock/2013.1/src/exe/rbdock.cxx#4 $)

>  <Rbt.Library>
libRbt.so (2013.1, Build901 2013/11/27)

>  <Rbt.Parameter_File>
/export/apps/rDock/src/rDock_2013.1_src/data/scripts/dock_solv.prm

>  <Rbt.Receptor>
prm/pocket_docking_2.prm

>  <SCORE>
-21.4337

>  <SCORE.INTER>
-21.4545

>  <SCORE.INTER.CONST>
1

>  <SCORE.INTER.POLAR>
0

>  <SCORE.INTER.ROT>
0

>  <SCORE.INTER.SOLV>
11.4128

>  <SCORE.INTER.VDW>
-21.7073

>  <SCORE.INTER.norm>
-1.65035

>  <SCORE.INTRA>
0

>  <SCORE.INTRA.DIHEDRAL>
0

>  <SCORE.INTRA.DIHEDRAL.0>
0

>  <SCORE.INTRA.POLAR>
0

>  <SCORE.INTRA.POLAR.0>
0

>  <SCORE.INTRA.REPUL>
0

>  <SCORE.INTRA.REPUL.0>
0

>  <SCORE.INTRA.SOLV>
0

>  <SCORE.INTRA.SOLV.lig_0>
-33.1994

>  <SCORE.INTRA.VDW>
0

>  <SCORE.INTRA.VDW.0>
0

>  <SCORE.INTRA.norm>
0

>  <SCORE.RESTR>
0.0207679

>  <SCORE.RESTR.CAVITY>
0.0207679

>  <SCORE.RESTR.norm>
0.00159753

>  <SCORE.SYSTEM>
0

>  <SCORE.SYSTEM.CONST>
0

>  <SCORE.SYSTEM.DIHEDRAL>
0

>  <SCORE.SYSTEM.SOLV>
0

>  <SCORE.SYSTEM.norm>
0

>  <SCORE.heavy>
13

>  <SCORE.norm>
-1.64875

>  <RMSD>
4.241

$$$$
ligand
 OpenBabel11021811473D
libRbt.so/2013.1/901 2013/11/27
 13 14  0  0  0  0  0  0  0  0999 V2000
   36.5711   35.5683   24.2802 N   0  0  0  0  0  0  0  0  0  0  0  0
   37.5497   35.1669   25.4598 C   0  0  0  0  0  0  0  0  0  0  0  0
   38.6010   36.0054   25.7749 N   0  0  0  0  0  0  0  0  0  0  0  0
   37.2373   34.0543   25.9779 N   0  0  0  0  0  0  0  0  0  0  0  0
   36.2253   33.2044   25.7175 C   0  0  0  0  0  0  0  0  0  0  0  0
   35.3410   33.4732   24.7370 C   0  0  0  0  0  0  0  0  0  0  0  0
   35.5472   34.8068   23.9161 C   0  0  0  0  0  0  0  0  0  0  0  0
   34.7587   35.0339   23.0558 O   0  0  0  0  0  0  0  0  0  0  0  0
   34.2745   32.3734   24.5798 C   0  0  0  0  0  0  0  0  0  0  0  0
   34.5688   31.4652   25.5169 C   0  0  0  0  0  0  0  0  0  0  0  0
   35.6703   31.7505   26.2780 N   0  0  0  0  0  0  0  0  0  0  0  0
   33.1565   32.3684   23.6095 C   0  0  0  0  0  0  0  0  0  0  0  0
   32.3168   32.4038   22.8154 N   0  0  0  0  0  0  0  0  0  0  0  0
  1  2  1  0  0  0  0
  1  7  1  0  0  0  0
  2  3  1  0  0  0  0
  2  4  2  0  0  0  0
  4  5  1  0  0  0  0
  5  6  2  0  0  0  0
  5 11  1  0  0  0  0
  6  7  1  0  0  0  0
  6  9  1  0  0  0  0
  7  8  2  0  0  0  0
  9 10  2  0  0  0  0
  9 12  1  0  0  0  0
 10 11  1  0  0  0  0
 12 13  3  0  0  0  0
M  END
>  <CHROM.1>
35.53907099,33.71627354,24.72421665,0.26350735,-0.62256062,-0.63404253

>  <Name>
ligand

>  <RI>
0

>  <Rbt.Current_Directory>
/home/itssahil/PROJECTS/Mol_Feturizer/New_Systems/rnas/3GCA

>  <Rbt.Executable>
rbdock ($Id: //depot/dev/client3/rdock/2013.1/src/exe/rbdock.cxx#4 $)

>  <Rbt.Library>
libRbt.so (2013.1, Build901 2013/11/27)

>  <Rbt.Parameter_File>
/export/apps/rDock/src/rDock_2013.1_src/data/scripts/dock_solv.prm

>  <Rbt.Receptor>
prm/pocket_docking_2.prm

>  <SCORE>
-21.3365

>  <SCORE.INTER>
-21.3422

>  <SCORE.INTER.CONST>
1

>  <SCORE.INTER.POLAR>
0

>  <SCORE.INTER.ROT>
0

>  <SCORE.INTER.SOLV>
11.5157

>  <SCORE.INTER.VDW>
-21.6667

>  <SCORE.INTER.norm>
-1.64171

>  <SCORE.INTRA>
0

>  <SCORE.INTRA.DIHEDRAL>
0

>  <SCORE.INTRA.DIHEDRAL.0>
0

>  <SCORE.INTRA.POLAR>
0

>  <SCORE.INTRA.POLAR.0>
0

>  <SCORE.INTRA.REPUL>
0

>  <SCORE.INTRA.REPUL.0>
0

>  <SCORE.INTRA.SOLV>
0

>  <SCORE.INTRA.SOLV.lig_0>
-33.1994

>  <SCORE.INTRA.VDW>
0

>  <SCORE.INTRA.VDW.0>
0

>  <SCORE.INTRA.norm>
0

>  <SCORE.RESTR>
0.00576871

>  <SCORE.RESTR.CAVITY>
0.00576871

>  <SCORE.RESTR.norm>
0.000443747

>  <SCORE.SYSTEM>
0

>  <SCORE.SYSTEM.CONST>
0

>  <SCORE.SYSTEM.DIHEDRAL>
0

>  <SCORE.SYSTEM.SOLV>
0

>  <SCORE.SYSTEM.norm>
0

>  <SCORE.heavy>
13

>  <SCORE.norm>
-1.64127

>  <RMSD>
4.241

$$$$
ligand
 OpenBabel11021811473D
libRbt.so/2013.1/901 2013/11/27
 13 14  0  0  0  0  0  0  0  0999 V2000
   36.5562   35.6041   24.3129 N   0  0  0  0  0  0  0  0  0  0  0  0
   37.5175   35.2143   25.5106 C   0  0  0  0  0  0  0  0  0  0  0  0
   38.5570   36.0617   25.8404 N   0  0  0  0  0  0  0  0  0  0  0  0
   37.2045   34.1013   26.0274 N   0  0  0  0  0  0  0  0  0  0  0  0
   36.2034   33.2429   25.7530 C   0  0  0  0  0  0  0  0  0  0  0  0
   35.3340   33.5016   24.7565 C   0  0  0  0  0  0  0  0  0  0  0  0
   35.5443   34.8338   23.9343 C   0  0  0  0  0  0  0  0  0  0  0  0
   34.7690   35.0519   23.0597 O   0  0  0  0  0  0  0  0  0  0  0  0
   34.2785   32.3933   24.5853 C   0  0  0  0  0  0  0  0  0  0  0  0
   34.5633   31.4908   25.5307 C   0  0  0  0  0  0  0  0  0  0  0  0
   35.6496   31.7871   26.3094 N   0  0  0  0  0  0  0  0  0  0  0  0
   33.1772   32.3766   23.5961 C   0  0  0  0  0  0  0  0  0  0  0  0
   32.3510   32.4028   22.7876 N   0  0  0  0  0  0  0  0  0  0  0  0
  1  2  1  0  0  0  0
  1  7  1  0  0  0  0
  2  3  1  0  0  0  0
  2  4  2  0  0  0  0
  4  5  1  0  0  0  0
  5  6  2  0  0  0  0
  5 11  1  0  0  0  0
  6  7  1  0  0  0  0
  6  9  1  0  0  0  0
  7  8  2  0  0  0  0
  9 10  2  0  0  0  0
  9 12  1  0  0  0  0
 10 11  1  0  0  0  0
 12 13  3  0  0  0  0
M  END
>  <CHROM.1>
35.53043767,33.74612672,24.74621489,0.25827942,-0.64069472,-0.64082511

>  <Name>
ligand

>  <RI>
0

>  <Rbt.Current_Directory>
/home/itssahil/PROJECTS/Mol_Feturizer/New_Systems/rnas/3GCA

>  <Rbt.Executable>
rbdock ($Id: //depot/dev/client3/rdock/2013.1/src/exe/rbdock.cxx#4 $)

>  <Rbt.Library>
libRbt.so (2013.1, Build901 2013/11/27)

>  <Rbt.Parameter_File>
/export/apps/rDock/src/rDock_2013.1_src/data/scripts/dock_solv.prm

>  <Rbt.Receptor>
prm/pocket_docking_2.prm

>  <SCORE>
-21.3813

>  <SCORE.INTER>
-21.3959

>  <SCORE.INTER.CONST>
1

>  <SCORE.INTER.POLAR>
0

>  <SCORE.INTER.ROT>
0

>  <SCORE.INTER.SOLV>
11.4304

>  <SCORE.INTER.VDW>
-21.6741

>  <SCORE.INTER.norm>
-1.64584

>  <SCORE.INTRA>
0

>  <SCORE.INTRA.DIHEDRAL>
0

>  <SCORE.INTRA.DIHEDRAL.0>
0

>  <SCORE.INTRA.POLAR>
0

>  <SCORE.INTRA.POLAR.0>
0

>  <SCORE.INTRA.REPUL>
0

>  <SCORE.INTRA.REPUL.0>
0

>  <SCORE.INTRA.SOLV>
0

>  <SCORE.INTRA.SOLV.lig_0>
-33.1994

>  <SCORE.INTRA.VDW>
0

>  <SCORE.INTRA.VDW.0>
0

>  <SCORE.INTRA.norm>
0

>  <SCORE.RESTR>
0.0146317

>  <SCORE.RESTR.CAVITY>
0.0146317

>  <SCORE.RESTR.norm>
0.00112551

>  <SCORE.SYSTEM>
0

>  <SCORE.SYSTEM.CONST>
0

>  <SCORE.SYSTEM.DIHEDRAL>
0

>  <SCORE.SYSTEM.SOLV>
0

>  <SCORE.SYSTEM.norm>
0

>  <SCORE.heavy>
13

>  <SCORE.norm>
-1.64472

>  <RMSD>
4.241

$$$$
ligand
 OpenBabel11021811473D
libRbt.so/2013.1/901 2013/11/27
 13 14  0  0  0  0  0  0  0  0999 V2000
   36.5634   35.5978   24.3045 N   0  0  0  0  0  0  0  0  0  0  0  0
   37.5175   35.2093   25.5083 C   0  0  0  0  0  0  0  0  0  0  0  0
   38.5648   36.0490   25.8331 N   0  0  0  0  0  0  0  0  0  0  0  0
   37.1917   34.1044   26.0346 N   0  0  0  0  0  0  0  0  0  0  0  0
   36.1825   33.2539   25.7654 C   0  0  0  0  0  0  0  0  0  0  0  0
   35.3184   33.5122   24.7643 C   0  0  0  0  0  0  0  0  0  0  0  0
   35.5446   34.8344   23.9303 C   0  0  0  0  0  0  0  0  0  0  0  0
   34.7738   35.0524   23.0517 O   0  0  0  0  0  0  0  0  0  0  0  0
   34.2520   32.4133   24.6004 C   0  0  0  0  0  0  0  0  0  0  0  0
   34.5251   31.5167   25.5549 C   0  0  0  0  0  0  0  0  0  0  0  0
   35.6123   31.8090   26.3337 N   0  0  0  0  0  0  0  0  0  0  0  0
   33.1532   32.3987   23.6085 C   0  0  0  0  0  0  0  0  0  0  0  0
   32.3294   32.4259   22.7976 N   0  0  0  0  0  0  0  0  0  0  0  0
  1  2  1  0  0  0  0
  1  7  1  0  0  0  0
  2  3  1  0  0  0  0
  2  4  2  0  0  0  0
  4  5  1  0  0  0  0
  5  6  2  0  0  0  0
  5 11  1  0  0  0  0
  6  7  1  0  0  0  0
  6  9  1  0  0  0  0
  7  8  2  0  0  0  0
  9 10  2  0  0  0  0
  9 12  1  0  0  0  0
 10 11  1  0  0  0  0
 12 13  3  0  0  0  0
M  END
>  <CHROM.1>
35.51739405,33.75457474,24.75222372,0.24609726,-0.63658499,-0.65734195

>  <Name>
ligand

>  <RI>
0

>  <Rbt.Current_Directory>
/home/itssahil/PROJECTS/Mol_Feturizer/New_Systems/rnas/3GCA

>  <Rbt.Executable>
rbdock ($Id: //depot/dev/client3/rdock/2013.1/src/exe/rbdock.cxx#4 $)

>  <Rbt.Library>
libRbt.so (2013.1, Build901 2013/11/27)

>  <Rbt.Parameter_File>
/export/apps/rDock/src/rDock_2013.1_src/data/scripts/dock_solv.prm

>  <Rbt.Receptor>
prm/pocket_docking_2.prm

>  <SCORE>
-21.3648

>  <SCORE.INTER>
-21.3749

>  <SCORE.INTER.CONST>
1

>  <SCORE.INTER.POLAR>
0

>  <SCORE.INTER.ROT>
0

>  <SCORE.INTER.SOLV>
11.441

>  <SCORE.INTER.VDW>
-21.6636

>  <SCORE.INTER.norm>
-1.64423

>  <SCORE.INTRA>
0

>  <SCORE.INTRA.DIHEDRAL>
0

>  <SCORE.INTRA.DIHEDRAL.0>
0

>  <SCORE.INTRA.POLAR>
0

>  <SCORE.INTRA.POLAR.0>
0

>  <SCORE.INTRA.REPUL>
0

>  <SCORE.INTRA.REPUL.0>
0

>  <SCORE.INTRA.SOLV>
0

>  <SCORE.INTRA.SOLV.lig_0>
-33.1994

>  <SCORE.INTRA.VDW>
0

>  <SCORE.INTRA.VDW.0>
0

>  <SCORE.INTRA.norm>
0

>  <SCORE.RESTR>
0.0101117

>  <SCORE.RESTR.CAVITY>
0.0101117

>  <SCORE.RESTR.norm>
0.000777823

>  <SCORE.SYSTEM>
0

>  <SCORE.SYSTEM.CONST>
0

>  <SCORE.SYSTEM.DIHEDRAL>
0

>  <SCORE.SYSTEM.SOLV>
0

>  <SCORE.SYSTEM.norm>
0

>  <SCORE.heavy>
13

>  <SCORE.norm>
-1.64345

>  <RMSD>
4.241

$$$$
ligand
 OpenBabel11021811473D
libRbt.so/2013.1/901 2013/11/27
 13 14  0  0  0  0  0  0  0  0999 V2000
   36.5556   35.6027   24.3117 N   0  0  0  0  0  0  0  0  0  0  0  0
   37.5169   35.2153   25.5101 C   0  0  0  0  0  0  0  0  0  0  0  0
   38.5565   36.0633   25.8382 N   0  0  0  0  0  0  0  0  0  0  0  0
   37.2038   34.1034   26.0291 N   0  0  0  0  0  0  0  0  0  0  0  0
   36.2027   33.2445   25.7565 C   0  0  0  0  0  0  0  0  0  0  0  0
   35.3333   33.5012   24.7595 C   0  0  0  0  0  0  0  0  0  0  0  0
   35.5436   34.8317   23.9346 C   0  0  0  0  0  0  0  0  0  0  0  0
   34.7682   35.0480   23.0597 O   0  0  0  0  0  0  0  0  0  0  0  0
   34.2777   32.3926   24.5905 C   0  0  0  0  0  0  0  0  0  0  0  0
   34.5626   31.4919   25.5377 C   0  0  0  0  0  0  0  0  0  0  0  0
   35.6489   31.7897   26.3157 N   0  0  0  0  0  0  0  0  0  0  0  0
   33.1765   32.3739   23.6014 C   0  0  0  0  0  0  0  0  0  0  0  0
   32.3502   32.3985   22.7930 N   0  0  0  0  0  0  0  0  0  0  0  0
  1  2  1  0  0  0  0
  1  7  1  0  0  0  0
  2  3  1  0  0  0  0
  2  4  2  0  0  0  0
  4  5  1  0  0  0  0
  5  6  2  0  0  0  0
  5 11  1  0  0  0  0
  6  7  1  0  0  0  0
  6  9  1  0  0  0  0
  7  8  2  0  0  0  0
  9 10  2  0  0  0  0
  9 12  1  0  0  0  0
 10 11  1  0  0  0  0
 12 13  3  0  0  0  0
M  END
>  <CHROM.1>
35.52974988,33.74565561,24.74871865,0.25828598,-0.64064708,-0.64281184

>  <Name>
ligand

>  <RI>
0

>  <Rbt.Current_Directory>
/home/itssahil/PROJECTS/Mol_Feturizer/New_Systems/rnas/3GCA

>  <Rbt.Executable>
rbdock ($Id: //depot/dev/client3/rdock/2013.1/src/exe/rbdock.cxx#4 $)

>  <Rbt.Library>
libRbt.so (2013.1, Build901 2013/11/27)

>  <Rbt.Parameter_File>
/export/apps/rDock/src/rDock_2013.1_src/data/scripts/dock_solv.prm

>  <Rbt.Receptor>
prm/pocket_docking_2.prm

>  <SCORE>
-21.421

>  <SCORE.INTER>
-21.4366

>  <SCORE.INTER.CONST>
1

>  <SCORE.INTER.POLAR>
0

>  <SCORE.INTER.ROT>
0

>  <SCORE.INTER.SOLV>
11.4327

>  <SCORE.INTER.VDW>
-21.7019

>  <SCORE.INTER.norm>
-1.64897

>  <SCORE.INTRA>
0

>  <SCORE.INTRA.DIHEDRAL>
0

>  <SCORE.INTRA.DIHEDRAL.0>
0

>  <SCORE.INTRA.POLAR>
0

>  <SCORE.INTRA.POLAR.0>
0

>  <SCORE.INTRA.REPUL>
0

>  <SCORE.INTRA.REPUL.0>
0

>  <SCORE.INTRA.SOLV>
0

>  <SCORE.INTRA.SOLV.lig_0>
-33.1994

>  <SCORE.INTRA.VDW>
0

>  <SCORE.INTRA.VDW.0>
0

>  <SCORE.INTRA.norm>
0

>  <SCORE.RESTR>
0.0156088

>  <SCORE.RESTR.CAVITY>
0.0156088

>  <SCORE.RESTR.norm>
0.00120067

>  <SCORE.SYSTEM>
0

>  <SCORE.SYSTEM.CONST>
0

>  <SCORE.SYSTEM.DIHEDRAL>
0

>  <SCORE.SYSTEM.SOLV>
0

>  <SCORE.SYSTEM.norm>
0

>  <SCORE.heavy>
13

>  <SCORE.norm>
-1.64777

>  <RMSD>
4.241

$$$$
ligand
 OpenBabel11021811473D
libRbt.so/2013.1/901 2013/11/27
 13 14  0  0  0  0  0  0  0  0999 V2000
   36.6135   35.7468   24.1839 N   0  0  0  0  0  0  0  0  0  0  0  0
   37.6020   35.4360   25.3825 C   0  0  0  0  0  0  0  0  0  0  0  0
   38.6211   36.3258   25.6605 N   0  0  0  0  0  0  0  0  0  0  0  0
   37.3284   34.3378   25.9507 N   0  0  0  0  0  0  0  0  0  0  0  0
   36.3488   33.4405   25.7280 C   0  0  0  0  0  0  0  0  0  0  0  0
   35.4587   33.6316   24.7346 C   0  0  0  0  0  0  0  0  0  0  0  0
   35.6192   34.9327   23.8535 C   0  0  0  0  0  0  0  0  0  0  0  0
   34.8259   35.0911   22.9822 O   0  0  0  0  0  0  0  0  0  0  0  0
   34.4334   32.4876   24.6264 C   0  0  0  0  0  0  0  0  0  0  0  0
   34.7572   31.6348   25.6049 C   0  0  0  0  0  0  0  0  0  0  0  0
   35.8450   31.9948   26.3539 N   0  0  0  0  0  0  0  0  0  0  0  0
   33.3196   32.3974   23.6554 C   0  0  0  0  0  0  0  0  0  0  0  0
   32.4819   32.3655   22.8590 N   0  0  0  0  0  0  0  0  0  0  0  0
  1  2  1  0  0  0  0
  1  7  1  0  0  0  0
  2  3  1  0  0  0  0
  2  4  2  0  0  0  0
  4  5  1  0  0  0  0
  5  6  2  0  0  0  0
  5 11  1  0  0  0  0
  6  7  1  0  0  0  0
  6  9  1  0  0  0  0
  7  8  2  0  0  0  0
  9 10  2  0  0  0  0
  9 12  1  0  0  0  0
 10 11  1  0  0  0  0
 12 13  3  0  0  0  0
M  END
>  <CHROM.1>
35.64786635,33.88088484,24.71097825,0.29758846,-0.64656069,-0.65991387

>  <Name>
ligand

>  <RI>
0

>  <Rbt.Current_Directory>
/home/itssahil/PROJECTS/Mol_Feturizer/New_Systems/rnas/3GCA

>  <Rbt.Executable>
rbdock ($Id: //depot/dev/client3/rdock/2013.1/src/exe/rbdock.cxx#4 $)

>  <Rbt.Library>
libRbt.so (2013.1, Build901 2013/11/27)

>  <Rbt.Parameter_File>
/export/apps/rDock/src/rDock_2013.1_src/data/scripts/dock_solv.prm

>  <Rbt.Receptor>
prm/blind_docking_100.prm

>  <SCORE>
-21.9138

>  <SCORE.INTER>
-21.9138

>  <SCORE.INTER.CONST>
1

>  <SCORE.INTER.POLAR>
0

>  <SCORE.INTER.ROT>
0

>  <SCORE.INTER.SOLV>
11.317

>  <SCORE.INTER.VDW>
-21.9816

>  <SCORE.INTER.norm>
-1.68568

>  <SCORE.INTRA>
0

>  <SCORE.INTRA.DIHEDRAL>
0

>  <SCORE.INTRA.DIHEDRAL.0>
0

>  <SCORE.INTRA.POLAR>
0

>  <SCORE.INTRA.POLAR.0>
0

>  <SCORE.INTRA.REPUL>
0

>  <SCORE.INTRA.REPUL.0>
0

>  <SCORE.INTRA.SOLV>
0

>  <SCORE.INTRA.SOLV.lig_0>
-33.1994

>  <SCORE.INTRA.VDW>
0

>  <SCORE.INTRA.VDW.0>
0

>  <SCORE.INTRA.norm>
0

>  <SCORE.RESTR>
0

>  <SCORE.RESTR.CAVITY>
0

>  <SCORE.RESTR.norm>
0

>  <SCORE.SYSTEM>
0

>  <SCORE.SYSTEM.CONST>
0

>  <SCORE.SYSTEM.DIHEDRAL>
0

>  <SCORE.SYSTEM.SOLV>
0

>  <SCORE.SYSTEM.norm>
0

>  <SCORE.heavy>
13

>  <SCORE.norm>
-1.68568

>  <RMSD>
4.242

$$$$
ligand
 OpenBabel11021811473D
libRbt.so/2013.1/901 2013/11/27
 13 14  0  0  0  0  0  0  0  0999 V2000
   36.5732   35.5890   24.3261 N   0  0  0  0  0  0  0  0  0  0  0  0
   37.5338   35.1866   25.5201 C   0  0  0  0  0  0  0  0  0  0  0  0
   38.5799   36.0250   25.8521 N   0  0  0  0  0  0  0  0  0  0  0  0
   37.2138   34.0734   26.0321 N   0  0  0  0  0  0  0  0  0  0  0  0
   36.2061   33.2235   25.7554 C   0  0  0  0  0  0  0  0  0  0  0  0
   35.3368   33.4931   24.7618 C   0  0  0  0  0  0  0  0  0  0  0  0
   35.5551   34.8277   23.9456 C   0  0  0  0  0  0  0  0  0  0  0  0
   34.7798   35.0555   23.0735 O   0  0  0  0  0  0  0  0  0  0  0  0
   34.2731   32.3932   24.5871 C   0  0  0  0  0  0  0  0  0  0  0  0
   34.5533   31.4841   25.5276 C   0  0  0  0  0  0  0  0  0  0  0  0
   35.6430   31.7689   26.3057 N   0  0  0  0  0  0  0  0  0  0  0  0
   33.1700   32.3891   23.5999 C   0  0  0  0  0  0  0  0  0  0  0  0
   32.3425   32.4251   22.7931 N   0  0  0  0  0  0  0  0  0  0  0  0
  1  2  1  0  0  0  0
  1  7  1  0  0  0  0
  2  3  1  0  0  0  0
  2  4  2  0  0  0  0
  4  5  1  0  0  0  0
  5  6  2  0  0  0  0
  5 11  1  0  0  0  0
  6  7  1  0  0  0  0
  6  9  1  0  0  0  0
  7  8  2  0  0  0  0
  9 10  2  0  0  0  0
  9 12  1  0  0  0  0
 10 11  1  0  0  0  0
 12 13  3  0  0  0  0
M  END
>  <CHROM.1>
35.53497059,33.73629453,24.75229961,0.25254305,-0.63499037,-0.63940582

>  <Name>
ligand

>  <RI>
0

>  <Rbt.Current_Directory>
/home/itssahil/PROJECTS/Mol_Feturizer/New_Systems/rnas/3GCA

>  <Rbt.Executable>
rbdock ($Id: //depot/dev/client3/rdock/2013.1/src/exe/rbdock.cxx#4 $)

>  <Rbt.Library>
libRbt.so (2013.1, Build901 2013/11/27)

>  <Rbt.Parameter_File>
/export/apps/rDock/src/rDock_2013.1_src/data/scripts/dock_solv.prm

>  <Rbt.Receptor>
prm/pocket_docking_2.prm

>  <SCORE>
-21.3729

>  <SCORE.INTER>
-21.3755

>  <SCORE.INTER.CONST>
1

>  <SCORE.INTER.POLAR>
0

>  <SCORE.INTER.ROT>
0

>  <SCORE.INTER.SOLV>
11.3743

>  <SCORE.INTER.VDW>
-21.6418

>  <SCORE.INTER.norm>
-1.64427

>  <SCORE.INTRA>
0

>  <SCORE.INTRA.DIHEDRAL>
0

>  <SCORE.INTRA.DIHEDRAL.0>
0

>  <SCORE.INTRA.POLAR>
0

>  <SCORE.INTRA.POLAR.0>
0

>  <SCORE.INTRA.REPUL>
0

>  <SCORE.INTRA.REPUL.0>
0

>  <SCORE.INTRA.SOLV>
0

>  <SCORE.INTRA.SOLV.lig_0>
-33.1994

>  <SCORE.INTRA.VDW>
0

>  <SCORE.INTRA.VDW.0>
0

>  <SCORE.INTRA.norm>
0

>  <SCORE.RESTR>
0.00259838

>  <SCORE.RESTR.CAVITY>
0.00259838

>  <SCORE.RESTR.norm>
0.000199875

>  <SCORE.SYSTEM>
0

>  <SCORE.SYSTEM.CONST>
0

>  <SCORE.SYSTEM.DIHEDRAL>
0

>  <SCORE.SYSTEM.SOLV>
0

>  <SCORE.SYSTEM.norm>
0

>  <SCORE.heavy>
13

>  <SCORE.norm>
-1.64407

>  <RMSD>
4.242

$$$$
ligand
 OpenBabel11021811473D
libRbt.so/2013.1/901 2013/11/27
 13 14  0  0  0  0  0  0  0  0999 V2000
   36.5500   35.6104   24.3264 N   0  0  0  0  0  0  0  0  0  0  0  0
   37.5205   35.2150   25.5148 C   0  0  0  0  0  0  0  0  0  0  0  0
   38.5634   36.0602   25.8397 N   0  0  0  0  0  0  0  0  0  0  0  0
   37.2106   34.1002   26.0297 N   0  0  0  0  0  0  0  0  0  0  0  0
   36.2066   33.2438   25.7599 C   0  0  0  0  0  0  0  0  0  0  0  0
   35.3295   33.5072   24.7715 C   0  0  0  0  0  0  0  0  0  0  0  0
   35.5344   34.8424   23.9528 C   0  0  0  0  0  0  0  0  0  0  0  0
   34.7523   35.0646   23.0854 O   0  0  0  0  0  0  0  0  0  0  0  0
   34.2717   32.4005   24.6042 C   0  0  0  0  0  0  0  0  0  0  0  0
   34.5633   31.4940   25.5438 C   0  0  0  0  0  0  0  0  0  0  0  0
   35.6560   31.7862   26.3149 N   0  0  0  0  0  0  0  0  0  0  0  0
   33.1626   32.3886   23.6238 C   0  0  0  0  0  0  0  0  0  0  0  0
   32.3299   32.4187   22.8221 N   0  0  0  0  0  0  0  0  0  0  0  0
  1  2  1  0  0  0  0
  1  7  1  0  0  0  0
  2  3  1  0  0  0  0
  2  4  2  0  0  0  0
  4  5  1  0  0  0  0
  5  6  2  0  0  0  0
  5 11  1  0  0  0  0
  6  7  1  0  0  0  0
  6  9  1  0  0  0  0
  7  8  2  0  0  0  0
  9 10  2  0  0  0  0
  9 12  1  0  0  0  0
 10 11  1  0  0  0  0
 12 13  3  0  0  0  0
M  END
>  <CHROM.1>
35.52607103,33.75156563,24.76052837,0.26331471,-0.63375853,-0.63387299

>  <Name>
ligand

>  <RI>
0

>  <Rbt.Current_Directory>
/home/itssahil/PROJECTS/Mol_Feturizer/New_Systems/rnas/3GCA

>  <Rbt.Executable>
rbdock ($Id: //depot/dev/client3/rdock/2013.1/src/exe/rbdock.cxx#4 $)

>  <Rbt.Library>
libRbt.so (2013.1, Build901 2013/11/27)

>  <Rbt.Parameter_File>
/export/apps/rDock/src/rDock_2013.1_src/data/scripts/dock_solv.prm

>  <Rbt.Receptor>
prm/pocket_docking_2.prm

>  <SCORE>
-21.4277

>  <SCORE.INTER>
-21.4468

>  <SCORE.INTER.CONST>
1

>  <SCORE.INTER.POLAR>
0

>  <SCORE.INTER.ROT>
0

>  <SCORE.INTER.SOLV>
11.3994

>  <SCORE.INTER.VDW>
-21.6977

>  <SCORE.INTER.norm>
-1.64976

>  <SCORE.INTRA>
0

>  <SCORE.INTRA.DIHEDRAL>
0

>  <SCORE.INTRA.DIHEDRAL.0>
0

>  <SCORE.INTRA.POLAR>
0

>  <SCORE.INTRA.POLAR.0>
0

>  <SCORE.INTRA.REPUL>
0

>  <SCORE.INTRA.REPUL.0>
0

>  <SCORE.INTRA.SOLV>
0

>  <SCORE.INTRA.SOLV.lig_0>
-33.1994

>  <SCORE.INTRA.VDW>
0

>  <SCORE.INTRA.VDW.0>
0

>  <SCORE.INTRA.norm>
0

>  <SCORE.RESTR>
0.0191043

>  <SCORE.RESTR.CAVITY>
0.0191043

>  <SCORE.RESTR.norm>
0.00146956

>  <SCORE.SYSTEM>
0

>  <SCORE.SYSTEM.CONST>
0

>  <SCORE.SYSTEM.DIHEDRAL>
0

>  <SCORE.SYSTEM.SOLV>
0

>  <SCORE.SYSTEM.norm>
0

>  <SCORE.heavy>
13

>  <SCORE.norm>
-1.64829

>  <RMSD>
4.242

$$$$
ligand
 OpenBabel11021811473D
libRbt.so/2013.1/901 2013/11/27
 13 14  0  0  0  0  0  0  0  0999 V2000
   36.5927   35.5762   24.3099 N   0  0  0  0  0  0  0  0  0  0  0  0
   37.5454   35.1792   25.5120 C   0  0  0  0  0  0  0  0  0  0  0  0
   38.5946   36.0148   25.8415 N   0  0  0  0  0  0  0  0  0  0  0  0
   37.2169   34.0724   26.0324 N   0  0  0  0  0  0  0  0  0  0  0  0
   36.2058   33.2256   25.7585 C   0  0  0  0  0  0  0  0  0  0  0  0
   35.3427   33.4911   24.7584 C   0  0  0  0  0  0  0  0  0  0  0  0
   35.5722   34.8172   23.9314 C   0  0  0  0  0  0  0  0  0  0  0  0
   34.8022   35.0414   23.0537 O   0  0  0  0  0  0  0  0  0  0  0  0
   34.2738   32.3956   24.5885 C   0  0  0  0  0  0  0  0  0  0  0  0
   34.5445   31.4934   25.5384 C   0  0  0  0  0  0  0  0  0  0  0  0
   35.6321   31.7791   26.3191 N   0  0  0  0  0  0  0  0  0  0  0  0
   33.1753   32.3887   23.5961 C   0  0  0  0  0  0  0  0  0  0  0  0
   32.3518   32.4220   22.7851 N   0  0  0  0  0  0  0  0  0  0  0  0
  1  2  1  0  0  0  0
  1  7  1  0  0  0  0
  2  3  1  0  0  0  0
  2  4  2  0  0  0  0
  4  5  1  0  0  0  0
  5  6  2  0  0  0  0
  5 11  1  0  0  0  0
  6  7  1  0  0  0  0
  6  9  1  0  0  0  0
  7  8  2  0  0  0  0
  9 10  2  0  0  0  0
  9 12  1  0  0  0  0
 10 11  1  0  0  0  0
 12 13  3  0  0  0  0
M  END
>  <CHROM.1>
35.54224910,33.73309353,24.74768752,0.24354123,-0.63543330,-0.65366785

>  <Name>
ligand

>  <RI>
0

>  <Rbt.Current_Directory>
/home/itssahil/PROJECTS/Mol_Feturizer/New_Systems/rnas/3GCA

>  <Rbt.Executable>
rbdock ($Id: //depot/dev/client3/rdock/2013.1/src/exe/rbdock.cxx#4 $)

>  <Rbt.Library>
libRbt.so (2013.1, Build901 2013/11/27)

>  <Rbt.Parameter_File>
/export/apps/rDock/src/rDock_2013.1_src/data/scripts/dock_solv.prm

>  <Rbt.Receptor>
prm/pocket_docking_2.prm

>  <SCORE>
-21.3366

>  <SCORE.INTER>
-21.3444

>  <SCORE.INTER.CONST>
1

>  <SCORE.INTER.POLAR>
0

>  <SCORE.INTER.ROT>
0

>  <SCORE.INTER.SOLV>
11.3645

>  <SCORE.INTER.VDW>
-21.6178

>  <SCORE.INTER.norm>
-1.64188

>  <SCORE.INTRA>
0

>  <SCORE.INTRA.DIHEDRAL>
0

>  <SCORE.INTRA.DIHEDRAL.0>
0

>  <SCORE.INTRA.POLAR>
0

>  <SCORE.INTRA.POLAR.0>
0

>  <SCORE.INTRA.REPUL>
0

>  <SCORE.INTRA.REPUL.0>
0

>  <SCORE.INTRA.SOLV>
0

>  <SCORE.INTRA.SOLV.lig_0>
-33.1994

>  <SCORE.INTRA.VDW>
0

>  <SCORE.INTRA.VDW.0>
0

>  <SCORE.INTRA.norm>
0

>  <SCORE.RESTR>
0.00777667

>  <SCORE.RESTR.CAVITY>
0.00777667

>  <SCORE.RESTR.norm>
0.000598205

>  <SCORE.SYSTEM>
0

>  <SCORE.SYSTEM.CONST>
0

>  <SCORE.SYSTEM.DIHEDRAL>
0

>  <SCORE.SYSTEM.SOLV>
0

>  <SCORE.SYSTEM.norm>
0

>  <SCORE.heavy>
13

>  <SCORE.norm>
-1.64128

>  <RMSD>
4.242

$$$$
ligand
 OpenBabel11021811473D
libRbt.so/2013.1/901 2013/11/27
 13 14  0  0  0  0  0  0  0  0999 V2000
   36.5622   35.6077   24.3172 N   0  0  0  0  0  0  0  0  0  0  0  0
   37.5206   35.2148   25.5161 C   0  0  0  0  0  0  0  0  0  0  0  0
   38.5635   36.0579   25.8462 N   0  0  0  0  0  0  0  0  0  0  0  0
   37.2022   34.1036   26.0336 N   0  0  0  0  0  0  0  0  0  0  0  0
   36.1975   33.2494   25.7591 C   0  0  0  0  0  0  0  0  0  0  0  0
   35.3302   33.5110   24.7616 C   0  0  0  0  0  0  0  0  0  0  0  0
   35.5472   34.8415   23.9383 C   0  0  0  0  0  0  0  0  0  0  0  0
   34.7737   35.0622   23.0628 O   0  0  0  0  0  0  0  0  0  0  0  0
   34.2700   32.4073   24.5903 C   0  0  0  0  0  0  0  0  0  0  0  0
   34.5500   31.5043   25.5368 C   0  0  0  0  0  0  0  0  0  0  0  0
   35.6368   31.7965   26.3162 N   0  0  0  0  0  0  0  0  0  0  0  0
   33.1697   32.3944   23.6001 C   0  0  0  0  0  0  0  0  0  0  0  0
   32.3444   32.4235   22.7908 N   0  0  0  0  0  0  0  0  0  0  0  0
  1  2  1  0  0  0  0
  1  7  1  0  0  0  0
  2  3  1  0  0  0  0
  2  4  2  0  0  0  0
  4  5  1  0  0  0  0
  5  6  2  0  0  0  0
  5 11  1  0  0  0  0
  6  7  1  0  0  0  0
  6  9  1  0  0  0  0
  7  8  2  0  0  0  0
  9 10  2  0  0  0  0
  9 12  1  0  0  0  0
 10 11  1  0  0  0  0
 12 13  3  0  0  0  0
M  END
>  <CHROM.1>
35.52780026,33.75465115,24.75119434,0.25317073,-0.63881805,-0.64479720

>  <Name>
ligand

>  <RI>
0

>  <Rbt.Current_Directory>
/home/itssahil/PROJECTS/Mol_Feturizer/New_Systems/rnas/3GCA

>  <Rbt.Executable>
rbdock ($Id: //depot/dev/client3/rdock/2013.1/src/exe/rbdock.cxx#4 $)

>  <Rbt.Library>
libRbt.so (2013.1, Build901 2013/11/27)

>  <Rbt.Parameter_File>
/export/apps/rDock/src/rDock_2013.1_src/data/scripts/dock_solv.prm

>  <Rbt.Receptor>
prm/pocket_docking_2.prm

>  <SCORE>
-21.4011

>  <SCORE.INTER>
-21.4182

>  <SCORE.INTER.CONST>
1

>  <SCORE.INTER.POLAR>
0

>  <SCORE.INTER.ROT>
0

>  <SCORE.INTER.SOLV>
11.4062

>  <SCORE.INTER.VDW>
-21.6809

>  <SCORE.INTER.norm>
-1.64756

>  <SCORE.INTRA>
0

>  <SCORE.INTRA.DIHEDRAL>
0

>  <SCORE.INTRA.DIHEDRAL.0>
0

>  <SCORE.INTRA.POLAR>
0

>  <SCORE.INTRA.POLAR.0>
0

>  <SCORE.INTRA.REPUL>
0

>  <SCORE.INTRA.REPUL.0>
0

>  <SCORE.INTRA.SOLV>
0

>  <SCORE.INTRA.SOLV.lig_0>
-33.1994

>  <SCORE.INTRA.VDW>
0

>  <SCORE.INTRA.VDW.0>
0

>  <SCORE.INTRA.norm>
0

>  <SCORE.RESTR>
0.0171185

>  <SCORE.RESTR.CAVITY>
0.0171185

>  <SCORE.RESTR.norm>
0.00131681

>  <SCORE.SYSTEM>
0

>  <SCORE.SYSTEM.CONST>
0

>  <SCORE.SYSTEM.DIHEDRAL>
0

>  <SCORE.SYSTEM.SOLV>
0

>  <SCORE.SYSTEM.norm>
0

>  <SCORE.heavy>
13

>  <SCORE.norm>
-1.64624

>  <RMSD>
4.242

$$$$
ligand
 OpenBabel11021811473D
libRbt.so/2013.1/901 2013/11/27
 13 14  0  0  0  0  0  0  0  0999 V2000
   36.5704   35.5918   24.3214 N   0  0  0  0  0  0  0  0  0  0  0  0
   37.5293   35.1930   25.5180 C   0  0  0  0  0  0  0  0  0  0  0  0
   38.5745   36.0328   25.8495 N   0  0  0  0  0  0  0  0  0  0  0  0
   37.2091   34.0809   26.0324 N   0  0  0  0  0  0  0  0  0  0  0  0
   36.2023   33.2298   25.7562 C   0  0  0  0  0  0  0  0  0  0  0  0
   35.3344   33.4964   24.7605 C   0  0  0  0  0  0  0  0  0  0  0  0
   35.5534   34.8290   23.9412 C   0  0  0  0  0  0  0  0  0  0  0  0
   34.7793   35.0542   23.0674 O   0  0  0  0  0  0  0  0  0  0  0  0
   34.2716   32.3955   24.5870 C   0  0  0  0  0  0  0  0  0  0  0  0
   34.5507   31.4890   25.5303 C   0  0  0  0  0  0  0  0  0  0  0  0
   35.6391   31.7763   26.3094 N   0  0  0  0  0  0  0  0  0  0  0  0
   33.1701   32.3882   23.5980 C   0  0  0  0  0  0  0  0  0  0  0  0
   32.3439   32.4217   22.7898 N   0  0  0  0  0  0  0  0  0  0  0  0
  1  2  1  0  0  0  0
  1  7  1  0  0  0  0
  2  3  1  0  0  0  0
  2  4  2  0  0  0  0
  4  5  1  0  0  0  0
  5  6  2  0  0  0  0
  5 11  1  0  0  0  0
  6  7  1  0  0  0  0
  6  9  1  0  0  0  0
  7  8  2  0  0  0  0
  9 10  2  0  0  0  0
  9 12  1  0  0  0  0
 10 11  1  0  0  0  0
 12 13  3  0  0  0  0
M  END
>  <CHROM.1>
35.53249171,33.73965553,24.75072144,0.25187161,-0.63660145,-0.64237668

>  <Name>
ligand

>  <RI>
0

>  <Rbt.Current_Directory>
/home/itssahil/PROJECTS/Mol_Feturizer/New_Systems/rnas/3GCA

>  <Rbt.Executable>
rbdock ($Id: //depot/dev/client3/rdock/2013.1/src/exe/rbdock.cxx#4 $)

>  <Rbt.Library>
libRbt.so (2013.1, Build901 2013/11/27)

>  <Rbt.Parameter_File>
/export/apps/rDock/src/rDock_2013.1_src/data/scripts/dock_solv.prm

>  <Rbt.Receptor>
prm/pocket_docking_2.prm

>  <SCORE>
-21.3726

>  <SCORE.INTER>
-21.377

>  <SCORE.INTER.CONST>
1

>  <SCORE.INTER.POLAR>
0

>  <SCORE.INTER.ROT>
0

>  <SCORE.INTER.SOLV>
11.391

>  <SCORE.INTER.VDW>
-21.6484

>  <SCORE.INTER.norm>
-1.64439

>  <SCORE.INTRA>
0

>  <SCORE.INTRA.DIHEDRAL>
0

>  <SCORE.INTRA.DIHEDRAL.0>
0

>  <SCORE.INTRA.POLAR>
0

>  <SCORE.INTRA.POLAR.0>
0

>  <SCORE.INTRA.REPUL>
0

>  <SCORE.INTRA.REPUL.0>
0

>  <SCORE.INTRA.SOLV>
0

>  <SCORE.INTRA.SOLV.lig_0>
-33.1994

>  <SCORE.INTRA.VDW>
0

>  <SCORE.INTRA.VDW.0>
0

>  <SCORE.INTRA.norm>
0

>  <SCORE.RESTR>
0.004412

>  <SCORE.RESTR.CAVITY>
0.004412

>  <SCORE.RESTR.norm>
0.000339384

>  <SCORE.SYSTEM>
0

>  <SCORE.SYSTEM.CONST>
0

>  <SCORE.SYSTEM.DIHEDRAL>
0

>  <SCORE.SYSTEM.SOLV>
0

>  <SCORE.SYSTEM.norm>
0

>  <SCORE.heavy>
13

>  <SCORE.norm>
-1.64405

>  <RMSD>
4.242

$$$$
ligand
 OpenBabel11021811473D
libRbt.so/2013.1/901 2013/11/27
 13 14  0  0  0  0  0  0  0  0999 V2000
   36.5703   35.6078   24.3122 N   0  0  0  0  0  0  0  0  0  0  0  0
   37.5216   35.2190   25.5180 C   0  0  0  0  0  0  0  0  0  0  0  0
   38.5678   36.0591   25.8459 N   0  0  0  0  0  0  0  0  0  0  0  0
   37.1951   34.1136   26.0428 N   0  0  0  0  0  0  0  0  0  0  0  0
   36.1870   33.2627   25.7706 C   0  0  0  0  0  0  0  0  0  0  0  0
   35.3252   33.5213   24.7676 C   0  0  0  0  0  0  0  0  0  0  0  0
   35.5528   34.8442   23.9350 C   0  0  0  0  0  0  0  0  0  0  0  0
   34.7840   35.0623   23.0546 O   0  0  0  0  0  0  0  0  0  0  0  0
   34.2598   32.4219   24.6004 C   0  0  0  0  0  0  0  0  0  0  0  0
   34.5311   31.5248   25.5550 C   0  0  0  0  0  0  0  0  0  0  0  0
   35.6162   31.8172   26.3366 N   0  0  0  0  0  0  0  0  0  0  0  0
   33.1635   32.4074   23.6058 C   0  0  0  0  0  0  0  0  0  0  0  0
   32.3416   32.4347   22.7929 N   0  0  0  0  0  0  0  0  0  0  0  0
  1  2  1  0  0  0  0
  1  7  1  0  0  0  0
  2  3  1  0  0  0  0
  2  4  2  0  0  0  0
  4  5  1  0  0  0  0
  5  6  2  0  0  0  0
  5 11  1  0  0  0  0
  6  7  1  0  0  0  0
  6  9  1  0  0  0  0
  7  8  2  0  0  0  0
  9 10  2  0  0  0  0
  9 12  1  0  0  0  0
 10 11  1  0  0  0  0
 12 13  3  0  0  0  0
M  END
>  <CHROM.1>
35.52415971,33.76376422,24.75614161,0.24473562,-0.63882727,-0.65751603

>  <Name>
ligand

>  <RI>
0

>  <Rbt.Current_Directory>
/home/itssahil/PROJECTS/Mol_Feturizer/New_Systems/rnas/3GCA

>  <Rbt.Executable>
rbdock ($Id: //depot/dev/client3/rdock/2013.1/src/exe/rbdock.cxx#4 $)

>  <Rbt.Library>
libRbt.so (2013.1, Build901 2013/11/27)

>  <Rbt.Parameter_File>
/export/apps/rDock/src/rDock_2013.1_src/data/scripts/dock_solv.prm

>  <Rbt.Receptor>
prm/pocket_docking_2.prm

>  <SCORE>
-21.4047

>  <SCORE.INTER>
-21.4269

>  <SCORE.INTER.CONST>
1

>  <SCORE.INTER.POLAR>
0

>  <SCORE.INTER.ROT>
0

>  <SCORE.INTER.SOLV>
11.3981

>  <SCORE.INTER.VDW>
-21.6839

>  <SCORE.INTER.norm>
-1.64822

>  <SCORE.INTRA>
0

>  <SCORE.INTRA.DIHEDRAL>
0

>  <SCORE.INTRA.DIHEDRAL.0>
0

>  <SCORE.INTRA.POLAR>
0

>  <SCORE.INTRA.POLAR.0>
0

>  <SCORE.INTRA.REPUL>
0

>  <SCORE.INTRA.REPUL.0>
0

>  <SCORE.INTRA.SOLV>
0

>  <SCORE.INTRA.SOLV.lig_0>
-33.1994

>  <SCORE.INTRA.VDW>
0

>  <SCORE.INTRA.VDW.0>
0

>  <SCORE.INTRA.norm>
0

>  <SCORE.RESTR>
0.0221359

>  <SCORE.RESTR.CAVITY>
0.0221359

>  <SCORE.RESTR.norm>
0.00170276

>  <SCORE.SYSTEM>
0

>  <SCORE.SYSTEM.CONST>
0

>  <SCORE.SYSTEM.DIHEDRAL>
0

>  <SCORE.SYSTEM.SOLV>
0

>  <SCORE.SYSTEM.norm>
0

>  <SCORE.heavy>
13

>  <SCORE.norm>
-1.64652

>  <RMSD>
4.242

$$$$
ligand
 OpenBabel11021811473D
libRbt.so/2013.1/901 2013/11/27
 13 14  0  0  0  0  0  0  0  0999 V2000
   36.5569   35.5972   24.3133 N   0  0  0  0  0  0  0  0  0  0  0  0
   37.5173   35.2015   25.5097 C   0  0  0  0  0  0  0  0  0  0  0  0
   38.5586   36.0457   25.8423 N   0  0  0  0  0  0  0  0  0  0  0  0
   37.2020   34.0875   26.0228 N   0  0  0  0  0  0  0  0  0  0  0  0
   36.1992   33.2320   25.7456 C   0  0  0  0  0  0  0  0  0  0  0  0
   35.3303   33.4957   24.7500 C   0  0  0  0  0  0  0  0  0  0  0  0
   35.5434   34.8302   23.9321 C   0  0  0  0  0  0  0  0  0  0  0  0
   34.7685   35.0527   23.0582 O   0  0  0  0  0  0  0  0  0  0  0  0
   34.2726   32.3902   24.5750 C   0  0  0  0  0  0  0  0  0  0  0  0
   34.5556   31.4839   25.5174 C   0  0  0  0  0  0  0  0  0  0  0  0
   35.6424   31.7754   26.2971 N   0  0  0  0  0  0  0  0  0  0  0  0
   33.1714   32.3789   23.5857 C   0  0  0  0  0  0  0  0  0  0  0  0
   32.3452   32.4094   22.7774 N   0  0  0  0  0  0  0  0  0  0  0  0
  1  2  1  0  0  0  0
  1  7  1  0  0  0  0
  2  3  1  0  0  0  0
  2  4  2  0  0  0  0
  4  5  1  0  0  0  0
  5  6  2  0  0  0  0
  5 11  1  0  0  0  0
  6  7  1  0  0  0  0
  6  9  1  0  0  0  0
  7  8  2  0  0  0  0
  9 10  2  0  0  0  0
  9 12  1  0  0  0  0
 10 11  1  0  0  0  0
 12 13  3  0  0  0  0
M  END
>  <CHROM.1>
35.52730505,33.73987335,24.74043414,0.25622916,-0.63951329,-0.63875924

>  <Name>
ligand

>  <RI>
0

>  <Rbt.Current_Directory>
/home/itssahil/PROJECTS/Mol_Feturizer/New_Systems/rnas/3GCA

>  <Rbt.Executable>
rbdock ($Id: //depot/dev/client3/rdock/2013.1/src/exe/rbdock.cxx#4 $)

>  <Rbt.Library>
libRbt.so (2013.1, Build901 2013/11/27)

>  <Rbt.Parameter_File>
/export/apps/rDock/src/rDock_2013.1_src/data/scripts/dock_solv.prm

>  <Rbt.Receptor>
prm/pocket_docking_2.prm

>  <SCORE>
-21.3609

>  <SCORE.INTER>
-21.3621

>  <SCORE.INTER.CONST>
1

>  <SCORE.INTER.POLAR>
0

>  <SCORE.INTER.ROT>
0

>  <SCORE.INTER.SOLV>
11.4452

>  <SCORE.INTER.VDW>
-21.6565

>  <SCORE.INTER.norm>
-1.64324

>  <SCORE.INTRA>
0

>  <SCORE.INTRA.DIHEDRAL>
0

>  <SCORE.INTRA.DIHEDRAL.0>
0

>  <SCORE.INTRA.POLAR>
0

>  <SCORE.INTRA.POLAR.0>
0

>  <SCORE.INTRA.REPUL>
0

>  <SCORE.INTRA.REPUL.0>
0

>  <SCORE.INTRA.SOLV>
0

>  <SCORE.INTRA.SOLV.lig_0>
-33.1994

>  <SCORE.INTRA.VDW>
0

>  <SCORE.INTRA.VDW.0>
0

>  <SCORE.INTRA.norm>
0

>  <SCORE.RESTR>
0.00112967

>  <SCORE.RESTR.CAVITY>
0.00112967

>  <SCORE.RESTR.norm>
8.68974e-05

>  <SCORE.SYSTEM>
0

>  <SCORE.SYSTEM.CONST>
0

>  <SCORE.SYSTEM.DIHEDRAL>
0

>  <SCORE.SYSTEM.SOLV>
0

>  <SCORE.SYSTEM.norm>
0

>  <SCORE.heavy>
13

>  <SCORE.norm>
-1.64315

>  <RMSD>
4.242

$$$$
ligand
 OpenBabel11021811473D
libRbt.so/2013.1/901 2013/11/27
 13 14  0  0  0  0  0  0  0  0999 V2000
   36.5427   35.6018   24.3336 N   0  0  0  0  0  0  0  0  0  0  0  0
   37.5156   35.2026   25.5188 C   0  0  0  0  0  0  0  0  0  0  0  0
   38.5561   36.0492   25.8476 N   0  0  0  0  0  0  0  0  0  0  0  0
   37.2097   34.0839   26.0274 N   0  0  0  0  0  0  0  0  0  0  0  0
   36.2081   33.2259   25.7536 C   0  0  0  0  0  0  0  0  0  0  0  0
   35.3292   33.4922   24.7675 C   0  0  0  0  0  0  0  0  0  0  0  0
   35.5292   34.8329   23.9565 C   0  0  0  0  0  0  0  0  0  0  0  0
   34.7456   35.0577   23.0911 O   0  0  0  0  0  0  0  0  0  0  0  0
   34.2747   32.3832   24.5948 C   0  0  0  0  0  0  0  0  0  0  0  0
   34.5701   31.4722   25.5288 C   0  0  0  0  0  0  0  0  0  0  0  0
   35.6626   31.7633   26.3006 N   0  0  0  0  0  0  0  0  0  0  0  0
   33.1647   32.3736   23.6154 C   0  0  0  0  0  0  0  0  0  0  0  0
   32.3312   32.4058   22.8147 N   0  0  0  0  0  0  0  0  0  0  0  0
  1  2  1  0  0  0  0
  1  7  1  0  0  0  0
  2  3  1  0  0  0  0
  2  4  2  0  0  0  0
  4  5  1  0  0  0  0
  5  6  2  0  0  0  0
  5 11  1  0  0  0  0
  6  7  1  0  0  0  0
  6  9  1  0  0  0  0
  7  8  2  0  0  0  0
  9 10  2  0  0  0  0
  9 12  1  0  0  0  0
 10 11  1  0  0  0  0
 12 13  3  0  0  0  0
M  END
>  <CHROM.1>
35.52504710,33.73730395,24.75784144,0.26717992,-0.63483764,-0.62573042

>  <Name>
ligand

>  <RI>
0

>  <Rbt.Current_Directory>
/home/itssahil/PROJECTS/Mol_Feturizer/New_Systems/rnas/3GCA

>  <Rbt.Executable>
rbdock ($Id: //depot/dev/client3/rdock/2013.1/src/exe/rbdock.cxx#4 $)

>  <Rbt.Library>
libRbt.so (2013.1, Build901 2013/11/27)

>  <Rbt.Parameter_File>
/export/apps/rDock/src/rDock_2013.1_src/data/scripts/dock_solv.prm

>  <Rbt.Receptor>
prm/pocket_docking_2.prm

>  <SCORE>
-21.3456

>  <SCORE.INTER>
-21.3477

>  <SCORE.INTER.CONST>
1

>  <SCORE.INTER.POLAR>
0

>  <SCORE.INTER.ROT>
0

>  <SCORE.INTER.SOLV>
11.4217

>  <SCORE.INTER.VDW>
-21.639

>  <SCORE.INTER.norm>
-1.64213

>  <SCORE.INTRA>
0

>  <SCORE.INTRA.DIHEDRAL>
0

>  <SCORE.INTRA.DIHEDRAL.0>
0

>  <SCORE.INTRA.POLAR>
0

>  <SCORE.INTRA.POLAR.0>
0

>  <SCORE.INTRA.REPUL>
0

>  <SCORE.INTRA.REPUL.0>
0

>  <SCORE.INTRA.SOLV>
0

>  <SCORE.INTRA.SOLV.lig_0>
-33.1994

>  <SCORE.INTRA.VDW>
0

>  <SCORE.INTRA.VDW.0>
0

>  <SCORE.INTRA.norm>
0

>  <SCORE.RESTR>
0.00203526

>  <SCORE.RESTR.CAVITY>
0.00203526

>  <SCORE.RESTR.norm>
0.000156558

>  <SCORE.SYSTEM>
0

>  <SCORE.SYSTEM.CONST>
0

>  <SCORE.SYSTEM.DIHEDRAL>
0

>  <SCORE.SYSTEM.SOLV>
0

>  <SCORE.SYSTEM.norm>
0

>  <SCORE.heavy>
13

>  <SCORE.norm>
-1.64197

>  <RMSD>
4.242

$$$$
ligand
 OpenBabel11021811473D
libRbt.so/2013.1/901 2013/11/27
 13 14  0  0  0  0  0  0  0  0999 V2000
   36.5716   35.5944   24.3334 N   0  0  0  0  0  0  0  0  0  0  0  0
   37.5357   35.1886   25.5234 C   0  0  0  0  0  0  0  0  0  0  0  0
   38.5827   36.0261   25.8548 N   0  0  0  0  0  0  0  0  0  0  0  0
   37.2173   34.0739   26.0331 N   0  0  0  0  0  0  0  0  0  0  0  0
   36.2089   33.2247   25.7569 C   0  0  0  0  0  0  0  0  0  0  0  0
   35.3367   33.4971   24.7666 C   0  0  0  0  0  0  0  0  0  0  0  0
   35.5525   34.8341   23.9536 C   0  0  0  0  0  0  0  0  0  0  0  0
   34.7747   35.0644   23.0844 O   0  0  0  0  0  0  0  0  0  0  0  0
   34.2726   32.3976   24.5918 C   0  0  0  0  0  0  0  0  0  0  0  0
   34.5556   31.4858   25.5288 C   0  0  0  0  0  0  0  0  0  0  0  0
   35.6475   31.7684   26.3046 N   0  0  0  0  0  0  0  0  0  0  0  0
   33.1667   32.3962   23.6077 C   0  0  0  0  0  0  0  0  0  0  0  0
   32.3369   32.4345   22.8034 N   0  0  0  0  0  0  0  0  0  0  0  0
  1  2  1  0  0  0  0
  1  7  1  0  0  0  0
  2  3  1  0  0  0  0
  2  4  2  0  0  0  0
  4  5  1  0  0  0  0
  5  6  2  0  0  0  0
  5 11  1  0  0  0  0
  6  7  1  0  0  0  0
  6  9  1  0  0  0  0
  7  8  2  0  0  0  0
  9 10  2  0  0  0  0
  9 12  1  0  0  0  0
 10 11  1  0  0  0  0
 12 13  3  0  0  0  0
M  END
>  <CHROM.1>
35.53481961,33.74032771,24.75719561,0.25476593,-0.63272696,-0.63519510

>  <Name>
ligand

>  <RI>
0

>  <Rbt.Current_Directory>
/home/itssahil/PROJECTS/Mol_Feturizer/New_Systems/rnas/3GCA

>  <Rbt.Executable>
rbdock ($Id: //depot/dev/client3/rdock/2013.1/src/exe/rbdock.cxx#4 $)

>  <Rbt.Library>
libRbt.so (2013.1, Build901 2013/11/27)

>  <Rbt.Parameter_File>
/export/apps/rDock/src/rDock_2013.1_src/data/scripts/dock_solv.prm

>  <Rbt.Receptor>
prm/pocket_docking_2.prm

>  <SCORE>
-21.3878

>  <SCORE.INTER>
-21.3942

>  <SCORE.INTER.CONST>
1

>  <SCORE.INTER.POLAR>
0

>  <SCORE.INTER.ROT>
0

>  <SCORE.INTER.SOLV>
11.355

>  <SCORE.INTER.VDW>
-21.6478

>  <SCORE.INTER.norm>
-1.6457

>  <SCORE.INTRA>
0

>  <SCORE.INTRA.DIHEDRAL>
0

>  <SCORE.INTRA.DIHEDRAL.0>
0

>  <SCORE.INTRA.POLAR>
0

>  <SCORE.INTRA.POLAR.0>
0

>  <SCORE.INTRA.REPUL>
0

>  <SCORE.INTRA.REPUL.0>
0

>  <SCORE.INTRA.SOLV>
0

>  <SCORE.INTRA.SOLV.lig_0>
-33.1994

>  <SCORE.INTRA.VDW>
0

>  <SCORE.INTRA.VDW.0>
0

>  <SCORE.INTRA.norm>
0

>  <SCORE.RESTR>
0.00634837

>  <SCORE.RESTR.CAVITY>
0.00634837

>  <SCORE.RESTR.norm>
0.000488336

>  <SCORE.SYSTEM>
0

>  <SCORE.SYSTEM.CONST>
0

>  <SCORE.SYSTEM.DIHEDRAL>
0

>  <SCORE.SYSTEM.SOLV>
0

>  <SCORE.SYSTEM.norm>
0

>  <SCORE.heavy>
13

>  <SCORE.norm>
-1.64522

>  <RMSD>
4.243

$$$$
ligand
 OpenBabel11021811473D
libRbt.so/2013.1/901 2013/11/27
 13 14  0  0  0  0  0  0  0  0999 V2000
   36.5705   35.5923   24.3302 N   0  0  0  0  0  0  0  0  0  0  0  0
   37.5340   35.1874   25.5211 C   0  0  0  0  0  0  0  0  0  0  0  0
   38.5809   36.0252   25.8523 N   0  0  0  0  0  0  0  0  0  0  0  0
   37.2153   34.0732   26.0316 N   0  0  0  0  0  0  0  0  0  0  0  0
   36.2070   33.2238   25.7556 C   0  0  0  0  0  0  0  0  0  0  0  0
   35.3353   33.4954   24.7646 C   0  0  0  0  0  0  0  0  0  0  0  0
   35.5516   34.8317   23.9506 C   0  0  0  0  0  0  0  0  0  0  0  0
   34.7741   35.0613   23.0809 O   0  0  0  0  0  0  0  0  0  0  0  0
   34.2712   32.3958   24.5902 C   0  0  0  0  0  0  0  0  0  0  0  0
   34.5537   31.4848   25.5282 C   0  0  0  0  0  0  0  0  0  0  0  0
   35.6453   31.7680   26.3043 N   0  0  0  0  0  0  0  0  0  0  0  0
   33.1658   32.3936   23.6057 C   0  0  0  0  0  0  0  0  0  0  0  0
   32.3363   32.4312   22.8010 N   0  0  0  0  0  0  0  0  0  0  0  0
  1  2  1  0  0  0  0
  1  7  1  0  0  0  0
  2  3  1  0  0  0  0
  2  4  2  0  0  0  0
  4  5  1  0  0  0  0
  5  6  2  0  0  0  0
  5 11  1  0  0  0  0
  6  7  1  0  0  0  0
  6  9  1  0  0  0  0
  7  8  2  0  0  0  0
  9 10  2  0  0  0  0
  9 12  1  0  0  0  0
 10 11  1  0  0  0  0
 12 13  3  0  0  0  0
M  END
>  <CHROM.1>
35.53341174,33.73861086,24.75513570,0.25436791,-0.63308670,-0.63627648

>  <Name>
ligand

>  <RI>
0

>  <Rbt.Current_Directory>
/home/itssahil/PROJECTS/Mol_Feturizer/New_Systems/rnas/3GCA

>  <Rbt.Executable>
rbdock ($Id: //depot/dev/client3/rdock/2013.1/src/exe/rbdock.cxx#4 $)

>  <Rbt.Library>
libRbt.so (2013.1, Build901 2013/11/27)

>  <Rbt.Parameter_File>
/export/apps/rDock/src/rDock_2013.1_src/data/scripts/dock_solv.prm

>  <Rbt.Receptor>
prm/pocket_docking_2.prm

>  <SCORE>
-21.3773

>  <SCORE.INTER>
-21.381

>  <SCORE.INTER.CONST>
1

>  <SCORE.INTER.POLAR>
0

>  <SCORE.INTER.ROT>
0

>  <SCORE.INTER.SOLV>
11.3677

>  <SCORE.INTER.VDW>
-21.6432

>  <SCORE.INTER.norm>
-1.64469

>  <SCORE.INTRA>
0

>  <SCORE.INTRA.DIHEDRAL>
0

>  <SCORE.INTRA.DIHEDRAL.0>
0

>  <SCORE.INTRA.POLAR>
0

>  <SCORE.INTRA.POLAR.0>
0

>  <SCORE.INTRA.REPUL>
0

>  <SCORE.INTRA.REPUL.0>
0

>  <SCORE.INTRA.SOLV>
0

>  <SCORE.INTRA.SOLV.lig_0>
-33.1994

>  <SCORE.INTRA.VDW>
0

>  <SCORE.INTRA.VDW.0>
0

>  <SCORE.INTRA.norm>
0

>  <SCORE.RESTR>
0.00373502

>  <SCORE.RESTR.CAVITY>
0.00373502

>  <SCORE.RESTR.norm>
0.000287309

>  <SCORE.SYSTEM>
0

>  <SCORE.SYSTEM.CONST>
0

>  <SCORE.SYSTEM.DIHEDRAL>
0

>  <SCORE.SYSTEM.SOLV>
0

>  <SCORE.SYSTEM.norm>
0

>  <SCORE.heavy>
13

>  <SCORE.norm>
-1.64441

>  <RMSD>
4.243

$$$$
ligand
 OpenBabel11021811473D
libRbt.so/2013.1/901 2013/11/27
 13 14  0  0  0  0  0  0  0  0999 V2000
   36.5709   35.6039   24.3317 N   0  0  0  0  0  0  0  0  0  0  0  0
   37.5321   35.2032   25.5258 C   0  0  0  0  0  0  0  0  0  0  0  0
   38.5751   36.0447   25.8597 N   0  0  0  0  0  0  0  0  0  0  0  0
   37.2155   34.0882   26.0360 N   0  0  0  0  0  0  0  0  0  0  0  0
   36.2109   33.2352   25.7575 C   0  0  0  0  0  0  0  0  0  0  0  0
   35.3414   33.5033   24.7636 C   0  0  0  0  0  0  0  0  0  0  0  0
   35.5557   34.8397   23.9494 C   0  0  0  0  0  0  0  0  0  0  0  0
   34.7802   35.0661   23.0771 O   0  0  0  0  0  0  0  0  0  0  0  0
   34.2816   32.4000   24.5867 C   0  0  0  0  0  0  0  0  0  0  0  0
   34.5642   31.4905   25.5261 C   0  0  0  0  0  0  0  0  0  0  0  0
   35.6524   31.7779   26.3054 N   0  0  0  0  0  0  0  0  0  0  0  0
   33.1792   32.3934   23.5986 C   0  0  0  0  0  0  0  0  0  0  0  0
   32.3522   32.4277   22.7913 N   0  0  0  0  0  0  0  0  0  0  0  0
  1  2  1  0  0  0  0
  1  7  1  0  0  0  0
  2  3  1  0  0  0  0
  2  4  2  0  0  0  0
  4  5  1  0  0  0  0
  5  6  2  0  0  0  0
  5 11  1  0  0  0  0
  6  7  1  0  0  0  0
  6  9  1  0  0  0  0
  7  8  2  0  0  0  0
  9 10  2  0  0  0  0
  9 12  1  0  0  0  0
 10 11  1  0  0  0  0
 12 13  3  0  0  0  0
M  END
>  <CHROM.1>
35.53875928,33.74710852,24.75458239,0.25542658,-0.63759236,-0.63631809

>  <Name>
ligand

>  <RI>
0

>  <Rbt.Current_Directory>
/home/itssahil/PROJECTS/Mol_Feturizer/New_Systems/rnas/3GCA

>  <Rbt.Executable>
rbdock ($Id: //depot/dev/client3/rdock/2013.1/src/exe/rbdock.cxx#4 $)

>  <Rbt.Library>
libRbt.so (2013.1, Build901 2013/11/27)

>  <Rbt.Parameter_File>
/export/apps/rDock/src/rDock_2013.1_src/data/scripts/dock_solv.prm

>  <Rbt.Receptor>
prm/pocket_docking_2.prm

>  <SCORE>
-21.3904

>  <SCORE.INTER>
-21.4063

>  <SCORE.INTER.CONST>
1

>  <SCORE.INTER.POLAR>
0

>  <SCORE.INTER.ROT>
0

>  <SCORE.INTER.SOLV>
11.3537

>  <SCORE.INTER.VDW>
-21.6554

>  <SCORE.INTER.norm>
-1.64664

>  <SCORE.INTRA>
0

>  <SCORE.INTRA.DIHEDRAL>
0

>  <SCORE.INTRA.DIHEDRAL.0>
0

>  <SCORE.INTRA.POLAR>
0

>  <SCORE.INTRA.POLAR.0>
0

>  <SCORE.INTRA.REPUL>
0

>  <SCORE.INTRA.REPUL.0>
0

>  <SCORE.INTRA.SOLV>
0

>  <SCORE.INTRA.SOLV.lig_0>
-33.1994

>  <SCORE.INTRA.VDW>
0

>  <SCORE.INTRA.VDW.0>
0

>  <SCORE.INTRA.norm>
0

>  <SCORE.RESTR>
0.0158648

>  <SCORE.RESTR.CAVITY>
0.0158648

>  <SCORE.RESTR.norm>
0.00122037

>  <SCORE.SYSTEM>
0

>  <SCORE.SYSTEM.CONST>
0

>  <SCORE.SYSTEM.DIHEDRAL>
0

>  <SCORE.SYSTEM.SOLV>
0

>  <SCORE.SYSTEM.norm>
0

>  <SCORE.heavy>
13

>  <SCORE.norm>
-1.64542

>  <RMSD>
4.243

$$$$
ligand
 OpenBabel11021811473D
libRbt.so/2013.1/901 2013/11/27
 13 14  0  0  0  0  0  0  0  0999 V2000
   36.5790   35.5952   24.3335 N   0  0  0  0  0  0  0  0  0  0  0  0
   37.5365   35.1944   25.5306 C   0  0  0  0  0  0  0  0  0  0  0  0
   38.5808   36.0341   25.8652 N   0  0  0  0  0  0  0  0  0  0  0  0
   37.2161   34.0812   26.0423 N   0  0  0  0  0  0  0  0  0  0  0  0
   36.2101   33.2301   25.7631 C   0  0  0  0  0  0  0  0  0  0  0  0
   35.3434   33.4983   24.7668 C   0  0  0  0  0  0  0  0  0  0  0  0
   35.5628   34.8326   23.9505 C   0  0  0  0  0  0  0  0  0  0  0  0
   34.7898   35.0592   23.0760 O   0  0  0  0  0  0  0  0  0  0  0  0
   34.2814   32.3972   24.5896 C   0  0  0  0  0  0  0  0  0  0  0  0
   34.5597   31.4890   25.5315 C   0  0  0  0  0  0  0  0  0  0  0  0
   35.6468   31.7753   26.3126 N   0  0  0  0  0  0  0  0  0  0  0  0
   33.1812   32.3914   23.5991 C   0  0  0  0  0  0  0  0  0  0  0  0
   32.3561   32.4261   22.7899 N   0  0  0  0  0  0  0  0  0  0  0  0
  1  2  1  0  0  0  0
  1  7  1  0  0  0  0
  2  3  1  0  0  0  0
  2  4  2  0  0  0  0
  4  5  1  0  0  0  0
  5  6  2  0  0  0  0
  5 11  1  0  0  0  0
  6  7  1  0  0  0  0
  6  9  1  0  0  0  0
  7  8  2  0  0  0  0
  9 10  2  0  0  0  0
  9 12  1  0  0  0  0
 10 11  1  0  0  0  0
 12 13  3  0  0  0  0
M  END
>  <CHROM.1>
35.54138959,33.74165536,24.75773781,0.25133799,-0.63796636,-0.64070714

>  <Name>
ligand

>  <RI>
0

>  <Rbt.Current_Directory>
/home/itssahil/PROJECTS/Mol_Feturizer/New_Systems/rnas/3GCA

>  <Rbt.Executable>
rbdock ($Id: //depot/dev/client3/rdock/2013.1/src/exe/rbdock.cxx#4 $)

>  <Rbt.Library>
libRbt.so (2013.1, Build901 2013/11/27)

>  <Rbt.Parameter_File>
/export/apps/rDock/src/rDock_2013.1_src/data/scripts/dock_solv.prm

>  <Rbt.Receptor>
prm/pocket_docking_2.prm

>  <SCORE>
-21.4051

>  <SCORE.INTER>
-21.4167

>  <SCORE.INTER.CONST>
1

>  <SCORE.INTER.POLAR>
0

>  <SCORE.INTER.ROT>
0

>  <SCORE.INTER.SOLV>
11.3385

>  <SCORE.INTER.VDW>
-21.6573

>  <SCORE.INTER.norm>
-1.64744

>  <SCORE.INTRA>
0

>  <SCORE.INTRA.DIHEDRAL>
0

>  <SCORE.INTRA.DIHEDRAL.0>
0

>  <SCORE.INTRA.POLAR>
0

>  <SCORE.INTRA.POLAR.0>
0

>  <SCORE.INTRA.REPUL>
0

>  <SCORE.INTRA.REPUL.0>
0

>  <SCORE.INTRA.SOLV>
0

>  <SCORE.INTRA.SOLV.lig_0>
-33.1994

>  <SCORE.INTRA.VDW>
0

>  <SCORE.INTRA.VDW.0>
0

>  <SCORE.INTRA.norm>
0

>  <SCORE.RESTR>
0.011621

>  <SCORE.RESTR.CAVITY>
0.011621

>  <SCORE.RESTR.norm>
0.000893924

>  <SCORE.SYSTEM>
0

>  <SCORE.SYSTEM.CONST>
0

>  <SCORE.SYSTEM.DIHEDRAL>
0

>  <SCORE.SYSTEM.SOLV>
0

>  <SCORE.SYSTEM.norm>
0

>  <SCORE.heavy>
13

>  <SCORE.norm>
-1.64654

>  <RMSD>
4.243

$$$$
ligand
 OpenBabel11021811473D
libRbt.so/2013.1/901 2013/11/27
 13 14  0  0  0  0  0  0  0  0999 V2000
   36.5720   35.5880   24.3287 N   0  0  0  0  0  0  0  0  0  0  0  0
   37.5347   35.1831   25.5202 C   0  0  0  0  0  0  0  0  0  0  0  0
   38.5825   36.0199   25.8510 N   0  0  0  0  0  0  0  0  0  0  0  0
   37.2144   34.0696   26.0316 N   0  0  0  0  0  0  0  0  0  0  0  0
   36.2052   33.2212   25.7560 C   0  0  0  0  0  0  0  0  0  0  0  0
   35.3341   33.4931   24.7645 C   0  0  0  0  0  0  0  0  0  0  0  0
   35.5523   34.8284   23.9494 C   0  0  0  0  0  0  0  0  0  0  0  0
   34.7754   35.0581   23.0793 O   0  0  0  0  0  0  0  0  0  0  0  0
   34.2688   32.3946   24.5908 C   0  0  0  0  0  0  0  0  0  0  0  0
   34.5498   31.4841   25.5297 C   0  0  0  0  0  0  0  0  0  0  0  0
   35.6415   31.7666   26.3058 N   0  0  0  0  0  0  0  0  0  0  0  0
   33.1636   32.3929   23.6059 C   0  0  0  0  0  0  0  0  0  0  0  0
   32.3345   32.4308   22.8009 N   0  0  0  0  0  0  0  0  0  0  0  0
  1  2  1  0  0  0  0
  1  7  1  0  0  0  0
  2  3  1  0  0  0  0
  2  4  2  0  0  0  0
  4  5  1  0  0  0  0
  5  6  2  0  0  0  0
  5 11  1  0  0  0  0
  6  7  1  0  0  0  0
  6  9  1  0  0  0  0
  7  8  2  0  0  0  0
  9 10  2  0  0  0  0
  9 12  1  0  0  0  0
 10 11  1  0  0  0  0
 12 13  3  0  0  0  0
M  END
>  <CHROM.1>
35.53255667,33.73599528,24.75490600,0.25291643,-0.63261790,-0.63801288

>  <Name>
ligand

>  <RI>
0

>  <Rbt.Current_Directory>
/home/itssahil/PROJECTS/Mol_Feturizer/New_Systems/rnas/3GCA

>  <Rbt.Executable>
rbdock ($Id: //depot/dev/client3/rdock/2013.1/src/exe/rbdock.cxx#4 $)

>  <Rbt.Library>
libRbt.so (2013.1, Build901 2013/11/27)

>  <Rbt.Parameter_File>
/export/apps/rDock/src/rDock_2013.1_src/data/scripts/dock_solv.prm

>  <Rbt.Receptor>
prm/pocket_docking_2.prm

>  <SCORE>
-21.3597

>  <SCORE.INTER>
-21.3601

>  <SCORE.INTER.CONST>
1

>  <SCORE.INTER.POLAR>
0

>  <SCORE.INTER.ROT>
0

>  <SCORE.INTER.SOLV>
11.3714

>  <SCORE.INTER.VDW>
-21.6305

>  <SCORE.INTER.norm>
-1.64308

>  <SCORE.INTRA>
0

>  <SCORE.INTRA.DIHEDRAL>
0

>  <SCORE.INTRA.DIHEDRAL.0>
0

>  <SCORE.INTRA.POLAR>
0

>  <SCORE.INTRA.POLAR.0>
0

>  <SCORE.INTRA.REPUL>
0

>  <SCORE.INTRA.REPUL.0>
0

>  <SCORE.INTRA.SOLV>
0

>  <SCORE.INTRA.SOLV.lig_0>
-33.1994

>  <SCORE.INTRA.VDW>
0

>  <SCORE.INTRA.VDW.0>
0

>  <SCORE.INTRA.norm>
0

>  <SCORE.RESTR>
0.000417956

>  <SCORE.RESTR.CAVITY>
0.000417956

>  <SCORE.RESTR.norm>
3.21505e-05

>  <SCORE.SYSTEM>
0

>  <SCORE.SYSTEM.CONST>
0

>  <SCORE.SYSTEM.DIHEDRAL>
0

>  <SCORE.SYSTEM.SOLV>
0

>  <SCORE.SYSTEM.norm>
0

>  <SCORE.heavy>
13

>  <SCORE.norm>
-1.64305

>  <RMSD>
4.243

$$$$
ligand
 OpenBabel11021811473D
libRbt.so/2013.1/901 2013/11/27
 13 14  0  0  0  0  0  0  0  0999 V2000
   36.5721   35.5914   24.3294 N   0  0  0  0  0  0  0  0  0  0  0  0
   37.5346   35.1871   25.5213 C   0  0  0  0  0  0  0  0  0  0  0  0
   38.5812   36.0250   25.8531 N   0  0  0  0  0  0  0  0  0  0  0  0
   37.2154   34.0730   26.0320 N   0  0  0  0  0  0  0  0  0  0  0  0
   36.2073   33.2236   25.7554 C   0  0  0  0  0  0  0  0  0  0  0  0
   35.3364   33.4948   24.7636 C   0  0  0  0  0  0  0  0  0  0  0  0
   35.5535   34.8307   23.9492 C   0  0  0  0  0  0  0  0  0  0  0  0
   34.7769   35.0599   23.0787 O   0  0  0  0  0  0  0  0  0  0  0  0
   34.2725   32.3952   24.5888 C   0  0  0  0  0  0  0  0  0  0  0  0
   34.5541   31.4846   25.5274 C   0  0  0  0  0  0  0  0  0  0  0  0
   35.6450   31.7681   26.3043 N   0  0  0  0  0  0  0  0  0  0  0  0
   33.1679   32.3926   23.6032 C   0  0  0  0  0  0  0  0  0  0  0  0
   32.3392   32.4299   22.7977 N   0  0  0  0  0  0  0  0  0  0  0  0
  1  2  1  0  0  0  0
  1  7  1  0  0  0  0
  2  3  1  0  0  0  0
  2  4  2  0  0  0  0
  4  5  1  0  0  0  0
  5  6  2  0  0  0  0
  5 11  1  0  0  0  0
  6  7  1  0  0  0  0
  6  9  1  0  0  0  0
  7  8  2  0  0  0  0
  9 10  2  0  0  0  0
  9 12  1  0  0  0  0
 10 11  1  0  0  0  0
 12 13  3  0  0  0  0
M  END
>  <CHROM.1>
35.53461103,33.73799578,24.75418261,0.25367072,-0.63378365,-0.63712299

>  <Name>
ligand

>  <RI>
0

>  <Rbt.Current_Directory>
/home/itssahil/PROJECTS/Mol_Feturizer/New_Systems/rnas/3GCA

>  <Rbt.Executable>
rbdock ($Id: //depot/dev/client3/rdock/2013.1/src/exe/rbdock.cxx#4 $)

>  <Rbt.Library>
libRbt.so (2013.1, Build901 2013/11/27)

>  <Rbt.Parameter_File>
/export/apps/rDock/src/rDock_2013.1_src/data/scripts/dock_solv.prm

>  <Rbt.Receptor>
prm/pocket_docking_2.prm

>  <SCORE>
-21.3782

>  <SCORE.INTER>
-21.382

>  <SCORE.INTER.CONST>
1

>  <SCORE.INTER.POLAR>
0

>  <SCORE.INTER.ROT>
0

>  <SCORE.INTER.SOLV>
11.3667

>  <SCORE.INTER.VDW>
-21.6436

>  <SCORE.INTER.norm>
-1.64477

>  <SCORE.INTRA>
0

>  <SCORE.INTRA.DIHEDRAL>
0

>  <SCORE.INTRA.DIHEDRAL.0>
0

>  <SCORE.INTRA.POLAR>
0

>  <SCORE.INTRA.POLAR.0>
0

>  <SCORE.INTRA.REPUL>
0

>  <SCORE.INTRA.REPUL.0>
0

>  <SCORE.INTRA.SOLV>
0

>  <SCORE.INTRA.SOLV.lig_0>
-33.1994

>  <SCORE.INTRA.VDW>
0

>  <SCORE.INTRA.VDW.0>
0

>  <SCORE.INTRA.norm>
0

>  <SCORE.RESTR>
0.00380005

>  <SCORE.RESTR.CAVITY>
0.00380005

>  <SCORE.RESTR.norm>
0.000292311

>  <SCORE.SYSTEM>
0

>  <SCORE.SYSTEM.CONST>
0

>  <SCORE.SYSTEM.DIHEDRAL>
0

>  <SCORE.SYSTEM.SOLV>
0

>  <SCORE.SYSTEM.norm>
0

>  <SCORE.heavy>
13

>  <SCORE.norm>
-1.64448

>  <RMSD>
4.243

$$$$
ligand
 OpenBabel11021811473D
libRbt.so/2013.1/901 2013/11/27
 13 14  0  0  0  0  0  0  0  0999 V2000
   36.5720   35.6035   24.3383 N   0  0  0  0  0  0  0  0  0  0  0  0
   37.5361   35.1971   25.5281 C   0  0  0  0  0  0  0  0  0  0  0  0
   38.5815   36.0358   25.8617 N   0  0  0  0  0  0  0  0  0  0  0  0
   37.2194   34.0808   26.0354 N   0  0  0  0  0  0  0  0  0  0  0  0
   36.2127   33.2304   25.7569 C   0  0  0  0  0  0  0  0  0  0  0  0
   35.3405   33.5033   24.7667 C   0  0  0  0  0  0  0  0  0  0  0  0
   35.5544   34.8422   23.9565 C   0  0  0  0  0  0  0  0  0  0  0  0
   34.7766   35.0729   23.0874 O   0  0  0  0  0  0  0  0  0  0  0  0
   34.2785   32.4023   24.5891 C   0  0  0  0  0  0  0  0  0  0  0  0
   34.5625   31.4891   25.5245 C   0  0  0  0  0  0  0  0  0  0  0  0
   35.6536   31.7721   26.3015 N   0  0  0  0  0  0  0  0  0  0  0  0
   33.1731   32.4009   23.6045 C   0  0  0  0  0  0  0  0  0  0  0  0
   32.3436   32.4392   22.7998 N   0  0  0  0  0  0  0  0  0  0  0  0
  1  2  1  0  0  0  0
  1  7  1  0  0  0  0
  2  3  1  0  0  0  0
  2  4  2  0  0  0  0
  4  5  1  0  0  0  0
  5  6  2  0  0  0  0
  5 11  1  0  0  0  0
  6  7  1  0  0  0  0
  6  9  1  0  0  0  0
  7  8  2  0  0  0  0
  9 10  2  0  0  0  0
  9 12  1  0  0  0  0
 10 11  1  0  0  0  0
 12 13  3  0  0  0  0
M  END
>  <CHROM.1>
35.53820396,33.74683955,24.75791051,0.25613385,-0.63420156,-0.63239489

>  <Name>
ligand

>  <RI>
0

>  <Rbt.Current_Directory>
/home/itssahil/PROJECTS/Mol_Feturizer/New_Systems/rnas/3GCA

>  <Rbt.Executable>
rbdock ($Id: //depot/dev/client3/rdock/2013.1/src/exe/rbdock.cxx#4 $)

>  <Rbt.Library>
libRbt.so (2013.1, Build901 2013/11/27)

>  <Rbt.Parameter_File>
/export/apps/rDock/src/rDock_2013.1_src/data/scripts/dock_solv.prm

>  <Rbt.Receptor>
prm/pocket_docking_2.prm

>  <SCORE>
-21.3819

>  <SCORE.INTER>
-21.3958

>  <SCORE.INTER.CONST>
1

>  <SCORE.INTER.POLAR>
0

>  <SCORE.INTER.ROT>
0

>  <SCORE.INTER.SOLV>
11.3361

>  <SCORE.INTER.VDW>
-21.6426

>  <SCORE.INTER.norm>
-1.64583

>  <SCORE.INTRA>
0

>  <SCORE.INTRA.DIHEDRAL>
0

>  <SCORE.INTRA.DIHEDRAL.0>
0

>  <SCORE.INTRA.POLAR>
0

>  <SCORE.INTRA.POLAR.0>
0

>  <SCORE.INTRA.REPUL>
0

>  <SCORE.INTRA.REPUL.0>
0

>  <SCORE.INTRA.SOLV>
0

>  <SCORE.INTRA.SOLV.lig_0>
-33.1994

>  <SCORE.INTRA.VDW>
0

>  <SCORE.INTRA.VDW.0>
0

>  <SCORE.INTRA.norm>
0

>  <SCORE.RESTR>
0.013913

>  <SCORE.RESTR.CAVITY>
0.013913

>  <SCORE.RESTR.norm>
0.00107023

>  <SCORE.SYSTEM>
0

>  <SCORE.SYSTEM.CONST>
0

>  <SCORE.SYSTEM.DIHEDRAL>
0

>  <SCORE.SYSTEM.SOLV>
0

>  <SCORE.SYSTEM.norm>
0

>  <SCORE.heavy>
13

>  <SCORE.norm>
-1.64476

>  <RMSD>
4.243

$$$$
ligand
 OpenBabel11021811473D
libRbt.so/2013.1/901 2013/11/27
 13 14  0  0  0  0  0  0  0  0999 V2000
   36.5390   35.6019   24.3102 N   0  0  0  0  0  0  0  0  0  0  0  0
   37.5328   35.1813   25.4703 C   0  0  0  0  0  0  0  0  0  0  0  0
   38.5849   36.0174   25.7893 N   0  0  0  0  0  0  0  0  0  0  0  0
   37.2304   34.0578   25.9703 N   0  0  0  0  0  0  0  0  0  0  0  0
   36.2183   33.2094   25.7053 C   0  0  0  0  0  0  0  0  0  0  0  0
   35.3216   33.4939   24.7406 C   0  0  0  0  0  0  0  0  0  0  0  0
   35.5135   34.8439   23.9434 C   0  0  0  0  0  0  0  0  0  0  0  0
   34.7142   35.0847   23.0969 O   0  0  0  0  0  0  0  0  0  0  0  0
   34.2571   32.3934   24.5746 C   0  0  0  0  0  0  0  0  0  0  0  0
   34.5655   31.4684   25.4904 C   0  0  0  0  0  0  0  0  0  0  0  0
   35.6749   31.7429   26.2439 N   0  0  0  0  0  0  0  0  0  0  0  0
   33.1278   32.4032   23.6175 C   0  0  0  0  0  0  0  0  0  0  0  0
   32.2787   32.4508   22.8341 N   0  0  0  0  0  0  0  0  0  0  0  0
  1  2  1  0  0  0  0
  1  7  1  0  0  0  0
  2  3  1  0  0  0  0
  2  4  2  0  0  0  0
  4  5  1  0  0  0  0
  5  6  2  0  0  0  0
  5 11  1  0  0  0  0
  6  7  1  0  0  0  0
  6  9  1  0  0  0  0
  7  8  2  0  0  0  0
  9 10  2  0  0  0  0
  9 12  1  0  0  0  0
 10 11  1  0  0  0  0
 12 13  3  0  0  0  0
M  END
>  <CHROM.1>
35.51865708,33.73789611,24.73023179,0.27542622,-0.61509719,-0.60775332

>  <Name>
ligand

>  <RI>
0

>  <Rbt.Current_Directory>
/home/itssahil/PROJECTS/Mol_Feturizer/New_Systems/rnas/3GCA

>  <Rbt.Executable>
rbdock ($Id: //depot/dev/client3/rdock/2013.1/src/exe/rbdock.cxx#4 $)

>  <Rbt.Library>
libRbt.so (2013.1, Build901 2013/11/27)

>  <Rbt.Parameter_File>
/export/apps/rDock/src/rDock_2013.1_src/data/scripts/dock_solv.prm

>  <Rbt.Receptor>
prm/pocket_docking_2.prm

>  <SCORE>
-21.2498

>  <SCORE.INTER>
-21.2503

>  <SCORE.INTER.CONST>
1

>  <SCORE.INTER.POLAR>
0

>  <SCORE.INTER.ROT>
0

>  <SCORE.INTER.SOLV>
11.5024

>  <SCORE.INTER.VDW>
-21.601

>  <SCORE.INTER.norm>
-1.63464

>  <SCORE.INTRA>
0

>  <SCORE.INTRA.DIHEDRAL>
0

>  <SCORE.INTRA.DIHEDRAL.0>
0

>  <SCORE.INTRA.POLAR>
0

>  <SCORE.INTRA.POLAR.0>
0

>  <SCORE.INTRA.REPUL>
0

>  <SCORE.INTRA.REPUL.0>
0

>  <SCORE.INTRA.SOLV>
0

>  <SCORE.INTRA.SOLV.lig_0>
-33.1994

>  <SCORE.INTRA.VDW>
0

>  <SCORE.INTRA.VDW.0>
0

>  <SCORE.INTRA.norm>
0

>  <SCORE.RESTR>
0.000573475

>  <SCORE.RESTR.CAVITY>
0.000573475

>  <SCORE.RESTR.norm>
4.41135e-05

>  <SCORE.SYSTEM>
0

>  <SCORE.SYSTEM.CONST>
0

>  <SCORE.SYSTEM.DIHEDRAL>
0

>  <SCORE.SYSTEM.SOLV>
0

>  <SCORE.SYSTEM.norm>
0

>  <SCORE.heavy>
13

>  <SCORE.norm>
-1.6346

>  <RMSD>
4.243

$$$$
ligand
 OpenBabel11021811473D
libRbt.so/2013.1/901 2013/11/27
 13 14  0  0  0  0  0  0  0  0999 V2000
   36.5720   35.6027   24.3440 N   0  0  0  0  0  0  0  0  0  0  0  0
   37.5375   35.1949   25.5321 C   0  0  0  0  0  0  0  0  0  0  0  0
   38.5845   36.0322   25.8642 N   0  0  0  0  0  0  0  0  0  0  0  0
   37.2201   34.0790   26.0399 N   0  0  0  0  0  0  0  0  0  0  0  0
   36.2118   33.2299   25.7629 C   0  0  0  0  0  0  0  0  0  0  0  0
   35.3384   33.5040   24.7741 C   0  0  0  0  0  0  0  0  0  0  0  0
   35.5528   34.8428   23.9637 C   0  0  0  0  0  0  0  0  0  0  0  0
   34.7739   35.0745   23.0959 O   0  0  0  0  0  0  0  0  0  0  0  0
   34.2746   32.4044   24.5982 C   0  0  0  0  0  0  0  0  0  0  0  0
   34.5589   31.4908   25.5331 C   0  0  0  0  0  0  0  0  0  0  0  0
   35.6516   31.7723   26.3082 N   0  0  0  0  0  0  0  0  0  0  0  0
   33.1676   32.4046   23.6153 C   0  0  0  0  0  0  0  0  0  0  0  0
   32.3369   32.4442   22.8120 N   0  0  0  0  0  0  0  0  0  0  0  0
  1  2  1  0  0  0  0
  1  7  1  0  0  0  0
  2  3  1  0  0  0  0
  2  4  2  0  0  0  0
  4  5  1  0  0  0  0
  5  6  2  0  0  0  0
  5 11  1  0  0  0  0
  6  7  1  0  0  0  0
  6  9  1  0  0  0  0
  7  8  2  0  0  0  0
  9 10  2  0  0  0  0
  9 12  1  0  0  0  0
 10 11  1  0  0  0  0
 12 13  3  0  0  0  0
M  END
>  <CHROM.1>
35.53640871,33.74734175,24.76504491,0.25597604,-0.63212060,-0.63240440

>  <Name>
ligand

>  <RI>
0

>  <Rbt.Current_Directory>
/home/itssahil/PROJECTS/Mol_Feturizer/New_Systems/rnas/3GCA

>  <Rbt.Executable>
rbdock ($Id: //depot/dev/client3/rdock/2013.1/src/exe/rbdock.cxx#4 $)

>  <Rbt.Library>
libRbt.so (2013.1, Build901 2013/11/27)

>  <Rbt.Parameter_File>
/export/apps/rDock/src/rDock_2013.1_src/data/scripts/dock_solv.prm

>  <Rbt.Receptor>
prm/pocket_docking_2.prm

>  <SCORE>
-21.4072

>  <SCORE.INTER>
-21.4207

>  <SCORE.INTER.CONST>
1

>  <SCORE.INTER.POLAR>
0

>  <SCORE.INTER.ROT>
0

>  <SCORE.INTER.SOLV>
11.3224

>  <SCORE.INTER.VDW>
-21.6546

>  <SCORE.INTER.norm>
-1.64775

>  <SCORE.INTRA>
0

>  <SCORE.INTRA.DIHEDRAL>
0

>  <SCORE.INTRA.DIHEDRAL.0>
0

>  <SCORE.INTRA.POLAR>
0

>  <SCORE.INTRA.POLAR.0>
0

>  <SCORE.INTRA.REPUL>
0

>  <SCORE.INTRA.REPUL.0>
0

>  <SCORE.INTRA.SOLV>
0

>  <SCORE.INTRA.SOLV.lig_0>
-33.1994

>  <SCORE.INTRA.VDW>
0

>  <SCORE.INTRA.VDW.0>
0

>  <SCORE.INTRA.norm>
0

>  <SCORE.RESTR>
0.013517

>  <SCORE.RESTR.CAVITY>
0.013517

>  <SCORE.RESTR.norm>
0.00103977

>  <SCORE.SYSTEM>
0

>  <SCORE.SYSTEM.CONST>
0

>  <SCORE.SYSTEM.DIHEDRAL>
0

>  <SCORE.SYSTEM.SOLV>
0

>  <SCORE.SYSTEM.norm>
0

>  <SCORE.heavy>
13

>  <SCORE.norm>
-1.64671

>  <RMSD>
4.243

$$$$
ligand
 OpenBabel11021811473D
libRbt.so/2013.1/901 2013/11/27
 13 14  0  0  0  0  0  0  0  0999 V2000
   36.5691   35.5989   24.3279 N   0  0  0  0  0  0  0  0  0  0  0  0
   37.5309   35.1975   25.5213 C   0  0  0  0  0  0  0  0  0  0  0  0
   38.5750   36.0381   25.8542 N   0  0  0  0  0  0  0  0  0  0  0  0
   37.2138   34.0829   26.0320 N   0  0  0  0  0  0  0  0  0  0  0  0
   36.2082   33.2308   25.7545 C   0  0  0  0  0  0  0  0  0  0  0  0
   35.3380   33.4994   24.7613 C   0  0  0  0  0  0  0  0  0  0  0  0
   35.5529   34.8355   23.9467 C   0  0  0  0  0  0  0  0  0  0  0  0
   34.7768   35.0625   23.0750 O   0  0  0  0  0  0  0  0  0  0  0  0
   34.2771   32.3971   24.5855 C   0  0  0  0  0  0  0  0  0  0  0  0
   34.5597   31.4875   25.5248 C   0  0  0  0  0  0  0  0  0  0  0  0
   35.6488   31.7741   26.3031 N   0  0  0  0  0  0  0  0  0  0  0  0
   33.1739   32.3913   23.5984 C   0  0  0  0  0  0  0  0  0  0  0  0
   32.3462   32.4262   22.7918 N   0  0  0  0  0  0  0  0  0  0  0  0
  1  2  1  0  0  0  0
  1  7  1  0  0  0  0
  2  3  1  0  0  0  0
  2  4  2  0  0  0  0
  4  5  1  0  0  0  0
  5  6  2  0  0  0  0
  5 11  1  0  0  0  0
  6  7  1  0  0  0  0
  6  9  1  0  0  0  0
  7  8  2  0  0  0  0
  9 10  2  0  0  0  0
  9 12  1  0  0  0  0
 10 11  1  0  0  0  0
 12 13  3  0  0  0  0
M  END
>  <CHROM.1>
35.53559492,33.74309479,24.75205870,0.25515323,-0.63636543,-0.63666029

>  <Name>
ligand

>  <RI>
0

>  <Rbt.Current_Directory>
/home/itssahil/PROJECTS/Mol_Feturizer/New_Systems/rnas/3GCA

>  <Rbt.Executable>
rbdock ($Id: //depot/dev/client3/rdock/2013.1/src/exe/rbdock.cxx#4 $)

>  <Rbt.Library>
libRbt.so (2013.1, Build901 2013/11/27)

>  <Rbt.Parameter_File>
/export/apps/rDock/src/rDock_2013.1_src/data/scripts/dock_solv.prm

>  <Rbt.Receptor>
prm/pocket_docking_2.prm

>  <SCORE>
-21.367

>  <SCORE.INTER>
-21.3767

>  <SCORE.INTER.CONST>
1

>  <SCORE.INTER.POLAR>
0

>  <SCORE.INTER.ROT>
0

>  <SCORE.INTER.SOLV>
11.3718

>  <SCORE.INTER.VDW>
-21.6417

>  <SCORE.INTER.norm>
-1.64436

>  <SCORE.INTRA>
0

>  <SCORE.INTRA.DIHEDRAL>
0

>  <SCORE.INTRA.DIHEDRAL.0>
0

>  <SCORE.INTRA.POLAR>
0

>  <SCORE.INTRA.POLAR.0>
0

>  <SCORE.INTRA.REPUL>
0

>  <SCORE.INTRA.REPUL.0>
0

>  <SCORE.INTRA.SOLV>
0

>  <SCORE.INTRA.SOLV.lig_0>
-33.1994

>  <SCORE.INTRA.VDW>
0

>  <SCORE.INTRA.VDW.0>
0

>  <SCORE.INTRA.norm>
0

>  <SCORE.RESTR>
0.00974202

>  <SCORE.RESTR.CAVITY>
0.00974202

>  <SCORE.RESTR.norm>
0.000749386

>  <SCORE.SYSTEM>
0

>  <SCORE.SYSTEM.CONST>
0

>  <SCORE.SYSTEM.DIHEDRAL>
0

>  <SCORE.SYSTEM.SOLV>
0

>  <SCORE.SYSTEM.norm>
0

>  <SCORE.heavy>
13

>  <SCORE.norm>
-1.64361

>  <RMSD>
4.243

$$$$
ligand
 OpenBabel11021811473D
libRbt.so/2013.1/901 2013/11/27
 13 14  0  0  0  0  0  0  0  0999 V2000
   36.5928   35.8134   24.2662 N   0  0  0  0  0  0  0  0  0  0  0  0
   37.6103   35.5062   25.4412 C   0  0  0  0  0  0  0  0  0  0  0  0
   38.6096   36.4180   25.7198 N   0  0  0  0  0  0  0  0  0  0  0  0
   37.3765   34.3899   25.9917 N   0  0  0  0  0  0  0  0  0  0  0  0
   36.4179   33.4706   25.7676 C   0  0  0  0  0  0  0  0  0  0  0  0
   35.5056   33.6568   24.7935 C   0  0  0  0  0  0  0  0  0  0  0  0
   35.6152   34.9790   23.9363 C   0  0  0  0  0  0  0  0  0  0  0  0
   34.8028   35.1327   23.0820 O   0  0  0  0  0  0  0  0  0  0  0  0
   34.5099   32.4874   24.6796 C   0  0  0  0  0  0  0  0  0  0  0  0
   34.8739   31.6247   25.6350 C   0  0  0  0  0  0  0  0  0  0  0  0
   35.9645   31.9995   26.3726 N   0  0  0  0  0  0  0  0  0  0  0  0
   33.3822   32.3858   23.7261 C   0  0  0  0  0  0  0  0  0  0  0  0
   32.5318   32.3468   22.9436 N   0  0  0  0  0  0  0  0  0  0  0  0
  1  2  1  0  0  0  0
  1  7  1  0  0  0  0
  2  3  1  0  0  0  0
  2  4  2  0  0  0  0
  4  5  1  0  0  0  0
  5  6  2  0  0  0  0
  5 11  1  0  0  0  0
  6  7  1  0  0  0  0
  6  9  1  0  0  0  0
  7  8  2  0  0  0  0
  9 10  2  0  0  0  0
  9 12  1  0  0  0  0
 10 11  1  0  0  0  0
 12 13  3  0  0  0  0
M  END
>  <CHROM.1>
35.68750342,33.91158735,24.77172444,0.33799033,-0.64892946,-0.61552255

>  <Name>
ligand

>  <RI>
0

>  <Rbt.Current_Directory>
/home/itssahil/PROJECTS/Mol_Feturizer/New_Systems/rnas/3GCA

>  <Rbt.Executable>
rbdock ($Id: //depot/dev/client3/rdock/2013.1/src/exe/rbdock.cxx#4 $)

>  <Rbt.Library>
libRbt.so (2013.1, Build901 2013/11/27)

>  <Rbt.Parameter_File>
/export/apps/rDock/src/rDock_2013.1_src/data/scripts/dock_solv.prm

>  <Rbt.Receptor>
prm/blind_docking_80.prm

>  <SCORE>
-21.9073

>  <SCORE.INTER>
-21.9073

>  <SCORE.INTER.CONST>
1

>  <SCORE.INTER.POLAR>
0

>  <SCORE.INTER.ROT>
0

>  <SCORE.INTER.SOLV>
10.9842

>  <SCORE.INTER.VDW>
-21.8663

>  <SCORE.INTER.norm>
-1.68518

>  <SCORE.INTRA>
0

>  <SCORE.INTRA.DIHEDRAL>
0

>  <SCORE.INTRA.DIHEDRAL.0>
0

>  <SCORE.INTRA.POLAR>
0

>  <SCORE.INTRA.POLAR.0>
0

>  <SCORE.INTRA.REPUL>
0

>  <SCORE.INTRA.REPUL.0>
0

>  <SCORE.INTRA.SOLV>
0

>  <SCORE.INTRA.SOLV.lig_0>
-33.1994

>  <SCORE.INTRA.VDW>
0

>  <SCORE.INTRA.VDW.0>
0

>  <SCORE.INTRA.norm>
0

>  <SCORE.RESTR>
0

>  <SCORE.RESTR.CAVITY>
0

>  <SCORE.RESTR.norm>
0

>  <SCORE.SYSTEM>
0

>  <SCORE.SYSTEM.CONST>
0

>  <SCORE.SYSTEM.DIHEDRAL>
0

>  <SCORE.SYSTEM.SOLV>
0

>  <SCORE.SYSTEM.norm>
0

>  <SCORE.heavy>
13

>  <SCORE.norm>
-1.68518

>  <RMSD>
4.244

$$$$
ligand
 OpenBabel11021811473D
libRbt.so/2013.1/901 2013/11/27
 13 14  0  0  0  0  0  0  0  0999 V2000
   36.5760   35.5930   24.3525 N   0  0  0  0  0  0  0  0  0  0  0  0
   37.5430   35.1791   25.5374 C   0  0  0  0  0  0  0  0  0  0  0  0
   38.5903   36.0149   25.8725 N   0  0  0  0  0  0  0  0  0  0  0  0
   37.2265   34.0605   26.0396 N   0  0  0  0  0  0  0  0  0  0  0  0
   36.2180   33.2127   25.7594 C   0  0  0  0  0  0  0  0  0  0  0  0
   35.3433   33.4919   24.7731 C   0  0  0  0  0  0  0  0  0  0  0  0
   35.5565   34.8349   23.9695 C   0  0  0  0  0  0  0  0  0  0  0  0
   34.7765   35.0711   23.1039 O   0  0  0  0  0  0  0  0  0  0  0  0
   34.2796   32.3930   24.5927 C   0  0  0  0  0  0  0  0  0  0  0  0
   34.5652   31.4745   25.5224 C   0  0  0  0  0  0  0  0  0  0  0  0
   35.6588   31.7521   26.2977 N   0  0  0  0  0  0  0  0  0  0  0  0
   33.1714   32.3981   23.6112 C   0  0  0  0  0  0  0  0  0  0  0  0
   32.3397   32.4418   22.8091 N   0  0  0  0  0  0  0  0  0  0  0  0
  1  2  1  0  0  0  0
  1  7  1  0  0  0  0
  2  3  1  0  0  0  0
  2  4  2  0  0  0  0
  4  5  1  0  0  0  0
  5  6  2  0  0  0  0
  5 11  1  0  0  0  0
  6  7  1  0  0  0  0
  6  9  1  0  0  0  0
  7  8  2  0  0  0  0
  9 10  2  0  0  0  0
  9 12  1  0  0  0  0
 10 11  1  0  0  0  0
 12 13  3  0  0  0  0
M  END
>  <CHROM.1>
35.54129202,33.73526248,24.76509634,0.25706255,-0.63125627,-0.62649289

>  <Name>
ligand

>  <RI>
0

>  <Rbt.Current_Directory>
/home/itssahil/PROJECTS/Mol_Feturizer/New_Systems/rnas/3GCA

>  <Rbt.Executable>
rbdock ($Id: //depot/dev/client3/rdock/2013.1/src/exe/rbdock.cxx#4 $)

>  <Rbt.Library>
libRbt.so (2013.1, Build901 2013/11/27)

>  <Rbt.Parameter_File>
/export/apps/rDock/src/rDock_2013.1_src/data/scripts/dock_solv.prm

>  <Rbt.Receptor>
prm/pocket_docking_2.prm

>  <SCORE>
-21.3486

>  <SCORE.INTER>
-21.3522

>  <SCORE.INTER.CONST>
1

>  <SCORE.INTER.POLAR>
0

>  <SCORE.INTER.ROT>
0

>  <SCORE.INTER.SOLV>
11.3062

>  <SCORE.INTER.VDW>
-21.6035

>  <SCORE.INTER.norm>
-1.64248

>  <SCORE.INTRA>
0

>  <SCORE.INTRA.DIHEDRAL>
0

>  <SCORE.INTRA.DIHEDRAL.0>
0

>  <SCORE.INTRA.POLAR>
0

>  <SCORE.INTRA.POLAR.0>
0

>  <SCORE.INTRA.REPUL>
0

>  <SCORE.INTRA.REPUL.0>
0

>  <SCORE.INTRA.SOLV>
0

>  <SCORE.INTRA.SOLV.lig_0>
-33.1994

>  <SCORE.INTRA.VDW>
0

>  <SCORE.INTRA.VDW.0>
0

>  <SCORE.INTRA.norm>
0

>  <SCORE.RESTR>
0.00361118

>  <SCORE.RESTR.CAVITY>
0.00361118

>  <SCORE.RESTR.norm>
0.000277783

>  <SCORE.SYSTEM>
0

>  <SCORE.SYSTEM.CONST>
0

>  <SCORE.SYSTEM.DIHEDRAL>
0

>  <SCORE.SYSTEM.SOLV>
0

>  <SCORE.SYSTEM.norm>
0

>  <SCORE.heavy>
13

>  <SCORE.norm>
-1.6422

>  <RMSD>
4.244

$$$$
ligand
 OpenBabel11021811473D
libRbt.so/2013.1/901 2013/11/27
 13 14  0  0  0  0  0  0  0  0999 V2000
   36.5570   35.6245   24.3549 N   0  0  0  0  0  0  0  0  0  0  0  0
   37.5283   35.2116   25.5366 C   0  0  0  0  0  0  0  0  0  0  0  0
   38.5717   36.0517   25.8729 N   0  0  0  0  0  0  0  0  0  0  0  0
   37.2184   34.0897   26.0356 N   0  0  0  0  0  0  0  0  0  0  0  0
   36.2139   33.2376   25.7542 C   0  0  0  0  0  0  0  0  0  0  0  0
   35.3361   33.5155   24.7704 C   0  0  0  0  0  0  0  0  0  0  0  0
   35.5409   34.8624   23.9710 C   0  0  0  0  0  0  0  0  0  0  0  0
   34.7581   35.0974   23.1075 O   0  0  0  0  0  0  0  0  0  0  0  0
   34.2778   32.4117   24.5880 C   0  0  0  0  0  0  0  0  0  0  0  0
   34.5698   31.4916   25.5141 C   0  0  0  0  0  0  0  0  0  0  0  0
   35.6633   31.7723   26.2885 N   0  0  0  0  0  0  0  0  0  0  0  0
   33.1679   32.4144   23.6084 C   0  0  0  0  0  0  0  0  0  0  0  0
   32.3346   32.4564   22.8079 N   0  0  0  0  0  0  0  0  0  0  0  0
  1  2  1  0  0  0  0
  1  7  1  0  0  0  0
  2  3  1  0  0  0  0
  2  4  2  0  0  0  0
  4  5  1  0  0  0  0
  5  6  2  0  0  0  0
  5 11  1  0  0  0  0
  6  7  1  0  0  0  0
  6  9  1  0  0  0  0
  7  8  2  0  0  0  0
  9 10  2  0  0  0  0
  9 12  1  0  0  0  0
 10 11  1  0  0  0  0
 12 13  3  0  0  0  0
M  END
>  <CHROM.1>
35.53278194,33.75994487,24.76284826,0.26357258,-0.63291813,-0.61923533

>  <Name>
ligand

>  <RI>
0

>  <Rbt.Current_Directory>
/home/itssahil/PROJECTS/Mol_Feturizer/New_Systems/rnas/3GCA

>  <Rbt.Executable>
rbdock ($Id: //depot/dev/client3/rdock/2013.1/src/exe/rbdock.cxx#4 $)

>  <Rbt.Library>
libRbt.so (2013.1, Build901 2013/11/27)

>  <Rbt.Parameter_File>
/export/apps/rDock/src/rDock_2013.1_src/data/scripts/dock_solv.prm

>  <Rbt.Receptor>
prm/pocket_docking_2.prm

>  <SCORE>
-21.3479

>  <SCORE.INTER>
-21.367

>  <SCORE.INTER.CONST>
1

>  <SCORE.INTER.POLAR>
0

>  <SCORE.INTER.ROT>
0

>  <SCORE.INTER.SOLV>
11.3249

>  <SCORE.INTER.VDW>
-21.6196

>  <SCORE.INTER.norm>
-1.64361

>  <SCORE.INTRA>
0

>  <SCORE.INTRA.DIHEDRAL>
0

>  <SCORE.INTRA.DIHEDRAL.0>
0

>  <SCORE.INTRA.POLAR>
0

>  <SCORE.INTRA.POLAR.0>
0

>  <SCORE.INTRA.REPUL>
0

>  <SCORE.INTRA.REPUL.0>
0

>  <SCORE.INTRA.SOLV>
0

>  <SCORE.INTRA.SOLV.lig_0>
-33.1994

>  <SCORE.INTRA.VDW>
0

>  <SCORE.INTRA.VDW.0>
0

>  <SCORE.INTRA.norm>
0

>  <SCORE.RESTR>
0.0191012

>  <SCORE.RESTR.CAVITY>
0.0191012

>  <SCORE.RESTR.norm>
0.00146932

>  <SCORE.SYSTEM>
0

>  <SCORE.SYSTEM.CONST>
0

>  <SCORE.SYSTEM.DIHEDRAL>
0

>  <SCORE.SYSTEM.SOLV>
0

>  <SCORE.SYSTEM.norm>
0

>  <SCORE.heavy>
13

>  <SCORE.norm>
-1.64214

>  <RMSD>
4.244

$$$$
ligand
 OpenBabel11021811473D
libRbt.so/2013.1/901 2013/11/27
 13 14  0  0  0  0  0  0  0  0999 V2000
   36.5615   35.8291   24.2996 N   0  0  0  0  0  0  0  0  0  0  0  0
   37.5929   35.5089   25.4589 C   0  0  0  0  0  0  0  0  0  0  0  0
   38.5919   36.4204   25.7396 N   0  0  0  0  0  0  0  0  0  0  0  0
   37.3693   34.3840   25.9958 N   0  0  0  0  0  0  0  0  0  0  0  0
   36.4116   33.4644   25.7689 C   0  0  0  0  0  0  0  0  0  0  0  0
   35.4880   33.6610   24.8077 C   0  0  0  0  0  0  0  0  0  0  0  0
   35.5834   34.9957   23.9685 C   0  0  0  0  0  0  0  0  0  0  0  0
   34.7611   35.1587   23.1254 O   0  0  0  0  0  0  0  0  0  0  0  0
   34.4954   32.4896   24.6879 C   0  0  0  0  0  0  0  0  0  0  0  0
   34.8730   31.6146   25.6267 C   0  0  0  0  0  0  0  0  0  0  0  0
   35.9703   31.9830   26.3576 N   0  0  0  0  0  0  0  0  0  0  0  0
   33.3576   32.3975   23.7454 C   0  0  0  0  0  0  0  0  0  0  0  0
   32.4988   32.3664   22.9718 N   0  0  0  0  0  0  0  0  0  0  0  0
  1  2  1  0  0  0  0
  1  7  1  0  0  0  0
  2  3  1  0  0  0  0
  2  4  2  0  0  0  0
  4  5  1  0  0  0  0
  5  6  2  0  0  0  0
  5 11  1  0  0  0  0
  6  7  1  0  0  0  0
  6  9  1  0  0  0  0
  7  8  2  0  0  0  0
  9 10  2  0  0  0  0
  9 12  1  0  0  0  0
 10 11  1  0  0  0  0
 12 13  3  0  0  0  0
M  END
>  <CHROM.1>
35.66874139,33.91677939,24.78759111,0.34963692,-0.64201930,-0.59413468

>  <Name>
ligand

>  <RI>
0

>  <Rbt.Current_Directory>
/home/itssahil/PROJECTS/Mol_Feturizer/New_Systems/rnas/3GCA

>  <Rbt.Executable>
rbdock ($Id: //depot/dev/client3/rdock/2013.1/src/exe/rbdock.cxx#4 $)

>  <Rbt.Library>
libRbt.so (2013.1, Build901 2013/11/27)

>  <Rbt.Parameter_File>
/export/apps/rDock/src/rDock_2013.1_src/data/scripts/dock_solv.prm

>  <Rbt.Receptor>
prm/blind_docking_100.prm

>  <SCORE>
-21.8855

>  <SCORE.INTER>
-21.8855

>  <SCORE.INTER.CONST>
1

>  <SCORE.INTER.POLAR>
0

>  <SCORE.INTER.ROT>
0

>  <SCORE.INTER.SOLV>
10.97

>  <SCORE.INTER.VDW>
-21.847

>  <SCORE.INTER.norm>
-1.6835

>  <SCORE.INTRA>
0

>  <SCORE.INTRA.DIHEDRAL>
0

>  <SCORE.INTRA.DIHEDRAL.0>
0

>  <SCORE.INTRA.POLAR>
0

>  <SCORE.INTRA.POLAR.0>
0

>  <SCORE.INTRA.REPUL>
0

>  <SCORE.INTRA.REPUL.0>
0

>  <SCORE.INTRA.SOLV>
0

>  <SCORE.INTRA.SOLV.lig_0>
-33.1994

>  <SCORE.INTRA.VDW>
0

>  <SCORE.INTRA.VDW.0>
0

>  <SCORE.INTRA.norm>
0

>  <SCORE.RESTR>
0

>  <SCORE.RESTR.CAVITY>
0

>  <SCORE.RESTR.norm>
0

>  <SCORE.SYSTEM>
0

>  <SCORE.SYSTEM.CONST>
0

>  <SCORE.SYSTEM.DIHEDRAL>
0

>  <SCORE.SYSTEM.SOLV>
0

>  <SCORE.SYSTEM.norm>
0

>  <SCORE.heavy>
13

>  <SCORE.norm>
-1.6835

>  <RMSD>
4.245

$$$$
ligand
 OpenBabel11021811473D
libRbt.so/2013.1/901 2013/11/27
 13 14  0  0  0  0  0  0  0  0999 V2000
   36.5797   35.8532   24.2342 N   0  0  0  0  0  0  0  0  0  0  0  0
   37.6090   35.5586   25.4021 C   0  0  0  0  0  0  0  0  0  0  0  0
   38.6028   36.4797   25.6697 N   0  0  0  0  0  0  0  0  0  0  0  0
   37.3891   34.4422   25.9581 N   0  0  0  0  0  0  0  0  0  0  0  0
   36.4365   33.5141   25.7446 C   0  0  0  0  0  0  0  0  0  0  0  0
   35.5150   33.6893   24.7773 C   0  0  0  0  0  0  0  0  0  0  0  0
   35.6066   35.0095   23.9149 C   0  0  0  0  0  0  0  0  0  0  0  0
   34.7862   35.1535   23.0666 O   0  0  0  0  0  0  0  0  0  0  0  0
   34.5284   32.5112   24.6751 C   0  0  0  0  0  0  0  0  0  0  0  0
   34.9072   31.6548   25.6304 C   0  0  0  0  0  0  0  0  0  0  0  0
   36.0005   32.0412   26.3580 N   0  0  0  0  0  0  0  0  0  0  0  0
   33.3940   32.3970   23.7309 C   0  0  0  0  0  0  0  0  0  0  0  0
   32.5378   32.3481   22.9554 N   0  0  0  0  0  0  0  0  0  0  0  0
  1  2  1  0  0  0  0
  1  7  1  0  0  0  0
  2  3  1  0  0  0  0
  2  4  2  0  0  0  0
  4  5  1  0  0  0  0
  5  6  2  0  0  0  0
  5 11  1  0  0  0  0
  6  7  1  0  0  0  0
  6  9  1  0  0  0  0
  7  8  2  0  0  0  0
  9 10  2  0  0  0  0
  9 12  1  0  0  0  0
 10 11  1  0  0  0  0
 12 13  3  0  0  0  0
M  END
>  <CHROM.1>
35.69455641,33.94557232,24.75319626,0.35239838,-0.64727990,-0.61013495

>  <Name>
ligand

>  <RI>
0

>  <Rbt.Current_Directory>
/home/itssahil/PROJECTS/Mol_Feturizer/New_Systems/rnas/3GCA

>  <Rbt.Executable>
rbdock ($Id: //depot/dev/client3/rdock/2013.1/src/exe/rbdock.cxx#4 $)

>  <Rbt.Library>
libRbt.so (2013.1, Build901 2013/11/27)

>  <Rbt.Parameter_File>
/export/apps/rDock/src/rDock_2013.1_src/data/scripts/dock_solv.prm

>  <Rbt.Receptor>
prm/blind_docking_60.prm

>  <SCORE>
-21.9086

>  <SCORE.INTER>
-21.9086

>  <SCORE.INTER.CONST>
1

>  <SCORE.INTER.POLAR>
0

>  <SCORE.INTER.ROT>
0

>  <SCORE.INTER.SOLV>
11.0065

>  <SCORE.INTER.VDW>
-21.8746

>  <SCORE.INTER.norm>
-1.68528

>  <SCORE.INTRA>
0

>  <SCORE.INTRA.DIHEDRAL>
0

>  <SCORE.INTRA.DIHEDRAL.0>
0

>  <SCORE.INTRA.POLAR>
0

>  <SCORE.INTRA.POLAR.0>
0

>  <SCORE.INTRA.REPUL>
0

>  <SCORE.INTRA.REPUL.0>
0

>  <SCORE.INTRA.SOLV>
0

>  <SCORE.INTRA.SOLV.lig_0>
-33.1994

>  <SCORE.INTRA.VDW>
0

>  <SCORE.INTRA.VDW.0>
0

>  <SCORE.INTRA.norm>
0

>  <SCORE.RESTR>
0

>  <SCORE.RESTR.CAVITY>
0

>  <SCORE.RESTR.norm>
0

>  <SCORE.SYSTEM>
0

>  <SCORE.SYSTEM.CONST>
0

>  <SCORE.SYSTEM.DIHEDRAL>
0

>  <SCORE.SYSTEM.SOLV>
0

>  <SCORE.SYSTEM.norm>
0

>  <SCORE.heavy>
13

>  <SCORE.norm>
-1.68528

>  <RMSD>
4.245

$$$$
ligand
 OpenBabel11021811473D
libRbt.so/2013.1/901 2013/11/27
 13 14  0  0  0  0  0  0  0  0999 V2000
   36.5708   35.8422   24.2930 N   0  0  0  0  0  0  0  0  0  0  0  0
   37.6047   35.5231   25.4504 C   0  0  0  0  0  0  0  0  0  0  0  0
   38.6010   36.4374   25.7317 N   0  0  0  0  0  0  0  0  0  0  0  0
   37.3855   34.3963   25.9852 N   0  0  0  0  0  0  0  0  0  0  0  0
   36.4305   33.4741   25.7578 C   0  0  0  0  0  0  0  0  0  0  0  0
   35.5051   33.6696   24.7981 C   0  0  0  0  0  0  0  0  0  0  0  0
   35.5950   35.0063   23.9614 C   0  0  0  0  0  0  0  0  0  0  0  0
   34.7711   35.1682   23.1197 O   0  0  0  0  0  0  0  0  0  0  0  0
   34.5162   32.4952   24.6771 C   0  0  0  0  0  0  0  0  0  0  0  0
   34.8978   31.6196   25.6137 C   0  0  0  0  0  0  0  0  0  0  0  0
   35.9948   31.9900   26.3440 N   0  0  0  0  0  0  0  0  0  0  0  0
   33.3775   32.4012   23.7359 C   0  0  0  0  0  0  0  0  0  0  0  0
   32.5178   32.3689   22.9633 N   0  0  0  0  0  0  0  0  0  0  0  0
  1  2  1  0  0  0  0
  1  7  1  0  0  0  0
  2  3  1  0  0  0  0
  2  4  2  0  0  0  0
  4  5  1  0  0  0  0
  5  6  2  0  0  0  0
  5 11  1  0  0  0  0
  6  7  1  0  0  0  0
  6  9  1  0  0  0  0
  7  8  2  0  0  0  0
  9 10  2  0  0  0  0
  9 12  1  0  0  0  0
 10 11  1  0  0  0  0
 12 13  3  0  0  0  0
M  END
>  <CHROM.1>
35.68490252,33.92601957,24.77824477,0.35392272,-0.64280638,-0.58955152

>  <Name>
ligand

>  <RI>
0

>  <Rbt.Current_Directory>
/home/itssahil/PROJECTS/Mol_Feturizer/New_Systems/rnas/3GCA

>  <Rbt.Executable>
rbdock ($Id: //depot/dev/client3/rdock/2013.1/src/exe/rbdock.cxx#4 $)

>  <Rbt.Library>
libRbt.so (2013.1, Build901 2013/11/27)

>  <Rbt.Parameter_File>
/export/apps/rDock/src/rDock_2013.1_src/data/scripts/dock_solv.prm

>  <Rbt.Receptor>
prm/blind_docking_100.prm

>  <SCORE>
-21.9258

>  <SCORE.INTER>
-21.9258

>  <SCORE.INTER.CONST>
1

>  <SCORE.INTER.POLAR>
0

>  <SCORE.INTER.ROT>
0

>  <SCORE.INTER.SOLV>
10.9331

>  <SCORE.INTER.VDW>
-21.8616

>  <SCORE.INTER.norm>
-1.6866

>  <SCORE.INTRA>
0

>  <SCORE.INTRA.DIHEDRAL>
0

>  <SCORE.INTRA.DIHEDRAL.0>
0

>  <SCORE.INTRA.POLAR>
0

>  <SCORE.INTRA.POLAR.0>
0

>  <SCORE.INTRA.REPUL>
0

>  <SCORE.INTRA.REPUL.0>
0

>  <SCORE.INTRA.SOLV>
0

>  <SCORE.INTRA.SOLV.lig_0>
-33.1994

>  <SCORE.INTRA.VDW>
0

>  <SCORE.INTRA.VDW.0>
0

>  <SCORE.INTRA.norm>
0

>  <SCORE.RESTR>
0

>  <SCORE.RESTR.CAVITY>
0

>  <SCORE.RESTR.norm>
0

>  <SCORE.SYSTEM>
0

>  <SCORE.SYSTEM.CONST>
0

>  <SCORE.SYSTEM.DIHEDRAL>
0

>  <SCORE.SYSTEM.SOLV>
0

>  <SCORE.SYSTEM.norm>
0

>  <SCORE.heavy>
13

>  <SCORE.norm>
-1.6866

>  <RMSD>
4.246

$$$$
ligand
 OpenBabel11021811473D
libRbt.so/2013.1/901 2013/11/27
 13 14  0  0  0  0  0  0  0  0999 V2000
   36.6097   35.7914   24.2887 N   0  0  0  0  0  0  0  0  0  0  0  0
   37.5953   35.4683   25.4865 C   0  0  0  0  0  0  0  0  0  0  0  0
   38.6098   36.3584   25.7800 N   0  0  0  0  0  0  0  0  0  0  0  0
   37.3241   34.3615   26.0389 N   0  0  0  0  0  0  0  0  0  0  0  0
   36.3490   33.4634   25.8007 C   0  0  0  0  0  0  0  0  0  0  0  0
   35.4615   33.6643   24.8068 C   0  0  0  0  0  0  0  0  0  0  0  0
   35.6197   34.9778   23.9439 C   0  0  0  0  0  0  0  0  0  0  0  0
   34.8288   35.1448   23.0720 O   0  0  0  0  0  0  0  0  0  0  0  0
   34.4412   32.5178   24.6795 C   0  0  0  0  0  0  0  0  0  0  0  0
   34.7650   31.6532   25.6475 C   0  0  0  0  0  0  0  0  0  0  0  0
   35.8488   32.0073   26.4052 N   0  0  0  0  0  0  0  0  0  0  0  0
   33.3311   32.4362   23.7035 C   0  0  0  0  0  0  0  0  0  0  0  0
   32.4963   32.4118   22.9039 N   0  0  0  0  0  0  0  0  0  0  0  0
  1  2  1  0  0  0  0
  1  7  1  0  0  0  0
  2  3  1  0  0  0  0
  2  4  2  0  0  0  0
  4  5  1  0  0  0  0
  5  6  2  0  0  0  0
  5 11  1  0  0  0  0
  6  7  1  0  0  0  0
  6  9  1  0  0  0  0
  7  8  2  0  0  0  0
  9 10  2  0  0  0  0
  9 12  1  0  0  0  0
 10 11  1  0  0  0  0
 12 13  3  0  0  0  0
M  END
>  <CHROM.1>
35.64973465,33.91463704,24.78719673,0.29894269,-0.65176290,-0.64558412

>  <Name>
ligand

>  <RI>
0

>  <Rbt.Current_Directory>
/home/itssahil/PROJECTS/Mol_Feturizer/New_Systems/rnas/3GCA

>  <Rbt.Executable>
rbdock ($Id: //depot/dev/client3/rdock/2013.1/src/exe/rbdock.cxx#4 $)

>  <Rbt.Library>
libRbt.so (2013.1, Build901 2013/11/27)

>  <Rbt.Parameter_File>
/export/apps/rDock/src/rDock_2013.1_src/data/scripts/dock_solv.prm

>  <Rbt.Receptor>
prm/blind_docking_60.prm

>  <SCORE>
-21.8981

>  <SCORE.INTER>
-21.8981

>  <SCORE.INTER.CONST>
1

>  <SCORE.INTER.POLAR>
0

>  <SCORE.INTER.ROT>
0

>  <SCORE.INTER.SOLV>
10.9784

>  <SCORE.INTER.VDW>
-21.8582

>  <SCORE.INTER.norm>
-1.68447

>  <SCORE.INTRA>
0

>  <SCORE.INTRA.DIHEDRAL>
0

>  <SCORE.INTRA.DIHEDRAL.0>
0

>  <SCORE.INTRA.POLAR>
0

>  <SCORE.INTRA.POLAR.0>
0

>  <SCORE.INTRA.REPUL>
0

>  <SCORE.INTRA.REPUL.0>
0

>  <SCORE.INTRA.SOLV>
0

>  <SCORE.INTRA.SOLV.lig_0>
-33.1994

>  <SCORE.INTRA.VDW>
0

>  <SCORE.INTRA.VDW.0>
0

>  <SCORE.INTRA.norm>
0

>  <SCORE.RESTR>
0

>  <SCORE.RESTR.CAVITY>
0

>  <SCORE.RESTR.norm>
0

>  <SCORE.SYSTEM>
0

>  <SCORE.SYSTEM.CONST>
0

>  <SCORE.SYSTEM.DIHEDRAL>
0

>  <SCORE.SYSTEM.SOLV>
0

>  <SCORE.SYSTEM.norm>
0

>  <SCORE.heavy>
13

>  <SCORE.norm>
-1.68447

>  <RMSD>
4.246

$$$$
ligand
 OpenBabel11021811473D
libRbt.so/2013.1/901 2013/11/27
 13 14  0  0  0  0  0  0  0  0999 V2000
   36.6033   35.8286   24.2986 N   0  0  0  0  0  0  0  0  0  0  0  0
   37.6087   35.5111   25.4813 C   0  0  0  0  0  0  0  0  0  0  0  0
   38.6078   36.4183   25.7751 N   0  0  0  0  0  0  0  0  0  0  0  0
   37.3667   34.3920   26.0224 N   0  0  0  0  0  0  0  0  0  0  0  0
   36.4077   33.4769   25.7834 C   0  0  0  0  0  0  0  0  0  0  0  0
   35.5052   33.6717   24.8019 C   0  0  0  0  0  0  0  0  0  0  0  0
   35.6266   34.9990   23.9542 C   0  0  0  0  0  0  0  0  0  0  0  0
   34.8227   35.1604   23.0932 O   0  0  0  0  0  0  0  0  0  0  0  0
   34.5075   32.5059   24.6711 C   0  0  0  0  0  0  0  0  0  0  0  0
   34.8599   31.6361   25.6244 C   0  0  0  0  0  0  0  0  0  0  0  0
   35.9446   32.0032   26.3747 N   0  0  0  0  0  0  0  0  0  0  0  0
   33.3885   32.4135   23.7063 C   0  0  0  0  0  0  0  0  0  0  0  0
   32.5455   32.3818   22.9156 N   0  0  0  0  0  0  0  0  0  0  0  0
  1  2  1  0  0  0  0
  1  7  1  0  0  0  0
  2  3  1  0  0  0  0
  2  4  2  0  0  0  0
  4  5  1  0  0  0  0
  5  6  2  0  0  0  0
  5 11  1  0  0  0  0
  6  7  1  0  0  0  0
  6  9  1  0  0  0  0
  7  8  2  0  0  0  0
  9 10  2  0  0  0  0
  9 12  1  0  0  0  0
 10 11  1  0  0  0  0
 12 13  3  0  0  0  0
M  END
>  <CHROM.1>
35.68798763,33.92615204,24.78344615,0.32825295,-0.65507457,-0.61509416

>  <Name>
ligand

>  <RI>
0

>  <Rbt.Current_Directory>
/home/itssahil/PROJECTS/Mol_Feturizer/New_Systems/rnas/3GCA

>  <Rbt.Executable>
rbdock ($Id: //depot/dev/client3/rdock/2013.1/src/exe/rbdock.cxx#4 $)

>  <Rbt.Library>
libRbt.so (2013.1, Build901 2013/11/27)

>  <Rbt.Parameter_File>
/export/apps/rDock/src/rDock_2013.1_src/data/scripts/dock_solv.prm

>  <Rbt.Receptor>
prm/blind_docking_100.prm

>  <SCORE>
-21.9118

>  <SCORE.INTER>
-21.9118

>  <SCORE.INTER.CONST>
1

>  <SCORE.INTER.POLAR>
0

>  <SCORE.INTER.ROT>
0

>  <SCORE.INTER.SOLV>
10.8721

>  <SCORE.INTER.VDW>
-21.8319

>  <SCORE.INTER.norm>
-1.68553

>  <SCORE.INTRA>
0

>  <SCORE.INTRA.DIHEDRAL>
0

>  <SCORE.INTRA.DIHEDRAL.0>
0

>  <SCORE.INTRA.POLAR>
0

>  <SCORE.INTRA.POLAR.0>
0

>  <SCORE.INTRA.REPUL>
0

>  <SCORE.INTRA.REPUL.0>
0

>  <SCORE.INTRA.SOLV>
0

>  <SCORE.INTRA.SOLV.lig_0>
-33.1994

>  <SCORE.INTRA.VDW>
0

>  <SCORE.INTRA.VDW.0>
0

>  <SCORE.INTRA.norm>
0

>  <SCORE.RESTR>
0

>  <SCORE.RESTR.CAVITY>
0

>  <SCORE.RESTR.norm>
0

>  <SCORE.SYSTEM>
0

>  <SCORE.SYSTEM.CONST>
0

>  <SCORE.SYSTEM.DIHEDRAL>
0

>  <SCORE.SYSTEM.SOLV>
0

>  <SCORE.SYSTEM.norm>
0

>  <SCORE.heavy>
13

>  <SCORE.norm>
-1.68553

>  <RMSD>
4.247

$$$$
ligand
 OpenBabel11021811473D
libRbt.so/2013.1/901 2013/11/27
 13 14  0  0  0  0  0  0  0  0999 V2000
   36.5934   35.8405   24.2861 N   0  0  0  0  0  0  0  0  0  0  0  0
   37.6112   35.5250   25.4586 C   0  0  0  0  0  0  0  0  0  0  0  0
   38.6063   36.4381   25.7479 N   0  0  0  0  0  0  0  0  0  0  0  0
   37.3820   34.4018   25.9967 N   0  0  0  0  0  0  0  0  0  0  0  0
   36.4276   33.4808   25.7618 C   0  0  0  0  0  0  0  0  0  0  0  0
   35.5153   33.6735   24.7891 C   0  0  0  0  0  0  0  0  0  0  0  0
   35.6198   35.0054   23.9464 C   0  0  0  0  0  0  0  0  0  0  0  0
   34.8073   35.1648   23.0931 O   0  0  0  0  0  0  0  0  0  0  0  0
   34.5248   32.5011   24.6616 C   0  0  0  0  0  0  0  0  0  0  0  0
   34.8918   31.6296   25.6079 C   0  0  0  0  0  0  0  0  0  0  0  0
   35.9802   32.0012   26.3504 N   0  0  0  0  0  0  0  0  0  0  0  0
   33.3983   32.4049   23.7061 C   0  0  0  0  0  0  0  0  0  0  0  0
   32.5487   32.3706   22.9225 N   0  0  0  0  0  0  0  0  0  0  0  0
  1  2  1  0  0  0  0
  1  7  1  0  0  0  0
  2  3  1  0  0  0  0
  2  4  2  0  0  0  0
  4  5  1  0  0  0  0
  5  6  2  0  0  0  0
  5 11  1  0  0  0  0
  6  7  1  0  0  0  0
  6  9  1  0  0  0  0
  7  8  2  0  0  0  0
  9 10  2  0  0  0  0
  9 12  1  0  0  0  0
 10 11  1  0  0  0  0
 12 13  3  0  0  0  0
M  END
>  <CHROM.1>
35.69604993,33.92930423,24.77020818,0.34192841,-0.65212254,-0.60227893

>  <Name>
ligand

>  <RI>
0

>  <Rbt.Current_Directory>
/home/itssahil/PROJECTS/Mol_Feturizer/New_Systems/rnas/3GCA

>  <Rbt.Executable>
rbdock ($Id: //depot/dev/client3/rdock/2013.1/src/exe/rbdock.cxx#4 $)

>  <Rbt.Library>
libRbt.so (2013.1, Build901 2013/11/27)

>  <Rbt.Parameter_File>
/export/apps/rDock/src/rDock_2013.1_src/data/scripts/dock_solv.prm

>  <Rbt.Receptor>
prm/blind_docking_60.prm

>  <SCORE>
-21.9148

>  <SCORE.INTER>
-21.9148

>  <SCORE.INTER.CONST>
1

>  <SCORE.INTER.POLAR>
0

>  <SCORE.INTER.ROT>
0

>  <SCORE.INTER.SOLV>
10.9016

>  <SCORE.INTER.VDW>
-21.8437

>  <SCORE.INTER.norm>
-1.68575

>  <SCORE.INTRA>
0

>  <SCORE.INTRA.DIHEDRAL>
0

>  <SCORE.INTRA.DIHEDRAL.0>
0

>  <SCORE.INTRA.POLAR>
0

>  <SCORE.INTRA.POLAR.0>
0

>  <SCORE.INTRA.REPUL>
0

>  <SCORE.INTRA.REPUL.0>
0

>  <SCORE.INTRA.SOLV>
0

>  <SCORE.INTRA.SOLV.lig_0>
-33.1994

>  <SCORE.INTRA.VDW>
0

>  <SCORE.INTRA.VDW.0>
0

>  <SCORE.INTRA.norm>
0

>  <SCORE.RESTR>
0

>  <SCORE.RESTR.CAVITY>
0

>  <SCORE.RESTR.norm>
0

>  <SCORE.SYSTEM>
0

>  <SCORE.SYSTEM.CONST>
0

>  <SCORE.SYSTEM.DIHEDRAL>
0

>  <SCORE.SYSTEM.SOLV>
0

>  <SCORE.SYSTEM.norm>
0

>  <SCORE.heavy>
13

>  <SCORE.norm>
-1.68575

>  <RMSD>
4.247

$$$$
ligand
 OpenBabel11021811473D
libRbt.so/2013.1/901 2013/11/27
 13 14  0  0  0  0  0  0  0  0999 V2000
   36.5452   35.8441   24.2888 N   0  0  0  0  0  0  0  0  0  0  0  0
   37.6069   35.5002   25.4135 C   0  0  0  0  0  0  0  0  0  0  0  0
   38.6112   36.4074   25.6888 N   0  0  0  0  0  0  0  0  0  0  0  0
   37.3992   34.3628   25.9303 N   0  0  0  0  0  0  0  0  0  0  0  0
   36.4375   33.4464   25.7076 C   0  0  0  0  0  0  0  0  0  0  0  0
   35.4890   33.6626   24.7752 C   0  0  0  0  0  0  0  0  0  0  0  0
   35.5603   35.0162   23.9643 C   0  0  0  0  0  0  0  0  0  0  0  0
   34.7161   35.1962   23.1467 O   0  0  0  0  0  0  0  0  0  0  0  0
   34.4957   32.4919   24.6546 C   0  0  0  0  0  0  0  0  0  0  0  0
   34.8989   31.5968   25.5633 C   0  0  0  0  0  0  0  0  0  0  0  0
   36.0142   31.9511   26.2737 N   0  0  0  0  0  0  0  0  0  0  0  0
   33.3339   32.4184   23.7400 C   0  0  0  0  0  0  0  0  0  0  0  0
   32.4555   32.4029   22.9884 N   0  0  0  0  0  0  0  0  0  0  0  0
  1  2  1  0  0  0  0
  1  7  1  0  0  0  0
  2  3  1  0  0  0  0
  2  4  2  0  0  0  0
  4  5  1  0  0  0  0
  5  6  2  0  0  0  0
  5 11  1  0  0  0  0
  6  7  1  0  0  0  0
  6  9  1  0  0  0  0
  7  8  2  0  0  0  0
  9 10  2  0  0  0  0
  9 12  1  0  0  0  0
 10 11  1  0  0  0  0
 12 13  3  0  0  0  0
M  END
>  <CHROM.1>
35.66868241,33.91916007,24.75625832,0.36923434,-0.62141309,-0.55993436

>  <Name>
ligand

>  <RI>
0

>  <Rbt.Current_Directory>
/home/itssahil/PROJECTS/Mol_Feturizer/New_Systems/rnas/3GCA

>  <Rbt.Executable>
rbdock ($Id: //depot/dev/client3/rdock/2013.1/src/exe/rbdock.cxx#4 $)

>  <Rbt.Library>
libRbt.so (2013.1, Build901 2013/11/27)

>  <Rbt.Parameter_File>
/export/apps/rDock/src/rDock_2013.1_src/data/scripts/dock_solv.prm

>  <Rbt.Receptor>
prm/blind_docking_80.prm

>  <SCORE>
-21.9226

>  <SCORE.INTER>
-21.9226

>  <SCORE.INTER.CONST>
1

>  <SCORE.INTER.POLAR>
0

>  <SCORE.INTER.ROT>
0

>  <SCORE.INTER.SOLV>
11.0636

>  <SCORE.INTER.VDW>
-21.9029

>  <SCORE.INTER.norm>
-1.68636

>  <SCORE.INTRA>
0

>  <SCORE.INTRA.DIHEDRAL>
0

>  <SCORE.INTRA.DIHEDRAL.0>
0

>  <SCORE.INTRA.POLAR>
0

>  <SCORE.INTRA.POLAR.0>
0

>  <SCORE.INTRA.REPUL>
0

>  <SCORE.INTRA.REPUL.0>
0

>  <SCORE.INTRA.SOLV>
0

>  <SCORE.INTRA.SOLV.lig_0>
-33.1994

>  <SCORE.INTRA.VDW>
0

>  <SCORE.INTRA.VDW.0>
0

>  <SCORE.INTRA.norm>
0

>  <SCORE.RESTR>
0

>  <SCORE.RESTR.CAVITY>
0

>  <SCORE.RESTR.norm>
0

>  <SCORE.SYSTEM>
0

>  <SCORE.SYSTEM.CONST>
0

>  <SCORE.SYSTEM.DIHEDRAL>
0

>  <SCORE.SYSTEM.SOLV>
0

>  <SCORE.SYSTEM.norm>
0

>  <SCORE.heavy>
13

>  <SCORE.norm>
-1.68636

>  <RMSD>
4.247

$$$$
ligand
 OpenBabel11021811473D
libRbt.so/2013.1/901 2013/11/27
 13 14  0  0  0  0  0  0  0  0999 V2000
   36.6288   35.8127   24.2543 N   0  0  0  0  0  0  0  0  0  0  0  0
   37.6049   35.5020   25.4630 C   0  0  0  0  0  0  0  0  0  0  0  0
   38.6101   36.4006   25.7624 N   0  0  0  0  0  0  0  0  0  0  0  0
   37.3364   34.3956   26.0176 N   0  0  0  0  0  0  0  0  0  0  0  0
   36.3701   33.4894   25.7738 C   0  0  0  0  0  0  0  0  0  0  0  0
   35.4910   33.6796   24.7705 C   0  0  0  0  0  0  0  0  0  0  0  0
   35.6482   34.9905   23.9034 C   0  0  0  0  0  0  0  0  0  0  0  0
   34.8646   35.1479   23.0232 O   0  0  0  0  0  0  0  0  0  0  0  0
   34.4802   32.5252   24.6384 C   0  0  0  0  0  0  0  0  0  0  0  0
   34.8009   31.6671   25.6133 C   0  0  0  0  0  0  0  0  0  0  0  0
   35.8746   32.0324   26.3799 N   0  0  0  0  0  0  0  0  0  0  0  0
   33.3804   32.4314   23.6520 C   0  0  0  0  0  0  0  0  0  0  0  0
   32.5536   32.3974   22.8444 N   0  0  0  0  0  0  0  0  0  0  0  0
  1  2  1  0  0  0  0
  1  7  1  0  0  0  0
  2  3  1  0  0  0  0
  2  4  2  0  0  0  0
  4  5  1  0  0  0  0
  5  6  2  0  0  0  0
  5 11  1  0  0  0  0
  6  7  1  0  0  0  0
  6  9  1  0  0  0  0
  7  8  2  0  0  0  0
  9 10  2  0  0  0  0
  9 12  1  0  0  0  0
 10 11  1  0  0  0  0
 12 13  3  0  0  0  0
M  END
>  <CHROM.1>
35.67758133,33.93120743,24.75164377,0.29879822,-0.66389318,-0.65004091

>  <Name>
ligand

>  <RI>
0

>  <Rbt.Current_Directory>
/home/itssahil/PROJECTS/Mol_Feturizer/New_Systems/rnas/3GCA

>  <Rbt.Executable>
rbdock ($Id: //depot/dev/client3/rdock/2013.1/src/exe/rbdock.cxx#4 $)

>  <Rbt.Library>
libRbt.so (2013.1, Build901 2013/11/27)

>  <Rbt.Parameter_File>
/export/apps/rDock/src/rDock_2013.1_src/data/scripts/dock_solv.prm

>  <Rbt.Receptor>
prm/blind_docking_80.prm

>  <SCORE>
-21.9283

>  <SCORE.INTER>
-21.9283

>  <SCORE.INTER.CONST>
1

>  <SCORE.INTER.POLAR>
0

>  <SCORE.INTER.ROT>
0

>  <SCORE.INTER.SOLV>
10.9633

>  <SCORE.INTER.VDW>
-21.8733

>  <SCORE.INTER.norm>
-1.68679

>  <SCORE.INTRA>
0

>  <SCORE.INTRA.DIHEDRAL>
0

>  <SCORE.INTRA.DIHEDRAL.0>
0

>  <SCORE.INTRA.POLAR>
0

>  <SCORE.INTRA.POLAR.0>
0

>  <SCORE.INTRA.REPUL>
0

>  <SCORE.INTRA.REPUL.0>
0

>  <SCORE.INTRA.SOLV>
0

>  <SCORE.INTRA.SOLV.lig_0>
-33.1994

>  <SCORE.INTRA.VDW>
0

>  <SCORE.INTRA.VDW.0>
0

>  <SCORE.INTRA.norm>
0

>  <SCORE.RESTR>
0

>  <SCORE.RESTR.CAVITY>
0

>  <SCORE.RESTR.norm>
0

>  <SCORE.SYSTEM>
0

>  <SCORE.SYSTEM.CONST>
0

>  <SCORE.SYSTEM.DIHEDRAL>
0

>  <SCORE.SYSTEM.SOLV>
0

>  <SCORE.SYSTEM.norm>
0

>  <SCORE.heavy>
13

>  <SCORE.norm>
-1.68679

>  <RMSD>
4.247

$$$$
ligand
 OpenBabel11021811473D
libRbt.so/2013.1/901 2013/11/27
 13 14  0  0  0  0  0  0  0  0999 V2000
   36.5681   35.8505   24.2880 N   0  0  0  0  0  0  0  0  0  0  0  0
   37.6055   35.5312   25.4422 C   0  0  0  0  0  0  0  0  0  0  0  0
   38.6033   36.4450   25.7200 N   0  0  0  0  0  0  0  0  0  0  0  0
   37.3874   34.4048   25.9782 N   0  0  0  0  0  0  0  0  0  0  0  0
   36.4313   33.4829   25.7541 C   0  0  0  0  0  0  0  0  0  0  0  0
   35.5028   33.6786   24.7973 C   0  0  0  0  0  0  0  0  0  0  0  0
   35.5908   35.0150   23.9599 C   0  0  0  0  0  0  0  0  0  0  0  0
   34.7643   35.1770   23.1208 O   0  0  0  0  0  0  0  0  0  0  0  0
   34.5129   32.5047   24.6800 C   0  0  0  0  0  0  0  0  0  0  0  0
   34.8970   31.6292   25.6157 C   0  0  0  0  0  0  0  0  0  0  0  0
   35.9966   31.9994   26.3423 N   0  0  0  0  0  0  0  0  0  0  0  0
   33.3711   32.4110   23.7424 C   0  0  0  0  0  0  0  0  0  0  0  0
   32.5090   32.3789   22.9726 N   0  0  0  0  0  0  0  0  0  0  0  0
  1  2  1  0  0  0  0
  1  7  1  0  0  0  0
  2  3  1  0  0  0  0
  2  4  2  0  0  0  0
  4  5  1  0  0  0  0
  5  6  2  0  0  0  0
  5 11  1  0  0  0  0
  6  7  1  0  0  0  0
  6  9  1  0  0  0  0
  7  8  2  0  0  0  0
  9 10  2  0  0  0  0
  9 12  1  0  0  0  0
 10 11  1  0  0  0  0
 12 13  3  0  0  0  0
M  END
>  <CHROM.1>
35.68274435,33.93492996,24.77683329,0.35558001,-0.63983584,-0.58892906

>  <Name>
ligand

>  <RI>
0

>  <Rbt.Current_Directory>
/home/itssahil/PROJECTS/Mol_Feturizer/New_Systems/rnas/3GCA

>  <Rbt.Executable>
rbdock ($Id: //depot/dev/client3/rdock/2013.1/src/exe/rbdock.cxx#4 $)

>  <Rbt.Library>
libRbt.so (2013.1, Build901 2013/11/27)

>  <Rbt.Parameter_File>
/export/apps/rDock/src/rDock_2013.1_src/data/scripts/dock_solv.prm

>  <Rbt.Receptor>
prm/blind_docking_80.prm

>  <SCORE>
-21.9174

>  <SCORE.INTER>
-21.9174

>  <SCORE.INTER.CONST>
1

>  <SCORE.INTER.POLAR>
0

>  <SCORE.INTER.ROT>
0

>  <SCORE.INTER.SOLV>
10.9381

>  <SCORE.INTER.VDW>
-21.8576

>  <SCORE.INTER.norm>
-1.68595

>  <SCORE.INTRA>
0

>  <SCORE.INTRA.DIHEDRAL>
0

>  <SCORE.INTRA.DIHEDRAL.0>
0

>  <SCORE.INTRA.POLAR>
0

>  <SCORE.INTRA.POLAR.0>
0

>  <SCORE.INTRA.REPUL>
0

>  <SCORE.INTRA.REPUL.0>
0

>  <SCORE.INTRA.SOLV>
0

>  <SCORE.INTRA.SOLV.lig_0>
-33.1994

>  <SCORE.INTRA.VDW>
0

>  <SCORE.INTRA.VDW.0>
0

>  <SCORE.INTRA.norm>
0

>  <SCORE.RESTR>
0

>  <SCORE.RESTR.CAVITY>
0

>  <SCORE.RESTR.norm>
0

>  <SCORE.SYSTEM>
0

>  <SCORE.SYSTEM.CONST>
0

>  <SCORE.SYSTEM.DIHEDRAL>
0

>  <SCORE.SYSTEM.SOLV>
0

>  <SCORE.SYSTEM.norm>
0

>  <SCORE.heavy>
13

>  <SCORE.norm>
-1.68595

>  <RMSD>
4.247

$$$$
ligand
 OpenBabel11021811473D
libRbt.so/2013.1/901 2013/11/27
 13 14  0  0  0  0  0  0  0  0999 V2000
   36.6072   35.8277   24.2870 N   0  0  0  0  0  0  0  0  0  0  0  0
   37.6076   35.5171   25.4757 C   0  0  0  0  0  0  0  0  0  0  0  0
   38.6071   36.4248   25.7668 N   0  0  0  0  0  0  0  0  0  0  0  0
   37.3618   34.4022   26.0238 N   0  0  0  0  0  0  0  0  0  0  0  0
   36.4023   33.4869   25.7877 C   0  0  0  0  0  0  0  0  0  0  0  0
   35.5038   33.6762   24.8015 C   0  0  0  0  0  0  0  0  0  0  0  0
   35.6305   34.9972   23.9448 C   0  0  0  0  0  0  0  0  0  0  0  0
   34.8301   35.1538   23.0797 O   0  0  0  0  0  0  0  0  0  0  0  0
   34.5047   32.5111   24.6752 C   0  0  0  0  0  0  0  0  0  0  0  0
   34.8522   31.6475   25.6360 C   0  0  0  0  0  0  0  0  0  0  0  0
   35.9346   32.0182   26.3877 N   0  0  0  0  0  0  0  0  0  0  0  0
   33.3892   32.4136   23.7069 C   0  0  0  0  0  0  0  0  0  0  0  0
   32.5491   32.3775   22.9133 N   0  0  0  0  0  0  0  0  0  0  0  0
  1  2  1  0  0  0  0
  1  7  1  0  0  0  0
  2  3  1  0  0  0  0
  2  4  2  0  0  0  0
  4  5  1  0  0  0  0
  5  6  2  0  0  0  0
  5 11  1  0  0  0  0
  6  7  1  0  0  0  0
  6  9  1  0  0  0  0
  7  8  2  0  0  0  0
  9 10  2  0  0  0  0
  9 12  1  0  0  0  0
 10 11  1  0  0  0  0
 12 13  3  0  0  0  0
M  END
>  <CHROM.1>
35.68703550,33.93021455,24.78191091,0.32388001,-0.65720837,-0.62486224

>  <Name>
ligand

>  <RI>
0

>  <Rbt.Current_Directory>
/home/itssahil/PROJECTS/Mol_Feturizer/New_Systems/rnas/3GCA

>  <Rbt.Executable>
rbdock ($Id: //depot/dev/client3/rdock/2013.1/src/exe/rbdock.cxx#4 $)

>  <Rbt.Library>
libRbt.so (2013.1, Build901 2013/11/27)

>  <Rbt.Parameter_File>
/export/apps/rDock/src/rDock_2013.1_src/data/scripts/dock_solv.prm

>  <Rbt.Receptor>
prm/blind_docking_80.prm

>  <SCORE>
-21.9089

>  <SCORE.INTER>
-21.9089

>  <SCORE.INTER.CONST>
1

>  <SCORE.INTER.POLAR>
0

>  <SCORE.INTER.ROT>
0

>  <SCORE.INTER.SOLV>
10.8866

>  <SCORE.INTER.VDW>
-21.8348

>  <SCORE.INTER.norm>
-1.6853

>  <SCORE.INTRA>
0

>  <SCORE.INTRA.DIHEDRAL>
0

>  <SCORE.INTRA.DIHEDRAL.0>
0

>  <SCORE.INTRA.POLAR>
0

>  <SCORE.INTRA.POLAR.0>
0

>  <SCORE.INTRA.REPUL>
0

>  <SCORE.INTRA.REPUL.0>
0

>  <SCORE.INTRA.SOLV>
0

>  <SCORE.INTRA.SOLV.lig_0>
-33.1994

>  <SCORE.INTRA.VDW>
0

>  <SCORE.INTRA.VDW.0>
0

>  <SCORE.INTRA.norm>
0

>  <SCORE.RESTR>
0

>  <SCORE.RESTR.CAVITY>
0

>  <SCORE.RESTR.norm>
0

>  <SCORE.SYSTEM>
0

>  <SCORE.SYSTEM.CONST>
0

>  <SCORE.SYSTEM.DIHEDRAL>
0

>  <SCORE.SYSTEM.SOLV>
0

>  <SCORE.SYSTEM.norm>
0

>  <SCORE.heavy>
13

>  <SCORE.norm>
-1.6853

>  <RMSD>
4.247

$$$$
ligand
 OpenBabel11021811473D
libRbt.so/2013.1/901 2013/11/27
 13 14  0  0  0  0  0  0  0  0999 V2000
   36.5801   35.8350   24.3254 N   0  0  0  0  0  0  0  0  0  0  0  0
   37.6057   35.4992   25.4854 C   0  0  0  0  0  0  0  0  0  0  0  0
   38.6043   36.4060   25.7822 N   0  0  0  0  0  0  0  0  0  0  0  0
   37.3784   34.3678   26.0070 N   0  0  0  0  0  0  0  0  0  0  0  0
   36.4208   33.4522   25.7641 C   0  0  0  0  0  0  0  0  0  0  0  0
   35.5020   33.6619   24.8011 C   0  0  0  0  0  0  0  0  0  0  0  0
   35.6027   35.0070   23.9792 C   0  0  0  0  0  0  0  0  0  0  0  0
   34.7845   35.1814   23.1344 O   0  0  0  0  0  0  0  0  0  0  0  0
   34.5087   32.4932   24.6619 C   0  0  0  0  0  0  0  0  0  0  0  0
   34.8809   31.6061   25.5914 C   0  0  0  0  0  0  0  0  0  0  0  0
   35.9752   31.9640   26.3320 N   0  0  0  0  0  0  0  0  0  0  0  0
   33.3752   32.4142   23.7130 C   0  0  0  0  0  0  0  0  0  0  0  0
   32.5201   32.3938   22.9351 N   0  0  0  0  0  0  0  0  0  0  0  0
  1  2  1  0  0  0  0
  1  7  1  0  0  0  0
  2  3  1  0  0  0  0
  2  4  2  0  0  0  0
  4  5  1  0  0  0  0
  5  6  2  0  0  0  0
  5 11  1  0  0  0  0
  6  7  1  0  0  0  0
  6  9  1  0  0  0  0
  7  8  2  0  0  0  0
  9 10  2  0  0  0  0
  9 12  1  0  0  0  0
 10 11  1  0  0  0  0
 12 13  3  0  0  0  0
M  END
>  <CHROM.1>
35.68303009,33.91772221,24.78507520,0.34526827,-0.64531858,-0.58416729

>  <Name>
ligand

>  <RI>
0

>  <Rbt.Current_Directory>
/home/itssahil/PROJECTS/Mol_Feturizer/New_Systems/rnas/3GCA

>  <Rbt.Executable>
rbdock ($Id: //depot/dev/client3/rdock/2013.1/src/exe/rbdock.cxx#4 $)

>  <Rbt.Library>
libRbt.so (2013.1, Build901 2013/11/27)

>  <Rbt.Parameter_File>
/export/apps/rDock/src/rDock_2013.1_src/data/scripts/dock_solv.prm

>  <Rbt.Receptor>
prm/blind_docking_100.prm

>  <SCORE>
-21.9478

>  <SCORE.INTER>
-21.9478

>  <SCORE.INTER.CONST>
1

>  <SCORE.INTER.POLAR>
0

>  <SCORE.INTER.ROT>
0

>  <SCORE.INTER.SOLV>
10.8741

>  <SCORE.INTER.VDW>
-21.8566

>  <SCORE.INTER.norm>
-1.68829

>  <SCORE.INTRA>
0

>  <SCORE.INTRA.DIHEDRAL>
0

>  <SCORE.INTRA.DIHEDRAL.0>
0

>  <SCORE.INTRA.POLAR>
0

>  <SCORE.INTRA.POLAR.0>
0

>  <SCORE.INTRA.REPUL>
0

>  <SCORE.INTRA.REPUL.0>
0

>  <SCORE.INTRA.SOLV>
0

>  <SCORE.INTRA.SOLV.lig_0>
-33.1994

>  <SCORE.INTRA.VDW>
0

>  <SCORE.INTRA.VDW.0>
0

>  <SCORE.INTRA.norm>
0

>  <SCORE.RESTR>
0

>  <SCORE.RESTR.CAVITY>
0

>  <SCORE.RESTR.norm>
0

>  <SCORE.SYSTEM>
0

>  <SCORE.SYSTEM.CONST>
0

>  <SCORE.SYSTEM.DIHEDRAL>
0

>  <SCORE.SYSTEM.SOLV>
0

>  <SCORE.SYSTEM.norm>
0

>  <SCORE.heavy>
13

>  <SCORE.norm>
-1.68829

>  <RMSD>
4.248

$$$$
ligand
 OpenBabel11021811473D
libRbt.so/2013.1/901 2013/11/27
 13 14  0  0  0  0  0  0  0  0999 V2000
   36.5842   35.8396   24.3010 N   0  0  0  0  0  0  0  0  0  0  0  0
   37.6057   35.5119   25.4670 C   0  0  0  0  0  0  0  0  0  0  0  0
   38.6041   36.4201   25.7600 N   0  0  0  0  0  0  0  0  0  0  0  0
   37.3757   34.3848   25.9966 N   0  0  0  0  0  0  0  0  0  0  0  0
   36.4181   33.4682   25.7578 C   0  0  0  0  0  0  0  0  0  0  0  0
   35.5025   33.6712   24.7901 C   0  0  0  0  0  0  0  0  0  0  0  0
   35.6072   35.0098   23.9581 C   0  0  0  0  0  0  0  0  0  0  0  0
   34.7919   35.1783   23.1093 O   0  0  0  0  0  0  0  0  0  0  0  0
   34.5087   32.5023   24.6568 C   0  0  0  0  0  0  0  0  0  0  0  0
   34.8771   31.6221   25.5944 C   0  0  0  0  0  0  0  0  0  0  0  0
   35.9693   31.9848   26.3358 N   0  0  0  0  0  0  0  0  0  0  0  0
   33.3783   32.4169   23.7048 C   0  0  0  0  0  0  0  0  0  0  0  0
   32.5257   32.3912   22.9242 N   0  0  0  0  0  0  0  0  0  0  0  0
  1  2  1  0  0  0  0
  1  7  1  0  0  0  0
  2  3  1  0  0  0  0
  2  4  2  0  0  0  0
  4  5  1  0  0  0  0
  5  6  2  0  0  0  0
  5 11  1  0  0  0  0
  6  7  1  0  0  0  0
  6  9  1  0  0  0  0
  7  8  2  0  0  0  0
  9 10  2  0  0  0  0
  9 12  1  0  0  0  0
 10 11  1  0  0  0  0
 12 13  3  0  0  0  0
M  END
>  <CHROM.1>
35.68389618,33.92672253,24.77269142,0.34205984,-0.64756125,-0.59390059

>  <Name>
ligand

>  <RI>
0

>  <Rbt.Current_Directory>
/home/itssahil/PROJECTS/Mol_Feturizer/New_Systems/rnas/3GCA

>  <Rbt.Executable>
rbdock ($Id: //depot/dev/client3/rdock/2013.1/src/exe/rbdock.cxx#4 $)

>  <Rbt.Library>
libRbt.so (2013.1, Build901 2013/11/27)

>  <Rbt.Parameter_File>
/export/apps/rDock/src/rDock_2013.1_src/data/scripts/dock_solv.prm

>  <Rbt.Receptor>
prm/blind_docking_100.prm

>  <SCORE>
-21.9246

>  <SCORE.INTER>
-21.9246

>  <SCORE.INTER.CONST>
1

>  <SCORE.INTER.POLAR>
0

>  <SCORE.INTER.ROT>
0

>  <SCORE.INTER.SOLV>
10.9077

>  <SCORE.INTER.VDW>
-21.8523

>  <SCORE.INTER.norm>
-1.68651

>  <SCORE.INTRA>
0

>  <SCORE.INTRA.DIHEDRAL>
0

>  <SCORE.INTRA.DIHEDRAL.0>
0

>  <SCORE.INTRA.POLAR>
0

>  <SCORE.INTRA.POLAR.0>
0

>  <SCORE.INTRA.REPUL>
0

>  <SCORE.INTRA.REPUL.0>
0

>  <SCORE.INTRA.SOLV>
0

>  <SCORE.INTRA.SOLV.lig_0>
-33.1994

>  <SCORE.INTRA.VDW>
0

>  <SCORE.INTRA.VDW.0>
0

>  <SCORE.INTRA.norm>
0

>  <SCORE.RESTR>
0

>  <SCORE.RESTR.CAVITY>
0

>  <SCORE.RESTR.norm>
0

>  <SCORE.SYSTEM>
0

>  <SCORE.SYSTEM.CONST>
0

>  <SCORE.SYSTEM.DIHEDRAL>
0

>  <SCORE.SYSTEM.SOLV>
0

>  <SCORE.SYSTEM.norm>
0

>  <SCORE.heavy>
13

>  <SCORE.norm>
-1.68651

>  <RMSD>
4.248

$$$$
ligand
 OpenBabel11021811473D
libRbt.so/2013.1/901 2013/11/27
 13 14  0  0  0  0  0  0  0  0999 V2000
   36.5719   35.8436   24.3114 N   0  0  0  0  0  0  0  0  0  0  0  0
   37.6094   35.5153   25.4629 C   0  0  0  0  0  0  0  0  0  0  0  0
   38.6082   36.4261   25.7467 N   0  0  0  0  0  0  0  0  0  0  0  0
   37.3903   34.3853   25.9911 N   0  0  0  0  0  0  0  0  0  0  0  0
   36.4331   33.4660   25.7609 C   0  0  0  0  0  0  0  0  0  0  0  0
   35.5046   33.6693   24.8059 C   0  0  0  0  0  0  0  0  0  0  0  0
   35.5936   35.0115   23.9778 C   0  0  0  0  0  0  0  0  0  0  0  0
   34.7670   35.1802   23.1401 O   0  0  0  0  0  0  0  0  0  0  0  0
   34.5134   32.4973   24.6807 C   0  0  0  0  0  0  0  0  0  0  0  0
   34.8970   31.6149   25.6101 C   0  0  0  0  0  0  0  0  0  0  0  0
   35.9972   31.9788   26.3389 N   0  0  0  0  0  0  0  0  0  0  0  0
   33.3712   32.4113   23.7429 C   0  0  0  0  0  0  0  0  0  0  0  0
   32.5088   32.3854   22.9732 N   0  0  0  0  0  0  0  0  0  0  0  0
  1  2  1  0  0  0  0
  1  7  1  0  0  0  0
  2  3  1  0  0  0  0
  2  4  2  0  0  0  0
  4  5  1  0  0  0  0
  5  6  2  0  0  0  0
  5 11  1  0  0  0  0
  6  7  1  0  0  0  0
  6  9  1  0  0  0  0
  7  8  2  0  0  0  0
  9 10  2  0  0  0  0
  9 12  1  0  0  0  0
 10 11  1  0  0  0  0
 12 13  3  0  0  0  0
M  END
>  <CHROM.1>
35.68474420,33.92561153,24.78711116,0.35475561,-0.63898025,-0.58243698

>  <Name>
ligand

>  <RI>
0

>  <Rbt.Current_Directory>
/home/itssahil/PROJECTS/Mol_Feturizer/New_Systems/rnas/3GCA

>  <Rbt.Executable>
rbdock ($Id: //depot/dev/client3/rdock/2013.1/src/exe/rbdock.cxx#4 $)

>  <Rbt.Library>
libRbt.so (2013.1, Build901 2013/11/27)

>  <Rbt.Parameter_File>
/export/apps/rDock/src/rDock_2013.1_src/data/scripts/dock_solv.prm

>  <Rbt.Receptor>
prm/blind_docking_100.prm

>  <SCORE>
-21.9569

>  <SCORE.INTER>
-21.9569

>  <SCORE.INTER.CONST>
1

>  <SCORE.INTER.POLAR>
0

>  <SCORE.INTER.ROT>
0

>  <SCORE.INTER.SOLV>
10.8965

>  <SCORE.INTER.VDW>
-21.8701

>  <SCORE.INTER.norm>
-1.68899

>  <SCORE.INTRA>
0

>  <SCORE.INTRA.DIHEDRAL>
0

>  <SCORE.INTRA.DIHEDRAL.0>
0

>  <SCORE.INTRA.POLAR>
0

>  <SCORE.INTRA.POLAR.0>
0

>  <SCORE.INTRA.REPUL>
0

>  <SCORE.INTRA.REPUL.0>
0

>  <SCORE.INTRA.SOLV>
0

>  <SCORE.INTRA.SOLV.lig_0>
-33.1994

>  <SCORE.INTRA.VDW>
0

>  <SCORE.INTRA.VDW.0>
0

>  <SCORE.INTRA.norm>
0

>  <SCORE.RESTR>
7.54872e-05

>  <SCORE.RESTR.CAVITY>
7.54872e-05

>  <SCORE.RESTR.norm>
5.80671e-06

>  <SCORE.SYSTEM>
0

>  <SCORE.SYSTEM.CONST>
0

>  <SCORE.SYSTEM.DIHEDRAL>
0

>  <SCORE.SYSTEM.SOLV>
0

>  <SCORE.SYSTEM.norm>
0

>  <SCORE.heavy>
13

>  <SCORE.norm>
-1.68899

>  <RMSD>
4.248

$$$$
ligand
 OpenBabel11021811473D
libRbt.so/2013.1/901 2013/11/27
 13 14  0  0  0  0  0  0  0  0999 V2000
   36.5894   35.8424   24.2823 N   0  0  0  0  0  0  0  0  0  0  0  0
   37.6113   35.5240   25.4505 C   0  0  0  0  0  0  0  0  0  0  0  0
   38.6075   36.4363   25.7385 N   0  0  0  0  0  0  0  0  0  0  0  0
   37.3838   34.3995   25.9867 N   0  0  0  0  0  0  0  0  0  0  0  0
   36.4284   33.4792   25.7530 C   0  0  0  0  0  0  0  0  0  0  0  0
   35.5128   33.6743   24.7839 C   0  0  0  0  0  0  0  0  0  0  0  0
   35.6145   35.0082   23.9440 C   0  0  0  0  0  0  0  0  0  0  0  0
   34.7991   35.1698   23.0939 O   0  0  0  0  0  0  0  0  0  0  0  0
   34.5218   32.5023   24.6571 C   0  0  0  0  0  0  0  0  0  0  0  0
   34.8919   31.6286   25.6000 C   0  0  0  0  0  0  0  0  0  0  0  0
   35.9830   31.9983   26.3396 N   0  0  0  0  0  0  0  0  0  0  0  0
   33.3918   32.4086   23.7053 C   0  0  0  0  0  0  0  0  0  0  0  0
   32.5395   32.3762   22.9246 N   0  0  0  0  0  0  0  0  0  0  0  0
  1  2  1  0  0  0  0
  1  7  1  0  0  0  0
  2  3  1  0  0  0  0
  2  4  2  0  0  0  0
  4  5  1  0  0  0  0
  5  6  2  0  0  0  0
  5 11  1  0  0  0  0
  6  7  1  0  0  0  0
  6  9  1  0  0  0  0
  7  8  2  0  0  0  0
  9 10  2  0  0  0  0
  9 12  1  0  0  0  0
 10 11  1  0  0  0  0
 12 13  3  0  0  0  0
M  END
>  <CHROM.1>
35.69351059,33.93017843,24.76499296,0.34429570,-0.64916941,-0.59846338

>  <Name>
ligand

>  <RI>
0

>  <Rbt.Current_Directory>
/home/itssahil/PROJECTS/Mol_Feturizer/New_Systems/rnas/3GCA

>  <Rbt.Executable>
rbdock ($Id: //depot/dev/client3/rdock/2013.1/src/exe/rbdock.cxx#4 $)

>  <Rbt.Library>
libRbt.so (2013.1, Build901 2013/11/27)

>  <Rbt.Parameter_File>
/export/apps/rDock/src/rDock_2013.1_src/data/scripts/dock_solv.prm

>  <Rbt.Receptor>
prm/blind_docking_60.prm

>  <SCORE>
-21.9096

>  <SCORE.INTER>
-21.9099

>  <SCORE.INTER.CONST>
1

>  <SCORE.INTER.POLAR>
0

>  <SCORE.INTER.ROT>
0

>  <SCORE.INTER.SOLV>
10.9181

>  <SCORE.INTER.VDW>
-21.846

>  <SCORE.INTER.norm>
-1.68538

>  <SCORE.INTRA>
0

>  <SCORE.INTRA.DIHEDRAL>
0

>  <SCORE.INTRA.DIHEDRAL.0>
0

>  <SCORE.INTRA.POLAR>
0

>  <SCORE.INTRA.POLAR.0>
0

>  <SCORE.INTRA.REPUL>
0

>  <SCORE.INTRA.REPUL.0>
0

>  <SCORE.INTRA.SOLV>
0

>  <SCORE.INTRA.SOLV.lig_0>
-33.1994

>  <SCORE.INTRA.VDW>
0

>  <SCORE.INTRA.VDW.0>
0

>  <SCORE.INTRA.norm>
0

>  <SCORE.RESTR>
0.000299588

>  <SCORE.RESTR.CAVITY>
0.000299588

>  <SCORE.RESTR.norm>
2.30452e-05

>  <SCORE.SYSTEM>
0

>  <SCORE.SYSTEM.CONST>
0

>  <SCORE.SYSTEM.DIHEDRAL>
0

>  <SCORE.SYSTEM.SOLV>
0

>  <SCORE.SYSTEM.norm>
0

>  <SCORE.heavy>
13

>  <SCORE.norm>
-1.68535

>  <RMSD>
4.248

$$$$
ligand
 OpenBabel11021811473D
libRbt.so/2013.1/901 2013/11/27
 13 14  0  0  0  0  0  0  0  0999 V2000
   36.5714   35.8386   24.2763 N   0  0  0  0  0  0  0  0  0  0  0  0
   37.5953   35.4947   25.4355 C   0  0  0  0  0  0  0  0  0  0  0  0
   38.6128   36.3847   25.7186 N   0  0  0  0  0  0  0  0  0  0  0  0
   37.3480   34.3736   25.9700 N   0  0  0  0  0  0  0  0  0  0  0  0
   36.3715   33.4745   25.7408 C   0  0  0  0  0  0  0  0  0  0  0  0
   35.4528   33.6922   24.7795 C   0  0  0  0  0  0  0  0  0  0  0  0
   35.5763   35.0264   23.9430 C   0  0  0  0  0  0  0  0  0  0  0  0
   34.7580   35.2080   23.0998 O   0  0  0  0  0  0  0  0  0  0  0  0
   34.4361   32.5420   24.6568 C   0  0  0  0  0  0  0  0  0  0  0  0
   34.7948   31.6575   25.5941 C   0  0  0  0  0  0  0  0  0  0  0  0
   35.8992   32.0015   26.3263 N   0  0  0  0  0  0  0  0  0  0  0  0
   33.2971   32.4754   23.7135 C   0  0  0  0  0  0  0  0  0  0  0  0
   32.4383   32.4637   22.9394 N   0  0  0  0  0  0  0  0  0  0  0  0
  1  2  1  0  0  0  0
  1  7  1  0  0  0  0
  2  3  1  0  0  0  0
  2  4  2  0  0  0  0
  4  5  1  0  0  0  0
  5  6  2  0  0  0  0
  5 11  1  0  0  0  0
  6  7  1  0  0  0  0
  6  9  1  0  0  0  0
  7  8  2  0  0  0  0
  9 10  2  0  0  0  0
  9 12  1  0  0  0  0
 10 11  1  0  0  0  0
 12 13  3  0  0  0  0
M  END
>  <CHROM.1>
35.63876851,33.94426132,24.75998546,0.32791179,-0.63073553,-0.60505327

>  <Name>
ligand

>  <RI>
0

>  <Rbt.Current_Directory>
/home/itssahil/PROJECTS/Mol_Feturizer/New_Systems/rnas/3GCA

>  <Rbt.Executable>
rbdock ($Id: //depot/dev/client3/rdock/2013.1/src/exe/rbdock.cxx#4 $)

>  <Rbt.Library>
libRbt.so (2013.1, Build901 2013/11/27)

>  <Rbt.Parameter_File>
/export/apps/rDock/src/rDock_2013.1_src/data/scripts/dock_solv.prm

>  <Rbt.Receptor>
prm/blind_docking_60.prm

>  <SCORE>
-21.8954

>  <SCORE.INTER>
-21.8954

>  <SCORE.INTER.CONST>
1

>  <SCORE.INTER.POLAR>
0

>  <SCORE.INTER.ROT>
0

>  <SCORE.INTER.SOLV>
11.0623

>  <SCORE.INTER.VDW>
-21.8844

>  <SCORE.INTER.norm>
-1.68426

>  <SCORE.INTRA>
0

>  <SCORE.INTRA.DIHEDRAL>
0

>  <SCORE.INTRA.DIHEDRAL.0>
0

>  <SCORE.INTRA.POLAR>
0

>  <SCORE.INTRA.POLAR.0>
0

>  <SCORE.INTRA.REPUL>
0

>  <SCORE.INTRA.REPUL.0>
0

>  <SCORE.INTRA.SOLV>
0

>  <SCORE.INTRA.SOLV.lig_0>
-33.1994

>  <SCORE.INTRA.VDW>
0

>  <SCORE.INTRA.VDW.0>
0

>  <SCORE.INTRA.norm>
0

>  <SCORE.RESTR>
0

>  <SCORE.RESTR.CAVITY>
0

>  <SCORE.RESTR.norm>
0

>  <SCORE.SYSTEM>
0

>  <SCORE.SYSTEM.CONST>
0

>  <SCORE.SYSTEM.DIHEDRAL>
0

>  <SCORE.SYSTEM.SOLV>
0

>  <SCORE.SYSTEM.norm>
0

>  <SCORE.heavy>
13

>  <SCORE.norm>
-1.68426

>  <RMSD>
4.248

$$$$
ligand
 OpenBabel11021811473D
libRbt.so/2013.1/901 2013/11/27
 13 14  0  0  0  0  0  0  0  0999 V2000
   36.6172   35.8221   24.2635 N   0  0  0  0  0  0  0  0  0  0  0  0
   37.6020   35.5057   25.4636 C   0  0  0  0  0  0  0  0  0  0  0  0
   38.6081   36.4038   25.7614 N   0  0  0  0  0  0  0  0  0  0  0  0
   37.3386   34.3957   26.0136 N   0  0  0  0  0  0  0  0  0  0  0  0
   36.3718   33.4898   25.7713 C   0  0  0  0  0  0  0  0  0  0  0  0
   35.4855   33.6846   24.7752 C   0  0  0  0  0  0  0  0  0  0  0  0
   35.6351   35.0007   23.9146 C   0  0  0  0  0  0  0  0  0  0  0  0
   34.8454   35.1623   23.0407 O   0  0  0  0  0  0  0  0  0  0  0  0
   34.4753   32.5297   24.6433 C   0  0  0  0  0  0  0  0  0  0  0  0
   34.8037   31.6665   25.6110 C   0  0  0  0  0  0  0  0  0  0  0  0
   35.8823   32.0286   26.3723 N   0  0  0  0  0  0  0  0  0  0  0  0
   33.3688   32.4402   23.6640 C   0  0  0  0  0  0  0  0  0  0  0  0
   32.5365   32.4099   22.8619 N   0  0  0  0  0  0  0  0  0  0  0  0
  1  2  1  0  0  0  0
  1  7  1  0  0  0  0
  2  3  1  0  0  0  0
  2  4  2  0  0  0  0
  4  5  1  0  0  0  0
  5  6  2  0  0  0  0
  5 11  1  0  0  0  0
  6  7  1  0  0  0  0
  6  9  1  0  0  0  0
  7  8  2  0  0  0  0
  9 10  2  0  0  0  0
  9 12  1  0  0  0  0
 10 11  1  0  0  0  0
 12 13  3  0  0  0  0
M  END
>  <CHROM.1>
35.67168544,33.93658475,24.75649501,0.30529987,-0.65914192,-0.64025575

>  <Name>
ligand

>  <RI>
0

>  <Rbt.Current_Directory>
/home/itssahil/PROJECTS/Mol_Feturizer/New_Systems/rnas/3GCA

>  <Rbt.Executable>
rbdock ($Id: //depot/dev/client3/rdock/2013.1/src/exe/rbdock.cxx#4 $)

>  <Rbt.Library>
libRbt.so (2013.1, Build901 2013/11/27)

>  <Rbt.Parameter_File>
/export/apps/rDock/src/rDock_2013.1_src/data/scripts/dock_solv.prm

>  <Rbt.Receptor>
prm/blind_docking_60.prm

>  <SCORE>
-21.9261

>  <SCORE.INTER>
-21.9261

>  <SCORE.INTER.CONST>
1

>  <SCORE.INTER.POLAR>
0

>  <SCORE.INTER.ROT>
0

>  <SCORE.INTER.SOLV>
10.9594

>  <SCORE.INTER.VDW>
-21.8706

>  <SCORE.INTER.norm>
-1.68662

>  <SCORE.INTRA>
0

>  <SCORE.INTRA.DIHEDRAL>
0

>  <SCORE.INTRA.DIHEDRAL.0>
0

>  <SCORE.INTRA.POLAR>
0

>  <SCORE.INTRA.POLAR.0>
0

>  <SCORE.INTRA.REPUL>
0

>  <SCORE.INTRA.REPUL.0>
0

>  <SCORE.INTRA.SOLV>
0

>  <SCORE.INTRA.SOLV.lig_0>
-33.1994

>  <SCORE.INTRA.VDW>
0

>  <SCORE.INTRA.VDW.0>
0

>  <SCORE.INTRA.norm>
0

>  <SCORE.RESTR>
0

>  <SCORE.RESTR.CAVITY>
0

>  <SCORE.RESTR.norm>
0

>  <SCORE.SYSTEM>
0

>  <SCORE.SYSTEM.CONST>
0

>  <SCORE.SYSTEM.DIHEDRAL>
0

>  <SCORE.SYSTEM.SOLV>
0

>  <SCORE.SYSTEM.norm>
0

>  <SCORE.heavy>
13

>  <SCORE.norm>
-1.68662

>  <RMSD>
4.248

$$$$
ligand
 OpenBabel11021811473D
libRbt.so/2013.1/901 2013/11/27
 13 14  0  0  0  0  0  0  0  0999 V2000
   36.5833   35.8392   24.3054 N   0  0  0  0  0  0  0  0  0  0  0  0
   37.6041   35.5123   25.4723 C   0  0  0  0  0  0  0  0  0  0  0  0
   38.6013   36.4215   25.7665 N   0  0  0  0  0  0  0  0  0  0  0  0
   37.3748   34.3847   26.0013 N   0  0  0  0  0  0  0  0  0  0  0  0
   36.4185   33.4671   25.7612 C   0  0  0  0  0  0  0  0  0  0  0  0
   35.5036   33.6695   24.7928 C   0  0  0  0  0  0  0  0  0  0  0  0
   35.6075   35.0085   23.9613 C   0  0  0  0  0  0  0  0  0  0  0  0
   34.7929   35.1764   23.1118 O   0  0  0  0  0  0  0  0  0  0  0  0
   34.5112   32.4996   24.6581 C   0  0  0  0  0  0  0  0  0  0  0  0
   34.8796   31.6195   25.5957 C   0  0  0  0  0  0  0  0  0  0  0  0
   35.9707   31.9831   26.3383 N   0  0  0  0  0  0  0  0  0  0  0  0
   33.3817   32.4133   23.7050 C   0  0  0  0  0  0  0  0  0  0  0  0
   32.5298   32.3869   22.9237 N   0  0  0  0  0  0  0  0  0  0  0  0
  1  2  1  0  0  0  0
  1  7  1  0  0  0  0
  2  3  1  0  0  0  0
  2  4  2  0  0  0  0
  4  5  1  0  0  0  0
  5  6  2  0  0  0  0
  5 11  1  0  0  0  0
  6  7  1  0  0  0  0
  6  9  1  0  0  0  0
  7  8  2  0  0  0  0
  9 10  2  0  0  0  0
  9 12  1  0  0  0  0
 10 11  1  0  0  0  0
 12 13  3  0  0  0  0
M  END
>  <CHROM.1>
35.68470555,33.92522871,24.77562197,0.34253118,-0.64893742,-0.59326370

>  <Name>
ligand

>  <RI>
0

>  <Rbt.Current_Directory>
/home/itssahil/PROJECTS/Mol_Feturizer/New_Systems/rnas/3GCA

>  <Rbt.Executable>
rbdock ($Id: //depot/dev/client3/rdock/2013.1/src/exe/rbdock.cxx#4 $)

>  <Rbt.Library>
libRbt.so (2013.1, Build901 2013/11/27)

>  <Rbt.Parameter_File>
/export/apps/rDock/src/rDock_2013.1_src/data/scripts/dock_solv.prm

>  <Rbt.Receptor>
prm/blind_docking_80.prm

>  <SCORE>
-21.9231

>  <SCORE.INTER>
-21.9231

>  <SCORE.INTER.CONST>
1

>  <SCORE.INTER.POLAR>
0

>  <SCORE.INTER.ROT>
0

>  <SCORE.INTER.SOLV>
10.8984

>  <SCORE.INTER.VDW>
-21.8482

>  <SCORE.INTER.norm>
-1.68639

>  <SCORE.INTRA>
0

>  <SCORE.INTRA.DIHEDRAL>
0

>  <SCORE.INTRA.DIHEDRAL.0>
0

>  <SCORE.INTRA.POLAR>
0

>  <SCORE.INTRA.POLAR.0>
0

>  <SCORE.INTRA.REPUL>
0

>  <SCORE.INTRA.REPUL.0>
0

>  <SCORE.INTRA.SOLV>
0

>  <SCORE.INTRA.SOLV.lig_0>
-33.1994

>  <SCORE.INTRA.VDW>
0

>  <SCORE.INTRA.VDW.0>
0

>  <SCORE.INTRA.norm>
0

>  <SCORE.RESTR>
0

>  <SCORE.RESTR.CAVITY>
0

>  <SCORE.RESTR.norm>
0

>  <SCORE.SYSTEM>
0

>  <SCORE.SYSTEM.CONST>
0

>  <SCORE.SYSTEM.DIHEDRAL>
0

>  <SCORE.SYSTEM.SOLV>
0

>  <SCORE.SYSTEM.norm>
0

>  <SCORE.heavy>
13

>  <SCORE.norm>
-1.68639

>  <RMSD>
4.248

$$$$
ligand
 OpenBabel11021811473D
libRbt.so/2013.1/901 2013/11/27
 13 14  0  0  0  0  0  0  0  0999 V2000
   36.6063   35.8304   24.2738 N   0  0  0  0  0  0  0  0  0  0  0  0
   37.6006   35.5064   25.4642 C   0  0  0  0  0  0  0  0  0  0  0  0
   38.6094   36.4024   25.7592 N   0  0  0  0  0  0  0  0  0  0  0  0
   37.3411   34.3934   26.0097 N   0  0  0  0  0  0  0  0  0  0  0  0
   36.3720   33.4892   25.7697 C   0  0  0  0  0  0  0  0  0  0  0  0
   35.4779   33.6903   24.7818 C   0  0  0  0  0  0  0  0  0  0  0  0
   35.6212   35.0114   23.9279 C   0  0  0  0  0  0  0  0  0  0  0  0
   34.8246   35.1785   23.0613 O   0  0  0  0  0  0  0  0  0  0  0  0
   34.4662   32.5366   24.6511 C   0  0  0  0  0  0  0  0  0  0  0  0
   34.8019   31.6675   25.6110 C   0  0  0  0  0  0  0  0  0  0  0  0
   35.8867   32.0247   26.3658 N   0  0  0  0  0  0  0  0  0  0  0  0
   33.3519   32.4533   23.6801 C   0  0  0  0  0  0  0  0  0  0  0  0
   32.5133   32.4281   22.8845 N   0  0  0  0  0  0  0  0  0  0  0  0
  1  2  1  0  0  0  0
  1  7  1  0  0  0  0
  2  3  1  0  0  0  0
  2  4  2  0  0  0  0
  4  5  1  0  0  0  0
  5  6  2  0  0  0  0
  5 11  1  0  0  0  0
  6  7  1  0  0  0  0
  6  9  1  0  0  0  0
  7  8  2  0  0  0  0
  9 10  2  0  0  0  0
  9 12  1  0  0  0  0
 10 11  1  0  0  0  0
 12 13  3  0  0  0  0
M  END
>  <CHROM.1>
35.66402724,33.94232451,24.76312255,0.31085933,-0.65249650,-0.63092211

>  <Name>
ligand

>  <RI>
0

>  <Rbt.Current_Directory>
/home/itssahil/PROJECTS/Mol_Feturizer/New_Systems/rnas/3GCA

>  <Rbt.Executable>
rbdock ($Id: //depot/dev/client3/rdock/2013.1/src/exe/rbdock.cxx#4 $)

>  <Rbt.Library>
libRbt.so (2013.1, Build901 2013/11/27)

>  <Rbt.Parameter_File>
/export/apps/rDock/src/rDock_2013.1_src/data/scripts/dock_solv.prm

>  <Rbt.Receptor>
prm/blind_docking_80.prm

>  <SCORE>
-21.911

>  <SCORE.INTER>
-21.911

>  <SCORE.INTER.CONST>
1

>  <SCORE.INTER.POLAR>
0

>  <SCORE.INTER.ROT>
0

>  <SCORE.INTER.SOLV>
10.9563

>  <SCORE.INTER.VDW>
-21.8594

>  <SCORE.INTER.norm>
-1.68546

>  <SCORE.INTRA>
0

>  <SCORE.INTRA.DIHEDRAL>
0

>  <SCORE.INTRA.DIHEDRAL.0>
0

>  <SCORE.INTRA.POLAR>
0

>  <SCORE.INTRA.POLAR.0>
0

>  <SCORE.INTRA.REPUL>
0

>  <SCORE.INTRA.REPUL.0>
0

>  <SCORE.INTRA.SOLV>
0

>  <SCORE.INTRA.SOLV.lig_0>
-33.1994

>  <SCORE.INTRA.VDW>
0

>  <SCORE.INTRA.VDW.0>
0

>  <SCORE.INTRA.norm>
0

>  <SCORE.RESTR>
0

>  <SCORE.RESTR.CAVITY>
0

>  <SCORE.RESTR.norm>
0

>  <SCORE.SYSTEM>
0

>  <SCORE.SYSTEM.CONST>
0

>  <SCORE.SYSTEM.DIHEDRAL>
0

>  <SCORE.SYSTEM.SOLV>
0

>  <SCORE.SYSTEM.norm>
0

>  <SCORE.heavy>
13

>  <SCORE.norm>
-1.68546

>  <RMSD>
4.248

$$$$
ligand
 OpenBabel11021811473D
libRbt.so/2013.1/901 2013/11/27
 13 14  0  0  0  0  0  0  0  0999 V2000
   36.5980   35.8323   24.2980 N   0  0  0  0  0  0  0  0  0  0  0  0
   37.6075   35.5115   25.4762 C   0  0  0  0  0  0  0  0  0  0  0  0
   38.6073   36.4181   25.7695 N   0  0  0  0  0  0  0  0  0  0  0  0
   37.3678   34.3906   26.0146 N   0  0  0  0  0  0  0  0  0  0  0  0
   36.4083   33.4758   25.7760 C   0  0  0  0  0  0  0  0  0  0  0  0
   35.5024   33.6735   24.7982 C   0  0  0  0  0  0  0  0  0  0  0  0
   35.6204   35.0034   23.9543 C   0  0  0  0  0  0  0  0  0  0  0  0
   34.8136   35.1673   23.0966 O   0  0  0  0  0  0  0  0  0  0  0  0
   34.5046   32.5077   24.6672 C   0  0  0  0  0  0  0  0  0  0  0  0
   34.8606   31.6351   25.6165 C   0  0  0  0  0  0  0  0  0  0  0  0
   35.9477   32.0002   26.3642 N   0  0  0  0  0  0  0  0  0  0  0  0
   33.3824   32.4180   23.7059 C   0  0  0  0  0  0  0  0  0  0  0  0
   32.5367   32.3885   22.9180 N   0  0  0  0  0  0  0  0  0  0  0  0
  1  2  1  0  0  0  0
  1  7  1  0  0  0  0
  2  3  1  0  0  0  0
  2  4  2  0  0  0  0
  4  5  1  0  0  0  0
  5  6  2  0  0  0  0
  5 11  1  0  0  0  0
  6  7  1  0  0  0  0
  6  9  1  0  0  0  0
  7  8  2  0  0  0  0
  9 10  2  0  0  0  0
  9 12  1  0  0  0  0
 10 11  1  0  0  0  0
 12 13  3  0  0  0  0
M  END
>  <CHROM.1>
35.68502733,33.92803187,24.77996967,0.33109286,-0.65247557,-0.61021088

>  <Name>
ligand

>  <RI>
0

>  <Rbt.Current_Directory>
/home/itssahil/PROJECTS/Mol_Feturizer/New_Systems/rnas/3GCA

>  <Rbt.Executable>
rbdock ($Id: //depot/dev/client3/rdock/2013.1/src/exe/rbdock.cxx#4 $)

>  <Rbt.Library>
libRbt.so (2013.1, Build901 2013/11/27)

>  <Rbt.Parameter_File>
/export/apps/rDock/src/rDock_2013.1_src/data/scripts/dock_solv.prm

>  <Rbt.Receptor>
prm/blind_docking_80.prm

>  <SCORE>
-21.9076

>  <SCORE.INTER>
-21.9076

>  <SCORE.INTER.CONST>
1

>  <SCORE.INTER.POLAR>
0

>  <SCORE.INTER.ROT>
0

>  <SCORE.INTER.SOLV>
10.8839

>  <SCORE.INTER.VDW>
-21.833

>  <SCORE.INTER.norm>
-1.6852

>  <SCORE.INTRA>
0

>  <SCORE.INTRA.DIHEDRAL>
0

>  <SCORE.INTRA.DIHEDRAL.0>
0

>  <SCORE.INTRA.POLAR>
0

>  <SCORE.INTRA.POLAR.0>
0

>  <SCORE.INTRA.REPUL>
0

>  <SCORE.INTRA.REPUL.0>
0

>  <SCORE.INTRA.SOLV>
0

>  <SCORE.INTRA.SOLV.lig_0>
-33.1994

>  <SCORE.INTRA.VDW>
0

>  <SCORE.INTRA.VDW.0>
0

>  <SCORE.INTRA.norm>
0

>  <SCORE.RESTR>
0

>  <SCORE.RESTR.CAVITY>
0

>  <SCORE.RESTR.norm>
0

>  <SCORE.SYSTEM>
0

>  <SCORE.SYSTEM.CONST>
0

>  <SCORE.SYSTEM.DIHEDRAL>
0

>  <SCORE.SYSTEM.SOLV>
0

>  <SCORE.SYSTEM.norm>
0

>  <SCORE.heavy>
13

>  <SCORE.norm>
-1.6852

>  <RMSD>
4.248

$$$$
ligand
 OpenBabel11021811473D
libRbt.so/2013.1/901 2013/11/27
 13 14  0  0  0  0  0  0  0  0999 V2000
   36.5714   35.8471   24.3118 N   0  0  0  0  0  0  0  0  0  0  0  0
   37.6076   35.5209   25.4651 C   0  0  0  0  0  0  0  0  0  0  0  0
   38.6048   36.4331   25.7498 N   0  0  0  0  0  0  0  0  0  0  0  0
   37.3892   34.3910   25.9937 N   0  0  0  0  0  0  0  0  0  0  0  0
   36.4334   33.4704   25.7628 C   0  0  0  0  0  0  0  0  0  0  0  0
   35.5060   33.6719   24.8062 C   0  0  0  0  0  0  0  0  0  0  0  0
   35.5946   35.0135   23.9773 C   0  0  0  0  0  0  0  0  0  0  0  0
   34.7690   35.1807   23.1383 O   0  0  0  0  0  0  0  0  0  0  0  0
   34.5165   32.4985   24.6804 C   0  0  0  0  0  0  0  0  0  0  0  0
   34.8998   31.6172   25.6109 C   0  0  0  0  0  0  0  0  0  0  0  0
   35.9985   31.9830   26.3411 N   0  0  0  0  0  0  0  0  0  0  0  0
   33.3758   32.4105   23.7409 C   0  0  0  0  0  0  0  0  0  0  0  0
   32.5145   32.3830   22.9700 N   0  0  0  0  0  0  0  0  0  0  0  0
  1  2  1  0  0  0  0
  1  7  1  0  0  0  0
  2  3  1  0  0  0  0
  2  4  2  0  0  0  0
  4  5  1  0  0  0  0
  5  6  2  0  0  0  0
  5 11  1  0  0  0  0
  6  7  1  0  0  0  0
  6  9  1  0  0  0  0
  7  8  2  0  0  0  0
  9 10  2  0  0  0  0
  9 12  1  0  0  0  0
 10 11  1  0  0  0  0
 12 13  3  0  0  0  0
M  END
>  <CHROM.1>
35.68591365,33.92835276,24.78754781,0.35503981,-0.64088926,-0.58293906

>  <Name>
ligand

>  <RI>
0

>  <Rbt.Current_Directory>
/home/itssahil/PROJECTS/Mol_Feturizer/New_Systems/rnas/3GCA

>  <Rbt.Executable>
rbdock ($Id: //depot/dev/client3/rdock/2013.1/src/exe/rbdock.cxx#4 $)

>  <Rbt.Library>
libRbt.so (2013.1, Build901 2013/11/27)

>  <Rbt.Parameter_File>
/export/apps/rDock/src/rDock_2013.1_src/data/scripts/dock_solv.prm

>  <Rbt.Receptor>
prm/blind_docking_80.prm

>  <SCORE>
-21.9597

>  <SCORE.INTER>
-21.9597

>  <SCORE.INTER.CONST>
1

>  <SCORE.INTER.POLAR>
0

>  <SCORE.INTER.ROT>
0

>  <SCORE.INTER.SOLV>
10.8889

>  <SCORE.INTER.VDW>
-21.8695

>  <SCORE.INTER.norm>
-1.68921

>  <SCORE.INTRA>
0

>  <SCORE.INTRA.DIHEDRAL>
0

>  <SCORE.INTRA.DIHEDRAL.0>
0

>  <SCORE.INTRA.POLAR>
0

>  <SCORE.INTRA.POLAR.0>
0

>  <SCORE.INTRA.REPUL>
0

>  <SCORE.INTRA.REPUL.0>
0

>  <SCORE.INTRA.SOLV>
0

>  <SCORE.INTRA.SOLV.lig_0>
-33.1994

>  <SCORE.INTRA.VDW>
0

>  <SCORE.INTRA.VDW.0>
0

>  <SCORE.INTRA.norm>
0

>  <SCORE.RESTR>
0

>  <SCORE.RESTR.CAVITY>
0

>  <SCORE.RESTR.norm>
0

>  <SCORE.SYSTEM>
0

>  <SCORE.SYSTEM.CONST>
0

>  <SCORE.SYSTEM.DIHEDRAL>
0

>  <SCORE.SYSTEM.SOLV>
0

>  <SCORE.SYSTEM.norm>
0

>  <SCORE.heavy>
13

>  <SCORE.norm>
-1.68921

>  <RMSD>
4.248

$$$$
ligand
 OpenBabel11021811473D
libRbt.so/2013.1/901 2013/11/27
 13 14  0  0  0  0  0  0  0  0999 V2000
   36.5964   35.8378   24.2886 N   0  0  0  0  0  0  0  0  0  0  0  0
   37.6073   35.5196   25.4663 C   0  0  0  0  0  0  0  0  0  0  0  0
   38.6078   36.4268   25.7560 N   0  0  0  0  0  0  0  0  0  0  0  0
   37.3680   34.4002   26.0079 N   0  0  0  0  0  0  0  0  0  0  0  0
   36.4079   33.4851   25.7728 C   0  0  0  0  0  0  0  0  0  0  0  0
   35.5008   33.6805   24.7957 C   0  0  0  0  0  0  0  0  0  0  0  0
   35.6181   35.0083   23.9483 C   0  0  0  0  0  0  0  0  0  0  0  0
   34.8102   35.1702   23.0912 O   0  0  0  0  0  0  0  0  0  0  0  0
   34.5026   32.5147   24.6689 C   0  0  0  0  0  0  0  0  0  0  0  0
   34.8596   31.6444   25.6200 C   0  0  0  0  0  0  0  0  0  0  0  0
   35.9477   32.0110   26.3654 N   0  0  0  0  0  0  0  0  0  0  0  0
   33.3791   32.4228   23.7094 C   0  0  0  0  0  0  0  0  0  0  0  0
   32.5324   32.3915   22.9226 N   0  0  0  0  0  0  0  0  0  0  0  0
  1  2  1  0  0  0  0
  1  7  1  0  0  0  0
  2  3  1  0  0  0  0
  2  4  2  0  0  0  0
  4  5  1  0  0  0  0
  5  6  2  0  0  0  0
  5 11  1  0  0  0  0
  6  7  1  0  0  0  0
  6  9  1  0  0  0  0
  7  8  2  0  0  0  0
  9 10  2  0  0  0  0
  9 12  1  0  0  0  0
 10 11  1  0  0  0  0
 12 13  3  0  0  0  0
M  END
>  <CHROM.1>
35.68350987,33.93496329,24.77658711,0.33174804,-0.65126162,-0.61234590

>  <Name>
ligand

>  <RI>
0

>  <Rbt.Current_Directory>
/home/itssahil/PROJECTS/Mol_Feturizer/New_Systems/rnas/3GCA

>  <Rbt.Executable>
rbdock ($Id: //depot/dev/client3/rdock/2013.1/src/exe/rbdock.cxx#4 $)

>  <Rbt.Library>
libRbt.so (2013.1, Build901 2013/11/27)

>  <Rbt.Parameter_File>
/export/apps/rDock/src/rDock_2013.1_src/data/scripts/dock_solv.prm

>  <Rbt.Receptor>
prm/blind_docking_80.prm

>  <SCORE>
-21.9038

>  <SCORE.INTER>
-21.9039

>  <SCORE.INTER.CONST>
1

>  <SCORE.INTER.POLAR>
0

>  <SCORE.INTER.ROT>
0

>  <SCORE.INTER.SOLV>
10.8992

>  <SCORE.INTER.VDW>
-21.8357

>  <SCORE.INTER.norm>
-1.68491

>  <SCORE.INTRA>
0

>  <SCORE.INTRA.DIHEDRAL>
0

>  <SCORE.INTRA.DIHEDRAL.0>
0

>  <SCORE.INTRA.POLAR>
0

>  <SCORE.INTRA.POLAR.0>
0

>  <SCORE.INTRA.REPUL>
0

>  <SCORE.INTRA.REPUL.0>
0

>  <SCORE.INTRA.SOLV>
0

>  <SCORE.INTRA.SOLV.lig_0>
-33.1994

>  <SCORE.INTRA.VDW>
0

>  <SCORE.INTRA.VDW.0>
0

>  <SCORE.INTRA.norm>
0

>  <SCORE.RESTR>
6.83004e-05

>  <SCORE.RESTR.CAVITY>
6.83004e-05

>  <SCORE.RESTR.norm>
5.25388e-06

>  <SCORE.SYSTEM>
0

>  <SCORE.SYSTEM.CONST>
0

>  <SCORE.SYSTEM.DIHEDRAL>
0

>  <SCORE.SYSTEM.SOLV>
0

>  <SCORE.SYSTEM.norm>
0

>  <SCORE.heavy>
13

>  <SCORE.norm>
-1.68491

>  <RMSD>
4.248

$$$$
ligand
 OpenBabel11021811473D
libRbt.so/2013.1/901 2013/11/27
 13 14  0  0  0  0  0  0  0  0999 V2000
   36.5710   35.8531   24.3213 N   0  0  0  0  0  0  0  0  0  0  0  0
   37.6005   35.5267   25.4806 C   0  0  0  0  0  0  0  0  0  0  0  0
   38.5947   36.4399   25.7726 N   0  0  0  0  0  0  0  0  0  0  0  0
   37.3803   34.3958   26.0064 N   0  0  0  0  0  0  0  0  0  0  0  0
   36.4273   33.4742   25.7683 C   0  0  0  0  0  0  0  0  0  0  0  0
   35.5055   33.6758   24.8063 C   0  0  0  0  0  0  0  0  0  0  0  0
   35.5974   35.0187   23.9797 C   0  0  0  0  0  0  0  0  0  0  0  0
   34.7767   35.1858   23.1359 O   0  0  0  0  0  0  0  0  0  0  0  0
   34.5184   32.5013   24.6728 C   0  0  0  0  0  0  0  0  0  0  0  0
   34.8971   31.6193   25.6045 C   0  0  0  0  0  0  0  0  0  0  0  0
   35.9908   31.9855   26.3419 N   0  0  0  0  0  0  0  0  0  0  0  0
   33.3836   32.4129   23.7263 C   0  0  0  0  0  0  0  0  0  0  0  0
   32.5272   32.3853   22.9500 N   0  0  0  0  0  0  0  0  0  0  0  0
  1  2  1  0  0  0  0
  1  7  1  0  0  0  0
  2  3  1  0  0  0  0
  2  4  2  0  0  0  0
  4  5  1  0  0  0  0
  5  6  2  0  0  0  0
  5 11  1  0  0  0  0
  6  7  1  0  0  0  0
  6  9  1  0  0  0  0
  7  8  2  0  0  0  0
  9 10  2  0  0  0  0
  9 12  1  0  0  0  0
 10 11  1  0  0  0  0
 12 13  3  0  0  0  0
M  END
>  <CHROM.1>
35.68518055,33.93251537,24.78907647,0.35220737,-0.64678186,-0.58332208

>  <Name>
ligand

>  <RI>
0

>  <Rbt.Current_Directory>
/home/itssahil/PROJECTS/Mol_Feturizer/New_Systems/rnas/3GCA

>  <Rbt.Executable>
rbdock ($Id: //depot/dev/client3/rdock/2013.1/src/exe/rbdock.cxx#4 $)

>  <Rbt.Library>
libRbt.so (2013.1, Build901 2013/11/27)

>  <Rbt.Parameter_File>
/export/apps/rDock/src/rDock_2013.1_src/data/scripts/dock_solv.prm

>  <Rbt.Receptor>
prm/blind_docking_80.prm

>  <SCORE>
-21.9298

>  <SCORE.INTER>
-21.9298

>  <SCORE.INTER.CONST>
1

>  <SCORE.INTER.POLAR>
0

>  <SCORE.INTER.ROT>
0

>  <SCORE.INTER.SOLV>
10.8748

>  <SCORE.INTER.VDW>
-21.8448

>  <SCORE.INTER.norm>
-1.68691

>  <SCORE.INTRA>
0

>  <SCORE.INTRA.DIHEDRAL>
0

>  <SCORE.INTRA.DIHEDRAL.0>
0

>  <SCORE.INTRA.POLAR>
0

>  <SCORE.INTRA.POLAR.0>
0

>  <SCORE.INTRA.REPUL>
0

>  <SCORE.INTRA.REPUL.0>
0

>  <SCORE.INTRA.SOLV>
0

>  <SCORE.INTRA.SOLV.lig_0>
-33.1994

>  <SCORE.INTRA.VDW>
0

>  <SCORE.INTRA.VDW.0>
0

>  <SCORE.INTRA.norm>
0

>  <SCORE.RESTR>
0

>  <SCORE.RESTR.CAVITY>
0

>  <SCORE.RESTR.norm>
0

>  <SCORE.SYSTEM>
0

>  <SCORE.SYSTEM.CONST>
0

>  <SCORE.SYSTEM.DIHEDRAL>
0

>  <SCORE.SYSTEM.SOLV>
0

>  <SCORE.SYSTEM.norm>
0

>  <SCORE.heavy>
13

>  <SCORE.norm>
-1.68691

>  <RMSD>
4.248

$$$$
ligand
 OpenBabel11021811473D
libRbt.so/2013.1/901 2013/11/27
 13 14  0  0  0  0  0  0  0  0999 V2000
   36.5851   35.8442   24.3090 N   0  0  0  0  0  0  0  0  0  0  0  0
   37.6080   35.5137   25.4730 C   0  0  0  0  0  0  0  0  0  0  0  0
   38.6073   36.4208   25.7665 N   0  0  0  0  0  0  0  0  0  0  0  0
   37.3781   34.3857   26.0007 N   0  0  0  0  0  0  0  0  0  0  0  0
   36.4197   33.4700   25.7614 C   0  0  0  0  0  0  0  0  0  0  0  0
   35.5030   33.6754   24.7954 C   0  0  0  0  0  0  0  0  0  0  0  0
   35.6072   35.0155   23.9658 C   0  0  0  0  0  0  0  0  0  0  0  0
   34.7908   35.1861   23.1184 O   0  0  0  0  0  0  0  0  0  0  0  0
   34.5084   32.5073   24.6610 C   0  0  0  0  0  0  0  0  0  0  0  0
   34.8775   31.6251   25.5964 C   0  0  0  0  0  0  0  0  0  0  0  0
   35.9709   31.9858   26.3371 N   0  0  0  0  0  0  0  0  0  0  0  0
   33.3766   32.4243   23.7104 C   0  0  0  0  0  0  0  0  0  0  0  0
   32.5229   32.4006   22.9309 N   0  0  0  0  0  0  0  0  0  0  0  0
  1  2  1  0  0  0  0
  1  7  1  0  0  0  0
  2  3  1  0  0  0  0
  2  4  2  0  0  0  0
  4  5  1  0  0  0  0
  5  6  2  0  0  0  0
  5 11  1  0  0  0  0
  6  7  1  0  0  0  0
  6  9  1  0  0  0  0
  7  8  2  0  0  0  0
  9 10  2  0  0  0  0
  9 12  1  0  0  0  0
 10 11  1  0  0  0  0
 12 13  3  0  0  0  0
M  END
>  <CHROM.1>
35.68443629,33.93086328,24.77818367,0.34246490,-0.64615741,-0.59169483

>  <Name>
ligand

>  <RI>
0

>  <Rbt.Current_Directory>
/home/itssahil/PROJECTS/Mol_Feturizer/New_Systems/rnas/3GCA

>  <Rbt.Executable>
rbdock ($Id: //depot/dev/client3/rdock/2013.1/src/exe/rbdock.cxx#4 $)

>  <Rbt.Library>
libRbt.so (2013.1, Build901 2013/11/27)

>  <Rbt.Parameter_File>
/export/apps/rDock/src/rDock_2013.1_src/data/scripts/dock_solv.prm

>  <Rbt.Receptor>
prm/blind_docking_100.prm

>  <SCORE>
-21.9248

>  <SCORE.INTER>
-21.9248

>  <SCORE.INTER.CONST>
1

>  <SCORE.INTER.POLAR>
0

>  <SCORE.INTER.ROT>
0

>  <SCORE.INTER.SOLV>
10.8812

>  <SCORE.INTER.VDW>
-21.8436

>  <SCORE.INTER.norm>
-1.68653

>  <SCORE.INTRA>
0

>  <SCORE.INTRA.DIHEDRAL>
0

>  <SCORE.INTRA.DIHEDRAL.0>
0

>  <SCORE.INTRA.POLAR>
0

>  <SCORE.INTRA.POLAR.0>
0

>  <SCORE.INTRA.REPUL>
0

>  <SCORE.INTRA.REPUL.0>
0

>  <SCORE.INTRA.SOLV>
0

>  <SCORE.INTRA.SOLV.lig_0>
-33.1994

>  <SCORE.INTRA.VDW>
0

>  <SCORE.INTRA.VDW.0>
0

>  <SCORE.INTRA.norm>
0

>  <SCORE.RESTR>
0

>  <SCORE.RESTR.CAVITY>
0

>  <SCORE.RESTR.norm>
0

>  <SCORE.SYSTEM>
0

>  <SCORE.SYSTEM.CONST>
0

>  <SCORE.SYSTEM.DIHEDRAL>
0

>  <SCORE.SYSTEM.SOLV>
0

>  <SCORE.SYSTEM.norm>
0

>  <SCORE.heavy>
13

>  <SCORE.norm>
-1.68653

>  <RMSD>
4.249

$$$$
ligand
 OpenBabel11021811473D
libRbt.so/2013.1/901 2013/11/27
 13 14  0  0  0  0  0  0  0  0999 V2000
   36.5793   35.8431   24.3240 N   0  0  0  0  0  0  0  0  0  0  0  0
   37.6078   35.5050   25.4808 C   0  0  0  0  0  0  0  0  0  0  0  0
   38.6087   36.4101   25.7753 N   0  0  0  0  0  0  0  0  0  0  0  0
   37.3804   34.3736   26.0023 N   0  0  0  0  0  0  0  0  0  0  0  0
   36.4207   33.4596   25.7617 C   0  0  0  0  0  0  0  0  0  0  0  0
   35.4993   33.6713   24.8015 C   0  0  0  0  0  0  0  0  0  0  0  0
   35.5996   35.0168   23.9802 C   0  0  0  0  0  0  0  0  0  0  0  0
   34.7792   35.1930   23.1379 O   0  0  0  0  0  0  0  0  0  0  0  0
   34.5039   32.5043   24.6645 C   0  0  0  0  0  0  0  0  0  0  0  0
   34.8775   31.6160   25.5923 C   0  0  0  0  0  0  0  0  0  0  0  0
   35.9745   31.9717   26.3300 N   0  0  0  0  0  0  0  0  0  0  0  0
   33.3675   32.4275   23.7189 C   0  0  0  0  0  0  0  0  0  0  0  0
   32.5100   32.4090   22.9434 N   0  0  0  0  0  0  0  0  0  0  0  0
  1  2  1  0  0  0  0
  1  7  1  0  0  0  0
  2  3  1  0  0  0  0
  2  4  2  0  0  0  0
  4  5  1  0  0  0  0
  5  6  2  0  0  0  0
  5 11  1  0  0  0  0
  6  7  1  0  0  0  0
  6  9  1  0  0  0  0
  7  8  2  0  0  0  0
  9 10  2  0  0  0  0
  9 12  1  0  0  0  0
 10 11  1  0  0  0  0
 12 13  3  0  0  0  0
M  END
>  <CHROM.1>
35.68071173,33.92690852,24.78512570,0.34570853,-0.64203936,-0.58327152

>  <Name>
ligand

>  <RI>
0

>  <Rbt.Current_Directory>
/home/itssahil/PROJECTS/Mol_Feturizer/New_Systems/rnas/3GCA

>  <Rbt.Executable>
rbdock ($Id: //depot/dev/client3/rdock/2013.1/src/exe/rbdock.cxx#4 $)

>  <Rbt.Library>
libRbt.so (2013.1, Build901 2013/11/27)

>  <Rbt.Parameter_File>
/export/apps/rDock/src/rDock_2013.1_src/data/scripts/dock_solv.prm

>  <Rbt.Receptor>
prm/blind_docking_100.prm

>  <SCORE>
-21.9434

>  <SCORE.INTER>
-21.9434

>  <SCORE.INTER.CONST>
1

>  <SCORE.INTER.POLAR>
0

>  <SCORE.INTER.ROT>
0

>  <SCORE.INTER.SOLV>
10.8708

>  <SCORE.INTER.VDW>
-21.8525

>  <SCORE.INTER.norm>
-1.68795

>  <SCORE.INTRA>
0

>  <SCORE.INTRA.DIHEDRAL>
0

>  <SCORE.INTRA.DIHEDRAL.0>
0

>  <SCORE.INTRA.POLAR>
0

>  <SCORE.INTRA.POLAR.0>
0

>  <SCORE.INTRA.REPUL>
0

>  <SCORE.INTRA.REPUL.0>
0

>  <SCORE.INTRA.SOLV>
0

>  <SCORE.INTRA.SOLV.lig_0>
-33.1994

>  <SCORE.INTRA.VDW>
0

>  <SCORE.INTRA.VDW.0>
0

>  <SCORE.INTRA.norm>
0

>  <SCORE.RESTR>
0

>  <SCORE.RESTR.CAVITY>
0

>  <SCORE.RESTR.norm>
0

>  <SCORE.SYSTEM>
0

>  <SCORE.SYSTEM.CONST>
0

>  <SCORE.SYSTEM.DIHEDRAL>
0

>  <SCORE.SYSTEM.SOLV>
0

>  <SCORE.SYSTEM.norm>
0

>  <SCORE.heavy>
13

>  <SCORE.norm>
-1.68795

>  <RMSD>
4.249

$$$$
ligand
 OpenBabel11021811473D
libRbt.so/2013.1/901 2013/11/27
 13 14  0  0  0  0  0  0  0  0999 V2000
   36.5792   35.8424   24.3256 N   0  0  0  0  0  0  0  0  0  0  0  0
   37.6082   35.5036   25.4817 C   0  0  0  0  0  0  0  0  0  0  0  0
   38.6089   36.4087   25.7765 N   0  0  0  0  0  0  0  0  0  0  0  0
   37.3812   34.3717   26.0025 N   0  0  0  0  0  0  0  0  0  0  0  0
   36.4217   33.4577   25.7615 C   0  0  0  0  0  0  0  0  0  0  0  0
   35.4999   33.6699   24.8019 C   0  0  0  0  0  0  0  0  0  0  0  0
   35.5996   35.0161   23.9815 C   0  0  0  0  0  0  0  0  0  0  0  0
   34.7788   35.1927   23.1397 O   0  0  0  0  0  0  0  0  0  0  0  0
   34.5047   32.5027   24.6643 C   0  0  0  0  0  0  0  0  0  0  0  0
   34.8789   31.6138   25.5913 C   0  0  0  0  0  0  0  0  0  0  0  0
   35.9761   31.9692   26.3288 N   0  0  0  0  0  0  0  0  0  0  0  0
   33.3680   32.4264   23.7191 C   0  0  0  0  0  0  0  0  0  0  0  0
   32.5102   32.4082   22.9440 N   0  0  0  0  0  0  0  0  0  0  0  0
  1  2  1  0  0  0  0
  1  7  1  0  0  0  0
  2  3  1  0  0  0  0
  2  4  2  0  0  0  0
  4  5  1  0  0  0  0
  5  6  2  0  0  0  0
  5 11  1  0  0  0  0
  6  7  1  0  0  0  0
  6  9  1  0  0  0  0
  7  8  2  0  0  0  0
  9 10  2  0  0  0  0
  9 12  1  0  0  0  0
 10 11  1  0  0  0  0
 12 13  3  0  0  0  0
M  END
>  <CHROM.1>
35.68122505,33.92553821,24.78558901,0.34623838,-0.64185028,-0.58218738

>  <Name>
ligand

>  <RI>
0

>  <Rbt.Current_Directory>
/home/itssahil/PROJECTS/Mol_Feturizer/New_Systems/rnas/3GCA

>  <Rbt.Executable>
rbdock ($Id: //depot/dev/client3/rdock/2013.1/src/exe/rbdock.cxx#4 $)

>  <Rbt.Library>
libRbt.so (2013.1, Build901 2013/11/27)

>  <Rbt.Parameter_File>
/export/apps/rDock/src/rDock_2013.1_src/data/scripts/dock_solv.prm

>  <Rbt.Receptor>
prm/blind_docking_60.prm

>  <SCORE>
-21.9423

>  <SCORE.INTER>
-21.9424

>  <SCORE.INTER.CONST>
1

>  <SCORE.INTER.POLAR>
0

>  <SCORE.INTER.ROT>
0

>  <SCORE.INTER.SOLV>
10.8691

>  <SCORE.INTER.VDW>
-21.8513

>  <SCORE.INTER.norm>
-1.68788

>  <SCORE.INTRA>
0

>  <SCORE.INTRA.DIHEDRAL>
0

>  <SCORE.INTRA.DIHEDRAL.0>
0

>  <SCORE.INTRA.POLAR>
0

>  <SCORE.INTRA.POLAR.0>
0

>  <SCORE.INTRA.REPUL>
0

>  <SCORE.INTRA.REPUL.0>
0

>  <SCORE.INTRA.SOLV>
0

>  <SCORE.INTRA.SOLV.lig_0>
-33.1994

>  <SCORE.INTRA.VDW>
0

>  <SCORE.INTRA.VDW.0>
0

>  <SCORE.INTRA.norm>
0

>  <SCORE.RESTR>
4.86775e-05

>  <SCORE.RESTR.CAVITY>
4.86775e-05

>  <SCORE.RESTR.norm>
3.74443e-06

>  <SCORE.SYSTEM>
0

>  <SCORE.SYSTEM.CONST>
0

>  <SCORE.SYSTEM.DIHEDRAL>
0

>  <SCORE.SYSTEM.SOLV>
0

>  <SCORE.SYSTEM.norm>
0

>  <SCORE.heavy>
13

>  <SCORE.norm>
-1.68787

>  <RMSD>
4.249

$$$$
ligand
 OpenBabel11021811473D
libRbt.so/2013.1/901 2013/11/27
 13 14  0  0  0  0  0  0  0  0999 V2000
   36.5780   35.8429   24.3246 N   0  0  0  0  0  0  0  0  0  0  0  0
   37.6054   35.5097   25.4839 C   0  0  0  0  0  0  0  0  0  0  0  0
   38.6030   36.4183   25.7787 N   0  0  0  0  0  0  0  0  0  0  0  0
   37.3803   34.3785   26.0068 N   0  0  0  0  0  0  0  0  0  0  0  0
   36.4238   33.4612   25.7659 C   0  0  0  0  0  0  0  0  0  0  0  0
   35.5036   33.6687   24.8037 C   0  0  0  0  0  0  0  0  0  0  0  0
   35.6015   35.0131   23.9803 C   0  0  0  0  0  0  0  0  0  0  0  0
   34.7821   35.1855   23.1362 O   0  0  0  0  0  0  0  0  0  0  0  0
   34.5120   32.4984   24.6667 C   0  0  0  0  0  0  0  0  0  0  0  0
   34.8865   31.6127   25.5966 C   0  0  0  0  0  0  0  0  0  0  0  0
   35.9810   31.9730   26.3357 N   0  0  0  0  0  0  0  0  0  0  0  0
   33.3776   32.4167   23.7191 C   0  0  0  0  0  0  0  0  0  0  0  0
   32.5216   32.3943   22.9421 N   0  0  0  0  0  0  0  0  0  0  0  0
  1  2  1  0  0  0  0
  1  7  1  0  0  0  0
  2  3  1  0  0  0  0
  2  4  2  0  0  0  0
  4  5  1  0  0  0  0
  5  6  2  0  0  0  0
  5 11  1  0  0  0  0
  6  7  1  0  0  0  0
  6  9  1  0  0  0  0
  7  8  2  0  0  0  0
  9 10  2  0  0  0  0
  9 12  1  0  0  0  0
 10 11  1  0  0  0  0
 12 13  3  0  0  0  0
M  END
>  <CHROM.1>
35.68430784,33.92474233,24.78717672,0.34753658,-0.64523637,-0.58380080

>  <Name>
ligand

>  <RI>
0

>  <Rbt.Current_Directory>
/home/itssahil/PROJECTS/Mol_Feturizer/New_Systems/rnas/3GCA

>  <Rbt.Executable>
rbdock ($Id: //depot/dev/client3/rdock/2013.1/src/exe/rbdock.cxx#4 $)

>  <Rbt.Library>
libRbt.so (2013.1, Build901 2013/11/27)

>  <Rbt.Parameter_File>
/export/apps/rDock/src/rDock_2013.1_src/data/scripts/dock_solv.prm

>  <Rbt.Receptor>
prm/blind_docking_60.prm

>  <SCORE>
-21.9453

>  <SCORE.INTER>
-21.9453

>  <SCORE.INTER.CONST>
1

>  <SCORE.INTER.POLAR>
0

>  <SCORE.INTER.ROT>
0

>  <SCORE.INTER.SOLV>
10.8662

>  <SCORE.INTER.VDW>
-21.8523

>  <SCORE.INTER.norm>
-1.6881

>  <SCORE.INTRA>
0

>  <SCORE.INTRA.DIHEDRAL>
0

>  <SCORE.INTRA.DIHEDRAL.0>
0

>  <SCORE.INTRA.POLAR>
0

>  <SCORE.INTRA.POLAR.0>
0

>  <SCORE.INTRA.REPUL>
0

>  <SCORE.INTRA.REPUL.0>
0

>  <SCORE.INTRA.SOLV>
0

>  <SCORE.INTRA.SOLV.lig_0>
-33.1994

>  <SCORE.INTRA.VDW>
0

>  <SCORE.INTRA.VDW.0>
0

>  <SCORE.INTRA.norm>
0

>  <SCORE.RESTR>
0

>  <SCORE.RESTR.CAVITY>
0

>  <SCORE.RESTR.norm>
0

>  <SCORE.SYSTEM>
0

>  <SCORE.SYSTEM.CONST>
0

>  <SCORE.SYSTEM.DIHEDRAL>
0

>  <SCORE.SYSTEM.SOLV>
0

>  <SCORE.SYSTEM.norm>
0

>  <SCORE.heavy>
13

>  <SCORE.norm>
-1.6881

>  <RMSD>
4.249

$$$$
ligand
 OpenBabel11021811473D
libRbt.so/2013.1/901 2013/11/27
 13 14  0  0  0  0  0  0  0  0999 V2000
   36.6084   35.8340   24.2890 N   0  0  0  0  0  0  0  0  0  0  0  0
   37.5976   35.5084   25.4831 C   0  0  0  0  0  0  0  0  0  0  0  0
   38.6042   36.4047   25.7846 N   0  0  0  0  0  0  0  0  0  0  0  0
   37.3368   34.3938   26.0249 N   0  0  0  0  0  0  0  0  0  0  0  0
   36.3697   33.4893   25.7786 C   0  0  0  0  0  0  0  0  0  0  0  0
   35.4798   33.6917   24.7872 C   0  0  0  0  0  0  0  0  0  0  0  0
   35.6257   35.0148   23.9369 C   0  0  0  0  0  0  0  0  0  0  0  0
   34.8328   35.1830   23.0671 O   0  0  0  0  0  0  0  0  0  0  0  0
   34.4698   32.5373   24.6494 C   0  0  0  0  0  0  0  0  0  0  0  0
   34.8021   31.6664   25.6089 C   0  0  0  0  0  0  0  0  0  0  0  0
   35.8831   32.0230   26.3694 N   0  0  0  0  0  0  0  0  0  0  0  0
   33.3600   32.4551   23.6733 C   0  0  0  0  0  0  0  0  0  0  0  0
   32.5249   32.4308   22.8739 N   0  0  0  0  0  0  0  0  0  0  0  0
  1  2  1  0  0  0  0
  1  7  1  0  0  0  0
  2  3  1  0  0  0  0
  2  4  2  0  0  0  0
  4  5  1  0  0  0  0
  5  6  2  0  0  0  0
  5 11  1  0  0  0  0
  6  7  1  0  0  0  0
  6  9  1  0  0  0  0
  7  8  2  0  0  0  0
  9 10  2  0  0  0  0
  9 12  1  0  0  0  0
 10 11  1  0  0  0  0
 12 13  3  0  0  0  0
M  END
>  <CHROM.1>
35.66578454,33.94391573,24.76990921,0.30852778,-0.65668782,-0.63013100

>  <Name>
ligand

>  <RI>
0

>  <Rbt.Current_Directory>
/home/itssahil/PROJECTS/Mol_Feturizer/New_Systems/rnas/3GCA

>  <Rbt.Executable>
rbdock ($Id: //depot/dev/client3/rdock/2013.1/src/exe/rbdock.cxx#4 $)

>  <Rbt.Library>
libRbt.so (2013.1, Build901 2013/11/27)

>  <Rbt.Parameter_File>
/export/apps/rDock/src/rDock_2013.1_src/data/scripts/dock_solv.prm

>  <Rbt.Receptor>
prm/blind_docking_80.prm

>  <SCORE>
-21.9437

>  <SCORE.INTER>
-21.9437

>  <SCORE.INTER.CONST>
1

>  <SCORE.INTER.POLAR>
0

>  <SCORE.INTER.ROT>
0

>  <SCORE.INTER.SOLV>
10.9071

>  <SCORE.INTER.VDW>
-21.8648

>  <SCORE.INTER.norm>
-1.68797

>  <SCORE.INTRA>
0

>  <SCORE.INTRA.DIHEDRAL>
0

>  <SCORE.INTRA.DIHEDRAL.0>
0

>  <SCORE.INTRA.POLAR>
0

>  <SCORE.INTRA.POLAR.0>
0

>  <SCORE.INTRA.REPUL>
0

>  <SCORE.INTRA.REPUL.0>
0

>  <SCORE.INTRA.SOLV>
0

>  <SCORE.INTRA.SOLV.lig_0>
-33.1994

>  <SCORE.INTRA.VDW>
0

>  <SCORE.INTRA.VDW.0>
0

>  <SCORE.INTRA.norm>
0

>  <SCORE.RESTR>
0

>  <SCORE.RESTR.CAVITY>
0

>  <SCORE.RESTR.norm>
0

>  <SCORE.SYSTEM>
0

>  <SCORE.SYSTEM.CONST>
0

>  <SCORE.SYSTEM.DIHEDRAL>
0

>  <SCORE.SYSTEM.SOLV>
0

>  <SCORE.SYSTEM.norm>
0

>  <SCORE.heavy>
13

>  <SCORE.norm>
-1.68797

>  <RMSD>
4.249

$$$$
ligand
 OpenBabel11021811473D
libRbt.so/2013.1/901 2013/11/27
 13 14  0  0  0  0  0  0  0  0999 V2000
   36.5987   35.8444   24.3018 N   0  0  0  0  0  0  0  0  0  0  0  0
   37.5985   35.5087   25.4842 C   0  0  0  0  0  0  0  0  0  0  0  0
   38.6093   36.4013   25.7828 N   0  0  0  0  0  0  0  0  0  0  0  0
   37.3410   34.3907   26.0204 N   0  0  0  0  0  0  0  0  0  0  0  0
   36.3702   33.4894   25.7767 C   0  0  0  0  0  0  0  0  0  0  0  0
   35.4714   33.7003   24.7951 C   0  0  0  0  0  0  0  0  0  0  0  0
   35.6114   35.0293   23.9530 C   0  0  0  0  0  0  0  0  0  0  0  0
   34.8107   35.2050   23.0919 O   0  0  0  0  0  0  0  0  0  0  0  0
   34.4584   32.5484   24.6585 C   0  0  0  0  0  0  0  0  0  0  0  0
   34.7982   31.6701   25.6085 C   0  0  0  0  0  0  0  0  0  0  0  0
   35.8869   32.0196   26.3614 N   0  0  0  0  0  0  0  0  0  0  0  0
   33.3394   32.4749   23.6921 C   0  0  0  0  0  0  0  0  0  0  0  0
   32.4969   32.4577   22.9004 N   0  0  0  0  0  0  0  0  0  0  0  0
  1  2  1  0  0  0  0
  1  7  1  0  0  0  0
  2  3  1  0  0  0  0
  2  4  2  0  0  0  0
  4  5  1  0  0  0  0
  5  6  2  0  0  0  0
  5 11  1  0  0  0  0
  6  7  1  0  0  0  0
  6  9  1  0  0  0  0
  7  8  2  0  0  0  0
  9 10  2  0  0  0  0
  9 12  1  0  0  0  0
 10 11  1  0  0  0  0
 12 13  3  0  0  0  0
M  END
>  <CHROM.1>
35.65762869,33.95233559,24.77787697,0.31383579,-0.64821528,-0.61969710

>  <Name>
ligand

>  <RI>
0

>  <Rbt.Current_Directory>
/home/itssahil/PROJECTS/Mol_Feturizer/New_Systems/rnas/3GCA

>  <Rbt.Executable>
rbdock ($Id: //depot/dev/client3/rdock/2013.1/src/exe/rbdock.cxx#4 $)

>  <Rbt.Library>
libRbt.so (2013.1, Build901 2013/11/27)

>  <Rbt.Parameter_File>
/export/apps/rDock/src/rDock_2013.1_src/data/scripts/dock_solv.prm

>  <Rbt.Receptor>
prm/blind_docking_100.prm

>  <SCORE>
-21.9887

>  <SCORE.INTER>
-21.9887

>  <SCORE.INTER.CONST>
1

>  <SCORE.INTER.POLAR>
0

>  <SCORE.INTER.ROT>
0

>  <SCORE.INTER.SOLV>
10.8979

>  <SCORE.INTER.VDW>
-21.8917

>  <SCORE.INTER.norm>
-1.69144

>  <SCORE.INTRA>
0

>  <SCORE.INTRA.DIHEDRAL>
0

>  <SCORE.INTRA.DIHEDRAL.0>
0

>  <SCORE.INTRA.POLAR>
0

>  <SCORE.INTRA.POLAR.0>
0

>  <SCORE.INTRA.REPUL>
0

>  <SCORE.INTRA.REPUL.0>
0

>  <SCORE.INTRA.SOLV>
0

>  <SCORE.INTRA.SOLV.lig_0>
-33.1994

>  <SCORE.INTRA.VDW>
0

>  <SCORE.INTRA.VDW.0>
0

>  <SCORE.INTRA.norm>
0

>  <SCORE.RESTR>
0

>  <SCORE.RESTR.CAVITY>
0

>  <SCORE.RESTR.norm>
0

>  <SCORE.SYSTEM>
0

>  <SCORE.SYSTEM.CONST>
0

>  <SCORE.SYSTEM.DIHEDRAL>
0

>  <SCORE.SYSTEM.SOLV>
0

>  <SCORE.SYSTEM.norm>
0

>  <SCORE.heavy>
13

>  <SCORE.norm>
-1.69144

>  <RMSD>
4.250

$$$$
ligand
 OpenBabel11021811473D
libRbt.so/2013.1/901 2013/11/27
 13 14  0  0  0  0  0  0  0  0999 V2000
   36.5529   35.8482   24.2960 N   0  0  0  0  0  0  0  0  0  0  0  0
   37.6053   35.4884   25.4244 C   0  0  0  0  0  0  0  0  0  0  0  0
   38.6155   36.3855   25.7113 N   0  0  0  0  0  0  0  0  0  0  0  0
   37.3854   34.3495   25.9328 N   0  0  0  0  0  0  0  0  0  0  0  0
   36.4175   33.4425   25.6987 C   0  0  0  0  0  0  0  0  0  0  0  0
   35.4761   33.6724   24.7625 C   0  0  0  0  0  0  0  0  0  0  0  0
   35.5631   35.0306   23.9607 C   0  0  0  0  0  0  0  0  0  0  0  0
   34.7251   35.2228   23.1395 O   0  0  0  0  0  0  0  0  0  0  0  0
   34.4739   32.5108   24.6287 C   0  0  0  0  0  0  0  0  0  0  0  0
   34.8646   31.6066   25.5339 C   0  0  0  0  0  0  0  0  0  0  0  0
   35.9787   31.9471   26.2528 N   0  0  0  0  0  0  0  0  0  0  0  0
   33.3168   32.4528   23.7072 C   0  0  0  0  0  0  0  0  0  0  0  0
   32.4425   32.4493   22.9506 N   0  0  0  0  0  0  0  0  0  0  0  0
  1  2  1  0  0  0  0
  1  7  1  0  0  0  0
  2  3  1  0  0  0  0
  2  4  2  0  0  0  0
  4  5  1  0  0  0  0
  5  6  2  0  0  0  0
  5 11  1  0  0  0  0
  6  7  1  0  0  0  0
  6  9  1  0  0  0  0
  7  8  2  0  0  0  0
  9 10  2  0  0  0  0
  9 12  1  0  0  0  0
 10 11  1  0  0  0  0
 12 13  3  0  0  0  0
M  END
>  <CHROM.1>
35.65798470,33.92766008,24.74617125,0.35697260,-0.62181600,-0.56064758

>  <Name>
ligand

>  <RI>
0

>  <Rbt.Current_Directory>
/home/itssahil/PROJECTS/Mol_Feturizer/New_Systems/rnas/3GCA

>  <Rbt.Executable>
rbdock ($Id: //depot/dev/client3/rdock/2013.1/src/exe/rbdock.cxx#4 $)

>  <Rbt.Library>
libRbt.so (2013.1, Build901 2013/11/27)

>  <Rbt.Parameter_File>
/export/apps/rDock/src/rDock_2013.1_src/data/scripts/dock_solv.prm

>  <Rbt.Receptor>
prm/blind_docking_100.prm

>  <SCORE>
-21.9034

>  <SCORE.INTER>
-21.9037

>  <SCORE.INTER.CONST>
1

>  <SCORE.INTER.POLAR>
0

>  <SCORE.INTER.ROT>
0

>  <SCORE.INTER.SOLV>
11.0597

>  <SCORE.INTER.VDW>
-21.889

>  <SCORE.INTER.norm>
-1.6849

>  <SCORE.INTRA>
0

>  <SCORE.INTRA.DIHEDRAL>
0

>  <SCORE.INTRA.DIHEDRAL.0>
0

>  <SCORE.INTRA.POLAR>
0

>  <SCORE.INTRA.POLAR.0>
0

>  <SCORE.INTRA.REPUL>
0

>  <SCORE.INTRA.REPUL.0>
0

>  <SCORE.INTRA.SOLV>
0

>  <SCORE.INTRA.SOLV.lig_0>
-33.1994

>  <SCORE.INTRA.VDW>
0

>  <SCORE.INTRA.VDW.0>
0

>  <SCORE.INTRA.norm>
0

>  <SCORE.RESTR>
0.000255847

>  <SCORE.RESTR.CAVITY>
0.000255847

>  <SCORE.RESTR.norm>
1.96805e-05

>  <SCORE.SYSTEM>
0

>  <SCORE.SYSTEM.CONST>
0

>  <SCORE.SYSTEM.DIHEDRAL>
0

>  <SCORE.SYSTEM.SOLV>
0

>  <SCORE.SYSTEM.norm>
0

>  <SCORE.heavy>
13

>  <SCORE.norm>
-1.68488

>  <RMSD>
4.250

$$$$
ligand
 OpenBabel11021811473D
libRbt.so/2013.1/901 2013/11/27
 13 14  0  0  0  0  0  0  0  0999 V2000
   36.5812   35.8531   24.2962 N   0  0  0  0  0  0  0  0  0  0  0  0
   37.5951   35.5157   25.4660 C   0  0  0  0  0  0  0  0  0  0  0  0
   38.6076   36.4093   25.7558 N   0  0  0  0  0  0  0  0  0  0  0  0
   37.3459   34.3955   26.0017 N   0  0  0  0  0  0  0  0  0  0  0  0
   36.3741   33.4931   25.7662 C   0  0  0  0  0  0  0  0  0  0  0  0
   35.4637   33.7053   24.7956 C   0  0  0  0  0  0  0  0  0  0  0  0
   35.5916   35.0372   23.9561 C   0  0  0  0  0  0  0  0  0  0  0  0
   34.7807   35.2140   23.1048 O   0  0  0  0  0  0  0  0  0  0  0  0
   34.4514   32.5519   24.6670 C   0  0  0  0  0  0  0  0  0  0  0  0
   34.8037   31.6713   25.6103 C   0  0  0  0  0  0  0  0  0  0  0  0
   35.9002   32.0205   26.3518 N   0  0  0  0  0  0  0  0  0  0  0  0
   33.3215   32.4793   23.7133 C   0  0  0  0  0  0  0  0  0  0  0  0
   32.4700   32.4629   22.9312 N   0  0  0  0  0  0  0  0  0  0  0  0
  1  2  1  0  0  0  0
  1  7  1  0  0  0  0
  2  3  1  0  0  0  0
  2  4  2  0  0  0  0
  4  5  1  0  0  0  0
  5  6  2  0  0  0  0
  5 11  1  0  0  0  0
  6  7  1  0  0  0  0
  6  9  1  0  0  0  0
  7  8  2  0  0  0  0
  9 10  2  0  0  0  0
  9 12  1  0  0  0  0
 10 11  1  0  0  0  0
 12 13  3  0  0  0  0
M  END
>  <CHROM.1>
35.64923815,33.95777977,24.77705873,0.32403638,-0.63997703,-0.61045132

>  <Name>
ligand

>  <RI>
0

>  <Rbt.Current_Directory>
/home/itssahil/PROJECTS/Mol_Feturizer/New_Systems/rnas/3GCA

>  <Rbt.Executable>
rbdock ($Id: //depot/dev/client3/rdock/2013.1/src/exe/rbdock.cxx#4 $)

>  <Rbt.Library>
libRbt.so (2013.1, Build901 2013/11/27)

>  <Rbt.Parameter_File>
/export/apps/rDock/src/rDock_2013.1_src/data/scripts/dock_solv.prm

>  <Rbt.Receptor>
prm/blind_docking_60.prm

>  <SCORE>
-21.9386

>  <SCORE.INTER>
-21.9386

>  <SCORE.INTER.CONST>
1

>  <SCORE.INTER.POLAR>
0

>  <SCORE.INTER.ROT>
0

>  <SCORE.INTER.SOLV>
10.9441

>  <SCORE.INTER.VDW>
-21.8738

>  <SCORE.INTER.norm>
-1.68758

>  <SCORE.INTRA>
0

>  <SCORE.INTRA.DIHEDRAL>
0

>  <SCORE.INTRA.DIHEDRAL.0>
0

>  <SCORE.INTRA.POLAR>
0

>  <SCORE.INTRA.POLAR.0>
0

>  <SCORE.INTRA.REPUL>
0

>  <SCORE.INTRA.REPUL.0>
0

>  <SCORE.INTRA.SOLV>
0

>  <SCORE.INTRA.SOLV.lig_0>
-33.1994

>  <SCORE.INTRA.VDW>
0

>  <SCORE.INTRA.VDW.0>
0

>  <SCORE.INTRA.norm>
0

>  <SCORE.RESTR>
0

>  <SCORE.RESTR.CAVITY>
0

>  <SCORE.RESTR.norm>
0

>  <SCORE.SYSTEM>
0

>  <SCORE.SYSTEM.CONST>
0

>  <SCORE.SYSTEM.DIHEDRAL>
0

>  <SCORE.SYSTEM.SOLV>
0

>  <SCORE.SYSTEM.norm>
0

>  <SCORE.heavy>
13

>  <SCORE.norm>
-1.68758

>  <RMSD>
4.250

$$$$
ligand
 OpenBabel11021811473D
libRbt.so/2013.1/901 2013/11/27
 13 14  0  0  0  0  0  0  0  0999 V2000
   36.5897   35.8503   24.2863 N   0  0  0  0  0  0  0  0  0  0  0  0
   37.5986   35.5149   25.4611 C   0  0  0  0  0  0  0  0  0  0  0  0
   38.6096   36.4092   25.7538 N   0  0  0  0  0  0  0  0  0  0  0  0
   37.3472   34.3956   25.9974 N   0  0  0  0  0  0  0  0  0  0  0  0
   36.3765   33.4927   25.7592 C   0  0  0  0  0  0  0  0  0  0  0  0
   35.4704   33.7032   24.7844 C   0  0  0  0  0  0  0  0  0  0  0  0
   35.6017   35.0338   23.9433 C   0  0  0  0  0  0  0  0  0  0  0  0
   34.7945   35.2091   23.0881 O   0  0  0  0  0  0  0  0  0  0  0  0
   34.4588   32.5495   24.6532 C   0  0  0  0  0  0  0  0  0  0  0  0
   34.8071   31.6704   25.5995 C   0  0  0  0  0  0  0  0  0  0  0  0
   35.9003   32.0210   26.3451 N   0  0  0  0  0  0  0  0  0  0  0  0
   33.3330   32.4751   23.6947 C   0  0  0  0  0  0  0  0  0  0  0  0
   32.4850   32.4573   22.9090 N   0  0  0  0  0  0  0  0  0  0  0  0
  1  2  1  0  0  0  0
  1  7  1  0  0  0  0
  2  3  1  0  0  0  0
  2  4  2  0  0  0  0
  4  5  1  0  0  0  0
  5  6  2  0  0  0  0
  5 11  1  0  0  0  0
  6  7  1  0  0  0  0
  6  9  1  0  0  0  0
  7  8  2  0  0  0  0
  9 10  2  0  0  0  0
  9 12  1  0  0  0  0
 10 11  1  0  0  0  0
 12 13  3  0  0  0  0
M  END
>  <CHROM.1>
35.65592200,33.95565984,24.76619344,0.32106510,-0.64361127,-0.61385116

>  <Name>
ligand

>  <RI>
0

>  <Rbt.Current_Directory>
/home/itssahil/PROJECTS/Mol_Feturizer/New_Systems/rnas/3GCA

>  <Rbt.Executable>
rbdock ($Id: //depot/dev/client3/rdock/2013.1/src/exe/rbdock.cxx#4 $)

>  <Rbt.Library>
libRbt.so (2013.1, Build901 2013/11/27)

>  <Rbt.Parameter_File>
/export/apps/rDock/src/rDock_2013.1_src/data/scripts/dock_solv.prm

>  <Rbt.Receptor>
prm/blind_docking_60.prm

>  <SCORE>
-21.9753

>  <SCORE.INTER>
-21.9753

>  <SCORE.INTER.CONST>
1

>  <SCORE.INTER.POLAR>
0

>  <SCORE.INTER.ROT>
0

>  <SCORE.INTER.SOLV>
10.9499

>  <SCORE.INTER.VDW>
-21.9001

>  <SCORE.INTER.norm>
-1.6904

>  <SCORE.INTRA>
0

>  <SCORE.INTRA.DIHEDRAL>
0

>  <SCORE.INTRA.DIHEDRAL.0>
0

>  <SCORE.INTRA.POLAR>
0

>  <SCORE.INTRA.POLAR.0>
0

>  <SCORE.INTRA.REPUL>
0

>  <SCORE.INTRA.REPUL.0>
0

>  <SCORE.INTRA.SOLV>
0

>  <SCORE.INTRA.SOLV.lig_0>
-33.1994

>  <SCORE.INTRA.VDW>
0

>  <SCORE.INTRA.VDW.0>
0

>  <SCORE.INTRA.norm>
0

>  <SCORE.RESTR>
0

>  <SCORE.RESTR.CAVITY>
0

>  <SCORE.RESTR.norm>
0

>  <SCORE.SYSTEM>
0

>  <SCORE.SYSTEM.CONST>
0

>  <SCORE.SYSTEM.DIHEDRAL>
0

>  <SCORE.SYSTEM.SOLV>
0

>  <SCORE.SYSTEM.norm>
0

>  <SCORE.heavy>
13

>  <SCORE.norm>
-1.6904

>  <RMSD>
4.250

$$$$
ligand
 OpenBabel11021811473D
libRbt.so/2013.1/901 2013/11/27
 13 14  0  0  0  0  0  0  0  0999 V2000
   36.5949   35.8482   24.2969 N   0  0  0  0  0  0  0  0  0  0  0  0
   37.5986   35.5118   25.4758 C   0  0  0  0  0  0  0  0  0  0  0  0
   38.6095   36.4050   25.7725 N   0  0  0  0  0  0  0  0  0  0  0  0
   37.3438   34.3928   26.0112 N   0  0  0  0  0  0  0  0  0  0  0  0
   36.3730   33.4910   25.7691 C   0  0  0  0  0  0  0  0  0  0  0  0
   35.4711   33.7024   24.7906 C   0  0  0  0  0  0  0  0  0  0  0  0
   35.6073   35.0327   23.9499 C   0  0  0  0  0  0  0  0  0  0  0  0
   34.8038   35.2088   23.0915 O   0  0  0  0  0  0  0  0  0  0  0  0
   34.4588   32.5498   24.6555 C   0  0  0  0  0  0  0  0  0  0  0  0
   34.8023   31.6705   25.6033 C   0  0  0  0  0  0  0  0  0  0  0  0
   35.8929   32.0199   26.3533 N   0  0  0  0  0  0  0  0  0  0  0  0
   33.3368   32.4766   23.6924 C   0  0  0  0  0  0  0  0  0  0  0  0
   32.4920   32.4596   22.9033 N   0  0  0  0  0  0  0  0  0  0  0  0
  1  2  1  0  0  0  0
  1  7  1  0  0  0  0
  2  3  1  0  0  0  0
  2  4  2  0  0  0  0
  4  5  1  0  0  0  0
  5  6  2  0  0  0  0
  5 11  1  0  0  0  0
  6  7  1  0  0  0  0
  6  9  1  0  0  0  0
  7  8  2  0  0  0  0
  9 10  2  0  0  0  0
  9 12  1  0  0  0  0
 10 11  1  0  0  0  0
 12 13  3  0  0  0  0
M  END
>  <CHROM.1>
35.65702732,33.95463776,24.77316451,0.31698707,-0.64628086,-0.61642242

>  <Name>
ligand

>  <RI>
0

>  <Rbt.Current_Directory>
/home/itssahil/PROJECTS/Mol_Feturizer/New_Systems/rnas/3GCA

>  <Rbt.Executable>
rbdock ($Id: //depot/dev/client3/rdock/2013.1/src/exe/rbdock.cxx#4 $)

>  <Rbt.Library>
libRbt.so (2013.1, Build901 2013/11/27)

>  <Rbt.Parameter_File>
/export/apps/rDock/src/rDock_2013.1_src/data/scripts/dock_solv.prm

>  <Rbt.Receptor>
prm/blind_docking_80.prm

>  <SCORE>
-21.9827

>  <SCORE.INTER>
-21.9827

>  <SCORE.INTER.CONST>
1

>  <SCORE.INTER.POLAR>
0

>  <SCORE.INTER.ROT>
0

>  <SCORE.INTER.SOLV>
10.9147

>  <SCORE.INTER.VDW>
-21.8934

>  <SCORE.INTER.norm>
-1.69098

>  <SCORE.INTRA>
0

>  <SCORE.INTRA.DIHEDRAL>
0

>  <SCORE.INTRA.DIHEDRAL.0>
0

>  <SCORE.INTRA.POLAR>
0

>  <SCORE.INTRA.POLAR.0>
0

>  <SCORE.INTRA.REPUL>
0

>  <SCORE.INTRA.REPUL.0>
0

>  <SCORE.INTRA.SOLV>
0

>  <SCORE.INTRA.SOLV.lig_0>
-33.1994

>  <SCORE.INTRA.VDW>
0

>  <SCORE.INTRA.VDW.0>
0

>  <SCORE.INTRA.norm>
0

>  <SCORE.RESTR>
0

>  <SCORE.RESTR.CAVITY>
0

>  <SCORE.RESTR.norm>
0

>  <SCORE.SYSTEM>
0

>  <SCORE.SYSTEM.CONST>
0

>  <SCORE.SYSTEM.DIHEDRAL>
0

>  <SCORE.SYSTEM.SOLV>
0

>  <SCORE.SYSTEM.norm>
0

>  <SCORE.heavy>
13

>  <SCORE.norm>
-1.69098

>  <RMSD>
4.250

$$$$
ligand
 OpenBabel11021811473D
libRbt.so/2013.1/901 2013/11/27
 13 14  0  0  0  0  0  0  0  0999 V2000
   36.6009   35.8542   24.3048 N   0  0  0  0  0  0  0  0  0  0  0  0
   37.6028   35.5176   25.4852 C   0  0  0  0  0  0  0  0  0  0  0  0
   38.6110   36.4125   25.7860 N   0  0  0  0  0  0  0  0  0  0  0  0
   37.3495   34.3968   26.0177 N   0  0  0  0  0  0  0  0  0  0  0  0
   36.3814   33.4932   25.7715 C   0  0  0  0  0  0  0  0  0  0  0  0
   35.4811   33.7046   24.7915 C   0  0  0  0  0  0  0  0  0  0  0  0
   35.6160   35.0371   23.9540 C   0  0  0  0  0  0  0  0  0  0  0  0
   34.8140   35.2131   23.0942 O   0  0  0  0  0  0  0  0  0  0  0  0
   34.4718   32.5500   24.6517 C   0  0  0  0  0  0  0  0  0  0  0  0
   34.8153   31.6694   25.5983 C   0  0  0  0  0  0  0  0  0  0  0  0
   35.9034   32.0198   26.3515 N   0  0  0  0  0  0  0  0  0  0  0  0
   33.3521   32.4762   23.6861 C   0  0  0  0  0  0  0  0  0  0  0  0
   32.5090   32.4590   22.8950 N   0  0  0  0  0  0  0  0  0  0  0  0
  1  2  1  0  0  0  0
  1  7  1  0  0  0  0
  2  3  1  0  0  0  0
  2  4  2  0  0  0  0
  4  5  1  0  0  0  0
  5  6  2  0  0  0  0
  5 11  1  0  0  0  0
  6  7  1  0  0  0  0
  6  9  1  0  0  0  0
  7  8  2  0  0  0  0
  9 10  2  0  0  0  0
  9 12  1  0  0  0  0
 10 11  1  0  0  0  0
 12 13  3  0  0  0  0
M  END
>  <CHROM.1>
35.66648075,33.95736764,24.77500884,0.31782298,-0.64941174,-0.61376383

>  <Name>
ligand

>  <RI>
0

>  <Rbt.Current_Directory>
/home/itssahil/PROJECTS/Mol_Feturizer/New_Systems/rnas/3GCA

>  <Rbt.Executable>
rbdock ($Id: //depot/dev/client3/rdock/2013.1/src/exe/rbdock.cxx#4 $)

>  <Rbt.Library>
libRbt.so (2013.1, Build901 2013/11/27)

>  <Rbt.Parameter_File>
/export/apps/rDock/src/rDock_2013.1_src/data/scripts/dock_solv.prm

>  <Rbt.Receptor>
prm/blind_docking_100.prm

>  <SCORE>
-21.9636

>  <SCORE.INTER>
-21.9662

>  <SCORE.INTER.CONST>
1

>  <SCORE.INTER.POLAR>
0

>  <SCORE.INTER.ROT>
0

>  <SCORE.INTER.SOLV>
10.8688

>  <SCORE.INTER.VDW>
-21.8671

>  <SCORE.INTER.norm>
-1.68971

>  <SCORE.INTRA>
0

>  <SCORE.INTRA.DIHEDRAL>
0

>  <SCORE.INTRA.DIHEDRAL.0>
0

>  <SCORE.INTRA.POLAR>
0

>  <SCORE.INTRA.POLAR.0>
0

>  <SCORE.INTRA.REPUL>
0

>  <SCORE.INTRA.REPUL.0>
0

>  <SCORE.INTRA.SOLV>
0

>  <SCORE.INTRA.SOLV.lig_0>
-33.1994

>  <SCORE.INTRA.VDW>
0

>  <SCORE.INTRA.VDW.0>
0

>  <SCORE.INTRA.norm>
0

>  <SCORE.RESTR>
0.0026433

>  <SCORE.RESTR.CAVITY>
0.0026433

>  <SCORE.RESTR.norm>
0.000203331

>  <SCORE.SYSTEM>
0

>  <SCORE.SYSTEM.CONST>
0

>  <SCORE.SYSTEM.DIHEDRAL>
0

>  <SCORE.SYSTEM.SOLV>
0

>  <SCORE.SYSTEM.norm>
0

>  <SCORE.heavy>
13

>  <SCORE.norm>
-1.6895

>  <RMSD>
4.251

$$$$
ligand
 OpenBabel11021811473D
libRbt.so/2013.1/901 2013/11/27
 13 14  0  0  0  0  0  0  0  0999 V2000
   36.5735   35.8587   24.3292 N   0  0  0  0  0  0  0  0  0  0  0  0
   37.6052   35.5120   25.4806 C   0  0  0  0  0  0  0  0  0  0  0  0
   38.6086   36.4136   25.7771 N   0  0  0  0  0  0  0  0  0  0  0  0
   37.3774   34.3780   25.9964 N   0  0  0  0  0  0  0  0  0  0  0  0
   36.4153   33.4671   25.7536 C   0  0  0  0  0  0  0  0  0  0  0  0
   35.4911   33.6861   24.7977 C   0  0  0  0  0  0  0  0  0  0  0  0
   35.5912   35.0361   23.9839 C   0  0  0  0  0  0  0  0  0  0  0  0
   34.7683   35.2187   23.1454 O   0  0  0  0  0  0  0  0  0  0  0  0
   34.4932   32.5216   24.6572 C   0  0  0  0  0  0  0  0  0  0  0  0
   34.8682   31.6273   25.5786 C   0  0  0  0  0  0  0  0  0  0  0  0
   35.9683   31.9767   26.3147 N   0  0  0  0  0  0  0  0  0  0  0  0
   33.3535   32.4524   23.7149 C   0  0  0  0  0  0  0  0  0  0  0  0
   32.4935   32.4399   22.9422 N   0  0  0  0  0  0  0  0  0  0  0  0
  1  2  1  0  0  0  0
  1  7  1  0  0  0  0
  2  3  1  0  0  0  0
  2  4  2  0  0  0  0
  4  5  1  0  0  0  0
  5  6  2  0  0  0  0
  5 11  1  0  0  0  0
  6  7  1  0  0  0  0
  6  9  1  0  0  0  0
  7  8  2  0  0  0  0
  9 10  2  0  0  0  0
  9 12  1  0  0  0  0
 10 11  1  0  0  0  0
 12 13  3  0  0  0  0
M  END
>  <CHROM.1>
35.67293869,33.94140662,24.78220075,0.34608866,-0.63828791,-0.57723119

>  <Name>
ligand

>  <RI>
0

>  <Rbt.Current_Directory>
/home/itssahil/PROJECTS/Mol_Feturizer/New_Systems/rnas/3GCA

>  <Rbt.Executable>
rbdock ($Id: //depot/dev/client3/rdock/2013.1/src/exe/rbdock.cxx#4 $)

>  <Rbt.Library>
libRbt.so (2013.1, Build901 2013/11/27)

>  <Rbt.Parameter_File>
/export/apps/rDock/src/rDock_2013.1_src/data/scripts/dock_solv.prm

>  <Rbt.Receptor>
prm/blind_docking_100.prm

>  <SCORE>
-21.9472

>  <SCORE.INTER>
-21.9474

>  <SCORE.INTER.CONST>
1

>  <SCORE.INTER.POLAR>
0

>  <SCORE.INTER.ROT>
0

>  <SCORE.INTER.SOLV>
10.8652

>  <SCORE.INTER.VDW>
-21.8534

>  <SCORE.INTER.norm>
-1.68827

>  <SCORE.INTRA>
0

>  <SCORE.INTRA.DIHEDRAL>
0

>  <SCORE.INTRA.DIHEDRAL.0>
0

>  <SCORE.INTRA.POLAR>
0

>  <SCORE.INTRA.POLAR.0>
0

>  <SCORE.INTRA.REPUL>
0

>  <SCORE.INTRA.REPUL.0>
0

>  <SCORE.INTRA.SOLV>
0

>  <SCORE.INTRA.SOLV.lig_0>
-33.1994

>  <SCORE.INTRA.VDW>
0

>  <SCORE.INTRA.VDW.0>
0

>  <SCORE.INTRA.norm>
0

>  <SCORE.RESTR>
0.000256906

>  <SCORE.RESTR.CAVITY>
0.000256906

>  <SCORE.RESTR.norm>
1.9762e-05

>  <SCORE.SYSTEM>
0

>  <SCORE.SYSTEM.CONST>
0

>  <SCORE.SYSTEM.DIHEDRAL>
0

>  <SCORE.SYSTEM.SOLV>
0

>  <SCORE.SYSTEM.norm>
0

>  <SCORE.heavy>
13

>  <SCORE.norm>
-1.68825

>  <RMSD>
4.251

$$$$
ligand
 OpenBabel11021811473D
libRbt.so/2013.1/901 2013/11/27
 13 14  0  0  0  0  0  0  0  0999 V2000
   36.5791   35.8618   24.3380 N   0  0  0  0  0  0  0  0  0  0  0  0
   37.5957   35.5101   25.5012 C   0  0  0  0  0  0  0  0  0  0  0  0
   38.5984   36.4080   25.8110 N   0  0  0  0  0  0  0  0  0  0  0  0
   37.3581   34.3761   26.0124 N   0  0  0  0  0  0  0  0  0  0  0  0
   36.3960   33.4687   25.7568 C   0  0  0  0  0  0  0  0  0  0  0  0
   35.4841   33.6920   24.7901 C   0  0  0  0  0  0  0  0  0  0  0  0
   35.5984   35.0430   23.9796 C   0  0  0  0  0  0  0  0  0  0  0  0
   34.7863   35.2294   23.1315 O   0  0  0  0  0  0  0  0  0  0  0  0
   34.4842   32.5310   24.6359 C   0  0  0  0  0  0  0  0  0  0  0  0
   34.8452   31.6341   25.5604 C   0  0  0  0  0  0  0  0  0  0  0  0
   35.9375   31.9790   26.3102 N   0  0  0  0  0  0  0  0  0  0  0  0
   33.3558   32.4669   23.6798 C   0  0  0  0  0  0  0  0  0  0  0  0
   32.5051   32.4583   22.8968 N   0  0  0  0  0  0  0  0  0  0  0  0
  1  2  1  0  0  0  0
  1  7  1  0  0  0  0
  2  3  1  0  0  0  0
  2  4  2  0  0  0  0
  4  5  1  0  0  0  0
  5  6  2  0  0  0  0
  5 11  1  0  0  0  0
  6  7  1  0  0  0  0
  6  9  1  0  0  0  0
  7  8  2  0  0  0  0
  9 10  2  0  0  0  0
  9 12  1  0  0  0  0
 10 11  1  0  0  0  0
 12 13  3  0  0  0  0
M  END
>  <CHROM.1>
35.66696369,33.94681615,24.77718458,0.33446342,-0.64659978,-0.58272191

>  <Name>
ligand

>  <RI>
0

>  <Rbt.Current_Directory>
/home/itssahil/PROJECTS/Mol_Feturizer/New_Systems/rnas/3GCA

>  <Rbt.Executable>
rbdock ($Id: //depot/dev/client3/rdock/2013.1/src/exe/rbdock.cxx#4 $)

>  <Rbt.Library>
libRbt.so (2013.1, Build901 2013/11/27)

>  <Rbt.Parameter_File>
/export/apps/rDock/src/rDock_2013.1_src/data/scripts/dock_solv.prm

>  <Rbt.Receptor>
prm/blind_docking_80.prm

>  <SCORE>
-21.8827

>  <SCORE.INTER>
-21.8827

>  <SCORE.INTER.CONST>
1

>  <SCORE.INTER.POLAR>
0

>  <SCORE.INTER.ROT>
0

>  <SCORE.INTER.SOLV>
10.8533

>  <SCORE.INTER.VDW>
-21.8062

>  <SCORE.INTER.norm>
-1.68328

>  <SCORE.INTRA>
0

>  <SCORE.INTRA.DIHEDRAL>
0

>  <SCORE.INTRA.DIHEDRAL.0>
0

>  <SCORE.INTRA.POLAR>
0

>  <SCORE.INTRA.POLAR.0>
0

>  <SCORE.INTRA.REPUL>
0

>  <SCORE.INTRA.REPUL.0>
0

>  <SCORE.INTRA.SOLV>
0

>  <SCORE.INTRA.SOLV.lig_0>
-33.1994

>  <SCORE.INTRA.VDW>
0

>  <SCORE.INTRA.VDW.0>
0

>  <SCORE.INTRA.norm>
0

>  <SCORE.RESTR>
0

>  <SCORE.RESTR.CAVITY>
0

>  <SCORE.RESTR.norm>
0

>  <SCORE.SYSTEM>
0

>  <SCORE.SYSTEM.CONST>
0

>  <SCORE.SYSTEM.DIHEDRAL>
0

>  <SCORE.SYSTEM.SOLV>
0

>  <SCORE.SYSTEM.norm>
0

>  <SCORE.heavy>
13

>  <SCORE.norm>
-1.68328

>  <RMSD>
4.252

$$$$
ligand
 OpenBabel11021811473D
libRbt.so/2013.1/901 2013/11/27
 13 14  0  0  0  0  0  0  0  0999 V2000
   36.5778   35.8625   24.3174 N   0  0  0  0  0  0  0  0  0  0  0  0
   37.6045   35.5141   25.4728 C   0  0  0  0  0  0  0  0  0  0  0  0
   38.6086   36.4138   25.7728 N   0  0  0  0  0  0  0  0  0  0  0  0
   37.3725   34.3807   25.9880 N   0  0  0  0  0  0  0  0  0  0  0  0
   36.4095   33.4717   25.7418 C   0  0  0  0  0  0  0  0  0  0  0  0
   35.4894   33.6922   24.7824 C   0  0  0  0  0  0  0  0  0  0  0  0
   35.5952   35.0418   23.9686 C   0  0  0  0  0  0  0  0  0  0  0  0
   34.7759   35.2258   23.1269 O   0  0  0  0  0  0  0  0  0  0  0  0
   34.4897   32.5297   24.6384 C   0  0  0  0  0  0  0  0  0  0  0  0
   34.8594   31.6348   25.5614 C   0  0  0  0  0  0  0  0  0  0  0  0
   35.9574   31.9823   26.3015 N   0  0  0  0  0  0  0  0  0  0  0  0
   33.3535   32.4625   23.6918 C   0  0  0  0  0  0  0  0  0  0  0  0
   32.4963   32.4514   22.9158 N   0  0  0  0  0  0  0  0  0  0  0  0
  1  2  1  0  0  0  0
  1  7  1  0  0  0  0
  2  3  1  0  0  0  0
  2  4  2  0  0  0  0
  4  5  1  0  0  0  0
  5  6  2  0  0  0  0
  5 11  1  0  0  0  0
  6  7  1  0  0  0  0
  6  9  1  0  0  0  0
  7  8  2  0  0  0  0
  9 10  2  0  0  0  0
  9 12  1  0  0  0  0
 10 11  1  0  0  0  0
 12 13  3  0  0  0  0
M  END
>  <CHROM.1>
35.67176984,33.94715935,24.76746968,0.34144489,-0.64037705,-0.58026382

>  <Name>
ligand

>  <RI>
0

>  <Rbt.Current_Directory>
/home/itssahil/PROJECTS/Mol_Feturizer/New_Systems/rnas/3GCA

>  <Rbt.Executable>
rbdock ($Id: //depot/dev/client3/rdock/2013.1/src/exe/rbdock.cxx#4 $)

>  <Rbt.Library>
libRbt.so (2013.1, Build901 2013/11/27)

>  <Rbt.Parameter_File>
/export/apps/rDock/src/rDock_2013.1_src/data/scripts/dock_solv.prm

>  <Rbt.Receptor>
prm/blind_docking_80.prm

>  <SCORE>
-21.9428

>  <SCORE.INTER>
-21.9429

>  <SCORE.INTER.CONST>
1

>  <SCORE.INTER.POLAR>
0

>  <SCORE.INTER.ROT>
0

>  <SCORE.INTER.SOLV>
10.8868

>  <SCORE.INTER.VDW>
-21.8575

>  <SCORE.INTER.norm>
-1.68791

>  <SCORE.INTRA>
0

>  <SCORE.INTRA.DIHEDRAL>
0

>  <SCORE.INTRA.DIHEDRAL.0>
0

>  <SCORE.INTRA.POLAR>
0

>  <SCORE.INTRA.POLAR.0>
0

>  <SCORE.INTRA.REPUL>
0

>  <SCORE.INTRA.REPUL.0>
0

>  <SCORE.INTRA.SOLV>
0

>  <SCORE.INTRA.SOLV.lig_0>
-33.1994

>  <SCORE.INTRA.VDW>
0

>  <SCORE.INTRA.VDW.0>
0

>  <SCORE.INTRA.norm>
0

>  <SCORE.RESTR>
4.902e-05

>  <SCORE.RESTR.CAVITY>
4.902e-05

>  <SCORE.RESTR.norm>
3.77077e-06

>  <SCORE.SYSTEM>
0

>  <SCORE.SYSTEM.CONST>
0

>  <SCORE.SYSTEM.DIHEDRAL>
0

>  <SCORE.SYSTEM.SOLV>
0

>  <SCORE.SYSTEM.norm>
0

>  <SCORE.heavy>
13

>  <SCORE.norm>
-1.68791

>  <RMSD>
4.252

$$$$
ligand
 OpenBabel11021811473D
libRbt.so/2013.1/901 2013/11/27
 13 14  0  0  0  0  0  0  0  0999 V2000
   36.5584   35.8721   24.3399 N   0  0  0  0  0  0  0  0  0  0  0  0
   37.6034   35.5089   25.4741 C   0  0  0  0  0  0  0  0  0  0  0  0
   38.6080   36.4078   25.7746 N   0  0  0  0  0  0  0  0  0  0  0  0
   37.3838   34.3659   25.9734 N   0  0  0  0  0  0  0  0  0  0  0  0
   36.4212   33.4568   25.7260 C   0  0  0  0  0  0  0  0  0  0  0  0
   35.4862   33.6894   24.7840 C   0  0  0  0  0  0  0  0  0  0  0  0
   35.5743   35.0530   23.9916 C   0  0  0  0  0  0  0  0  0  0  0  0
   34.7419   35.2474   23.1653 O   0  0  0  0  0  0  0  0  0  0  0  0
   34.4894   32.5250   24.6350 C   0  0  0  0  0  0  0  0  0  0  0  0
   34.8764   31.6164   25.5374 C   0  0  0  0  0  0  0  0  0  0  0  0
   35.9837   31.9563   26.2671 N   0  0  0  0  0  0  0  0  0  0  0  0
   33.3397   32.4686   23.7042 C   0  0  0  0  0  0  0  0  0  0  0  0
   32.4713   32.4668   22.9408 N   0  0  0  0  0  0  0  0  0  0  0  0
  1  2  1  0  0  0  0
  1  7  1  0  0  0  0
  2  3  1  0  0  0  0
  2  4  2  0  0  0  0
  4  5  1  0  0  0  0
  5  6  2  0  0  0  0
  5 11  1  0  0  0  0
  6  7  1  0  0  0  0
  6  9  1  0  0  0  0
  7  8  2  0  0  0  0
  9 10  2  0  0  0  0
  9 12  1  0  0  0  0
 10 11  1  0  0  0  0
 12 13  3  0  0  0  0
M  END
>  <CHROM.1>
35.66722302,33.94535877,24.77076648,0.35578966,-0.63036469,-0.55490633

>  <Name>
ligand

>  <RI>
0

>  <Rbt.Current_Directory>
/home/itssahil/PROJECTS/Mol_Feturizer/New_Systems/rnas/3GCA

>  <Rbt.Executable>
rbdock ($Id: //depot/dev/client3/rdock/2013.1/src/exe/rbdock.cxx#4 $)

>  <Rbt.Library>
libRbt.so (2013.1, Build901 2013/11/27)

>  <Rbt.Parameter_File>
/export/apps/rDock/src/rDock_2013.1_src/data/scripts/dock_solv.prm

>  <Rbt.Receptor>
prm/blind_docking_100.prm

>  <SCORE>
-21.89

>  <SCORE.INTER>
-21.89

>  <SCORE.INTER.CONST>
1

>  <SCORE.INTER.POLAR>
0

>  <SCORE.INTER.ROT>
0

>  <SCORE.INTER.SOLV>
10.8848

>  <SCORE.INTER.VDW>
-21.8216

>  <SCORE.INTER.norm>
-1.68385

>  <SCORE.INTRA>
0

>  <SCORE.INTRA.DIHEDRAL>
0

>  <SCORE.INTRA.DIHEDRAL.0>
0

>  <SCORE.INTRA.POLAR>
0

>  <SCORE.INTRA.POLAR.0>
0

>  <SCORE.INTRA.REPUL>
0

>  <SCORE.INTRA.REPUL.0>
0

>  <SCORE.INTRA.SOLV>
0

>  <SCORE.INTRA.SOLV.lig_0>
-33.1994

>  <SCORE.INTRA.VDW>
0

>  <SCORE.INTRA.VDW.0>
0

>  <SCORE.INTRA.norm>
0

>  <SCORE.RESTR>
0

>  <SCORE.RESTR.CAVITY>
0

>  <SCORE.RESTR.norm>
0

>  <SCORE.SYSTEM>
0

>  <SCORE.SYSTEM.CONST>
0

>  <SCORE.SYSTEM.DIHEDRAL>
0

>  <SCORE.SYSTEM.SOLV>
0

>  <SCORE.SYSTEM.norm>
0

>  <SCORE.heavy>
13

>  <SCORE.norm>
-1.68385

>  <RMSD>
4.253

$$$$
ligand
 OpenBabel11021811473D
libRbt.so/2013.1/901 2013/11/27
 13 14  0  0  0  0  0  0  0  0999 V2000
   36.5629   35.8832   24.3432 N   0  0  0  0  0  0  0  0  0  0  0  0
   37.5940   35.5317   25.4937 C   0  0  0  0  0  0  0  0  0  0  0  0
   38.5921   36.4358   25.8002 N   0  0  0  0  0  0  0  0  0  0  0  0
   37.3710   34.3920   25.9989 N   0  0  0  0  0  0  0  0  0  0  0  0
   36.4142   33.4784   25.7460 C   0  0  0  0  0  0  0  0  0  0  0  0
   35.4909   33.7009   24.7902 C   0  0  0  0  0  0  0  0  0  0  0  0
   35.5856   35.0586   23.9884 C   0  0  0  0  0  0  0  0  0  0  0  0
   34.7636   35.2443   23.1498 O   0  0  0  0  0  0  0  0  0  0  0  0
   34.4993   32.5326   24.6372 C   0  0  0  0  0  0  0  0  0  0  0  0
   34.8771   31.6321   25.5515 C   0  0  0  0  0  0  0  0  0  0  0  0
   35.9738   31.9808   26.2930 N   0  0  0  0  0  0  0  0  0  0  0  0
   33.3620   32.4658   23.6919 C   0  0  0  0  0  0  0  0  0  0  0  0
   32.5037   32.4556   22.9173 N   0  0  0  0  0  0  0  0  0  0  0  0
  1  2  1  0  0  0  0
  1  7  1  0  0  0  0
  2  3  1  0  0  0  0
  2  4  2  0  0  0  0
  4  5  1  0  0  0  0
  5  6  2  0  0  0  0
  5 11  1  0  0  0  0
  6  7  1  0  0  0  0
  6  9  1  0  0  0  0
  7  8  2  0  0  0  0
  9 10  2  0  0  0  0
  9 12  1  0  0  0  0
 10 11  1  0  0  0  0
 12 13  3  0  0  0  0
M  END
>  <CHROM.1>
35.67142855,33.95734970,24.77726419,0.35010902,-0.64288644,-0.56601156

>  <Name>
ligand

>  <RI>
0

>  <Rbt.Current_Directory>
/home/itssahil/PROJECTS/Mol_Feturizer/New_Systems/rnas/3GCA

>  <Rbt.Executable>
rbdock ($Id: //depot/dev/client3/rdock/2013.1/src/exe/rbdock.cxx#4 $)

>  <Rbt.Library>
libRbt.so (2013.1, Build901 2013/11/27)

>  <Rbt.Parameter_File>
/export/apps/rDock/src/rDock_2013.1_src/data/scripts/dock_solv.prm

>  <Rbt.Receptor>
prm/blind_docking_100.prm

>  <SCORE>
-21.9221

>  <SCORE.INTER>
-21.9221

>  <SCORE.INTER.CONST>
1

>  <SCORE.INTER.POLAR>
0

>  <SCORE.INTER.ROT>
0

>  <SCORE.INTER.SOLV>
10.855

>  <SCORE.INTER.VDW>
-21.8331

>  <SCORE.INTER.norm>
-1.68632

>  <SCORE.INTRA>
0

>  <SCORE.INTRA.DIHEDRAL>
0

>  <SCORE.INTRA.DIHEDRAL.0>
0

>  <SCORE.INTRA.POLAR>
0

>  <SCORE.INTRA.POLAR.0>
0

>  <SCORE.INTRA.REPUL>
0

>  <SCORE.INTRA.REPUL.0>
0

>  <SCORE.INTRA.SOLV>
0

>  <SCORE.INTRA.SOLV.lig_0>
-33.1994

>  <SCORE.INTRA.VDW>
0

>  <SCORE.INTRA.VDW.0>
0

>  <SCORE.INTRA.norm>
0

>  <SCORE.RESTR>
0

>  <SCORE.RESTR.CAVITY>
0

>  <SCORE.RESTR.norm>
0

>  <SCORE.SYSTEM>
0

>  <SCORE.SYSTEM.CONST>
0

>  <SCORE.SYSTEM.DIHEDRAL>
0

>  <SCORE.SYSTEM.SOLV>
0

>  <SCORE.SYSTEM.norm>
0

>  <SCORE.heavy>
13

>  <SCORE.norm>
-1.68632

>  <RMSD>
4.253

$$$$
ligand
 OpenBabel11021811473D
libRbt.so/2013.1/901 2013/11/27
 13 14  0  0  0  0  0  0  0  0999 V2000
   36.7238   35.7921   24.2942 N   0  0  0  0  0  0  0  0  0  0  0  0
   37.6937   35.4468   25.4985 C   0  0  0  0  0  0  0  0  0  0  0  0
   38.7246   36.3149   25.8007 N   0  0  0  0  0  0  0  0  0  0  0  0
   37.3954   34.3451   26.0472 N   0  0  0  0  0  0  0  0  0  0  0  0
   36.4034   33.4680   25.8006 C   0  0  0  0  0  0  0  0  0  0  0  0
   35.5275   33.6889   24.8007 C   0  0  0  0  0  0  0  0  0  0  0  0
   35.7195   35.0000   23.9410 C   0  0  0  0  0  0  0  0  0  0  0  0
   34.9386   35.1848   23.0638 O   0  0  0  0  0  0  0  0  0  0  0  0
   34.4843   32.5642   24.6644 C   0  0  0  0  0  0  0  0  0  0  0  0
   34.7830   31.6916   25.6333 C   0  0  0  0  0  0  0  0  0  0  0  0
   35.8685   32.0219   26.3993 N   0  0  0  0  0  0  0  0  0  0  0  0
   33.3799   32.5073   23.6803 C   0  0  0  0  0  0  0  0  0  0  0  0
   32.5506   32.5016   22.8746 N   0  0  0  0  0  0  0  0  0  0  0  0
  1  2  1  0  0  0  0
  1  7  1  0  0  0  0
  2  3  1  0  0  0  0
  2  4  2  0  0  0  0
  4  5  1  0  0  0  0
  5  6  2  0  0  0  0
  5 11  1  0  0  0  0
  6  7  1  0  0  0  0
  6  9  1  0  0  0  0
  7  8  2  0  0  0  0
  9 10  2  0  0  0  0
  9 12  1  0  0  0  0
 10 11  1  0  0  0  0
 12 13  3  0  0  0  0
M  END
>  <CHROM.1>
35.72112186,33.93523953,24.78287677,0.27254155,-0.64473654,-0.66004817

>  <Name>
ligand

>  <RI>
0

>  <Rbt.Current_Directory>
/home/itssahil/PROJECTS/Mol_Feturizer/New_Systems/rnas/3GCA

>  <Rbt.Executable>
rbdock ($Id: //depot/dev/client3/rdock/2013.1/src/exe/rbdock.cxx#4 $)

>  <Rbt.Library>
libRbt.so (2013.1, Build901 2013/11/27)

>  <Rbt.Parameter_File>
/export/apps/rDock/src/rDock_2013.1_src/data/scripts/dock_solv.prm

>  <Rbt.Receptor>
prm/pocket_docking_7.prm

>  <SCORE>
-21.9437

>  <SCORE.INTER>
-21.9437

>  <SCORE.INTER.CONST>
1

>  <SCORE.INTER.POLAR>
0

>  <SCORE.INTER.ROT>
0

>  <SCORE.INTER.SOLV>
10.6875

>  <SCORE.INTER.VDW>
-21.7916

>  <SCORE.INTER.norm>
-1.68798

>  <SCORE.INTRA>
0

>  <SCORE.INTRA.DIHEDRAL>
0

>  <SCORE.INTRA.DIHEDRAL.0>
0

>  <SCORE.INTRA.POLAR>
0

>  <SCORE.INTRA.POLAR.0>
0

>  <SCORE.INTRA.REPUL>
0

>  <SCORE.INTRA.REPUL.0>
0

>  <SCORE.INTRA.SOLV>
0

>  <SCORE.INTRA.SOLV.lig_0>
-33.1994

>  <SCORE.INTRA.VDW>
0

>  <SCORE.INTRA.VDW.0>
0

>  <SCORE.INTRA.norm>
0

>  <SCORE.RESTR>
0

>  <SCORE.RESTR.CAVITY>
0

>  <SCORE.RESTR.norm>
0

>  <SCORE.SYSTEM>
0

>  <SCORE.SYSTEM.CONST>
0

>  <SCORE.SYSTEM.DIHEDRAL>
0

>  <SCORE.SYSTEM.SOLV>
0

>  <SCORE.SYSTEM.norm>
0

>  <SCORE.heavy>
13

>  <SCORE.norm>
-1.68798

>  <RMSD>
4.255

$$$$
ligand
 OpenBabel11021811473D
libRbt.so/2013.1/901 2013/11/27
 13 14  0  0  0  0  0  0  0  0999 V2000
   36.7256   35.7957   24.2940 N   0  0  0  0  0  0  0  0  0  0  0  0
   37.7087   35.4409   25.4847 C   0  0  0  0  0  0  0  0  0  0  0  0
   38.7404   36.3087   25.7850 N   0  0  0  0  0  0  0  0  0  0  0  0
   37.4189   34.3330   26.0254 N   0  0  0  0  0  0  0  0  0  0  0  0
   36.4266   33.4558   25.7802 C   0  0  0  0  0  0  0  0  0  0  0  0
   35.5399   33.6843   24.7916 C   0  0  0  0  0  0  0  0  0  0  0  0
   35.7197   35.0045   23.9431 C   0  0  0  0  0  0  0  0  0  0  0  0
   34.9294   35.1960   23.0759 O   0  0  0  0  0  0  0  0  0  0  0  0
   34.4983   32.5584   24.6546 C   0  0  0  0  0  0  0  0  0  0  0  0
   34.8091   31.6769   25.6117 C   0  0  0  0  0  0  0  0  0  0  0  0
   35.9016   32.0023   26.3697 N   0  0  0  0  0  0  0  0  0  0  0  0
   33.3839   32.5084   23.6814 C   0  0  0  0  0  0  0  0  0  0  0  0
   32.5463   32.5085   22.8843 N   0  0  0  0  0  0  0  0  0  0  0  0
  1  2  1  0  0  0  0
  1  7  1  0  0  0  0
  2  3  1  0  0  0  0
  2  4  2  0  0  0  0
  4  5  1  0  0  0  0
  5  6  2  0  0  0  0
  5 11  1  0  0  0  0
  6  7  1  0  0  0  0
  6  9  1  0  0  0  0
  7  8  2  0  0  0  0
  9 10  2  0  0  0  0
  9 12  1  0  0  0  0
 10 11  1  0  0  0  0
 12 13  3  0  0  0  0
M  END
>  <CHROM.1>
35.73269467,33.93138718,24.77420708,0.28290716,-0.63813366,-0.64382076

>  <Name>
ligand

>  <RI>
0

>  <Rbt.Current_Directory>
/home/itssahil/PROJECTS/Mol_Feturizer/New_Systems/rnas/3GCA

>  <Rbt.Executable>
rbdock ($Id: //depot/dev/client3/rdock/2013.1/src/exe/rbdock.cxx#4 $)

>  <Rbt.Library>
libRbt.so (2013.1, Build901 2013/11/27)

>  <Rbt.Parameter_File>
/export/apps/rDock/src/rDock_2013.1_src/data/scripts/dock_solv.prm

>  <Rbt.Receptor>
prm/pocket_docking_3.prm

>  <SCORE>
-21.969

>  <SCORE.INTER>
-21.969

>  <SCORE.INTER.CONST>
1

>  <SCORE.INTER.POLAR>
0

>  <SCORE.INTER.ROT>
0

>  <SCORE.INTER.SOLV>
10.6822

>  <SCORE.INTER.VDW>
-21.8067

>  <SCORE.INTER.norm>
-1.68992

>  <SCORE.INTRA>
0

>  <SCORE.INTRA.DIHEDRAL>
0

>  <SCORE.INTRA.DIHEDRAL.0>
0

>  <SCORE.INTRA.POLAR>
0

>  <SCORE.INTRA.POLAR.0>
0

>  <SCORE.INTRA.REPUL>
0

>  <SCORE.INTRA.REPUL.0>
0

>  <SCORE.INTRA.SOLV>
0

>  <SCORE.INTRA.SOLV.lig_0>
-33.1994

>  <SCORE.INTRA.VDW>
0

>  <SCORE.INTRA.VDW.0>
0

>  <SCORE.INTRA.norm>
0

>  <SCORE.RESTR>
0

>  <SCORE.RESTR.CAVITY>
0

>  <SCORE.RESTR.norm>
0

>  <SCORE.SYSTEM>
0

>  <SCORE.SYSTEM.CONST>
0

>  <SCORE.SYSTEM.DIHEDRAL>
0

>  <SCORE.SYSTEM.SOLV>
0

>  <SCORE.SYSTEM.norm>
0

>  <SCORE.heavy>
13

>  <SCORE.norm>
-1.68992

>  <RMSD>
4.256

$$$$
ligand
 OpenBabel11021811473D
libRbt.so/2013.1/901 2013/11/27
 13 14  0  0  0  0  0  0  0  0999 V2000
   36.7172   35.7952   24.3015 N   0  0  0  0  0  0  0  0  0  0  0  0
   37.7072   35.4312   25.4838 C   0  0  0  0  0  0  0  0  0  0  0  0
   38.7419   36.2956   25.7835 N   0  0  0  0  0  0  0  0  0  0  0  0
   37.4192   34.3200   26.0188 N   0  0  0  0  0  0  0  0  0  0  0  0
   36.4242   33.4458   25.7739 C   0  0  0  0  0  0  0  0  0  0  0  0
   35.5318   33.6821   24.7923 C   0  0  0  0  0  0  0  0  0  0  0  0
   35.7082   35.0077   23.9516 C   0  0  0  0  0  0  0  0  0  0  0  0
   34.9128   35.2061   23.0905 O   0  0  0  0  0  0  0  0  0  0  0  0
   34.4878   32.5585   24.6543 C   0  0  0  0  0  0  0  0  0  0  0  0
   34.8033   31.6702   25.6035 C   0  0  0  0  0  0  0  0  0  0  0  0
   35.9008   31.9891   26.3569 N   0  0  0  0  0  0  0  0  0  0  0  0
   33.3674   32.5165   23.6876 C   0  0  0  0  0  0  0  0  0  0  0  0
   32.5249   32.5231   22.8957 N   0  0  0  0  0  0  0  0  0  0  0  0
  1  2  1  0  0  0  0
  1  7  1  0  0  0  0
  2  3  1  0  0  0  0
  2  4  2  0  0  0  0
  4  5  1  0  0  0  0
  5  6  2  0  0  0  0
  5 11  1  0  0  0  0
  6  7  1  0  0  0  0
  6  9  1  0  0  0  0
  7  8  2  0  0  0  0
  9 10  2  0  0  0  0
  9 12  1  0  0  0  0
 10 11  1  0  0  0  0
 12 13  3  0  0  0  0
M  END
>  <CHROM.1>
35.72478965,33.92905421,24.77540221,0.28612065,-0.63239766,-0.63522710

>  <Name>
ligand

>  <RI>
0

>  <Rbt.Current_Directory>
/home/itssahil/PROJECTS/Mol_Feturizer/New_Systems/rnas/3GCA

>  <Rbt.Executable>
rbdock ($Id: //depot/dev/client3/rdock/2013.1/src/exe/rbdock.cxx#4 $)

>  <Rbt.Library>
libRbt.so (2013.1, Build901 2013/11/27)

>  <Rbt.Parameter_File>
/export/apps/rDock/src/rDock_2013.1_src/data/scripts/dock_solv.prm

>  <Rbt.Receptor>
prm/pocket_docking_6.prm

>  <SCORE>
-22.0041

>  <SCORE.INTER>
-22.0041

>  <SCORE.INTER.CONST>
1

>  <SCORE.INTER.POLAR>
0

>  <SCORE.INTER.ROT>
0

>  <SCORE.INTER.SOLV>
10.6991

>  <SCORE.INTER.VDW>
-21.8358

>  <SCORE.INTER.norm>
-1.69263

>  <SCORE.INTRA>
0

>  <SCORE.INTRA.DIHEDRAL>
0

>  <SCORE.INTRA.DIHEDRAL.0>
0

>  <SCORE.INTRA.POLAR>
0

>  <SCORE.INTRA.POLAR.0>
0

>  <SCORE.INTRA.REPUL>
0

>  <SCORE.INTRA.REPUL.0>
0

>  <SCORE.INTRA.SOLV>
0

>  <SCORE.INTRA.SOLV.lig_0>
-33.1994

>  <SCORE.INTRA.VDW>
0

>  <SCORE.INTRA.VDW.0>
0

>  <SCORE.INTRA.norm>
0

>  <SCORE.RESTR>
0

>  <SCORE.RESTR.CAVITY>
0

>  <SCORE.RESTR.norm>
0

>  <SCORE.SYSTEM>
0

>  <SCORE.SYSTEM.CONST>
0

>  <SCORE.SYSTEM.DIHEDRAL>
0

>  <SCORE.SYSTEM.SOLV>
0

>  <SCORE.SYSTEM.norm>
0

>  <SCORE.heavy>
13

>  <SCORE.norm>
-1.69263

>  <RMSD>
4.256

$$$$
ligand
 OpenBabel11021811473D
libRbt.so/2013.1/901 2013/11/27
 13 14  0  0  0  0  0  0  0  0999 V2000
   36.7291   35.8263   24.3385 N   0  0  0  0  0  0  0  0  0  0  0  0
   37.7076   35.4833   25.5364 C   0  0  0  0  0  0  0  0  0  0  0  0
   38.7223   36.3667   25.8488 N   0  0  0  0  0  0  0  0  0  0  0  0
   37.4314   34.3687   26.0706 N   0  0  0  0  0  0  0  0  0  0  0  0
   36.4557   33.4763   25.8137 C   0  0  0  0  0  0  0  0  0  0  0  0
   35.5740   33.6940   24.8182 C   0  0  0  0  0  0  0  0  0  0  0  0
   35.7395   35.0201   23.9761 C   0  0  0  0  0  0  0  0  0  0  0  0
   34.9536   35.2019   23.1027 O   0  0  0  0  0  0  0  0  0  0  0  0
   34.5521   32.5517   24.6682 C   0  0  0  0  0  0  0  0  0  0  0  0
   34.8691   31.6719   25.6248 C   0  0  0  0  0  0  0  0  0  0  0  0
   35.9495   32.0123   26.3935 N   0  0  0  0  0  0  0  0  0  0  0  0
   33.4472   32.4872   23.6852 C   0  0  0  0  0  0  0  0  0  0  0  0
   32.6166   32.4766   22.8808 N   0  0  0  0  0  0  0  0  0  0  0  0
  1  2  1  0  0  0  0
  1  7  1  0  0  0  0
  2  3  1  0  0  0  0
  2  4  2  0  0  0  0
  4  5  1  0  0  0  0
  5  6  2  0  0  0  0
  5 11  1  0  0  0  0
  6  7  1  0  0  0  0
  6  9  1  0  0  0  0
  7  8  2  0  0  0  0
  9 10  2  0  0  0  0
  9 12  1  0  0  0  0
 10 11  1  0  0  0  0
 12 13  3  0  0  0  0
M  END
>  <CHROM.1>
35.76282523,33.94427920,24.80341343,0.29288570,-0.65484704,-0.63417238

>  <Name>
ligand

>  <RI>
0

>  <Rbt.Current_Directory>
/home/itssahil/PROJECTS/Mol_Feturizer/New_Systems/rnas/3GCA

>  <Rbt.Executable>
rbdock ($Id: //depot/dev/client3/rdock/2013.1/src/exe/rbdock.cxx#4 $)

>  <Rbt.Library>
libRbt.so (2013.1, Build901 2013/11/27)

>  <Rbt.Parameter_File>
/export/apps/rDock/src/rDock_2013.1_src/data/scripts/dock_solv.prm

>  <Rbt.Receptor>
prm/pocket_docking_8.prm

>  <SCORE>
-21.9191

>  <SCORE.INTER>
-21.9191

>  <SCORE.INTER.CONST>
1

>  <SCORE.INTER.POLAR>
0

>  <SCORE.INTER.ROT>
0

>  <SCORE.INTER.SOLV>
10.4594

>  <SCORE.INTER.VDW>
-21.6992

>  <SCORE.INTER.norm>
-1.68608

>  <SCORE.INTRA>
0

>  <SCORE.INTRA.DIHEDRAL>
0

>  <SCORE.INTRA.DIHEDRAL.0>
0

>  <SCORE.INTRA.POLAR>
0

>  <SCORE.INTRA.POLAR.0>
0

>  <SCORE.INTRA.REPUL>
0

>  <SCORE.INTRA.REPUL.0>
0

>  <SCORE.INTRA.SOLV>
0

>  <SCORE.INTRA.SOLV.lig_0>
-33.1994

>  <SCORE.INTRA.VDW>
0

>  <SCORE.INTRA.VDW.0>
0

>  <SCORE.INTRA.norm>
0

>  <SCORE.RESTR>
0

>  <SCORE.RESTR.CAVITY>
0

>  <SCORE.RESTR.norm>
0

>  <SCORE.SYSTEM>
0

>  <SCORE.SYSTEM.CONST>
0

>  <SCORE.SYSTEM.DIHEDRAL>
0

>  <SCORE.SYSTEM.SOLV>
0

>  <SCORE.SYSTEM.norm>
0

>  <SCORE.heavy>
13

>  <SCORE.norm>
-1.68608

>  <RMSD>
4.258

$$$$
ligand
 OpenBabel11021811473D
libRbt.so/2013.1/901 2013/11/27
 13 14  0  0  0  0  0  0  0  0999 V2000
   36.7428   35.7937   24.3897 N   0  0  0  0  0  0  0  0  0  0  0  0
   37.7528   35.4272   25.5541 C   0  0  0  0  0  0  0  0  0  0  0  0
   38.7771   36.3034   25.8552 N   0  0  0  0  0  0  0  0  0  0  0  0
   37.4892   34.3032   26.0747 N   0  0  0  0  0  0  0  0  0  0  0  0
   36.5054   33.4169   25.8277 C   0  0  0  0  0  0  0  0  0  0  0  0
   35.5974   33.6542   24.8608 C   0  0  0  0  0  0  0  0  0  0  0  0
   35.7423   34.9956   24.0393 C   0  0  0  0  0  0  0  0  0  0  0  0
   34.9333   35.1946   23.1910 O   0  0  0  0  0  0  0  0  0  0  0  0
   34.5699   32.5161   24.7172 C   0  0  0  0  0  0  0  0  0  0  0  0
   34.9112   31.6182   25.6483 C   0  0  0  0  0  0  0  0  0  0  0  0
   36.0126   31.9429   26.3936 N   0  0  0  0  0  0  0  0  0  0  0  0
   33.4386   32.4713   23.7635 C   0  0  0  0  0  0  0  0  0  0  0  0
   32.5866   32.4766   22.9819 N   0  0  0  0  0  0  0  0  0  0  0  0
  1  2  1  0  0  0  0
  1  7  1  0  0  0  0
  2  3  1  0  0  0  0
  2  4  2  0  0  0  0
  4  5  1  0  0  0  0
  5  6  2  0  0  0  0
  5 11  1  0  0  0  0
  6  7  1  0  0  0  0
  6  9  1  0  0  0  0
  7  8  2  0  0  0  0
  9 10  2  0  0  0  0
  9 12  1  0  0  0  0
 10 11  1  0  0  0  0
 12 13  3  0  0  0  0
M  END
>  <CHROM.1>
35.78620467,33.90447043,24.84548437,0.31108244,-0.63194044,-0.60459539

>  <Name>
ligand

>  <RI>
0

>  <Rbt.Current_Directory>
/home/itssahil/PROJECTS/Mol_Feturizer/New_Systems/rnas/3GCA

>  <Rbt.Executable>
rbdock ($Id: //depot/dev/client3/rdock/2013.1/src/exe/rbdock.cxx#4 $)

>  <Rbt.Library>
libRbt.so (2013.1, Build901 2013/11/27)

>  <Rbt.Parameter_File>
/export/apps/rDock/src/rDock_2013.1_src/data/scripts/dock_solv.prm

>  <Rbt.Receptor>
prm/pocket_docking_3.prm

>  <SCORE>
-21.9696

>  <SCORE.INTER>
-21.9696

>  <SCORE.INTER.CONST>
1

>  <SCORE.INTER.POLAR>
0

>  <SCORE.INTER.ROT>
0

>  <SCORE.INTER.SOLV>
10.3393

>  <SCORE.INTER.VDW>
-21.6928

>  <SCORE.INTER.norm>
-1.68997

>  <SCORE.INTRA>
0

>  <SCORE.INTRA.DIHEDRAL>
0

>  <SCORE.INTRA.DIHEDRAL.0>
0

>  <SCORE.INTRA.POLAR>
0

>  <SCORE.INTRA.POLAR.0>
0

>  <SCORE.INTRA.REPUL>
0

>  <SCORE.INTRA.REPUL.0>
0

>  <SCORE.INTRA.SOLV>
0

>  <SCORE.INTRA.SOLV.lig_0>
-33.1994

>  <SCORE.INTRA.VDW>
0

>  <SCORE.INTRA.VDW.0>
0

>  <SCORE.INTRA.norm>
0

>  <SCORE.RESTR>
0

>  <SCORE.RESTR.CAVITY>
0

>  <SCORE.RESTR.norm>
0

>  <SCORE.SYSTEM>
0

>  <SCORE.SYSTEM.CONST>
0

>  <SCORE.SYSTEM.DIHEDRAL>
0

>  <SCORE.SYSTEM.SOLV>
0

>  <SCORE.SYSTEM.norm>
0

>  <SCORE.heavy>
13

>  <SCORE.norm>
-1.68997

>  <RMSD>
4.259

$$$$
ligand
 OpenBabel11021811473D
libRbt.so/2013.1/901 2013/11/27
 13 14  0  0  0  0  0  0  0  0999 V2000
   36.7626   35.8003   24.3427 N   0  0  0  0  0  0  0  0  0  0  0  0
   37.7777   35.4515   25.5082 C   0  0  0  0  0  0  0  0  0  0  0  0
   38.7986   36.3359   25.7967 N   0  0  0  0  0  0  0  0  0  0  0  0
   37.5210   34.3321   26.0418 N   0  0  0  0  0  0  0  0  0  0  0  0
   36.5408   33.4384   25.8075 C   0  0  0  0  0  0  0  0  0  0  0  0
   35.6290   33.6607   24.8406 C   0  0  0  0  0  0  0  0  0  0  0  0
   35.7650   34.9936   24.0041 C   0  0  0  0  0  0  0  0  0  0  0  0
   34.9527   35.1793   23.1560 O   0  0  0  0  0  0  0  0  0  0  0  0
   34.6066   32.5161   24.7126 C   0  0  0  0  0  0  0  0  0  0  0  0
   34.9548   31.6302   25.6525 C   0  0  0  0  0  0  0  0  0  0  0  0
   36.0568   31.9684   26.3910 N   0  0  0  0  0  0  0  0  0  0  0  0
   33.4728   32.4553   23.7627 C   0  0  0  0  0  0  0  0  0  0  0  0
   32.6185   32.4480   22.9836 N   0  0  0  0  0  0  0  0  0  0  0  0
  1  2  1  0  0  0  0
  1  7  1  0  0  0  0
  2  3  1  0  0  0  0
  2  4  2  0  0  0  0
  4  5  1  0  0  0  0
  5  6  2  0  0  0  0
  5 11  1  0  0  0  0
  6  7  1  0  0  0  0
  6  9  1  0  0  0  0
  7  8  2  0  0  0  0
  9 10  2  0  0  0  0
  9 12  1  0  0  0  0
 10 11  1  0  0  0  0
 12 13  3  0  0  0  0
M  END
>  <CHROM.1>
35.81649301,33.91162483,24.82206155,0.31801942,-0.63234099,-0.61150090

>  <Name>
ligand

>  <RI>
0

>  <Rbt.Current_Directory>
/home/itssahil/PROJECTS/Mol_Feturizer/New_Systems/rnas/3GCA

>  <Rbt.Executable>
rbdock ($Id: //depot/dev/client3/rdock/2013.1/src/exe/rbdock.cxx#4 $)

>  <Rbt.Library>
libRbt.so (2013.1, Build901 2013/11/27)

>  <Rbt.Parameter_File>
/export/apps/rDock/src/rDock_2013.1_src/data/scripts/dock_solv.prm

>  <Rbt.Receptor>
prm/pocket_docking_3.prm

>  <SCORE>
-21.9851

>  <SCORE.INTER>
-21.9851

>  <SCORE.INTER.CONST>
1

>  <SCORE.INTER.POLAR>
0

>  <SCORE.INTER.ROT>
0

>  <SCORE.INTER.SOLV>
10.3778

>  <SCORE.INTER.VDW>
-21.716

>  <SCORE.INTER.norm>
-1.69116

>  <SCORE.INTRA>
0

>  <SCORE.INTRA.DIHEDRAL>
0

>  <SCORE.INTRA.DIHEDRAL.0>
0

>  <SCORE.INTRA.POLAR>
0

>  <SCORE.INTRA.POLAR.0>
0

>  <SCORE.INTRA.REPUL>
0

>  <SCORE.INTRA.REPUL.0>
0

>  <SCORE.INTRA.SOLV>
0

>  <SCORE.INTRA.SOLV.lig_0>
-33.1994

>  <SCORE.INTRA.VDW>
0

>  <SCORE.INTRA.VDW.0>
0

>  <SCORE.INTRA.norm>
0

>  <SCORE.RESTR>
0

>  <SCORE.RESTR.CAVITY>
0

>  <SCORE.RESTR.norm>
0

>  <SCORE.SYSTEM>
0

>  <SCORE.SYSTEM.CONST>
0

>  <SCORE.SYSTEM.DIHEDRAL>
0

>  <SCORE.SYSTEM.SOLV>
0

>  <SCORE.SYSTEM.norm>
0

>  <SCORE.heavy>
13

>  <SCORE.norm>
-1.69116

>  <RMSD>
4.259

$$$$
ligand
 OpenBabel11021811473D
libRbt.so/2013.1/901 2013/11/27
 13 14  0  0  0  0  0  0  0  0999 V2000
   36.7486   35.7822   24.3123 N   0  0  0  0  0  0  0  0  0  0  0  0
   37.7553   35.3846   25.4693 C   0  0  0  0  0  0  0  0  0  0  0  0
   38.8006   36.2352   25.7718 N   0  0  0  0  0  0  0  0  0  0  0  0
   37.4687   34.2632   25.9832 N   0  0  0  0  0  0  0  0  0  0  0  0
   36.4640   33.4012   25.7346 C   0  0  0  0  0  0  0  0  0  0  0  0
   35.5572   33.6659   24.7737 C   0  0  0  0  0  0  0  0  0  0  0  0
   35.7287   35.0094   23.9610 C   0  0  0  0  0  0  0  0  0  0  0  0
   34.9207   35.2327   23.1179 O   0  0  0  0  0  0  0  0  0  0  0  0
   34.5036   32.5523   24.6270 C   0  0  0  0  0  0  0  0  0  0  0  0
   34.8286   31.6403   25.5501 C   0  0  0  0  0  0  0  0  0  0  0  0
   35.9404   31.9347   26.2925 N   0  0  0  0  0  0  0  0  0  0  0  0
   33.3672   32.5399   23.6783 C   0  0  0  0  0  0  0  0  0  0  0  0
   32.5120   32.5701   22.9007 N   0  0  0  0  0  0  0  0  0  0  0  0
  1  2  1  0  0  0  0
  1  7  1  0  0  0  0
  2  3  1  0  0  0  0
  2  4  2  0  0  0  0
  4  5  1  0  0  0  0
  5  6  2  0  0  0  0
  5 11  1  0  0  0  0
  6  7  1  0  0  0  0
  6  9  1  0  0  0  0
  7  8  2  0  0  0  0
  9 10  2  0  0  0  0
  9 12  1  0  0  0  0
 10 11  1  0  0  0  0
 12 13  3  0  0  0  0
M  END
>  <CHROM.1>
35.75157189,33.91186700,24.75928439,0.29139949,-0.61523737,-0.60901868

>  <Name>
ligand

>  <RI>
0

>  <Rbt.Current_Directory>
/home/itssahil/PROJECTS/Mol_Feturizer/New_Systems/rnas/3GCA

>  <Rbt.Executable>
rbdock ($Id: //depot/dev/client3/rdock/2013.1/src/exe/rbdock.cxx#4 $)

>  <Rbt.Library>
libRbt.so (2013.1, Build901 2013/11/27)

>  <Rbt.Parameter_File>
/export/apps/rDock/src/rDock_2013.1_src/data/scripts/dock_solv.prm

>  <Rbt.Receptor>
prm/pocket_docking_5.prm

>  <SCORE>
-22.0101

>  <SCORE.INTER>
-22.0101

>  <SCORE.INTER.CONST>
1

>  <SCORE.INTER.POLAR>
0

>  <SCORE.INTER.ROT>
0

>  <SCORE.INTER.SOLV>
10.6527

>  <SCORE.INTER.VDW>
-21.8243

>  <SCORE.INTER.norm>
-1.69309

>  <SCORE.INTRA>
0

>  <SCORE.INTRA.DIHEDRAL>
0

>  <SCORE.INTRA.DIHEDRAL.0>
0

>  <SCORE.INTRA.POLAR>
0

>  <SCORE.INTRA.POLAR.0>
0

>  <SCORE.INTRA.REPUL>
0

>  <SCORE.INTRA.REPUL.0>
0

>  <SCORE.INTRA.SOLV>
0

>  <SCORE.INTRA.SOLV.lig_0>
-33.1994

>  <SCORE.INTRA.VDW>
0

>  <SCORE.INTRA.VDW.0>
0

>  <SCORE.INTRA.norm>
0

>  <SCORE.RESTR>
0

>  <SCORE.RESTR.CAVITY>
0

>  <SCORE.RESTR.norm>
0

>  <SCORE.SYSTEM>
0

>  <SCORE.SYSTEM.CONST>
0

>  <SCORE.SYSTEM.DIHEDRAL>
0

>  <SCORE.SYSTEM.SOLV>
0

>  <SCORE.SYSTEM.norm>
0

>  <SCORE.heavy>
13

>  <SCORE.norm>
-1.69309

>  <RMSD>
4.259

$$$$
ligand
 OpenBabel11021811473D
libRbt.so/2013.1/901 2013/11/27
 13 14  0  0  0  0  0  0  0  0999 V2000
   36.7326   35.8459   24.2918 N   0  0  0  0  0  0  0  0  0  0  0  0
   37.7366   35.4872   25.4637 C   0  0  0  0  0  0  0  0  0  0  0  0
   38.7682   36.3584   25.7545 N   0  0  0  0  0  0  0  0  0  0  0  0
   37.4617   34.3733   26.0000 N   0  0  0  0  0  0  0  0  0  0  0  0
   36.4704   33.4925   25.7635 C   0  0  0  0  0  0  0  0  0  0  0  0
   35.5668   33.7240   24.7912 C   0  0  0  0  0  0  0  0  0  0  0  0
   35.7256   35.0519   23.9507 C   0  0  0  0  0  0  0  0  0  0  0  0
   34.9204   35.2458   23.0977 O   0  0  0  0  0  0  0  0  0  0  0  0
   34.5293   32.5932   24.6618 C   0  0  0  0  0  0  0  0  0  0  0  0
   34.8603   31.7059   25.6065 C   0  0  0  0  0  0  0  0  0  0  0  0
   35.9630   32.0314   26.3496 N   0  0  0  0  0  0  0  0  0  0  0  0
   33.3998   32.5448   23.7061 C   0  0  0  0  0  0  0  0  0  0  0  0
   32.5495   32.5465   22.9225 N   0  0  0  0  0  0  0  0  0  0  0  0
  1  2  1  0  0  0  0
  1  7  1  0  0  0  0
  2  3  1  0  0  0  0
  2  4  2  0  0  0  0
  4  5  1  0  0  0  0
  5  6  2  0  0  0  0
  5 11  1  0  0  0  0
  6  7  1  0  0  0  0
  6  9  1  0  0  0  0
  7  8  2  0  0  0  0
  9 10  2  0  0  0  0
  9 12  1  0  0  0  0
 10 11  1  0  0  0  0
 12 13  3  0  0  0  0
M  END
>  <CHROM.1>
35.75787240,33.97223794,24.77270510,0.30028464,-0.62856815,-0.62546690

>  <Name>
ligand

>  <RI>
0

>  <Rbt.Current_Directory>
/home/itssahil/PROJECTS/Mol_Feturizer/New_Systems/rnas/3GCA

>  <Rbt.Executable>
rbdock ($Id: //depot/dev/client3/rdock/2013.1/src/exe/rbdock.cxx#4 $)

>  <Rbt.Library>
libRbt.so (2013.1, Build901 2013/11/27)

>  <Rbt.Parameter_File>
/export/apps/rDock/src/rDock_2013.1_src/data/scripts/dock_solv.prm

>  <Rbt.Receptor>
prm/pocket_docking_3.prm

>  <SCORE>
-21.9702

>  <SCORE.INTER>
-21.9702

>  <SCORE.INTER.CONST>
1

>  <SCORE.INTER.POLAR>
0

>  <SCORE.INTER.ROT>
0

>  <SCORE.INTER.SOLV>
10.5803

>  <SCORE.INTER.VDW>
-21.7736

>  <SCORE.INTER.norm>
-1.69002

>  <SCORE.INTRA>
0

>  <SCORE.INTRA.DIHEDRAL>
0

>  <SCORE.INTRA.DIHEDRAL.0>
0

>  <SCORE.INTRA.POLAR>
0

>  <SCORE.INTRA.POLAR.0>
0

>  <SCORE.INTRA.REPUL>
0

>  <SCORE.INTRA.REPUL.0>
0

>  <SCORE.INTRA.SOLV>
0

>  <SCORE.INTRA.SOLV.lig_0>
-33.1994

>  <SCORE.INTRA.VDW>
0

>  <SCORE.INTRA.VDW.0>
0

>  <SCORE.INTRA.norm>
0

>  <SCORE.RESTR>
0

>  <SCORE.RESTR.CAVITY>
0

>  <SCORE.RESTR.norm>
0

>  <SCORE.SYSTEM>
0

>  <SCORE.SYSTEM.CONST>
0

>  <SCORE.SYSTEM.DIHEDRAL>
0

>  <SCORE.SYSTEM.SOLV>
0

>  <SCORE.SYSTEM.norm>
0

>  <SCORE.heavy>
13

>  <SCORE.norm>
-1.69002

>  <RMSD>
4.260

$$$$
ligand
 OpenBabel11021811473D
libRbt.so/2013.1/901 2013/11/27
 13 14  0  0  0  0  0  0  0  0999 V2000
   36.7678   35.7928   24.3708 N   0  0  0  0  0  0  0  0  0  0  0  0
   37.7786   35.4351   25.5373 C   0  0  0  0  0  0  0  0  0  0  0  0
   38.8013   36.3151   25.8330 N   0  0  0  0  0  0  0  0  0  0  0  0
   37.5171   34.3139   26.0648 N   0  0  0  0  0  0  0  0  0  0  0  0
   36.5349   33.4243   25.8234 C   0  0  0  0  0  0  0  0  0  0  0  0
   35.6264   33.6541   24.8551 C   0  0  0  0  0  0  0  0  0  0  0  0
   35.7687   34.9907   24.0255 C   0  0  0  0  0  0  0  0  0  0  0  0
   34.9593   35.1830   23.1761 O   0  0  0  0  0  0  0  0  0  0  0  0
   34.6009   32.5132   24.7186 C   0  0  0  0  0  0  0  0  0  0  0  0
   34.9439   31.6217   25.6551 C   0  0  0  0  0  0  0  0  0  0  0  0
   36.0448   31.9529   26.3983 N   0  0  0  0  0  0  0  0  0  0  0  0
   33.4696   32.4605   23.7653 C   0  0  0  0  0  0  0  0  0  0  0  0
   32.6175   32.4596   22.9838 N   0  0  0  0  0  0  0  0  0  0  0  0
  1  2  1  0  0  0  0
  1  7  1  0  0  0  0
  2  3  1  0  0  0  0
  2  4  2  0  0  0  0
  4  5  1  0  0  0  0
  5  6  2  0  0  0  0
  5 11  1  0  0  0  0
  6  7  1  0  0  0  0
  6  9  1  0  0  0  0
  7  8  2  0  0  0  0
  9 10  2  0  0  0  0
  9 12  1  0  0  0  0
 10 11  1  0  0  0  0
 12 13  3  0  0  0  0
M  END
>  <CHROM.1>
35.81471251,33.90456986,24.83827994,0.31300584,-0.63289318,-0.60956281

>  <Name>
ligand

>  <RI>
0

>  <Rbt.Current_Directory>
/home/itssahil/PROJECTS/Mol_Feturizer/New_Systems/rnas/3GCA

>  <Rbt.Executable>
rbdock ($Id: //depot/dev/client3/rdock/2013.1/src/exe/rbdock.cxx#4 $)

>  <Rbt.Library>
libRbt.so (2013.1, Build901 2013/11/27)

>  <Rbt.Parameter_File>
/export/apps/rDock/src/rDock_2013.1_src/data/scripts/dock_solv.prm

>  <Rbt.Receptor>
prm/pocket_docking_6.prm

>  <SCORE>
-21.9885

>  <SCORE.INTER>
-21.9885

>  <SCORE.INTER.CONST>
1

>  <SCORE.INTER.POLAR>
0

>  <SCORE.INTER.ROT>
0

>  <SCORE.INTER.SOLV>
10.3047

>  <SCORE.INTER.VDW>
-21.6939

>  <SCORE.INTER.norm>
-1.69142

>  <SCORE.INTRA>
0

>  <SCORE.INTRA.DIHEDRAL>
0

>  <SCORE.INTRA.DIHEDRAL.0>
0

>  <SCORE.INTRA.POLAR>
0

>  <SCORE.INTRA.POLAR.0>
0

>  <SCORE.INTRA.REPUL>
0

>  <SCORE.INTRA.REPUL.0>
0

>  <SCORE.INTRA.SOLV>
0

>  <SCORE.INTRA.SOLV.lig_0>
-33.1994

>  <SCORE.INTRA.VDW>
0

>  <SCORE.INTRA.VDW.0>
0

>  <SCORE.INTRA.norm>
0

>  <SCORE.RESTR>
0

>  <SCORE.RESTR.CAVITY>
0

>  <SCORE.RESTR.norm>
0

>  <SCORE.SYSTEM>
0

>  <SCORE.SYSTEM.CONST>
0

>  <SCORE.SYSTEM.DIHEDRAL>
0

>  <SCORE.SYSTEM.SOLV>
0

>  <SCORE.SYSTEM.norm>
0

>  <SCORE.heavy>
13

>  <SCORE.norm>
-1.69142

>  <RMSD>
4.260

$$$$
ligand
 OpenBabel11021811473D
libRbt.so/2013.1/901 2013/11/27
 13 14  0  0  0  0  0  0  0  0999 V2000
   36.7758   35.7761   24.3593 N   0  0  0  0  0  0  0  0  0  0  0  0
   37.7459   35.3909   25.5513 C   0  0  0  0  0  0  0  0  0  0  0  0
   38.7882   36.2394   25.8698 N   0  0  0  0  0  0  0  0  0  0  0  0
   37.4364   34.2803   26.0751 N   0  0  0  0  0  0  0  0  0  0  0  0
   36.4330   33.4211   25.8119 C   0  0  0  0  0  0  0  0  0  0  0  0
   35.5562   33.6759   24.8209 C   0  0  0  0  0  0  0  0  0  0  0  0
   35.7608   35.0046   23.9915 C   0  0  0  0  0  0  0  0  0  0  0  0
   34.9790   35.2193   23.1219 O   0  0  0  0  0  0  0  0  0  0  0  0
   34.4991   32.5674   24.6622 C   0  0  0  0  0  0  0  0  0  0  0  0
   34.7908   31.6687   25.6092 C   0  0  0  0  0  0  0  0  0  0  0  0
   35.8829   31.9678   26.3785 N   0  0  0  0  0  0  0  0  0  0  0  0
   33.3904   32.5469   23.6815 C   0  0  0  0  0  0  0  0  0  0  0  0
   32.5581   32.5700   22.8792 N   0  0  0  0  0  0  0  0  0  0  0  0
  1  2  1  0  0  0  0
  1  7  1  0  0  0  0
  2  3  1  0  0  0  0
  2  4  2  0  0  0  0
  4  5  1  0  0  0  0
  5  6  2  0  0  0  0
  5 11  1  0  0  0  0
  6  7  1  0  0  0  0
  6  9  1  0  0  0  0
  7  8  2  0  0  0  0
  9 10  2  0  0  0  0
  9 12  1  0  0  0  0
 10 11  1  0  0  0  0
 12 13  3  0  0  0  0
M  END
>  <CHROM.1>
35.75267362,33.92032984,24.80808334,0.26353868,-0.63444495,-0.64187537

>  <Name>
ligand

>  <RI>
0

>  <Rbt.Current_Directory>
/home/itssahil/PROJECTS/Mol_Feturizer/New_Systems/rnas/3GCA

>  <Rbt.Executable>
rbdock ($Id: //depot/dev/client3/rdock/2013.1/src/exe/rbdock.cxx#4 $)

>  <Rbt.Library>
libRbt.so (2013.1, Build901 2013/11/27)

>  <Rbt.Parameter_File>
/export/apps/rDock/src/rDock_2013.1_src/data/scripts/dock_solv.prm

>  <Rbt.Receptor>
prm/pocket_docking_6.prm

>  <SCORE>
-22.0022

>  <SCORE.INTER>
-22.0022

>  <SCORE.INTER.CONST>
1

>  <SCORE.INTER.POLAR>
0

>  <SCORE.INTER.ROT>
0

>  <SCORE.INTER.SOLV>
10.4158

>  <SCORE.INTER.VDW>
-21.7401

>  <SCORE.INTER.norm>
-1.69248

>  <SCORE.INTRA>
0

>  <SCORE.INTRA.DIHEDRAL>
0

>  <SCORE.INTRA.DIHEDRAL.0>
0

>  <SCORE.INTRA.POLAR>
0

>  <SCORE.INTRA.POLAR.0>
0

>  <SCORE.INTRA.REPUL>
0

>  <SCORE.INTRA.REPUL.0>
0

>  <SCORE.INTRA.SOLV>
0

>  <SCORE.INTRA.SOLV.lig_0>
-33.1994

>  <SCORE.INTRA.VDW>
0

>  <SCORE.INTRA.VDW.0>
0

>  <SCORE.INTRA.norm>
0

>  <SCORE.RESTR>
0

>  <SCORE.RESTR.CAVITY>
0

>  <SCORE.RESTR.norm>
0

>  <SCORE.SYSTEM>
0

>  <SCORE.SYSTEM.CONST>
0

>  <SCORE.SYSTEM.DIHEDRAL>
0

>  <SCORE.SYSTEM.SOLV>
0

>  <SCORE.SYSTEM.norm>
0

>  <SCORE.heavy>
13

>  <SCORE.norm>
-1.69248

>  <RMSD>
4.260

$$$$
ligand
 OpenBabel11021811473D
libRbt.so/2013.1/901 2013/11/27
 13 14  0  0  0  0  0  0  0  0999 V2000
   36.7488   35.7896   24.4017 N   0  0  0  0  0  0  0  0  0  0  0  0
   37.7604   35.4204   25.5638 C   0  0  0  0  0  0  0  0  0  0  0  0
   38.7820   36.2984   25.8690 N   0  0  0  0  0  0  0  0  0  0  0  0
   37.5006   34.2930   26.0788 N   0  0  0  0  0  0  0  0  0  0  0  0
   36.5196   33.4048   25.8277 C   0  0  0  0  0  0  0  0  0  0  0  0
   35.6105   33.6441   24.8623 C   0  0  0  0  0  0  0  0  0  0  0  0
   35.7507   34.9900   24.0476 C   0  0  0  0  0  0  0  0  0  0  0  0
   34.9409   35.1907   23.2006 O   0  0  0  0  0  0  0  0  0  0  0  0
   34.5866   32.5034   24.7134 C   0  0  0  0  0  0  0  0  0  0  0  0
   34.9311   31.6019   25.6398 C   0  0  0  0  0  0  0  0  0  0  0  0
   36.0317   31.9264   26.3863 N   0  0  0  0  0  0  0  0  0  0  0  0
   33.4551   32.4597   23.7598 C   0  0  0  0  0  0  0  0  0  0  0  0
   32.6028   32.4663   22.9786 N   0  0  0  0  0  0  0  0  0  0  0  0
  1  2  1  0  0  0  0
  1  7  1  0  0  0  0
  2  3  1  0  0  0  0
  2  4  2  0  0  0  0
  4  5  1  0  0  0  0
  5  6  2  0  0  0  0
  5 11  1  0  0  0  0
  6  7  1  0  0  0  0
  6  9  1  0  0  0  0
  7  8  2  0  0  0  0
  9 10  2  0  0  0  0
  9 12  1  0  0  0  0
 10 11  1  0  0  0  0
 12 13  3  0  0  0  0
M  END
>  <CHROM.1>
35.79849108,33.89499657,24.84823959,0.31462609,-0.63346785,-0.59743921

>  <Name>
ligand

>  <RI>
0

>  <Rbt.Current_Directory>
/home/itssahil/PROJECTS/Mol_Feturizer/New_Systems/rnas/3GCA

>  <Rbt.Executable>
rbdock ($Id: //depot/dev/client3/rdock/2013.1/src/exe/rbdock.cxx#4 $)

>  <Rbt.Library>
libRbt.so (2013.1, Build901 2013/11/27)

>  <Rbt.Parameter_File>
/export/apps/rDock/src/rDock_2013.1_src/data/scripts/dock_solv.prm

>  <Rbt.Receptor>
prm/pocket_docking_7.prm

>  <SCORE>
-22.0123

>  <SCORE.INTER>
-22.0123

>  <SCORE.INTER.CONST>
1

>  <SCORE.INTER.POLAR>
0

>  <SCORE.INTER.ROT>
0

>  <SCORE.INTER.SOLV>
10.2925

>  <SCORE.INTER.VDW>
-21.7057

>  <SCORE.INTER.norm>
-1.69325

>  <SCORE.INTRA>
0

>  <SCORE.INTRA.DIHEDRAL>
0

>  <SCORE.INTRA.DIHEDRAL.0>
0

>  <SCORE.INTRA.POLAR>
0

>  <SCORE.INTRA.POLAR.0>
0

>  <SCORE.INTRA.REPUL>
0

>  <SCORE.INTRA.REPUL.0>
0

>  <SCORE.INTRA.SOLV>
0

>  <SCORE.INTRA.SOLV.lig_0>
-33.1994

>  <SCORE.INTRA.VDW>
0

>  <SCORE.INTRA.VDW.0>
0

>  <SCORE.INTRA.norm>
0

>  <SCORE.RESTR>
0

>  <SCORE.RESTR.CAVITY>
0

>  <SCORE.RESTR.norm>
0

>  <SCORE.SYSTEM>
0

>  <SCORE.SYSTEM.CONST>
0

>  <SCORE.SYSTEM.DIHEDRAL>
0

>  <SCORE.SYSTEM.SOLV>
0

>  <SCORE.SYSTEM.norm>
0

>  <SCORE.heavy>
13

>  <SCORE.norm>
-1.69325

>  <RMSD>
4.260

$$$$
ligand
 OpenBabel11021811473D
libRbt.so/2013.1/901 2013/11/27
 13 14  0  0  0  0  0  0  0  0999 V2000
   36.7643   35.7780   24.4122 N   0  0  0  0  0  0  0  0  0  0  0  0
   37.7743   35.4180   25.5786 C   0  0  0  0  0  0  0  0  0  0  0  0
   38.7905   36.3022   25.8838 N   0  0  0  0  0  0  0  0  0  0  0  0
   37.5187   34.2911   26.0968 N   0  0  0  0  0  0  0  0  0  0  0  0
   36.5430   33.3970   25.8458 C   0  0  0  0  0  0  0  0  0  0  0  0
   35.6355   33.6283   24.8770 C   0  0  0  0  0  0  0  0  0  0  0  0
   35.7713   34.9722   24.0580 C   0  0  0  0  0  0  0  0  0  0  0  0
   34.9630   35.1658   23.2080 O   0  0  0  0  0  0  0  0  0  0  0  0
   34.6179   32.4820   24.7290 C   0  0  0  0  0  0  0  0  0  0  0  0
   34.9642   31.5855   25.6595 C   0  0  0  0  0  0  0  0  0  0  0  0
   36.0610   31.9181   26.4082 N   0  0  0  0  0  0  0  0  0  0  0  0
   33.4895   32.4292   23.7723 C   0  0  0  0  0  0  0  0  0  0  0  0
   32.6394   32.4288   22.9885 N   0  0  0  0  0  0  0  0  0  0  0  0
  1  2  1  0  0  0  0
  1  7  1  0  0  0  0
  2  3  1  0  0  0  0
  2  4  2  0  0  0  0
  4  5  1  0  0  0  0
  5  6  2  0  0  0  0
  5 11  1  0  0  0  0
  6  7  1  0  0  0  0
  6  9  1  0  0  0  0
  7  8  2  0  0  0  0
  9 10  2  0  0  0  0
  9 12  1  0  0  0  0
 10 11  1  0  0  0  0
 12 13  3  0  0  0  0
M  END
>  <CHROM.1>
35.82227634,33.88017182,24.86257216,0.31778003,-0.63876202,-0.59902768

>  <Name>
ligand

>  <RI>
0

>  <Rbt.Current_Directory>
/home/itssahil/PROJECTS/Mol_Feturizer/New_Systems/rnas/3GCA

>  <Rbt.Executable>
rbdock ($Id: //depot/dev/client3/rdock/2013.1/src/exe/rbdock.cxx#4 $)

>  <Rbt.Library>
libRbt.so (2013.1, Build901 2013/11/27)

>  <Rbt.Parameter_File>
/export/apps/rDock/src/rDock_2013.1_src/data/scripts/dock_solv.prm

>  <Rbt.Receptor>
prm/pocket_docking_8.prm

>  <SCORE>
-22.022

>  <SCORE.INTER>
-22.022

>  <SCORE.INTER.CONST>
1

>  <SCORE.INTER.POLAR>
0

>  <SCORE.INTER.ROT>
0

>  <SCORE.INTER.SOLV>
10.2061

>  <SCORE.INTER.VDW>
-21.6834

>  <SCORE.INTER.norm>
-1.694

>  <SCORE.INTRA>
0

>  <SCORE.INTRA.DIHEDRAL>
0

>  <SCORE.INTRA.DIHEDRAL.0>
0

>  <SCORE.INTRA.POLAR>
0

>  <SCORE.INTRA.POLAR.0>
0

>  <SCORE.INTRA.REPUL>
0

>  <SCORE.INTRA.REPUL.0>
0

>  <SCORE.INTRA.SOLV>
0

>  <SCORE.INTRA.SOLV.lig_0>
-33.1994

>  <SCORE.INTRA.VDW>
0

>  <SCORE.INTRA.VDW.0>
0

>  <SCORE.INTRA.norm>
0

>  <SCORE.RESTR>
0

>  <SCORE.RESTR.CAVITY>
0

>  <SCORE.RESTR.norm>
0

>  <SCORE.SYSTEM>
0

>  <SCORE.SYSTEM.CONST>
0

>  <SCORE.SYSTEM.DIHEDRAL>
0

>  <SCORE.SYSTEM.SOLV>
0

>  <SCORE.SYSTEM.norm>
0

>  <SCORE.heavy>
13

>  <SCORE.norm>
-1.694

>  <RMSD>
4.260

$$$$
ligand
 OpenBabel11021811473D
libRbt.so/2013.1/901 2013/11/27
 13 14  0  0  0  0  0  0  0  0999 V2000
   36.7544   35.7975   24.3964 N   0  0  0  0  0  0  0  0  0  0  0  0
   37.7674   35.4313   25.5583 C   0  0  0  0  0  0  0  0  0  0  0  0
   38.7895   36.3099   25.8599 N   0  0  0  0  0  0  0  0  0  0  0  0
   37.5082   34.3052   26.0766 N   0  0  0  0  0  0  0  0  0  0  0  0
   36.5268   33.4165   25.8290 C   0  0  0  0  0  0  0  0  0  0  0  0
   35.6164   33.6533   24.8642 C   0  0  0  0  0  0  0  0  0  0  0  0
   35.7558   34.9971   24.0457 C   0  0  0  0  0  0  0  0  0  0  0  0
   34.9449   35.1956   23.1993 O   0  0  0  0  0  0  0  0  0  0  0  0
   34.5923   32.5124   24.7196 C   0  0  0  0  0  0  0  0  0  0  0  0
   34.9378   31.6133   25.6479 C   0  0  0  0  0  0  0  0  0  0  0  0
   36.0394   31.9396   26.3922 N   0  0  0  0  0  0  0  0  0  0  0  0
   33.4596   32.4663   23.7676 C   0  0  0  0  0  0  0  0  0  0  0  0
   32.6062   32.4709   22.9874 N   0  0  0  0  0  0  0  0  0  0  0  0
  1  2  1  0  0  0  0
  1  7  1  0  0  0  0
  2  3  1  0  0  0  0
  2  4  2  0  0  0  0
  4  5  1  0  0  0  0
  5  6  2  0  0  0  0
  5 11  1  0  0  0  0
  6  7  1  0  0  0  0
  6  9  1  0  0  0  0
  7  8  2  0  0  0  0
  9 10  2  0  0  0  0
  9 12  1  0  0  0  0
 10 11  1  0  0  0  0
 12 13  3  0  0  0  0
M  END
>  <CHROM.1>
35.80444171,33.90418148,24.84919879,0.31539434,-0.63235584,-0.59962904

>  <Name>
ligand

>  <RI>
0

>  <Rbt.Current_Directory>
/home/itssahil/PROJECTS/Mol_Feturizer/New_Systems/rnas/3GCA

>  <Rbt.Executable>
rbdock ($Id: //depot/dev/client3/rdock/2013.1/src/exe/rbdock.cxx#4 $)

>  <Rbt.Library>
libRbt.so (2013.1, Build901 2013/11/27)

>  <Rbt.Parameter_File>
/export/apps/rDock/src/rDock_2013.1_src/data/scripts/dock_solv.prm

>  <Rbt.Receptor>
prm/pocket_docking_8.prm

>  <SCORE>
-22.0188

>  <SCORE.INTER>
-22.0188

>  <SCORE.INTER.CONST>
1

>  <SCORE.INTER.POLAR>
0

>  <SCORE.INTER.ROT>
0

>  <SCORE.INTER.SOLV>
10.2741

>  <SCORE.INTER.VDW>
-21.7039

>  <SCORE.INTER.norm>
-1.69375

>  <SCORE.INTRA>
0

>  <SCORE.INTRA.DIHEDRAL>
0

>  <SCORE.INTRA.DIHEDRAL.0>
0

>  <SCORE.INTRA.POLAR>
0

>  <SCORE.INTRA.POLAR.0>
0

>  <SCORE.INTRA.REPUL>
0

>  <SCORE.INTRA.REPUL.0>
0

>  <SCORE.INTRA.SOLV>
0

>  <SCORE.INTRA.SOLV.lig_0>
-33.1994

>  <SCORE.INTRA.VDW>
0

>  <SCORE.INTRA.VDW.0>
0

>  <SCORE.INTRA.norm>
0

>  <SCORE.RESTR>
0

>  <SCORE.RESTR.CAVITY>
0

>  <SCORE.RESTR.norm>
0

>  <SCORE.SYSTEM>
0

>  <SCORE.SYSTEM.CONST>
0

>  <SCORE.SYSTEM.DIHEDRAL>
0

>  <SCORE.SYSTEM.SOLV>
0

>  <SCORE.SYSTEM.norm>
0

>  <SCORE.heavy>
13

>  <SCORE.norm>
-1.69375

>  <RMSD>
4.260

$$$$
ligand
 OpenBabel11021811473D
libRbt.so/2013.1/901 2013/11/27
 13 14  0  0  0  0  0  0  0  0999 V2000
   36.7754   35.7916   24.3736 N   0  0  0  0  0  0  0  0  0  0  0  0
   37.7886   35.4293   25.5366 C   0  0  0  0  0  0  0  0  0  0  0  0
   38.8143   36.3061   25.8310 N   0  0  0  0  0  0  0  0  0  0  0  0
   37.5257   34.3077   26.0628 N   0  0  0  0  0  0  0  0  0  0  0  0
   36.5406   33.4211   25.8224 C   0  0  0  0  0  0  0  0  0  0  0  0
   35.6300   33.6549   24.8571 C   0  0  0  0  0  0  0  0  0  0  0  0
   35.7734   34.9926   24.0296 C   0  0  0  0  0  0  0  0  0  0  0  0
   34.9621   35.1886   23.1828 O   0  0  0  0  0  0  0  0  0  0  0  0
   34.6013   32.5169   24.7215 C   0  0  0  0  0  0  0  0  0  0  0  0
   34.9446   31.6227   25.6554 C   0  0  0  0  0  0  0  0  0  0  0  0
   36.0484   31.9499   26.3961 N   0  0  0  0  0  0  0  0  0  0  0  0
   33.4672   32.4688   23.7712 C   0  0  0  0  0  0  0  0  0  0  0  0
   32.6129   32.4714   22.9921 N   0  0  0  0  0  0  0  0  0  0  0  0
  1  2  1  0  0  0  0
  1  7  1  0  0  0  0
  2  3  1  0  0  0  0
  2  4  2  0  0  0  0
  4  5  1  0  0  0  0
  5  6  2  0  0  0  0
  5 11  1  0  0  0  0
  6  7  1  0  0  0  0
  6  9  1  0  0  0  0
  7  8  2  0  0  0  0
  9 10  2  0  0  0  0
  9 12  1  0  0  0  0
 10 11  1  0  0  0  0
 12 13  3  0  0  0  0
M  END
>  <CHROM.1>
35.81892108,33.90493786,24.84026075,0.31242379,-0.62916048,-0.60807271

>  <Name>
ligand

>  <RI>
0

>  <Rbt.Current_Directory>
/home/itssahil/PROJECTS/Mol_Feturizer/New_Systems/rnas/3GCA

>  <Rbt.Executable>
rbdock ($Id: //depot/dev/client3/rdock/2013.1/src/exe/rbdock.cxx#4 $)

>  <Rbt.Library>
libRbt.so (2013.1, Build901 2013/11/27)

>  <Rbt.Parameter_File>
/export/apps/rDock/src/rDock_2013.1_src/data/scripts/dock_solv.prm

>  <Rbt.Receptor>
prm/pocket_docking_4.prm

>  <SCORE>
-21.9866

>  <SCORE.INTER>
-21.9866

>  <SCORE.INTER.CONST>
1

>  <SCORE.INTER.POLAR>
0

>  <SCORE.INTER.ROT>
0

>  <SCORE.INTER.SOLV>
10.2841

>  <SCORE.INTER.VDW>
-21.6858

>  <SCORE.INTER.norm>
-1.69127

>  <SCORE.INTRA>
0

>  <SCORE.INTRA.DIHEDRAL>
0

>  <SCORE.INTRA.DIHEDRAL.0>
0

>  <SCORE.INTRA.POLAR>
0

>  <SCORE.INTRA.POLAR.0>
0

>  <SCORE.INTRA.REPUL>
0

>  <SCORE.INTRA.REPUL.0>
0

>  <SCORE.INTRA.SOLV>
0

>  <SCORE.INTRA.SOLV.lig_0>
-33.1994

>  <SCORE.INTRA.VDW>
0

>  <SCORE.INTRA.VDW.0>
0

>  <SCORE.INTRA.norm>
0

>  <SCORE.RESTR>
0

>  <SCORE.RESTR.CAVITY>
0

>  <SCORE.RESTR.norm>
0

>  <SCORE.SYSTEM>
0

>  <SCORE.SYSTEM.CONST>
0

>  <SCORE.SYSTEM.DIHEDRAL>
0

>  <SCORE.SYSTEM.SOLV>
0

>  <SCORE.SYSTEM.norm>
0

>  <SCORE.heavy>
13

>  <SCORE.norm>
-1.69127

>  <RMSD>
4.261

$$$$
ligand
 OpenBabel11021811473D
libRbt.so/2013.1/901 2013/11/27
 13 14  0  0  0  0  0  0  0  0999 V2000
   36.7189   35.8544   24.3230 N   0  0  0  0  0  0  0  0  0  0  0  0
   37.7077   35.4965   25.5081 C   0  0  0  0  0  0  0  0  0  0  0  0
   38.7299   36.3723   25.8176 N   0  0  0  0  0  0  0  0  0  0  0  0
   37.4314   34.3788   26.0356 N   0  0  0  0  0  0  0  0  0  0  0  0
   36.4488   33.4934   25.7811 C   0  0  0  0  0  0  0  0  0  0  0  0
   35.5582   33.7238   24.7965 C   0  0  0  0  0  0  0  0  0  0  0  0
   35.7217   35.0561   23.9639 C   0  0  0  0  0  0  0  0  0  0  0  0
   34.9280   35.2490   23.1000 O   0  0  0  0  0  0  0  0  0  0  0  0
   34.5292   32.5877   24.6472 C   0  0  0  0  0  0  0  0  0  0  0  0
   34.8514   31.6983   25.5931 C   0  0  0  0  0  0  0  0  0  0  0  0
   35.9412   32.0270   26.3536 N   0  0  0  0  0  0  0  0  0  0  0  0
   33.4141   32.5368   23.6749 C   0  0  0  0  0  0  0  0  0  0  0  0
   32.5754   32.5371   22.8789 N   0  0  0  0  0  0  0  0  0  0  0  0
  1  2  1  0  0  0  0
  1  7  1  0  0  0  0
  2  3  1  0  0  0  0
  2  4  2  0  0  0  0
  4  5  1  0  0  0  0
  5  6  2  0  0  0  0
  5 11  1  0  0  0  0
  6  7  1  0  0  0  0
  6  9  1  0  0  0  0
  7  8  2  0  0  0  0
  9 10  2  0  0  0  0
  9 12  1  0  0  0  0
 10 11  1  0  0  0  0
 12 13  3  0  0  0  0
M  END
>  <CHROM.1>
35.74807013,33.97319532,24.78183526,0.29537373,-0.64381379,-0.62422951

>  <Name>
ligand

>  <RI>
0

>  <Rbt.Current_Directory>
/home/itssahil/PROJECTS/Mol_Feturizer/New_Systems/rnas/3GCA

>  <Rbt.Executable>
rbdock ($Id: //depot/dev/client3/rdock/2013.1/src/exe/rbdock.cxx#4 $)

>  <Rbt.Library>
libRbt.so (2013.1, Build901 2013/11/27)

>  <Rbt.Parameter_File>
/export/apps/rDock/src/rDock_2013.1_src/data/scripts/dock_solv.prm

>  <Rbt.Receptor>
prm/pocket_docking_4.prm

>  <SCORE>
-22.0205

>  <SCORE.INTER>
-22.0205

>  <SCORE.INTER.CONST>
1

>  <SCORE.INTER.POLAR>
0

>  <SCORE.INTER.ROT>
0

>  <SCORE.INTER.SOLV>
10.5176

>  <SCORE.INTER.VDW>
-21.7862

>  <SCORE.INTER.norm>
-1.69389

>  <SCORE.INTRA>
0

>  <SCORE.INTRA.DIHEDRAL>
0

>  <SCORE.INTRA.DIHEDRAL.0>
0

>  <SCORE.INTRA.POLAR>
0

>  <SCORE.INTRA.POLAR.0>
0

>  <SCORE.INTRA.REPUL>
0

>  <SCORE.INTRA.REPUL.0>
0

>  <SCORE.INTRA.SOLV>
0

>  <SCORE.INTRA.SOLV.lig_0>
-33.1994

>  <SCORE.INTRA.VDW>
0

>  <SCORE.INTRA.VDW.0>
0

>  <SCORE.INTRA.norm>
0

>  <SCORE.RESTR>
0

>  <SCORE.RESTR.CAVITY>
0

>  <SCORE.RESTR.norm>
0

>  <SCORE.SYSTEM>
0

>  <SCORE.SYSTEM.CONST>
0

>  <SCORE.SYSTEM.DIHEDRAL>
0

>  <SCORE.SYSTEM.SOLV>
0

>  <SCORE.SYSTEM.norm>
0

>  <SCORE.heavy>
13

>  <SCORE.norm>
-1.69389

>  <RMSD>
4.261

$$$$
ligand
 OpenBabel11021811473D
libRbt.so/2013.1/901 2013/11/27
 13 14  0  0  0  0  0  0  0  0999 V2000
   36.7253   35.8536   24.3205 N   0  0  0  0  0  0  0  0  0  0  0  0
   37.7160   35.4929   25.5032 C   0  0  0  0  0  0  0  0  0  0  0  0
   38.7392   36.3676   25.8124 N   0  0  0  0  0  0  0  0  0  0  0  0
   37.4399   34.3745   26.0292 N   0  0  0  0  0  0  0  0  0  0  0  0
   36.4563   33.4901   25.7749 C   0  0  0  0  0  0  0  0  0  0  0  0
   35.5641   33.7228   24.7922 C   0  0  0  0  0  0  0  0  0  0  0  0
   35.7269   35.0565   23.9617 C   0  0  0  0  0  0  0  0  0  0  0  0
   34.9318   35.2514   23.0996 O   0  0  0  0  0  0  0  0  0  0  0  0
   34.5342   32.5876   24.6428 C   0  0  0  0  0  0  0  0  0  0  0  0
   34.8575   31.6964   25.5865 C   0  0  0  0  0  0  0  0  0  0  0  0
   35.9488   32.0230   26.3457 N   0  0  0  0  0  0  0  0  0  0  0  0
   33.4173   32.5391   23.6723 C   0  0  0  0  0  0  0  0  0  0  0  0
   32.5773   32.5413   22.8778 N   0  0  0  0  0  0  0  0  0  0  0  0
  1  2  1  0  0  0  0
  1  7  1  0  0  0  0
  2  3  1  0  0  0  0
  2  4  2  0  0  0  0
  4  5  1  0  0  0  0
  5  6  2  0  0  0  0
  5 11  1  0  0  0  0
  6  7  1  0  0  0  0
  6  9  1  0  0  0  0
  7  8  2  0  0  0  0
  9 10  2  0  0  0  0
  9 12  1  0  0  0  0
 10 11  1  0  0  0  0
 12 13  3  0  0  0  0
M  END
>  <CHROM.1>
35.75410613,33.97212167,24.77771678,0.29603994,-0.64202396,-0.62207230

>  <Name>
ligand

>  <RI>
0

>  <Rbt.Current_Directory>
/home/itssahil/PROJECTS/Mol_Feturizer/New_Systems/rnas/3GCA

>  <Rbt.Executable>
rbdock ($Id: //depot/dev/client3/rdock/2013.1/src/exe/rbdock.cxx#4 $)

>  <Rbt.Library>
libRbt.so (2013.1, Build901 2013/11/27)

>  <Rbt.Parameter_File>
/export/apps/rDock/src/rDock_2013.1_src/data/scripts/dock_solv.prm

>  <Rbt.Receptor>
prm/pocket_docking_4.prm

>  <SCORE>
-22.0204

>  <SCORE.INTER>
-22.0204

>  <SCORE.INTER.CONST>
1

>  <SCORE.INTER.POLAR>
0

>  <SCORE.INTER.ROT>
0

>  <SCORE.INTER.SOLV>
10.5117

>  <SCORE.INTER.VDW>
-21.7842

>  <SCORE.INTER.norm>
-1.69388

>  <SCORE.INTRA>
0

>  <SCORE.INTRA.DIHEDRAL>
0

>  <SCORE.INTRA.DIHEDRAL.0>
0

>  <SCORE.INTRA.POLAR>
0

>  <SCORE.INTRA.POLAR.0>
0

>  <SCORE.INTRA.REPUL>
0

>  <SCORE.INTRA.REPUL.0>
0

>  <SCORE.INTRA.SOLV>
0

>  <SCORE.INTRA.SOLV.lig_0>
-33.1994

>  <SCORE.INTRA.VDW>
0

>  <SCORE.INTRA.VDW.0>
0

>  <SCORE.INTRA.norm>
0

>  <SCORE.RESTR>
0

>  <SCORE.RESTR.CAVITY>
0

>  <SCORE.RESTR.norm>
0

>  <SCORE.SYSTEM>
0

>  <SCORE.SYSTEM.CONST>
0

>  <SCORE.SYSTEM.DIHEDRAL>
0

>  <SCORE.SYSTEM.SOLV>
0

>  <SCORE.SYSTEM.norm>
0

>  <SCORE.heavy>
13

>  <SCORE.norm>
-1.69388

>  <RMSD>
4.261

$$$$
ligand
 OpenBabel11021811473D
libRbt.so/2013.1/901 2013/11/27
 13 14  0  0  0  0  0  0  0  0999 V2000
   36.7624   35.7906   24.4068 N   0  0  0  0  0  0  0  0  0  0  0  0
   37.7682   35.4302   25.5768 C   0  0  0  0  0  0  0  0  0  0  0  0
   38.7847   36.3132   25.8842 N   0  0  0  0  0  0  0  0  0  0  0  0
   37.5093   34.3042   26.0952 N   0  0  0  0  0  0  0  0  0  0  0  0
   36.5330   33.4114   25.8421 C   0  0  0  0  0  0  0  0  0  0  0  0
   35.6290   33.6430   24.8702 C   0  0  0  0  0  0  0  0  0  0  0  0
   35.7694   34.9858   24.0503 C   0  0  0  0  0  0  0  0  0  0  0  0
   34.9640   35.1798   23.1975 O   0  0  0  0  0  0  0  0  0  0  0  0
   34.6101   32.4980   24.7202 C   0  0  0  0  0  0  0  0  0  0  0  0
   34.9521   31.6019   25.6527 C   0  0  0  0  0  0  0  0  0  0  0  0
   36.0470   31.9337   26.4045 N   0  0  0  0  0  0  0  0  0  0  0  0
   33.4846   32.4460   23.7600 C   0  0  0  0  0  0  0  0  0  0  0  0
   32.6370   32.4460   22.9735 N   0  0  0  0  0  0  0  0  0  0  0  0
  1  2  1  0  0  0  0
  1  7  1  0  0  0  0
  2  3  1  0  0  0  0
  2  4  2  0  0  0  0
  4  5  1  0  0  0  0
  5  6  2  0  0  0  0
  5 11  1  0  0  0  0
  6  7  1  0  0  0  0
  6  9  1  0  0  0  0
  7  8  2  0  0  0  0
  9 10  2  0  0  0  0
  9 12  1  0  0  0  0
 10 11  1  0  0  0  0
 12 13  3  0  0  0  0
M  END
>  <CHROM.1>
35.81614227,33.89455138,24.85611957,0.31402845,-0.64051696,-0.60228792

>  <Name>
ligand

>  <RI>
0

>  <Rbt.Current_Directory>
/home/itssahil/PROJECTS/Mol_Feturizer/New_Systems/rnas/3GCA

>  <Rbt.Executable>
rbdock ($Id: //depot/dev/client3/rdock/2013.1/src/exe/rbdock.cxx#4 $)

>  <Rbt.Library>
libRbt.so (2013.1, Build901 2013/11/27)

>  <Rbt.Parameter_File>
/export/apps/rDock/src/rDock_2013.1_src/data/scripts/dock_solv.prm

>  <Rbt.Receptor>
prm/pocket_docking_5.prm

>  <SCORE>
-22.0185

>  <SCORE.INTER>
-22.0185

>  <SCORE.INTER.CONST>
1

>  <SCORE.INTER.POLAR>
0

>  <SCORE.INTER.ROT>
0

>  <SCORE.INTER.SOLV>
10.2149

>  <SCORE.INTER.VDW>
-21.684

>  <SCORE.INTER.norm>
-1.69373

>  <SCORE.INTRA>
0

>  <SCORE.INTRA.DIHEDRAL>
0

>  <SCORE.INTRA.DIHEDRAL.0>
0

>  <SCORE.INTRA.POLAR>
0

>  <SCORE.INTRA.POLAR.0>
0

>  <SCORE.INTRA.REPUL>
0

>  <SCORE.INTRA.REPUL.0>
0

>  <SCORE.INTRA.SOLV>
0

>  <SCORE.INTRA.SOLV.lig_0>
-33.1994

>  <SCORE.INTRA.VDW>
0

>  <SCORE.INTRA.VDW.0>
0

>  <SCORE.INTRA.norm>
0

>  <SCORE.RESTR>
0

>  <SCORE.RESTR.CAVITY>
0

>  <SCORE.RESTR.norm>
0

>  <SCORE.SYSTEM>
0

>  <SCORE.SYSTEM.CONST>
0

>  <SCORE.SYSTEM.DIHEDRAL>
0

>  <SCORE.SYSTEM.SOLV>
0

>  <SCORE.SYSTEM.norm>
0

>  <SCORE.heavy>
13

>  <SCORE.norm>
-1.69373

>  <RMSD>
4.261

$$$$
ligand
 OpenBabel11021811473D
libRbt.so/2013.1/901 2013/11/27
 13 14  0  0  0  0  0  0  0  0999 V2000
   36.7629   35.7816   24.3137 N   0  0  0  0  0  0  0  0  0  0  0  0
   37.7656   35.3798   25.4728 C   0  0  0  0  0  0  0  0  0  0  0  0
   38.8136   36.2262   25.7776 N   0  0  0  0  0  0  0  0  0  0  0  0
   37.4734   34.2595   25.9859 N   0  0  0  0  0  0  0  0  0  0  0  0
   36.4657   33.4015   25.7351 C   0  0  0  0  0  0  0  0  0  0  0  0
   35.5621   33.6700   24.7723 C   0  0  0  0  0  0  0  0  0  0  0  0
   35.7406   35.0130   23.9602 C   0  0  0  0  0  0  0  0  0  0  0  0
   34.9352   35.2396   23.1155 O   0  0  0  0  0  0  0  0  0  0  0  0
   34.5043   32.5607   24.6233 C   0  0  0  0  0  0  0  0  0  0  0  0
   34.8237   31.6473   25.5470 C   0  0  0  0  0  0  0  0  0  0  0  0
   35.9352   31.9371   26.2917 N   0  0  0  0  0  0  0  0  0  0  0  0
   33.3699   32.5529   23.6722 C   0  0  0  0  0  0  0  0  0  0  0  0
   32.5164   32.5867   22.8929 N   0  0  0  0  0  0  0  0  0  0  0  0
  1  2  1  0  0  0  0
  1  7  1  0  0  0  0
  2  3  1  0  0  0  0
  2  4  2  0  0  0  0
  4  5  1  0  0  0  0
  5  6  2  0  0  0  0
  5 11  1  0  0  0  0
  6  7  1  0  0  0  0
  6  9  1  0  0  0  0
  7  8  2  0  0  0  0
  9 10  2  0  0  0  0
  9 12  1  0  0  0  0
 10 11  1  0  0  0  0
 12 13  3  0  0  0  0
M  END
>  <CHROM.1>
35.75741343,33.91520461,24.75838240,0.28592612,-0.61464792,-0.61202653

>  <Name>
ligand

>  <RI>
0

>  <Rbt.Current_Directory>
/home/itssahil/PROJECTS/Mol_Feturizer/New_Systems/rnas/3GCA

>  <Rbt.Executable>
rbdock ($Id: //depot/dev/client3/rdock/2013.1/src/exe/rbdock.cxx#4 $)

>  <Rbt.Library>
libRbt.so (2013.1, Build901 2013/11/27)

>  <Rbt.Parameter_File>
/export/apps/rDock/src/rDock_2013.1_src/data/scripts/dock_solv.prm

>  <Rbt.Receptor>
prm/pocket_docking_5.prm

>  <SCORE>
-21.9956

>  <SCORE.INTER>
-21.9956

>  <SCORE.INTER.CONST>
1

>  <SCORE.INTER.POLAR>
0

>  <SCORE.INTER.ROT>
0

>  <SCORE.INTER.SOLV>
10.6145

>  <SCORE.INTER.VDW>
-21.8019

>  <SCORE.INTER.norm>
-1.69197

>  <SCORE.INTRA>
0

>  <SCORE.INTRA.DIHEDRAL>
0

>  <SCORE.INTRA.DIHEDRAL.0>
0

>  <SCORE.INTRA.POLAR>
0

>  <SCORE.INTRA.POLAR.0>
0

>  <SCORE.INTRA.REPUL>
0

>  <SCORE.INTRA.REPUL.0>
0

>  <SCORE.INTRA.SOLV>
0

>  <SCORE.INTRA.SOLV.lig_0>
-33.1994

>  <SCORE.INTRA.VDW>
0

>  <SCORE.INTRA.VDW.0>
0

>  <SCORE.INTRA.norm>
0

>  <SCORE.RESTR>
0

>  <SCORE.RESTR.CAVITY>
0

>  <SCORE.RESTR.norm>
0

>  <SCORE.SYSTEM>
0

>  <SCORE.SYSTEM.CONST>
0

>  <SCORE.SYSTEM.DIHEDRAL>
0

>  <SCORE.SYSTEM.SOLV>
0

>  <SCORE.SYSTEM.norm>
0

>  <SCORE.heavy>
13

>  <SCORE.norm>
-1.69197

>  <RMSD>
4.261

$$$$
ligand
 OpenBabel11021811473D
libRbt.so/2013.1/901 2013/11/27
 13 14  0  0  0  0  0  0  0  0999 V2000
   36.7652   35.8034   24.3803 N   0  0  0  0  0  0  0  0  0  0  0  0
   37.7578   35.4398   25.5605 C   0  0  0  0  0  0  0  0  0  0  0  0
   38.7790   36.3157   25.8731 N   0  0  0  0  0  0  0  0  0  0  0  0
   37.4850   34.3183   26.0816 N   0  0  0  0  0  0  0  0  0  0  0  0
   36.5035   33.4325   25.8238 C   0  0  0  0  0  0  0  0  0  0  0  0
   35.6099   33.6675   24.8430 C   0  0  0  0  0  0  0  0  0  0  0  0
   35.7686   35.0055   24.0186 C   0  0  0  0  0  0  0  0  0  0  0  0
   34.9723   35.2024   23.1580 O   0  0  0  0  0  0  0  0  0  0  0  0
   34.5828   32.5303   24.6890 C   0  0  0  0  0  0  0  0  0  0  0  0
   34.9092   31.6355   25.6283 C   0  0  0  0  0  0  0  0  0  0  0  0
   36.0003   31.9614   26.3882 N   0  0  0  0  0  0  0  0  0  0  0  0
   33.4653   32.4835   23.7192 C   0  0  0  0  0  0  0  0  0  0  0  0
   32.6246   32.4872   22.9254 N   0  0  0  0  0  0  0  0  0  0  0  0
  1  2  1  0  0  0  0
  1  7  1  0  0  0  0
  2  3  1  0  0  0  0
  2  4  2  0  0  0  0
  4  5  1  0  0  0  0
  5  6  2  0  0  0  0
  5 11  1  0  0  0  0
  6  7  1  0  0  0  0
  6  9  1  0  0  0  0
  7  8  2  0  0  0  0
  9 10  2  0  0  0  0
  9 12  1  0  0  0  0
 10 11  1  0  0  0  0
 12 13  3  0  0  0  0
M  END
>  <CHROM.1>
35.79927464,33.91735647,24.82949784,0.29926031,-0.64288484,-0.61544943

>  <Name>
ligand

>  <RI>
0

>  <Rbt.Current_Directory>
/home/itssahil/PROJECTS/Mol_Feturizer/New_Systems/rnas/3GCA

>  <Rbt.Executable>
rbdock ($Id: //depot/dev/client3/rdock/2013.1/src/exe/rbdock.cxx#4 $)

>  <Rbt.Library>
libRbt.so (2013.1, Build901 2013/11/27)

>  <Rbt.Parameter_File>
/export/apps/rDock/src/rDock_2013.1_src/data/scripts/dock_solv.prm

>  <Rbt.Receptor>
prm/pocket_docking_6.prm

>  <SCORE>
-21.9551

>  <SCORE.INTER>
-21.9551

>  <SCORE.INTER.CONST>
1

>  <SCORE.INTER.POLAR>
0

>  <SCORE.INTER.ROT>
0

>  <SCORE.INTER.SOLV>
10.2839

>  <SCORE.INTER.VDW>
-21.6647

>  <SCORE.INTER.norm>
-1.68885

>  <SCORE.INTRA>
0

>  <SCORE.INTRA.DIHEDRAL>
0

>  <SCORE.INTRA.DIHEDRAL.0>
0

>  <SCORE.INTRA.POLAR>
0

>  <SCORE.INTRA.POLAR.0>
0

>  <SCORE.INTRA.REPUL>
0

>  <SCORE.INTRA.REPUL.0>
0

>  <SCORE.INTRA.SOLV>
0

>  <SCORE.INTRA.SOLV.lig_0>
-33.1994

>  <SCORE.INTRA.VDW>
0

>  <SCORE.INTRA.VDW.0>
0

>  <SCORE.INTRA.norm>
0

>  <SCORE.RESTR>
0

>  <SCORE.RESTR.CAVITY>
0

>  <SCORE.RESTR.norm>
0

>  <SCORE.SYSTEM>
0

>  <SCORE.SYSTEM.CONST>
0

>  <SCORE.SYSTEM.DIHEDRAL>
0

>  <SCORE.SYSTEM.SOLV>
0

>  <SCORE.SYSTEM.norm>
0

>  <SCORE.heavy>
13

>  <SCORE.norm>
-1.68885

>  <RMSD>
4.261

$$$$
ligand
 OpenBabel11021811473D
libRbt.so/2013.1/901 2013/11/27
 13 14  0  0  0  0  0  0  0  0999 V2000
   36.7554   35.7988   24.3950 N   0  0  0  0  0  0  0  0  0  0  0  0
   37.7727   35.4280   25.5517 C   0  0  0  0  0  0  0  0  0  0  0  0
   38.7972   36.3044   25.8515 N   0  0  0  0  0  0  0  0  0  0  0  0
   37.5139   34.3010   26.0681 N   0  0  0  0  0  0  0  0  0  0  0  0
   36.5301   33.4143   25.8222 C   0  0  0  0  0  0  0  0  0  0  0  0
   35.6163   33.6550   24.8617 C   0  0  0  0  0  0  0  0  0  0  0  0
   35.7542   35.0008   24.0463 C   0  0  0  0  0  0  0  0  0  0  0  0
   34.9401   35.2028   23.2037 O   0  0  0  0  0  0  0  0  0  0  0  0
   34.5898   32.5160   24.7182 C   0  0  0  0  0  0  0  0  0  0  0  0
   34.9378   31.6139   25.6427 C   0  0  0  0  0  0  0  0  0  0  0  0
   36.0430   31.9366   26.3833 N   0  0  0  0  0  0  0  0  0  0  0  0
   33.4532   32.4741   23.7707 C   0  0  0  0  0  0  0  0  0  0  0  0
   32.5966   32.4821   22.9940 N   0  0  0  0  0  0  0  0  0  0  0  0
  1  2  1  0  0  0  0
  1  7  1  0  0  0  0
  2  3  1  0  0  0  0
  2  4  2  0  0  0  0
  4  5  1  0  0  0  0
  5  6  2  0  0  0  0
  5 11  1  0  0  0  0
  6  7  1  0  0  0  0
  6  9  1  0  0  0  0
  7  8  2  0  0  0  0
  9 10  2  0  0  0  0
  9 12  1  0  0  0  0
 10 11  1  0  0  0  0
 12 13  3  0  0  0  0
M  END
>  <CHROM.1>
35.80454684,33.90567429,24.84661084,0.31675989,-0.62815409,-0.59613057

>  <Name>
ligand

>  <RI>
0

>  <Rbt.Current_Directory>
/home/itssahil/PROJECTS/Mol_Feturizer/New_Systems/rnas/3GCA

>  <Rbt.Executable>
rbdock ($Id: //depot/dev/client3/rdock/2013.1/src/exe/rbdock.cxx#4 $)

>  <Rbt.Library>
libRbt.so (2013.1, Build901 2013/11/27)

>  <Rbt.Parameter_File>
/export/apps/rDock/src/rDock_2013.1_src/data/scripts/dock_solv.prm

>  <Rbt.Receptor>
prm/pocket_docking_7.prm

>  <SCORE>
-22.0143

>  <SCORE.INTER>
-22.0143

>  <SCORE.INTER.CONST>
1

>  <SCORE.INTER.POLAR>
0

>  <SCORE.INTER.ROT>
0

>  <SCORE.INTER.SOLV>
10.2823

>  <SCORE.INTER.VDW>
-21.7036

>  <SCORE.INTER.norm>
-1.69341

>  <SCORE.INTRA>
0

>  <SCORE.INTRA.DIHEDRAL>
0

>  <SCORE.INTRA.DIHEDRAL.0>
0

>  <SCORE.INTRA.POLAR>
0

>  <SCORE.INTRA.POLAR.0>
0

>  <SCORE.INTRA.REPUL>
0

>  <SCORE.INTRA.REPUL.0>
0

>  <SCORE.INTRA.SOLV>
0

>  <SCORE.INTRA.SOLV.lig_0>
-33.1994

>  <SCORE.INTRA.VDW>
0

>  <SCORE.INTRA.VDW.0>
0

>  <SCORE.INTRA.norm>
0

>  <SCORE.RESTR>
0

>  <SCORE.RESTR.CAVITY>
0

>  <SCORE.RESTR.norm>
0

>  <SCORE.SYSTEM>
0

>  <SCORE.SYSTEM.CONST>
0

>  <SCORE.SYSTEM.DIHEDRAL>
0

>  <SCORE.SYSTEM.SOLV>
0

>  <SCORE.SYSTEM.norm>
0

>  <SCORE.heavy>
13

>  <SCORE.norm>
-1.69341

>  <RMSD>
4.261

$$$$
ligand
 OpenBabel11021811473D
libRbt.so/2013.1/901 2013/11/27
 13 14  0  0  0  0  0  0  0  0999 V2000
   36.7748   35.7762   24.4147 N   0  0  0  0  0  0  0  0  0  0  0  0
   37.7828   35.4169   25.5832 C   0  0  0  0  0  0  0  0  0  0  0  0
   38.7970   36.3024   25.8911 N   0  0  0  0  0  0  0  0  0  0  0  0
   37.5276   34.2893   26.1001 N   0  0  0  0  0  0  0  0  0  0  0  0
   36.5537   33.3940   25.8464 C   0  0  0  0  0  0  0  0  0  0  0  0
   35.6481   33.6246   24.8756 C   0  0  0  0  0  0  0  0  0  0  0  0
   35.7838   34.9691   24.0578 C   0  0  0  0  0  0  0  0  0  0  0  0
   34.9771   35.1621   23.2061 O   0  0  0  0  0  0  0  0  0  0  0  0
   34.6324   32.4769   24.7247 C   0  0  0  0  0  0  0  0  0  0  0  0
   34.9779   31.5803   25.6555 C   0  0  0  0  0  0  0  0  0  0  0  0
   36.0726   31.9140   26.4068 N   0  0  0  0  0  0  0  0  0  0  0  0
   33.5062   32.4231   23.7654 C   0  0  0  0  0  0  0  0  0  0  0  0
   32.6579   32.4220   22.9798 N   0  0  0  0  0  0  0  0  0  0  0  0
  1  2  1  0  0  0  0
  1  7  1  0  0  0  0
  2  3  1  0  0  0  0
  2  4  2  0  0  0  0
  4  5  1  0  0  0  0
  5  6  2  0  0  0  0
  5 11  1  0  0  0  0
  6  7  1  0  0  0  0
  6  9  1  0  0  0  0
  7  8  2  0  0  0  0
  9 10  2  0  0  0  0
  9 12  1  0  0  0  0
 10 11  1  0  0  0  0
 12 13  3  0  0  0  0
M  END
>  <CHROM.1>
35.83452696,33.87670062,24.86183287,0.31767706,-0.64140436,-0.59847895

>  <Name>
ligand

>  <RI>
0

>  <Rbt.Current_Directory>
/home/itssahil/PROJECTS/Mol_Feturizer/New_Systems/rnas/3GCA

>  <Rbt.Executable>
rbdock ($Id: //depot/dev/client3/rdock/2013.1/src/exe/rbdock.cxx#4 $)

>  <Rbt.Library>
libRbt.so (2013.1, Build901 2013/11/27)

>  <Rbt.Parameter_File>
/export/apps/rDock/src/rDock_2013.1_src/data/scripts/dock_solv.prm

>  <Rbt.Receptor>
prm/pocket_docking_8.prm

>  <SCORE>
-22.0606

>  <SCORE.INTER>
-22.0606

>  <SCORE.INTER.CONST>
1

>  <SCORE.INTER.POLAR>
0

>  <SCORE.INTER.ROT>
0

>  <SCORE.INTER.SOLV>
10.167

>  <SCORE.INTER.VDW>
-21.6961

>  <SCORE.INTER.norm>
-1.69697

>  <SCORE.INTRA>
0

>  <SCORE.INTRA.DIHEDRAL>
0

>  <SCORE.INTRA.DIHEDRAL.0>
0

>  <SCORE.INTRA.POLAR>
0

>  <SCORE.INTRA.POLAR.0>
0

>  <SCORE.INTRA.REPUL>
0

>  <SCORE.INTRA.REPUL.0>
0

>  <SCORE.INTRA.SOLV>
0

>  <SCORE.INTRA.SOLV.lig_0>
-33.1994

>  <SCORE.INTRA.VDW>
0

>  <SCORE.INTRA.VDW.0>
0

>  <SCORE.INTRA.norm>
0

>  <SCORE.RESTR>
0

>  <SCORE.RESTR.CAVITY>
0

>  <SCORE.RESTR.norm>
0

>  <SCORE.SYSTEM>
0

>  <SCORE.SYSTEM.CONST>
0

>  <SCORE.SYSTEM.DIHEDRAL>
0

>  <SCORE.SYSTEM.SOLV>
0

>  <SCORE.SYSTEM.norm>
0

>  <SCORE.heavy>
13

>  <SCORE.norm>
-1.69697

>  <RMSD>
4.261

$$$$
ligand
 OpenBabel11021811473D
libRbt.so/2013.1/901 2013/11/27
 13 14  0  0  0  0  0  0  0  0999 V2000
   36.7246   35.8499   24.3535 N   0  0  0  0  0  0  0  0  0  0  0  0
   37.7190   35.4970   25.5354 C   0  0  0  0  0  0  0  0  0  0  0  0
   38.7359   36.3793   25.8435 N   0  0  0  0  0  0  0  0  0  0  0  0
   37.4517   34.3767   26.0620 N   0  0  0  0  0  0  0  0  0  0  0  0
   36.4745   33.4849   25.8087 C   0  0  0  0  0  0  0  0  0  0  0  0
   35.5797   33.7106   24.8268 C   0  0  0  0  0  0  0  0  0  0  0  0
   35.7319   35.0453   23.9958 C   0  0  0  0  0  0  0  0  0  0  0  0
   34.9346   35.2341   23.1343 O   0  0  0  0  0  0  0  0  0  0  0  0
   34.5582   32.5678   24.6785 C   0  0  0  0  0  0  0  0  0  0  0  0
   34.8890   31.6792   25.6222 C   0  0  0  0  0  0  0  0  0  0  0  0
   35.9786   32.0142   26.3803 N   0  0  0  0  0  0  0  0  0  0  0  0
   33.4409   32.5107   23.7091 C   0  0  0  0  0  0  0  0  0  0  0  0
   32.6002   32.5064   22.9153 N   0  0  0  0  0  0  0  0  0  0  0  0
  1  2  1  0  0  0  0
  1  7  1  0  0  0  0
  2  3  1  0  0  0  0
  2  4  2  0  0  0  0
  4  5  1  0  0  0  0
  5  6  2  0  0  0  0
  5 11  1  0  0  0  0
  6  7  1  0  0  0  0
  6  9  1  0  0  0  0
  7  8  2  0  0  0  0
  9 10  2  0  0  0  0
  9 12  1  0  0  0  0
 10 11  1  0  0  0  0
 12 13  3  0  0  0  0
M  END
>  <CHROM.1>
35.76790246,33.96138981,24.81203604,0.30429140,-0.64564616,-0.61735877

>  <Name>
ligand

>  <RI>
0

>  <Rbt.Current_Directory>
/home/itssahil/PROJECTS/Mol_Feturizer/New_Systems/rnas/3GCA

>  <Rbt.Executable>
rbdock ($Id: //depot/dev/client3/rdock/2013.1/src/exe/rbdock.cxx#4 $)

>  <Rbt.Library>
libRbt.so (2013.1, Build901 2013/11/27)

>  <Rbt.Parameter_File>
/export/apps/rDock/src/rDock_2013.1_src/data/scripts/dock_solv.prm

>  <Rbt.Receptor>
prm/pocket_docking_8.prm

>  <SCORE>
-21.9609

>  <SCORE.INTER>
-21.9609

>  <SCORE.INTER.CONST>
1

>  <SCORE.INTER.POLAR>
0

>  <SCORE.INTER.ROT>
0

>  <SCORE.INTER.SOLV>
10.3989

>  <SCORE.INTER.VDW>
-21.7069

>  <SCORE.INTER.norm>
-1.6893

>  <SCORE.INTRA>
0

>  <SCORE.INTRA.DIHEDRAL>
0

>  <SCORE.INTRA.DIHEDRAL.0>
0

>  <SCORE.INTRA.POLAR>
0

>  <SCORE.INTRA.POLAR.0>
0

>  <SCORE.INTRA.REPUL>
0

>  <SCORE.INTRA.REPUL.0>
0

>  <SCORE.INTRA.SOLV>
0

>  <SCORE.INTRA.SOLV.lig_0>
-33.1994

>  <SCORE.INTRA.VDW>
0

>  <SCORE.INTRA.VDW.0>
0

>  <SCORE.INTRA.norm>
0

>  <SCORE.RESTR>
0

>  <SCORE.RESTR.CAVITY>
0

>  <SCORE.RESTR.norm>
0

>  <SCORE.SYSTEM>
0

>  <SCORE.SYSTEM.CONST>
0

>  <SCORE.SYSTEM.DIHEDRAL>
0

>  <SCORE.SYSTEM.SOLV>
0

>  <SCORE.SYSTEM.norm>
0

>  <SCORE.heavy>
13

>  <SCORE.norm>
-1.6893

>  <RMSD>
4.261

$$$$
ligand
 OpenBabel11021811473D
libRbt.so/2013.1/901 2013/11/27
 13 14  0  0  0  0  0  0  0  0999 V2000
   36.7539   35.7970   24.3990 N   0  0  0  0  0  0  0  0  0  0  0  0
   37.7681   35.4301   25.5596 C   0  0  0  0  0  0  0  0  0  0  0  0
   38.7886   36.3101   25.8627 N   0  0  0  0  0  0  0  0  0  0  0  0
   37.5112   34.3025   26.0755 N   0  0  0  0  0  0  0  0  0  0  0  0
   36.5314   33.4124   25.8265 C   0  0  0  0  0  0  0  0  0  0  0  0
   35.6202   33.6496   24.8625 C   0  0  0  0  0  0  0  0  0  0  0  0
   35.7567   34.9955   24.0469 C   0  0  0  0  0  0  0  0  0  0  0  0
   34.9450   35.1943   23.2012 O   0  0  0  0  0  0  0  0  0  0  0  0
   34.5981   32.5070   24.7158 C   0  0  0  0  0  0  0  0  0  0  0  0
   34.9458   31.6066   25.6420 C   0  0  0  0  0  0  0  0  0  0  0  0
   36.0471   31.9334   26.3866 N   0  0  0  0  0  0  0  0  0  0  0  0
   33.4651   32.4609   23.7642 C   0  0  0  0  0  0  0  0  0  0  0  0
   32.6115   32.4656   22.9843 N   0  0  0  0  0  0  0  0  0  0  0  0
  1  2  1  0  0  0  0
  1  7  1  0  0  0  0
  2  3  1  0  0  0  0
  2  4  2  0  0  0  0
  4  5  1  0  0  0  0
  5  6  2  0  0  0  0
  5 11  1  0  0  0  0
  6  7  1  0  0  0  0
  6  9  1  0  0  0  0
  7  8  2  0  0  0  0
  9 10  2  0  0  0  0
  9 12  1  0  0  0  0
 10 11  1  0  0  0  0
 12 13  3  0  0  0  0
M  END
>  <CHROM.1>
35.80772601,33.90085682,24.84799390,0.31764106,-0.63308324,-0.59610597

>  <Name>
ligand

>  <RI>
0

>  <Rbt.Current_Directory>
/home/itssahil/PROJECTS/Mol_Feturizer/New_Systems/rnas/3GCA

>  <Rbt.Executable>
rbdock ($Id: //depot/dev/client3/rdock/2013.1/src/exe/rbdock.cxx#4 $)

>  <Rbt.Library>
libRbt.so (2013.1, Build901 2013/11/27)

>  <Rbt.Parameter_File>
/export/apps/rDock/src/rDock_2013.1_src/data/scripts/dock_solv.prm

>  <Rbt.Receptor>
prm/pocket_docking_8.prm

>  <SCORE>
-22.0186

>  <SCORE.INTER>
-22.0186

>  <SCORE.INTER.CONST>
1

>  <SCORE.INTER.POLAR>
0

>  <SCORE.INTER.ROT>
0

>  <SCORE.INTER.SOLV>
10.2688

>  <SCORE.INTER.VDW>
-21.702

>  <SCORE.INTER.norm>
-1.69374

>  <SCORE.INTRA>
0

>  <SCORE.INTRA.DIHEDRAL>
0

>  <SCORE.INTRA.DIHEDRAL.0>
0

>  <SCORE.INTRA.POLAR>
0

>  <SCORE.INTRA.POLAR.0>
0

>  <SCORE.INTRA.REPUL>
0

>  <SCORE.INTRA.REPUL.0>
0

>  <SCORE.INTRA.SOLV>
0

>  <SCORE.INTRA.SOLV.lig_0>
-33.1994

>  <SCORE.INTRA.VDW>
0

>  <SCORE.INTRA.VDW.0>
0

>  <SCORE.INTRA.norm>
0

>  <SCORE.RESTR>
0

>  <SCORE.RESTR.CAVITY>
0

>  <SCORE.RESTR.norm>
0

>  <SCORE.SYSTEM>
0

>  <SCORE.SYSTEM.CONST>
0

>  <SCORE.SYSTEM.DIHEDRAL>
0

>  <SCORE.SYSTEM.SOLV>
0

>  <SCORE.SYSTEM.norm>
0

>  <SCORE.heavy>
13

>  <SCORE.norm>
-1.69374

>  <RMSD>
4.261

$$$$
ligand
 OpenBabel11021811473D
libRbt.so/2013.1/901 2013/11/27
 13 14  0  0  0  0  0  0  0  0999 V2000
   36.7697   35.8043   24.3720 N   0  0  0  0  0  0  0  0  0  0  0  0
   37.7888   35.4424   25.5299 C   0  0  0  0  0  0  0  0  0  0  0  0
   38.8128   36.3219   25.8225 N   0  0  0  0  0  0  0  0  0  0  0  0
   37.5318   34.3186   26.0542 N   0  0  0  0  0  0  0  0  0  0  0  0
   36.5488   33.4293   25.8155 C   0  0  0  0  0  0  0  0  0  0  0  0
   35.6335   33.6625   24.8545 C   0  0  0  0  0  0  0  0  0  0  0  0
   35.7690   35.0029   24.0299 C   0  0  0  0  0  0  0  0  0  0  0  0
   34.9537   35.1983   23.1869 O   0  0  0  0  0  0  0  0  0  0  0  0
   34.6081   32.5214   24.7200 C   0  0  0  0  0  0  0  0  0  0  0  0
   34.9582   31.6260   25.6501 C   0  0  0  0  0  0  0  0  0  0  0  0
   36.0639   31.9549   26.3872 N   0  0  0  0  0  0  0  0  0  0  0  0
   33.4703   32.4719   23.7742 C   0  0  0  0  0  0  0  0  0  0  0  0
   32.6129   32.4737   22.9985 N   0  0  0  0  0  0  0  0  0  0  0  0
  1  2  1  0  0  0  0
  1  7  1  0  0  0  0
  2  3  1  0  0  0  0
  2  4  2  0  0  0  0
  4  5  1  0  0  0  0
  5  6  2  0  0  0  0
  5 11  1  0  0  0  0
  6  7  1  0  0  0  0
  6  9  1  0  0  0  0
  7  8  2  0  0  0  0
  9 10  2  0  0  0  0
  9 12  1  0  0  0  0
 10 11  1  0  0  0  0
 12 13  3  0  0  0  0
M  END
>  <CHROM.1>
35.82147611,33.91324143,24.83751074,0.31869334,-0.62775842,-0.60176294

>  <Name>
ligand

>  <RI>
0

>  <Rbt.Current_Directory>
/home/itssahil/PROJECTS/Mol_Feturizer/New_Systems/rnas/3GCA

>  <Rbt.Executable>
rbdock ($Id: //depot/dev/client3/rdock/2013.1/src/exe/rbdock.cxx#4 $)

>  <Rbt.Library>
libRbt.so (2013.1, Build901 2013/11/27)

>  <Rbt.Parameter_File>
/export/apps/rDock/src/rDock_2013.1_src/data/scripts/dock_solv.prm

>  <Rbt.Receptor>
prm/pocket_docking_8.prm

>  <SCORE>
-21.9867

>  <SCORE.INTER>
-21.9867

>  <SCORE.INTER.CONST>
1

>  <SCORE.INTER.POLAR>
0

>  <SCORE.INTER.ROT>
0

>  <SCORE.INTER.SOLV>
10.2835

>  <SCORE.INTER.VDW>
-21.6856

>  <SCORE.INTER.norm>
-1.69128

>  <SCORE.INTRA>
0

>  <SCORE.INTRA.DIHEDRAL>
0

>  <SCORE.INTRA.DIHEDRAL.0>
0

>  <SCORE.INTRA.POLAR>
0

>  <SCORE.INTRA.POLAR.0>
0

>  <SCORE.INTRA.REPUL>
0

>  <SCORE.INTRA.REPUL.0>
0

>  <SCORE.INTRA.SOLV>
0

>  <SCORE.INTRA.SOLV.lig_0>
-33.1994

>  <SCORE.INTRA.VDW>
0

>  <SCORE.INTRA.VDW.0>
0

>  <SCORE.INTRA.norm>
0

>  <SCORE.RESTR>
0

>  <SCORE.RESTR.CAVITY>
0

>  <SCORE.RESTR.norm>
0

>  <SCORE.SYSTEM>
0

>  <SCORE.SYSTEM.CONST>
0

>  <SCORE.SYSTEM.DIHEDRAL>
0

>  <SCORE.SYSTEM.SOLV>
0

>  <SCORE.SYSTEM.norm>
0

>  <SCORE.heavy>
13

>  <SCORE.norm>
-1.69128

>  <RMSD>
4.261

$$$$
ligand
 OpenBabel11021811473D
libRbt.so/2013.1/901 2013/11/27
 13 14  0  0  0  0  0  0  0  0999 V2000
   36.7588   35.8040   24.3629 N   0  0  0  0  0  0  0  0  0  0  0  0
   37.7553   35.4070   25.5290 C   0  0  0  0  0  0  0  0  0  0  0  0
   38.7940   36.2609   25.8445 N   0  0  0  0  0  0  0  0  0  0  0  0
   37.4680   34.2830   26.0367 N   0  0  0  0  0  0  0  0  0  0  0  0
   36.4693   33.4177   25.7755 C   0  0  0  0  0  0  0  0  0  0  0  0
   35.5713   33.6816   24.8061 C   0  0  0  0  0  0  0  0  0  0  0  0
   35.7456   35.0282   23.9991 C   0  0  0  0  0  0  0  0  0  0  0  0
   34.9453   35.2507   23.1485 O   0  0  0  0  0  0  0  0  0  0  0  0
   34.5237   32.5643   24.6456 C   0  0  0  0  0  0  0  0  0  0  0  0
   34.8430   31.6509   25.5693 C   0  0  0  0  0  0  0  0  0  0  0  0
   35.9460   31.9476   26.3238 N   0  0  0  0  0  0  0  0  0  0  0  0
   33.3971   32.5501   23.6853 C   0  0  0  0  0  0  0  0  0  0  0  0
   32.5496   32.5792   22.8992 N   0  0  0  0  0  0  0  0  0  0  0  0
  1  2  1  0  0  0  0
  1  7  1  0  0  0  0
  2  3  1  0  0  0  0
  2  4  2  0  0  0  0
  4  5  1  0  0  0  0
  5  6  2  0  0  0  0
  5 11  1  0  0  0  0
  6  7  1  0  0  0  0
  6  9  1  0  0  0  0
  7  8  2  0  0  0  0
  9 10  2  0  0  0  0
  9 12  1  0  0  0  0
 10 11  1  0  0  0  0
 12 13  3  0  0  0  0
M  END
>  <CHROM.1>
35.76479338,33.92838650,24.79441076,0.28830447,-0.62584426,-0.60792327

>  <Name>
ligand

>  <RI>
0

>  <Rbt.Current_Directory>
/home/itssahil/PROJECTS/Mol_Feturizer/New_Systems/rnas/3GCA

>  <Rbt.Executable>
rbdock ($Id: //depot/dev/client3/rdock/2013.1/src/exe/rbdock.cxx#4 $)

>  <Rbt.Library>
libRbt.so (2013.1, Build901 2013/11/27)

>  <Rbt.Parameter_File>
/export/apps/rDock/src/rDock_2013.1_src/data/scripts/dock_solv.prm

>  <Rbt.Receptor>
prm/pocket_docking_3.prm

>  <SCORE>
-22.0086

>  <SCORE.INTER>
-22.0086

>  <SCORE.INTER.CONST>
1

>  <SCORE.INTER.POLAR>
0

>  <SCORE.INTER.ROT>
0

>  <SCORE.INTER.SOLV>
10.425

>  <SCORE.INTER.VDW>
-21.7474

>  <SCORE.INTER.norm>
-1.69297

>  <SCORE.INTRA>
0

>  <SCORE.INTRA.DIHEDRAL>
0

>  <SCORE.INTRA.DIHEDRAL.0>
0

>  <SCORE.INTRA.POLAR>
0

>  <SCORE.INTRA.POLAR.0>
0

>  <SCORE.INTRA.REPUL>
0

>  <SCORE.INTRA.REPUL.0>
0

>  <SCORE.INTRA.SOLV>
0

>  <SCORE.INTRA.SOLV.lig_0>
-33.1994

>  <SCORE.INTRA.VDW>
0

>  <SCORE.INTRA.VDW.0>
0

>  <SCORE.INTRA.norm>
0

>  <SCORE.RESTR>
0

>  <SCORE.RESTR.CAVITY>
0

>  <SCORE.RESTR.norm>
0

>  <SCORE.SYSTEM>
0

>  <SCORE.SYSTEM.CONST>
0

>  <SCORE.SYSTEM.DIHEDRAL>
0

>  <SCORE.SYSTEM.SOLV>
0

>  <SCORE.SYSTEM.norm>
0

>  <SCORE.heavy>
13

>  <SCORE.norm>
-1.69297

>  <RMSD>
4.262

$$$$
ligand
 OpenBabel11021811473D
libRbt.so/2013.1/901 2013/11/27
 13 14  0  0  0  0  0  0  0  0999 V2000
   36.7691   35.7953   24.4099 N   0  0  0  0  0  0  0  0  0  0  0  0
   37.7782   35.4320   25.5761 C   0  0  0  0  0  0  0  0  0  0  0  0
   38.7964   36.3136   25.8821 N   0  0  0  0  0  0  0  0  0  0  0  0
   37.5200   34.3052   26.0933 N   0  0  0  0  0  0  0  0  0  0  0  0
   36.5423   33.4136   25.8415 C   0  0  0  0  0  0  0  0  0  0  0  0
   35.6354   33.6478   24.8728 C   0  0  0  0  0  0  0  0  0  0  0  0
   35.7744   34.9920   24.0549 C   0  0  0  0  0  0  0  0  0  0  0  0
   34.9665   35.1881   23.2050 O   0  0  0  0  0  0  0  0  0  0  0  0
   34.6152   32.5039   24.7238 C   0  0  0  0  0  0  0  0  0  0  0  0
   34.9594   31.6058   25.6536 C   0  0  0  0  0  0  0  0  0  0  0  0
   36.0569   31.9353   26.4026 N   0  0  0  0  0  0  0  0  0  0  0  0
   33.4867   32.4545   23.7669 C   0  0  0  0  0  0  0  0  0  0  0  0
   32.6368   32.4567   22.9830 N   0  0  0  0  0  0  0  0  0  0  0  0
  1  2  1  0  0  0  0
  1  7  1  0  0  0  0
  2  3  1  0  0  0  0
  2  4  2  0  0  0  0
  4  5  1  0  0  0  0
  5  6  2  0  0  0  0
  5 11  1  0  0  0  0
  6  7  1  0  0  0  0
  6  9  1  0  0  0  0
  7  8  2  0  0  0  0
  9 10  2  0  0  0  0
  9 12  1  0  0  0  0
 10 11  1  0  0  0  0
 12 13  3  0  0  0  0
M  END
>  <CHROM.1>
35.82276820,33.89919182,24.85859795,0.31537565,-0.63754433,-0.59963060

>  <Name>
ligand

>  <RI>
0

>  <Rbt.Current_Directory>
/home/itssahil/PROJECTS/Mol_Feturizer/New_Systems/rnas/3GCA

>  <Rbt.Executable>
rbdock ($Id: //depot/dev/client3/rdock/2013.1/src/exe/rbdock.cxx#4 $)

>  <Rbt.Library>
libRbt.so (2013.1, Build901 2013/11/27)

>  <Rbt.Parameter_File>
/export/apps/rDock/src/rDock_2013.1_src/data/scripts/dock_solv.prm

>  <Rbt.Receptor>
prm/pocket_docking_3.prm

>  <SCORE>
-22.0239

>  <SCORE.INTER>
-22.0239

>  <SCORE.INTER.CONST>
1

>  <SCORE.INTER.POLAR>
0

>  <SCORE.INTER.ROT>
0

>  <SCORE.INTER.SOLV>
10.182

>  <SCORE.INTER.VDW>
-21.6766

>  <SCORE.INTER.norm>
-1.69414

>  <SCORE.INTRA>
0

>  <SCORE.INTRA.DIHEDRAL>
0

>  <SCORE.INTRA.DIHEDRAL.0>
0

>  <SCORE.INTRA.POLAR>
0

>  <SCORE.INTRA.POLAR.0>
0

>  <SCORE.INTRA.REPUL>
0

>  <SCORE.INTRA.REPUL.0>
0

>  <SCORE.INTRA.SOLV>
0

>  <SCORE.INTRA.SOLV.lig_0>
-33.1994

>  <SCORE.INTRA.VDW>
0

>  <SCORE.INTRA.VDW.0>
0

>  <SCORE.INTRA.norm>
0

>  <SCORE.RESTR>
0

>  <SCORE.RESTR.CAVITY>
0

>  <SCORE.RESTR.norm>
0

>  <SCORE.SYSTEM>
0

>  <SCORE.SYSTEM.CONST>
0

>  <SCORE.SYSTEM.DIHEDRAL>
0

>  <SCORE.SYSTEM.SOLV>
0

>  <SCORE.SYSTEM.norm>
0

>  <SCORE.heavy>
13

>  <SCORE.norm>
-1.69414

>  <RMSD>
4.262

$$$$
ligand
 OpenBabel11021811473D
libRbt.so/2013.1/901 2013/11/27
 13 14  0  0  0  0  0  0  0  0999 V2000
   36.7662   35.7896   24.4264 N   0  0  0  0  0  0  0  0  0  0  0  0
   37.7808   35.4246   25.5874 C   0  0  0  0  0  0  0  0  0  0  0  0
   38.7970   36.3084   25.8936 N   0  0  0  0  0  0  0  0  0  0  0  0
   37.5283   34.2946   26.1004 N   0  0  0  0  0  0  0  0  0  0  0  0
   36.5528   33.4008   25.8482 C   0  0  0  0  0  0  0  0  0  0  0  0
   35.6417   33.6361   24.8837 C   0  0  0  0  0  0  0  0  0  0  0  0
   35.7730   34.9844   24.0714 C   0  0  0  0  0  0  0  0  0  0  0  0
   34.9615   35.1816   23.2252 O   0  0  0  0  0  0  0  0  0  0  0  0
   34.6249   32.4893   24.7332 C   0  0  0  0  0  0  0  0  0  0  0  0
   34.9755   31.5883   25.6578 C   0  0  0  0  0  0  0  0  0  0  0  0
   36.0744   31.9183   26.4044 N   0  0  0  0  0  0  0  0  0  0  0  0
   33.4931   32.4403   23.7802 C   0  0  0  0  0  0  0  0  0  0  0  0
   32.6404   32.4430   22.9994 N   0  0  0  0  0  0  0  0  0  0  0  0
  1  2  1  0  0  0  0
  1  7  1  0  0  0  0
  2  3  1  0  0  0  0
  2  4  2  0  0  0  0
  4  5  1  0  0  0  0
  5  6  2  0  0  0  0
  5 11  1  0  0  0  0
  6  7  1  0  0  0  0
  6  9  1  0  0  0  0
  7  8  2  0  0  0  0
  9 10  2  0  0  0  0
  9 12  1  0  0  0  0
 10 11  1  0  0  0  0
 12 13  3  0  0  0  0
M  END
>  <CHROM.1>
35.82805526,33.88824852,24.86999847,0.32143010,-0.63653135,-0.59157459

>  <Name>
ligand

>  <RI>
0

>  <Rbt.Current_Directory>
/home/itssahil/PROJECTS/Mol_Feturizer/New_Systems/rnas/3GCA

>  <Rbt.Executable>
rbdock ($Id: //depot/dev/client3/rdock/2013.1/src/exe/rbdock.cxx#4 $)

>  <Rbt.Library>
libRbt.so (2013.1, Build901 2013/11/27)

>  <Rbt.Parameter_File>
/export/apps/rDock/src/rDock_2013.1_src/data/scripts/dock_solv.prm

>  <Rbt.Receptor>
prm/pocket_docking_3.prm

>  <SCORE>
-22.025

>  <SCORE.INTER>
-22.025

>  <SCORE.INTER.CONST>
1

>  <SCORE.INTER.POLAR>
0

>  <SCORE.INTER.ROT>
0

>  <SCORE.INTER.SOLV>
10.1508

>  <SCORE.INTER.VDW>
-21.667

>  <SCORE.INTER.norm>
-1.69423

>  <SCORE.INTRA>
0

>  <SCORE.INTRA.DIHEDRAL>
0

>  <SCORE.INTRA.DIHEDRAL.0>
0

>  <SCORE.INTRA.POLAR>
0

>  <SCORE.INTRA.POLAR.0>
0

>  <SCORE.INTRA.REPUL>
0

>  <SCORE.INTRA.REPUL.0>
0

>  <SCORE.INTRA.SOLV>
0

>  <SCORE.INTRA.SOLV.lig_0>
-33.1994

>  <SCORE.INTRA.VDW>
0

>  <SCORE.INTRA.VDW.0>
0

>  <SCORE.INTRA.norm>
0

>  <SCORE.RESTR>
0

>  <SCORE.RESTR.CAVITY>
0

>  <SCORE.RESTR.norm>
0

>  <SCORE.SYSTEM>
0

>  <SCORE.SYSTEM.CONST>
0

>  <SCORE.SYSTEM.DIHEDRAL>
0

>  <SCORE.SYSTEM.SOLV>
0

>  <SCORE.SYSTEM.norm>
0

>  <SCORE.heavy>
13

>  <SCORE.norm>
-1.69423

>  <RMSD>
4.262

$$$$
ligand
 OpenBabel11021811473D
libRbt.so/2013.1/901 2013/11/27
 13 14  0  0  0  0  0  0  0  0999 V2000
   36.7735   35.7818   24.4199 N   0  0  0  0  0  0  0  0  0  0  0  0
   37.7853   35.4178   25.5835 C   0  0  0  0  0  0  0  0  0  0  0  0
   38.8026   36.3005   25.8894 N   0  0  0  0  0  0  0  0  0  0  0  0
   37.5299   34.2896   26.0990 N   0  0  0  0  0  0  0  0  0  0  0  0
   36.5532   33.3969   25.8473 C   0  0  0  0  0  0  0  0  0  0  0  0
   35.6442   33.6315   24.8806 C   0  0  0  0  0  0  0  0  0  0  0  0
   35.7794   34.9775   24.0652 C   0  0  0  0  0  0  0  0  0  0  0  0
   34.9697   35.1740   23.2171 O   0  0  0  0  0  0  0  0  0  0  0  0
   34.6256   32.4862   24.7312 C   0  0  0  0  0  0  0  0  0  0  0  0
   34.9729   31.5869   25.6586 C   0  0  0  0  0  0  0  0  0  0  0  0
   36.0712   31.9167   26.4063 N   0  0  0  0  0  0  0  0  0  0  0  0
   33.4954   32.4369   23.7763 C   0  0  0  0  0  0  0  0  0  0  0  0
   32.6440   32.4392   22.9940 N   0  0  0  0  0  0  0  0  0  0  0  0
  1  2  1  0  0  0  0
  1  7  1  0  0  0  0
  2  3  1  0  0  0  0
  2  4  2  0  0  0  0
  4  5  1  0  0  0  0
  5  6  2  0  0  0  0
  5 11  1  0  0  0  0
  6  7  1  0  0  0  0
  6  9  1  0  0  0  0
  7  8  2  0  0  0  0
  9 10  2  0  0  0  0
  9 12  1  0  0  0  0
 10 11  1  0  0  0  0
 12 13  3  0  0  0  0
M  END
>  <CHROM.1>
35.83107651,33.88324040,24.86659952,0.31833139,-0.63696751,-0.59591631

>  <Name>
ligand

>  <RI>
0

>  <Rbt.Current_Directory>
/home/itssahil/PROJECTS/Mol_Feturizer/New_Systems/rnas/3GCA

>  <Rbt.Executable>
rbdock ($Id: //depot/dev/client3/rdock/2013.1/src/exe/rbdock.cxx#4 $)

>  <Rbt.Library>
libRbt.so (2013.1, Build901 2013/11/27)

>  <Rbt.Parameter_File>
/export/apps/rDock/src/rDock_2013.1_src/data/scripts/dock_solv.prm

>  <Rbt.Receptor>
prm/pocket_docking_4.prm

>  <SCORE>
-22.0287

>  <SCORE.INTER>
-22.0287

>  <SCORE.INTER.CONST>
1

>  <SCORE.INTER.POLAR>
0

>  <SCORE.INTER.ROT>
0

>  <SCORE.INTER.SOLV>
10.1556

>  <SCORE.INTER.VDW>
-21.671

>  <SCORE.INTER.norm>
-1.69451

>  <SCORE.INTRA>
0

>  <SCORE.INTRA.DIHEDRAL>
0

>  <SCORE.INTRA.DIHEDRAL.0>
0

>  <SCORE.INTRA.POLAR>
0

>  <SCORE.INTRA.POLAR.0>
0

>  <SCORE.INTRA.REPUL>
0

>  <SCORE.INTRA.REPUL.0>
0

>  <SCORE.INTRA.SOLV>
0

>  <SCORE.INTRA.SOLV.lig_0>
-33.1994

>  <SCORE.INTRA.VDW>
0

>  <SCORE.INTRA.VDW.0>
0

>  <SCORE.INTRA.norm>
0

>  <SCORE.RESTR>
0

>  <SCORE.RESTR.CAVITY>
0

>  <SCORE.RESTR.norm>
0

>  <SCORE.SYSTEM>
0

>  <SCORE.SYSTEM.CONST>
0

>  <SCORE.SYSTEM.DIHEDRAL>
0

>  <SCORE.SYSTEM.SOLV>
0

>  <SCORE.SYSTEM.norm>
0

>  <SCORE.heavy>
13

>  <SCORE.norm>
-1.69451

>  <RMSD>
4.262

$$$$
ligand
 OpenBabel11021811473D
libRbt.so/2013.1/901 2013/11/27
 13 14  0  0  0  0  0  0  0  0999 V2000
   36.7083   35.8519   24.4030 N   0  0  0  0  0  0  0  0  0  0  0  0
   37.7190   35.4734   25.5629 C   0  0  0  0  0  0  0  0  0  0  0  0
   38.7397   36.3495   25.8767 N   0  0  0  0  0  0  0  0  0  0  0  0
   37.4595   34.3414   26.0680 N   0  0  0  0  0  0  0  0  0  0  0  0
   36.4793   33.4548   25.8083 C   0  0  0  0  0  0  0  0  0  0  0  0
   35.5710   33.7017   24.8441 C   0  0  0  0  0  0  0  0  0  0  0  0
   35.7111   35.0547   24.0411 C   0  0  0  0  0  0  0  0  0  0  0  0
   34.9019   35.2621   23.1951 O   0  0  0  0  0  0  0  0  0  0  0  0
   34.5480   32.5617   24.6844 C   0  0  0  0  0  0  0  0  0  0  0  0
   34.8922   31.6525   25.6033 C   0  0  0  0  0  0  0  0  0  0  0  0
   35.9919   31.9713   26.3537 N   0  0  0  0  0  0  0  0  0  0  0  0
   33.4175   32.5254   23.7294 C   0  0  0  0  0  0  0  0  0  0  0  0
   32.5659   32.5382   22.9474 N   0  0  0  0  0  0  0  0  0  0  0  0
  1  2  1  0  0  0  0
  1  7  1  0  0  0  0
  2  3  1  0  0  0  0
  2  4  2  0  0  0  0
  4  5  1  0  0  0  0
  5  6  2  0  0  0  0
  5 11  1  0  0  0  0
  6  7  1  0  0  0  0
  6  9  1  0  0  0  0
  7  8  2  0  0  0  0
  9 10  2  0  0  0  0
  9 12  1  0  0  0  0
 10 11  1  0  0  0  0
 12 13  3  0  0  0  0
M  END
>  <CHROM.1>
35.75882096,33.95288739,24.83234938,0.31465496,-0.63465169,-0.58882917

>  <Name>
ligand

>  <RI>
0

>  <Rbt.Current_Directory>
/home/itssahil/PROJECTS/Mol_Feturizer/New_Systems/rnas/3GCA

>  <Rbt.Executable>
rbdock ($Id: //depot/dev/client3/rdock/2013.1/src/exe/rbdock.cxx#4 $)

>  <Rbt.Library>
libRbt.so (2013.1, Build901 2013/11/27)

>  <Rbt.Parameter_File>
/export/apps/rDock/src/rDock_2013.1_src/data/scripts/dock_solv.prm

>  <Rbt.Receptor>
prm/pocket_docking_4.prm

>  <SCORE>
-21.951

>  <SCORE.INTER>
-21.951

>  <SCORE.INTER.CONST>
1

>  <SCORE.INTER.POLAR>
0

>  <SCORE.INTER.ROT>
0

>  <SCORE.INTER.SOLV>
10.342

>  <SCORE.INTER.VDW>
-21.6814

>  <SCORE.INTER.norm>
-1.68854

>  <SCORE.INTRA>
0

>  <SCORE.INTRA.DIHEDRAL>
0

>  <SCORE.INTRA.DIHEDRAL.0>
0

>  <SCORE.INTRA.POLAR>
0

>  <SCORE.INTRA.POLAR.0>
0

>  <SCORE.INTRA.REPUL>
0

>  <SCORE.INTRA.REPUL.0>
0

>  <SCORE.INTRA.SOLV>
0

>  <SCORE.INTRA.SOLV.lig_0>
-33.1994

>  <SCORE.INTRA.VDW>
0

>  <SCORE.INTRA.VDW.0>
0

>  <SCORE.INTRA.norm>
0

>  <SCORE.RESTR>
0

>  <SCORE.RESTR.CAVITY>
0

>  <SCORE.RESTR.norm>
0

>  <SCORE.SYSTEM>
0

>  <SCORE.SYSTEM.CONST>
0

>  <SCORE.SYSTEM.DIHEDRAL>
0

>  <SCORE.SYSTEM.SOLV>
0

>  <SCORE.SYSTEM.norm>
0

>  <SCORE.heavy>
13

>  <SCORE.norm>
-1.68854

>  <RMSD>
4.262

$$$$
ligand
 OpenBabel11021811473D
libRbt.so/2013.1/901 2013/11/27
 13 14  0  0  0  0  0  0  0  0999 V2000
   36.7780   35.7869   24.4110 N   0  0  0  0  0  0  0  0  0  0  0  0
   37.7855   35.4197   25.5775 C   0  0  0  0  0  0  0  0  0  0  0  0
   38.8073   36.2972   25.8832 N   0  0  0  0  0  0  0  0  0  0  0  0
   37.5224   34.2942   26.0950 N   0  0  0  0  0  0  0  0  0  0  0  0
   36.5409   33.4067   25.8436 C   0  0  0  0  0  0  0  0  0  0  0  0
   35.6352   33.6444   24.8746 C   0  0  0  0  0  0  0  0  0  0  0  0
   35.7799   34.9877   24.0563 C   0  0  0  0  0  0  0  0  0  0  0  0
   34.9729   35.1869   23.2062 O   0  0  0  0  0  0  0  0  0  0  0  0
   34.6101   32.5047   24.7260 C   0  0  0  0  0  0  0  0  0  0  0  0
   34.9504   31.6055   25.6562 C   0  0  0  0  0  0  0  0  0  0  0  0
   36.0492   31.9307   26.4051 N   0  0  0  0  0  0  0  0  0  0  0  0
   33.4815   32.4598   23.7691 C   0  0  0  0  0  0  0  0  0  0  0  0
   32.6316   32.4653   22.9851 N   0  0  0  0  0  0  0  0  0  0  0  0
  1  2  1  0  0  0  0
  1  7  1  0  0  0  0
  2  3  1  0  0  0  0
  2  4  2  0  0  0  0
  4  5  1  0  0  0  0
  5  6  2  0  0  0  0
  5 11  1  0  0  0  0
  6  7  1  0  0  0  0
  6  9  1  0  0  0  0
  7  8  2  0  0  0  0
  9 10  2  0  0  0  0
  9 12  1  0  0  0  0
 10 11  1  0  0  0  0
 12 13  3  0  0  0  0
M  END
>  <CHROM.1>
35.82354739,33.89497829,24.86039175,0.31097094,-0.63520622,-0.60262248

>  <Name>
ligand

>  <RI>
0

>  <Rbt.Current_Directory>
/home/itssahil/PROJECTS/Mol_Feturizer/New_Systems/rnas/3GCA

>  <Rbt.Executable>
rbdock ($Id: //depot/dev/client3/rdock/2013.1/src/exe/rbdock.cxx#4 $)

>  <Rbt.Library>
libRbt.so (2013.1, Build901 2013/11/27)

>  <Rbt.Parameter_File>
/export/apps/rDock/src/rDock_2013.1_src/data/scripts/dock_solv.prm

>  <Rbt.Receptor>
prm/pocket_docking_4.prm

>  <SCORE>
-22.0238

>  <SCORE.INTER>
-22.0238

>  <SCORE.INTER.CONST>
1

>  <SCORE.INTER.POLAR>
0

>  <SCORE.INTER.ROT>
0

>  <SCORE.INTER.SOLV>
10.1728

>  <SCORE.INTER.VDW>
-21.6734

>  <SCORE.INTER.norm>
-1.69414

>  <SCORE.INTRA>
0

>  <SCORE.INTRA.DIHEDRAL>
0

>  <SCORE.INTRA.DIHEDRAL.0>
0

>  <SCORE.INTRA.POLAR>
0

>  <SCORE.INTRA.POLAR.0>
0

>  <SCORE.INTRA.REPUL>
0

>  <SCORE.INTRA.REPUL.0>
0

>  <SCORE.INTRA.SOLV>
0

>  <SCORE.INTRA.SOLV.lig_0>
-33.1994

>  <SCORE.INTRA.VDW>
0

>  <SCORE.INTRA.VDW.0>
0

>  <SCORE.INTRA.norm>
0

>  <SCORE.RESTR>
0

>  <SCORE.RESTR.CAVITY>
0

>  <SCORE.RESTR.norm>
0

>  <SCORE.SYSTEM>
0

>  <SCORE.SYSTEM.CONST>
0

>  <SCORE.SYSTEM.DIHEDRAL>
0

>  <SCORE.SYSTEM.SOLV>
0

>  <SCORE.SYSTEM.norm>
0

>  <SCORE.heavy>
13

>  <SCORE.norm>
-1.69414

>  <RMSD>
4.262

$$$$
ligand
 OpenBabel11021811473D
libRbt.so/2013.1/901 2013/11/27
 13 14  0  0  0  0  0  0  0  0999 V2000
   36.8020   35.7457   24.4174 N   0  0  0  0  0  0  0  0  0  0  0  0
   37.8186   35.3597   25.5697 C   0  0  0  0  0  0  0  0  0  0  0  0
   38.8515   36.2255   25.8718 N   0  0  0  0  0  0  0  0  0  0  0  0
   37.5512   34.2322   26.0805 N   0  0  0  0  0  0  0  0  0  0  0  0
   36.5592   33.3555   25.8322 C   0  0  0  0  0  0  0  0  0  0  0  0
   35.6453   33.6094   24.8751 C   0  0  0  0  0  0  0  0  0  0  0  0
   35.7931   34.9583   24.0667 C   0  0  0  0  0  0  0  0  0  0  0  0
   34.9789   35.1719   23.2270 O   0  0  0  0  0  0  0  0  0  0  0  0
   34.6086   32.4801   24.7279 C   0  0  0  0  0  0  0  0  0  0  0  0
   34.9509   31.5701   25.6467 C   0  0  0  0  0  0  0  0  0  0  0  0
   36.0604   31.8791   26.3865 N   0  0  0  0  0  0  0  0  0  0  0  0
   33.4695   32.4533   23.7828 C   0  0  0  0  0  0  0  0  0  0  0  0
   32.6113   32.4729   23.0082 N   0  0  0  0  0  0  0  0  0  0  0  0
  1  2  1  0  0  0  0
  1  7  1  0  0  0  0
  2  3  1  0  0  0  0
  2  4  2  0  0  0  0
  4  5  1  0  0  0  0
  5  6  2  0  0  0  0
  5 11  1  0  0  0  0
  6  7  1  0  0  0  0
  6  9  1  0  0  0  0
  7  8  2  0  0  0  0
  9 10  2  0  0  0  0
  9 12  1  0  0  0  0
 10 11  1  0  0  0  0
 12 13  3  0  0  0  0
M  END
>  <CHROM.1>
35.83572737,33.85845345,24.86095337,0.30944190,-0.62135675,-0.59501827

>  <Name>
ligand

>  <RI>
0

>  <Rbt.Current_Directory>
/home/itssahil/PROJECTS/Mol_Feturizer/New_Systems/rnas/3GCA

>  <Rbt.Executable>
rbdock ($Id: //depot/dev/client3/rdock/2013.1/src/exe/rbdock.cxx#4 $)

>  <Rbt.Library>
libRbt.so (2013.1, Build901 2013/11/27)

>  <Rbt.Parameter_File>
/export/apps/rDock/src/rDock_2013.1_src/data/scripts/dock_solv.prm

>  <Rbt.Receptor>
prm/pocket_docking_5.prm

>  <SCORE>
-22.0032

>  <SCORE.INTER>
-22.0032

>  <SCORE.INTER.CONST>
1

>  <SCORE.INTER.POLAR>
0

>  <SCORE.INTER.ROT>
0

>  <SCORE.INTER.SOLV>
10.1746

>  <SCORE.INTER.VDW>
-21.6603

>  <SCORE.INTER.norm>
-1.69255

>  <SCORE.INTRA>
0

>  <SCORE.INTRA.DIHEDRAL>
0

>  <SCORE.INTRA.DIHEDRAL.0>
0

>  <SCORE.INTRA.POLAR>
0

>  <SCORE.INTRA.POLAR.0>
0

>  <SCORE.INTRA.REPUL>
0

>  <SCORE.INTRA.REPUL.0>
0

>  <SCORE.INTRA.SOLV>
0

>  <SCORE.INTRA.SOLV.lig_0>
-33.1994

>  <SCORE.INTRA.VDW>
0

>  <SCORE.INTRA.VDW.0>
0

>  <SCORE.INTRA.norm>
0

>  <SCORE.RESTR>
0

>  <SCORE.RESTR.CAVITY>
0

>  <SCORE.RESTR.norm>
0

>  <SCORE.SYSTEM>
0

>  <SCORE.SYSTEM.CONST>
0

>  <SCORE.SYSTEM.DIHEDRAL>
0

>  <SCORE.SYSTEM.SOLV>
0

>  <SCORE.SYSTEM.norm>
0

>  <SCORE.heavy>
13

>  <SCORE.norm>
-1.69255

>  <RMSD>
4.262

$$$$
ligand
 OpenBabel11021811473D
libRbt.so/2013.1/901 2013/11/27
 13 14  0  0  0  0  0  0  0  0999 V2000
   36.7681   35.8008   24.4059 N   0  0  0  0  0  0  0  0  0  0  0  0
   37.7820   35.4341   25.5670 C   0  0  0  0  0  0  0  0  0  0  0  0
   38.8030   36.3137   25.8696 N   0  0  0  0  0  0  0  0  0  0  0  0
   37.5243   34.3069   26.0836 N   0  0  0  0  0  0  0  0  0  0  0  0
   36.5440   33.4173   25.8349 C   0  0  0  0  0  0  0  0  0  0  0  0
   35.6331   33.6544   24.8706 C   0  0  0  0  0  0  0  0  0  0  0  0
   35.7705   34.9997   24.0543 C   0  0  0  0  0  0  0  0  0  0  0  0
   34.9591   35.1985   23.2083 O   0  0  0  0  0  0  0  0  0  0  0  0
   34.6104   32.5124   24.7245 C   0  0  0  0  0  0  0  0  0  0  0  0
   34.9574   31.6123   25.6514 C   0  0  0  0  0  0  0  0  0  0  0  0
   36.0588   31.9389   26.3959 N   0  0  0  0  0  0  0  0  0  0  0  0
   33.4775   32.4663   23.7727 C   0  0  0  0  0  0  0  0  0  0  0  0
   32.6240   32.4710   22.9928 N   0  0  0  0  0  0  0  0  0  0  0  0
  1  2  1  0  0  0  0
  1  7  1  0  0  0  0
  2  3  1  0  0  0  0
  2  4  2  0  0  0  0
  4  5  1  0  0  0  0
  5  6  2  0  0  0  0
  5 11  1  0  0  0  0
  6  7  1  0  0  0  0
  6  9  1  0  0  0  0
  7  8  2  0  0  0  0
  9 10  2  0  0  0  0
  9 12  1  0  0  0  0
 10 11  1  0  0  0  0
 12 13  3  0  0  0  0
M  END
>  <CHROM.1>
35.82079997,33.90557177,24.85601808,0.31692439,-0.63287626,-0.59716181

>  <Name>
ligand

>  <RI>
0

>  <Rbt.Current_Directory>
/home/itssahil/PROJECTS/Mol_Feturizer/New_Systems/rnas/3GCA

>  <Rbt.Executable>
rbdock ($Id: //depot/dev/client3/rdock/2013.1/src/exe/rbdock.cxx#4 $)

>  <Rbt.Library>
libRbt.so (2013.1, Build901 2013/11/27)

>  <Rbt.Parameter_File>
/export/apps/rDock/src/rDock_2013.1_src/data/scripts/dock_solv.prm

>  <Rbt.Receptor>
prm/pocket_docking_5.prm

>  <SCORE>
-22.0256

>  <SCORE.INTER>
-22.0256

>  <SCORE.INTER.CONST>
1

>  <SCORE.INTER.POLAR>
0

>  <SCORE.INTER.ROT>
0

>  <SCORE.INTER.SOLV>
10.1958

>  <SCORE.INTER.VDW>
-21.6823

>  <SCORE.INTER.norm>
-1.69427

>  <SCORE.INTRA>
0

>  <SCORE.INTRA.DIHEDRAL>
0

>  <SCORE.INTRA.DIHEDRAL.0>
0

>  <SCORE.INTRA.POLAR>
0

>  <SCORE.INTRA.POLAR.0>
0

>  <SCORE.INTRA.REPUL>
0

>  <SCORE.INTRA.REPUL.0>
0

>  <SCORE.INTRA.SOLV>
0

>  <SCORE.INTRA.SOLV.lig_0>
-33.1994

>  <SCORE.INTRA.VDW>
0

>  <SCORE.INTRA.VDW.0>
0

>  <SCORE.INTRA.norm>
0

>  <SCORE.RESTR>
0

>  <SCORE.RESTR.CAVITY>
0

>  <SCORE.RESTR.norm>
0

>  <SCORE.SYSTEM>
0

>  <SCORE.SYSTEM.CONST>
0

>  <SCORE.SYSTEM.DIHEDRAL>
0

>  <SCORE.SYSTEM.SOLV>
0

>  <SCORE.SYSTEM.norm>
0

>  <SCORE.heavy>
13

>  <SCORE.norm>
-1.69427

>  <RMSD>
4.262

$$$$
ligand
 OpenBabel11021811473D
libRbt.so/2013.1/901 2013/11/27
 13 14  0  0  0  0  0  0  0  0999 V2000
   36.7680   35.8044   24.3722 N   0  0  0  0  0  0  0  0  0  0  0  0
   37.7481   35.4153   25.5548 C   0  0  0  0  0  0  0  0  0  0  0  0
   38.7863   36.2682   25.8746 N   0  0  0  0  0  0  0  0  0  0  0  0
   37.4496   34.2978   26.0704 N   0  0  0  0  0  0  0  0  0  0  0  0
   36.4506   33.4340   25.8055 C   0  0  0  0  0  0  0  0  0  0  0  0
   35.5660   33.6916   24.8222 C   0  0  0  0  0  0  0  0  0  0  0  0
   35.7562   35.0290   24.0036 C   0  0  0  0  0  0  0  0  0  0  0  0
   34.9676   35.2460   23.1407 O   0  0  0  0  0  0  0  0  0  0  0  0
   34.5157   32.5770   24.6599 C   0  0  0  0  0  0  0  0  0  0  0  0
   34.8195   31.6719   25.5969 C   0  0  0  0  0  0  0  0  0  0  0  0
   35.9142   31.9718   26.3622 N   0  0  0  0  0  0  0  0  0  0  0  0
   33.4013   32.5575   23.6856 C   0  0  0  0  0  0  0  0  0  0  0  0
   32.5640   32.5820   22.8886 N   0  0  0  0  0  0  0  0  0  0  0  0
  1  2  1  0  0  0  0
  1  7  1  0  0  0  0
  2  3  1  0  0  0  0
  2  4  2  0  0  0  0
  4  5  1  0  0  0  0
  5  6  2  0  0  0  0
  5 11  1  0  0  0  0
  6  7  1  0  0  0  0
  6  9  1  0  0  0  0
  7  8  2  0  0  0  0
  9 10  2  0  0  0  0
  9 12  1  0  0  0  0
 10 11  1  0  0  0  0
 12 13  3  0  0  0  0
M  END
>  <CHROM.1>
35.76068943,33.93745031,24.81037296,0.27503176,-0.63372098,-0.62604236

>  <Name>
ligand

>  <RI>
0

>  <Rbt.Current_Directory>
/home/itssahil/PROJECTS/Mol_Feturizer/New_Systems/rnas/3GCA

>  <Rbt.Executable>
rbdock ($Id: //depot/dev/client3/rdock/2013.1/src/exe/rbdock.cxx#4 $)

>  <Rbt.Library>
libRbt.so (2013.1, Build901 2013/11/27)

>  <Rbt.Parameter_File>
/export/apps/rDock/src/rDock_2013.1_src/data/scripts/dock_solv.prm

>  <Rbt.Receptor>
prm/pocket_docking_6.prm

>  <SCORE>
-22.0211

>  <SCORE.INTER>
-22.0211

>  <SCORE.INTER.CONST>
1

>  <SCORE.INTER.POLAR>
0

>  <SCORE.INTER.ROT>
0

>  <SCORE.INTER.SOLV>
10.3569

>  <SCORE.INTER.VDW>
-21.733

>  <SCORE.INTER.norm>
-1.69393

>  <SCORE.INTRA>
0

>  <SCORE.INTRA.DIHEDRAL>
0

>  <SCORE.INTRA.DIHEDRAL.0>
0

>  <SCORE.INTRA.POLAR>
0

>  <SCORE.INTRA.POLAR.0>
0

>  <SCORE.INTRA.REPUL>
0

>  <SCORE.INTRA.REPUL.0>
0

>  <SCORE.INTRA.SOLV>
0

>  <SCORE.INTRA.SOLV.lig_0>
-33.1994

>  <SCORE.INTRA.VDW>
0

>  <SCORE.INTRA.VDW.0>
0

>  <SCORE.INTRA.norm>
0

>  <SCORE.RESTR>
0

>  <SCORE.RESTR.CAVITY>
0

>  <SCORE.RESTR.norm>
0

>  <SCORE.SYSTEM>
0

>  <SCORE.SYSTEM.CONST>
0

>  <SCORE.SYSTEM.DIHEDRAL>
0

>  <SCORE.SYSTEM.SOLV>
0

>  <SCORE.SYSTEM.norm>
0

>  <SCORE.heavy>
13

>  <SCORE.norm>
-1.69393

>  <RMSD>
4.262

$$$$
ligand
 OpenBabel11021811473D
libRbt.so/2013.1/901 2013/11/27
 13 14  0  0  0  0  0  0  0  0999 V2000
   36.7744   35.7949   24.4069 N   0  0  0  0  0  0  0  0  0  0  0  0
   37.7856   35.4283   25.5703 C   0  0  0  0  0  0  0  0  0  0  0  0
   38.8076   36.3065   25.8733 N   0  0  0  0  0  0  0  0  0  0  0  0
   37.5250   34.3024   26.0883 N   0  0  0  0  0  0  0  0  0  0  0  0
   36.5435   33.4142   25.8395 C   0  0  0  0  0  0  0  0  0  0  0  0
   35.6347   33.6513   24.8733 C   0  0  0  0  0  0  0  0  0  0  0  0
   35.7759   34.9950   24.0549 C   0  0  0  0  0  0  0  0  0  0  0  0
   34.9663   35.1938   23.2072 O   0  0  0  0  0  0  0  0  0  0  0  0
   34.6102   32.5109   24.7273 C   0  0  0  0  0  0  0  0  0  0  0  0
   34.9539   31.6117   25.6562 C   0  0  0  0  0  0  0  0  0  0  0  0
   36.0546   31.9376   26.4021 N   0  0  0  0  0  0  0  0  0  0  0  0
   33.4788   32.4653   23.7737 C   0  0  0  0  0  0  0  0  0  0  0  0
   32.6266   32.4703   22.9922 N   0  0  0  0  0  0  0  0  0  0  0  0
  1  2  1  0  0  0  0
  1  7  1  0  0  0  0
  2  3  1  0  0  0  0
  2  4  2  0  0  0  0
  4  5  1  0  0  0  0
  5  6  2  0  0  0  0
  5 11  1  0  0  0  0
  6  7  1  0  0  0  0
  6  9  1  0  0  0  0
  7  8  2  0  0  0  0
  9 10  2  0  0  0  0
  9 12  1  0  0  0  0
 10 11  1  0  0  0  0
 12 13  3  0  0  0  0
M  END
>  <CHROM.1>
35.82284808,33.90210921,24.85854487,0.31387933,-0.63326613,-0.60062616

>  <Name>
ligand

>  <RI>
0

>  <Rbt.Current_Directory>
/home/itssahil/PROJECTS/Mol_Feturizer/New_Systems/rnas/3GCA

>  <Rbt.Executable>
rbdock ($Id: //depot/dev/client3/rdock/2013.1/src/exe/rbdock.cxx#4 $)

>  <Rbt.Library>
libRbt.so (2013.1, Build901 2013/11/27)

>  <Rbt.Parameter_File>
/export/apps/rDock/src/rDock_2013.1_src/data/scripts/dock_solv.prm

>  <Rbt.Receptor>
prm/pocket_docking_7.prm

>  <SCORE>
-22.0253

>  <SCORE.INTER>
-22.0253

>  <SCORE.INTER.CONST>
1

>  <SCORE.INTER.POLAR>
0

>  <SCORE.INTER.ROT>
0

>  <SCORE.INTER.SOLV>
10.1831

>  <SCORE.INTER.VDW>
-21.6779

>  <SCORE.INTER.norm>
-1.69425

>  <SCORE.INTRA>
0

>  <SCORE.INTRA.DIHEDRAL>
0

>  <SCORE.INTRA.DIHEDRAL.0>
0

>  <SCORE.INTRA.POLAR>
0

>  <SCORE.INTRA.POLAR.0>
0

>  <SCORE.INTRA.REPUL>
0

>  <SCORE.INTRA.REPUL.0>
0

>  <SCORE.INTRA.SOLV>
0

>  <SCORE.INTRA.SOLV.lig_0>
-33.1994

>  <SCORE.INTRA.VDW>
0

>  <SCORE.INTRA.VDW.0>
0

>  <SCORE.INTRA.norm>
0

>  <SCORE.RESTR>
0

>  <SCORE.RESTR.CAVITY>
0

>  <SCORE.RESTR.norm>
0

>  <SCORE.SYSTEM>
0

>  <SCORE.SYSTEM.CONST>
0

>  <SCORE.SYSTEM.DIHEDRAL>
0

>  <SCORE.SYSTEM.SOLV>
0

>  <SCORE.SYSTEM.norm>
0

>  <SCORE.heavy>
13

>  <SCORE.norm>
-1.69425

>  <RMSD>
4.262

$$$$
ligand
 OpenBabel11021811473D
libRbt.so/2013.1/901 2013/11/27
 13 14  0  0  0  0  0  0  0  0999 V2000
   36.7523   35.8317   24.3791 N   0  0  0  0  0  0  0  0  0  0  0  0
   37.7472   35.4756   25.5597 C   0  0  0  0  0  0  0  0  0  0  0  0
   38.7616   36.3592   25.8726 N   0  0  0  0  0  0  0  0  0  0  0  0
   37.4827   34.3520   26.0806 N   0  0  0  0  0  0  0  0  0  0  0  0
   36.5080   33.4588   25.8224 C   0  0  0  0  0  0  0  0  0  0  0  0
   35.6131   33.6870   24.8413 C   0  0  0  0  0  0  0  0  0  0  0  0
   35.7620   35.0262   24.0170 C   0  0  0  0  0  0  0  0  0  0  0  0
   34.9645   35.2171   23.1561 O   0  0  0  0  0  0  0  0  0  0  0  0
   34.5947   32.5421   24.6869 C   0  0  0  0  0  0  0  0  0  0  0  0
   34.9275   31.6498   25.6263 C   0  0  0  0  0  0  0  0  0  0  0  0
   36.0158   31.9840   26.3865 N   0  0  0  0  0  0  0  0  0  0  0  0
   33.4780   32.4869   23.7166 C   0  0  0  0  0  0  0  0  0  0  0  0
   32.6376   32.4842   22.9225 N   0  0  0  0  0  0  0  0  0  0  0  0
  1  2  1  0  0  0  0
  1  7  1  0  0  0  0
  2  3  1  0  0  0  0
  2  4  2  0  0  0  0
  4  5  1  0  0  0  0
  5  6  2  0  0  0  0
  5 11  1  0  0  0  0
  6  7  1  0  0  0  0
  6  9  1  0  0  0  0
  7  8  2  0  0  0  0
  9 10  2  0  0  0  0
  9 12  1  0  0  0  0
 10 11  1  0  0  0  0
 12 13  3  0  0  0  0
M  END
>  <CHROM.1>
35.80054789,33.93833691,24.82783643,0.30675092,-0.64756374,-0.61091658

>  <Name>
ligand

>  <RI>
0

>  <Rbt.Current_Directory>
/home/itssahil/PROJECTS/Mol_Feturizer/New_Systems/rnas/3GCA

>  <Rbt.Executable>
rbdock ($Id: //depot/dev/client3/rdock/2013.1/src/exe/rbdock.cxx#4 $)

>  <Rbt.Library>
libRbt.so (2013.1, Build901 2013/11/27)

>  <Rbt.Parameter_File>
/export/apps/rDock/src/rDock_2013.1_src/data/scripts/dock_solv.prm

>  <Rbt.Receptor>
prm/pocket_docking_7.prm

>  <SCORE>
-21.9217

>  <SCORE.INTER>
-21.9217

>  <SCORE.INTER.CONST>
1

>  <SCORE.INTER.POLAR>
0

>  <SCORE.INTER.ROT>
0

>  <SCORE.INTER.SOLV>
10.2682

>  <SCORE.INTER.VDW>
-21.6372

>  <SCORE.INTER.norm>
-1.68628

>  <SCORE.INTRA>
0

>  <SCORE.INTRA.DIHEDRAL>
0

>  <SCORE.INTRA.DIHEDRAL.0>
0

>  <SCORE.INTRA.POLAR>
0

>  <SCORE.INTRA.POLAR.0>
0

>  <SCORE.INTRA.REPUL>
0

>  <SCORE.INTRA.REPUL.0>
0

>  <SCORE.INTRA.SOLV>
0

>  <SCORE.INTRA.SOLV.lig_0>
-33.1994

>  <SCORE.INTRA.VDW>
0

>  <SCORE.INTRA.VDW.0>
0

>  <SCORE.INTRA.norm>
0

>  <SCORE.RESTR>
0

>  <SCORE.RESTR.CAVITY>
0

>  <SCORE.RESTR.norm>
0

>  <SCORE.SYSTEM>
0

>  <SCORE.SYSTEM.CONST>
0

>  <SCORE.SYSTEM.DIHEDRAL>
0

>  <SCORE.SYSTEM.SOLV>
0

>  <SCORE.SYSTEM.norm>
0

>  <SCORE.heavy>
13

>  <SCORE.norm>
-1.68628

>  <RMSD>
4.262

$$$$
ligand
 OpenBabel11021811473D
libRbt.so/2013.1/901 2013/11/27
 13 14  0  0  0  0  0  0  0  0999 V2000
   36.7693   35.7972   24.4072 N   0  0  0  0  0  0  0  0  0  0  0  0
   37.7854   35.4260   25.5649 C   0  0  0  0  0  0  0  0  0  0  0  0
   38.8083   36.3033   25.8674 N   0  0  0  0  0  0  0  0  0  0  0  0
   37.5273   34.2979   26.0792 N   0  0  0  0  0  0  0  0  0  0  0  0
   36.5451   33.4103   25.8306 C   0  0  0  0  0  0  0  0  0  0  0  0
   35.6323   33.6513   24.8691 C   0  0  0  0  0  0  0  0  0  0  0  0
   35.7697   34.9984   24.0559 C   0  0  0  0  0  0  0  0  0  0  0  0
   34.9565   35.2005   23.2124 O   0  0  0  0  0  0  0  0  0  0  0  0
   34.6076   32.5111   24.7225 C   0  0  0  0  0  0  0  0  0  0  0  0
   34.9554   31.6081   25.6461 C   0  0  0  0  0  0  0  0  0  0  0  0
   36.0591   31.9312   26.3889 N   0  0  0  0  0  0  0  0  0  0  0  0
   33.4723   32.4691   23.7733 C   0  0  0  0  0  0  0  0  0  0  0  0
   32.6169   32.4771   22.9953 N   0  0  0  0  0  0  0  0  0  0  0  0
  1  2  1  0  0  0  0
  1  7  1  0  0  0  0
  2  3  1  0  0  0  0
  2  4  2  0  0  0  0
  4  5  1  0  0  0  0
  5  6  2  0  0  0  0
  5 11  1  0  0  0  0
  6  7  1  0  0  0  0
  6  9  1  0  0  0  0
  7  8  2  0  0  0  0
  9 10  2  0  0  0  0
  9 12  1  0  0  0  0
 10 11  1  0  0  0  0
 12 13  3  0  0  0  0
M  END
>  <CHROM.1>
35.82028346,33.90215489,24.85465897,0.31709626,-0.63009025,-0.59447182

>  <Name>
ligand

>  <RI>
0

>  <Rbt.Current_Directory>
/home/itssahil/PROJECTS/Mol_Feturizer/New_Systems/rnas/3GCA

>  <Rbt.Executable>
rbdock ($Id: //depot/dev/client3/rdock/2013.1/src/exe/rbdock.cxx#4 $)

>  <Rbt.Library>
libRbt.so (2013.1, Build901 2013/11/27)

>  <Rbt.Parameter_File>
/export/apps/rDock/src/rDock_2013.1_src/data/scripts/dock_solv.prm

>  <Rbt.Receptor>
prm/pocket_docking_8.prm

>  <SCORE>
-22.0211

>  <SCORE.INTER>
-22.0211

>  <SCORE.INTER.CONST>
1

>  <SCORE.INTER.POLAR>
0

>  <SCORE.INTER.ROT>
0

>  <SCORE.INTER.SOLV>
10.2024

>  <SCORE.INTER.VDW>
-21.6816

>  <SCORE.INTER.norm>
-1.69393

>  <SCORE.INTRA>
0

>  <SCORE.INTRA.DIHEDRAL>
0

>  <SCORE.INTRA.DIHEDRAL.0>
0

>  <SCORE.INTRA.POLAR>
0

>  <SCORE.INTRA.POLAR.0>
0

>  <SCORE.INTRA.REPUL>
0

>  <SCORE.INTRA.REPUL.0>
0

>  <SCORE.INTRA.SOLV>
0

>  <SCORE.INTRA.SOLV.lig_0>
-33.1994

>  <SCORE.INTRA.VDW>
0

>  <SCORE.INTRA.VDW.0>
0

>  <SCORE.INTRA.norm>
0

>  <SCORE.RESTR>
0

>  <SCORE.RESTR.CAVITY>
0

>  <SCORE.RESTR.norm>
0

>  <SCORE.SYSTEM>
0

>  <SCORE.SYSTEM.CONST>
0

>  <SCORE.SYSTEM.DIHEDRAL>
0

>  <SCORE.SYSTEM.SOLV>
0

>  <SCORE.SYSTEM.norm>
0

>  <SCORE.heavy>
13

>  <SCORE.norm>
-1.69393

>  <RMSD>
4.262

$$$$
ligand
 OpenBabel11021811473D
libRbt.so/2013.1/901 2013/11/27
 13 14  0  0  0  0  0  0  0  0999 V2000
   36.7686   35.7907   24.4190 N   0  0  0  0  0  0  0  0  0  0  0  0
   37.7789   35.4209   25.5821 C   0  0  0  0  0  0  0  0  0  0  0  0
   38.7991   36.2995   25.8902 N   0  0  0  0  0  0  0  0  0  0  0  0
   37.5196   34.2923   26.0949 N   0  0  0  0  0  0  0  0  0  0  0  0
   36.5399   33.4035   25.8410 C   0  0  0  0  0  0  0  0  0  0  0  0
   35.6320   33.6433   24.8746 C   0  0  0  0  0  0  0  0  0  0  0  0
   35.7720   34.9906   24.0622 C   0  0  0  0  0  0  0  0  0  0  0  0
   34.9631   35.1917   23.2143 O   0  0  0  0  0  0  0  0  0  0  0  0
   34.6096   32.5017   24.7224 C   0  0  0  0  0  0  0  0  0  0  0  0
   34.9537   31.5991   25.6479 C   0  0  0  0  0  0  0  0  0  0  0  0
   36.0528   31.9237   26.3966 N   0  0  0  0  0  0  0  0  0  0  0  0
   33.4796   32.4583   23.7671 C   0  0  0  0  0  0  0  0  0  0  0  0
   32.6284   32.4652   22.9845 N   0  0  0  0  0  0  0  0  0  0  0  0
  1  2  1  0  0  0  0
  1  7  1  0  0  0  0
  2  3  1  0  0  0  0
  2  4  2  0  0  0  0
  4  5  1  0  0  0  0
  5  6  2  0  0  0  0
  5 11  1  0  0  0  0
  6  7  1  0  0  0  0
  6  9  1  0  0  0  0
  7  8  2  0  0  0  0
  9 10  2  0  0  0  0
  9 12  1  0  0  0  0
 10 11  1  0  0  0  0
 12 13  3  0  0  0  0
M  END
>  <CHROM.1>
35.81973049,33.89440192,24.86120952,0.31470409,-0.63531566,-0.59584141

>  <Name>
ligand

>  <RI>
0

>  <Rbt.Current_Directory>
/home/itssahil/PROJECTS/Mol_Feturizer/New_Systems/rnas/3GCA

>  <Rbt.Executable>
rbdock ($Id: //depot/dev/client3/rdock/2013.1/src/exe/rbdock.cxx#4 $)

>  <Rbt.Library>
libRbt.so (2013.1, Build901 2013/11/27)

>  <Rbt.Parameter_File>
/export/apps/rDock/src/rDock_2013.1_src/data/scripts/dock_solv.prm

>  <Rbt.Receptor>
prm/pocket_docking_8.prm

>  <SCORE>
-22.0181

>  <SCORE.INTER>
-22.0181

>  <SCORE.INTER.CONST>
1

>  <SCORE.INTER.POLAR>
0

>  <SCORE.INTER.ROT>
0

>  <SCORE.INTER.SOLV>
10.1751

>  <SCORE.INTER.VDW>
-21.6705

>  <SCORE.INTER.norm>
-1.6937

>  <SCORE.INTRA>
0

>  <SCORE.INTRA.DIHEDRAL>
0

>  <SCORE.INTRA.DIHEDRAL.0>
0

>  <SCORE.INTRA.POLAR>
0

>  <SCORE.INTRA.POLAR.0>
0

>  <SCORE.INTRA.REPUL>
0

>  <SCORE.INTRA.REPUL.0>
0

>  <SCORE.INTRA.SOLV>
0

>  <SCORE.INTRA.SOLV.lig_0>
-33.1994

>  <SCORE.INTRA.VDW>
0

>  <SCORE.INTRA.VDW.0>
0

>  <SCORE.INTRA.norm>
0

>  <SCORE.RESTR>
0

>  <SCORE.RESTR.CAVITY>
0

>  <SCORE.RESTR.norm>
0

>  <SCORE.SYSTEM>
0

>  <SCORE.SYSTEM.CONST>
0

>  <SCORE.SYSTEM.DIHEDRAL>
0

>  <SCORE.SYSTEM.SOLV>
0

>  <SCORE.SYSTEM.norm>
0

>  <SCORE.heavy>
13

>  <SCORE.norm>
-1.6937

>  <RMSD>
4.262

$$$$
ligand
 OpenBabel11021811473D
libRbt.so/2013.1/901 2013/11/27
 13 14  0  0  0  0  0  0  0  0999 V2000
   36.7799   35.7983   24.4080 N   0  0  0  0  0  0  0  0  0  0  0  0
   37.7954   35.4275   25.5663 C   0  0  0  0  0  0  0  0  0  0  0  0
   38.8195   36.3039   25.8676 N   0  0  0  0  0  0  0  0  0  0  0  0
   37.5358   34.3005   26.0822 N   0  0  0  0  0  0  0  0  0  0  0  0
   36.5525   33.4138   25.8349 C   0  0  0  0  0  0  0  0  0  0  0  0
   35.6400   33.6546   24.8730 C   0  0  0  0  0  0  0  0  0  0  0  0
   35.7792   35.0003   24.0578 C   0  0  0  0  0  0  0  0  0  0  0  0
   34.9664   35.2023   23.2140 O   0  0  0  0  0  0  0  0  0  0  0  0
   34.6138   32.5155   24.7280 C   0  0  0  0  0  0  0  0  0  0  0  0
   34.9604   31.6134   25.6530 C   0  0  0  0  0  0  0  0  0  0  0  0
   36.0644   31.9362   26.3953 N   0  0  0  0  0  0  0  0  0  0  0  0
   33.4786   32.4736   23.7788 C   0  0  0  0  0  0  0  0  0  0  0  0
   32.6232   32.4816   23.0008 N   0  0  0  0  0  0  0  0  0  0  0  0
  1  2  1  0  0  0  0
  1  7  1  0  0  0  0
  2  3  1  0  0  0  0
  2  4  2  0  0  0  0
  4  5  1  0  0  0  0
  5  6  2  0  0  0  0
  5 11  1  0  0  0  0
  6  7  1  0  0  0  0
  6  9  1  0  0  0  0
  7  8  2  0  0  0  0
  9 10  2  0  0  0  0
  9 12  1  0  0  0  0
 10 11  1  0  0  0  0
 12 13  3  0  0  0  0
M  END
>  <CHROM.1>
35.82835554,33.90519691,24.85820314,0.31569917,-0.62940055,-0.59676722

>  <Name>
ligand

>  <RI>
0

>  <Rbt.Current_Directory>
/home/itssahil/PROJECTS/Mol_Feturizer/New_Systems/rnas/3GCA

>  <Rbt.Executable>
rbdock ($Id: //depot/dev/client3/rdock/2013.1/src/exe/rbdock.cxx#4 $)

>  <Rbt.Library>
libRbt.so (2013.1, Build901 2013/11/27)

>  <Rbt.Parameter_File>
/export/apps/rDock/src/rDock_2013.1_src/data/scripts/dock_solv.prm

>  <Rbt.Receptor>
prm/pocket_docking_3.prm

>  <SCORE>
-22.025

>  <SCORE.INTER>
-22.025

>  <SCORE.INTER.CONST>
1

>  <SCORE.INTER.POLAR>
0

>  <SCORE.INTER.ROT>
0

>  <SCORE.INTER.SOLV>
10.1654

>  <SCORE.INTER.VDW>
-21.6718

>  <SCORE.INTER.norm>
-1.69423

>  <SCORE.INTRA>
0

>  <SCORE.INTRA.DIHEDRAL>
0

>  <SCORE.INTRA.DIHEDRAL.0>
0

>  <SCORE.INTRA.POLAR>
0

>  <SCORE.INTRA.POLAR.0>
0

>  <SCORE.INTRA.REPUL>
0

>  <SCORE.INTRA.REPUL.0>
0

>  <SCORE.INTRA.SOLV>
0

>  <SCORE.INTRA.SOLV.lig_0>
-33.1994

>  <SCORE.INTRA.VDW>
0

>  <SCORE.INTRA.VDW.0>
0

>  <SCORE.INTRA.norm>
0

>  <SCORE.RESTR>
0

>  <SCORE.RESTR.CAVITY>
0

>  <SCORE.RESTR.norm>
0

>  <SCORE.SYSTEM>
0

>  <SCORE.SYSTEM.CONST>
0

>  <SCORE.SYSTEM.DIHEDRAL>
0

>  <SCORE.SYSTEM.SOLV>
0

>  <SCORE.SYSTEM.norm>
0

>  <SCORE.heavy>
13

>  <SCORE.norm>
-1.69423

>  <RMSD>
4.263

$$$$
ligand
 OpenBabel11021811473D
libRbt.so/2013.1/901 2013/11/27
 13 14  0  0  0  0  0  0  0  0999 V2000
   36.7708   35.8021   24.4022 N   0  0  0  0  0  0  0  0  0  0  0  0
   37.7662   35.4286   25.5769 C   0  0  0  0  0  0  0  0  0  0  0  0
   38.7886   36.3014   25.8939 N   0  0  0  0  0  0  0  0  0  0  0  0
   37.4941   34.3030   26.0896 N   0  0  0  0  0  0  0  0  0  0  0  0
   36.5116   33.4198   25.8272 C   0  0  0  0  0  0  0  0  0  0  0  0
   35.6156   33.6630   24.8506 C   0  0  0  0  0  0  0  0  0  0  0  0
   35.7730   35.0075   24.0365 C   0  0  0  0  0  0  0  0  0  0  0  0
   34.9746   35.2117   23.1795 O   0  0  0  0  0  0  0  0  0  0  0  0
   34.5876   32.5276   24.6900 C   0  0  0  0  0  0  0  0  0  0  0  0
   34.9160   31.6251   25.6213 C   0  0  0  0  0  0  0  0  0  0  0  0
   36.0091   31.9445   26.3810 N   0  0  0  0  0  0  0  0  0  0  0  0
   33.4677   32.4891   23.7227 C   0  0  0  0  0  0  0  0  0  0  0  0
   32.6250   32.4995   22.9310 N   0  0  0  0  0  0  0  0  0  0  0  0
  1  2  1  0  0  0  0
  1  7  1  0  0  0  0
  2  3  1  0  0  0  0
  2  4  2  0  0  0  0
  4  5  1  0  0  0  0
  5  6  2  0  0  0  0
  5 11  1  0  0  0  0
  6  7  1  0  0  0  0
  6  9  1  0  0  0  0
  7  8  2  0  0  0  0
  9 10  2  0  0  0  0
  9 12  1  0  0  0  0
 10 11  1  0  0  0  0
 12 13  3  0  0  0  0
M  END
>  <CHROM.1>
35.80510997,33.91292439,24.83858569,0.30056695,-0.64056723,-0.60664096

>  <Name>
ligand

>  <RI>
0

>  <Rbt.Current_Directory>
/home/itssahil/PROJECTS/Mol_Feturizer/New_Systems/rnas/3GCA

>  <Rbt.Executable>
rbdock ($Id: //depot/dev/client3/rdock/2013.1/src/exe/rbdock.cxx#4 $)

>  <Rbt.Library>
libRbt.so (2013.1, Build901 2013/11/27)

>  <Rbt.Parameter_File>
/export/apps/rDock/src/rDock_2013.1_src/data/scripts/dock_solv.prm

>  <Rbt.Receptor>
prm/pocket_docking_3.prm

>  <SCORE>
-21.9534

>  <SCORE.INTER>
-21.9534

>  <SCORE.INTER.CONST>
1

>  <SCORE.INTER.POLAR>
0

>  <SCORE.INTER.ROT>
0

>  <SCORE.INTER.SOLV>
10.2208

>  <SCORE.INTER.VDW>
-21.6426

>  <SCORE.INTER.norm>
-1.68873

>  <SCORE.INTRA>
0

>  <SCORE.INTRA.DIHEDRAL>
0

>  <SCORE.INTRA.DIHEDRAL.0>
0

>  <SCORE.INTRA.POLAR>
0

>  <SCORE.INTRA.POLAR.0>
0

>  <SCORE.INTRA.REPUL>
0

>  <SCORE.INTRA.REPUL.0>
0

>  <SCORE.INTRA.SOLV>
0

>  <SCORE.INTRA.SOLV.lig_0>
-33.1994

>  <SCORE.INTRA.VDW>
0

>  <SCORE.INTRA.VDW.0>
0

>  <SCORE.INTRA.norm>
0

>  <SCORE.RESTR>
0

>  <SCORE.RESTR.CAVITY>
0

>  <SCORE.RESTR.norm>
0

>  <SCORE.SYSTEM>
0

>  <SCORE.SYSTEM.CONST>
0

>  <SCORE.SYSTEM.DIHEDRAL>
0

>  <SCORE.SYSTEM.SOLV>
0

>  <SCORE.SYSTEM.norm>
0

>  <SCORE.heavy>
13

>  <SCORE.norm>
-1.68873

>  <RMSD>
4.263

$$$$
ligand
 OpenBabel11021811473D
libRbt.so/2013.1/901 2013/11/27
 13 14  0  0  0  0  0  0  0  0999 V2000
   36.7722   35.8027   24.4120 N   0  0  0  0  0  0  0  0  0  0  0  0
   37.7864   35.4387   25.5736 C   0  0  0  0  0  0  0  0  0  0  0  0
   38.8032   36.3223   25.8786 N   0  0  0  0  0  0  0  0  0  0  0  0
   37.5332   34.3097   26.0882 N   0  0  0  0  0  0  0  0  0  0  0  0
   36.5570   33.4161   25.8372 C   0  0  0  0  0  0  0  0  0  0  0  0
   35.6461   33.6507   24.8724 C   0  0  0  0  0  0  0  0  0  0  0  0
   35.7784   34.9978   24.0581 C   0  0  0  0  0  0  0  0  0  0  0  0
   34.9670   35.1942   23.2116 O   0  0  0  0  0  0  0  0  0  0  0  0
   34.6285   32.5044   24.7235 C   0  0  0  0  0  0  0  0  0  0  0  0
   34.9785   31.6045   25.6493 C   0  0  0  0  0  0  0  0  0  0  0  0
   36.0777   31.9348   26.3955 N   0  0  0  0  0  0  0  0  0  0  0  0
   33.4968   32.4548   23.7704 C   0  0  0  0  0  0  0  0  0  0  0  0
   32.6441   32.4570   22.9896 N   0  0  0  0  0  0  0  0  0  0  0  0
  1  2  1  0  0  0  0
  1  7  1  0  0  0  0
  2  3  1  0  0  0  0
  2  4  2  0  0  0  0
  4  5  1  0  0  0  0
  5  6  2  0  0  0  0
  5 11  1  0  0  0  0
  6  7  1  0  0  0  0
  6  9  1  0  0  0  0
  7  8  2  0  0  0  0
  9 10  2  0  0  0  0
  9 12  1  0  0  0  0
 10 11  1  0  0  0  0
 12 13  3  0  0  0  0
M  END
>  <CHROM.1>
35.83267315,33.90267021,24.85830293,0.32070108,-0.63618912,-0.59342898

>  <Name>
ligand

>  <RI>
0

>  <Rbt.Current_Directory>
/home/itssahil/PROJECTS/Mol_Feturizer/New_Systems/rnas/3GCA

>  <Rbt.Executable>
rbdock ($Id: //depot/dev/client3/rdock/2013.1/src/exe/rbdock.cxx#4 $)

>  <Rbt.Library>
libRbt.so (2013.1, Build901 2013/11/27)

>  <Rbt.Parameter_File>
/export/apps/rDock/src/rDock_2013.1_src/data/scripts/dock_solv.prm

>  <Rbt.Receptor>
prm/pocket_docking_3.prm

>  <SCORE>
-22.0219

>  <SCORE.INTER>
-22.0219

>  <SCORE.INTER.CONST>
1

>  <SCORE.INTER.POLAR>
0

>  <SCORE.INTER.ROT>
0

>  <SCORE.INTER.SOLV>
10.1531

>  <SCORE.INTER.VDW>
-21.6656

>  <SCORE.INTER.norm>
-1.69399

>  <SCORE.INTRA>
0

>  <SCORE.INTRA.DIHEDRAL>
0

>  <SCORE.INTRA.DIHEDRAL.0>
0

>  <SCORE.INTRA.POLAR>
0

>  <SCORE.INTRA.POLAR.0>
0

>  <SCORE.INTRA.REPUL>
0

>  <SCORE.INTRA.REPUL.0>
0

>  <SCORE.INTRA.SOLV>
0

>  <SCORE.INTRA.SOLV.lig_0>
-33.1994

>  <SCORE.INTRA.VDW>
0

>  <SCORE.INTRA.VDW.0>
0

>  <SCORE.INTRA.norm>
0

>  <SCORE.RESTR>
0

>  <SCORE.RESTR.CAVITY>
0

>  <SCORE.RESTR.norm>
0

>  <SCORE.SYSTEM>
0

>  <SCORE.SYSTEM.CONST>
0

>  <SCORE.SYSTEM.DIHEDRAL>
0

>  <SCORE.SYSTEM.SOLV>
0

>  <SCORE.SYSTEM.norm>
0

>  <SCORE.heavy>
13

>  <SCORE.norm>
-1.69399

>  <RMSD>
4.263

$$$$
ligand
 OpenBabel11021811473D
libRbt.so/2013.1/901 2013/11/27
 13 14  0  0  0  0  0  0  0  0999 V2000
   36.7823   35.7916   24.4153 N   0  0  0  0  0  0  0  0  0  0  0  0
   37.7962   35.4165   25.5736 C   0  0  0  0  0  0  0  0  0  0  0  0
   38.8221   36.2899   25.8771 N   0  0  0  0  0  0  0  0  0  0  0  0
   37.5336   34.2892   26.0875 N   0  0  0  0  0  0  0  0  0  0  0  0
   36.5483   33.4053   25.8380 C   0  0  0  0  0  0  0  0  0  0  0  0
   35.6371   33.6498   24.8759 C   0  0  0  0  0  0  0  0  0  0  0  0
   35.7801   34.9966   24.0630 C   0  0  0  0  0  0  0  0  0  0  0  0
   34.9683   35.2019   23.2190 O   0  0  0  0  0  0  0  0  0  0  0  0
   34.6083   32.5133   24.7282 C   0  0  0  0  0  0  0  0  0  0  0  0
   34.9522   31.6089   25.6520 C   0  0  0  0  0  0  0  0  0  0  0  0
   36.0565   31.9278   26.3956 N   0  0  0  0  0  0  0  0  0  0  0  0
   33.4737   32.4757   23.7782 C   0  0  0  0  0  0  0  0  0  0  0  0
   32.6189   32.4870   22.9996 N   0  0  0  0  0  0  0  0  0  0  0  0
  1  2  1  0  0  0  0
  1  7  1  0  0  0  0
  2  3  1  0  0  0  0
  2  4  2  0  0  0  0
  4  5  1  0  0  0  0
  5  6  2  0  0  0  0
  5 11  1  0  0  0  0
  6  7  1  0  0  0  0
  6  9  1  0  0  0  0
  7  8  2  0  0  0  0
  9 10  2  0  0  0  0
  9 12  1  0  0  0  0
 10 11  1  0  0  0  0
 12 13  3  0  0  0  0
M  END
>  <CHROM.1>
35.82604951,33.89996422,24.86164365,0.31282188,-0.62865501,-0.59677510

>  <Name>
ligand

>  <RI>
0

>  <Rbt.Current_Directory>
/home/itssahil/PROJECTS/Mol_Feturizer/New_Systems/rnas/3GCA

>  <Rbt.Executable>
rbdock ($Id: //depot/dev/client3/rdock/2013.1/src/exe/rbdock.cxx#4 $)

>  <Rbt.Library>
libRbt.so (2013.1, Build901 2013/11/27)

>  <Rbt.Parameter_File>
/export/apps/rDock/src/rDock_2013.1_src/data/scripts/dock_solv.prm

>  <Rbt.Receptor>
prm/pocket_docking_3.prm

>  <SCORE>
-22.0213

>  <SCORE.INTER>
-22.0213

>  <SCORE.INTER.CONST>
1

>  <SCORE.INTER.POLAR>
0

>  <SCORE.INTER.ROT>
0

>  <SCORE.INTER.SOLV>
10.1541

>  <SCORE.INTER.VDW>
-21.6656

>  <SCORE.INTER.norm>
-1.69395

>  <SCORE.INTRA>
0

>  <SCORE.INTRA.DIHEDRAL>
0

>  <SCORE.INTRA.DIHEDRAL.0>
0

>  <SCORE.INTRA.POLAR>
0

>  <SCORE.INTRA.POLAR.0>
0

>  <SCORE.INTRA.REPUL>
0

>  <SCORE.INTRA.REPUL.0>
0

>  <SCORE.INTRA.SOLV>
0

>  <SCORE.INTRA.SOLV.lig_0>
-33.1994

>  <SCORE.INTRA.VDW>
0

>  <SCORE.INTRA.VDW.0>
0

>  <SCORE.INTRA.norm>
0

>  <SCORE.RESTR>
0

>  <SCORE.RESTR.CAVITY>
0

>  <SCORE.RESTR.norm>
0

>  <SCORE.SYSTEM>
0

>  <SCORE.SYSTEM.CONST>
0

>  <SCORE.SYSTEM.DIHEDRAL>
0

>  <SCORE.SYSTEM.SOLV>
0

>  <SCORE.SYSTEM.norm>
0

>  <SCORE.heavy>
13

>  <SCORE.norm>
-1.69395

>  <RMSD>
4.263

$$$$
ligand
 OpenBabel11021811473D
libRbt.so/2013.1/901 2013/11/27
 13 14  0  0  0  0  0  0  0  0999 V2000
   36.7815   35.7870   24.4113 N   0  0  0  0  0  0  0  0  0  0  0  0
   37.7922   35.4139   25.5730 C   0  0  0  0  0  0  0  0  0  0  0  0
   38.8183   36.2872   25.8767 N   0  0  0  0  0  0  0  0  0  0  0  0
   37.5274   34.2882   26.0892 N   0  0  0  0  0  0  0  0  0  0  0  0
   36.5419   33.4046   25.8396 C   0  0  0  0  0  0  0  0  0  0  0  0
   35.6332   33.6474   24.8747 C   0  0  0  0  0  0  0  0  0  0  0  0
   35.7793   34.9919   24.0587 C   0  0  0  0  0  0  0  0  0  0  0  0
   34.9698   35.1958   23.2122 O   0  0  0  0  0  0  0  0  0  0  0  0
   34.6037   32.5116   24.7276 C   0  0  0  0  0  0  0  0  0  0  0  0
   34.9445   31.6092   25.6545 C   0  0  0  0  0  0  0  0  0  0  0  0
   36.0473   31.9290   26.3999 N   0  0  0  0  0  0  0  0  0  0  0  0
   33.4713   32.4725   23.7749 C   0  0  0  0  0  0  0  0  0  0  0  0
   32.6184   32.4826   22.9943 N   0  0  0  0  0  0  0  0  0  0  0  0
  1  2  1  0  0  0  0
  1  7  1  0  0  0  0
  2  3  1  0  0  0  0
  2  4  2  0  0  0  0
  4  5  1  0  0  0  0
  5  6  2  0  0  0  0
  5 11  1  0  0  0  0
  6  7  1  0  0  0  0
  6  9  1  0  0  0  0
  7  8  2  0  0  0  0
  9 10  2  0  0  0  0
  9 12  1  0  0  0  0
 10 11  1  0  0  0  0
 12 13  3  0  0  0  0
M  END
>  <CHROM.1>
35.82239932,33.89738689,24.86027282,0.31019046,-0.63010622,-0.60093619

>  <Name>
ligand

>  <RI>
0

>  <Rbt.Current_Directory>
/home/itssahil/PROJECTS/Mol_Feturizer/New_Systems/rnas/3GCA

>  <Rbt.Executable>
rbdock ($Id: //depot/dev/client3/rdock/2013.1/src/exe/rbdock.cxx#4 $)

>  <Rbt.Library>
libRbt.so (2013.1, Build901 2013/11/27)

>  <Rbt.Parameter_File>
/export/apps/rDock/src/rDock_2013.1_src/data/scripts/dock_solv.prm

>  <Rbt.Receptor>
prm/pocket_docking_3.prm

>  <SCORE>
-22.0221

>  <SCORE.INTER>
-22.0221

>  <SCORE.INTER.CONST>
1

>  <SCORE.INTER.POLAR>
0

>  <SCORE.INTER.ROT>
0

>  <SCORE.INTER.SOLV>
10.1732

>  <SCORE.INTER.VDW>
-21.6725

>  <SCORE.INTER.norm>
-1.69401

>  <SCORE.INTRA>
0

>  <SCORE.INTRA.DIHEDRAL>
0

>  <SCORE.INTRA.DIHEDRAL.0>
0

>  <SCORE.INTRA.POLAR>
0

>  <SCORE.INTRA.POLAR.0>
0

>  <SCORE.INTRA.REPUL>
0

>  <SCORE.INTRA.REPUL.0>
0

>  <SCORE.INTRA.SOLV>
0

>  <SCORE.INTRA.SOLV.lig_0>
-33.1994

>  <SCORE.INTRA.VDW>
0

>  <SCORE.INTRA.VDW.0>
0

>  <SCORE.INTRA.norm>
0

>  <SCORE.RESTR>
0

>  <SCORE.RESTR.CAVITY>
0

>  <SCORE.RESTR.norm>
0

>  <SCORE.SYSTEM>
0

>  <SCORE.SYSTEM.CONST>
0

>  <SCORE.SYSTEM.DIHEDRAL>
0

>  <SCORE.SYSTEM.SOLV>
0

>  <SCORE.SYSTEM.norm>
0

>  <SCORE.heavy>
13

>  <SCORE.norm>
-1.69401

>  <RMSD>
4.263

$$$$
ligand
 OpenBabel11021811473D
libRbt.so/2013.1/901 2013/11/27
 13 14  0  0  0  0  0  0  0  0999 V2000
   36.7776   35.8021   24.4127 N   0  0  0  0  0  0  0  0  0  0  0  0
   37.7919   35.4339   25.5729 C   0  0  0  0  0  0  0  0  0  0  0  0
   38.8131   36.3130   25.8761 N   0  0  0  0  0  0  0  0  0  0  0  0
   37.5343   34.3062   26.0884 N   0  0  0  0  0  0  0  0  0  0  0  0
   36.5537   33.4170   25.8392 C   0  0  0  0  0  0  0  0  0  0  0  0
   35.6425   33.6553   24.8756 C   0  0  0  0  0  0  0  0  0  0  0  0
   35.7797   35.0014   24.0606 C   0  0  0  0  0  0  0  0  0  0  0  0
   34.9680   35.2013   23.2152 O   0  0  0  0  0  0  0  0  0  0  0  0
   34.6195   32.5136   24.7287 C   0  0  0  0  0  0  0  0  0  0  0  0
   34.9667   31.6124   25.6544 C   0  0  0  0  0  0  0  0  0  0  0  0
   36.0685   31.9381   26.3988 N   0  0  0  0  0  0  0  0  0  0  0  0
   33.4862   32.4687   23.7773 C   0  0  0  0  0  0  0  0  0  0  0  0
   32.6323   32.4744   22.9977 N   0  0  0  0  0  0  0  0  0  0  0  0
  1  2  1  0  0  0  0
  1  7  1  0  0  0  0
  2  3  1  0  0  0  0
  2  4  2  0  0  0  0
  4  5  1  0  0  0  0
  5  6  2  0  0  0  0
  5 11  1  0  0  0  0
  6  7  1  0  0  0  0
  6  9  1  0  0  0  0
  7  8  2  0  0  0  0
  9 10  2  0  0  0  0
  9 12  1  0  0  0  0
 10 11  1  0  0  0  0
 12 13  3  0  0  0  0
M  END
>  <CHROM.1>
35.83016331,33.90643747,24.86115119,0.31706290,-0.63243673,-0.59598336

>  <Name>
ligand

>  <RI>
0

>  <Rbt.Current_Directory>
/home/itssahil/PROJECTS/Mol_Feturizer/New_Systems/rnas/3GCA

>  <Rbt.Executable>
rbdock ($Id: //depot/dev/client3/rdock/2013.1/src/exe/rbdock.cxx#4 $)

>  <Rbt.Library>
libRbt.so (2013.1, Build901 2013/11/27)

>  <Rbt.Parameter_File>
/export/apps/rDock/src/rDock_2013.1_src/data/scripts/dock_solv.prm

>  <Rbt.Receptor>
prm/pocket_docking_3.prm

>  <SCORE>
-22.0271

>  <SCORE.INTER>
-22.0271

>  <SCORE.INTER.CONST>
1

>  <SCORE.INTER.POLAR>
0

>  <SCORE.INTER.ROT>
0

>  <SCORE.INTER.SOLV>
10.1455

>  <SCORE.INTER.VDW>
-21.6665

>  <SCORE.INTER.norm>
-1.69439

>  <SCORE.INTRA>
0

>  <SCORE.INTRA.DIHEDRAL>
0

>  <SCORE.INTRA.DIHEDRAL.0>
0

>  <SCORE.INTRA.POLAR>
0

>  <SCORE.INTRA.POLAR.0>
0

>  <SCORE.INTRA.REPUL>
0

>  <SCORE.INTRA.REPUL.0>
0

>  <SCORE.INTRA.SOLV>
0

>  <SCORE.INTRA.SOLV.lig_0>
-33.1994

>  <SCORE.INTRA.VDW>
0

>  <SCORE.INTRA.VDW.0>
0

>  <SCORE.INTRA.norm>
0

>  <SCORE.RESTR>
0

>  <SCORE.RESTR.CAVITY>
0

>  <SCORE.RESTR.norm>
0

>  <SCORE.SYSTEM>
0

>  <SCORE.SYSTEM.CONST>
0

>  <SCORE.SYSTEM.DIHEDRAL>
0

>  <SCORE.SYSTEM.SOLV>
0

>  <SCORE.SYSTEM.norm>
0

>  <SCORE.heavy>
13

>  <SCORE.norm>
-1.69439

>  <RMSD>
4.263

$$$$
ligand
 OpenBabel11021811473D
libRbt.so/2013.1/901 2013/11/27
 13 14  0  0  0  0  0  0  0  0999 V2000
   36.7797   35.7860   24.3815 N   0  0  0  0  0  0  0  0  0  0  0  0
   37.7567   35.3818   25.5616 C   0  0  0  0  0  0  0  0  0  0  0  0
   38.8019   36.2242   25.8864 N   0  0  0  0  0  0  0  0  0  0  0  0
   37.4490   34.2637   26.0705 N   0  0  0  0  0  0  0  0  0  0  0  0
   36.4430   33.4097   25.8004 C   0  0  0  0  0  0  0  0  0  0  0  0
   35.5604   33.6805   24.8189 C   0  0  0  0  0  0  0  0  0  0  0  0
   35.7615   35.0213   24.0084 C   0  0  0  0  0  0  0  0  0  0  0  0
   34.9746   35.2500   23.1470 O   0  0  0  0  0  0  0  0  0  0  0  0
   34.5010   32.5756   24.6500 C   0  0  0  0  0  0  0  0  0  0  0  0
   34.7974   31.6624   25.5815 C   0  0  0  0  0  0  0  0  0  0  0  0
   35.8947   31.9486   26.3484 N   0  0  0  0  0  0  0  0  0  0  0  0
   33.3863   32.5712   23.6758 C   0  0  0  0  0  0  0  0  0  0  0  0
   32.5492   32.6073   22.8791 N   0  0  0  0  0  0  0  0  0  0  0  0
  1  2  1  0  0  0  0
  1  7  1  0  0  0  0
  2  3  1  0  0  0  0
  2  4  2  0  0  0  0
  4  5  1  0  0  0  0
  5  6  2  0  0  0  0
  5 11  1  0  0  0  0
  6  7  1  0  0  0  0
  6  9  1  0  0  0  0
  7  8  2  0  0  0  0
  9 10  2  0  0  0  0
  9 12  1  0  0  0  0
 10 11  1  0  0  0  0
 12 13  3  0  0  0  0
M  END
>  <CHROM.1>
35.75711091,33.92482641,24.80851502,0.26688275,-0.62880711,-0.62480108

>  <Name>
ligand

>  <RI>
0

>  <Rbt.Current_Directory>
/home/itssahil/PROJECTS/Mol_Feturizer/New_Systems/rnas/3GCA

>  <Rbt.Executable>
rbdock ($Id: //depot/dev/client3/rdock/2013.1/src/exe/rbdock.cxx#4 $)

>  <Rbt.Library>
libRbt.so (2013.1, Build901 2013/11/27)

>  <Rbt.Parameter_File>
/export/apps/rDock/src/rDock_2013.1_src/data/scripts/dock_solv.prm

>  <Rbt.Receptor>
prm/pocket_docking_4.prm

>  <SCORE>
-22.0164

>  <SCORE.INTER>
-22.0164

>  <SCORE.INTER.CONST>
1

>  <SCORE.INTER.POLAR>
0

>  <SCORE.INTER.ROT>
0

>  <SCORE.INTER.SOLV>
10.3449

>  <SCORE.INTER.VDW>
-21.7259

>  <SCORE.INTER.norm>
-1.69357

>  <SCORE.INTRA>
0

>  <SCORE.INTRA.DIHEDRAL>
0

>  <SCORE.INTRA.DIHEDRAL.0>
0

>  <SCORE.INTRA.POLAR>
0

>  <SCORE.INTRA.POLAR.0>
0

>  <SCORE.INTRA.REPUL>
0

>  <SCORE.INTRA.REPUL.0>
0

>  <SCORE.INTRA.SOLV>
0

>  <SCORE.INTRA.SOLV.lig_0>
-33.1994

>  <SCORE.INTRA.VDW>
0

>  <SCORE.INTRA.VDW.0>
0

>  <SCORE.INTRA.norm>
0

>  <SCORE.RESTR>
0

>  <SCORE.RESTR.CAVITY>
0

>  <SCORE.RESTR.norm>
0

>  <SCORE.SYSTEM>
0

>  <SCORE.SYSTEM.CONST>
0

>  <SCORE.SYSTEM.DIHEDRAL>
0

>  <SCORE.SYSTEM.SOLV>
0

>  <SCORE.SYSTEM.norm>
0

>  <SCORE.heavy>
13

>  <SCORE.norm>
-1.69357

>  <RMSD>
4.263

$$$$
ligand
 OpenBabel11021811473D
libRbt.so/2013.1/901 2013/11/27
 13 14  0  0  0  0  0  0  0  0999 V2000
   36.7706   35.8022   24.4083 N   0  0  0  0  0  0  0  0  0  0  0  0
   37.7838   35.4351   25.5698 C   0  0  0  0  0  0  0  0  0  0  0  0
   38.8054   36.3139   25.8725 N   0  0  0  0  0  0  0  0  0  0  0  0
   37.5251   34.3083   26.0867 N   0  0  0  0  0  0  0  0  0  0  0  0
   36.5441   33.4194   25.8381 C   0  0  0  0  0  0  0  0  0  0  0  0
   35.6338   33.6569   24.8735 C   0  0  0  0  0  0  0  0  0  0  0  0
   35.7725   35.0017   24.0567 C   0  0  0  0  0  0  0  0  0  0  0  0
   34.9615   35.2008   23.2104 O   0  0  0  0  0  0  0  0  0  0  0  0
   34.6102   32.5156   24.7275 C   0  0  0  0  0  0  0  0  0  0  0  0
   34.9561   31.6156   25.6548 C   0  0  0  0  0  0  0  0  0  0  0  0
   36.0575   31.9416   26.3995 N   0  0  0  0  0  0  0  0  0  0  0  0
   33.4775   32.4701   23.7754 C   0  0  0  0  0  0  0  0  0  0  0  0
   32.6242   32.4752   22.9951 N   0  0  0  0  0  0  0  0  0  0  0  0
  1  2  1  0  0  0  0
  1  7  1  0  0  0  0
  2  3  1  0  0  0  0
  2  4  2  0  0  0  0
  4  5  1  0  0  0  0
  5  6  2  0  0  0  0
  5 11  1  0  0  0  0
  6  7  1  0  0  0  0
  6  9  1  0  0  0  0
  7  8  2  0  0  0  0
  9 10  2  0  0  0  0
  9 12  1  0  0  0  0
 10 11  1  0  0  0  0
 12 13  3  0  0  0  0
M  END
>  <CHROM.1>
35.82162575,33.90784072,24.85882087,0.31588680,-0.63267826,-0.59814273

>  <Name>
ligand

>  <RI>
0

>  <Rbt.Current_Directory>
/home/itssahil/PROJECTS/Mol_Feturizer/New_Systems/rnas/3GCA

>  <Rbt.Executable>
rbdock ($Id: //depot/dev/client3/rdock/2013.1/src/exe/rbdock.cxx#4 $)

>  <Rbt.Library>
libRbt.so (2013.1, Build901 2013/11/27)

>  <Rbt.Parameter_File>
/export/apps/rDock/src/rDock_2013.1_src/data/scripts/dock_solv.prm

>  <Rbt.Receptor>
prm/pocket_docking_4.prm

>  <SCORE>
-22.0268

>  <SCORE.INTER>
-22.0268

>  <SCORE.INTER.CONST>
1

>  <SCORE.INTER.POLAR>
0

>  <SCORE.INTER.ROT>
0

>  <SCORE.INTER.SOLV>
10.1795

>  <SCORE.INTER.VDW>
-21.6777

>  <SCORE.INTER.norm>
-1.69437

>  <SCORE.INTRA>
0

>  <SCORE.INTRA.DIHEDRAL>
0

>  <SCORE.INTRA.DIHEDRAL.0>
0

>  <SCORE.INTRA.POLAR>
0

>  <SCORE.INTRA.POLAR.0>
0

>  <SCORE.INTRA.REPUL>
0

>  <SCORE.INTRA.REPUL.0>
0

>  <SCORE.INTRA.SOLV>
0

>  <SCORE.INTRA.SOLV.lig_0>
-33.1994

>  <SCORE.INTRA.VDW>
0

>  <SCORE.INTRA.VDW.0>
0

>  <SCORE.INTRA.norm>
0

>  <SCORE.RESTR>
0

>  <SCORE.RESTR.CAVITY>
0

>  <SCORE.RESTR.norm>
0

>  <SCORE.SYSTEM>
0

>  <SCORE.SYSTEM.CONST>
0

>  <SCORE.SYSTEM.DIHEDRAL>
0

>  <SCORE.SYSTEM.SOLV>
0

>  <SCORE.SYSTEM.norm>
0

>  <SCORE.heavy>
13

>  <SCORE.norm>
-1.69437

>  <RMSD>
4.263

$$$$
ligand
 OpenBabel11021811473D
libRbt.so/2013.1/901 2013/11/27
 13 14  0  0  0  0  0  0  0  0999 V2000
   36.7758   35.7978   24.4144 N   0  0  0  0  0  0  0  0  0  0  0  0
   37.7875   35.4321   25.5775 C   0  0  0  0  0  0  0  0  0  0  0  0
   38.8065   36.3130   25.8829 N   0  0  0  0  0  0  0  0  0  0  0  0
   37.5303   34.3043   26.0931 N   0  0  0  0  0  0  0  0  0  0  0  0
   36.5519   33.4134   25.8418 C   0  0  0  0  0  0  0  0  0  0  0  0
   35.6429   33.6496   24.8756 C   0  0  0  0  0  0  0  0  0  0  0  0
   35.7801   34.9954   24.0601 C   0  0  0  0  0  0  0  0  0  0  0  0
   34.9704   35.1933   23.2123 O   0  0  0  0  0  0  0  0  0  0  0  0
   34.6221   32.5061   24.7266 C   0  0  0  0  0  0  0  0  0  0  0  0
   34.9683   31.6061   25.6539 C   0  0  0  0  0  0  0  0  0  0  0  0
   36.0675   31.9340   26.4011 N   0  0  0  0  0  0  0  0  0  0  0  0
   33.4915   32.4587   23.7722 C   0  0  0  0  0  0  0  0  0  0  0  0
   32.6397   32.4626   22.9903 N   0  0  0  0  0  0  0  0  0  0  0  0
  1  2  1  0  0  0  0
  1  7  1  0  0  0  0
  2  3  1  0  0  0  0
  2  4  2  0  0  0  0
  4  5  1  0  0  0  0
  5  6  2  0  0  0  0
  5 11  1  0  0  0  0
  6  7  1  0  0  0  0
  6  9  1  0  0  0  0
  7  8  2  0  0  0  0
  9 10  2  0  0  0  0
  9 12  1  0  0  0  0
 10 11  1  0  0  0  0
 12 13  3  0  0  0  0
M  END
>  <CHROM.1>
35.83019260,33.90097264,24.86147340,0.31682498,-0.63559643,-0.59680131

>  <Name>
ligand

>  <RI>
0

>  <Rbt.Current_Directory>
/home/itssahil/PROJECTS/Mol_Feturizer/New_Systems/rnas/3GCA

>  <Rbt.Executable>
rbdock ($Id: //depot/dev/client3/rdock/2013.1/src/exe/rbdock.cxx#4 $)

>  <Rbt.Library>
libRbt.so (2013.1, Build901 2013/11/27)

>  <Rbt.Parameter_File>
/export/apps/rDock/src/rDock_2013.1_src/data/scripts/dock_solv.prm

>  <Rbt.Receptor>
prm/pocket_docking_4.prm

>  <SCORE>
-22.0241

>  <SCORE.INTER>
-22.0241

>  <SCORE.INTER.CONST>
1

>  <SCORE.INTER.POLAR>
0

>  <SCORE.INTER.ROT>
0

>  <SCORE.INTER.SOLV>
10.1476

>  <SCORE.INTER.VDW>
-21.6653

>  <SCORE.INTER.norm>
-1.69416

>  <SCORE.INTRA>
0

>  <SCORE.INTRA.DIHEDRAL>
0

>  <SCORE.INTRA.DIHEDRAL.0>
0

>  <SCORE.INTRA.POLAR>
0

>  <SCORE.INTRA.POLAR.0>
0

>  <SCORE.INTRA.REPUL>
0

>  <SCORE.INTRA.REPUL.0>
0

>  <SCORE.INTRA.SOLV>
0

>  <SCORE.INTRA.SOLV.lig_0>
-33.1994

>  <SCORE.INTRA.VDW>
0

>  <SCORE.INTRA.VDW.0>
0

>  <SCORE.INTRA.norm>
0

>  <SCORE.RESTR>
0

>  <SCORE.RESTR.CAVITY>
0

>  <SCORE.RESTR.norm>
0

>  <SCORE.SYSTEM>
0

>  <SCORE.SYSTEM.CONST>
0

>  <SCORE.SYSTEM.DIHEDRAL>
0

>  <SCORE.SYSTEM.SOLV>
0

>  <SCORE.SYSTEM.norm>
0

>  <SCORE.heavy>
13

>  <SCORE.norm>
-1.69416

>  <RMSD>
4.263

$$$$
ligand
 OpenBabel11021811473D
libRbt.so/2013.1/901 2013/11/27
 13 14  0  0  0  0  0  0  0  0999 V2000
   36.7755   35.7994   24.4092 N   0  0  0  0  0  0  0  0  0  0  0  0
   37.7896   35.4326   25.5700 C   0  0  0  0  0  0  0  0  0  0  0  0
   38.8099   36.3128   25.8734 N   0  0  0  0  0  0  0  0  0  0  0  0
   37.5329   34.3048   26.0857 N   0  0  0  0  0  0  0  0  0  0  0  0
   36.5533   33.4146   25.8363 C   0  0  0  0  0  0  0  0  0  0  0  0
   35.6423   33.6517   24.8722 C   0  0  0  0  0  0  0  0  0  0  0  0
   35.7785   34.9977   24.0569 C   0  0  0  0  0  0  0  0  0  0  0  0
   34.9670   35.1965   23.2111 O   0  0  0  0  0  0  0  0  0  0  0  0
   34.6205   32.5090   24.7252 C   0  0  0  0  0  0  0  0  0  0  0  0
   34.9681   31.6084   25.6513 C   0  0  0  0  0  0  0  0  0  0  0  0
   36.0692   31.9354   26.3961 N   0  0  0  0  0  0  0  0  0  0  0  0
   33.4876   32.4627   23.7733 C   0  0  0  0  0  0  0  0  0  0  0  0
   32.6341   32.4674   22.9933 N   0  0  0  0  0  0  0  0  0  0  0  0
  1  2  1  0  0  0  0
  1  7  1  0  0  0  0
  2  3  1  0  0  0  0
  2  4  2  0  0  0  0
  4  5  1  0  0  0  0
  5  6  2  0  0  0  0
  5 11  1  0  0  0  0
  6  7  1  0  0  0  0
  6  9  1  0  0  0  0
  7  8  2  0  0  0  0
  9 10  2  0  0  0  0
  9 12  1  0  0  0  0
 10 11  1  0  0  0  0
 12 13  3  0  0  0  0
M  END
>  <CHROM.1>
35.82971226,33.90303845,24.85776846,0.31773979,-0.63335891,-0.59589444

>  <Name>
ligand

>  <RI>
0

>  <Rbt.Current_Directory>
/home/itssahil/PROJECTS/Mol_Feturizer/New_Systems/rnas/3GCA

>  <Rbt.Executable>
rbdock ($Id: //depot/dev/client3/rdock/2013.1/src/exe/rbdock.cxx#4 $)

>  <Rbt.Library>
libRbt.so (2013.1, Build901 2013/11/27)

>  <Rbt.Parameter_File>
/export/apps/rDock/src/rDock_2013.1_src/data/scripts/dock_solv.prm

>  <Rbt.Receptor>
prm/pocket_docking_4.prm

>  <SCORE>
-22.0256

>  <SCORE.INTER>
-22.0256

>  <SCORE.INTER.CONST>
1

>  <SCORE.INTER.POLAR>
0

>  <SCORE.INTER.ROT>
0

>  <SCORE.INTER.SOLV>
10.1642

>  <SCORE.INTER.VDW>
-21.6718

>  <SCORE.INTER.norm>
-1.69428

>  <SCORE.INTRA>
0

>  <SCORE.INTRA.DIHEDRAL>
0

>  <SCORE.INTRA.DIHEDRAL.0>
0

>  <SCORE.INTRA.POLAR>
0

>  <SCORE.INTRA.POLAR.0>
0

>  <SCORE.INTRA.REPUL>
0

>  <SCORE.INTRA.REPUL.0>
0

>  <SCORE.INTRA.SOLV>
0

>  <SCORE.INTRA.SOLV.lig_0>
-33.1994

>  <SCORE.INTRA.VDW>
0

>  <SCORE.INTRA.VDW.0>
0

>  <SCORE.INTRA.norm>
0

>  <SCORE.RESTR>
0

>  <SCORE.RESTR.CAVITY>
0

>  <SCORE.RESTR.norm>
0

>  <SCORE.SYSTEM>
0

>  <SCORE.SYSTEM.CONST>
0

>  <SCORE.SYSTEM.DIHEDRAL>
0

>  <SCORE.SYSTEM.SOLV>
0

>  <SCORE.SYSTEM.norm>
0

>  <SCORE.heavy>
13

>  <SCORE.norm>
-1.69428

>  <RMSD>
4.263

$$$$
ligand
 OpenBabel11021811473D
libRbt.so/2013.1/901 2013/11/27
 13 14  0  0  0  0  0  0  0  0999 V2000
   36.7730   35.7986   24.4084 N   0  0  0  0  0  0  0  0  0  0  0  0
   37.7863   35.4312   25.5697 C   0  0  0  0  0  0  0  0  0  0  0  0
   38.8074   36.3104   25.8731 N   0  0  0  0  0  0  0  0  0  0  0  0
   37.5281   34.3040   26.0859 N   0  0  0  0  0  0  0  0  0  0  0  0
   36.5476   33.4147   25.8366 C   0  0  0  0  0  0  0  0  0  0  0  0
   35.6372   33.6524   24.8720 C   0  0  0  0  0  0  0  0  0  0  0  0
   35.7753   34.9978   24.0561 C   0  0  0  0  0  0  0  0  0  0  0  0
   34.9643   35.1970   23.2099 O   0  0  0  0  0  0  0  0  0  0  0  0
   34.6142   32.5106   24.7252 C   0  0  0  0  0  0  0  0  0  0  0  0
   34.9606   31.6102   25.6519 C   0  0  0  0  0  0  0  0  0  0  0  0
   36.0618   31.9363   26.3970 N   0  0  0  0  0  0  0  0  0  0  0  0
   33.4817   32.4652   23.7729 C   0  0  0  0  0  0  0  0  0  0  0  0
   32.6285   32.4704   22.9926 N   0  0  0  0  0  0  0  0  0  0  0  0
  1  2  1  0  0  0  0
  1  7  1  0  0  0  0
  2  3  1  0  0  0  0
  2  4  2  0  0  0  0
  4  5  1  0  0  0  0
  5  6  2  0  0  0  0
  5 11  1  0  0  0  0
  6  7  1  0  0  0  0
  6  9  1  0  0  0  0
  7  8  2  0  0  0  0
  9 10  2  0  0  0  0
  9 12  1  0  0  0  0
 10 11  1  0  0  0  0
 12 13  3  0  0  0  0
M  END
>  <CHROM.1>
35.82496505,33.90343435,24.85755186,0.31634899,-0.63304599,-0.59721544

>  <Name>
ligand

>  <RI>
0

>  <Rbt.Current_Directory>
/home/itssahil/PROJECTS/Mol_Feturizer/New_Systems/rnas/3GCA

>  <Rbt.Executable>
rbdock ($Id: //depot/dev/client3/rdock/2013.1/src/exe/rbdock.cxx#4 $)

>  <Rbt.Library>
libRbt.so (2013.1, Build901 2013/11/27)

>  <Rbt.Parameter_File>
/export/apps/rDock/src/rDock_2013.1_src/data/scripts/dock_solv.prm

>  <Rbt.Receptor>
prm/pocket_docking_5.prm

>  <SCORE>
-22.0262

>  <SCORE.INTER>
-22.0262

>  <SCORE.INTER.CONST>
1

>  <SCORE.INTER.POLAR>
0

>  <SCORE.INTER.ROT>
0

>  <SCORE.INTER.SOLV>
10.1775

>  <SCORE.INTER.VDW>
-21.6766

>  <SCORE.INTER.norm>
-1.69432

>  <SCORE.INTRA>
0

>  <SCORE.INTRA.DIHEDRAL>
0

>  <SCORE.INTRA.DIHEDRAL.0>
0

>  <SCORE.INTRA.POLAR>
0

>  <SCORE.INTRA.POLAR.0>
0

>  <SCORE.INTRA.REPUL>
0

>  <SCORE.INTRA.REPUL.0>
0

>  <SCORE.INTRA.SOLV>
0

>  <SCORE.INTRA.SOLV.lig_0>
-33.1994

>  <SCORE.INTRA.VDW>
0

>  <SCORE.INTRA.VDW.0>
0

>  <SCORE.INTRA.norm>
0

>  <SCORE.RESTR>
0

>  <SCORE.RESTR.CAVITY>
0

>  <SCORE.RESTR.norm>
0

>  <SCORE.SYSTEM>
0

>  <SCORE.SYSTEM.CONST>
0

>  <SCORE.SYSTEM.DIHEDRAL>
0

>  <SCORE.SYSTEM.SOLV>
0

>  <SCORE.SYSTEM.norm>
0

>  <SCORE.heavy>
13

>  <SCORE.norm>
-1.69432

>  <RMSD>
4.263

$$$$
ligand
 OpenBabel11021811473D
libRbt.so/2013.1/901 2013/11/27
 13 14  0  0  0  0  0  0  0  0999 V2000
   36.7764   35.7989   24.4105 N   0  0  0  0  0  0  0  0  0  0  0  0
   37.7889   35.4322   25.5726 C   0  0  0  0  0  0  0  0  0  0  0  0
   38.8097   36.3116   25.8763 N   0  0  0  0  0  0  0  0  0  0  0  0
   37.5304   34.3051   26.0892 N   0  0  0  0  0  0  0  0  0  0  0  0
   36.5502   33.4157   25.8396 C   0  0  0  0  0  0  0  0  0  0  0  0
   35.6404   33.6528   24.8743 C   0  0  0  0  0  0  0  0  0  0  0  0
   35.7789   34.9979   24.0579 C   0  0  0  0  0  0  0  0  0  0  0  0
   34.9685   35.1966   23.2110 O   0  0  0  0  0  0  0  0  0  0  0  0
   34.6176   32.5109   24.7273 C   0  0  0  0  0  0  0  0  0  0  0  0
   34.9634   31.6109   25.6547 C   0  0  0  0  0  0  0  0  0  0  0  0
   36.0640   31.9375   26.4003 N   0  0  0  0  0  0  0  0  0  0  0  0
   33.4857   32.4649   23.7743 C   0  0  0  0  0  0  0  0  0  0  0  0
   32.6330   32.4697   22.9934 N   0  0  0  0  0  0  0  0  0  0  0  0
  1  2  1  0  0  0  0
  1  7  1  0  0  0  0
  2  3  1  0  0  0  0
  2  4  2  0  0  0  0
  4  5  1  0  0  0  0
  5  6  2  0  0  0  0
  5 11  1  0  0  0  0
  6  7  1  0  0  0  0
  6  9  1  0  0  0  0
  7  8  2  0  0  0  0
  9 10  2  0  0  0  0
  9 12  1  0  0  0  0
 10 11  1  0  0  0  0
 12 13  3  0  0  0  0
M  END
>  <CHROM.1>
35.82814131,33.90388732,24.85984970,0.31595774,-0.63366237,-0.59791187

>  <Name>
ligand

>  <RI>
0

>  <Rbt.Current_Directory>
/home/itssahil/PROJECTS/Mol_Feturizer/New_Systems/rnas/3GCA

>  <Rbt.Executable>
rbdock ($Id: //depot/dev/client3/rdock/2013.1/src/exe/rbdock.cxx#4 $)

>  <Rbt.Library>
libRbt.so (2013.1, Build901 2013/11/27)

>  <Rbt.Parameter_File>
/export/apps/rDock/src/rDock_2013.1_src/data/scripts/dock_solv.prm

>  <Rbt.Receptor>
prm/pocket_docking_5.prm

>  <SCORE>
-22.0272

>  <SCORE.INTER>
-22.0272

>  <SCORE.INTER.CONST>
1

>  <SCORE.INTER.POLAR>
0

>  <SCORE.INTER.ROT>
0

>  <SCORE.INTER.SOLV>
10.159

>  <SCORE.INTER.VDW>
-21.6712

>  <SCORE.INTER.norm>
-1.6944

>  <SCORE.INTRA>
0

>  <SCORE.INTRA.DIHEDRAL>
0

>  <SCORE.INTRA.DIHEDRAL.0>
0

>  <SCORE.INTRA.POLAR>
0

>  <SCORE.INTRA.POLAR.0>
0

>  <SCORE.INTRA.REPUL>
0

>  <SCORE.INTRA.REPUL.0>
0

>  <SCORE.INTRA.SOLV>
0

>  <SCORE.INTRA.SOLV.lig_0>
-33.1994

>  <SCORE.INTRA.VDW>
0

>  <SCORE.INTRA.VDW.0>
0

>  <SCORE.INTRA.norm>
0

>  <SCORE.RESTR>
0

>  <SCORE.RESTR.CAVITY>
0

>  <SCORE.RESTR.norm>
0

>  <SCORE.SYSTEM>
0

>  <SCORE.SYSTEM.CONST>
0

>  <SCORE.SYSTEM.DIHEDRAL>
0

>  <SCORE.SYSTEM.SOLV>
0

>  <SCORE.SYSTEM.norm>
0

>  <SCORE.heavy>
13

>  <SCORE.norm>
-1.6944

>  <RMSD>
4.263

$$$$
ligand
 OpenBabel11021811473D
libRbt.so/2013.1/901 2013/11/27
 13 14  0  0  0  0  0  0  0  0999 V2000
   36.7791   35.7986   24.4125 N   0  0  0  0  0  0  0  0  0  0  0  0
   37.7935   35.4295   25.5723 C   0  0  0  0  0  0  0  0  0  0  0  0
   38.8152   36.3079   25.8757 N   0  0  0  0  0  0  0  0  0  0  0  0
   37.5356   34.3016   26.0872 N   0  0  0  0  0  0  0  0  0  0  0  0
   36.5546   33.4129   25.8378 C   0  0  0  0  0  0  0  0  0  0  0  0
   35.6432   33.6521   24.8746 C   0  0  0  0  0  0  0  0  0  0  0  0
   35.7808   34.9986   24.0603 C   0  0  0  0  0  0  0  0  0  0  0  0
   34.9689   35.1992   23.2152 O   0  0  0  0  0  0  0  0  0  0  0  0
   34.6197   32.5109   24.7273 C   0  0  0  0  0  0  0  0  0  0  0  0
   34.9669   31.6091   25.6524 C   0  0  0  0  0  0  0  0  0  0  0  0
   36.0689   31.9339   26.3967 N   0  0  0  0  0  0  0  0  0  0  0  0
   33.4862   32.4670   23.7762 C   0  0  0  0  0  0  0  0  0  0  0  0
   32.6321   32.4735   22.9969 N   0  0  0  0  0  0  0  0  0  0  0  0
  1  2  1  0  0  0  0
  1  7  1  0  0  0  0
  2  3  1  0  0  0  0
  2  4  2  0  0  0  0
  4  5  1  0  0  0  0
  5  6  2  0  0  0  0
  5 11  1  0  0  0  0
  6  7  1  0  0  0  0
  6  9  1  0  0  0  0
  7  8  2  0  0  0  0
  9 10  2  0  0  0  0
  9 12  1  0  0  0  0
 10 11  1  0  0  0  0
 12 13  3  0  0  0  0
M  END
>  <CHROM.1>
35.83099797,33.90316055,24.86020457,0.31683774,-0.63198927,-0.59558198

>  <Name>
ligand

>  <RI>
0

>  <Rbt.Current_Directory>
/home/itssahil/PROJECTS/Mol_Feturizer/New_Systems/rnas/3GCA

>  <Rbt.Executable>
rbdock ($Id: //depot/dev/client3/rdock/2013.1/src/exe/rbdock.cxx#4 $)

>  <Rbt.Library>
libRbt.so (2013.1, Build901 2013/11/27)

>  <Rbt.Parameter_File>
/export/apps/rDock/src/rDock_2013.1_src/data/scripts/dock_solv.prm

>  <Rbt.Receptor>
prm/pocket_docking_5.prm

>  <SCORE>
-22.0253

>  <SCORE.INTER>
-22.0253

>  <SCORE.INTER.CONST>
1

>  <SCORE.INTER.POLAR>
0

>  <SCORE.INTER.ROT>
0

>  <SCORE.INTER.SOLV>
10.1489

>  <SCORE.INTER.VDW>
-21.6665

>  <SCORE.INTER.norm>
-1.69425

>  <SCORE.INTRA>
0

>  <SCORE.INTRA.DIHEDRAL>
0

>  <SCORE.INTRA.DIHEDRAL.0>
0

>  <SCORE.INTRA.POLAR>
0

>  <SCORE.INTRA.POLAR.0>
0

>  <SCORE.INTRA.REPUL>
0

>  <SCORE.INTRA.REPUL.0>
0

>  <SCORE.INTRA.SOLV>
0

>  <SCORE.INTRA.SOLV.lig_0>
-33.1994

>  <SCORE.INTRA.VDW>
0

>  <SCORE.INTRA.VDW.0>
0

>  <SCORE.INTRA.norm>
0

>  <SCORE.RESTR>
0

>  <SCORE.RESTR.CAVITY>
0

>  <SCORE.RESTR.norm>
0

>  <SCORE.SYSTEM>
0

>  <SCORE.SYSTEM.CONST>
0

>  <SCORE.SYSTEM.DIHEDRAL>
0

>  <SCORE.SYSTEM.SOLV>
0

>  <SCORE.SYSTEM.norm>
0

>  <SCORE.heavy>
13

>  <SCORE.norm>
-1.69425

>  <RMSD>
4.263

$$$$
ligand
 OpenBabel11021811473D
libRbt.so/2013.1/901 2013/11/27
 13 14  0  0  0  0  0  0  0  0999 V2000
   36.7762   35.7943   24.3757 N   0  0  0  0  0  0  0  0  0  0  0  0
   37.7586   35.3896   25.5510 C   0  0  0  0  0  0  0  0  0  0  0  0
   38.8025   36.2341   25.8745 N   0  0  0  0  0  0  0  0  0  0  0  0
   37.4562   34.2690   26.0577 N   0  0  0  0  0  0  0  0  0  0  0  0
   36.4517   33.4128   25.7888 C   0  0  0  0  0  0  0  0  0  0  0  0
   35.5648   33.6838   24.8113 C   0  0  0  0  0  0  0  0  0  0  0  0
   35.7589   35.0276   24.0040 C   0  0  0  0  0  0  0  0  0  0  0  0
   34.9682   35.2565   23.1462 O   0  0  0  0  0  0  0  0  0  0  0  0
   34.5080   32.5763   24.6430 C   0  0  0  0  0  0  0  0  0  0  0  0
   34.8106   31.6612   25.5707 C   0  0  0  0  0  0  0  0  0  0  0  0
   35.9097   31.9485   26.3344 N   0  0  0  0  0  0  0  0  0  0  0  0
   33.3898   32.5714   23.6729 C   0  0  0  0  0  0  0  0  0  0  0  0
   32.5497   32.6074   22.8793 N   0  0  0  0  0  0  0  0  0  0  0  0
  1  2  1  0  0  0  0
  1  7  1  0  0  0  0
  2  3  1  0  0  0  0
  2  4  2  0  0  0  0
  4  5  1  0  0  0  0
  5  6  2  0  0  0  0
  5 11  1  0  0  0  0
  6  7  1  0  0  0  0
  6  9  1  0  0  0  0
  7  8  2  0  0  0  0
  9 10  2  0  0  0  0
  9 12  1  0  0  0  0
 10 11  1  0  0  0  0
 12 13  3  0  0  0  0
M  END
>  <CHROM.1>
35.76067621,33.92879941,24.80093679,0.27250992,-0.62758939,-0.61853338

>  <Name>
ligand

>  <RI>
0

>  <Rbt.Current_Directory>
/home/itssahil/PROJECTS/Mol_Feturizer/New_Systems/rnas/3GCA

>  <Rbt.Executable>
rbdock ($Id: //depot/dev/client3/rdock/2013.1/src/exe/rbdock.cxx#4 $)

>  <Rbt.Library>
libRbt.so (2013.1, Build901 2013/11/27)

>  <Rbt.Parameter_File>
/export/apps/rDock/src/rDock_2013.1_src/data/scripts/dock_solv.prm

>  <Rbt.Receptor>
prm/pocket_docking_5.prm

>  <SCORE>
-22.0169

>  <SCORE.INTER>
-22.0169

>  <SCORE.INTER.CONST>
1

>  <SCORE.INTER.POLAR>
0

>  <SCORE.INTER.ROT>
0

>  <SCORE.INTER.SOLV>
10.3609

>  <SCORE.INTER.VDW>
-21.7315

>  <SCORE.INTER.norm>
-1.69361

>  <SCORE.INTRA>
0

>  <SCORE.INTRA.DIHEDRAL>
0

>  <SCORE.INTRA.DIHEDRAL.0>
0

>  <SCORE.INTRA.POLAR>
0

>  <SCORE.INTRA.POLAR.0>
0

>  <SCORE.INTRA.REPUL>
0

>  <SCORE.INTRA.REPUL.0>
0

>  <SCORE.INTRA.SOLV>
0

>  <SCORE.INTRA.SOLV.lig_0>
-33.1994

>  <SCORE.INTRA.VDW>
0

>  <SCORE.INTRA.VDW.0>
0

>  <SCORE.INTRA.norm>
0

>  <SCORE.RESTR>
0

>  <SCORE.RESTR.CAVITY>
0

>  <SCORE.RESTR.norm>
0

>  <SCORE.SYSTEM>
0

>  <SCORE.SYSTEM.CONST>
0

>  <SCORE.SYSTEM.DIHEDRAL>
0

>  <SCORE.SYSTEM.SOLV>
0

>  <SCORE.SYSTEM.norm>
0

>  <SCORE.heavy>
13

>  <SCORE.norm>
-1.69361

>  <RMSD>
4.263

$$$$
ligand
 OpenBabel11021811473D
libRbt.so/2013.1/901 2013/11/27
 13 14  0  0  0  0  0  0  0  0999 V2000
   36.7407   35.8576   24.3672 N   0  0  0  0  0  0  0  0  0  0  0  0
   37.7161   35.4950   25.5619 C   0  0  0  0  0  0  0  0  0  0  0  0
   38.7356   36.3689   25.8853 N   0  0  0  0  0  0  0  0  0  0  0  0
   37.4330   34.3760   26.0828 N   0  0  0  0  0  0  0  0  0  0  0  0
   36.4524   33.4923   25.8147 C   0  0  0  0  0  0  0  0  0  0  0  0
   35.5729   33.7266   24.8212 C   0  0  0  0  0  0  0  0  0  0  0  0
   35.7467   35.0613   23.9946 C   0  0  0  0  0  0  0  0  0  0  0  0
   34.9627   35.2577   23.1227 O   0  0  0  0  0  0  0  0  0  0  0  0
   34.5446   32.5919   24.6570 C   0  0  0  0  0  0  0  0  0  0  0  0
   34.8556   31.6993   25.6036 C   0  0  0  0  0  0  0  0  0  0  0  0
   35.9373   32.0245   26.3771 N   0  0  0  0  0  0  0  0  0  0  0  0
   33.4402   32.5451   23.6724 C   0  0  0  0  0  0  0  0  0  0  0  0
   32.6103   32.5486   22.8673 N   0  0  0  0  0  0  0  0  0  0  0  0
  1  2  1  0  0  0  0
  1  7  1  0  0  0  0
  2  3  1  0  0  0  0
  2  4  2  0  0  0  0
  4  5  1  0  0  0  0
  5  6  2  0  0  0  0
  5 11  1  0  0  0  0
  6  7  1  0  0  0  0
  6  9  1  0  0  0  0
  7  8  2  0  0  0  0
  9 10  2  0  0  0  0
  9 12  1  0  0  0  0
 10 11  1  0  0  0  0
 12 13  3  0  0  0  0
M  END
>  <CHROM.1>
35.76317495,33.97585203,24.80940624,0.28639275,-0.65217168,-0.62651319

>  <Name>
ligand

>  <RI>
0

>  <Rbt.Current_Directory>
/home/itssahil/PROJECTS/Mol_Feturizer/New_Systems/rnas/3GCA

>  <Rbt.Executable>
rbdock ($Id: //depot/dev/client3/rdock/2013.1/src/exe/rbdock.cxx#4 $)

>  <Rbt.Library>
libRbt.so (2013.1, Build901 2013/11/27)

>  <Rbt.Parameter_File>
/export/apps/rDock/src/rDock_2013.1_src/data/scripts/dock_solv.prm

>  <Rbt.Receptor>
prm/pocket_docking_5.prm

>  <SCORE>
-22.0105

>  <SCORE.INTER>
-22.0105

>  <SCORE.INTER.CONST>
1

>  <SCORE.INTER.POLAR>
0

>  <SCORE.INTER.ROT>
0

>  <SCORE.INTER.SOLV>
10.3414

>  <SCORE.INTER.VDW>
-21.7208

>  <SCORE.INTER.norm>
-1.69311

>  <SCORE.INTRA>
0

>  <SCORE.INTRA.DIHEDRAL>
0

>  <SCORE.INTRA.DIHEDRAL.0>
0

>  <SCORE.INTRA.POLAR>
0

>  <SCORE.INTRA.POLAR.0>
0

>  <SCORE.INTRA.REPUL>
0

>  <SCORE.INTRA.REPUL.0>
0

>  <SCORE.INTRA.SOLV>
0

>  <SCORE.INTRA.SOLV.lig_0>
-33.1994

>  <SCORE.INTRA.VDW>
0

>  <SCORE.INTRA.VDW.0>
0

>  <SCORE.INTRA.norm>
0

>  <SCORE.RESTR>
0

>  <SCORE.RESTR.CAVITY>
0

>  <SCORE.RESTR.norm>
0

>  <SCORE.SYSTEM>
0

>  <SCORE.SYSTEM.CONST>
0

>  <SCORE.SYSTEM.DIHEDRAL>
0

>  <SCORE.SYSTEM.SOLV>
0

>  <SCORE.SYSTEM.norm>
0

>  <SCORE.heavy>
13

>  <SCORE.norm>
-1.69311

>  <RMSD>
4.263

$$$$
ligand
 OpenBabel11021811473D
libRbt.so/2013.1/901 2013/11/27
 13 14  0  0  0  0  0  0  0  0999 V2000
   36.7872   35.7719   24.4145 N   0  0  0  0  0  0  0  0  0  0  0  0
   37.8098   35.3936   25.5641 C   0  0  0  0  0  0  0  0  0  0  0  0
   38.8384   36.2659   25.8617 N   0  0  0  0  0  0  0  0  0  0  0  0
   37.5507   34.2652   26.0773 N   0  0  0  0  0  0  0  0  0  0  0  0
   36.5632   33.3822   25.8332 C   0  0  0  0  0  0  0  0  0  0  0  0
   35.6447   33.6294   24.8788 C   0  0  0  0  0  0  0  0  0  0  0  0
   35.7819   34.9780   24.0681 C   0  0  0  0  0  0  0  0  0  0  0  0
   34.9638   35.1856   23.2308 O   0  0  0  0  0  0  0  0  0  0  0  0
   34.6144   32.4937   24.7364 C   0  0  0  0  0  0  0  0  0  0  0  0
   34.9650   31.5869   25.6553 C   0  0  0  0  0  0  0  0  0  0  0  0
   36.0751   31.9037   26.3912 N   0  0  0  0  0  0  0  0  0  0  0  0
   33.4724   32.4588   23.7950 C   0  0  0  0  0  0  0  0  0  0  0  0
   32.6117   32.4722   23.0231 N   0  0  0  0  0  0  0  0  0  0  0  0
  1  2  1  0  0  0  0
  1  7  1  0  0  0  0
  2  3  1  0  0  0  0
  2  4  2  0  0  0  0
  4  5  1  0  0  0  0
  5  6  2  0  0  0  0
  5 11  1  0  0  0  0
  6  7  1  0  0  0  0
  6  9  1  0  0  0  0
  7  8  2  0  0  0  0
  9 10  2  0  0  0  0
  9 12  1  0  0  0  0
 10 11  1  0  0  0  0
 12 13  3  0  0  0  0
M  END
>  <CHROM.1>
35.83363335,33.87952645,24.86368081,0.31775036,-0.62204698,-0.59152649

>  <Name>
ligand

>  <RI>
0

>  <Rbt.Current_Directory>
/home/itssahil/PROJECTS/Mol_Feturizer/New_Systems/rnas/3GCA

>  <Rbt.Executable>
rbdock ($Id: //depot/dev/client3/rdock/2013.1/src/exe/rbdock.cxx#4 $)

>  <Rbt.Library>
libRbt.so (2013.1, Build901 2013/11/27)

>  <Rbt.Parameter_File>
/export/apps/rDock/src/rDock_2013.1_src/data/scripts/dock_solv.prm

>  <Rbt.Receptor>
prm/pocket_docking_6.prm

>  <SCORE>
-22.0124

>  <SCORE.INTER>
-22.0124

>  <SCORE.INTER.CONST>
1

>  <SCORE.INTER.POLAR>
0

>  <SCORE.INTER.ROT>
0

>  <SCORE.INTER.SOLV>
10.1752

>  <SCORE.INTER.VDW>
-21.6667

>  <SCORE.INTER.norm>
-1.69326

>  <SCORE.INTRA>
0

>  <SCORE.INTRA.DIHEDRAL>
0

>  <SCORE.INTRA.DIHEDRAL.0>
0

>  <SCORE.INTRA.POLAR>
0

>  <SCORE.INTRA.POLAR.0>
0

>  <SCORE.INTRA.REPUL>
0

>  <SCORE.INTRA.REPUL.0>
0

>  <SCORE.INTRA.SOLV>
0

>  <SCORE.INTRA.SOLV.lig_0>
-33.1994

>  <SCORE.INTRA.VDW>
0

>  <SCORE.INTRA.VDW.0>
0

>  <SCORE.INTRA.norm>
0

>  <SCORE.RESTR>
0

>  <SCORE.RESTR.CAVITY>
0

>  <SCORE.RESTR.norm>
0

>  <SCORE.SYSTEM>
0

>  <SCORE.SYSTEM.CONST>
0

>  <SCORE.SYSTEM.DIHEDRAL>
0

>  <SCORE.SYSTEM.SOLV>
0

>  <SCORE.SYSTEM.norm>
0

>  <SCORE.heavy>
13

>  <SCORE.norm>
-1.69326

>  <RMSD>
4.263

$$$$
ligand
 OpenBabel11021811473D
libRbt.so/2013.1/901 2013/11/27
 13 14  0  0  0  0  0  0  0  0999 V2000
   36.7767   35.7909   24.3809 N   0  0  0  0  0  0  0  0  0  0  0  0
   37.7534   35.3886   25.5618 C   0  0  0  0  0  0  0  0  0  0  0  0
   38.7969   36.2328   25.8873 N   0  0  0  0  0  0  0  0  0  0  0  0
   37.4474   34.2700   26.0706 N   0  0  0  0  0  0  0  0  0  0  0  0
   36.4431   33.4142   25.8000 C   0  0  0  0  0  0  0  0  0  0  0  0
   35.5608   33.6832   24.8177 C   0  0  0  0  0  0  0  0  0  0  0  0
   35.7601   35.0242   24.0071 C   0  0  0  0  0  0  0  0  0  0  0  0
   34.9735   35.2514   23.1451 O   0  0  0  0  0  0  0  0  0  0  0  0
   34.5035   32.5764   24.6481 C   0  0  0  0  0  0  0  0  0  0  0  0
   34.8008   31.6639   25.5800 C   0  0  0  0  0  0  0  0  0  0  0  0
   35.8969   31.9522   26.3477 N   0  0  0  0  0  0  0  0  0  0  0  0
   33.3896   32.5698   23.6731 C   0  0  0  0  0  0  0  0  0  0  0  0
   32.5530   32.6044   22.8758 N   0  0  0  0  0  0  0  0  0  0  0  0
  1  2  1  0  0  0  0
  1  7  1  0  0  0  0
  2  3  1  0  0  0  0
  2  4  2  0  0  0  0
  4  5  1  0  0  0  0
  5  6  2  0  0  0  0
  5 11  1  0  0  0  0
  6  7  1  0  0  0  0
  6  9  1  0  0  0  0
  7  8  2  0  0  0  0
  9 10  2  0  0  0  0
  9 12  1  0  0  0  0
 10 11  1  0  0  0  0
 12 13  3  0  0  0  0
M  END
>  <CHROM.1>
35.75705542,33.92789639,24.80743984,0.26811946,-0.63048034,-0.62422336

>  <Name>
ligand

>  <RI>
0

>  <Rbt.Current_Directory>
/home/itssahil/PROJECTS/Mol_Feturizer/New_Systems/rnas/3GCA

>  <Rbt.Executable>
rbdock ($Id: //depot/dev/client3/rdock/2013.1/src/exe/rbdock.cxx#4 $)

>  <Rbt.Library>
libRbt.so (2013.1, Build901 2013/11/27)

>  <Rbt.Parameter_File>
/export/apps/rDock/src/rDock_2013.1_src/data/scripts/dock_solv.prm

>  <Rbt.Receptor>
prm/pocket_docking_6.prm

>  <SCORE>
-22.0192

>  <SCORE.INTER>
-22.0192

>  <SCORE.INTER.CONST>
1

>  <SCORE.INTER.POLAR>
0

>  <SCORE.INTER.ROT>
0

>  <SCORE.INTER.SOLV>
10.3457

>  <SCORE.INTER.VDW>
-21.728

>  <SCORE.INTER.norm>
-1.69378

>  <SCORE.INTRA>
0

>  <SCORE.INTRA.DIHEDRAL>
0

>  <SCORE.INTRA.DIHEDRAL.0>
0

>  <SCORE.INTRA.POLAR>
0

>  <SCORE.INTRA.POLAR.0>
0

>  <SCORE.INTRA.REPUL>
0

>  <SCORE.INTRA.REPUL.0>
0

>  <SCORE.INTRA.SOLV>
0

>  <SCORE.INTRA.SOLV.lig_0>
-33.1994

>  <SCORE.INTRA.VDW>
0

>  <SCORE.INTRA.VDW.0>
0

>  <SCORE.INTRA.norm>
0

>  <SCORE.RESTR>
0

>  <SCORE.RESTR.CAVITY>
0

>  <SCORE.RESTR.norm>
0

>  <SCORE.SYSTEM>
0

>  <SCORE.SYSTEM.CONST>
0

>  <SCORE.SYSTEM.DIHEDRAL>
0

>  <SCORE.SYSTEM.SOLV>
0

>  <SCORE.SYSTEM.norm>
0

>  <SCORE.heavy>
13

>  <SCORE.norm>
-1.69378

>  <RMSD>
4.263

$$$$
ligand
 OpenBabel11021811473D
libRbt.so/2013.1/901 2013/11/27
 13 14  0  0  0  0  0  0  0  0999 V2000
   36.7926   35.8086   24.3974 N   0  0  0  0  0  0  0  0  0  0  0  0
   37.7897   35.4672   25.5805 C   0  0  0  0  0  0  0  0  0  0  0  0
   38.8032   36.3557   25.8821 N   0  0  0  0  0  0  0  0  0  0  0  0
   37.5276   34.3490   26.1142 N   0  0  0  0  0  0  0  0  0  0  0  0
   36.5539   33.4516   25.8674 C   0  0  0  0  0  0  0  0  0  0  0  0
   35.6572   33.6675   24.8851 C   0  0  0  0  0  0  0  0  0  0  0  0
   35.8029   34.9977   24.0457 C   0  0  0  0  0  0  0  0  0  0  0  0
   35.0040   35.1778   23.1839 O   0  0  0  0  0  0  0  0  0  0  0  0
   34.6404   32.5195   24.7449 C   0  0  0  0  0  0  0  0  0  0  0  0
   34.9758   31.6381   25.6937 C   0  0  0  0  0  0  0  0  0  0  0  0
   36.0647   31.9824   26.4486 N   0  0  0  0  0  0  0  0  0  0  0  0
   33.5223   32.4518   23.7770 C   0  0  0  0  0  0  0  0  0  0  0  0
   32.6808   32.4390   22.9841 N   0  0  0  0  0  0  0  0  0  0  0  0
  1  2  1  0  0  0  0
  1  7  1  0  0  0  0
  2  3  1  0  0  0  0
  2  4  2  0  0  0  0
  4  5  1  0  0  0  0
  5  6  2  0  0  0  0
  5 11  1  0  0  0  0
  6  7  1  0  0  0  0
  6  9  1  0  0  0  0
  7  8  2  0  0  0  0
  9 10  2  0  0  0  0
  9 12  1  0  0  0  0
 10 11  1  0  0  0  0
 12 13  3  0  0  0  0
M  END
>  <CHROM.1>
35.84430950,33.91896352,24.86858147,0.30930634,-0.64725784,-0.62051009

>  <Name>
ligand

>  <RI>
0

>  <Rbt.Current_Directory>
/home/itssahil/PROJECTS/Mol_Feturizer/New_Systems/rnas/3GCA

>  <Rbt.Executable>
rbdock ($Id: //depot/dev/client3/rdock/2013.1/src/exe/rbdock.cxx#4 $)

>  <Rbt.Library>
libRbt.so (2013.1, Build901 2013/11/27)

>  <Rbt.Parameter_File>
/export/apps/rDock/src/rDock_2013.1_src/data/scripts/dock_solv.prm

>  <Rbt.Receptor>
prm/pocket_docking_6.prm

>  <SCORE>
-21.9642

>  <SCORE.INTER>
-21.9642

>  <SCORE.INTER.CONST>
1

>  <SCORE.INTER.POLAR>
0

>  <SCORE.INTER.ROT>
0

>  <SCORE.INTER.SOLV>
10.0873

>  <SCORE.INTER.VDW>
-21.6052

>  <SCORE.INTER.norm>
-1.68955

>  <SCORE.INTRA>
0

>  <SCORE.INTRA.DIHEDRAL>
0

>  <SCORE.INTRA.DIHEDRAL.0>
0

>  <SCORE.INTRA.POLAR>
0

>  <SCORE.INTRA.POLAR.0>
0

>  <SCORE.INTRA.REPUL>
0

>  <SCORE.INTRA.REPUL.0>
0

>  <SCORE.INTRA.SOLV>
0

>  <SCORE.INTRA.SOLV.lig_0>
-33.1994

>  <SCORE.INTRA.VDW>
0

>  <SCORE.INTRA.VDW.0>
0

>  <SCORE.INTRA.norm>
0

>  <SCORE.RESTR>
0

>  <SCORE.RESTR.CAVITY>
0

>  <SCORE.RESTR.norm>
0

>  <SCORE.SYSTEM>
0

>  <SCORE.SYSTEM.CONST>
0

>  <SCORE.SYSTEM.DIHEDRAL>
0

>  <SCORE.SYSTEM.SOLV>
0

>  <SCORE.SYSTEM.norm>
0

>  <SCORE.heavy>
13

>  <SCORE.norm>
-1.68955

>  <RMSD>
4.263

$$$$
ligand
 OpenBabel11021811473D
libRbt.so/2013.1/901 2013/11/27
 13 14  0  0  0  0  0  0  0  0999 V2000
   36.7746   35.8008   24.4252 N   0  0  0  0  0  0  0  0  0  0  0  0
   37.7861   35.4374   25.5893 C   0  0  0  0  0  0  0  0  0  0  0  0
   38.7998   36.3230   25.8989 N   0  0  0  0  0  0  0  0  0  0  0  0
   37.5341   34.3069   26.1014 N   0  0  0  0  0  0  0  0  0  0  0  0
   36.5609   33.4114   25.8459 C   0  0  0  0  0  0  0  0  0  0  0  0
   35.6524   33.6453   24.8786 C   0  0  0  0  0  0  0  0  0  0  0  0
   35.7840   34.9939   24.0670 C   0  0  0  0  0  0  0  0  0  0  0  0
   34.9747   35.1898   23.2183 O   0  0  0  0  0  0  0  0  0  0  0  0
   34.6382   32.4967   24.7248 C   0  0  0  0  0  0  0  0  0  0  0  0
   34.9874   31.5962   25.6503 C   0  0  0  0  0  0  0  0  0  0  0  0
   36.0835   31.9280   26.4004 N   0  0  0  0  0  0  0  0  0  0  0  0
   33.5095   32.4458   23.7682 C   0  0  0  0  0  0  0  0  0  0  0  0
   32.6592   32.4472   22.9847 N   0  0  0  0  0  0  0  0  0  0  0  0
  1  2  1  0  0  0  0
  1  7  1  0  0  0  0
  2  3  1  0  0  0  0
  2  4  2  0  0  0  0
  4  5  1  0  0  0  0
  5  6  2  0  0  0  0
  5 11  1  0  0  0  0
  6  7  1  0  0  0  0
  6  9  1  0  0  0  0
  7  8  2  0  0  0  0
  9 10  2  0  0  0  0
  9 12  1  0  0  0  0
 10 11  1  0  0  0  0
 12 13  3  0  0  0  0
M  END
>  <CHROM.1>
35.83842541,33.89772334,24.86555683,0.32107927,-0.64014127,-0.59162046

>  <Name>
ligand

>  <RI>
0

>  <Rbt.Current_Directory>
/home/itssahil/PROJECTS/Mol_Feturizer/New_Systems/rnas/3GCA

>  <Rbt.Executable>
rbdock ($Id: //depot/dev/client3/rdock/2013.1/src/exe/rbdock.cxx#4 $)

>  <Rbt.Library>
libRbt.so (2013.1, Build901 2013/11/27)

>  <Rbt.Parameter_File>
/export/apps/rDock/src/rDock_2013.1_src/data/scripts/dock_solv.prm

>  <Rbt.Receptor>
prm/pocket_docking_7.prm

>  <SCORE>
-22.0489

>  <SCORE.INTER>
-22.0489

>  <SCORE.INTER.CONST>
1

>  <SCORE.INTER.POLAR>
0

>  <SCORE.INTER.ROT>
0

>  <SCORE.INTER.SOLV>
10.1139

>  <SCORE.INTER.VDW>
-21.6706

>  <SCORE.INTER.norm>
-1.69607

>  <SCORE.INTRA>
0

>  <SCORE.INTRA.DIHEDRAL>
0

>  <SCORE.INTRA.DIHEDRAL.0>
0

>  <SCORE.INTRA.POLAR>
0

>  <SCORE.INTRA.POLAR.0>
0

>  <SCORE.INTRA.REPUL>
0

>  <SCORE.INTRA.REPUL.0>
0

>  <SCORE.INTRA.SOLV>
0

>  <SCORE.INTRA.SOLV.lig_0>
-33.1994

>  <SCORE.INTRA.VDW>
0

>  <SCORE.INTRA.VDW.0>
0

>  <SCORE.INTRA.norm>
0

>  <SCORE.RESTR>
0

>  <SCORE.RESTR.CAVITY>
0

>  <SCORE.RESTR.norm>
0

>  <SCORE.SYSTEM>
0

>  <SCORE.SYSTEM.CONST>
0

>  <SCORE.SYSTEM.DIHEDRAL>
0

>  <SCORE.SYSTEM.SOLV>
0

>  <SCORE.SYSTEM.norm>
0

>  <SCORE.heavy>
13

>  <SCORE.norm>
-1.69607

>  <RMSD>
4.263

$$$$
ligand
 OpenBabel11021811473D
libRbt.so/2013.1/901 2013/11/27
 13 14  0  0  0  0  0  0  0  0999 V2000
   36.7877   35.7824   24.4201 N   0  0  0  0  0  0  0  0  0  0  0  0
   37.8055   35.4102   25.5759 C   0  0  0  0  0  0  0  0  0  0  0  0
   38.8301   36.2862   25.8763 N   0  0  0  0  0  0  0  0  0  0  0  0
   37.5471   34.2824   26.0908 N   0  0  0  0  0  0  0  0  0  0  0  0
   36.5634   33.3960   25.8442 C   0  0  0  0  0  0  0  0  0  0  0  0
   35.6490   33.6379   24.8844 C   0  0  0  0  0  0  0  0  0  0  0  0
   35.7865   34.9847   24.0707 C   0  0  0  0  0  0  0  0  0  0  0  0
   34.9720   35.1877   23.2287 O   0  0  0  0  0  0  0  0  0  0  0  0
   34.6226   32.4989   24.7399 C   0  0  0  0  0  0  0  0  0  0  0  0
   34.9712   31.5956   25.6631 C   0  0  0  0  0  0  0  0  0  0  0  0
   36.0766   31.9175   26.4037 N   0  0  0  0  0  0  0  0  0  0  0  0
   33.4856   32.4581   23.7929 C   0  0  0  0  0  0  0  0  0  0  0  0
   32.6287   32.4670   23.0166 N   0  0  0  0  0  0  0  0  0  0  0  0
  1  2  1  0  0  0  0
  1  7  1  0  0  0  0
  2  3  1  0  0  0  0
  2  4  2  0  0  0  0
  4  5  1  0  0  0  0
  5  6  2  0  0  0  0
  5 11  1  0  0  0  0
  6  7  1  0  0  0  0
  6  9  1  0  0  0  0
  7  8  2  0  0  0  0
  9 10  2  0  0  0  0
  9 12  1  0  0  0  0
 10 11  1  0  0  0  0
 12 13  3  0  0  0  0
M  END
>  <CHROM.1>
35.83728718,33.88854444,24.86960280,0.31716411,-0.62785302,-0.59459383

>  <Name>
ligand

>  <RI>
0

>  <Rbt.Current_Directory>
/home/itssahil/PROJECTS/Mol_Feturizer/New_Systems/rnas/3GCA

>  <Rbt.Executable>
rbdock ($Id: //depot/dev/client3/rdock/2013.1/src/exe/rbdock.cxx#4 $)

>  <Rbt.Library>
libRbt.so (2013.1, Build901 2013/11/27)

>  <Rbt.Parameter_File>
/export/apps/rDock/src/rDock_2013.1_src/data/scripts/dock_solv.prm

>  <Rbt.Receptor>
prm/pocket_docking_7.prm

>  <SCORE>
-22.0304

>  <SCORE.INTER>
-22.0304

>  <SCORE.INTER.CONST>
1

>  <SCORE.INTER.POLAR>
0

>  <SCORE.INTER.ROT>
0

>  <SCORE.INTER.SOLV>
10.1273

>  <SCORE.INTER.VDW>
-21.6627

>  <SCORE.INTER.norm>
-1.69465

>  <SCORE.INTRA>
0

>  <SCORE.INTRA.DIHEDRAL>
0

>  <SCORE.INTRA.DIHEDRAL.0>
0

>  <SCORE.INTRA.POLAR>
0

>  <SCORE.INTRA.POLAR.0>
0

>  <SCORE.INTRA.REPUL>
0

>  <SCORE.INTRA.REPUL.0>
0

>  <SCORE.INTRA.SOLV>
0

>  <SCORE.INTRA.SOLV.lig_0>
-33.1994

>  <SCORE.INTRA.VDW>
0

>  <SCORE.INTRA.VDW.0>
0

>  <SCORE.INTRA.norm>
0

>  <SCORE.RESTR>
0

>  <SCORE.RESTR.CAVITY>
0

>  <SCORE.RESTR.norm>
0

>  <SCORE.SYSTEM>
0

>  <SCORE.SYSTEM.CONST>
0

>  <SCORE.SYSTEM.DIHEDRAL>
0

>  <SCORE.SYSTEM.SOLV>
0

>  <SCORE.SYSTEM.norm>
0

>  <SCORE.heavy>
13

>  <SCORE.norm>
-1.69465

>  <RMSD>
4.263

$$$$
ligand
 OpenBabel11021811473D
libRbt.so/2013.1/901 2013/11/27
 13 14  0  0  0  0  0  0  0  0999 V2000
   36.7823   35.7966   24.4126 N   0  0  0  0  0  0  0  0  0  0  0  0
   37.7950   35.4258   25.5733 C   0  0  0  0  0  0  0  0  0  0  0  0
   38.8193   36.3014   25.8760 N   0  0  0  0  0  0  0  0  0  0  0  0
   37.5332   34.2995   26.0897 N   0  0  0  0  0  0  0  0  0  0  0  0
   36.5494   33.4136   25.8410 C   0  0  0  0  0  0  0  0  0  0  0  0
   35.6393   33.6544   24.8770 C   0  0  0  0  0  0  0  0  0  0  0  0
   35.7815   34.9994   24.0609 C   0  0  0  0  0  0  0  0  0  0  0  0
   34.9707   35.2014   23.2152 O   0  0  0  0  0  0  0  0  0  0  0  0
   34.6122   32.5163   24.7309 C   0  0  0  0  0  0  0  0  0  0  0  0
   34.9560   31.6147   25.6574 C   0  0  0  0  0  0  0  0  0  0  0  0
   36.0587   31.9370   26.4018 N   0  0  0  0  0  0  0  0  0  0  0  0
   33.4789   32.4747   23.7793 C   0  0  0  0  0  0  0  0  0  0  0  0
   32.6252   32.4829   22.9995 N   0  0  0  0  0  0  0  0  0  0  0  0
  1  2  1  0  0  0  0
  1  7  1  0  0  0  0
  2  3  1  0  0  0  0
  2  4  2  0  0  0  0
  4  5  1  0  0  0  0
  5  6  2  0  0  0  0
  5 11  1  0  0  0  0
  6  7  1  0  0  0  0
  6  9  1  0  0  0  0
  7  8  2  0  0  0  0
  9 10  2  0  0  0  0
  9 12  1  0  0  0  0
 10 11  1  0  0  0  0
 12 13  3  0  0  0  0
M  END
>  <CHROM.1>
35.82786745,33.90486541,24.86241741,0.31320039,-0.63057560,-0.59912790

>  <Name>
ligand

>  <RI>
0

>  <Rbt.Current_Directory>
/home/itssahil/PROJECTS/Mol_Feturizer/New_Systems/rnas/3GCA

>  <Rbt.Executable>
rbdock ($Id: //depot/dev/client3/rdock/2013.1/src/exe/rbdock.cxx#4 $)

>  <Rbt.Library>
libRbt.so (2013.1, Build901 2013/11/27)

>  <Rbt.Parameter_File>
/export/apps/rDock/src/rDock_2013.1_src/data/scripts/dock_solv.prm

>  <Rbt.Receptor>
prm/pocket_docking_7.prm

>  <SCORE>
-22.026

>  <SCORE.INTER>
-22.026

>  <SCORE.INTER.CONST>
1

>  <SCORE.INTER.POLAR>
0

>  <SCORE.INTER.ROT>
0

>  <SCORE.INTER.SOLV>
10.1469

>  <SCORE.INTER.VDW>
-21.6663

>  <SCORE.INTER.norm>
-1.69431

>  <SCORE.INTRA>
0

>  <SCORE.INTRA.DIHEDRAL>
0

>  <SCORE.INTRA.DIHEDRAL.0>
0

>  <SCORE.INTRA.POLAR>
0

>  <SCORE.INTRA.POLAR.0>
0

>  <SCORE.INTRA.REPUL>
0

>  <SCORE.INTRA.REPUL.0>
0

>  <SCORE.INTRA.SOLV>
0

>  <SCORE.INTRA.SOLV.lig_0>
-33.1994

>  <SCORE.INTRA.VDW>
0

>  <SCORE.INTRA.VDW.0>
0

>  <SCORE.INTRA.norm>
0

>  <SCORE.RESTR>
0

>  <SCORE.RESTR.CAVITY>
0

>  <SCORE.RESTR.norm>
0

>  <SCORE.SYSTEM>
0

>  <SCORE.SYSTEM.CONST>
0

>  <SCORE.SYSTEM.DIHEDRAL>
0

>  <SCORE.SYSTEM.SOLV>
0

>  <SCORE.SYSTEM.norm>
0

>  <SCORE.heavy>
13

>  <SCORE.norm>
-1.69431

>  <RMSD>
4.263

$$$$
ligand
 OpenBabel11021811473D
libRbt.so/2013.1/901 2013/11/27
 13 14  0  0  0  0  0  0  0  0999 V2000
   36.7870   35.7793   24.4255 N   0  0  0  0  0  0  0  0  0  0  0  0
   37.8002   35.4079   25.5856 C   0  0  0  0  0  0  0  0  0  0  0  0
   38.8231   36.2845   25.8900 N   0  0  0  0  0  0  0  0  0  0  0  0
   37.5401   34.2801   26.0998 N   0  0  0  0  0  0  0  0  0  0  0  0
   36.5578   33.3932   25.8494 C   0  0  0  0  0  0  0  0  0  0  0  0
   35.6473   33.6344   24.8857 C   0  0  0  0  0  0  0  0  0  0  0  0
   35.7875   34.9811   24.0723 C   0  0  0  0  0  0  0  0  0  0  0  0
   34.9765   35.1835   23.2269 O   0  0  0  0  0  0  0  0  0  0  0  0
   34.6221   32.4949   24.7373 C   0  0  0  0  0  0  0  0  0  0  0  0
   34.9672   31.5921   25.6622 C   0  0  0  0  0  0  0  0  0  0  0  0
   36.0694   31.9147   26.4072 N   0  0  0  0  0  0  0  0  0  0  0  0
   33.4890   32.4534   23.7856 C   0  0  0  0  0  0  0  0  0  0  0  0
   32.6353   32.4617   23.0057 N   0  0  0  0  0  0  0  0  0  0  0  0
  1  2  1  0  0  0  0
  1  7  1  0  0  0  0
  2  3  1  0  0  0  0
  2  4  2  0  0  0  0
  4  5  1  0  0  0  0
  5  6  2  0  0  0  0
  5 11  1  0  0  0  0
  6  7  1  0  0  0  0
  6  9  1  0  0  0  0
  7  8  2  0  0  0  0
  9 10  2  0  0  0  0
  9 12  1  0  0  0  0
 10 11  1  0  0  0  0
 12 13  3  0  0  0  0
M  END
>  <CHROM.1>
35.83555078,33.88515962,24.87163079,0.31477452,-0.63153106,-0.59627297

>  <Name>
ligand

>  <RI>
0

>  <Rbt.Current_Directory>
/home/itssahil/PROJECTS/Mol_Feturizer/New_Systems/rnas/3GCA

>  <Rbt.Executable>
rbdock ($Id: //depot/dev/client3/rdock/2013.1/src/exe/rbdock.cxx#4 $)

>  <Rbt.Library>
libRbt.so (2013.1, Build901 2013/11/27)

>  <Rbt.Parameter_File>
/export/apps/rDock/src/rDock_2013.1_src/data/scripts/dock_solv.prm

>  <Rbt.Receptor>
prm/pocket_docking_7.prm

>  <SCORE>
-22.0331

>  <SCORE.INTER>
-22.0331

>  <SCORE.INTER.CONST>
1

>  <SCORE.INTER.POLAR>
0

>  <SCORE.INTER.ROT>
0

>  <SCORE.INTER.SOLV>
10.1189

>  <SCORE.INTER.VDW>
-21.6617

>  <SCORE.INTER.norm>
-1.69485

>  <SCORE.INTRA>
0

>  <SCORE.INTRA.DIHEDRAL>
0

>  <SCORE.INTRA.DIHEDRAL.0>
0

>  <SCORE.INTRA.POLAR>
0

>  <SCORE.INTRA.POLAR.0>
0

>  <SCORE.INTRA.REPUL>
0

>  <SCORE.INTRA.REPUL.0>
0

>  <SCORE.INTRA.SOLV>
0

>  <SCORE.INTRA.SOLV.lig_0>
-33.1994

>  <SCORE.INTRA.VDW>
0

>  <SCORE.INTRA.VDW.0>
0

>  <SCORE.INTRA.norm>
0

>  <SCORE.RESTR>
0

>  <SCORE.RESTR.CAVITY>
0

>  <SCORE.RESTR.norm>
0

>  <SCORE.SYSTEM>
0

>  <SCORE.SYSTEM.CONST>
0

>  <SCORE.SYSTEM.DIHEDRAL>
0

>  <SCORE.SYSTEM.SOLV>
0

>  <SCORE.SYSTEM.norm>
0

>  <SCORE.heavy>
13

>  <SCORE.norm>
-1.69485

>  <RMSD>
4.263

$$$$
ligand
 OpenBabel11021811473D
libRbt.so/2013.1/901 2013/11/27
 13 14  0  0  0  0  0  0  0  0999 V2000
   36.7797   35.7921   24.4074 N   0  0  0  0  0  0  0  0  0  0  0  0
   37.7992   35.4159   25.5605 C   0  0  0  0  0  0  0  0  0  0  0  0
   38.8247   36.2906   25.8619 N   0  0  0  0  0  0  0  0  0  0  0  0
   37.5411   34.2867   26.0724 N   0  0  0  0  0  0  0  0  0  0  0  0
   36.5565   33.4015   25.8247 C   0  0  0  0  0  0  0  0  0  0  0  0
   35.6408   33.6467   24.8671 C   0  0  0  0  0  0  0  0  0  0  0  0
   35.7776   34.9960   24.0573 C   0  0  0  0  0  0  0  0  0  0  0  0
   34.9618   35.2019   23.2172 O   0  0  0  0  0  0  0  0  0  0  0  0
   34.6137   32.5086   24.7208 C   0  0  0  0  0  0  0  0  0  0  0  0
   34.9632   31.6024   25.6406 C   0  0  0  0  0  0  0  0  0  0  0  0
   36.0700   31.9216   26.3804 N   0  0  0  0  0  0  0  0  0  0  0  0
   33.4751   32.4713   23.7754 C   0  0  0  0  0  0  0  0  0  0  0  0
   32.6170   32.4829   23.0005 N   0  0  0  0  0  0  0  0  0  0  0  0
  1  2  1  0  0  0  0
  1  7  1  0  0  0  0
  2  3  1  0  0  0  0
  2  4  2  0  0  0  0
  4  5  1  0  0  0  0
  5  6  2  0  0  0  0
  5 11  1  0  0  0  0
  6  7  1  0  0  0  0
  6  9  1  0  0  0  0
  7  8  2  0  0  0  0
  9 10  2  0  0  0  0
  9 12  1  0  0  0  0
 10 11  1  0  0  0  0
 12 13  3  0  0  0  0
M  END
>  <CHROM.1>
35.82914300,33.89733629,24.85272511,0.31780566,-0.62628260,-0.59117704

>  <Name>
ligand

>  <RI>
0

>  <Rbt.Current_Directory>
/home/itssahil/PROJECTS/Mol_Feturizer/New_Systems/rnas/3GCA

>  <Rbt.Executable>
rbdock ($Id: //depot/dev/client3/rdock/2013.1/src/exe/rbdock.cxx#4 $)

>  <Rbt.Library>
libRbt.so (2013.1, Build901 2013/11/27)

>  <Rbt.Parameter_File>
/export/apps/rDock/src/rDock_2013.1_src/data/scripts/dock_solv.prm

>  <Rbt.Receptor>
prm/pocket_docking_8.prm

>  <SCORE>
-22.0164

>  <SCORE.INTER>
-22.0164

>  <SCORE.INTER.CONST>
1

>  <SCORE.INTER.POLAR>
0

>  <SCORE.INTER.ROT>
0

>  <SCORE.INTER.SOLV>
10.1871

>  <SCORE.INTER.VDW>
-21.6733

>  <SCORE.INTER.norm>
-1.69357

>  <SCORE.INTRA>
0

>  <SCORE.INTRA.DIHEDRAL>
0

>  <SCORE.INTRA.DIHEDRAL.0>
0

>  <SCORE.INTRA.POLAR>
0

>  <SCORE.INTRA.POLAR.0>
0

>  <SCORE.INTRA.REPUL>
0

>  <SCORE.INTRA.REPUL.0>
0

>  <SCORE.INTRA.SOLV>
0

>  <SCORE.INTRA.SOLV.lig_0>
-33.1994

>  <SCORE.INTRA.VDW>
0

>  <SCORE.INTRA.VDW.0>
0

>  <SCORE.INTRA.norm>
0

>  <SCORE.RESTR>
0

>  <SCORE.RESTR.CAVITY>
0

>  <SCORE.RESTR.norm>
0

>  <SCORE.SYSTEM>
0

>  <SCORE.SYSTEM.CONST>
0

>  <SCORE.SYSTEM.DIHEDRAL>
0

>  <SCORE.SYSTEM.SOLV>
0

>  <SCORE.SYSTEM.norm>
0

>  <SCORE.heavy>
13

>  <SCORE.norm>
-1.69357

>  <RMSD>
4.263

$$$$
ligand
 OpenBabel11021811473D
libRbt.so/2013.1/901 2013/11/27
 13 14  0  0  0  0  0  0  0  0999 V2000
   36.7777   35.7991   24.3916 N   0  0  0  0  0  0  0  0  0  0  0  0
   37.7936   35.4233   25.5479 C   0  0  0  0  0  0  0  0  0  0  0  0
   38.8203   36.2964   25.8498 N   0  0  0  0  0  0  0  0  0  0  0  0
   37.5318   34.2958   26.0618 N   0  0  0  0  0  0  0  0  0  0  0  0
   36.5459   33.4122   25.8138 C   0  0  0  0  0  0  0  0  0  0  0  0
   35.6329   33.6572   24.8535 C   0  0  0  0  0  0  0  0  0  0  0  0
   35.7746   35.0044   24.0409 C   0  0  0  0  0  0  0  0  0  0  0  0
   34.9613   35.2101   23.1985 O   0  0  0  0  0  0  0  0  0  0  0  0
   34.6036   32.5211   24.7074 C   0  0  0  0  0  0  0  0  0  0  0  0
   34.9491   31.6162   25.6301 C   0  0  0  0  0  0  0  0  0  0  0  0
   36.0548   31.9346   26.3718 N   0  0  0  0  0  0  0  0  0  0  0  0
   33.4672   32.4841   23.7594 C   0  0  0  0  0  0  0  0  0  0  0  0
   32.6109   32.4959   22.9825 N   0  0  0  0  0  0  0  0  0  0  0  0
  1  2  1  0  0  0  0
  1  7  1  0  0  0  0
  2  3  1  0  0  0  0
  2  4  2  0  0  0  0
  4  5  1  0  0  0  0
  5  6  2  0  0  0  0
  5 11  1  0  0  0  0
  6  7  1  0  0  0  0
  6  9  1  0  0  0  0
  7  8  2  0  0  0  0
  9 10  2  0  0  0  0
  9 12  1  0  0  0  0
 10 11  1  0  0  0  0
 12 13  3  0  0  0  0
M  END
>  <CHROM.1>
35.82187826,33.90741931,24.83900914,0.31393328,-0.62697912,-0.59572632

>  <Name>
ligand

>  <RI>
0

>  <Rbt.Current_Directory>
/home/itssahil/PROJECTS/Mol_Feturizer/New_Systems/rnas/3GCA

>  <Rbt.Executable>
rbdock ($Id: //depot/dev/client3/rdock/2013.1/src/exe/rbdock.cxx#4 $)

>  <Rbt.Library>
libRbt.so (2013.1, Build901 2013/11/27)

>  <Rbt.Parameter_File>
/export/apps/rDock/src/rDock_2013.1_src/data/scripts/dock_solv.prm

>  <Rbt.Receptor>
prm/pocket_docking_8.prm

>  <SCORE>
-21.9591

>  <SCORE.INTER>
-21.9591

>  <SCORE.INTER.CONST>
1

>  <SCORE.INTER.POLAR>
0

>  <SCORE.INTER.ROT>
0

>  <SCORE.INTER.SOLV>
10.2346

>  <SCORE.INTER.VDW>
-21.6509

>  <SCORE.INTER.norm>
-1.68916

>  <SCORE.INTRA>
0

>  <SCORE.INTRA.DIHEDRAL>
0

>  <SCORE.INTRA.DIHEDRAL.0>
0

>  <SCORE.INTRA.POLAR>
0

>  <SCORE.INTRA.POLAR.0>
0

>  <SCORE.INTRA.REPUL>
0

>  <SCORE.INTRA.REPUL.0>
0

>  <SCORE.INTRA.SOLV>
0

>  <SCORE.INTRA.SOLV.lig_0>
-33.1994

>  <SCORE.INTRA.VDW>
0

>  <SCORE.INTRA.VDW.0>
0

>  <SCORE.INTRA.norm>
0

>  <SCORE.RESTR>
0

>  <SCORE.RESTR.CAVITY>
0

>  <SCORE.RESTR.norm>
0

>  <SCORE.SYSTEM>
0

>  <SCORE.SYSTEM.CONST>
0

>  <SCORE.SYSTEM.DIHEDRAL>
0

>  <SCORE.SYSTEM.SOLV>
0

>  <SCORE.SYSTEM.norm>
0

>  <SCORE.heavy>
13

>  <SCORE.norm>
-1.68916

>  <RMSD>
4.263

$$$$
ligand
 OpenBabel11021811473D
libRbt.so/2013.1/901 2013/11/27
 13 14  0  0  0  0  0  0  0  0999 V2000
   36.7734   35.7978   24.3812 N   0  0  0  0  0  0  0  0  0  0  0  0
   37.7506   35.3971   25.5622 C   0  0  0  0  0  0  0  0  0  0  0  0
   38.7916   36.2439   25.8891 N   0  0  0  0  0  0  0  0  0  0  0  0
   37.4473   34.2772   26.0699 N   0  0  0  0  0  0  0  0  0  0  0  0
   36.4455   33.4190   25.7979 C   0  0  0  0  0  0  0  0  0  0  0  0
   35.5630   33.6865   24.8153 C   0  0  0  0  0  0  0  0  0  0  0  0
   35.7592   35.0288   24.0061 C   0  0  0  0  0  0  0  0  0  0  0  0
   34.9724   35.2546   23.1439 O   0  0  0  0  0  0  0  0  0  0  0  0
   34.5088   32.5770   24.6442 C   0  0  0  0  0  0  0  0  0  0  0  0
   34.8081   31.6644   25.5754 C   0  0  0  0  0  0  0  0  0  0  0  0
   35.9030   31.9550   26.3440 N   0  0  0  0  0  0  0  0  0  0  0  0
   33.3954   32.5683   23.6686 C   0  0  0  0  0  0  0  0  0  0  0  0
   32.5592   32.6013   22.8708 N   0  0  0  0  0  0  0  0  0  0  0  0
  1  2  1  0  0  0  0
  1  7  1  0  0  0  0
  2  3  1  0  0  0  0
  2  4  2  0  0  0  0
  4  5  1  0  0  0  0
  5  6  2  0  0  0  0
  5 11  1  0  0  0  0
  6  7  1  0  0  0  0
  6  9  1  0  0  0  0
  7  8  2  0  0  0  0
  9 10  2  0  0  0  0
  9 12  1  0  0  0  0
 10 11  1  0  0  0  0
 12 13  3  0  0  0  0
M  END
>  <CHROM.1>
35.75861055,33.93172254,24.80543038,0.27045172,-0.63249979,-0.62192342

>  <Name>
ligand

>  <RI>
0

>  <Rbt.Current_Directory>
/home/itssahil/PROJECTS/Mol_Feturizer/New_Systems/rnas/3GCA

>  <Rbt.Executable>
rbdock ($Id: //depot/dev/client3/rdock/2013.1/src/exe/rbdock.cxx#4 $)

>  <Rbt.Library>
libRbt.so (2013.1, Build901 2013/11/27)

>  <Rbt.Parameter_File>
/export/apps/rDock/src/rDock_2013.1_src/data/scripts/dock_solv.prm

>  <Rbt.Receptor>
prm/pocket_docking_8.prm

>  <SCORE>
-22.022

>  <SCORE.INTER>
-22.022

>  <SCORE.INTER.CONST>
1

>  <SCORE.INTER.POLAR>
0

>  <SCORE.INTER.ROT>
0

>  <SCORE.INTER.SOLV>
10.3429

>  <SCORE.INTER.VDW>
-21.7289

>  <SCORE.INTER.norm>
-1.694

>  <SCORE.INTRA>
0

>  <SCORE.INTRA.DIHEDRAL>
0

>  <SCORE.INTRA.DIHEDRAL.0>
0

>  <SCORE.INTRA.POLAR>
0

>  <SCORE.INTRA.POLAR.0>
0

>  <SCORE.INTRA.REPUL>
0

>  <SCORE.INTRA.REPUL.0>
0

>  <SCORE.INTRA.SOLV>
0

>  <SCORE.INTRA.SOLV.lig_0>
-33.1994

>  <SCORE.INTRA.VDW>
0

>  <SCORE.INTRA.VDW.0>
0

>  <SCORE.INTRA.norm>
0

>  <SCORE.RESTR>
0

>  <SCORE.RESTR.CAVITY>
0

>  <SCORE.RESTR.norm>
0

>  <SCORE.SYSTEM>
0

>  <SCORE.SYSTEM.CONST>
0

>  <SCORE.SYSTEM.DIHEDRAL>
0

>  <SCORE.SYSTEM.SOLV>
0

>  <SCORE.SYSTEM.norm>
0

>  <SCORE.heavy>
13

>  <SCORE.norm>
-1.694

>  <RMSD>
4.263

$$$$
ligand
 OpenBabel11021811473D
libRbt.so/2013.1/901 2013/11/27
 13 14  0  0  0  0  0  0  0  0999 V2000
   36.7711   35.8055   24.3769 N   0  0  0  0  0  0  0  0  0  0  0  0
   37.7687   35.4200   25.5459 C   0  0  0  0  0  0  0  0  0  0  0  0
   38.8022   36.2814   25.8582 N   0  0  0  0  0  0  0  0  0  0  0  0
   37.4873   34.2969   26.0590 N   0  0  0  0  0  0  0  0  0  0  0  0
   36.4939   33.4247   25.8010 C   0  0  0  0  0  0  0  0  0  0  0  0
   35.5953   33.6786   24.8295 C   0  0  0  0  0  0  0  0  0  0  0  0
   35.7628   35.0221   24.0160 C   0  0  0  0  0  0  0  0  0  0  0  0
   34.9620   35.2358   23.1635 O   0  0  0  0  0  0  0  0  0  0  0  0
   34.5543   32.5545   24.6734 C   0  0  0  0  0  0  0  0  0  0  0  0
   34.8778   31.6476   25.6020 C   0  0  0  0  0  0  0  0  0  0  0  0
   35.9785   31.9543   26.3561 N   0  0  0  0  0  0  0  0  0  0  0  0
   33.4287   32.5291   23.7122 C   0  0  0  0  0  0  0  0  0  0  0  0
   32.5819   32.5495   22.9251 N   0  0  0  0  0  0  0  0  0  0  0  0
  1  2  1  0  0  0  0
  1  7  1  0  0  0  0
  2  3  1  0  0  0  0
  2  4  2  0  0  0  0
  4  5  1  0  0  0  0
  5  6  2  0  0  0  0
  5 11  1  0  0  0  0
  6  7  1  0  0  0  0
  6  9  1  0  0  0  0
  7  8  2  0  0  0  0
  9 10  2  0  0  0  0
  9 12  1  0  0  0  0
 10 11  1  0  0  0  0
 12 13  3  0  0  0  0
M  END
>  <CHROM.1>
35.78742101,33.92642939,24.81674760,0.29339975,-0.62993334,-0.60987901

>  <Name>
ligand

>  <RI>
0

>  <Rbt.Current_Directory>
/home/itssahil/PROJECTS/Mol_Feturizer/New_Systems/rnas/3GCA

>  <Rbt.Executable>
rbdock ($Id: //depot/dev/client3/rdock/2013.1/src/exe/rbdock.cxx#4 $)

>  <Rbt.Library>
libRbt.so (2013.1, Build901 2013/11/27)

>  <Rbt.Parameter_File>
/export/apps/rDock/src/rDock_2013.1_src/data/scripts/dock_solv.prm

>  <Rbt.Receptor>
prm/pocket_docking_8.prm

>  <SCORE>
-21.9652

>  <SCORE.INTER>
-21.9652

>  <SCORE.INTER.CONST>
1

>  <SCORE.INTER.POLAR>
0

>  <SCORE.INTER.ROT>
0

>  <SCORE.INTER.SOLV>
10.3159

>  <SCORE.INTER.VDW>
-21.6821

>  <SCORE.INTER.norm>
-1.68963

>  <SCORE.INTRA>
0

>  <SCORE.INTRA.DIHEDRAL>
0

>  <SCORE.INTRA.DIHEDRAL.0>
0

>  <SCORE.INTRA.POLAR>
0

>  <SCORE.INTRA.POLAR.0>
0

>  <SCORE.INTRA.REPUL>
0

>  <SCORE.INTRA.REPUL.0>
0

>  <SCORE.INTRA.SOLV>
0

>  <SCORE.INTRA.SOLV.lig_0>
-33.1994

>  <SCORE.INTRA.VDW>
0

>  <SCORE.INTRA.VDW.0>
0

>  <SCORE.INTRA.norm>
0

>  <SCORE.RESTR>
0

>  <SCORE.RESTR.CAVITY>
0

>  <SCORE.RESTR.norm>
0

>  <SCORE.SYSTEM>
0

>  <SCORE.SYSTEM.CONST>
0

>  <SCORE.SYSTEM.DIHEDRAL>
0

>  <SCORE.SYSTEM.SOLV>
0

>  <SCORE.SYSTEM.norm>
0

>  <SCORE.heavy>
13

>  <SCORE.norm>
-1.68963

>  <RMSD>
4.263

$$$$
ligand
 OpenBabel11021811473D
libRbt.so/2013.1/901 2013/11/27
 13 14  0  0  0  0  0  0  0  0999 V2000
   36.7767   35.8007   24.4102 N   0  0  0  0  0  0  0  0  0  0  0  0
   37.7914   35.4323   25.5699 C   0  0  0  0  0  0  0  0  0  0  0  0
   38.8130   36.3111   25.8727 N   0  0  0  0  0  0  0  0  0  0  0  0
   37.5338   34.3046   26.0855 N   0  0  0  0  0  0  0  0  0  0  0  0
   36.5529   33.4156   25.8367 C   0  0  0  0  0  0  0  0  0  0  0  0
   35.6413   33.6542   24.8735 C   0  0  0  0  0  0  0  0  0  0  0  0
   35.7785   35.0003   24.0585 C   0  0  0  0  0  0  0  0  0  0  0  0
   34.9664   35.2003   23.2134 O   0  0  0  0  0  0  0  0  0  0  0  0
   34.6180   32.5127   24.7270 C   0  0  0  0  0  0  0  0  0  0  0  0
   34.9654   31.6114   25.6525 C   0  0  0  0  0  0  0  0  0  0  0  0
   36.0676   31.9368   26.3964 N   0  0  0  0  0  0  0  0  0  0  0  0
   33.4843   32.4681   23.7761 C   0  0  0  0  0  0  0  0  0  0  0  0
   32.6301   32.4740   22.9969 N   0  0  0  0  0  0  0  0  0  0  0  0
  1  2  1  0  0  0  0
  1  7  1  0  0  0  0
  2  3  1  0  0  0  0
  2  4  2  0  0  0  0
  4  5  1  0  0  0  0
  5  6  2  0  0  0  0
  5 11  1  0  0  0  0
  6  7  1  0  0  0  0
  6  9  1  0  0  0  0
  7  8  2  0  0  0  0
  9 10  2  0  0  0  0
  9 12  1  0  0  0  0
 10 11  1  0  0  0  0
 12 13  3  0  0  0  0
M  END
>  <CHROM.1>
35.82902953,33.90524827,24.85895107,0.31713745,-0.63195228,-0.59592275

>  <Name>
ligand

>  <RI>
0

>  <Rbt.Current_Directory>
/home/itssahil/PROJECTS/Mol_Feturizer/New_Systems/rnas/3GCA

>  <Rbt.Executable>
rbdock ($Id: //depot/dev/client3/rdock/2013.1/src/exe/rbdock.cxx#4 $)

>  <Rbt.Library>
libRbt.so (2013.1, Build901 2013/11/27)

>  <Rbt.Parameter_File>
/export/apps/rDock/src/rDock_2013.1_src/data/scripts/dock_solv.prm

>  <Rbt.Receptor>
prm/pocket_docking_8.prm

>  <SCORE>
-22.0264

>  <SCORE.INTER>
-22.0264

>  <SCORE.INTER.CONST>
1

>  <SCORE.INTER.POLAR>
0

>  <SCORE.INTER.ROT>
0

>  <SCORE.INTER.SOLV>
10.1593

>  <SCORE.INTER.VDW>
-21.6707

>  <SCORE.INTER.norm>
-1.69434

>  <SCORE.INTRA>
0

>  <SCORE.INTRA.DIHEDRAL>
0

>  <SCORE.INTRA.DIHEDRAL.0>
0

>  <SCORE.INTRA.POLAR>
0

>  <SCORE.INTRA.POLAR.0>
0

>  <SCORE.INTRA.REPUL>
0

>  <SCORE.INTRA.REPUL.0>
0

>  <SCORE.INTRA.SOLV>
0

>  <SCORE.INTRA.SOLV.lig_0>
-33.1994

>  <SCORE.INTRA.VDW>
0

>  <SCORE.INTRA.VDW.0>
0

>  <SCORE.INTRA.norm>
0

>  <SCORE.RESTR>
0

>  <SCORE.RESTR.CAVITY>
0

>  <SCORE.RESTR.norm>
0

>  <SCORE.SYSTEM>
0

>  <SCORE.SYSTEM.CONST>
0

>  <SCORE.SYSTEM.DIHEDRAL>
0

>  <SCORE.SYSTEM.SOLV>
0

>  <SCORE.SYSTEM.norm>
0

>  <SCORE.heavy>
13

>  <SCORE.norm>
-1.69434

>  <RMSD>
4.263

$$$$
ligand
 OpenBabel11021811473D
libRbt.so/2013.1/901 2013/11/27
 13 14  0  0  0  0  0  0  0  0999 V2000
   36.7512   35.8361   24.3607 N   0  0  0  0  0  0  0  0  0  0  0  0
   37.7475   35.4544   25.5320 C   0  0  0  0  0  0  0  0  0  0  0  0
   38.7776   36.3193   25.8460 N   0  0  0  0  0  0  0  0  0  0  0  0
   37.4685   34.3307   26.0451 N   0  0  0  0  0  0  0  0  0  0  0  0
   36.4784   33.4552   25.7855 C   0  0  0  0  0  0  0  0  0  0  0  0
   35.5811   33.7057   24.8120 C   0  0  0  0  0  0  0  0  0  0  0  0
   35.7460   35.0494   23.9981 C   0  0  0  0  0  0  0  0  0  0  0  0
   34.9464   35.2601   23.1438 O   0  0  0  0  0  0  0  0  0  0  0  0
   34.5439   32.5783   24.6543 C   0  0  0  0  0  0  0  0  0  0  0  0
   34.8684   31.6729   25.5841 C   0  0  0  0  0  0  0  0  0  0  0  0
   35.9664   31.9835   26.3403 N   0  0  0  0  0  0  0  0  0  0  0  0
   33.4205   32.5488   23.6907 C   0  0  0  0  0  0  0  0  0  0  0  0
   32.5754   32.5661   22.9018 N   0  0  0  0  0  0  0  0  0  0  0  0
  1  2  1  0  0  0  0
  1  7  1  0  0  0  0
  2  3  1  0  0  0  0
  2  4  2  0  0  0  0
  4  5  1  0  0  0  0
  5  6  2  0  0  0  0
  5 11  1  0  0  0  0
  6  7  1  0  0  0  0
  6  9  1  0  0  0  0
  7  8  2  0  0  0  0
  9 10  2  0  0  0  0
  9 12  1  0  0  0  0
 10 11  1  0  0  0  0
 12 13  3  0  0  0  0
M  END
>  <CHROM.1>
35.77245560,33.95418349,24.79948846,0.29510185,-0.63348305,-0.60942149

>  <Name>
ligand

>  <RI>
0

>  <Rbt.Current_Directory>
/home/itssahil/PROJECTS/Mol_Feturizer/New_Systems/rnas/3GCA

>  <Rbt.Executable>
rbdock ($Id: //depot/dev/client3/rdock/2013.1/src/exe/rbdock.cxx#4 $)

>  <Rbt.Library>
libRbt.so (2013.1, Build901 2013/11/27)

>  <Rbt.Parameter_File>
/export/apps/rDock/src/rDock_2013.1_src/data/scripts/dock_solv.prm

>  <Rbt.Receptor>
prm/pocket_docking_3.prm

>  <SCORE>
-22.0046

>  <SCORE.INTER>
-22.0046

>  <SCORE.INTER.CONST>
1

>  <SCORE.INTER.POLAR>
0

>  <SCORE.INTER.ROT>
0

>  <SCORE.INTER.SOLV>
10.375

>  <SCORE.INTER.VDW>
-21.7281

>  <SCORE.INTER.norm>
-1.69266

>  <SCORE.INTRA>
0

>  <SCORE.INTRA.DIHEDRAL>
0

>  <SCORE.INTRA.DIHEDRAL.0>
0

>  <SCORE.INTRA.POLAR>
0

>  <SCORE.INTRA.POLAR.0>
0

>  <SCORE.INTRA.REPUL>
0

>  <SCORE.INTRA.REPUL.0>
0

>  <SCORE.INTRA.SOLV>
0

>  <SCORE.INTRA.SOLV.lig_0>
-33.1994

>  <SCORE.INTRA.VDW>
0

>  <SCORE.INTRA.VDW.0>
0

>  <SCORE.INTRA.norm>
0

>  <SCORE.RESTR>
0

>  <SCORE.RESTR.CAVITY>
0

>  <SCORE.RESTR.norm>
0

>  <SCORE.SYSTEM>
0

>  <SCORE.SYSTEM.CONST>
0

>  <SCORE.SYSTEM.DIHEDRAL>
0

>  <SCORE.SYSTEM.SOLV>
0

>  <SCORE.SYSTEM.norm>
0

>  <SCORE.heavy>
13

>  <SCORE.norm>
-1.69266

>  <RMSD>
4.264

$$$$
ligand
 OpenBabel11021811473D
libRbt.so/2013.1/901 2013/11/27
 13 14  0  0  0  0  0  0  0  0999 V2000
   36.7511   35.8407   24.3752 N   0  0  0  0  0  0  0  0  0  0  0  0
   37.7398   35.4608   25.5535 C   0  0  0  0  0  0  0  0  0  0  0  0
   38.7665   36.3271   25.8744 N   0  0  0  0  0  0  0  0  0  0  0  0
   37.4588   34.3369   26.0651 N   0  0  0  0  0  0  0  0  0  0  0  0
   36.4717   33.4599   25.7990 C   0  0  0  0  0  0  0  0  0  0  0  0
   35.5808   33.7089   24.8191 C   0  0  0  0  0  0  0  0  0  0  0  0
   35.7496   35.0525   24.0059 C   0  0  0  0  0  0  0  0  0  0  0  0
   34.9556   35.2619   23.1460 O   0  0  0  0  0  0  0  0  0  0  0  0
   34.5462   32.5801   24.6547 C   0  0  0  0  0  0  0  0  0  0  0  0
   34.8655   31.6754   25.5870 C   0  0  0  0  0  0  0  0  0  0  0  0
   35.9578   31.9877   26.3507 N   0  0  0  0  0  0  0  0  0  0  0  0
   33.4296   32.5488   23.6833 C   0  0  0  0  0  0  0  0  0  0  0  0
   32.5899   32.5647   22.8886 N   0  0  0  0  0  0  0  0  0  0  0  0
  1  2  1  0  0  0  0
  1  7  1  0  0  0  0
  2  3  1  0  0  0  0
  2  4  2  0  0  0  0
  4  5  1  0  0  0  0
  5  6  2  0  0  0  0
  5 11  1  0  0  0  0
  6  7  1  0  0  0  0
  6  9  1  0  0  0  0
  7  8  2  0  0  0  0
  9 10  2  0  0  0  0
  9 12  1  0  0  0  0
 10 11  1  0  0  0  0
 12 13  3  0  0  0  0
M  END
>  <CHROM.1>
35.77189490,33.95764908,24.80788048,0.29152431,-0.63991153,-0.61190082

>  <Name>
ligand

>  <RI>
0

>  <Rbt.Current_Directory>
/home/itssahil/PROJECTS/Mol_Feturizer/New_Systems/rnas/3GCA

>  <Rbt.Executable>
rbdock ($Id: //depot/dev/client3/rdock/2013.1/src/exe/rbdock.cxx#4 $)

>  <Rbt.Library>
libRbt.so (2013.1, Build901 2013/11/27)

>  <Rbt.Parameter_File>
/export/apps/rDock/src/rDock_2013.1_src/data/scripts/dock_solv.prm

>  <Rbt.Receptor>
prm/pocket_docking_4.prm

>  <SCORE>
-22.0104

>  <SCORE.INTER>
-22.0104

>  <SCORE.INTER.CONST>
1

>  <SCORE.INTER.POLAR>
0

>  <SCORE.INTER.ROT>
0

>  <SCORE.INTER.SOLV>
10.322

>  <SCORE.INTER.VDW>
-21.7142

>  <SCORE.INTER.norm>
-1.69311

>  <SCORE.INTRA>
0

>  <SCORE.INTRA.DIHEDRAL>
0

>  <SCORE.INTRA.DIHEDRAL.0>
0

>  <SCORE.INTRA.POLAR>
0

>  <SCORE.INTRA.POLAR.0>
0

>  <SCORE.INTRA.REPUL>
0

>  <SCORE.INTRA.REPUL.0>
0

>  <SCORE.INTRA.SOLV>
0

>  <SCORE.INTRA.SOLV.lig_0>
-33.1994

>  <SCORE.INTRA.VDW>
0

>  <SCORE.INTRA.VDW.0>
0

>  <SCORE.INTRA.norm>
0

>  <SCORE.RESTR>
0

>  <SCORE.RESTR.CAVITY>
0

>  <SCORE.RESTR.norm>
0

>  <SCORE.SYSTEM>
0

>  <SCORE.SYSTEM.CONST>
0

>  <SCORE.SYSTEM.DIHEDRAL>
0

>  <SCORE.SYSTEM.SOLV>
0

>  <SCORE.SYSTEM.norm>
0

>  <SCORE.heavy>
13

>  <SCORE.norm>
-1.69311

>  <RMSD>
4.264

$$$$
ligand
 OpenBabel11021811473D
libRbt.so/2013.1/901 2013/11/27
 13 14  0  0  0  0  0  0  0  0999 V2000
   36.7799   35.8000   24.4142 N   0  0  0  0  0  0  0  0  0  0  0  0
   37.7943   35.4298   25.5737 C   0  0  0  0  0  0  0  0  0  0  0  0
   38.8168   36.3074   25.8769 N   0  0  0  0  0  0  0  0  0  0  0  0
   37.5355   34.3021   26.0886 N   0  0  0  0  0  0  0  0  0  0  0  0
   36.5537   33.4143   25.8393 C   0  0  0  0  0  0  0  0  0  0  0  0
   35.6423   33.6543   24.8763 C   0  0  0  0  0  0  0  0  0  0  0  0
   35.7808   35.0008   24.0621 C   0  0  0  0  0  0  0  0  0  0  0  0
   34.9689   35.2022   23.2172 O   0  0  0  0  0  0  0  0  0  0  0  0
   34.6179   32.5140   24.7292 C   0  0  0  0  0  0  0  0  0  0  0  0
   34.9644   31.6118   25.6541 C   0  0  0  0  0  0  0  0  0  0  0  0
   36.0670   31.9356   26.3982 N   0  0  0  0  0  0  0  0  0  0  0  0
   33.4840   32.4711   23.7783 C   0  0  0  0  0  0  0  0  0  0  0  0
   32.6298   32.4784   22.9992 N   0  0  0  0  0  0  0  0  0  0  0  0
  1  2  1  0  0  0  0
  1  7  1  0  0  0  0
  2  3  1  0  0  0  0
  2  4  2  0  0  0  0
  4  5  1  0  0  0  0
  5  6  2  0  0  0  0
  5 11  1  0  0  0  0
  6  7  1  0  0  0  0
  6  9  1  0  0  0  0
  7  8  2  0  0  0  0
  9 10  2  0  0  0  0
  9 12  1  0  0  0  0
 10 11  1  0  0  0  0
 12 13  3  0  0  0  0
M  END
>  <CHROM.1>
35.83032487,33.90523753,24.86191660,0.31613018,-0.63133313,-0.59591363

>  <Name>
ligand

>  <RI>
0

>  <Rbt.Current_Directory>
/home/itssahil/PROJECTS/Mol_Feturizer/New_Systems/rnas/3GCA

>  <Rbt.Executable>
rbdock ($Id: //depot/dev/client3/rdock/2013.1/src/exe/rbdock.cxx#4 $)

>  <Rbt.Library>
libRbt.so (2013.1, Build901 2013/11/27)

>  <Rbt.Parameter_File>
/export/apps/rDock/src/rDock_2013.1_src/data/scripts/dock_solv.prm

>  <Rbt.Receptor>
prm/pocket_docking_5.prm

>  <SCORE>
-22.026

>  <SCORE.INTER>
-22.026

>  <SCORE.INTER.CONST>
1

>  <SCORE.INTER.POLAR>
0

>  <SCORE.INTER.ROT>
0

>  <SCORE.INTER.SOLV>
10.1413

>  <SCORE.INTER.VDW>
-21.6645

>  <SCORE.INTER.norm>
-1.69431

>  <SCORE.INTRA>
0

>  <SCORE.INTRA.DIHEDRAL>
0

>  <SCORE.INTRA.DIHEDRAL.0>
0

>  <SCORE.INTRA.POLAR>
0

>  <SCORE.INTRA.POLAR.0>
0

>  <SCORE.INTRA.REPUL>
0

>  <SCORE.INTRA.REPUL.0>
0

>  <SCORE.INTRA.SOLV>
0

>  <SCORE.INTRA.SOLV.lig_0>
-33.1994

>  <SCORE.INTRA.VDW>
0

>  <SCORE.INTRA.VDW.0>
0

>  <SCORE.INTRA.norm>
0

>  <SCORE.RESTR>
0

>  <SCORE.RESTR.CAVITY>
0

>  <SCORE.RESTR.norm>
0

>  <SCORE.SYSTEM>
0

>  <SCORE.SYSTEM.CONST>
0

>  <SCORE.SYSTEM.DIHEDRAL>
0

>  <SCORE.SYSTEM.SOLV>
0

>  <SCORE.SYSTEM.norm>
0

>  <SCORE.heavy>
13

>  <SCORE.norm>
-1.69431

>  <RMSD>
4.264

$$$$
ligand
 OpenBabel11021811473D
libRbt.so/2013.1/901 2013/11/27
 13 14  0  0  0  0  0  0  0  0999 V2000
   36.7795   35.8037   24.4212 N   0  0  0  0  0  0  0  0  0  0  0  0
   37.7830   35.4242   25.5872 C   0  0  0  0  0  0  0  0  0  0  0  0
   38.8088   36.2944   25.9000 N   0  0  0  0  0  0  0  0  0  0  0  0
   37.5132   34.2970   26.0974 N   0  0  0  0  0  0  0  0  0  0  0  0
   36.5275   33.4161   25.8387 C   0  0  0  0  0  0  0  0  0  0  0  0
   35.6247   33.6644   24.8697 C   0  0  0  0  0  0  0  0  0  0  0  0
   35.7779   35.0119   24.0599 C   0  0  0  0  0  0  0  0  0  0  0  0
   34.9735   35.2206   23.2096 O   0  0  0  0  0  0  0  0  0  0  0  0
   34.5940   32.5310   24.7123 C   0  0  0  0  0  0  0  0  0  0  0  0
   34.9280   31.6244   25.6375 C   0  0  0  0  0  0  0  0  0  0  0  0
   36.0271   31.9393   26.3904 N   0  0  0  0  0  0  0  0  0  0  0  0
   33.4669   32.4979   23.7531 C   0  0  0  0  0  0  0  0  0  0  0  0
   32.6185   32.5126   22.9677 N   0  0  0  0  0  0  0  0  0  0  0  0
  1  2  1  0  0  0  0
  1  7  1  0  0  0  0
  2  3  1  0  0  0  0
  2  4  2  0  0  0  0
  4  5  1  0  0  0  0
  5  6  2  0  0  0  0
  5 11  1  0  0  0  0
  6  7  1  0  0  0  0
  6  9  1  0  0  0  0
  7  8  2  0  0  0  0
  9 10  2  0  0  0  0
  9 12  1  0  0  0  0
 10 11  1  0  0  0  0
 12 13  3  0  0  0  0
M  END
>  <CHROM.1>
35.81444231,33.91410881,24.85731742,0.30439709,-0.63372349,-0.60039983

>  <Name>
ligand

>  <RI>
0

>  <Rbt.Current_Directory>
/home/itssahil/PROJECTS/Mol_Feturizer/New_Systems/rnas/3GCA

>  <Rbt.Executable>
rbdock ($Id: //depot/dev/client3/rdock/2013.1/src/exe/rbdock.cxx#4 $)

>  <Rbt.Library>
libRbt.so (2013.1, Build901 2013/11/27)

>  <Rbt.Parameter_File>
/export/apps/rDock/src/rDock_2013.1_src/data/scripts/dock_solv.prm

>  <Rbt.Receptor>
prm/pocket_docking_7.prm

>  <SCORE>
-21.9788

>  <SCORE.INTER>
-21.9788

>  <SCORE.INTER.CONST>
1

>  <SCORE.INTER.POLAR>
0

>  <SCORE.INTER.ROT>
0

>  <SCORE.INTER.SOLV>
10.1502

>  <SCORE.INTER.VDW>
-21.6359

>  <SCORE.INTER.norm>
-1.69068

>  <SCORE.INTRA>
0

>  <SCORE.INTRA.DIHEDRAL>
0

>  <SCORE.INTRA.DIHEDRAL.0>
0

>  <SCORE.INTRA.POLAR>
0

>  <SCORE.INTRA.POLAR.0>
0

>  <SCORE.INTRA.REPUL>
0

>  <SCORE.INTRA.REPUL.0>
0

>  <SCORE.INTRA.SOLV>
0

>  <SCORE.INTRA.SOLV.lig_0>
-33.1994

>  <SCORE.INTRA.VDW>
0

>  <SCORE.INTRA.VDW.0>
0

>  <SCORE.INTRA.norm>
0

>  <SCORE.RESTR>
0

>  <SCORE.RESTR.CAVITY>
0

>  <SCORE.RESTR.norm>
0

>  <SCORE.SYSTEM>
0

>  <SCORE.SYSTEM.CONST>
0

>  <SCORE.SYSTEM.DIHEDRAL>
0

>  <SCORE.SYSTEM.SOLV>
0

>  <SCORE.SYSTEM.norm>
0

>  <SCORE.heavy>
13

>  <SCORE.norm>
-1.69068

>  <RMSD>
4.264

$$$$
ligand
 OpenBabel11021811473D
libRbt.so/2013.1/901 2013/11/27
 13 14  0  0  0  0  0  0  0  0999 V2000
   36.7414   35.8656   24.3486 N   0  0  0  0  0  0  0  0  0  0  0  0
   37.7296   35.5053   25.5335 C   0  0  0  0  0  0  0  0  0  0  0  0
   38.7529   36.3794   25.8438 N   0  0  0  0  0  0  0  0  0  0  0  0
   37.4515   34.3876   26.0600 N   0  0  0  0  0  0  0  0  0  0  0  0
   36.4677   33.5038   25.8046 C   0  0  0  0  0  0  0  0  0  0  0  0
   35.5775   33.7362   24.8201 C   0  0  0  0  0  0  0  0  0  0  0  0
   35.7430   35.0691   23.9887 C   0  0  0  0  0  0  0  0  0  0  0  0
   34.9497   35.2639   23.1249 O   0  0  0  0  0  0  0  0  0  0  0  0
   34.5470   32.6018   24.6698 C   0  0  0  0  0  0  0  0  0  0  0  0
   34.8678   31.7111   25.6149 C   0  0  0  0  0  0  0  0  0  0  0  0
   35.9580   32.0376   26.3759 N   0  0  0  0  0  0  0  0  0  0  0  0
   33.4319   32.5533   23.6973 C   0  0  0  0  0  0  0  0  0  0  0  0
   32.5933   32.5554   22.9012 N   0  0  0  0  0  0  0  0  0  0  0  0
  1  2  1  0  0  0  0
  1  7  1  0  0  0  0
  2  3  1  0  0  0  0
  2  4  2  0  0  0  0
  4  5  1  0  0  0  0
  5  6  2  0  0  0  0
  5 11  1  0  0  0  0
  6  7  1  0  0  0  0
  6  9  1  0  0  0  0
  7  8  2  0  0  0  0
  9 10  2  0  0  0  0
  9 12  1  0  0  0  0
 10 11  1  0  0  0  0
 12 13  3  0  0  0  0
M  END
>  <CHROM.1>
35.76779899,33.98542137,24.80573980,0.29384677,-0.64306349,-0.62429542

>  <Name>
ligand

>  <RI>
0

>  <Rbt.Current_Directory>
/home/itssahil/PROJECTS/Mol_Feturizer/New_Systems/rnas/3GCA

>  <Rbt.Executable>
rbdock ($Id: //depot/dev/client3/rdock/2013.1/src/exe/rbdock.cxx#4 $)

>  <Rbt.Library>
libRbt.so (2013.1, Build901 2013/11/27)

>  <Rbt.Parameter_File>
/export/apps/rDock/src/rDock_2013.1_src/data/scripts/dock_solv.prm

>  <Rbt.Receptor>
prm/pocket_docking_7.prm

>  <SCORE>
-22.0243

>  <SCORE.INTER>
-22.0243

>  <SCORE.INTER.CONST>
1

>  <SCORE.INTER.POLAR>
0

>  <SCORE.INTER.ROT>
0

>  <SCORE.INTER.SOLV>
10.355

>  <SCORE.INTER.VDW>
-21.7345

>  <SCORE.INTER.norm>
-1.69418

>  <SCORE.INTRA>
0

>  <SCORE.INTRA.DIHEDRAL>
0

>  <SCORE.INTRA.DIHEDRAL.0>
0

>  <SCORE.INTRA.POLAR>
0

>  <SCORE.INTRA.POLAR.0>
0

>  <SCORE.INTRA.REPUL>
0

>  <SCORE.INTRA.REPUL.0>
0

>  <SCORE.INTRA.SOLV>
0

>  <SCORE.INTRA.SOLV.lig_0>
-33.1994

>  <SCORE.INTRA.VDW>
0

>  <SCORE.INTRA.VDW.0>
0

>  <SCORE.INTRA.norm>
0

>  <SCORE.RESTR>
0

>  <SCORE.RESTR.CAVITY>
0

>  <SCORE.RESTR.norm>
0

>  <SCORE.SYSTEM>
0

>  <SCORE.SYSTEM.CONST>
0

>  <SCORE.SYSTEM.DIHEDRAL>
0

>  <SCORE.SYSTEM.SOLV>
0

>  <SCORE.SYSTEM.norm>
0

>  <SCORE.heavy>
13

>  <SCORE.norm>
-1.69418

>  <RMSD>
4.264

$$$$
ligand
 OpenBabel11021811473D
libRbt.so/2013.1/901 2013/11/27
 13 14  0  0  0  0  0  0  0  0999 V2000
   36.7880   35.7864   24.4184 N   0  0  0  0  0  0  0  0  0  0  0  0
   37.8094   35.4137   25.5708 C   0  0  0  0  0  0  0  0  0  0  0  0
   38.8344   36.2901   25.8691 N   0  0  0  0  0  0  0  0  0  0  0  0
   37.5532   34.2853   26.0854 N   0  0  0  0  0  0  0  0  0  0  0  0
   36.5693   33.3985   25.8408 C   0  0  0  0  0  0  0  0  0  0  0  0
   35.6519   33.6408   24.8840 C   0  0  0  0  0  0  0  0  0  0  0  0
   35.7862   34.9885   24.0713 C   0  0  0  0  0  0  0  0  0  0  0  0
   34.9691   35.1918   23.2319 O   0  0  0  0  0  0  0  0  0  0  0  0
   34.6258   32.5013   24.7414 C   0  0  0  0  0  0  0  0  0  0  0  0
   34.9776   31.5974   25.6626 C   0  0  0  0  0  0  0  0  0  0  0  0
   36.0850   31.9192   26.4003 N   0  0  0  0  0  0  0  0  0  0  0  0
   33.4860   32.4608   23.7977 C   0  0  0  0  0  0  0  0  0  0  0  0
   32.6268   32.4700   23.0239 N   0  0  0  0  0  0  0  0  0  0  0  0
  1  2  1  0  0  0  0
  1  7  1  0  0  0  0
  2  3  1  0  0  0  0
  2  4  2  0  0  0  0
  4  5  1  0  0  0  0
  5  6  2  0  0  0  0
  5 11  1  0  0  0  0
  6  7  1  0  0  0  0
  6  9  1  0  0  0  0
  7  8  2  0  0  0  0
  9 10  2  0  0  0  0
  9 12  1  0  0  0  0
 10 11  1  0  0  0  0
 12 13  3  0  0  0  0
M  END
>  <CHROM.1>
35.84000088,33.89157150,24.86887772,0.31982675,-0.62573831,-0.59203450

>  <Name>
ligand

>  <RI>
0

>  <Rbt.Current_Directory>
/home/itssahil/PROJECTS/Mol_Feturizer/New_Systems/rnas/3GCA

>  <Rbt.Executable>
rbdock ($Id: //depot/dev/client3/rdock/2013.1/src/exe/rbdock.cxx#4 $)

>  <Rbt.Library>
libRbt.so (2013.1, Build901 2013/11/27)

>  <Rbt.Parameter_File>
/export/apps/rDock/src/rDock_2013.1_src/data/scripts/dock_solv.prm

>  <Rbt.Receptor>
prm/pocket_docking_8.prm

>  <SCORE>
-22.0269

>  <SCORE.INTER>
-22.0269

>  <SCORE.INTER.CONST>
1

>  <SCORE.INTER.POLAR>
0

>  <SCORE.INTER.ROT>
0

>  <SCORE.INTER.SOLV>
10.126

>  <SCORE.INTER.VDW>
-21.66

>  <SCORE.INTER.norm>
-1.69438

>  <SCORE.INTRA>
0

>  <SCORE.INTRA.DIHEDRAL>
0

>  <SCORE.INTRA.DIHEDRAL.0>
0

>  <SCORE.INTRA.POLAR>
0

>  <SCORE.INTRA.POLAR.0>
0

>  <SCORE.INTRA.REPUL>
0

>  <SCORE.INTRA.REPUL.0>
0

>  <SCORE.INTRA.SOLV>
0

>  <SCORE.INTRA.SOLV.lig_0>
-33.1994

>  <SCORE.INTRA.VDW>
0

>  <SCORE.INTRA.VDW.0>
0

>  <SCORE.INTRA.norm>
0

>  <SCORE.RESTR>
0

>  <SCORE.RESTR.CAVITY>
0

>  <SCORE.RESTR.norm>
0

>  <SCORE.SYSTEM>
0

>  <SCORE.SYSTEM.CONST>
0

>  <SCORE.SYSTEM.DIHEDRAL>
0

>  <SCORE.SYSTEM.SOLV>
0

>  <SCORE.SYSTEM.norm>
0

>  <SCORE.heavy>
13

>  <SCORE.norm>
-1.69438

>  <RMSD>
4.264

$$$$
ligand
 OpenBabel11021811473D
libRbt.so/2013.1/901 2013/11/27
 13 14  0  0  0  0  0  0  0  0999 V2000
   36.7391   35.8756   24.3520 N   0  0  0  0  0  0  0  0  0  0  0  0
   37.7334   35.5082   25.5296 C   0  0  0  0  0  0  0  0  0  0  0  0
   38.7586   36.3803   25.8396 N   0  0  0  0  0  0  0  0  0  0  0  0
   37.4579   34.3876   26.0513 N   0  0  0  0  0  0  0  0  0  0  0  0
   36.4725   33.5055   25.7960 C   0  0  0  0  0  0  0  0  0  0  0  0
   35.5772   33.7438   24.8175 C   0  0  0  0  0  0  0  0  0  0  0  0
   35.7387   35.0813   23.9929 C   0  0  0  0  0  0  0  0  0  0  0  0
   34.9408   35.2813   23.1344 O   0  0  0  0  0  0  0  0  0  0  0  0
   34.5455   32.6105   24.6662 C   0  0  0  0  0  0  0  0  0  0  0  0
   34.8711   31.7144   25.6045 C   0  0  0  0  0  0  0  0  0  0  0  0
   35.9653   32.0362   26.3616 N   0  0  0  0  0  0  0  0  0  0  0  0
   33.4253   32.5679   23.6993 C   0  0  0  0  0  0  0  0  0  0  0  0
   32.5826   32.5748   22.9077 N   0  0  0  0  0  0  0  0  0  0  0  0
  1  2  1  0  0  0  0
  1  7  1  0  0  0  0
  2  3  1  0  0  0  0
  2  4  2  0  0  0  0
  4  5  1  0  0  0  0
  5  6  2  0  0  0  0
  5 11  1  0  0  0  0
  6  7  1  0  0  0  0
  6  9  1  0  0  0  0
  7  8  2  0  0  0  0
  9 10  2  0  0  0  0
  9 12  1  0  0  0  0
 10 11  1  0  0  0  0
 12 13  3  0  0  0  0
M  END
>  <CHROM.1>
35.76742532,33.99304327,24.80357306,0.29739673,-0.63862349,-0.61646838

>  <Name>
ligand

>  <RI>
0

>  <Rbt.Current_Directory>
/home/itssahil/PROJECTS/Mol_Feturizer/New_Systems/rnas/3GCA

>  <Rbt.Executable>
rbdock ($Id: //depot/dev/client3/rdock/2013.1/src/exe/rbdock.cxx#4 $)

>  <Rbt.Library>
libRbt.so (2013.1, Build901 2013/11/27)

>  <Rbt.Parameter_File>
/export/apps/rDock/src/rDock_2013.1_src/data/scripts/dock_solv.prm

>  <Rbt.Receptor>
prm/pocket_docking_4.prm

>  <SCORE>
-22

>  <SCORE.INTER>
-22

>  <SCORE.INTER.CONST>
1

>  <SCORE.INTER.POLAR>
0

>  <SCORE.INTER.ROT>
0

>  <SCORE.INTER.SOLV>
10.3452

>  <SCORE.INTER.VDW>
-21.7151

>  <SCORE.INTER.norm>
-1.69231

>  <SCORE.INTRA>
0

>  <SCORE.INTRA.DIHEDRAL>
0

>  <SCORE.INTRA.DIHEDRAL.0>
0

>  <SCORE.INTRA.POLAR>
0

>  <SCORE.INTRA.POLAR.0>
0

>  <SCORE.INTRA.REPUL>
0

>  <SCORE.INTRA.REPUL.0>
0

>  <SCORE.INTRA.SOLV>
0

>  <SCORE.INTRA.SOLV.lig_0>
-33.1994

>  <SCORE.INTRA.VDW>
0

>  <SCORE.INTRA.VDW.0>
0

>  <SCORE.INTRA.norm>
0

>  <SCORE.RESTR>
0

>  <SCORE.RESTR.CAVITY>
0

>  <SCORE.RESTR.norm>
0

>  <SCORE.SYSTEM>
0

>  <SCORE.SYSTEM.CONST>
0

>  <SCORE.SYSTEM.DIHEDRAL>
0

>  <SCORE.SYSTEM.SOLV>
0

>  <SCORE.SYSTEM.norm>
0

>  <SCORE.heavy>
13

>  <SCORE.norm>
-1.69231

>  <RMSD>
4.265

$$$$
ligand
 OpenBabel11021811473D
libRbt.so/2013.1/901 2013/11/27
 13 14  0  0  0  0  0  0  0  0999 V2000
   36.7811   35.8023   24.4190 N   0  0  0  0  0  0  0  0  0  0  0  0
   37.7923   35.4148   25.5756 C   0  0  0  0  0  0  0  0  0  0  0  0
   38.8209   36.2824   25.8869 N   0  0  0  0  0  0  0  0  0  0  0  0
   37.5253   34.2846   26.0806 N   0  0  0  0  0  0  0  0  0  0  0  0
   36.5372   33.4060   25.8232 C   0  0  0  0  0  0  0  0  0  0  0  0
   35.6280   33.6610   24.8620 C   0  0  0  0  0  0  0  0  0  0  0  0
   35.7765   35.0134   24.0596 C   0  0  0  0  0  0  0  0  0  0  0  0
   34.9664   35.2279   23.2162 O   0  0  0  0  0  0  0  0  0  0  0  0
   34.5954   32.5293   24.7045 C   0  0  0  0  0  0  0  0  0  0  0  0
   34.9351   31.6166   25.6217 C   0  0  0  0  0  0  0  0  0  0  0  0
   36.0396   31.9260   26.3690 N   0  0  0  0  0  0  0  0  0  0  0  0
   33.4617   32.5028   23.7529 C   0  0  0  0  0  0  0  0  0  0  0  0
   32.6079   32.5230   22.9735 N   0  0  0  0  0  0  0  0  0  0  0  0
  1  2  1  0  0  0  0
  1  7  1  0  0  0  0
  2  3  1  0  0  0  0
  2  4  2  0  0  0  0
  4  5  1  0  0  0  0
  5  6  2  0  0  0  0
  5 11  1  0  0  0  0
  6  7  1  0  0  0  0
  6  9  1  0  0  0  0
  7  8  2  0  0  0  0
  9 10  2  0  0  0  0
  9 12  1  0  0  0  0
 10 11  1  0  0  0  0
 12 13  3  0  0  0  0
M  END
>  <CHROM.1>
35.81777036,33.91060972,24.84984728,0.30851264,-0.62765471,-0.59167927

>  <Name>
ligand

>  <RI>
0

>  <Rbt.Current_Directory>
/home/itssahil/PROJECTS/Mol_Feturizer/New_Systems/rnas/3GCA

>  <Rbt.Executable>
rbdock ($Id: //depot/dev/client3/rdock/2013.1/src/exe/rbdock.cxx#4 $)

>  <Rbt.Library>
libRbt.so (2013.1, Build901 2013/11/27)

>  <Rbt.Parameter_File>
/export/apps/rDock/src/rDock_2013.1_src/data/scripts/dock_solv.prm

>  <Rbt.Receptor>
prm/pocket_docking_4.prm

>  <SCORE>
-21.9755

>  <SCORE.INTER>
-21.9755

>  <SCORE.INTER.CONST>
1

>  <SCORE.INTER.POLAR>
0

>  <SCORE.INTER.ROT>
0

>  <SCORE.INTER.SOLV>
10.1555

>  <SCORE.INTER.VDW>
-21.6355

>  <SCORE.INTER.norm>
-1.69042

>  <SCORE.INTRA>
0

>  <SCORE.INTRA.DIHEDRAL>
0

>  <SCORE.INTRA.DIHEDRAL.0>
0

>  <SCORE.INTRA.POLAR>
0

>  <SCORE.INTRA.POLAR.0>
0

>  <SCORE.INTRA.REPUL>
0

>  <SCORE.INTRA.REPUL.0>
0

>  <SCORE.INTRA.SOLV>
0

>  <SCORE.INTRA.SOLV.lig_0>
-33.1994

>  <SCORE.INTRA.VDW>
0

>  <SCORE.INTRA.VDW.0>
0

>  <SCORE.INTRA.norm>
0

>  <SCORE.RESTR>
0

>  <SCORE.RESTR.CAVITY>
0

>  <SCORE.RESTR.norm>
0

>  <SCORE.SYSTEM>
0

>  <SCORE.SYSTEM.CONST>
0

>  <SCORE.SYSTEM.DIHEDRAL>
0

>  <SCORE.SYSTEM.SOLV>
0

>  <SCORE.SYSTEM.norm>
0

>  <SCORE.heavy>
13

>  <SCORE.norm>
-1.69042

>  <RMSD>
4.265

$$$$
ligand
 OpenBabel11021811473D
libRbt.so/2013.1/901 2013/11/27
 13 14  0  0  0  0  0  0  0  0999 V2000
   36.7798   35.8034   24.4191 N   0  0  0  0  0  0  0  0  0  0  0  0
   37.7938   35.4239   25.5759 C   0  0  0  0  0  0  0  0  0  0  0  0
   38.8179   36.2977   25.8847 N   0  0  0  0  0  0  0  0  0  0  0  0
   37.5331   34.2933   26.0835 N   0  0  0  0  0  0  0  0  0  0  0  0
   36.5497   33.4089   25.8286 C   0  0  0  0  0  0  0  0  0  0  0  0
   35.6385   33.6569   24.8674 C   0  0  0  0  0  0  0  0  0  0  0  0
   35.7792   35.0084   24.0620 C   0  0  0  0  0  0  0  0  0  0  0  0
   34.9675   35.2167   23.2186 O   0  0  0  0  0  0  0  0  0  0  0  0
   34.6120   32.5193   24.7130 C   0  0  0  0  0  0  0  0  0  0  0  0
   34.9572   31.6105   25.6319 C   0  0  0  0  0  0  0  0  0  0  0  0
   36.0604   31.9274   26.3779 N   0  0  0  0  0  0  0  0  0  0  0  0
   33.4779   32.4847   23.7621 C   0  0  0  0  0  0  0  0  0  0  0  0
   32.6235   32.4986   22.9832 N   0  0  0  0  0  0  0  0  0  0  0  0
  1  2  1  0  0  0  0
  1  7  1  0  0  0  0
  2  3  1  0  0  0  0
  2  4  2  0  0  0  0
  4  5  1  0  0  0  0
  5  6  2  0  0  0  0
  5 11  1  0  0  0  0
  6  7  1  0  0  0  0
  6  9  1  0  0  0  0
  7  8  2  0  0  0  0
  9 10  2  0  0  0  0
  9 12  1  0  0  0  0
 10 11  1  0  0  0  0
 12 13  3  0  0  0  0
M  END
>  <CHROM.1>
35.82695994,33.90751871,24.85459596,0.31445799,-0.63016375,-0.59034034

>  <Name>
ligand

>  <RI>
0

>  <Rbt.Current_Directory>
/home/itssahil/PROJECTS/Mol_Feturizer/New_Systems/rnas/3GCA

>  <Rbt.Executable>
rbdock ($Id: //depot/dev/client3/rdock/2013.1/src/exe/rbdock.cxx#4 $)

>  <Rbt.Library>
libRbt.so (2013.1, Build901 2013/11/27)

>  <Rbt.Parameter_File>
/export/apps/rDock/src/rDock_2013.1_src/data/scripts/dock_solv.prm

>  <Rbt.Receptor>
prm/pocket_docking_6.prm

>  <SCORE>
-22.0008

>  <SCORE.INTER>
-22.0008

>  <SCORE.INTER.CONST>
1

>  <SCORE.INTER.POLAR>
0

>  <SCORE.INTER.ROT>
0

>  <SCORE.INTER.SOLV>
10.1401

>  <SCORE.INTER.VDW>
-21.6472

>  <SCORE.INTER.norm>
-1.69237

>  <SCORE.INTRA>
0

>  <SCORE.INTRA.DIHEDRAL>
0

>  <SCORE.INTRA.DIHEDRAL.0>
0

>  <SCORE.INTRA.POLAR>
0

>  <SCORE.INTRA.POLAR.0>
0

>  <SCORE.INTRA.REPUL>
0

>  <SCORE.INTRA.REPUL.0>
0

>  <SCORE.INTRA.SOLV>
0

>  <SCORE.INTRA.SOLV.lig_0>
-33.1994

>  <SCORE.INTRA.VDW>
0

>  <SCORE.INTRA.VDW.0>
0

>  <SCORE.INTRA.norm>
0

>  <SCORE.RESTR>
0

>  <SCORE.RESTR.CAVITY>
0

>  <SCORE.RESTR.norm>
0

>  <SCORE.SYSTEM>
0

>  <SCORE.SYSTEM.CONST>
0

>  <SCORE.SYSTEM.DIHEDRAL>
0

>  <SCORE.SYSTEM.SOLV>
0

>  <SCORE.SYSTEM.norm>
0

>  <SCORE.heavy>
13

>  <SCORE.norm>
-1.69237

>  <RMSD>
4.265

$$$$
ligand
 OpenBabel11021811473D
libRbt.so/2013.1/901 2013/11/27
 13 14  0  0  0  0  0  0  0  0999 V2000
   36.8095   35.8366   24.3439 N   0  0  0  0  0  0  0  0  0  0  0  0
   37.8179   35.5066   25.5206 C   0  0  0  0  0  0  0  0  0  0  0  0
   38.8375   36.3954   25.8003 N   0  0  0  0  0  0  0  0  0  0  0  0
   37.5578   34.3963   26.0712 N   0  0  0  0  0  0  0  0  0  0  0  0
   36.5786   33.4992   25.8461 C   0  0  0  0  0  0  0  0  0  0  0  0
   35.6722   33.7058   24.8707 C   0  0  0  0  0  0  0  0  0  0  0  0
   35.8135   35.0247   24.0130 C   0  0  0  0  0  0  0  0  0  0  0  0
   35.0060   35.1967   23.1575 O   0  0  0  0  0  0  0  0  0  0  0  0
   34.6501   32.5596   24.7558 C   0  0  0  0  0  0  0  0  0  0  0  0
   34.9927   31.6891   25.7121 C   0  0  0  0  0  0  0  0  0  0  0  0
   36.0906   32.0391   26.4511 N   0  0  0  0  0  0  0  0  0  0  0  0
   33.5217   32.4835   23.8006 C   0  0  0  0  0  0  0  0  0  0  0  0
   32.6717   32.4636   23.0169 N   0  0  0  0  0  0  0  0  0  0  0  0
  1  2  1  0  0  0  0
  1  7  1  0  0  0  0
  2  3  1  0  0  0  0
  2  4  2  0  0  0  0
  4  5  1  0  0  0  0
  5  6  2  0  0  0  0
  5 11  1  0  0  0  0
  6  7  1  0  0  0  0
  6  9  1  0  0  0  0
  7  8  2  0  0  0  0
  9 10  2  0  0  0  0
  9 12  1  0  0  0  0
 10 11  1  0  0  0  0
 12 13  3  0  0  0  0
M  END
>  <CHROM.1>
35.85995444,33.95632327,24.84900712,0.31360285,-0.63669233,-0.63058991

>  <Name>
ligand

>  <RI>
0

>  <Rbt.Current_Directory>
/home/itssahil/PROJECTS/Mol_Feturizer/New_Systems/rnas/3GCA

>  <Rbt.Executable>
rbdock ($Id: //depot/dev/client3/rdock/2013.1/src/exe/rbdock.cxx#4 $)

>  <Rbt.Library>
libRbt.so (2013.1, Build901 2013/11/27)

>  <Rbt.Parameter_File>
/export/apps/rDock/src/rDock_2013.1_src/data/scripts/dock_solv.prm

>  <Rbt.Receptor>
prm/pocket_docking_6.prm

>  <SCORE>
-21.9317

>  <SCORE.INTER>
-21.9317

>  <SCORE.INTER.CONST>
1

>  <SCORE.INTER.POLAR>
0

>  <SCORE.INTER.ROT>
0

>  <SCORE.INTER.SOLV>
10.1298

>  <SCORE.INTER.VDW>
-21.5978

>  <SCORE.INTER.norm>
-1.68706

>  <SCORE.INTRA>
0

>  <SCORE.INTRA.DIHEDRAL>
0

>  <SCORE.INTRA.DIHEDRAL.0>
0

>  <SCORE.INTRA.POLAR>
0

>  <SCORE.INTRA.POLAR.0>
0

>  <SCORE.INTRA.REPUL>
0

>  <SCORE.INTRA.REPUL.0>
0

>  <SCORE.INTRA.SOLV>
0

>  <SCORE.INTRA.SOLV.lig_0>
-33.1994

>  <SCORE.INTRA.VDW>
0

>  <SCORE.INTRA.VDW.0>
0

>  <SCORE.INTRA.norm>
0

>  <SCORE.RESTR>
0

>  <SCORE.RESTR.CAVITY>
0

>  <SCORE.RESTR.norm>
0

>  <SCORE.SYSTEM>
0

>  <SCORE.SYSTEM.CONST>
0

>  <SCORE.SYSTEM.DIHEDRAL>
0

>  <SCORE.SYSTEM.SOLV>
0

>  <SCORE.SYSTEM.norm>
0

>  <SCORE.heavy>
13

>  <SCORE.norm>
-1.68706

>  <RMSD>
4.265

$$$$
ligand
 OpenBabel11021811473D
libRbt.so/2013.1/901 2013/11/27
 13 14  0  0  0  0  0  0  0  0999 V2000
   36.7792   35.8002   24.4232 N   0  0  0  0  0  0  0  0  0  0  0  0
   37.7882   35.4105   25.5809 C   0  0  0  0  0  0  0  0  0  0  0  0
   38.8149   36.2784   25.8974 N   0  0  0  0  0  0  0  0  0  0  0  0
   37.5214   34.2783   26.0818 N   0  0  0  0  0  0  0  0  0  0  0  0
   36.5352   33.3992   25.8193 C   0  0  0  0  0  0  0  0  0  0  0  0
   35.6279   33.6559   24.8567 C   0  0  0  0  0  0  0  0  0  0  0  0
   35.7765   35.0111   24.0589 C   0  0  0  0  0  0  0  0  0  0  0  0
   34.9681   35.2271   23.2143 O   0  0  0  0  0  0  0  0  0  0  0  0
   34.5973   32.5233   24.6933 C   0  0  0  0  0  0  0  0  0  0  0  0
   34.9360   31.6083   25.6085 C   0  0  0  0  0  0  0  0  0  0  0  0
   36.0383   31.9169   26.3594 N   0  0  0  0  0  0  0  0  0  0  0  0
   33.4659   32.4983   23.7390 C   0  0  0  0  0  0  0  0  0  0  0  0
   32.6138   32.5198   22.9576 N   0  0  0  0  0  0  0  0  0  0  0  0
  1  2  1  0  0  0  0
  1  7  1  0  0  0  0
  2  3  1  0  0  0  0
  2  4  2  0  0  0  0
  4  5  1  0  0  0  0
  5  6  2  0  0  0  0
  5 11  1  0  0  0  0
  6  7  1  0  0  0  0
  6  9  1  0  0  0  0
  7  8  2  0  0  0  0
  9 10  2  0  0  0  0
  9 12  1  0  0  0  0
 10 11  1  0  0  0  0
 12 13  3  0  0  0  0
M  END
>  <CHROM.1>
35.81739251,33.90585026,24.84585618,0.30825470,-0.63037618,-0.58873362

>  <Name>
ligand

>  <RI>
0

>  <Rbt.Current_Directory>
/home/itssahil/PROJECTS/Mol_Feturizer/New_Systems/rnas/3GCA

>  <Rbt.Executable>
rbdock ($Id: //depot/dev/client3/rdock/2013.1/src/exe/rbdock.cxx#4 $)

>  <Rbt.Library>
libRbt.so (2013.1, Build901 2013/11/27)

>  <Rbt.Parameter_File>
/export/apps/rDock/src/rDock_2013.1_src/data/scripts/dock_solv.prm

>  <Rbt.Receptor>
prm/pocket_docking_7.prm

>  <SCORE>
-21.9709

>  <SCORE.INTER>
-21.9709

>  <SCORE.INTER.CONST>
1

>  <SCORE.INTER.POLAR>
0

>  <SCORE.INTER.ROT>
0

>  <SCORE.INTER.SOLV>
10.1655

>  <SCORE.INTER.VDW>
-21.6358

>  <SCORE.INTER.norm>
-1.69007

>  <SCORE.INTRA>
0

>  <SCORE.INTRA.DIHEDRAL>
0

>  <SCORE.INTRA.DIHEDRAL.0>
0

>  <SCORE.INTRA.POLAR>
0

>  <SCORE.INTRA.POLAR.0>
0

>  <SCORE.INTRA.REPUL>
0

>  <SCORE.INTRA.REPUL.0>
0

>  <SCORE.INTRA.SOLV>
0

>  <SCORE.INTRA.SOLV.lig_0>
-33.1994

>  <SCORE.INTRA.VDW>
0

>  <SCORE.INTRA.VDW.0>
0

>  <SCORE.INTRA.norm>
0

>  <SCORE.RESTR>
0

>  <SCORE.RESTR.CAVITY>
0

>  <SCORE.RESTR.norm>
0

>  <SCORE.SYSTEM>
0

>  <SCORE.SYSTEM.CONST>
0

>  <SCORE.SYSTEM.DIHEDRAL>
0

>  <SCORE.SYSTEM.SOLV>
0

>  <SCORE.SYSTEM.norm>
0

>  <SCORE.heavy>
13

>  <SCORE.norm>
-1.69007

>  <RMSD>
4.265

$$$$
ligand
 OpenBabel11021811473D
libRbt.so/2013.1/901 2013/11/27
 13 14  0  0  0  0  0  0  0  0999 V2000
   36.8094   35.8180   24.3897 N   0  0  0  0  0  0  0  0  0  0  0  0
   37.7960   35.4490   25.5732 C   0  0  0  0  0  0  0  0  0  0  0  0
   38.8206   36.3195   25.8895 N   0  0  0  0  0  0  0  0  0  0  0  0
   37.5156   34.3287   26.0930 N   0  0  0  0  0  0  0  0  0  0  0  0
   36.5305   33.4481   25.8316 C   0  0  0  0  0  0  0  0  0  0  0  0
   35.6415   33.6879   24.8477 C   0  0  0  0  0  0  0  0  0  0  0  0
   35.8100   35.0253   24.0243 C   0  0  0  0  0  0  0  0  0  0  0  0
   35.0177   35.2265   23.1610 O   0  0  0  0  0  0  0  0  0  0  0  0
   34.6091   32.5561   24.6899 C   0  0  0  0  0  0  0  0  0  0  0  0
   34.9277   31.6594   25.6301 C   0  0  0  0  0  0  0  0  0  0  0  0
   36.0178   31.9795   26.3938 N   0  0  0  0  0  0  0  0  0  0  0  0
   33.4948   32.5153   23.7162 C   0  0  0  0  0  0  0  0  0  0  0  0
   32.6569   32.5235   22.9195 N   0  0  0  0  0  0  0  0  0  0  0  0
  1  2  1  0  0  0  0
  1  7  1  0  0  0  0
  2  3  1  0  0  0  0
  2  4  2  0  0  0  0
  4  5  1  0  0  0  0
  5  6  2  0  0  0  0
  5 11  1  0  0  0  0
  6  7  1  0  0  0  0
  6  9  1  0  0  0  0
  7  8  2  0  0  0  0
  9 10  2  0  0  0  0
  9 12  1  0  0  0  0
 10 11  1  0  0  0  0
 12 13  3  0  0  0  0
M  END
>  <CHROM.1>
35.83221846,33.93683504,24.83496758,0.29150892,-0.64273755,-0.61982881

>  <Name>
ligand

>  <RI>
0

>  <Rbt.Current_Directory>
/home/itssahil/PROJECTS/Mol_Feturizer/New_Systems/rnas/3GCA

>  <Rbt.Executable>
rbdock ($Id: //depot/dev/client3/rdock/2013.1/src/exe/rbdock.cxx#4 $)

>  <Rbt.Library>
libRbt.so (2013.1, Build901 2013/11/27)

>  <Rbt.Parameter_File>
/export/apps/rDock/src/rDock_2013.1_src/data/scripts/dock_solv.prm

>  <Rbt.Receptor>
prm/pocket_docking_4.prm

>  <SCORE>
-21.9446

>  <SCORE.INTER>
-21.9446

>  <SCORE.INTER.CONST>
1

>  <SCORE.INTER.POLAR>
0

>  <SCORE.INTER.ROT>
0

>  <SCORE.INTER.SOLV>
10.1104

>  <SCORE.INTER.VDW>
-21.5998

>  <SCORE.INTER.norm>
-1.68805

>  <SCORE.INTRA>
0

>  <SCORE.INTRA.DIHEDRAL>
0

>  <SCORE.INTRA.DIHEDRAL.0>
0

>  <SCORE.INTRA.POLAR>
0

>  <SCORE.INTRA.POLAR.0>
0

>  <SCORE.INTRA.REPUL>
0

>  <SCORE.INTRA.REPUL.0>
0

>  <SCORE.INTRA.SOLV>
0

>  <SCORE.INTRA.SOLV.lig_0>
-33.1994

>  <SCORE.INTRA.VDW>
0

>  <SCORE.INTRA.VDW.0>
0

>  <SCORE.INTRA.norm>
0

>  <SCORE.RESTR>
0

>  <SCORE.RESTR.CAVITY>
0

>  <SCORE.RESTR.norm>
0

>  <SCORE.SYSTEM>
0

>  <SCORE.SYSTEM.CONST>
0

>  <SCORE.SYSTEM.DIHEDRAL>
0

>  <SCORE.SYSTEM.SOLV>
0

>  <SCORE.SYSTEM.norm>
0

>  <SCORE.heavy>
13

>  <SCORE.norm>
-1.68805

>  <RMSD>
4.266

$$$$
ligand
 OpenBabel11021811473D
libRbt.so/2013.1/901 2013/11/27
 13 14  0  0  0  0  0  0  0  0999 V2000
   36.8067   35.8063   24.4308 N   0  0  0  0  0  0  0  0  0  0  0  0
   37.8076   35.4499   25.6061 C   0  0  0  0  0  0  0  0  0  0  0  0
   38.8252   36.3321   25.9123 N   0  0  0  0  0  0  0  0  0  0  0  0
   37.5442   34.3274   26.1299 N   0  0  0  0  0  0  0  0  0  0  0  0
   36.5666   33.4355   25.8783 C   0  0  0  0  0  0  0  0  0  0  0  0
   35.6665   33.6641   24.9019 C   0  0  0  0  0  0  0  0  0  0  0  0
   35.8130   35.0020   24.0752 C   0  0  0  0  0  0  0  0  0  0  0  0
   35.0110   35.1932   23.2186 O   0  0  0  0  0  0  0  0  0  0  0  0
   34.6454   32.5207   24.7547 C   0  0  0  0  0  0  0  0  0  0  0  0
   34.9820   31.6289   25.6932 C   0  0  0  0  0  0  0  0  0  0  0  0
   36.0751   31.9622   26.4470 N   0  0  0  0  0  0  0  0  0  0  0  0
   33.5231   32.4662   23.7909 C   0  0  0  0  0  0  0  0  0  0  0  0
   32.6782   32.4639   23.0015 N   0  0  0  0  0  0  0  0  0  0  0  0
  1  2  1  0  0  0  0
  1  7  1  0  0  0  0
  2  3  1  0  0  0  0
  2  4  2  0  0  0  0
  4  5  1  0  0  0  0
  5  6  2  0  0  0  0
  5 11  1  0  0  0  0
  6  7  1  0  0  0  0
  6  9  1  0  0  0  0
  7  8  2  0  0  0  0
  9 10  2  0  0  0  0
  9 12  1  0  0  0  0
 10 11  1  0  0  0  0
 12 13  3  0  0  0  0
M  END
>  <CHROM.1>
35.85432048,33.91505599,24.88715190,0.30908398,-0.64197189,-0.61071322

>  <Name>
ligand

>  <RI>
0

>  <Rbt.Current_Directory>
/home/itssahil/PROJECTS/Mol_Feturizer/New_Systems/rnas/3GCA

>  <Rbt.Executable>
rbdock ($Id: //depot/dev/client3/rdock/2013.1/src/exe/rbdock.cxx#4 $)

>  <Rbt.Library>
libRbt.so (2013.1, Build901 2013/11/27)

>  <Rbt.Parameter_File>
/export/apps/rDock/src/rDock_2013.1_src/data/scripts/dock_solv.prm

>  <Rbt.Receptor>
prm/pocket_docking_8.prm

>  <SCORE>
-22.027

>  <SCORE.INTER>
-22.027

>  <SCORE.INTER.CONST>
1

>  <SCORE.INTER.POLAR>
0

>  <SCORE.INTER.ROT>
0

>  <SCORE.INTER.SOLV>
9.99583

>  <SCORE.INTER.VDW>
-21.6166

>  <SCORE.INTER.norm>
-1.69439

>  <SCORE.INTRA>
0

>  <SCORE.INTRA.DIHEDRAL>
0

>  <SCORE.INTRA.DIHEDRAL.0>
0

>  <SCORE.INTRA.POLAR>
0

>  <SCORE.INTRA.POLAR.0>
0

>  <SCORE.INTRA.REPUL>
0

>  <SCORE.INTRA.REPUL.0>
0

>  <SCORE.INTRA.SOLV>
0

>  <SCORE.INTRA.SOLV.lig_0>
-33.1994

>  <SCORE.INTRA.VDW>
0

>  <SCORE.INTRA.VDW.0>
0

>  <SCORE.INTRA.norm>
0

>  <SCORE.RESTR>
0

>  <SCORE.RESTR.CAVITY>
0

>  <SCORE.RESTR.norm>
0

>  <SCORE.SYSTEM>
0

>  <SCORE.SYSTEM.CONST>
0

>  <SCORE.SYSTEM.DIHEDRAL>
0

>  <SCORE.SYSTEM.SOLV>
0

>  <SCORE.SYSTEM.norm>
0

>  <SCORE.heavy>
13

>  <SCORE.norm>
-1.69439

>  <RMSD>
4.266

$$$$
ligand
 OpenBabel11021811473D
libRbt.so/2013.1/901 2013/11/27
 13 14  0  0  0  0  0  0  0  0999 V2000
   36.7729   35.7989   24.4413 N   0  0  0  0  0  0  0  0  0  0  0  0
   37.7731   35.3641   25.5906 C   0  0  0  0  0  0  0  0  0  0  0  0
   38.8157   36.2052   25.9271 N   0  0  0  0  0  0  0  0  0  0  0  0
   37.4844   34.2262   26.0656 N   0  0  0  0  0  0  0  0  0  0  0  0
   36.4820   33.3721   25.7828 C   0  0  0  0  0  0  0  0  0  0  0  0
   35.5808   33.6676   24.8257 C   0  0  0  0  0  0  0  0  0  0  0  0
   35.7558   35.0373   24.0587 C   0  0  0  0  0  0  0  0  0  0  0  0
   34.9526   35.2876   23.2186 O   0  0  0  0  0  0  0  0  0  0  0  0
   34.5290   32.5587   24.6361 C   0  0  0  0  0  0  0  0  0  0  0  0
   34.8494   31.6171   25.5307 C   0  0  0  0  0  0  0  0  0  0  0  0
   35.9566   31.8877   26.2890 N   0  0  0  0  0  0  0  0  0  0  0  0
   33.3984   32.5766   23.6807 C   0  0  0  0  0  0  0  0  0  0  0  0
   32.5477   32.6318   22.8995 N   0  0  0  0  0  0  0  0  0  0  0  0
  1  2  1  0  0  0  0
  1  7  1  0  0  0  0
  2  3  1  0  0  0  0
  2  4  2  0  0  0  0
  4  5  1  0  0  0  0
  5  6  2  0  0  0  0
  5 11  1  0  0  0  0
  6  7  1  0  0  0  0
  6  9  1  0  0  0  0
  7  8  2  0  0  0  0
  9 10  2  0  0  0  0
  9 12  1  0  0  0  0
 10 11  1  0  0  0  0
 12 13  3  0  0  0  0
M  END
>  <CHROM.1>
35.77494866,33.91407573,24.82054261,0.28818116,-0.62064922,-0.57795120

>  <Name>
ligand

>  <RI>
0

>  <Rbt.Current_Directory>
/home/itssahil/PROJECTS/Mol_Feturizer/New_Systems/rnas/3GCA

>  <Rbt.Executable>
rbdock ($Id: //depot/dev/client3/rdock/2013.1/src/exe/rbdock.cxx#4 $)

>  <Rbt.Library>
libRbt.so (2013.1, Build901 2013/11/27)

>  <Rbt.Parameter_File>
/export/apps/rDock/src/rDock_2013.1_src/data/scripts/dock_solv.prm

>  <Rbt.Receptor>
prm/pocket_docking_8.prm

>  <SCORE>
-21.9613

>  <SCORE.INTER>
-21.9613

>  <SCORE.INTER.CONST>
1

>  <SCORE.INTER.POLAR>
0

>  <SCORE.INTER.ROT>
0

>  <SCORE.INTER.SOLV>
10.2471

>  <SCORE.INTER.VDW>
-21.6566

>  <SCORE.INTER.norm>
-1.68933

>  <SCORE.INTRA>
0

>  <SCORE.INTRA.DIHEDRAL>
0

>  <SCORE.INTRA.DIHEDRAL.0>
0

>  <SCORE.INTRA.POLAR>
0

>  <SCORE.INTRA.POLAR.0>
0

>  <SCORE.INTRA.REPUL>
0

>  <SCORE.INTRA.REPUL.0>
0

>  <SCORE.INTRA.SOLV>
0

>  <SCORE.INTRA.SOLV.lig_0>
-33.1994

>  <SCORE.INTRA.VDW>
0

>  <SCORE.INTRA.VDW.0>
0

>  <SCORE.INTRA.norm>
0

>  <SCORE.RESTR>
0

>  <SCORE.RESTR.CAVITY>
0

>  <SCORE.RESTR.norm>
0

>  <SCORE.SYSTEM>
0

>  <SCORE.SYSTEM.CONST>
0

>  <SCORE.SYSTEM.DIHEDRAL>
0

>  <SCORE.SYSTEM.SOLV>
0

>  <SCORE.SYSTEM.norm>
0

>  <SCORE.heavy>
13

>  <SCORE.norm>
-1.68933

>  <RMSD>
4.267

$$$$
ligand
 OpenBabel11021811473D
libRbt.so/2013.1/901 2013/11/27
 13 14  0  0  0  0  0  0  0  0999 V2000
   36.8093   35.8147   24.3877 N   0  0  0  0  0  0  0  0  0  0  0  0
   37.7908   35.4174   25.5663 C   0  0  0  0  0  0  0  0  0  0  0  0
   38.8281   36.2690   25.8924 N   0  0  0  0  0  0  0  0  0  0  0  0
   37.4943   34.2952   26.0729 N   0  0  0  0  0  0  0  0  0  0  0  0
   36.4963   33.4322   25.8017 C   0  0  0  0  0  0  0  0  0  0  0  0
   35.6106   33.6966   24.8212 C   0  0  0  0  0  0  0  0  0  0  0  0
   35.7983   35.0410   24.0135 C   0  0  0  0  0  0  0  0  0  0  0  0
   35.0087   35.2640   23.1531 O   0  0  0  0  0  0  0  0  0  0  0  0
   34.5618   32.5819   24.6505 C   0  0  0  0  0  0  0  0  0  0  0  0
   34.8675   31.6696   25.5798 C   0  0  0  0  0  0  0  0  0  0  0  0
   35.9624   31.9647   26.3467 N   0  0  0  0  0  0  0  0  0  0  0  0
   33.4466   32.5689   23.6770 C   0  0  0  0  0  0  0  0  0  0  0  0
   32.6086   32.5987   22.8809 N   0  0  0  0  0  0  0  0  0  0  0  0
  1  2  1  0  0  0  0
  1  7  1  0  0  0  0
  2  3  1  0  0  0  0
  2  4  2  0  0  0  0
  4  5  1  0  0  0  0
  5  6  2  0  0  0  0
  5 11  1  0  0  0  0
  6  7  1  0  0  0  0
  6  9  1  0  0  0  0
  7  8  2  0  0  0  0
  9 10  2  0  0  0  0
  9 12  1  0  0  0  0
 10 11  1  0  0  0  0
 12 13  3  0  0  0  0
M  END
>  <CHROM.1>
35.80490074,33.94284719,24.81125860,0.27702257,-0.63392099,-0.61662643

>  <Name>
ligand

>  <RI>
0

>  <Rbt.Current_Directory>
/home/itssahil/PROJECTS/Mol_Feturizer/New_Systems/rnas/3GCA

>  <Rbt.Executable>
rbdock ($Id: //depot/dev/client3/rdock/2013.1/src/exe/rbdock.cxx#4 $)

>  <Rbt.Library>
libRbt.so (2013.1, Build901 2013/11/27)

>  <Rbt.Parameter_File>
/export/apps/rDock/src/rDock_2013.1_src/data/scripts/dock_solv.prm

>  <Rbt.Receptor>
prm/pocket_docking_6.prm

>  <SCORE>
-21.98

>  <SCORE.INTER>
-21.98

>  <SCORE.INTER.CONST>
1

>  <SCORE.INTER.POLAR>
0

>  <SCORE.INTER.ROT>
0

>  <SCORE.INTER.SOLV>
10.1823

>  <SCORE.INTER.VDW>
-21.6474

>  <SCORE.INTER.norm>
-1.69077

>  <SCORE.INTRA>
0

>  <SCORE.INTRA.DIHEDRAL>
0

>  <SCORE.INTRA.DIHEDRAL.0>
0

>  <SCORE.INTRA.POLAR>
0

>  <SCORE.INTRA.POLAR.0>
0

>  <SCORE.INTRA.REPUL>
0

>  <SCORE.INTRA.REPUL.0>
0

>  <SCORE.INTRA.SOLV>
0

>  <SCORE.INTRA.SOLV.lig_0>
-33.1994

>  <SCORE.INTRA.VDW>
0

>  <SCORE.INTRA.VDW.0>
0

>  <SCORE.INTRA.norm>
0

>  <SCORE.RESTR>
0

>  <SCORE.RESTR.CAVITY>
0

>  <SCORE.RESTR.norm>
0

>  <SCORE.SYSTEM>
0

>  <SCORE.SYSTEM.CONST>
0

>  <SCORE.SYSTEM.DIHEDRAL>
0

>  <SCORE.SYSTEM.SOLV>
0

>  <SCORE.SYSTEM.norm>
0

>  <SCORE.heavy>
13

>  <SCORE.norm>
-1.69077

>  <RMSD>
4.268

$$$$
ligand
 OpenBabel11021811473D
libRbt.so/2013.1/901 2013/11/27
 13 14  0  0  0  0  0  0  0  0999 V2000
   36.8264   35.8134   24.3934 N   0  0  0  0  0  0  0  0  0  0  0  0
   37.8130   35.4063   25.5644 C   0  0  0  0  0  0  0  0  0  0  0  0
   38.8551   36.2526   25.8891 N   0  0  0  0  0  0  0  0  0  0  0  0
   37.5153   34.2825   26.0667 N   0  0  0  0  0  0  0  0  0  0  0  0
   36.5128   33.4245   25.7964 C   0  0  0  0  0  0  0  0  0  0  0  0
   35.6226   33.6972   24.8223 C   0  0  0  0  0  0  0  0  0  0  0  0
   35.8106   35.0452   24.0207 C   0  0  0  0  0  0  0  0  0  0  0  0
   35.0170   35.2755   23.1659 O   0  0  0  0  0  0  0  0  0  0  0  0
   34.5689   32.5871   24.6516 C   0  0  0  0  0  0  0  0  0  0  0  0
   34.8766   31.6688   25.5743 C   0  0  0  0  0  0  0  0  0  0  0  0
   35.9768   31.9560   26.3366 N   0  0  0  0  0  0  0  0  0  0  0  0
   33.4483   32.5832   23.6842 C   0  0  0  0  0  0  0  0  0  0  0  0
   32.6060   32.6202   22.8930 N   0  0  0  0  0  0  0  0  0  0  0  0
  1  2  1  0  0  0  0
  1  7  1  0  0  0  0
  2  3  1  0  0  0  0
  2  4  2  0  0  0  0
  4  5  1  0  0  0  0
  5  6  2  0  0  0  0
  5 11  1  0  0  0  0
  6  7  1  0  0  0  0
  6  9  1  0  0  0  0
  7  8  2  0  0  0  0
  9 10  2  0  0  0  0
  9 12  1  0  0  0  0
 10 11  1  0  0  0  0
 12 13  3  0  0  0  0
M  END
>  <CHROM.1>
35.81773843,33.94278221,24.81257926,0.27742354,-0.62733376,-0.61108360

>  <Name>
ligand

>  <RI>
0

>  <Rbt.Current_Directory>
/home/itssahil/PROJECTS/Mol_Feturizer/New_Systems/rnas/3GCA

>  <Rbt.Executable>
rbdock ($Id: //depot/dev/client3/rdock/2013.1/src/exe/rbdock.cxx#4 $)

>  <Rbt.Library>
libRbt.so (2013.1, Build901 2013/11/27)

>  <Rbt.Parameter_File>
/export/apps/rDock/src/rDock_2013.1_src/data/scripts/dock_solv.prm

>  <Rbt.Receptor>
prm/pocket_docking_3.prm

>  <SCORE>
-21.9764

>  <SCORE.INTER>
-21.9764

>  <SCORE.INTER.CONST>
1

>  <SCORE.INTER.POLAR>
0

>  <SCORE.INTER.ROT>
0

>  <SCORE.INTER.SOLV>
10.1291

>  <SCORE.INTER.VDW>
-21.6273

>  <SCORE.INTER.norm>
-1.69049

>  <SCORE.INTRA>
0

>  <SCORE.INTRA.DIHEDRAL>
0

>  <SCORE.INTRA.DIHEDRAL.0>
0

>  <SCORE.INTRA.POLAR>
0

>  <SCORE.INTRA.POLAR.0>
0

>  <SCORE.INTRA.REPUL>
0

>  <SCORE.INTRA.REPUL.0>
0

>  <SCORE.INTRA.SOLV>
0

>  <SCORE.INTRA.SOLV.lig_0>
-33.1994

>  <SCORE.INTRA.VDW>
0

>  <SCORE.INTRA.VDW.0>
0

>  <SCORE.INTRA.norm>
0

>  <SCORE.RESTR>
0

>  <SCORE.RESTR.CAVITY>
0

>  <SCORE.RESTR.norm>
0

>  <SCORE.SYSTEM>
0

>  <SCORE.SYSTEM.CONST>
0

>  <SCORE.SYSTEM.DIHEDRAL>
0

>  <SCORE.SYSTEM.SOLV>
0

>  <SCORE.SYSTEM.norm>
0

>  <SCORE.heavy>
13

>  <SCORE.norm>
-1.69049

>  <RMSD>
4.269

$$$$
ligand
 OpenBabel11021811473D
libRbt.so/2013.1/901 2013/11/27
 13 14  0  0  0  0  0  0  0  0999 V2000
   36.8224   35.8063   24.4126 N   0  0  0  0  0  0  0  0  0  0  0  0
   37.8030   35.3915   25.5859 C   0  0  0  0  0  0  0  0  0  0  0  0
   38.8455   36.2339   25.9193 N   0  0  0  0  0  0  0  0  0  0  0  0
   37.5007   34.2660   26.0815 N   0  0  0  0  0  0  0  0  0  0  0  0
   36.4975   33.4114   25.8027 C   0  0  0  0  0  0  0  0  0  0  0  0
   35.6122   33.6907   24.8260 C   0  0  0  0  0  0  0  0  0  0  0  0
   35.8066   35.0422   24.0317 C   0  0  0  0  0  0  0  0  0  0  0  0
   35.0173   35.2783   23.1745 O   0  0  0  0  0  0  0  0  0  0  0  0
   34.5569   32.5838   24.6453 C   0  0  0  0  0  0  0  0  0  0  0  0
   34.8585   31.6604   25.5650 C   0  0  0  0  0  0  0  0  0  0  0  0
   35.9560   31.9415   26.3335 N   0  0  0  0  0  0  0  0  0  0  0  0
   33.4406   32.5869   23.6730 C   0  0  0  0  0  0  0  0  0  0  0  0
   32.6019   32.6296   22.8782 N   0  0  0  0  0  0  0  0  0  0  0  0
  1  2  1  0  0  0  0
  1  7  1  0  0  0  0
  2  3  1  0  0  0  0
  2  4  2  0  0  0  0
  4  5  1  0  0  0  0
  5  6  2  0  0  0  0
  5 11  1  0  0  0  0
  6  7  1  0  0  0  0
  6  9  1  0  0  0  0
  7  8  2  0  0  0  0
  9 10  2  0  0  0  0
  9 12  1  0  0  0  0
 10 11  1  0  0  0  0
 12 13  3  0  0  0  0
M  END
>  <CHROM.1>
35.80792622,33.93594969,24.81831443,0.27210540,-0.62970532,-0.60940172

>  <Name>
ligand

>  <RI>
0

>  <Rbt.Current_Directory>
/home/itssahil/PROJECTS/Mol_Feturizer/New_Systems/rnas/3GCA

>  <Rbt.Executable>
rbdock ($Id: //depot/dev/client3/rdock/2013.1/src/exe/rbdock.cxx#4 $)

>  <Rbt.Library>
libRbt.so (2013.1, Build901 2013/11/27)

>  <Rbt.Parameter_File>
/export/apps/rDock/src/rDock_2013.1_src/data/scripts/dock_solv.prm

>  <Rbt.Receptor>
prm/pocket_docking_8.prm

>  <SCORE>
-21.9789

>  <SCORE.INTER>
-21.9789

>  <SCORE.INTER.CONST>
1

>  <SCORE.INTER.POLAR>
0

>  <SCORE.INTER.ROT>
0

>  <SCORE.INTER.SOLV>
10.1342

>  <SCORE.INTER.VDW>
-21.6307

>  <SCORE.INTER.norm>
-1.69068

>  <SCORE.INTRA>
0

>  <SCORE.INTRA.DIHEDRAL>
0

>  <SCORE.INTRA.DIHEDRAL.0>
0

>  <SCORE.INTRA.POLAR>
0

>  <SCORE.INTRA.POLAR.0>
0

>  <SCORE.INTRA.REPUL>
0

>  <SCORE.INTRA.REPUL.0>
0

>  <SCORE.INTRA.SOLV>
0

>  <SCORE.INTRA.SOLV.lig_0>
-33.1994

>  <SCORE.INTRA.VDW>
0

>  <SCORE.INTRA.VDW.0>
0

>  <SCORE.INTRA.norm>
0

>  <SCORE.RESTR>
0

>  <SCORE.RESTR.CAVITY>
0

>  <SCORE.RESTR.norm>
0

>  <SCORE.SYSTEM>
0

>  <SCORE.SYSTEM.CONST>
0

>  <SCORE.SYSTEM.DIHEDRAL>
0

>  <SCORE.SYSTEM.SOLV>
0

>  <SCORE.SYSTEM.norm>
0

>  <SCORE.heavy>
13

>  <SCORE.norm>
-1.69068

>  <RMSD>
4.269

$$$$
ligand
 OpenBabel11021811473D
libRbt.so/2013.1/901 2013/11/27
 13 14  0  0  0  0  0  0  0  0999 V2000
   37.1112   35.8132   24.4653 N   0  0  0  0  0  0  0  0  0  0  0  0
   38.0268   35.4180   25.6965 C   0  0  0  0  0  0  0  0  0  0  0  0
   39.0858   36.2370   26.0361 N   0  0  0  0  0  0  0  0  0  0  0  0
   37.6625   34.3279   26.2282 N   0  0  0  0  0  0  0  0  0  0  0  0
   36.6401   33.4978   25.9453 C   0  0  0  0  0  0  0  0  0  0  0  0
   35.8065   33.7634   24.9205 C   0  0  0  0  0  0  0  0  0  0  0  0
   36.0838   35.0692   24.0761 C   0  0  0  0  0  0  0  0  0  0  0  0
   35.3395   35.2938   23.1765 O   0  0  0  0  0  0  0  0  0  0  0  0
   34.7186   32.6877   24.7445 C   0  0  0  0  0  0  0  0  0  0  0  0
   34.9475   31.7973   25.7162 C   0  0  0  0  0  0  0  0  0  0  0  0
   36.0225   32.0741   26.5174 N   0  0  0  0  0  0  0  0  0  0  0  0
   33.6437   32.6861   23.7266 C   0  0  0  0  0  0  0  0  0  0  0  0
   32.8403   32.7222   22.8958 N   0  0  0  0  0  0  0  0  0  0  0  0
  1  2  1  0  0  0  0
  1  7  1  0  0  0  0
  2  3  1  0  0  0  0
  2  4  2  0  0  0  0
  4  5  1  0  0  0  0
  5  6  2  0  0  0  0
  5 11  1  0  0  0  0
  6  7  1  0  0  0  0
  6  9  1  0  0  0  0
  7  8  2  0  0  0  0
  9 10  2  0  0  0  0
  9 12  1  0  0  0  0
 10 11  1  0  0  0  0
 12 13  3  0  0  0  0
M  END
>  <CHROM.1>
36.01142539,34.00088251,24.91028172,0.20451321,-0.64054248,-0.69469523

>  <Name>
ligand

>  <RI>
0

>  <Rbt.Current_Directory>
/home/itssahil/PROJECTS/Mol_Feturizer/New_Systems/rnas/3GCA

>  <Rbt.Executable>
rbdock ($Id: //depot/dev/client3/rdock/2013.1/src/exe/rbdock.cxx#4 $)

>  <Rbt.Library>
libRbt.so (2013.1, Build901 2013/11/27)

>  <Rbt.Parameter_File>
/export/apps/rDock/src/rDock_2013.1_src/data/scripts/dock_solv.prm

>  <Rbt.Receptor>
prm/pocket_docking_4.prm

>  <SCORE>
-21.8995

>  <SCORE.INTER>
-21.8995

>  <SCORE.INTER.CONST>
1

>  <SCORE.INTER.POLAR>
0

>  <SCORE.INTER.ROT>
0

>  <SCORE.INTER.SOLV>
9.06669

>  <SCORE.INTER.VDW>
-21.2219

>  <SCORE.INTER.norm>
-1.68458

>  <SCORE.INTRA>
0

>  <SCORE.INTRA.DIHEDRAL>
0

>  <SCORE.INTRA.DIHEDRAL.0>
0

>  <SCORE.INTRA.POLAR>
0

>  <SCORE.INTRA.POLAR.0>
0

>  <SCORE.INTRA.REPUL>
0

>  <SCORE.INTRA.REPUL.0>
0

>  <SCORE.INTRA.SOLV>
0

>  <SCORE.INTRA.SOLV.lig_0>
-33.1994

>  <SCORE.INTRA.VDW>
0

>  <SCORE.INTRA.VDW.0>
0

>  <SCORE.INTRA.norm>
0

>  <SCORE.RESTR>
0

>  <SCORE.RESTR.CAVITY>
0

>  <SCORE.RESTR.norm>
0

>  <SCORE.SYSTEM>
0

>  <SCORE.SYSTEM.CONST>
0

>  <SCORE.SYSTEM.DIHEDRAL>
0

>  <SCORE.SYSTEM.SOLV>
0

>  <SCORE.SYSTEM.norm>
0

>  <SCORE.heavy>
13

>  <SCORE.norm>
-1.68458

>  <RMSD>
4.298

$$$$
ligand
 OpenBabel11021811473D
libRbt.so/2013.1/901 2013/11/27
 13 14  0  0  0  0  0  0  0  0999 V2000
   37.9845   34.0814   27.0475 N   0  0  0  0  0  0  0  0  0  0  0  0
   37.4597   33.0678   28.1465 C   0  0  0  0  0  0  0  0  0  0  0  0
   38.1709   32.9242   29.3218 N   0  0  0  0  0  0  0  0  0  0  0  0
   36.4071   32.4692   27.7760 N   0  0  0  0  0  0  0  0  0  0  0  0
   35.6718   32.5752   26.6524 C   0  0  0  0  0  0  0  0  0  0  0  0
   36.0409   33.4206   25.6702 C   0  0  0  0  0  0  0  0  0  0  0  0
   37.3586   34.2630   25.8917 C   0  0  0  0  0  0  0  0  0  0  0  0
   37.6719   35.0072   25.0190 O   0  0  0  0  0  0  0  0  0  0  0  0
   35.0868   33.3817   24.4620 C   0  0  0  0  0  0  0  0  0  0  0  0
   34.1441   32.4911   24.7901 C   0  0  0  0  0  0  0  0  0  0  0  0
   34.3035   31.8995   26.0143 N   0  0  0  0  0  0  0  0  0  0  0  0
   35.1995   34.1935   23.2292 C   0  0  0  0  0  0  0  0  0  0  0  0
   35.3492   34.8336   22.2780 N   0  0  0  0  0  0  0  0  0  0  0  0
  1  2  1  0  0  0  0
  1  7  1  0  0  0  0
  2  3  1  0  0  0  0
  2  4  2  0  0  0  0
  4  5  1  0  0  0  0
  5  6  2  0  0  0  0
  5 11  1  0  0  0  0
  6  7  1  0  0  0  0
  6  9  1  0  0  0  0
  7  8  2  0  0  0  0
  9 10  2  0  0  0  0
  9 12  1  0  0  0  0
 10 11  1  0  0  0  0
 12 13  3  0  0  0  0
M  END
>  <CHROM.1>
36.26631845,33.45718129,25.88549497,-1.00891945,-0.57803473,-1.05012084

>  <Name>
ligand

>  <RI>
0

>  <Rbt.Current_Directory>
/home/itssahil/PROJECTS/Mol_Feturizer/New_Systems/rnas/3GCA

>  <Rbt.Executable>
rbdock ($Id: //depot/dev/client3/rdock/2013.1/src/exe/rbdock.cxx#4 $)

>  <Rbt.Library>
libRbt.so (2013.1, Build901 2013/11/27)

>  <Rbt.Parameter_File>
/export/apps/rDock/src/rDock_2013.1_src/data/scripts/dock_solv.prm

>  <Rbt.Receptor>
prm/blind_docking_100.prm

>  <SCORE>
-18.6532

>  <SCORE.INTER>
-18.6567

>  <SCORE.INTER.CONST>
1

>  <SCORE.INTER.POLAR>
0

>  <SCORE.INTER.ROT>
0

>  <SCORE.INTER.SOLV>
17.8753

>  <SCORE.INTER.VDW>
-21.9962

>  <SCORE.INTER.norm>
-1.43513

>  <SCORE.INTRA>
0

>  <SCORE.INTRA.DIHEDRAL>
0

>  <SCORE.INTRA.DIHEDRAL.0>
0

>  <SCORE.INTRA.POLAR>
0

>  <SCORE.INTRA.POLAR.0>
0

>  <SCORE.INTRA.REPUL>
0

>  <SCORE.INTRA.REPUL.0>
0

>  <SCORE.INTRA.SOLV>
0

>  <SCORE.INTRA.SOLV.lig_0>
-33.1994

>  <SCORE.INTRA.VDW>
0

>  <SCORE.INTRA.VDW.0>
0

>  <SCORE.INTRA.norm>
0

>  <SCORE.RESTR>
0.00343168

>  <SCORE.RESTR.CAVITY>
0.00343168

>  <SCORE.RESTR.norm>
0.000263975

>  <SCORE.SYSTEM>
0

>  <SCORE.SYSTEM.CONST>
0

>  <SCORE.SYSTEM.DIHEDRAL>
0

>  <SCORE.SYSTEM.SOLV>
0

>  <SCORE.SYSTEM.norm>
0

>  <SCORE.heavy>
13

>  <SCORE.norm>
-1.43486

>  <RMSD>
4.301

$$$$
ligand
 OpenBabel11021811473D
libRbt.so/2013.1/901 2013/11/27
 13 14  0  0  0  0  0  0  0  0999 V2000
   37.9810   34.0938   27.0615 N   0  0  0  0  0  0  0  0  0  0  0  0
   37.4557   33.0789   28.1589 C   0  0  0  0  0  0  0  0  0  0  0  0
   38.1639   32.9369   29.3362 N   0  0  0  0  0  0  0  0  0  0  0  0
   36.4056   32.4776   27.7854 N   0  0  0  0  0  0  0  0  0  0  0  0
   35.6732   32.5818   26.6598 C   0  0  0  0  0  0  0  0  0  0  0  0
   36.0430   33.4282   25.6787 C   0  0  0  0  0  0  0  0  0  0  0  0
   37.3579   34.2740   25.9039 C   0  0  0  0  0  0  0  0  0  0  0  0
   37.6718   35.0191   25.0322 O   0  0  0  0  0  0  0  0  0  0  0  0
   35.0923   33.3871   24.4678 C   0  0  0  0  0  0  0  0  0  0  0  0
   34.1510   32.4940   24.7931 C   0  0  0  0  0  0  0  0  0  0  0  0
   34.3085   31.9027   26.0177 N   0  0  0  0  0  0  0  0  0  0  0  0
   35.2065   34.1992   23.2354 C   0  0  0  0  0  0  0  0  0  0  0  0
   35.3573   34.8398   22.2846 N   0  0  0  0  0  0  0  0  0  0  0  0
  1  2  1  0  0  0  0
  1  7  1  0  0  0  0
  2  3  1  0  0  0  0
  2  4  2  0  0  0  0
  4  5  1  0  0  0  0
  5  6  2  0  0  0  0
  5 11  1  0  0  0  0
  6  7  1  0  0  0  0
  6  9  1  0  0  0  0
  7  8  2  0  0  0  0
  9 10  2  0  0  0  0
  9 12  1  0  0  0  0
 10 11  1  0  0  0  0
 12 13  3  0  0  0  0
M  END
>  <CHROM.1>
36.26768243,33.46539754,25.89457135,-1.01034606,-0.58163941,-1.05081090

>  <Name>
ligand

>  <RI>
0

>  <Rbt.Current_Directory>
/home/itssahil/PROJECTS/Mol_Feturizer/New_Systems/rnas/3GCA

>  <Rbt.Executable>
rbdock ($Id: //depot/dev/client3/rdock/2013.1/src/exe/rbdock.cxx#4 $)

>  <Rbt.Library>
libRbt.so (2013.1, Build901 2013/11/27)

>  <Rbt.Parameter_File>
/export/apps/rDock/src/rDock_2013.1_src/data/scripts/dock_solv.prm

>  <Rbt.Receptor>
prm/blind_docking_80.prm

>  <SCORE>
-18.6636

>  <SCORE.INTER>
-18.6682

>  <SCORE.INTER.CONST>
1

>  <SCORE.INTER.POLAR>
0

>  <SCORE.INTER.ROT>
0

>  <SCORE.INTER.SOLV>
17.9649

>  <SCORE.INTER.VDW>
-22.0338

>  <SCORE.INTER.norm>
-1.43602

>  <SCORE.INTRA>
0

>  <SCORE.INTRA.DIHEDRAL>
0

>  <SCORE.INTRA.DIHEDRAL.0>
0

>  <SCORE.INTRA.POLAR>
0

>  <SCORE.INTRA.POLAR.0>
0

>  <SCORE.INTRA.REPUL>
0

>  <SCORE.INTRA.REPUL.0>
0

>  <SCORE.INTRA.SOLV>
0

>  <SCORE.INTRA.SOLV.lig_0>
-33.1994

>  <SCORE.INTRA.VDW>
0

>  <SCORE.INTRA.VDW.0>
0

>  <SCORE.INTRA.norm>
0

>  <SCORE.RESTR>
0.00458795

>  <SCORE.RESTR.CAVITY>
0.00458795

>  <SCORE.RESTR.norm>
0.000352919

>  <SCORE.SYSTEM>
0

>  <SCORE.SYSTEM.CONST>
0

>  <SCORE.SYSTEM.DIHEDRAL>
0

>  <SCORE.SYSTEM.SOLV>
0

>  <SCORE.SYSTEM.norm>
0

>  <SCORE.heavy>
13

>  <SCORE.norm>
-1.43566

>  <RMSD>
4.303

$$$$
ligand
 OpenBabel11021811473D
libRbt.so/2013.1/901 2013/11/27
 13 14  0  0  0  0  0  0  0  0999 V2000
   38.0066   34.1104   27.0778 N   0  0  0  0  0  0  0  0  0  0  0  0
   37.4809   33.0970   28.1765 C   0  0  0  0  0  0  0  0  0  0  0  0
   38.1904   32.9544   29.3529 N   0  0  0  0  0  0  0  0  0  0  0  0
   36.4292   32.4975   27.8047 N   0  0  0  0  0  0  0  0  0  0  0  0
   35.6954   32.6025   26.6800 C   0  0  0  0  0  0  0  0  0  0  0  0
   36.0654   33.4476   25.6980 C   0  0  0  0  0  0  0  0  0  0  0  0
   37.3823   34.2910   25.9209 C   0  0  0  0  0  0  0  0  0  0  0  0
   37.6963   35.0350   25.0484 O   0  0  0  0  0  0  0  0  0  0  0  0
   35.1131   33.4075   24.4884 C   0  0  0  0  0  0  0  0  0  0  0  0
   34.1705   32.5164   24.8155 C   0  0  0  0  0  0  0  0  0  0  0  0
   34.3286   31.9255   26.0402 N   0  0  0  0  0  0  0  0  0  0  0  0
   35.2271   34.2188   23.2553 C   0  0  0  0  0  0  0  0  0  0  0  0
   35.3778   34.8585   22.3040 N   0  0  0  0  0  0  0  0  0  0  0  0
  1  2  1  0  0  0  0
  1  7  1  0  0  0  0
  2  3  1  0  0  0  0
  2  4  2  0  0  0  0
  4  5  1  0  0  0  0
  5  6  2  0  0  0  0
  5 11  1  0  0  0  0
  6  7  1  0  0  0  0
  6  9  1  0  0  0  0
  7  8  2  0  0  0  0
  9 10  2  0  0  0  0
  9 12  1  0  0  0  0
 10 11  1  0  0  0  0
 12 13  3  0  0  0  0
M  END
>  <CHROM.1>
36.29052506,33.48449629,25.91353528,-1.01005254,-0.57934097,-1.05122901

>  <Name>
ligand

>  <RI>
0

>  <Rbt.Current_Directory>
/home/itssahil/PROJECTS/Mol_Feturizer/New_Systems/rnas/3GCA

>  <Rbt.Executable>
rbdock ($Id: //depot/dev/client3/rdock/2013.1/src/exe/rbdock.cxx#4 $)

>  <Rbt.Library>
libRbt.so (2013.1, Build901 2013/11/27)

>  <Rbt.Parameter_File>
/export/apps/rDock/src/rDock_2013.1_src/data/scripts/dock_solv.prm

>  <Rbt.Receptor>
prm/blind_docking_80.prm

>  <SCORE>
-18.7075

>  <SCORE.INTER>
-18.7137

>  <SCORE.INTER.CONST>
1

>  <SCORE.INTER.POLAR>
0

>  <SCORE.INTER.ROT>
0

>  <SCORE.INTER.SOLV>
17.9026

>  <SCORE.INTER.VDW>
-22.0433

>  <SCORE.INTER.norm>
-1.43952

>  <SCORE.INTRA>
0

>  <SCORE.INTRA.DIHEDRAL>
0

>  <SCORE.INTRA.DIHEDRAL.0>
0

>  <SCORE.INTRA.POLAR>
0

>  <SCORE.INTRA.POLAR.0>
0

>  <SCORE.INTRA.REPUL>
0

>  <SCORE.INTRA.REPUL.0>
0

>  <SCORE.INTRA.SOLV>
0

>  <SCORE.INTRA.SOLV.lig_0>
-33.1994

>  <SCORE.INTRA.VDW>
0

>  <SCORE.INTRA.VDW.0>
0

>  <SCORE.INTRA.norm>
0

>  <SCORE.RESTR>
0.00617468

>  <SCORE.RESTR.CAVITY>
0.00617468

>  <SCORE.RESTR.norm>
0.000474976

>  <SCORE.SYSTEM>
0

>  <SCORE.SYSTEM.CONST>
0

>  <SCORE.SYSTEM.DIHEDRAL>
0

>  <SCORE.SYSTEM.SOLV>
0

>  <SCORE.SYSTEM.norm>
0

>  <SCORE.heavy>
13

>  <SCORE.norm>
-1.43904

>  <RMSD>
4.312

$$$$
ligand
 OpenBabel11021811473D
libRbt.so/2013.1/901 2013/11/27
 13 14  0  0  0  0  0  0  0  0999 V2000
   38.0159   34.1063   27.0580 N   0  0  0  0  0  0  0  0  0  0  0  0
   37.4898   33.1034   28.1660 C   0  0  0  0  0  0  0  0  0  0  0  0
   38.2047   32.9640   29.3395 N   0  0  0  0  0  0  0  0  0  0  0  0
   36.4325   32.5080   27.8037 N   0  0  0  0  0  0  0  0  0  0  0  0
   35.6934   32.6102   26.6822 C   0  0  0  0  0  0  0  0  0  0  0  0
   36.0634   33.4467   25.6927 C   0  0  0  0  0  0  0  0  0  0  0  0
   37.3866   34.2833   25.9032 C   0  0  0  0  0  0  0  0  0  0  0  0
   37.7006   35.0197   25.0242 O   0  0  0  0  0  0  0  0  0  0  0  0
   35.1044   33.4046   24.4885 C   0  0  0  0  0  0  0  0  0  0  0  0
   34.1581   32.5215   24.8264 C   0  0  0  0  0  0  0  0  0  0  0  0
   34.3191   31.9376   26.0541 N   0  0  0  0  0  0  0  0  0  0  0  0
   35.2169   34.2071   23.2496 C   0  0  0  0  0  0  0  0  0  0  0  0
   35.3665   34.8397   22.2934 N   0  0  0  0  0  0  0  0  0  0  0  0
  1  2  1  0  0  0  0
  1  7  1  0  0  0  0
  2  3  1  0  0  0  0
  2  4  2  0  0  0  0
  4  5  1  0  0  0  0
  5  6  2  0  0  0  0
  5 11  1  0  0  0  0
  6  7  1  0  0  0  0
  6  9  1  0  0  0  0
  7  8  2  0  0  0  0
  9 10  2  0  0  0  0
  9 12  1  0  0  0  0
 10 11  1  0  0  0  0
 12 13  3  0  0  0  0
M  END
>  <CHROM.1>
36.28987340,33.48354095,25.90686307,-1.00820649,-0.57135155,-1.05672807

>  <Name>
ligand

>  <RI>
0

>  <Rbt.Current_Directory>
/home/itssahil/PROJECTS/Mol_Feturizer/New_Systems/rnas/3GCA

>  <Rbt.Executable>
rbdock ($Id: //depot/dev/client3/rdock/2013.1/src/exe/rbdock.cxx#4 $)

>  <Rbt.Library>
libRbt.so (2013.1, Build901 2013/11/27)

>  <Rbt.Parameter_File>
/export/apps/rDock/src/rDock_2013.1_src/data/scripts/dock_solv.prm

>  <Rbt.Receptor>
prm/blind_docking_80.prm

>  <SCORE>
-18.7031

>  <SCORE.INTER>
-18.706

>  <SCORE.INTER.CONST>
1

>  <SCORE.INTER.POLAR>
0

>  <SCORE.INTER.ROT>
0

>  <SCORE.INTER.SOLV>
17.8223

>  <SCORE.INTER.VDW>
-22.0114

>  <SCORE.INTER.norm>
-1.43892

>  <SCORE.INTRA>
0

>  <SCORE.INTRA.DIHEDRAL>
0

>  <SCORE.INTRA.DIHEDRAL.0>
0

>  <SCORE.INTRA.POLAR>
0

>  <SCORE.INTRA.POLAR.0>
0

>  <SCORE.INTRA.REPUL>
0

>  <SCORE.INTRA.REPUL.0>
0

>  <SCORE.INTRA.SOLV>
0

>  <SCORE.INTRA.SOLV.lig_0>
-33.1994

>  <SCORE.INTRA.VDW>
0

>  <SCORE.INTRA.VDW.0>
0

>  <SCORE.INTRA.norm>
0

>  <SCORE.RESTR>
0.00292195

>  <SCORE.RESTR.CAVITY>
0.00292195

>  <SCORE.RESTR.norm>
0.000224766

>  <SCORE.SYSTEM>
0

>  <SCORE.SYSTEM.CONST>
0

>  <SCORE.SYSTEM.DIHEDRAL>
0

>  <SCORE.SYSTEM.SOLV>
0

>  <SCORE.SYSTEM.norm>
0

>  <SCORE.heavy>
13

>  <SCORE.norm>
-1.4387

>  <RMSD>
4.313

$$$$
ligand
 OpenBabel11021811473D
libRbt.so/2013.1/901 2013/11/27
 13 14  0  0  0  0  0  0  0  0999 V2000
   37.6802   36.5514   25.1350 N   0  0  0  0  0  0  0  0  0  0  0  0
   36.9247   37.3076   23.9655 C   0  0  0  0  0  0  0  0  0  0  0  0
   37.3126   38.5913   23.6352 N   0  0  0  0  0  0  0  0  0  0  0  0
   35.9944   36.6057   23.4698 N   0  0  0  0  0  0  0  0  0  0  0  0
   35.5804   35.3540   23.7457 C   0  0  0  0  0  0  0  0  0  0  0  0
   36.1741   34.6358   24.7190 C   0  0  0  0  0  0  0  0  0  0  0  0
   37.3550   35.3217   25.5128 C   0  0  0  0  0  0  0  0  0  0  0  0
   37.8724   34.6766   26.3670 O   0  0  0  0  0  0  0  0  0  0  0  0
   35.5457   33.2411   24.8968 C   0  0  0  0  0  0  0  0  0  0  0  0
   34.5747   33.1761   23.9789 C   0  0  0  0  0  0  0  0  0  0  0  0
   34.4209   34.3010   23.2141 N   0  0  0  0  0  0  0  0  0  0  0  0
   35.9704   32.2050   25.8650 C   0  0  0  0  0  0  0  0  0  0  0  0
   36.3270   31.4415   26.6568 N   0  0  0  0  0  0  0  0  0  0  0  0
  1  2  1  0  0  0  0
  1  7  1  0  0  0  0
  2  3  1  0  0  0  0
  2  4  2  0  0  0  0
  4  5  1  0  0  0  0
  5  6  2  0  0  0  0
  5 11  1  0  0  0  0
  6  7  1  0  0  0  0
  6  9  1  0  0  0  0
  7  8  2  0  0  0  0
  9 10  2  0  0  0  0
  9 12  1  0  0  0  0
 10 11  1  0  0  0  0
 12 13  3  0  0  0  0
M  END
>  <CHROM.1>
36.32780650,34.90930878,24.72715421,-1.28894208,0.70589052,2.63428841

>  <Name>
ligand

>  <RI>
0

>  <Rbt.Current_Directory>
/home/itssahil/PROJECTS/Mol_Feturizer/New_Systems/rnas/3GCA

>  <Rbt.Executable>
rbdock ($Id: //depot/dev/client3/rdock/2013.1/src/exe/rbdock.cxx#4 $)

>  <Rbt.Library>
libRbt.so (2013.1, Build901 2013/11/27)

>  <Rbt.Parameter_File>
/export/apps/rDock/src/rDock_2013.1_src/data/scripts/dock_solv.prm

>  <Rbt.Receptor>
prm/blind_docking_100.prm

>  <SCORE>
-18.1833

>  <SCORE.INTER>
-18.1833

>  <SCORE.INTER.CONST>
1

>  <SCORE.INTER.POLAR>
0

>  <SCORE.INTER.ROT>
0

>  <SCORE.INTER.SOLV>
9.20997

>  <SCORE.INTER.VDW>
-18.7922

>  <SCORE.INTER.norm>
-1.39871

>  <SCORE.INTRA>
0

>  <SCORE.INTRA.DIHEDRAL>
0

>  <SCORE.INTRA.DIHEDRAL.0>
0

>  <SCORE.INTRA.POLAR>
0

>  <SCORE.INTRA.POLAR.0>
0

>  <SCORE.INTRA.REPUL>
0

>  <SCORE.INTRA.REPUL.0>
0

>  <SCORE.INTRA.SOLV>
0

>  <SCORE.INTRA.SOLV.lig_0>
-33.1994

>  <SCORE.INTRA.VDW>
0

>  <SCORE.INTRA.VDW.0>
0

>  <SCORE.INTRA.norm>
0

>  <SCORE.RESTR>
0

>  <SCORE.RESTR.CAVITY>
0

>  <SCORE.RESTR.norm>
0

>  <SCORE.SYSTEM>
0

>  <SCORE.SYSTEM.CONST>
0

>  <SCORE.SYSTEM.DIHEDRAL>
0

>  <SCORE.SYSTEM.SOLV>
0

>  <SCORE.SYSTEM.norm>
0

>  <SCORE.heavy>
13

>  <SCORE.norm>
-1.39871

>  <RMSD>
4.422

$$$$
ligand
 OpenBabel11021811473D
libRbt.so/2013.1/901 2013/11/27
 13 14  0  0  0  0  0  0  0  0999 V2000
   37.7381   36.5526   25.1602 N   0  0  0  0  0  0  0  0  0  0  0  0
   36.9859   37.3260   23.9999 C   0  0  0  0  0  0  0  0  0  0  0  0
   37.3880   38.6070   23.6760 N   0  0  0  0  0  0  0  0  0  0  0  0
   36.0444   36.6391   23.5044 N   0  0  0  0  0  0  0  0  0  0  0  0
   35.6162   35.3908   23.7742 C   0  0  0  0  0  0  0  0  0  0  0  0
   36.2061   34.6587   24.7395 C   0  0  0  0  0  0  0  0  0  0  0  0
   37.3995   35.3245   25.5315 C   0  0  0  0  0  0  0  0  0  0  0  0
   37.9134   34.6672   26.3786 O   0  0  0  0  0  0  0  0  0  0  0  0
   35.5613   33.2707   24.9113 C   0  0  0  0  0  0  0  0  0  0  0  0
   34.5847   33.2240   23.9983 C   0  0  0  0  0  0  0  0  0  0  0  0
   34.4409   34.3559   23.2418 N   0  0  0  0  0  0  0  0  0  0  0  0
   35.9781   32.2229   25.8703 C   0  0  0  0  0  0  0  0  0  0  0  0
   36.3293   31.4497   26.6551 N   0  0  0  0  0  0  0  0  0  0  0  0
  1  2  1  0  0  0  0
  1  7  1  0  0  0  0
  2  3  1  0  0  0  0
  2  4  2  0  0  0  0
  4  5  1  0  0  0  0
  5  6  2  0  0  0  0
  5 11  1  0  0  0  0
  6  7  1  0  0  0  0
  6  9  1  0  0  0  0
  7  8  2  0  0  0  0
  9 10  2  0  0  0  0
  9 12  1  0  0  0  0
 10 11  1  0  0  0  0
 12 13  3  0  0  0  0
M  END
>  <CHROM.1>
36.36319311,34.93019173,24.74864151,-1.27809319,0.69519728,2.63400852

>  <Name>
ligand

>  <RI>
0

>  <Rbt.Current_Directory>
/home/itssahil/PROJECTS/Mol_Feturizer/New_Systems/rnas/3GCA

>  <Rbt.Executable>
rbdock ($Id: //depot/dev/client3/rdock/2013.1/src/exe/rbdock.cxx#4 $)

>  <Rbt.Library>
libRbt.so (2013.1, Build901 2013/11/27)

>  <Rbt.Parameter_File>
/export/apps/rDock/src/rDock_2013.1_src/data/scripts/dock_solv.prm

>  <Rbt.Receptor>
prm/blind_docking_100.prm

>  <SCORE>
-18.1907

>  <SCORE.INTER>
-18.1907

>  <SCORE.INTER.CONST>
1

>  <SCORE.INTER.POLAR>
0

>  <SCORE.INTER.ROT>
0

>  <SCORE.INTER.SOLV>
9.07984

>  <SCORE.INTER.VDW>
-18.7538

>  <SCORE.INTER.norm>
-1.39929

>  <SCORE.INTRA>
0

>  <SCORE.INTRA.DIHEDRAL>
0

>  <SCORE.INTRA.DIHEDRAL.0>
0

>  <SCORE.INTRA.POLAR>
0

>  <SCORE.INTRA.POLAR.0>
0

>  <SCORE.INTRA.REPUL>
0

>  <SCORE.INTRA.REPUL.0>
0

>  <SCORE.INTRA.SOLV>
0

>  <SCORE.INTRA.SOLV.lig_0>
-33.1994

>  <SCORE.INTRA.VDW>
0

>  <SCORE.INTRA.VDW.0>
0

>  <SCORE.INTRA.norm>
0

>  <SCORE.RESTR>
0

>  <SCORE.RESTR.CAVITY>
0

>  <SCORE.RESTR.norm>
0

>  <SCORE.SYSTEM>
0

>  <SCORE.SYSTEM.CONST>
0

>  <SCORE.SYSTEM.DIHEDRAL>
0

>  <SCORE.SYSTEM.SOLV>
0

>  <SCORE.SYSTEM.norm>
0

>  <SCORE.heavy>
13

>  <SCORE.norm>
-1.39929

>  <RMSD>
4.448

$$$$
ligand
 OpenBabel11021811473D
libRbt.so/2013.1/901 2013/11/27
 13 14  0  0  0  0  0  0  0  0999 V2000
   35.7222   32.1848   26.9117 N   0  0  0  0  0  0  0  0  0  0  0  0
   37.0063   33.1123   26.9439 C   0  0  0  0  0  0  0  0  0  0  0  0
   37.8816   33.0107   28.0074 N   0  0  0  0  0  0  0  0  0  0  0  0
   37.0570   33.8876   25.9438 N   0  0  0  0  0  0  0  0  0  0  0  0
   36.2412   34.0229   24.8806 C   0  0  0  0  0  0  0  0  0  0  0  0
   35.1316   33.2666   24.7688 C   0  0  0  0  0  0  0  0  0  0  0  0
   34.8336   32.2353   25.9275 C   0  0  0  0  0  0  0  0  0  0  0  0
   33.8532   31.5721   25.8157 O   0  0  0  0  0  0  0  0  0  0  0  0
   34.3207   33.5842   23.4986 C   0  0  0  0  0  0  0  0  0  0  0  0
   35.0122   34.5437   22.8737 C   0  0  0  0  0  0  0  0  0  0  0  0
   36.1524   34.9496   23.5134 N   0  0  0  0  0  0  0  0  0  0  0  0
   33.0644   32.9267   23.0732 C   0  0  0  0  0  0  0  0  0  0  0  0
   32.0730   32.3975   22.8011 N   0  0  0  0  0  0  0  0  0  0  0  0
  1  2  1  0  0  0  0
  1  7  1  0  0  0  0
  2  3  1  0  0  0  0
  2  4  2  0  0  0  0
  4  5  1  0  0  0  0
  5  6  2  0  0  0  0
  5 11  1  0  0  0  0
  6  7  1  0  0  0  0
  6  9  1  0  0  0  0
  7  8  2  0  0  0  0
  9 10  2  0  0  0  0
  9 12  1  0  0  0  0
 10 11  1  0  0  0  0
 12 13  3  0  0  0  0
M  END
>  <CHROM.1>
35.25518315,33.17351622,25.04180099,0.63423386,0.54711475,2.19268183

>  <Name>
ligand

>  <RI>
0

>  <Rbt.Current_Directory>
/home/itssahil/PROJECTS/Mol_Feturizer/New_Systems/rnas/3GCA

>  <Rbt.Executable>
rbdock ($Id: //depot/dev/client3/rdock/2013.1/src/exe/rbdock.cxx#4 $)

>  <Rbt.Library>
libRbt.so (2013.1, Build901 2013/11/27)

>  <Rbt.Parameter_File>
/export/apps/rDock/src/rDock_2013.1_src/data/scripts/dock_solv.prm

>  <Rbt.Receptor>
prm/pocket_docking_2.prm

>  <SCORE>
-21.9381

>  <SCORE.INTER>
-22.7248

>  <SCORE.INTER.CONST>
1

>  <SCORE.INTER.POLAR>
0

>  <SCORE.INTER.ROT>
0

>  <SCORE.INTER.SOLV>
14.9274

>  <SCORE.INTER.VDW>
-23.7256

>  <SCORE.INTER.norm>
-1.74806

>  <SCORE.INTRA>
0

>  <SCORE.INTRA.DIHEDRAL>
0

>  <SCORE.INTRA.DIHEDRAL.0>
0

>  <SCORE.INTRA.POLAR>
0

>  <SCORE.INTRA.POLAR.0>
0

>  <SCORE.INTRA.REPUL>
0

>  <SCORE.INTRA.REPUL.0>
0

>  <SCORE.INTRA.SOLV>
0

>  <SCORE.INTRA.SOLV.lig_0>
-33.1994

>  <SCORE.INTRA.VDW>
0

>  <SCORE.INTRA.VDW.0>
0

>  <SCORE.INTRA.norm>
0

>  <SCORE.RESTR>
0.786648

>  <SCORE.RESTR.CAVITY>
0.786648

>  <SCORE.RESTR.norm>
0.0605114

>  <SCORE.SYSTEM>
0

>  <SCORE.SYSTEM.CONST>
0

>  <SCORE.SYSTEM.DIHEDRAL>
0

>  <SCORE.SYSTEM.SOLV>
0

>  <SCORE.SYSTEM.norm>
0

>  <SCORE.heavy>
13

>  <SCORE.norm>
-1.68755

>  <RMSD>
4.881

$$$$
ligand
 OpenBabel11021811473D
libRbt.so/2013.1/901 2013/11/27
 13 14  0  0  0  0  0  0  0  0999 V2000
   35.7175   32.2532   26.9213 N   0  0  0  0  0  0  0  0  0  0  0  0
   37.0028   33.1795   26.9393 C   0  0  0  0  0  0  0  0  0  0  0  0
   37.8759   33.0959   28.0063 N   0  0  0  0  0  0  0  0  0  0  0  0
   37.0565   33.9365   25.9255 N   0  0  0  0  0  0  0  0  0  0  0  0
   36.2429   34.0537   24.8584 C   0  0  0  0  0  0  0  0  0  0  0  0
   35.1325   33.2970   24.7581 C   0  0  0  0  0  0  0  0  0  0  0  0
   34.8309   32.2871   25.9346 C   0  0  0  0  0  0  0  0  0  0  0  0
   33.8498   31.6233   25.8329 O   0  0  0  0  0  0  0  0  0  0  0  0
   34.3245   33.5926   23.4808 C   0  0  0  0  0  0  0  0  0  0  0  0
   35.0186   34.5398   22.8400 C   0  0  0  0  0  0  0  0  0  0  0  0
   36.1581   34.9557   23.4746 N   0  0  0  0  0  0  0  0  0  0  0  0
   33.0682   32.9292   23.0648 C   0  0  0  0  0  0  0  0  0  0  0  0
   32.0766   32.3965   22.8004 N   0  0  0  0  0  0  0  0  0  0  0  0
  1  2  1  0  0  0  0
  1  7  1  0  0  0  0
  2  3  1  0  0  0  0
  2  4  2  0  0  0  0
  4  5  1  0  0  0  0
  5  6  2  0  0  0  0
  5 11  1  0  0  0  0
  6  7  1  0  0  0  0
  6  9  1  0  0  0  0
  7  8  2  0  0  0  0
  9 10  2  0  0  0  0
  9 12  1  0  0  0  0
 10 11  1  0  0  0  0
 12 13  3  0  0  0  0
M  END
>  <CHROM.1>
35.25546537,33.20863653,25.03299199,0.63700481,0.54715559,2.17319958

>  <Name>
ligand

>  <RI>
0

>  <Rbt.Current_Directory>
/home/itssahil/PROJECTS/Mol_Feturizer/New_Systems/rnas/3GCA

>  <Rbt.Executable>
rbdock ($Id: //depot/dev/client3/rdock/2013.1/src/exe/rbdock.cxx#4 $)

>  <Rbt.Library>
libRbt.so (2013.1, Build901 2013/11/27)

>  <Rbt.Parameter_File>
/export/apps/rDock/src/rDock_2013.1_src/data/scripts/dock_solv.prm

>  <Rbt.Receptor>
prm/pocket_docking_2.prm

>  <SCORE>
-22.042

>  <SCORE.INTER>
-22.8465

>  <SCORE.INTER.CONST>
1

>  <SCORE.INTER.POLAR>
0

>  <SCORE.INTER.ROT>
0

>  <SCORE.INTER.SOLV>
15.0618

>  <SCORE.INTER.VDW>
-23.8516

>  <SCORE.INTER.norm>
-1.75742

>  <SCORE.INTRA>
0

>  <SCORE.INTRA.DIHEDRAL>
0

>  <SCORE.INTRA.DIHEDRAL.0>
0

>  <SCORE.INTRA.POLAR>
0

>  <SCORE.INTRA.POLAR.0>
0

>  <SCORE.INTRA.REPUL>
0

>  <SCORE.INTRA.REPUL.0>
0

>  <SCORE.INTRA.SOLV>
0

>  <SCORE.INTRA.SOLV.lig_0>
-33.1994

>  <SCORE.INTRA.VDW>
0

>  <SCORE.INTRA.VDW.0>
0

>  <SCORE.INTRA.norm>
0

>  <SCORE.RESTR>
0.804474

>  <SCORE.RESTR.CAVITY>
0.804474

>  <SCORE.RESTR.norm>
0.0618827

>  <SCORE.SYSTEM>
0

>  <SCORE.SYSTEM.CONST>
0

>  <SCORE.SYSTEM.DIHEDRAL>
0

>  <SCORE.SYSTEM.SOLV>
0

>  <SCORE.SYSTEM.norm>
0

>  <SCORE.heavy>
13

>  <SCORE.norm>
-1.69554

>  <RMSD>
4.882

$$$$
ligand
 OpenBabel11021811473D
libRbt.so/2013.1/901 2013/11/27
 13 14  0  0  0  0  0  0  0  0999 V2000
   35.7161   32.2586   26.9215 N   0  0  0  0  0  0  0  0  0  0  0  0
   37.0005   33.1862   26.9390 C   0  0  0  0  0  0  0  0  0  0  0  0
   37.8729   33.1051   28.0066 N   0  0  0  0  0  0  0  0  0  0  0  0
   37.0540   33.9419   25.9241 N   0  0  0  0  0  0  0  0  0  0  0  0
   36.2410   34.0567   24.8563 C   0  0  0  0  0  0  0  0  0  0  0  0
   35.1314   33.2987   24.7564 C   0  0  0  0  0  0  0  0  0  0  0  0
   34.8301   32.2902   25.9342 C   0  0  0  0  0  0  0  0  0  0  0  0
   33.8498   31.6252   25.8327 O   0  0  0  0  0  0  0  0  0  0  0  0
   34.3240   33.5916   23.4782 C   0  0  0  0  0  0  0  0  0  0  0  0
   35.0175   34.5386   22.8365 C   0  0  0  0  0  0  0  0  0  0  0  0
   36.1561   34.9566   23.4712 N   0  0  0  0  0  0  0  0  0  0  0  0
   33.0686   32.9263   23.0623 C   0  0  0  0  0  0  0  0  0  0  0  0
   32.0778   32.3922   22.7980 N   0  0  0  0  0  0  0  0  0  0  0  0
  1  2  1  0  0  0  0
  1  7  1  0  0  0  0
  2  3  1  0  0  0  0
  2  4  2  0  0  0  0
  4  5  1  0  0  0  0
  5  6  2  0  0  0  0
  5 11  1  0  0  0  0
  6  7  1  0  0  0  0
  6  9  1  0  0  0  0
  7  8  2  0  0  0  0
  9 10  2  0  0  0  0
  9 12  1  0  0  0  0
 10 11  1  0  0  0  0
 12 13  3  0  0  0  0
M  END
>  <CHROM.1>
35.25432874,33.21084442,25.03147999,0.63694309,0.54837423,2.17181365

>  <Name>
ligand

>  <RI>
0

>  <Rbt.Current_Directory>
/home/itssahil/PROJECTS/Mol_Feturizer/New_Systems/rnas/3GCA

>  <Rbt.Executable>
rbdock ($Id: //depot/dev/client3/rdock/2013.1/src/exe/rbdock.cxx#4 $)

>  <Rbt.Library>
libRbt.so (2013.1, Build901 2013/11/27)

>  <Rbt.Parameter_File>
/export/apps/rDock/src/rDock_2013.1_src/data/scripts/dock_solv.prm

>  <Rbt.Receptor>
prm/pocket_docking_2.prm

>  <SCORE>
-22.0445

>  <SCORE.INTER>
-22.8488

>  <SCORE.INTER.CONST>
1

>  <SCORE.INTER.POLAR>
0

>  <SCORE.INTER.ROT>
0

>  <SCORE.INTER.SOLV>
15.0891

>  <SCORE.INTER.VDW>
-23.8622

>  <SCORE.INTER.norm>
-1.7576

>  <SCORE.INTRA>
0

>  <SCORE.INTRA.DIHEDRAL>
0

>  <SCORE.INTRA.DIHEDRAL.0>
0

>  <SCORE.INTRA.POLAR>
0

>  <SCORE.INTRA.POLAR.0>
0

>  <SCORE.INTRA.REPUL>
0

>  <SCORE.INTRA.REPUL.0>
0

>  <SCORE.INTRA.SOLV>
0

>  <SCORE.INTRA.SOLV.lig_0>
-33.1994

>  <SCORE.INTRA.VDW>
0

>  <SCORE.INTRA.VDW.0>
0

>  <SCORE.INTRA.norm>
0

>  <SCORE.RESTR>
0.804292

>  <SCORE.RESTR.CAVITY>
0.804292

>  <SCORE.RESTR.norm>
0.0618686

>  <SCORE.SYSTEM>
0

>  <SCORE.SYSTEM.CONST>
0

>  <SCORE.SYSTEM.DIHEDRAL>
0

>  <SCORE.SYSTEM.SOLV>
0

>  <SCORE.SYSTEM.norm>
0

>  <SCORE.heavy>
13

>  <SCORE.norm>
-1.69573

>  <RMSD>
4.883

$$$$
ligand
 OpenBabel11021811473D
libRbt.so/2013.1/901 2013/11/27
 13 14  0  0  0  0  0  0  0  0999 V2000
   35.7177   32.2574   26.9181 N   0  0  0  0  0  0  0  0  0  0  0  0
   37.0026   33.1843   26.9338 C   0  0  0  0  0  0  0  0  0  0  0  0
   37.8765   33.1026   28.0003 N   0  0  0  0  0  0  0  0  0  0  0  0
   37.0552   33.9399   25.9189 N   0  0  0  0  0  0  0  0  0  0  0  0
   36.2409   34.0552   24.8522 C   0  0  0  0  0  0  0  0  0  0  0  0
   35.1307   33.2978   24.7537 C   0  0  0  0  0  0  0  0  0  0  0  0
   34.8304   32.2895   25.9319 C   0  0  0  0  0  0  0  0  0  0  0  0
   33.8496   31.6251   25.8318 O   0  0  0  0  0  0  0  0  0  0  0  0
   34.3217   33.5913   23.4766 C   0  0  0  0  0  0  0  0  0  0  0  0
   35.0149   34.5379   22.8340 C   0  0  0  0  0  0  0  0  0  0  0  0
   36.1546   34.9552   23.4672 N   0  0  0  0  0  0  0  0  0  0  0  0
   33.0654   32.9267   23.0624 C   0  0  0  0  0  0  0  0  0  0  0  0
   32.0739   32.3932   22.7994 N   0  0  0  0  0  0  0  0  0  0  0  0
  1  2  1  0  0  0  0
  1  7  1  0  0  0  0
  2  3  1  0  0  0  0
  2  4  2  0  0  0  0
  4  5  1  0  0  0  0
  5  6  2  0  0  0  0
  5 11  1  0  0  0  0
  6  7  1  0  0  0  0
  6  9  1  0  0  0  0
  7  8  2  0  0  0  0
  9 10  2  0  0  0  0
  9 12  1  0  0  0  0
 10 11  1  0  0  0  0
 12 13  3  0  0  0  0
M  END
>  <CHROM.1>
35.25394674,33.20992988,25.02867858,0.63603058,0.54714150,2.17229684

>  <Name>
ligand

>  <RI>
0

>  <Rbt.Current_Directory>
/home/itssahil/PROJECTS/Mol_Feturizer/New_Systems/rnas/3GCA

>  <Rbt.Executable>
rbdock ($Id: //depot/dev/client3/rdock/2013.1/src/exe/rbdock.cxx#4 $)

>  <Rbt.Library>
libRbt.so (2013.1, Build901 2013/11/27)

>  <Rbt.Parameter_File>
/export/apps/rDock/src/rDock_2013.1_src/data/scripts/dock_solv.prm

>  <Rbt.Receptor>
prm/pocket_docking_2.prm

>  <SCORE>
-22.0469

>  <SCORE.INTER>
-22.8521

>  <SCORE.INTER.CONST>
1

>  <SCORE.INTER.POLAR>
0

>  <SCORE.INTER.ROT>
0

>  <SCORE.INTER.SOLV>
15.0489

>  <SCORE.INTER.VDW>
-23.8511

>  <SCORE.INTER.norm>
-1.75786

>  <SCORE.INTRA>
0

>  <SCORE.INTRA.DIHEDRAL>
0

>  <SCORE.INTRA.DIHEDRAL.0>
0

>  <SCORE.INTRA.POLAR>
0

>  <SCORE.INTRA.POLAR.0>
0

>  <SCORE.INTRA.REPUL>
0

>  <SCORE.INTRA.REPUL.0>
0

>  <SCORE.INTRA.SOLV>
0

>  <SCORE.INTRA.SOLV.lig_0>
-33.1994

>  <SCORE.INTRA.VDW>
0

>  <SCORE.INTRA.VDW.0>
0

>  <SCORE.INTRA.norm>
0

>  <SCORE.RESTR>
0.805293

>  <SCORE.RESTR.CAVITY>
0.805293

>  <SCORE.RESTR.norm>
0.0619456

>  <SCORE.SYSTEM>
0

>  <SCORE.SYSTEM.CONST>
0

>  <SCORE.SYSTEM.DIHEDRAL>
0

>  <SCORE.SYSTEM.SOLV>
0

>  <SCORE.SYSTEM.norm>
0

>  <SCORE.heavy>
13

>  <SCORE.norm>
-1.69591

>  <RMSD>
4.883

$$$$
ligand
 OpenBabel11021811473D
libRbt.so/2013.1/901 2013/11/27
 13 14  0  0  0  0  0  0  0  0999 V2000
   35.7207   32.2674   26.9284 N   0  0  0  0  0  0  0  0  0  0  0  0
   37.0035   33.1972   26.9424 C   0  0  0  0  0  0  0  0  0  0  0  0
   37.8763   33.1212   28.0101 N   0  0  0  0  0  0  0  0  0  0  0  0
   37.0556   33.9494   25.9249 N   0  0  0  0  0  0  0  0  0  0  0  0
   36.2422   34.0592   24.8569 C   0  0  0  0  0  0  0  0  0  0  0  0
   35.1338   33.2990   24.7598 C   0  0  0  0  0  0  0  0  0  0  0  0
   34.8344   32.2941   25.9411 C   0  0  0  0  0  0  0  0  0  0  0  0
   33.8552   31.6271   25.8422 O   0  0  0  0  0  0  0  0  0  0  0  0
   34.3256   33.5862   23.4808 C   0  0  0  0  0  0  0  0  0  0  0  0
   35.0174   34.5321   22.8356 C   0  0  0  0  0  0  0  0  0  0  0  0
   36.1555   34.9542   23.4686 N   0  0  0  0  0  0  0  0  0  0  0  0
   33.0713   32.9174   23.0674 C   0  0  0  0  0  0  0  0  0  0  0  0
   32.0813   32.3808   22.8052 N   0  0  0  0  0  0  0  0  0  0  0  0
  1  2  1  0  0  0  0
  1  7  1  0  0  0  0
  2  3  1  0  0  0  0
  2  4  2  0  0  0  0
  4  5  1  0  0  0  0
  5  6  2  0  0  0  0
  5 11  1  0  0  0  0
  6  7  1  0  0  0  0
  6  9  1  0  0  0  0
  7  8  2  0  0  0  0
  9 10  2  0  0  0  0
  9 12  1  0  0  0  0
 10 11  1  0  0  0  0
 12 13  3  0  0  0  0
M  END
>  <CHROM.1>
35.25693137,33.21235205,25.03516887,0.63564486,0.54962702,2.16903293

>  <Name>
ligand

>  <RI>
0

>  <Rbt.Current_Directory>
/home/itssahil/PROJECTS/Mol_Feturizer/New_Systems/rnas/3GCA

>  <Rbt.Executable>
rbdock ($Id: //depot/dev/client3/rdock/2013.1/src/exe/rbdock.cxx#4 $)

>  <Rbt.Library>
libRbt.so (2013.1, Build901 2013/11/27)

>  <Rbt.Parameter_File>
/export/apps/rDock/src/rDock_2013.1_src/data/scripts/dock_solv.prm

>  <Rbt.Receptor>
prm/pocket_docking_2.prm

>  <SCORE>
-22.0541

>  <SCORE.INTER>
-22.8671

>  <SCORE.INTER.CONST>
1

>  <SCORE.INTER.POLAR>
0

>  <SCORE.INTER.ROT>
0

>  <SCORE.INTER.SOLV>
15.1018

>  <SCORE.INTER.VDW>
-23.8787

>  <SCORE.INTER.norm>
-1.75901

>  <SCORE.INTRA>
0

>  <SCORE.INTRA.DIHEDRAL>
0

>  <SCORE.INTRA.DIHEDRAL.0>
0

>  <SCORE.INTRA.POLAR>
0

>  <SCORE.INTRA.POLAR.0>
0

>  <SCORE.INTRA.REPUL>
0

>  <SCORE.INTRA.REPUL.0>
0

>  <SCORE.INTRA.SOLV>
0

>  <SCORE.INTRA.SOLV.lig_0>
-33.1994

>  <SCORE.INTRA.VDW>
0

>  <SCORE.INTRA.VDW.0>
0

>  <SCORE.INTRA.norm>
0

>  <SCORE.RESTR>
0.812996

>  <SCORE.RESTR.CAVITY>
0.812996

>  <SCORE.RESTR.norm>
0.0625382

>  <SCORE.SYSTEM>
0

>  <SCORE.SYSTEM.CONST>
0

>  <SCORE.SYSTEM.DIHEDRAL>
0

>  <SCORE.SYSTEM.SOLV>
0

>  <SCORE.SYSTEM.norm>
0

>  <SCORE.heavy>
13

>  <SCORE.norm>
-1.69647

>  <RMSD>
4.884

$$$$
ligand
 OpenBabel11021811473D
libRbt.so/2013.1/901 2013/11/27
 13 14  0  0  0  0  0  0  0  0999 V2000
   35.7240   32.2626   26.9266 N   0  0  0  0  0  0  0  0  0  0  0  0
   37.0058   33.1938   26.9384 C   0  0  0  0  0  0  0  0  0  0  0  0
   37.8800   33.1196   28.0052 N   0  0  0  0  0  0  0  0  0  0  0  0
   37.0559   33.9453   25.9203 N   0  0  0  0  0  0  0  0  0  0  0  0
   36.2411   34.0533   24.8532 C   0  0  0  0  0  0  0  0  0  0  0  0
   35.1335   33.2918   24.7580 C   0  0  0  0  0  0  0  0  0  0  0  0
   34.8366   32.2875   25.9404 C   0  0  0  0  0  0  0  0  0  0  0  0
   33.8580   31.6194   25.8431 O   0  0  0  0  0  0  0  0  0  0  0  0
   34.3235   33.5771   23.4796 C   0  0  0  0  0  0  0  0  0  0  0  0
   35.0135   34.5233   22.8330 C   0  0  0  0  0  0  0  0  0  0  0  0
   36.1518   34.9472   23.4643 N   0  0  0  0  0  0  0  0  0  0  0  0
   33.0694   32.9066   23.0683 C   0  0  0  0  0  0  0  0  0  0  0  0
   32.0797   32.3687   22.8076 N   0  0  0  0  0  0  0  0  0  0  0  0
  1  2  1  0  0  0  0
  1  7  1  0  0  0  0
  2  3  1  0  0  0  0
  2  4  2  0  0  0  0
  4  5  1  0  0  0  0
  5  6  2  0  0  0  0
  5 11  1  0  0  0  0
  6  7  1  0  0  0  0
  6  9  1  0  0  0  0
  7  8  2  0  0  0  0
  9 10  2  0  0  0  0
  9 12  1  0  0  0  0
 10 11  1  0  0  0  0
 12 13  3  0  0  0  0
M  END
>  <CHROM.1>
35.25701843,33.20552228,25.03325794,0.63378165,0.54988428,2.16922510

>  <Name>
ligand

>  <RI>
0

>  <Rbt.Current_Directory>
/home/itssahil/PROJECTS/Mol_Feturizer/New_Systems/rnas/3GCA

>  <Rbt.Executable>
rbdock ($Id: //depot/dev/client3/rdock/2013.1/src/exe/rbdock.cxx#4 $)

>  <Rbt.Library>
libRbt.so (2013.1, Build901 2013/11/27)

>  <Rbt.Parameter_File>
/export/apps/rDock/src/rDock_2013.1_src/data/scripts/dock_solv.prm

>  <Rbt.Receptor>
prm/pocket_docking_2.prm

>  <SCORE>
-22.0569

>  <SCORE.INTER>
-22.8716

>  <SCORE.INTER.CONST>
1

>  <SCORE.INTER.POLAR>
0

>  <SCORE.INTER.ROT>
0

>  <SCORE.INTER.SOLV>
15.0662

>  <SCORE.INTER.VDW>
-23.8698

>  <SCORE.INTER.norm>
-1.75935

>  <SCORE.INTRA>
0

>  <SCORE.INTRA.DIHEDRAL>
0

>  <SCORE.INTRA.DIHEDRAL.0>
0

>  <SCORE.INTRA.POLAR>
0

>  <SCORE.INTRA.POLAR.0>
0

>  <SCORE.INTRA.REPUL>
0

>  <SCORE.INTRA.REPUL.0>
0

>  <SCORE.INTRA.SOLV>
0

>  <SCORE.INTRA.SOLV.lig_0>
-33.1994

>  <SCORE.INTRA.VDW>
0

>  <SCORE.INTRA.VDW.0>
0

>  <SCORE.INTRA.norm>
0

>  <SCORE.RESTR>
0.814718

>  <SCORE.RESTR.CAVITY>
0.814718

>  <SCORE.RESTR.norm>
0.0626706

>  <SCORE.SYSTEM>
0

>  <SCORE.SYSTEM.CONST>
0

>  <SCORE.SYSTEM.DIHEDRAL>
0

>  <SCORE.SYSTEM.SOLV>
0

>  <SCORE.SYSTEM.norm>
0

>  <SCORE.heavy>
13

>  <SCORE.norm>
-1.69668

>  <RMSD>
4.886

$$$$
ligand
 OpenBabel11021811473D
libRbt.so/2013.1/901 2013/11/27
 13 14  0  0  0  0  0  0  0  0999 V2000
   36.4227   32.0346   26.7655 N   0  0  0  0  0  0  0  0  0  0  0  0
   37.5780   33.1086   26.9143 C   0  0  0  0  0  0  0  0  0  0  0  0
   38.5228   32.9452   27.9085 N   0  0  0  0  0  0  0  0  0  0  0  0
   37.4682   34.0441   26.0679 N   0  0  0  0  0  0  0  0  0  0  0  0
   36.5781   34.2483   25.0777 C   0  0  0  0  0  0  0  0  0  0  0  0
   35.5689   33.3789   24.8747 C   0  0  0  0  0  0  0  0  0  0  0  0
   35.4762   32.1325   25.8407 C   0  0  0  0  0  0  0  0  0  0  0  0
   34.5831   31.3714   25.6493 O   0  0  0  0  0  0  0  0  0  0  0  0
   34.6478   33.7972   23.7136 C   0  0  0  0  0  0  0  0  0  0  0  0
   35.1721   34.9350   23.2445 C   0  0  0  0  0  0  0  0  0  0  0  0
   36.2885   35.3759   23.9028 N   0  0  0  0  0  0  0  0  0  0  0  0
   33.4617   33.0581   23.2253 C   0  0  0  0  0  0  0  0  0  0  0  0
   32.5308   32.4539   22.9008 N   0  0  0  0  0  0  0  0  0  0  0  0
  1  2  1  0  0  0  0
  1  7  1  0  0  0  0
  2  3  1  0  0  0  0
  2  4  2  0  0  0  0
  4  5  1  0  0  0  0
  5  6  2  0  0  0  0
  5 11  1  0  0  0  0
  6  7  1  0  0  0  0
  6  9  1  0  0  0  0
  7  8  2  0  0  0  0
  9 10  2  0  0  0  0
  9 12  1  0  0  0  0
 10 11  1  0  0  0  0
 12 13  3  0  0  0  0
M  END
>  <CHROM.1>
35.71993913,33.25778198,25.12173239,0.48240921,0.60986392,2.45326717

>  <Name>
ligand

>  <RI>
0

>  <Rbt.Current_Directory>
/home/itssahil/PROJECTS/Mol_Feturizer/New_Systems/rnas/3GCA

>  <Rbt.Executable>
rbdock ($Id: //depot/dev/client3/rdock/2013.1/src/exe/rbdock.cxx#4 $)

>  <Rbt.Library>
libRbt.so (2013.1, Build901 2013/11/27)

>  <Rbt.Parameter_File>
/export/apps/rDock/src/rDock_2013.1_src/data/scripts/dock_solv.prm

>  <Rbt.Receptor>
prm/pocket_docking_5.prm

>  <SCORE>
-24.0329

>  <SCORE.INTER>
-24.0329

>  <SCORE.INTER.CONST>
1

>  <SCORE.INTER.POLAR>
0

>  <SCORE.INTER.ROT>
0

>  <SCORE.INTER.SOLV>
11.4429

>  <SCORE.INTER.VDW>
-23.4362

>  <SCORE.INTER.norm>
-1.84868

>  <SCORE.INTRA>
0

>  <SCORE.INTRA.DIHEDRAL>
0

>  <SCORE.INTRA.DIHEDRAL.0>
0

>  <SCORE.INTRA.POLAR>
0

>  <SCORE.INTRA.POLAR.0>
0

>  <SCORE.INTRA.REPUL>
0

>  <SCORE.INTRA.REPUL.0>
0

>  <SCORE.INTRA.SOLV>
0

>  <SCORE.INTRA.SOLV.lig_0>
-33.1994

>  <SCORE.INTRA.VDW>
0

>  <SCORE.INTRA.VDW.0>
0

>  <SCORE.INTRA.norm>
0

>  <SCORE.RESTR>
0

>  <SCORE.RESTR.CAVITY>
0

>  <SCORE.RESTR.norm>
0

>  <SCORE.SYSTEM>
0

>  <SCORE.SYSTEM.CONST>
0

>  <SCORE.SYSTEM.DIHEDRAL>
0

>  <SCORE.SYSTEM.SOLV>
0

>  <SCORE.SYSTEM.norm>
0

>  <SCORE.heavy>
13

>  <SCORE.norm>
-1.84868

>  <RMSD>
4.889

$$$$
ligand
 OpenBabel11021811473D
libRbt.so/2013.1/901 2013/11/27
 13 14  0  0  0  0  0  0  0  0999 V2000
   36.3836   32.0941   26.7900 N   0  0  0  0  0  0  0  0  0  0  0  0
   37.5659   33.1424   26.9068 C   0  0  0  0  0  0  0  0  0  0  0  0
   38.4985   32.9934   27.9146 N   0  0  0  0  0  0  0  0  0  0  0  0
   37.4873   34.0467   26.0237 N   0  0  0  0  0  0  0  0  0  0  0  0
   36.6103   34.2353   25.0188 C   0  0  0  0  0  0  0  0  0  0  0  0
   35.5800   33.3853   24.8411 C   0  0  0  0  0  0  0  0  0  0  0  0
   35.4470   32.1806   25.8540 C   0  0  0  0  0  0  0  0  0  0  0  0
   34.5355   31.4362   25.6848 O   0  0  0  0  0  0  0  0  0  0  0  0
   34.6790   33.7819   23.6568 C   0  0  0  0  0  0  0  0  0  0  0  0
   35.2367   34.8864   23.1484 C   0  0  0  0  0  0  0  0  0  0  0  0
   36.3595   35.3233   23.7985 N   0  0  0  0  0  0  0  0  0  0  0  0
   33.4773   33.0557   23.1877 C   0  0  0  0  0  0  0  0  0  0  0  0
   32.5332   32.4639   22.8790 N   0  0  0  0  0  0  0  0  0  0  0  0
  1  2  1  0  0  0  0
  1  7  1  0  0  0  0
  2  3  1  0  0  0  0
  2  4  2  0  0  0  0
  4  5  1  0  0  0  0
  5  6  2  0  0  0  0
  5 11  1  0  0  0  0
  6  7  1  0  0  0  0
  6  9  1  0  0  0  0
  7  8  2  0  0  0  0
  9 10  2  0  0  0  0
  9 12  1  0  0  0  0
 10 11  1  0  0  0  0
 12 13  3  0  0  0  0
M  END
>  <CHROM.1>
35.72584426,33.27007686,25.09400764,0.51296376,0.59856377,2.39689086

>  <Name>
ligand

>  <RI>
0

>  <Rbt.Current_Directory>
/home/itssahil/PROJECTS/Mol_Feturizer/New_Systems/rnas/3GCA

>  <Rbt.Executable>
rbdock ($Id: //depot/dev/client3/rdock/2013.1/src/exe/rbdock.cxx#4 $)

>  <Rbt.Library>
libRbt.so (2013.1, Build901 2013/11/27)

>  <Rbt.Parameter_File>
/export/apps/rDock/src/rDock_2013.1_src/data/scripts/dock_solv.prm

>  <Rbt.Receptor>
prm/pocket_docking_6.prm

>  <SCORE>
-24.0243

>  <SCORE.INTER>
-24.0243

>  <SCORE.INTER.CONST>
1

>  <SCORE.INTER.POLAR>
0

>  <SCORE.INTER.ROT>
0

>  <SCORE.INTER.SOLV>
11.506

>  <SCORE.INTER.VDW>
-23.4515

>  <SCORE.INTER.norm>
-1.84802

>  <SCORE.INTRA>
0

>  <SCORE.INTRA.DIHEDRAL>
0

>  <SCORE.INTRA.DIHEDRAL.0>
0

>  <SCORE.INTRA.POLAR>
0

>  <SCORE.INTRA.POLAR.0>
0

>  <SCORE.INTRA.REPUL>
0

>  <SCORE.INTRA.REPUL.0>
0

>  <SCORE.INTRA.SOLV>
0

>  <SCORE.INTRA.SOLV.lig_0>
-33.1994

>  <SCORE.INTRA.VDW>
0

>  <SCORE.INTRA.VDW.0>
0

>  <SCORE.INTRA.norm>
0

>  <SCORE.RESTR>
0

>  <SCORE.RESTR.CAVITY>
0

>  <SCORE.RESTR.norm>
0

>  <SCORE.SYSTEM>
0

>  <SCORE.SYSTEM.CONST>
0

>  <SCORE.SYSTEM.DIHEDRAL>
0

>  <SCORE.SYSTEM.SOLV>
0

>  <SCORE.SYSTEM.norm>
0

>  <SCORE.heavy>
13

>  <SCORE.norm>
-1.84802

>  <RMSD>
4.889

$$$$
ligand
 OpenBabel11021811473D
libRbt.so/2013.1/901 2013/11/27
 13 14  0  0  0  0  0  0  0  0999 V2000
   36.3838   32.0630   26.7798 N   0  0  0  0  0  0  0  0  0  0  0  0
   37.5669   33.1107   26.8941 C   0  0  0  0  0  0  0  0  0  0  0  0
   38.5072   32.9555   27.8937 N   0  0  0  0  0  0  0  0  0  0  0  0
   37.4814   34.0205   26.0173 N   0  0  0  0  0  0  0  0  0  0  0  0
   36.5967   34.2153   25.0204 C   0  0  0  0  0  0  0  0  0  0  0  0
   35.5651   33.3663   24.8453 C   0  0  0  0  0  0  0  0  0  0  0  0
   35.4400   32.1553   25.8517 C   0  0  0  0  0  0  0  0  0  0  0  0
   34.5273   31.4119   25.6848 O   0  0  0  0  0  0  0  0  0  0  0  0
   34.6550   33.7702   23.6705 C   0  0  0  0  0  0  0  0  0  0  0  0
   35.2088   34.8779   23.1647 C   0  0  0  0  0  0  0  0  0  0  0  0
   36.3364   35.3109   23.8089 N   0  0  0  0  0  0  0  0  0  0  0  0
   33.4498   33.0468   23.2061 C   0  0  0  0  0  0  0  0  0  0  0  0
   32.5034   32.4568   22.9009 N   0  0  0  0  0  0  0  0  0  0  0  0
  1  2  1  0  0  0  0
  1  7  1  0  0  0  0
  2  3  1  0  0  0  0
  2  4  2  0  0  0  0
  4  5  1  0  0  0  0
  5  6  2  0  0  0  0
  5 11  1  0  0  0  0
  6  7  1  0  0  0  0
  6  9  1  0  0  0  0
  7  8  2  0  0  0  0
  9 10  2  0  0  0  0
  9 12  1  0  0  0  0
 10 11  1  0  0  0  0
 12 13  3  0  0  0  0
M  END
>  <CHROM.1>
35.71293059,33.24952607,25.09635142,0.50662008,0.59293958,2.40670380

>  <Name>
ligand

>  <RI>
0

>  <Rbt.Current_Directory>
/home/itssahil/PROJECTS/Mol_Feturizer/New_Systems/rnas/3GCA

>  <Rbt.Executable>
rbdock ($Id: //depot/dev/client3/rdock/2013.1/src/exe/rbdock.cxx#4 $)

>  <Rbt.Library>
libRbt.so (2013.1, Build901 2013/11/27)

>  <Rbt.Parameter_File>
/export/apps/rDock/src/rDock_2013.1_src/data/scripts/dock_solv.prm

>  <Rbt.Receptor>
prm/pocket_docking_3.prm

>  <SCORE>
-24.054

>  <SCORE.INTER>
-24.054

>  <SCORE.INTER.CONST>
1

>  <SCORE.INTER.POLAR>
0

>  <SCORE.INTER.ROT>
0

>  <SCORE.INTER.SOLV>
11.4816

>  <SCORE.INTER.VDW>
-23.4632

>  <SCORE.INTER.norm>
-1.85031

>  <SCORE.INTRA>
0

>  <SCORE.INTRA.DIHEDRAL>
0

>  <SCORE.INTRA.DIHEDRAL.0>
0

>  <SCORE.INTRA.POLAR>
0

>  <SCORE.INTRA.POLAR.0>
0

>  <SCORE.INTRA.REPUL>
0

>  <SCORE.INTRA.REPUL.0>
0

>  <SCORE.INTRA.SOLV>
0

>  <SCORE.INTRA.SOLV.lig_0>
-33.1994

>  <SCORE.INTRA.VDW>
0

>  <SCORE.INTRA.VDW.0>
0

>  <SCORE.INTRA.norm>
0

>  <SCORE.RESTR>
0

>  <SCORE.RESTR.CAVITY>
0

>  <SCORE.RESTR.norm>
0

>  <SCORE.SYSTEM>
0

>  <SCORE.SYSTEM.CONST>
0

>  <SCORE.SYSTEM.DIHEDRAL>
0

>  <SCORE.SYSTEM.SOLV>
0

>  <SCORE.SYSTEM.norm>
0

>  <SCORE.heavy>
13

>  <SCORE.norm>
-1.85031

>  <RMSD>
4.890

$$$$
ligand
 OpenBabel11021811473D
libRbt.so/2013.1/901 2013/11/27
 13 14  0  0  0  0  0  0  0  0999 V2000
   36.4205   32.0743   26.7634 N   0  0  0  0  0  0  0  0  0  0  0  0
   37.5853   33.1403   26.8943 C   0  0  0  0  0  0  0  0  0  0  0  0
   38.5283   32.9855   27.8916 N   0  0  0  0  0  0  0  0  0  0  0  0
   37.4841   34.0622   26.0320 N   0  0  0  0  0  0  0  0  0  0  0  0
   36.5961   34.2574   25.0381 C   0  0  0  0  0  0  0  0  0  0  0  0
   35.5792   33.3937   24.8496 C   0  0  0  0  0  0  0  0  0  0  0  0
   35.4751   32.1650   25.8367 C   0  0  0  0  0  0  0  0  0  0  0  0
   34.5753   31.4087   25.6580 O   0  0  0  0  0  0  0  0  0  0  0  0
   34.6622   33.8003   23.6811 C   0  0  0  0  0  0  0  0  0  0  0  0
   35.1968   34.9252   23.1929 C   0  0  0  0  0  0  0  0  0  0  0  0
   36.3169   35.3673   23.8440 N   0  0  0  0  0  0  0  0  0  0  0  0
   33.4696   33.0637   23.2051 C   0  0  0  0  0  0  0  0  0  0  0  0
   32.5334   32.4624   22.8906 N   0  0  0  0  0  0  0  0  0  0  0  0
  1  2  1  0  0  0  0
  1  7  1  0  0  0  0
  2  3  1  0  0  0  0
  2  4  2  0  0  0  0
  4  5  1  0  0  0  0
  5  6  2  0  0  0  0
  5 11  1  0  0  0  0
  6  7  1  0  0  0  0
  6  9  1  0  0  0  0
  7  8  2  0  0  0  0
  9 10  2  0  0  0  0
  9 12  1  0  0  0  0
 10 11  1  0  0  0  0
 12 13  3  0  0  0  0
M  END
>  <CHROM.1>
35.72907312,33.27550706,25.09874042,0.49102576,0.60433324,2.43123738

>  <Name>
ligand

>  <RI>
0

>  <Rbt.Current_Directory>
/home/itssahil/PROJECTS/Mol_Feturizer/New_Systems/rnas/3GCA

>  <Rbt.Executable>
rbdock ($Id: //depot/dev/client3/rdock/2013.1/src/exe/rbdock.cxx#4 $)

>  <Rbt.Library>
libRbt.so (2013.1, Build901 2013/11/27)

>  <Rbt.Parameter_File>
/export/apps/rDock/src/rDock_2013.1_src/data/scripts/dock_solv.prm

>  <Rbt.Receptor>
prm/pocket_docking_5.prm

>  <SCORE>
-24.0474

>  <SCORE.INTER>
-24.0474

>  <SCORE.INTER.CONST>
1

>  <SCORE.INTER.POLAR>
0

>  <SCORE.INTER.ROT>
0

>  <SCORE.INTER.SOLV>
11.3673

>  <SCORE.INTER.VDW>
-23.4207

>  <SCORE.INTER.norm>
-1.8498

>  <SCORE.INTRA>
0

>  <SCORE.INTRA.DIHEDRAL>
0

>  <SCORE.INTRA.DIHEDRAL.0>
0

>  <SCORE.INTRA.POLAR>
0

>  <SCORE.INTRA.POLAR.0>
0

>  <SCORE.INTRA.REPUL>
0

>  <SCORE.INTRA.REPUL.0>
0

>  <SCORE.INTRA.SOLV>
0

>  <SCORE.INTRA.SOLV.lig_0>
-33.1994

>  <SCORE.INTRA.VDW>
0

>  <SCORE.INTRA.VDW.0>
0

>  <SCORE.INTRA.norm>
0

>  <SCORE.RESTR>
0

>  <SCORE.RESTR.CAVITY>
0

>  <SCORE.RESTR.norm>
0

>  <SCORE.SYSTEM>
0

>  <SCORE.SYSTEM.CONST>
0

>  <SCORE.SYSTEM.DIHEDRAL>
0

>  <SCORE.SYSTEM.SOLV>
0

>  <SCORE.SYSTEM.norm>
0

>  <SCORE.heavy>
13

>  <SCORE.norm>
-1.8498

>  <RMSD>
4.890

$$$$
ligand
 OpenBabel11021811473D
libRbt.so/2013.1/901 2013/11/27
 13 14  0  0  0  0  0  0  0  0999 V2000
   36.4447   32.0423   26.7638 N   0  0  0  0  0  0  0  0  0  0  0  0
   37.5932   33.1229   26.9171 C   0  0  0  0  0  0  0  0  0  0  0  0
   38.5387   32.9616   27.9110 N   0  0  0  0  0  0  0  0  0  0  0  0
   37.4778   34.0611   26.0743 N   0  0  0  0  0  0  0  0  0  0  0  0
   36.5867   34.2636   25.0848 C   0  0  0  0  0  0  0  0  0  0  0  0
   35.5830   33.3887   24.8780 C   0  0  0  0  0  0  0  0  0  0  0  0
   35.4978   32.1380   25.8391 C   0  0  0  0  0  0  0  0  0  0  0  0
   34.6096   31.3721   25.6445 O   0  0  0  0  0  0  0  0  0  0  0  0
   34.6596   33.8058   23.7183 C   0  0  0  0  0  0  0  0  0  0  0  0
   35.1769   34.9487   23.2539 C   0  0  0  0  0  0  0  0  0  0  0  0
   36.2904   35.3940   23.9142 N   0  0  0  0  0  0  0  0  0  0  0  0
   33.4782   33.0613   23.2268 C   0  0  0  0  0  0  0  0  0  0  0  0
   32.5512   32.4526   22.8997 N   0  0  0  0  0  0  0  0  0  0  0  0
  1  2  1  0  0  0  0
  1  7  1  0  0  0  0
  2  3  1  0  0  0  0
  2  4  2  0  0  0  0
  4  5  1  0  0  0  0
  5  6  2  0  0  0  0
  5 11  1  0  0  0  0
  6  7  1  0  0  0  0
  6  9  1  0  0  0  0
  7  8  2  0  0  0  0
  9 10  2  0  0  0  0
  9 12  1  0  0  0  0
 10 11  1  0  0  0  0
 12 13  3  0  0  0  0
M  END
>  <CHROM.1>
35.73471702,33.26758159,25.12464507,0.47673149,0.61401462,2.46043255

>  <Name>
ligand

>  <RI>
0

>  <Rbt.Current_Directory>
/home/itssahil/PROJECTS/Mol_Feturizer/New_Systems/rnas/3GCA

>  <Rbt.Executable>
rbdock ($Id: //depot/dev/client3/rdock/2013.1/src/exe/rbdock.cxx#4 $)

>  <Rbt.Library>
libRbt.so (2013.1, Build901 2013/11/27)

>  <Rbt.Parameter_File>
/export/apps/rDock/src/rDock_2013.1_src/data/scripts/dock_solv.prm

>  <Rbt.Receptor>
prm/pocket_docking_7.prm

>  <SCORE>
-24.0285

>  <SCORE.INTER>
-24.0285

>  <SCORE.INTER.CONST>
1

>  <SCORE.INTER.POLAR>
0

>  <SCORE.INTER.ROT>
0

>  <SCORE.INTER.SOLV>
11.3696

>  <SCORE.INTER.VDW>
-23.4089

>  <SCORE.INTER.norm>
-1.84835

>  <SCORE.INTRA>
0

>  <SCORE.INTRA.DIHEDRAL>
0

>  <SCORE.INTRA.DIHEDRAL.0>
0

>  <SCORE.INTRA.POLAR>
0

>  <SCORE.INTRA.POLAR.0>
0

>  <SCORE.INTRA.REPUL>
0

>  <SCORE.INTRA.REPUL.0>
0

>  <SCORE.INTRA.SOLV>
0

>  <SCORE.INTRA.SOLV.lig_0>
-33.1994

>  <SCORE.INTRA.VDW>
0

>  <SCORE.INTRA.VDW.0>
0

>  <SCORE.INTRA.norm>
0

>  <SCORE.RESTR>
0

>  <SCORE.RESTR.CAVITY>
0

>  <SCORE.RESTR.norm>
0

>  <SCORE.SYSTEM>
0

>  <SCORE.SYSTEM.CONST>
0

>  <SCORE.SYSTEM.DIHEDRAL>
0

>  <SCORE.SYSTEM.SOLV>
0

>  <SCORE.SYSTEM.norm>
0

>  <SCORE.heavy>
13

>  <SCORE.norm>
-1.84835

>  <RMSD>
4.890

$$$$
ligand
 OpenBabel11021811473D
libRbt.so/2013.1/901 2013/11/27
 13 14  0  0  0  0  0  0  0  0999 V2000
   36.4168   32.0857   26.7558 N   0  0  0  0  0  0  0  0  0  0  0  0
   37.5820   33.1515   26.8853 C   0  0  0  0  0  0  0  0  0  0  0  0
   38.5238   32.9989   27.8840 N   0  0  0  0  0  0  0  0  0  0  0  0
   37.4822   34.0713   26.0205 N   0  0  0  0  0  0  0  0  0  0  0  0
   36.5954   34.2643   25.0251 C   0  0  0  0  0  0  0  0  0  0  0  0
   35.5783   33.4006   24.8376 C   0  0  0  0  0  0  0  0  0  0  0  0
   35.4725   32.1744   25.8278 C   0  0  0  0  0  0  0  0  0  0  0  0
   34.5726   31.4181   25.6500 O   0  0  0  0  0  0  0  0  0  0  0  0
   34.6628   33.8046   23.6671 C   0  0  0  0  0  0  0  0  0  0  0  0
   35.1984   34.9280   23.1766 C   0  0  0  0  0  0  0  0  0  0  0  0
   36.3180   35.3713   23.8278 N   0  0  0  0  0  0  0  0  0  0  0  0
   33.4704   33.0673   23.1916 C   0  0  0  0  0  0  0  0  0  0  0  0
   32.5343   32.4656   22.8776 N   0  0  0  0  0  0  0  0  0  0  0  0
  1  2  1  0  0  0  0
  1  7  1  0  0  0  0
  2  3  1  0  0  0  0
  2  4  2  0  0  0  0
  4  5  1  0  0  0  0
  5  6  2  0  0  0  0
  5 11  1  0  0  0  0
  6  7  1  0  0  0  0
  6  9  1  0  0  0  0
  7  8  2  0  0  0  0
  9 10  2  0  0  0  0
  9 12  1  0  0  0  0
 10 11  1  0  0  0  0
 12 13  3  0  0  0  0
M  END
>  <CHROM.1>
35.72784225,33.28295290,25.08725931,0.49232438,0.60490152,2.42794154

>  <Name>
ligand

>  <RI>
0

>  <Rbt.Current_Directory>
/home/itssahil/PROJECTS/Mol_Feturizer/New_Systems/rnas/3GCA

>  <Rbt.Executable>
rbdock ($Id: //depot/dev/client3/rdock/2013.1/src/exe/rbdock.cxx#4 $)

>  <Rbt.Library>
libRbt.so (2013.1, Build901 2013/11/27)

>  <Rbt.Parameter_File>
/export/apps/rDock/src/rDock_2013.1_src/data/scripts/dock_solv.prm

>  <Rbt.Receptor>
prm/pocket_docking_7.prm

>  <SCORE>
-24.0222

>  <SCORE.INTER>
-24.0222

>  <SCORE.INTER.CONST>
1

>  <SCORE.INTER.POLAR>
0

>  <SCORE.INTER.ROT>
0

>  <SCORE.INTER.SOLV>
11.371

>  <SCORE.INTER.VDW>
-23.4051

>  <SCORE.INTER.norm>
-1.84786

>  <SCORE.INTRA>
0

>  <SCORE.INTRA.DIHEDRAL>
0

>  <SCORE.INTRA.DIHEDRAL.0>
0

>  <SCORE.INTRA.POLAR>
0

>  <SCORE.INTRA.POLAR.0>
0

>  <SCORE.INTRA.REPUL>
0

>  <SCORE.INTRA.REPUL.0>
0

>  <SCORE.INTRA.SOLV>
0

>  <SCORE.INTRA.SOLV.lig_0>
-33.1994

>  <SCORE.INTRA.VDW>
0

>  <SCORE.INTRA.VDW.0>
0

>  <SCORE.INTRA.norm>
0

>  <SCORE.RESTR>
0

>  <SCORE.RESTR.CAVITY>
0

>  <SCORE.RESTR.norm>
0

>  <SCORE.SYSTEM>
0

>  <SCORE.SYSTEM.CONST>
0

>  <SCORE.SYSTEM.DIHEDRAL>
0

>  <SCORE.SYSTEM.SOLV>
0

>  <SCORE.SYSTEM.norm>
0

>  <SCORE.heavy>
13

>  <SCORE.norm>
-1.84786

>  <RMSD>
4.890

$$$$
ligand
 OpenBabel11021811473D
libRbt.so/2013.1/901 2013/11/27
 13 14  0  0  0  0  0  0  0  0999 V2000
   36.4055   32.0820   26.7604 N   0  0  0  0  0  0  0  0  0  0  0  0
   37.5699   33.1488   26.8881 C   0  0  0  0  0  0  0  0  0  0  0  0
   38.5142   32.9963   27.8844 N   0  0  0  0  0  0  0  0  0  0  0  0
   37.4672   34.0692   26.0243 N   0  0  0  0  0  0  0  0  0  0  0  0
   36.5779   34.2623   25.0312 C   0  0  0  0  0  0  0  0  0  0  0  0
   35.5612   33.3976   24.8454 C   0  0  0  0  0  0  0  0  0  0  0  0
   35.4590   32.1705   25.8347 C   0  0  0  0  0  0  0  0  0  0  0  0
   34.5593   31.4135   25.6584 O   0  0  0  0  0  0  0  0  0  0  0  0
   34.6425   33.8018   23.6773 C   0  0  0  0  0  0  0  0  0  0  0  0
   35.1759   34.9262   23.1866 C   0  0  0  0  0  0  0  0  0  0  0  0
   36.2966   35.3700   23.8356 N   0  0  0  0  0  0  0  0  0  0  0  0
   33.4498   33.0637   23.2040 C   0  0  0  0  0  0  0  0  0  0  0  0
   32.5135   32.4613   22.8917 N   0  0  0  0  0  0  0  0  0  0  0  0
  1  2  1  0  0  0  0
  1  7  1  0  0  0  0
  2  3  1  0  0  0  0
  2  4  2  0  0  0  0
  4  5  1  0  0  0  0
  5  6  2  0  0  0  0
  5 11  1  0  0  0  0
  6  7  1  0  0  0  0
  6  9  1  0  0  0  0
  7  8  2  0  0  0  0
  9 10  2  0  0  0  0
  9 12  1  0  0  0  0
 10 11  1  0  0  0  0
 12 13  3  0  0  0  0
M  END
>  <CHROM.1>
35.71142640,33.27995030,25.09454746,0.48954542,0.60377964,2.43039364

>  <Name>
ligand

>  <RI>
0

>  <Rbt.Current_Directory>
/home/itssahil/PROJECTS/Mol_Feturizer/New_Systems/rnas/3GCA

>  <Rbt.Executable>
rbdock ($Id: //depot/dev/client3/rdock/2013.1/src/exe/rbdock.cxx#4 $)

>  <Rbt.Library>
libRbt.so (2013.1, Build901 2013/11/27)

>  <Rbt.Parameter_File>
/export/apps/rDock/src/rDock_2013.1_src/data/scripts/dock_solv.prm

>  <Rbt.Receptor>
prm/pocket_docking_8.prm

>  <SCORE>
-24.0381

>  <SCORE.INTER>
-24.0381

>  <SCORE.INTER.CONST>
1

>  <SCORE.INTER.POLAR>
0

>  <SCORE.INTER.ROT>
0

>  <SCORE.INTER.SOLV>
11.422

>  <SCORE.INTER.VDW>
-23.4328

>  <SCORE.INTER.norm>
-1.84909

>  <SCORE.INTRA>
0

>  <SCORE.INTRA.DIHEDRAL>
0

>  <SCORE.INTRA.DIHEDRAL.0>
0

>  <SCORE.INTRA.POLAR>
0

>  <SCORE.INTRA.POLAR.0>
0

>  <SCORE.INTRA.REPUL>
0

>  <SCORE.INTRA.REPUL.0>
0

>  <SCORE.INTRA.SOLV>
0

>  <SCORE.INTRA.SOLV.lig_0>
-33.1994

>  <SCORE.INTRA.VDW>
0

>  <SCORE.INTRA.VDW.0>
0

>  <SCORE.INTRA.norm>
0

>  <SCORE.RESTR>
0

>  <SCORE.RESTR.CAVITY>
0

>  <SCORE.RESTR.norm>
0

>  <SCORE.SYSTEM>
0

>  <SCORE.SYSTEM.CONST>
0

>  <SCORE.SYSTEM.DIHEDRAL>
0

>  <SCORE.SYSTEM.SOLV>
0

>  <SCORE.SYSTEM.norm>
0

>  <SCORE.heavy>
13

>  <SCORE.norm>
-1.84909

>  <RMSD>
4.890

$$$$
ligand
 OpenBabel11021811473D
libRbt.so/2013.1/901 2013/11/27
 13 14  0  0  0  0  0  0  0  0999 V2000
   36.3867   32.0759   26.7798 N   0  0  0  0  0  0  0  0  0  0  0  0
   37.5673   33.1266   26.8921 C   0  0  0  0  0  0  0  0  0  0  0  0
   38.5086   32.9748   27.8914 N   0  0  0  0  0  0  0  0  0  0  0  0
   37.4791   34.0352   26.0143 N   0  0  0  0  0  0  0  0  0  0  0  0
   36.5934   34.2267   25.0177 C   0  0  0  0  0  0  0  0  0  0  0  0
   35.5637   33.3751   24.8442 C   0  0  0  0  0  0  0  0  0  0  0  0
   35.4421   32.1649   25.8520 C   0  0  0  0  0  0  0  0  0  0  0  0
   34.5311   31.4191   25.6866 O   0  0  0  0  0  0  0  0  0  0  0  0
   34.6520   33.7754   23.6695 C   0  0  0  0  0  0  0  0  0  0  0  0
   35.2028   34.8839   23.1621 C   0  0  0  0  0  0  0  0  0  0  0  0
   36.3298   35.3203   23.8051 N   0  0  0  0  0  0  0  0  0  0  0  0
   33.4483   33.0486   23.2065 C   0  0  0  0  0  0  0  0  0  0  0  0
   32.5031   32.4560   22.9027 N   0  0  0  0  0  0  0  0  0  0  0  0
  1  2  1  0  0  0  0
  1  7  1  0  0  0  0
  2  3  1  0  0  0  0
  2  4  2  0  0  0  0
  4  5  1  0  0  0  0
  5  6  2  0  0  0  0
  5 11  1  0  0  0  0
  6  7  1  0  0  0  0
  6  9  1  0  0  0  0
  7  8  2  0  0  0  0
  9 10  2  0  0  0  0
  9 12  1  0  0  0  0
 10 11  1  0  0  0  0
 12 13  3  0  0  0  0
M  END
>  <CHROM.1>
35.71197077,33.25890755,25.09530216,0.50400337,0.59412281,2.40702355

>  <Name>
ligand

>  <RI>
0

>  <Rbt.Current_Directory>
/home/itssahil/PROJECTS/Mol_Feturizer/New_Systems/rnas/3GCA

>  <Rbt.Executable>
rbdock ($Id: //depot/dev/client3/rdock/2013.1/src/exe/rbdock.cxx#4 $)

>  <Rbt.Library>
libRbt.so (2013.1, Build901 2013/11/27)

>  <Rbt.Parameter_File>
/export/apps/rDock/src/rDock_2013.1_src/data/scripts/dock_solv.prm

>  <Rbt.Receptor>
prm/blind_docking_100.prm

>  <SCORE>
-24.0765

>  <SCORE.INTER>
-24.0765

>  <SCORE.INTER.CONST>
1

>  <SCORE.INTER.POLAR>
0

>  <SCORE.INTER.ROT>
0

>  <SCORE.INTER.SOLV>
11.4645

>  <SCORE.INTER.VDW>
-23.4725

>  <SCORE.INTER.norm>
-1.85204

>  <SCORE.INTRA>
0

>  <SCORE.INTRA.DIHEDRAL>
0

>  <SCORE.INTRA.DIHEDRAL.0>
0

>  <SCORE.INTRA.POLAR>
0

>  <SCORE.INTRA.POLAR.0>
0

>  <SCORE.INTRA.REPUL>
0

>  <SCORE.INTRA.REPUL.0>
0

>  <SCORE.INTRA.SOLV>
0

>  <SCORE.INTRA.SOLV.lig_0>
-33.1994

>  <SCORE.INTRA.VDW>
0

>  <SCORE.INTRA.VDW.0>
0

>  <SCORE.INTRA.norm>
0

>  <SCORE.RESTR>
0

>  <SCORE.RESTR.CAVITY>
0

>  <SCORE.RESTR.norm>
0

>  <SCORE.SYSTEM>
0

>  <SCORE.SYSTEM.CONST>
0

>  <SCORE.SYSTEM.DIHEDRAL>
0

>  <SCORE.SYSTEM.SOLV>
0

>  <SCORE.SYSTEM.norm>
0

>  <SCORE.heavy>
13

>  <SCORE.norm>
-1.85204

>  <RMSD>
4.891

$$$$
ligand
 OpenBabel11021811473D
libRbt.so/2013.1/901 2013/11/27
 13 14  0  0  0  0  0  0  0  0999 V2000
   36.3335   32.1461   26.8253 N   0  0  0  0  0  0  0  0  0  0  0  0
   37.5237   33.1875   26.9200 C   0  0  0  0  0  0  0  0  0  0  0  0
   38.4540   33.0540   27.9321 N   0  0  0  0  0  0  0  0  0  0  0  0
   37.4531   34.0723   26.0167 N   0  0  0  0  0  0  0  0  0  0  0  0
   36.5788   34.2451   25.0067 C   0  0  0  0  0  0  0  0  0  0  0  0
   35.5421   33.3993   24.8469 C   0  0  0  0  0  0  0  0  0  0  0  0
   35.3986   32.2187   25.8865 C   0  0  0  0  0  0  0  0  0  0  0  0
   34.4815   31.4779   25.7329 O   0  0  0  0  0  0  0  0  0  0  0  0
   34.6455   33.7761   23.6528 C   0  0  0  0  0  0  0  0  0  0  0  0
   35.2124   34.8645   23.1204 C   0  0  0  0  0  0  0  0  0  0  0  0
   36.3378   35.3072   23.7619 N   0  0  0  0  0  0  0  0  0  0  0  0
   33.4388   33.0489   23.1985 C   0  0  0  0  0  0  0  0  0  0  0  0
   32.4904   32.4576   22.9020 N   0  0  0  0  0  0  0  0  0  0  0  0
  1  2  1  0  0  0  0
  1  7  1  0  0  0  0
  2  3  1  0  0  0  0
  2  4  2  0  0  0  0
  4  5  1  0  0  0  0
  5  6  2  0  0  0  0
  5 11  1  0  0  0  0
  6  7  1  0  0  0  0
  6  9  1  0  0  0  0
  7  8  2  0  0  0  0
  9 10  2  0  0  0  0
  9 12  1  0  0  0  0
 10 11  1  0  0  0  0
 12 13  3  0  0  0  0
M  END
>  <CHROM.1>
35.68676040,33.28866545,25.10245727,0.52077747,0.59408959,2.36999495

>  <Name>
ligand

>  <RI>
0

>  <Rbt.Current_Directory>
/home/itssahil/PROJECTS/Mol_Feturizer/New_Systems/rnas/3GCA

>  <Rbt.Executable>
rbdock ($Id: //depot/dev/client3/rdock/2013.1/src/exe/rbdock.cxx#4 $)

>  <Rbt.Library>
libRbt.so (2013.1, Build901 2013/11/27)

>  <Rbt.Parameter_File>
/export/apps/rDock/src/rDock_2013.1_src/data/scripts/dock_solv.prm

>  <Rbt.Receptor>
prm/blind_docking_80.prm

>  <SCORE>
-23.9988

>  <SCORE.INTER>
-23.9988

>  <SCORE.INTER.CONST>
1

>  <SCORE.INTER.POLAR>
0

>  <SCORE.INTER.ROT>
0

>  <SCORE.INTER.SOLV>
11.692

>  <SCORE.INTER.VDW>
-23.4965

>  <SCORE.INTER.norm>
-1.84606

>  <SCORE.INTRA>
0

>  <SCORE.INTRA.DIHEDRAL>
0

>  <SCORE.INTRA.DIHEDRAL.0>
0

>  <SCORE.INTRA.POLAR>
0

>  <SCORE.INTRA.POLAR.0>
0

>  <SCORE.INTRA.REPUL>
0

>  <SCORE.INTRA.REPUL.0>
0

>  <SCORE.INTRA.SOLV>
0

>  <SCORE.INTRA.SOLV.lig_0>
-33.1994

>  <SCORE.INTRA.VDW>
0

>  <SCORE.INTRA.VDW.0>
0

>  <SCORE.INTRA.norm>
0

>  <SCORE.RESTR>
0

>  <SCORE.RESTR.CAVITY>
0

>  <SCORE.RESTR.norm>
0

>  <SCORE.SYSTEM>
0

>  <SCORE.SYSTEM.CONST>
0

>  <SCORE.SYSTEM.DIHEDRAL>
0

>  <SCORE.SYSTEM.SOLV>
0

>  <SCORE.SYSTEM.norm>
0

>  <SCORE.heavy>
13

>  <SCORE.norm>
-1.84606

>  <RMSD>
4.891

$$$$
ligand
 OpenBabel11021811473D
libRbt.so/2013.1/901 2013/11/27
 13 14  0  0  0  0  0  0  0  0999 V2000
   36.4677   32.0344   26.7334 N   0  0  0  0  0  0  0  0  0  0  0  0
   37.6200   33.1121   26.8791 C   0  0  0  0  0  0  0  0  0  0  0  0
   38.5716   32.9484   27.8667 N   0  0  0  0  0  0  0  0  0  0  0  0
   37.5014   34.0506   26.0371 N   0  0  0  0  0  0  0  0  0  0  0  0
   36.6043   34.2554   25.0535 C   0  0  0  0  0  0  0  0  0  0  0  0
   35.5970   33.3830   24.8534 C   0  0  0  0  0  0  0  0  0  0  0  0
   35.5150   32.1325   25.8150 C   0  0  0  0  0  0  0  0  0  0  0  0
   34.6235   31.3689   25.6263 O   0  0  0  0  0  0  0  0  0  0  0  0
   34.6670   33.8025   23.6998 C   0  0  0  0  0  0  0  0  0  0  0  0
   35.1841   34.9441   23.2320 C   0  0  0  0  0  0  0  0  0  0  0  0
   36.3030   35.3865   23.8849 N   0  0  0  0  0  0  0  0  0  0  0  0
   33.4805   33.0610   23.2162 C   0  0  0  0  0  0  0  0  0  0  0  0
   32.5498   32.4546   22.8952 N   0  0  0  0  0  0  0  0  0  0  0  0
  1  2  1  0  0  0  0
  1  7  1  0  0  0  0
  2  3  1  0  0  0  0
  2  4  2  0  0  0  0
  4  5  1  0  0  0  0
  5  6  2  0  0  0  0
  5 11  1  0  0  0  0
  6  7  1  0  0  0  0
  6  9  1  0  0  0  0
  7  8  2  0  0  0  0
  9 10  2  0  0  0  0
  9 12  1  0  0  0  0
 10 11  1  0  0  0  0
 12 13  3  0  0  0  0
M  END
>  <CHROM.1>
35.75001769,33.26149960,25.09901090,0.47403711,0.60727014,2.46199560

>  <Name>
ligand

>  <RI>
0

>  <Rbt.Current_Directory>
/home/itssahil/PROJECTS/Mol_Feturizer/New_Systems/rnas/3GCA

>  <Rbt.Executable>
rbdock ($Id: //depot/dev/client3/rdock/2013.1/src/exe/rbdock.cxx#4 $)

>  <Rbt.Library>
libRbt.so (2013.1, Build901 2013/11/27)

>  <Rbt.Parameter_File>
/export/apps/rDock/src/rDock_2013.1_src/data/scripts/dock_solv.prm

>  <Rbt.Receptor>
prm/pocket_docking_5.prm

>  <SCORE>
-24.0001

>  <SCORE.INTER>
-24.0001

>  <SCORE.INTER.CONST>
1

>  <SCORE.INTER.POLAR>
0

>  <SCORE.INTER.ROT>
0

>  <SCORE.INTER.SOLV>
11.1896

>  <SCORE.INTER.VDW>
-23.33

>  <SCORE.INTER.norm>
-1.84616

>  <SCORE.INTRA>
0

>  <SCORE.INTRA.DIHEDRAL>
0

>  <SCORE.INTRA.DIHEDRAL.0>
0

>  <SCORE.INTRA.POLAR>
0

>  <SCORE.INTRA.POLAR.0>
0

>  <SCORE.INTRA.REPUL>
0

>  <SCORE.INTRA.REPUL.0>
0

>  <SCORE.INTRA.SOLV>
0

>  <SCORE.INTRA.SOLV.lig_0>
-33.1994

>  <SCORE.INTRA.VDW>
0

>  <SCORE.INTRA.VDW.0>
0

>  <SCORE.INTRA.norm>
0

>  <SCORE.RESTR>
0

>  <SCORE.RESTR.CAVITY>
0

>  <SCORE.RESTR.norm>
0

>  <SCORE.SYSTEM>
0

>  <SCORE.SYSTEM.CONST>
0

>  <SCORE.SYSTEM.DIHEDRAL>
0

>  <SCORE.SYSTEM.SOLV>
0

>  <SCORE.SYSTEM.norm>
0

>  <SCORE.heavy>
13

>  <SCORE.norm>
-1.84616

>  <RMSD>
4.891

$$$$
ligand
 OpenBabel11021811473D
libRbt.so/2013.1/901 2013/11/27
 13 14  0  0  0  0  0  0  0  0999 V2000
   36.4354   32.0659   26.7535 N   0  0  0  0  0  0  0  0  0  0  0  0
   37.6038   33.1288   26.8769 C   0  0  0  0  0  0  0  0  0  0  0  0
   38.5529   32.9714   27.8680 N   0  0  0  0  0  0  0  0  0  0  0  0
   37.4994   34.0511   26.0154 N   0  0  0  0  0  0  0  0  0  0  0  0
   36.6055   34.2488   25.0274 C   0  0  0  0  0  0  0  0  0  0  0  0
   35.5851   33.3877   24.8453 C   0  0  0  0  0  0  0  0  0  0  0  0
   35.4842   32.1591   25.8329 C   0  0  0  0  0  0  0  0  0  0  0  0
   34.5813   31.4052   25.6600 O   0  0  0  0  0  0  0  0  0  0  0  0
   34.6616   33.7969   23.6829 C   0  0  0  0  0  0  0  0  0  0  0  0
   35.1959   34.9205   23.1913 C   0  0  0  0  0  0  0  0  0  0  0  0
   36.3214   35.3596   23.8352 N   0  0  0  0  0  0  0  0  0  0  0  0
   33.4640   33.0635   23.2145 C   0  0  0  0  0  0  0  0  0  0  0  0
   32.5242   32.4647   22.9060 N   0  0  0  0  0  0  0  0  0  0  0  0
  1  2  1  0  0  0  0
  1  7  1  0  0  0  0
  2  3  1  0  0  0  0
  2  4  2  0  0  0  0
  4  5  1  0  0  0  0
  5  6  2  0  0  0  0
  5 11  1  0  0  0  0
  6  7  1  0  0  0  0
  6  9  1  0  0  0  0
  7  8  2  0  0  0  0
  9 10  2  0  0  0  0
  9 12  1  0  0  0  0
 10 11  1  0  0  0  0
 12 13  3  0  0  0  0
M  END
>  <CHROM.1>
35.73629566,33.26910821,25.09344927,0.48828479,0.59770070,2.43293973

>  <Name>
ligand

>  <RI>
0

>  <Rbt.Current_Directory>
/home/itssahil/PROJECTS/Mol_Feturizer/New_Systems/rnas/3GCA

>  <Rbt.Executable>
rbdock ($Id: //depot/dev/client3/rdock/2013.1/src/exe/rbdock.cxx#4 $)

>  <Rbt.Library>
libRbt.so (2013.1, Build901 2013/11/27)

>  <Rbt.Parameter_File>
/export/apps/rDock/src/rDock_2013.1_src/data/scripts/dock_solv.prm

>  <Rbt.Receptor>
prm/pocket_docking_5.prm

>  <SCORE>
-24.0068

>  <SCORE.INTER>
-24.0068

>  <SCORE.INTER.CONST>
1

>  <SCORE.INTER.POLAR>
0

>  <SCORE.INTER.ROT>
0

>  <SCORE.INTER.SOLV>
11.2478

>  <SCORE.INTER.VDW>
-23.3538

>  <SCORE.INTER.norm>
-1.84668

>  <SCORE.INTRA>
0

>  <SCORE.INTRA.DIHEDRAL>
0

>  <SCORE.INTRA.DIHEDRAL.0>
0

>  <SCORE.INTRA.POLAR>
0

>  <SCORE.INTRA.POLAR.0>
0

>  <SCORE.INTRA.REPUL>
0

>  <SCORE.INTRA.REPUL.0>
0

>  <SCORE.INTRA.SOLV>
0

>  <SCORE.INTRA.SOLV.lig_0>
-33.1994

>  <SCORE.INTRA.VDW>
0

>  <SCORE.INTRA.VDW.0>
0

>  <SCORE.INTRA.norm>
0

>  <SCORE.RESTR>
0

>  <SCORE.RESTR.CAVITY>
0

>  <SCORE.RESTR.norm>
0

>  <SCORE.SYSTEM>
0

>  <SCORE.SYSTEM.CONST>
0

>  <SCORE.SYSTEM.DIHEDRAL>
0

>  <SCORE.SYSTEM.SOLV>
0

>  <SCORE.SYSTEM.norm>
0

>  <SCORE.heavy>
13

>  <SCORE.norm>
-1.84668

>  <RMSD>
4.891

$$$$
ligand
 OpenBabel11021811473D
libRbt.so/2013.1/901 2013/11/27
 13 14  0  0  0  0  0  0  0  0999 V2000
   36.3883   32.0805   26.7820 N   0  0  0  0  0  0  0  0  0  0  0  0
   37.5679   33.1324   26.8931 C   0  0  0  0  0  0  0  0  0  0  0  0
   38.5099   32.9820   27.8920 N   0  0  0  0  0  0  0  0  0  0  0  0
   37.4784   34.0405   26.0149 N   0  0  0  0  0  0  0  0  0  0  0  0
   36.5920   34.2307   25.0188 C   0  0  0  0  0  0  0  0  0  0  0  0
   35.5630   33.3779   24.8463 C   0  0  0  0  0  0  0  0  0  0  0  0
   35.4431   32.1681   25.8547 C   0  0  0  0  0  0  0  0  0  0  0  0
   34.5327   31.4214   25.6901 O   0  0  0  0  0  0  0  0  0  0  0  0
   34.6502   33.7768   23.6718 C   0  0  0  0  0  0  0  0  0  0  0  0
   35.1997   34.8856   23.1636 C   0  0  0  0  0  0  0  0  0  0  0  0
   36.3266   35.3234   23.8057 N   0  0  0  0  0  0  0  0  0  0  0  0
   33.4470   33.0486   23.2099 C   0  0  0  0  0  0  0  0  0  0  0  0
   32.5022   32.4549   22.9068 N   0  0  0  0  0  0  0  0  0  0  0  0
  1  2  1  0  0  0  0
  1  7  1  0  0  0  0
  2  3  1  0  0  0  0
  2  4  2  0  0  0  0
  4  5  1  0  0  0  0
  5  6  2  0  0  0  0
  5 11  1  0  0  0  0
  6  7  1  0  0  0  0
  6  9  1  0  0  0  0
  7  8  2  0  0  0  0
  9 10  2  0  0  0  0
  9 12  1  0  0  0  0
 10 11  1  0  0  0  0
 12 13  3  0  0  0  0
M  END
>  <CHROM.1>
35.71151654,33.26202451,25.09728613,0.50268257,0.59437086,2.40726283

>  <Name>
ligand

>  <RI>
0

>  <Rbt.Current_Directory>
/home/itssahil/PROJECTS/Mol_Feturizer/New_Systems/rnas/3GCA

>  <Rbt.Executable>
rbdock ($Id: //depot/dev/client3/rdock/2013.1/src/exe/rbdock.cxx#4 $)

>  <Rbt.Library>
libRbt.so (2013.1, Build901 2013/11/27)

>  <Rbt.Parameter_File>
/export/apps/rDock/src/rDock_2013.1_src/data/scripts/dock_solv.prm

>  <Rbt.Receptor>
prm/pocket_docking_6.prm

>  <SCORE>
-24.0818

>  <SCORE.INTER>
-24.0818

>  <SCORE.INTER.CONST>
1

>  <SCORE.INTER.POLAR>
0

>  <SCORE.INTER.ROT>
0

>  <SCORE.INTER.SOLV>
11.4557

>  <SCORE.INTER.VDW>
-23.4731

>  <SCORE.INTER.norm>
-1.85244

>  <SCORE.INTRA>
0

>  <SCORE.INTRA.DIHEDRAL>
0

>  <SCORE.INTRA.DIHEDRAL.0>
0

>  <SCORE.INTRA.POLAR>
0

>  <SCORE.INTRA.POLAR.0>
0

>  <SCORE.INTRA.REPUL>
0

>  <SCORE.INTRA.REPUL.0>
0

>  <SCORE.INTRA.SOLV>
0

>  <SCORE.INTRA.SOLV.lig_0>
-33.1994

>  <SCORE.INTRA.VDW>
0

>  <SCORE.INTRA.VDW.0>
0

>  <SCORE.INTRA.norm>
0

>  <SCORE.RESTR>
0

>  <SCORE.RESTR.CAVITY>
0

>  <SCORE.RESTR.norm>
0

>  <SCORE.SYSTEM>
0

>  <SCORE.SYSTEM.CONST>
0

>  <SCORE.SYSTEM.DIHEDRAL>
0

>  <SCORE.SYSTEM.SOLV>
0

>  <SCORE.SYSTEM.norm>
0

>  <SCORE.heavy>
13

>  <SCORE.norm>
-1.85244

>  <RMSD>
4.891

$$$$
ligand
 OpenBabel11021811473D
libRbt.so/2013.1/901 2013/11/27
 13 14  0  0  0  0  0  0  0  0999 V2000
   36.3835   32.0815   26.7830 N   0  0  0  0  0  0  0  0  0  0  0  0
   37.5657   33.1307   26.8923 C   0  0  0  0  0  0  0  0  0  0  0  0
   38.5066   32.9805   27.8923 N   0  0  0  0  0  0  0  0  0  0  0  0
   37.4792   34.0367   26.0117 N   0  0  0  0  0  0  0  0  0  0  0  0
   36.5941   34.2265   25.0143 C   0  0  0  0  0  0  0  0  0  0  0  0
   35.5631   33.3759   24.8432 C   0  0  0  0  0  0  0  0  0  0  0  0
   35.4393   32.1691   25.8548 C   0  0  0  0  0  0  0  0  0  0  0  0
   34.5271   31.4242   25.6914 O   0  0  0  0  0  0  0  0  0  0  0  0
   34.6522   33.7740   23.6670 C   0  0  0  0  0  0  0  0  0  0  0  0
   35.2049   34.8800   23.1562 C   0  0  0  0  0  0  0  0  0  0  0  0
   36.3324   35.3166   23.7982 N   0  0  0  0  0  0  0  0  0  0  0  0
   33.4475   33.0476   23.2060 C   0  0  0  0  0  0  0  0  0  0  0  0
   32.5014   32.4556   22.9038 N   0  0  0  0  0  0  0  0  0  0  0  0
  1  2  1  0  0  0  0
  1  7  1  0  0  0  0
  2  3  1  0  0  0  0
  2  4  2  0  0  0  0
  4  5  1  0  0  0  0
  5  6  2  0  0  0  0
  5 11  1  0  0  0  0
  6  7  1  0  0  0  0
  6  9  1  0  0  0  0
  7  8  2  0  0  0  0
  9 10  2  0  0  0  0
  9 12  1  0  0  0  0
 10 11  1  0  0  0  0
 12 13  3  0  0  0  0
M  END
>  <CHROM.1>
35.71106898,33.26029637,25.09466769,0.50560340,0.59323483,2.40298599

>  <Name>
ligand

>  <RI>
0

>  <Rbt.Current_Directory>
/home/itssahil/PROJECTS/Mol_Feturizer/New_Systems/rnas/3GCA

>  <Rbt.Executable>
rbdock ($Id: //depot/dev/client3/rdock/2013.1/src/exe/rbdock.cxx#4 $)

>  <Rbt.Library>
libRbt.so (2013.1, Build901 2013/11/27)

>  <Rbt.Parameter_File>
/export/apps/rDock/src/rDock_2013.1_src/data/scripts/dock_solv.prm

>  <Rbt.Receptor>
prm/pocket_docking_7.prm

>  <SCORE>
-24.075

>  <SCORE.INTER>
-24.075

>  <SCORE.INTER.CONST>
1

>  <SCORE.INTER.POLAR>
0

>  <SCORE.INTER.ROT>
0

>  <SCORE.INTER.SOLV>
11.4707

>  <SCORE.INTER.VDW>
-23.4736

>  <SCORE.INTER.norm>
-1.85193

>  <SCORE.INTRA>
0

>  <SCORE.INTRA.DIHEDRAL>
0

>  <SCORE.INTRA.DIHEDRAL.0>
0

>  <SCORE.INTRA.POLAR>
0

>  <SCORE.INTRA.POLAR.0>
0

>  <SCORE.INTRA.REPUL>
0

>  <SCORE.INTRA.REPUL.0>
0

>  <SCORE.INTRA.SOLV>
0

>  <SCORE.INTRA.SOLV.lig_0>
-33.1994

>  <SCORE.INTRA.VDW>
0

>  <SCORE.INTRA.VDW.0>
0

>  <SCORE.INTRA.norm>
0

>  <SCORE.RESTR>
0

>  <SCORE.RESTR.CAVITY>
0

>  <SCORE.RESTR.norm>
0

>  <SCORE.SYSTEM>
0

>  <SCORE.SYSTEM.CONST>
0

>  <SCORE.SYSTEM.DIHEDRAL>
0

>  <SCORE.SYSTEM.SOLV>
0

>  <SCORE.SYSTEM.norm>
0

>  <SCORE.heavy>
13

>  <SCORE.norm>
-1.85193

>  <RMSD>
4.891

$$$$
ligand
 OpenBabel11021811473D
libRbt.so/2013.1/901 2013/11/27
 13 14  0  0  0  0  0  0  0  0999 V2000
   36.4206   32.0672   26.7768 N   0  0  0  0  0  0  0  0  0  0  0  0
   37.5875   33.1309   26.9079 C   0  0  0  0  0  0  0  0  0  0  0  0
   38.5281   32.9762   27.9074 N   0  0  0  0  0  0  0  0  0  0  0  0
   37.4901   34.0512   26.0433 N   0  0  0  0  0  0  0  0  0  0  0  0
   36.6046   34.2463   25.0473 C   0  0  0  0  0  0  0  0  0  0  0  0
   35.5862   33.3844   24.8584 C   0  0  0  0  0  0  0  0  0  0  0  0
   35.4773   32.1580   25.8479 C   0  0  0  0  0  0  0  0  0  0  0  0
   34.5762   31.4033   25.6690 O   0  0  0  0  0  0  0  0  0  0  0  0
   34.6725   33.7905   23.6872 C   0  0  0  0  0  0  0  0  0  0  0  0
   35.2105   34.9132   23.1977 C   0  0  0  0  0  0  0  0  0  0  0  0
   36.3303   35.3542   23.8502 N   0  0  0  0  0  0  0  0  0  0  0  0
   33.4792   33.0555   23.2103 C   0  0  0  0  0  0  0  0  0  0  0  0
   32.5424   32.4556   22.8951 N   0  0  0  0  0  0  0  0  0  0  0  0
  1  2  1  0  0  0  0
  1  7  1  0  0  0  0
  2  3  1  0  0  0  0
  2  4  2  0  0  0  0
  4  5  1  0  0  0  0
  5  6  2  0  0  0  0
  5 11  1  0  0  0  0
  6  7  1  0  0  0  0
  6  9  1  0  0  0  0
  7  8  2  0  0  0  0
  9 10  2  0  0  0  0
  9 12  1  0  0  0  0
 10 11  1  0  0  0  0
 12 13  3  0  0  0  0
M  END
>  <CHROM.1>
35.73527977,33.26637615,25.10815130,0.49468961,0.60445964,2.42704107

>  <Name>
ligand

>  <RI>
0

>  <Rbt.Current_Directory>
/home/itssahil/PROJECTS/Mol_Feturizer/New_Systems/rnas/3GCA

>  <Rbt.Executable>
rbdock ($Id: //depot/dev/client3/rdock/2013.1/src/exe/rbdock.cxx#4 $)

>  <Rbt.Library>
libRbt.so (2013.1, Build901 2013/11/27)

>  <Rbt.Parameter_File>
/export/apps/rDock/src/rDock_2013.1_src/data/scripts/dock_solv.prm

>  <Rbt.Receptor>
prm/pocket_docking_7.prm

>  <SCORE>
-24.0576

>  <SCORE.INTER>
-24.0576

>  <SCORE.INTER.CONST>
1

>  <SCORE.INTER.POLAR>
0

>  <SCORE.INTER.ROT>
0

>  <SCORE.INTER.SOLV>
11.3862

>  <SCORE.INTER.VDW>
-23.4338

>  <SCORE.INTER.norm>
-1.85058

>  <SCORE.INTRA>
0

>  <SCORE.INTRA.DIHEDRAL>
0

>  <SCORE.INTRA.DIHEDRAL.0>
0

>  <SCORE.INTRA.POLAR>
0

>  <SCORE.INTRA.POLAR.0>
0

>  <SCORE.INTRA.REPUL>
0

>  <SCORE.INTRA.REPUL.0>
0

>  <SCORE.INTRA.SOLV>
0

>  <SCORE.INTRA.SOLV.lig_0>
-33.1994

>  <SCORE.INTRA.VDW>
0

>  <SCORE.INTRA.VDW.0>
0

>  <SCORE.INTRA.norm>
0

>  <SCORE.RESTR>
0

>  <SCORE.RESTR.CAVITY>
0

>  <SCORE.RESTR.norm>
0

>  <SCORE.SYSTEM>
0

>  <SCORE.SYSTEM.CONST>
0

>  <SCORE.SYSTEM.DIHEDRAL>
0

>  <SCORE.SYSTEM.SOLV>
0

>  <SCORE.SYSTEM.norm>
0

>  <SCORE.heavy>
13

>  <SCORE.norm>
-1.85058

>  <RMSD>
4.891

$$$$
ligand
 OpenBabel11021811473D
libRbt.so/2013.1/901 2013/11/27
 13 14  0  0  0  0  0  0  0  0999 V2000
   36.3200   32.1583   26.8358 N   0  0  0  0  0  0  0  0  0  0  0  0
   37.5149   33.1948   26.9264 C   0  0  0  0  0  0  0  0  0  0  0  0
   38.4449   33.0608   27.9387 N   0  0  0  0  0  0  0  0  0  0  0  0
   37.4479   34.0766   26.0199 N   0  0  0  0  0  0  0  0  0  0  0  0
   36.5741   34.2496   25.0095 C   0  0  0  0  0  0  0  0  0  0  0  0
   35.5336   33.4079   24.8531 C   0  0  0  0  0  0  0  0  0  0  0  0
   35.3852   32.2317   25.8969 C   0  0  0  0  0  0  0  0  0  0  0  0
   34.4648   31.4944   25.7463 O   0  0  0  0  0  0  0  0  0  0  0  0
   34.6384   33.7843   23.6579 C   0  0  0  0  0  0  0  0  0  0  0  0
   35.2099   34.8683   23.1213 C   0  0  0  0  0  0  0  0  0  0  0  0
   36.3375   35.3083   23.7610 N   0  0  0  0  0  0  0  0  0  0  0  0
   33.4283   33.0608   23.2065 C   0  0  0  0  0  0  0  0  0  0  0  0
   32.4772   32.4727   22.9124 N   0  0  0  0  0  0  0  0  0  0  0  0
  1  2  1  0  0  0  0
  1  7  1  0  0  0  0
  2  3  1  0  0  0  0
  2  4  2  0  0  0  0
  4  5  1  0  0  0  0
  5  6  2  0  0  0  0
  5 11  1  0  0  0  0
  6  7  1  0  0  0  0
  6  9  1  0  0  0  0
  7  8  2  0  0  0  0
  9 10  2  0  0  0  0
  9 12  1  0  0  0  0
 10 11  1  0  0  0  0
 12 13  3  0  0  0  0
M  END
>  <CHROM.1>
35.67785360,33.29749285,25.10899456,0.52437516,0.59078658,2.36436716

>  <Name>
ligand

>  <RI>
0

>  <Rbt.Current_Directory>
/home/itssahil/PROJECTS/Mol_Feturizer/New_Systems/rnas/3GCA

>  <Rbt.Executable>
rbdock ($Id: //depot/dev/client3/rdock/2013.1/src/exe/rbdock.cxx#4 $)

>  <Rbt.Library>
libRbt.so (2013.1, Build901 2013/11/27)

>  <Rbt.Parameter_File>
/export/apps/rDock/src/rDock_2013.1_src/data/scripts/dock_solv.prm

>  <Rbt.Receptor>
prm/pocket_docking_7.prm

>  <SCORE>
-24.0459

>  <SCORE.INTER>
-24.0459

>  <SCORE.INTER.CONST>
1

>  <SCORE.INTER.POLAR>
0

>  <SCORE.INTER.ROT>
0

>  <SCORE.INTER.SOLV>
11.7329

>  <SCORE.INTER.VDW>
-23.5415

>  <SCORE.INTER.norm>
-1.84968

>  <SCORE.INTRA>
0

>  <SCORE.INTRA.DIHEDRAL>
0

>  <SCORE.INTRA.DIHEDRAL.0>
0

>  <SCORE.INTRA.POLAR>
0

>  <SCORE.INTRA.POLAR.0>
0

>  <SCORE.INTRA.REPUL>
0

>  <SCORE.INTRA.REPUL.0>
0

>  <SCORE.INTRA.SOLV>
0

>  <SCORE.INTRA.SOLV.lig_0>
-33.1994

>  <SCORE.INTRA.VDW>
0

>  <SCORE.INTRA.VDW.0>
0

>  <SCORE.INTRA.norm>
0

>  <SCORE.RESTR>
0

>  <SCORE.RESTR.CAVITY>
0

>  <SCORE.RESTR.norm>
0

>  <SCORE.SYSTEM>
0

>  <SCORE.SYSTEM.CONST>
0

>  <SCORE.SYSTEM.DIHEDRAL>
0

>  <SCORE.SYSTEM.SOLV>
0

>  <SCORE.SYSTEM.norm>
0

>  <SCORE.heavy>
13

>  <SCORE.norm>
-1.84968

>  <RMSD>
4.891

$$$$
ligand
 OpenBabel11021811473D
libRbt.so/2013.1/901 2013/11/27
 13 14  0  0  0  0  0  0  0  0999 V2000
   36.4228   32.0672   26.7773 N   0  0  0  0  0  0  0  0  0  0  0  0
   37.5920   33.1291   26.9022 C   0  0  0  0  0  0  0  0  0  0  0  0
   38.5350   32.9755   27.8996 N   0  0  0  0  0  0  0  0  0  0  0  0
   37.4939   34.0471   26.0353 N   0  0  0  0  0  0  0  0  0  0  0  0
   36.6061   34.2410   25.0411 C   0  0  0  0  0  0  0  0  0  0  0  0
   35.5856   33.3804   24.8574 C   0  0  0  0  0  0  0  0  0  0  0  0
   35.4772   32.1570   25.8507 C   0  0  0  0  0  0  0  0  0  0  0  0
   34.5742   31.4035   25.6763 O   0  0  0  0  0  0  0  0  0  0  0  0
   34.6695   33.7849   23.6875 C   0  0  0  0  0  0  0  0  0  0  0  0
   35.2083   34.9052   23.1934 C   0  0  0  0  0  0  0  0  0  0  0  0
   36.3306   35.3460   23.8416 N   0  0  0  0  0  0  0  0  0  0  0  0
   33.4736   33.0508   23.2160 C   0  0  0  0  0  0  0  0  0  0  0  0
   32.5348   32.4517   22.9050 N   0  0  0  0  0  0  0  0  0  0  0  0
  1  2  1  0  0  0  0
  1  7  1  0  0  0  0
  2  3  1  0  0  0  0
  2  4  2  0  0  0  0
  4  5  1  0  0  0  0
  5  6  2  0  0  0  0
  5 11  1  0  0  0  0
  6  7  1  0  0  0  0
  6  9  1  0  0  0  0
  7  8  2  0  0  0  0
  9 10  2  0  0  0  0
  9 12  1  0  0  0  0
 10 11  1  0  0  0  0
 12 13  3  0  0  0  0
M  END
>  <CHROM.1>
35.73514048,33.26285531,25.10708756,0.49421836,0.60121579,2.42446944

>  <Name>
ligand

>  <RI>
0

>  <Rbt.Current_Directory>
/home/itssahil/PROJECTS/Mol_Feturizer/New_Systems/rnas/3GCA

>  <Rbt.Executable>
rbdock ($Id: //depot/dev/client3/rdock/2013.1/src/exe/rbdock.cxx#4 $)

>  <Rbt.Library>
libRbt.so (2013.1, Build901 2013/11/27)

>  <Rbt.Parameter_File>
/export/apps/rDock/src/rDock_2013.1_src/data/scripts/dock_solv.prm

>  <Rbt.Receptor>
prm/blind_docking_100.prm

>  <SCORE>
-24.0639

>  <SCORE.INTER>
-24.0639

>  <SCORE.INTER.CONST>
1

>  <SCORE.INTER.POLAR>
0

>  <SCORE.INTER.ROT>
0

>  <SCORE.INTER.SOLV>
11.3527

>  <SCORE.INTER.VDW>
-23.4268

>  <SCORE.INTER.norm>
-1.85107

>  <SCORE.INTRA>
0

>  <SCORE.INTRA.DIHEDRAL>
0

>  <SCORE.INTRA.DIHEDRAL.0>
0

>  <SCORE.INTRA.POLAR>
0

>  <SCORE.INTRA.POLAR.0>
0

>  <SCORE.INTRA.REPUL>
0

>  <SCORE.INTRA.REPUL.0>
0

>  <SCORE.INTRA.SOLV>
0

>  <SCORE.INTRA.SOLV.lig_0>
-33.1994

>  <SCORE.INTRA.VDW>
0

>  <SCORE.INTRA.VDW.0>
0

>  <SCORE.INTRA.norm>
0

>  <SCORE.RESTR>
0

>  <SCORE.RESTR.CAVITY>
0

>  <SCORE.RESTR.norm>
0

>  <SCORE.SYSTEM>
0

>  <SCORE.SYSTEM.CONST>
0

>  <SCORE.SYSTEM.DIHEDRAL>
0

>  <SCORE.SYSTEM.SOLV>
0

>  <SCORE.SYSTEM.norm>
0

>  <SCORE.heavy>
13

>  <SCORE.norm>
-1.85107

>  <RMSD>
4.892

$$$$
ligand
 OpenBabel11021811473D
libRbt.so/2013.1/901 2013/11/27
 13 14  0  0  0  0  0  0  0  0999 V2000
   36.4349   32.0557   26.7509 N   0  0  0  0  0  0  0  0  0  0  0  0
   37.5787   33.1425   26.8957 C   0  0  0  0  0  0  0  0  0  0  0  0
   38.5258   32.9924   27.8897 N   0  0  0  0  0  0  0  0  0  0  0  0
   37.4583   34.0743   26.0465 N   0  0  0  0  0  0  0  0  0  0  0  0
   36.5655   34.2659   25.0563 C   0  0  0  0  0  0  0  0  0  0  0  0
   35.5656   33.3850   24.8566 C   0  0  0  0  0  0  0  0  0  0  0  0
   35.4868   32.1407   25.8264 C   0  0  0  0  0  0  0  0  0  0  0  0
   34.6019   31.3694   25.6379 O   0  0  0  0  0  0  0  0  0  0  0  0
   34.6393   33.7898   23.6948 C   0  0  0  0  0  0  0  0  0  0  0  0
   35.1510   34.9318   23.2220 C   0  0  0  0  0  0  0  0  0  0  0  0
   36.2630   35.3867   23.8782 N   0  0  0  0  0  0  0  0  0  0  0  0
   33.4608   33.0366   23.2096 C   0  0  0  0  0  0  0  0  0  0  0  0
   32.5363   32.4214   22.8875 N   0  0  0  0  0  0  0  0  0  0  0  0
  1  2  1  0  0  0  0
  1  7  1  0  0  0  0
  2  3  1  0  0  0  0
  2  4  2  0  0  0  0
  4  5  1  0  0  0  0
  5  6  2  0  0  0  0
  5 11  1  0  0  0  0
  6  7  1  0  0  0  0
  6  9  1  0  0  0  0
  7  8  2  0  0  0  0
  9 10  2  0  0  0  0
  9 12  1  0  0  0  0
 10 11  1  0  0  0  0
 12 13  3  0  0  0  0
M  END
>  <CHROM.1>
35.71799270,33.26629077,25.10388365,0.47174560,0.61618183,2.45635404

>  <Name>
ligand

>  <RI>
0

>  <Rbt.Current_Directory>
/home/itssahil/PROJECTS/Mol_Feturizer/New_Systems/rnas/3GCA

>  <Rbt.Executable>
rbdock ($Id: //depot/dev/client3/rdock/2013.1/src/exe/rbdock.cxx#4 $)

>  <Rbt.Library>
libRbt.so (2013.1, Build901 2013/11/27)

>  <Rbt.Parameter_File>
/export/apps/rDock/src/rDock_2013.1_src/data/scripts/dock_solv.prm

>  <Rbt.Receptor>
prm/blind_docking_60.prm

>  <SCORE>
-24.0284

>  <SCORE.INTER>
-24.0284

>  <SCORE.INTER.CONST>
1

>  <SCORE.INTER.POLAR>
0

>  <SCORE.INTER.ROT>
0

>  <SCORE.INTER.SOLV>
11.4014

>  <SCORE.INTER.VDW>
-23.4194

>  <SCORE.INTER.norm>
-1.84834

>  <SCORE.INTRA>
0

>  <SCORE.INTRA.DIHEDRAL>
0

>  <SCORE.INTRA.DIHEDRAL.0>
0

>  <SCORE.INTRA.POLAR>
0

>  <SCORE.INTRA.POLAR.0>
0

>  <SCORE.INTRA.REPUL>
0

>  <SCORE.INTRA.REPUL.0>
0

>  <SCORE.INTRA.SOLV>
0

>  <SCORE.INTRA.SOLV.lig_0>
-33.1994

>  <SCORE.INTRA.VDW>
0

>  <SCORE.INTRA.VDW.0>
0

>  <SCORE.INTRA.norm>
0

>  <SCORE.RESTR>
0

>  <SCORE.RESTR.CAVITY>
0

>  <SCORE.RESTR.norm>
0

>  <SCORE.SYSTEM>
0

>  <SCORE.SYSTEM.CONST>
0

>  <SCORE.SYSTEM.DIHEDRAL>
0

>  <SCORE.SYSTEM.SOLV>
0

>  <SCORE.SYSTEM.norm>
0

>  <SCORE.heavy>
13

>  <SCORE.norm>
-1.84834

>  <RMSD>
4.892

$$$$
ligand
 OpenBabel11021811473D
libRbt.so/2013.1/901 2013/11/27
 13 14  0  0  0  0  0  0  0  0999 V2000
   36.4154   32.0748   26.7811 N   0  0  0  0  0  0  0  0  0  0  0  0
   37.5857   33.1358   26.9037 C   0  0  0  0  0  0  0  0  0  0  0  0
   38.5280   32.9839   27.9020 N   0  0  0  0  0  0  0  0  0  0  0  0
   37.4891   34.0515   26.0343 N   0  0  0  0  0  0  0  0  0  0  0  0
   36.6020   34.2437   25.0391 C   0  0  0  0  0  0  0  0  0  0  0  0
   35.5807   33.3837   24.8572 C   0  0  0  0  0  0  0  0  0  0  0  0
   35.4704   32.1631   25.8538 C   0  0  0  0  0  0  0  0  0  0  0  0
   34.5667   31.4101   25.6810 O   0  0  0  0  0  0  0  0  0  0  0  0
   34.6656   33.7860   23.6857 C   0  0  0  0  0  0  0  0  0  0  0  0
   35.2059   34.9044   23.1889 C   0  0  0  0  0  0  0  0  0  0  0  0
   36.3283   35.3457   23.8365 N   0  0  0  0  0  0  0  0  0  0  0  0
   33.4692   33.0519   23.2155 C   0  0  0  0  0  0  0  0  0  0  0  0
   32.5299   32.4530   22.9057 N   0  0  0  0  0  0  0  0  0  0  0  0
  1  2  1  0  0  0  0
  1  7  1  0  0  0  0
  2  3  1  0  0  0  0
  2  4  2  0  0  0  0
  4  5  1  0  0  0  0
  5  6  2  0  0  0  0
  5 11  1  0  0  0  0
  6  7  1  0  0  0  0
  6  9  1  0  0  0  0
  7  8  2  0  0  0  0
  9 10  2  0  0  0  0
  9 12  1  0  0  0  0
 10 11  1  0  0  0  0
 12 13  3  0  0  0  0
M  END
>  <CHROM.1>
35.72996515,33.26666695,25.10727106,0.49562406,0.60091434,2.42095492

>  <Name>
ligand

>  <RI>
0

>  <Rbt.Current_Directory>
/home/itssahil/PROJECTS/Mol_Feturizer/New_Systems/rnas/3GCA

>  <Rbt.Executable>
rbdock ($Id: //depot/dev/client3/rdock/2013.1/src/exe/rbdock.cxx#4 $)

>  <Rbt.Library>
libRbt.so (2013.1, Build901 2013/11/27)

>  <Rbt.Parameter_File>
/export/apps/rDock/src/rDock_2013.1_src/data/scripts/dock_solv.prm

>  <Rbt.Receptor>
prm/pocket_docking_3.prm

>  <SCORE>
-24.0606

>  <SCORE.INTER>
-24.0606

>  <SCORE.INTER.CONST>
1

>  <SCORE.INTER.POLAR>
0

>  <SCORE.INTER.ROT>
0

>  <SCORE.INTER.SOLV>
11.3817

>  <SCORE.INTER.VDW>
-23.4343

>  <SCORE.INTER.norm>
-1.85082

>  <SCORE.INTRA>
0

>  <SCORE.INTRA.DIHEDRAL>
0

>  <SCORE.INTRA.DIHEDRAL.0>
0

>  <SCORE.INTRA.POLAR>
0

>  <SCORE.INTRA.POLAR.0>
0

>  <SCORE.INTRA.REPUL>
0

>  <SCORE.INTRA.REPUL.0>
0

>  <SCORE.INTRA.SOLV>
0

>  <SCORE.INTRA.SOLV.lig_0>
-33.1994

>  <SCORE.INTRA.VDW>
0

>  <SCORE.INTRA.VDW.0>
0

>  <SCORE.INTRA.norm>
0

>  <SCORE.RESTR>
0

>  <SCORE.RESTR.CAVITY>
0

>  <SCORE.RESTR.norm>
0

>  <SCORE.SYSTEM>
0

>  <SCORE.SYSTEM.CONST>
0

>  <SCORE.SYSTEM.DIHEDRAL>
0

>  <SCORE.SYSTEM.SOLV>
0

>  <SCORE.SYSTEM.norm>
0

>  <SCORE.heavy>
13

>  <SCORE.norm>
-1.85082

>  <RMSD>
4.892

$$$$
ligand
 OpenBabel11021811473D
libRbt.so/2013.1/901 2013/11/27
 13 14  0  0  0  0  0  0  0  0999 V2000
   36.4182   32.0805   26.7686 N   0  0  0  0  0  0  0  0  0  0  0  0
   37.5859   33.1443   26.8914 C   0  0  0  0  0  0  0  0  0  0  0  0
   38.5301   32.9931   27.8880 N   0  0  0  0  0  0  0  0  0  0  0  0
   37.4856   34.0614   26.0238 N   0  0  0  0  0  0  0  0  0  0  0  0
   36.5965   34.2531   25.0303 C   0  0  0  0  0  0  0  0  0  0  0  0
   35.5771   33.3907   24.8484 C   0  0  0  0  0  0  0  0  0  0  0  0
   35.4716   32.1680   25.8429 C   0  0  0  0  0  0  0  0  0  0  0  0
   34.5696   31.4130   25.6700 O   0  0  0  0  0  0  0  0  0  0  0  0
   34.6592   33.7928   23.6791 C   0  0  0  0  0  0  0  0  0  0  0  0
   35.1957   34.9135   23.1834 C   0  0  0  0  0  0  0  0  0  0  0  0
   36.3180   35.3566   23.8301 N   0  0  0  0  0  0  0  0  0  0  0  0
   33.4640   33.0564   23.2093 C   0  0  0  0  0  0  0  0  0  0  0  0
   32.5258   32.4556   22.8998 N   0  0  0  0  0  0  0  0  0  0  0  0
  1  2  1  0  0  0  0
  1  7  1  0  0  0  0
  2  3  1  0  0  0  0
  2  4  2  0  0  0  0
  4  5  1  0  0  0  0
  5  6  2  0  0  0  0
  5 11  1  0  0  0  0
  6  7  1  0  0  0  0
  6  9  1  0  0  0  0
  7  8  2  0  0  0  0
  9 10  2  0  0  0  0
  9 12  1  0  0  0  0
 10 11  1  0  0  0  0
 12 13  3  0  0  0  0
M  END
>  <CHROM.1>
35.72708273,33.27363879,25.09801473,0.49199920,0.60149746,2.42485149

>  <Name>
ligand

>  <RI>
0

>  <Rbt.Current_Directory>
/home/itssahil/PROJECTS/Mol_Feturizer/New_Systems/rnas/3GCA

>  <Rbt.Executable>
rbdock ($Id: //depot/dev/client3/rdock/2013.1/src/exe/rbdock.cxx#4 $)

>  <Rbt.Library>
libRbt.so (2013.1, Build901 2013/11/27)

>  <Rbt.Parameter_File>
/export/apps/rDock/src/rDock_2013.1_src/data/scripts/dock_solv.prm

>  <Rbt.Receptor>
prm/pocket_docking_4.prm

>  <SCORE>
-24.0542

>  <SCORE.INTER>
-24.0542

>  <SCORE.INTER.CONST>
1

>  <SCORE.INTER.POLAR>
0

>  <SCORE.INTER.ROT>
0

>  <SCORE.INTER.SOLV>
11.356

>  <SCORE.INTER.VDW>
-23.4215

>  <SCORE.INTER.norm>
-1.85033

>  <SCORE.INTRA>
0

>  <SCORE.INTRA.DIHEDRAL>
0

>  <SCORE.INTRA.DIHEDRAL.0>
0

>  <SCORE.INTRA.POLAR>
0

>  <SCORE.INTRA.POLAR.0>
0

>  <SCORE.INTRA.REPUL>
0

>  <SCORE.INTRA.REPUL.0>
0

>  <SCORE.INTRA.SOLV>
0

>  <SCORE.INTRA.SOLV.lig_0>
-33.1994

>  <SCORE.INTRA.VDW>
0

>  <SCORE.INTRA.VDW.0>
0

>  <SCORE.INTRA.norm>
0

>  <SCORE.RESTR>
0

>  <SCORE.RESTR.CAVITY>
0

>  <SCORE.RESTR.norm>
0

>  <SCORE.SYSTEM>
0

>  <SCORE.SYSTEM.CONST>
0

>  <SCORE.SYSTEM.DIHEDRAL>
0

>  <SCORE.SYSTEM.SOLV>
0

>  <SCORE.SYSTEM.norm>
0

>  <SCORE.heavy>
13

>  <SCORE.norm>
-1.85033

>  <RMSD>
4.892

$$$$
ligand
 OpenBabel11021811473D
libRbt.so/2013.1/901 2013/11/27
 13 14  0  0  0  0  0  0  0  0999 V2000
   36.4169   32.0714   26.7830 N   0  0  0  0  0  0  0  0  0  0  0  0
   37.5945   33.1250   26.8995 C   0  0  0  0  0  0  0  0  0  0  0  0
   38.5354   32.9726   27.8990 N   0  0  0  0  0  0  0  0  0  0  0  0
   37.5045   34.0360   26.0244 N   0  0  0  0  0  0  0  0  0  0  0  0
   36.6190   34.2282   25.0278 C   0  0  0  0  0  0  0  0  0  0  0  0
   35.5918   33.3743   24.8509 C   0  0  0  0  0  0  0  0  0  0  0  0
   35.4728   32.1606   25.8548 C   0  0  0  0  0  0  0  0  0  0  0  0
   34.5639   31.4129   25.6863 O   0  0  0  0  0  0  0  0  0  0  0  0
   34.6799   33.7758   23.6767 C   0  0  0  0  0  0  0  0  0  0  0  0
   35.2280   34.8873   23.1731 C   0  0  0  0  0  0  0  0  0  0  0  0
   36.3533   35.3248   23.8184 N   0  0  0  0  0  0  0  0  0  0  0  0
   33.4785   33.0471   23.2105 C   0  0  0  0  0  0  0  0  0  0  0  0
   32.5352   32.4529   22.9041 N   0  0  0  0  0  0  0  0  0  0  0  0
  1  2  1  0  0  0  0
  1  7  1  0  0  0  0
  2  3  1  0  0  0  0
  2  4  2  0  0  0  0
  4  5  1  0  0  0  0
  5  6  2  0  0  0  0
  5 11  1  0  0  0  0
  6  7  1  0  0  0  0
  6  9  1  0  0  0  0
  7  8  2  0  0  0  0
  9 10  2  0  0  0  0
  9 12  1  0  0  0  0
 10 11  1  0  0  0  0
 12 13  3  0  0  0  0
M  END
>  <CHROM.1>
35.74018589,33.25776432,25.10167521,0.50216050,0.59651691,2.41115529

>  <Name>
ligand

>  <RI>
0

>  <Rbt.Current_Directory>
/home/itssahil/PROJECTS/Mol_Feturizer/New_Systems/rnas/3GCA

>  <Rbt.Executable>
rbdock ($Id: //depot/dev/client3/rdock/2013.1/src/exe/rbdock.cxx#4 $)

>  <Rbt.Library>
libRbt.so (2013.1, Build901 2013/11/27)

>  <Rbt.Parameter_File>
/export/apps/rDock/src/rDock_2013.1_src/data/scripts/dock_solv.prm

>  <Rbt.Receptor>
prm/pocket_docking_4.prm

>  <SCORE>
-24.0818

>  <SCORE.INTER>
-24.0818

>  <SCORE.INTER.CONST>
1

>  <SCORE.INTER.POLAR>
0

>  <SCORE.INTER.ROT>
0

>  <SCORE.INTER.SOLV>
11.3494

>  <SCORE.INTER.VDW>
-23.4377

>  <SCORE.INTER.norm>
-1.85245

>  <SCORE.INTRA>
0

>  <SCORE.INTRA.DIHEDRAL>
0

>  <SCORE.INTRA.DIHEDRAL.0>
0

>  <SCORE.INTRA.POLAR>
0

>  <SCORE.INTRA.POLAR.0>
0

>  <SCORE.INTRA.REPUL>
0

>  <SCORE.INTRA.REPUL.0>
0

>  <SCORE.INTRA.SOLV>
0

>  <SCORE.INTRA.SOLV.lig_0>
-33.1994

>  <SCORE.INTRA.VDW>
0

>  <SCORE.INTRA.VDW.0>
0

>  <SCORE.INTRA.norm>
0

>  <SCORE.RESTR>
0

>  <SCORE.RESTR.CAVITY>
0

>  <SCORE.RESTR.norm>
0

>  <SCORE.SYSTEM>
0

>  <SCORE.SYSTEM.CONST>
0

>  <SCORE.SYSTEM.DIHEDRAL>
0

>  <SCORE.SYSTEM.SOLV>
0

>  <SCORE.SYSTEM.norm>
0

>  <SCORE.heavy>
13

>  <SCORE.norm>
-1.85245

>  <RMSD>
4.892

$$$$
ligand
 OpenBabel11021811473D
libRbt.so/2013.1/901 2013/11/27
 13 14  0  0  0  0  0  0  0  0999 V2000
   36.4240   32.0645   26.7755 N   0  0  0  0  0  0  0  0  0  0  0  0
   37.5939   33.1256   26.9018 C   0  0  0  0  0  0  0  0  0  0  0  0
   38.5360   32.9708   27.8999 N   0  0  0  0  0  0  0  0  0  0  0  0
   37.4972   34.0441   26.0353 N   0  0  0  0  0  0  0  0  0  0  0  0
   36.6103   34.2391   25.0405 C   0  0  0  0  0  0  0  0  0  0  0  0
   35.5894   33.3793   24.8556 C   0  0  0  0  0  0  0  0  0  0  0  0
   35.4792   32.1555   25.8482 C   0  0  0  0  0  0  0  0  0  0  0  0
   34.5759   31.4028   25.6727 O   0  0  0  0  0  0  0  0  0  0  0  0
   34.6744   33.7851   23.6852 C   0  0  0  0  0  0  0  0  0  0  0  0
   35.2144   34.9053   23.1920 C   0  0  0  0  0  0  0  0  0  0  0  0
   36.3365   35.3449   23.8414 N   0  0  0  0  0  0  0  0  0  0  0  0
   33.4784   33.0521   23.2122 C   0  0  0  0  0  0  0  0  0  0  0  0
   32.5395   32.4538   22.9002 N   0  0  0  0  0  0  0  0  0  0  0  0
  1  2  1  0  0  0  0
  1  7  1  0  0  0  0
  2  3  1  0  0  0  0
  2  4  2  0  0  0  0
  4  5  1  0  0  0  0
  5  6  2  0  0  0  0
  5 11  1  0  0  0  0
  6  7  1  0  0  0  0
  6  9  1  0  0  0  0
  7  8  2  0  0  0  0
  9 10  2  0  0  0  0
  9 12  1  0  0  0  0
 10 11  1  0  0  0  0
 12 13  3  0  0  0  0
M  END
>  <CHROM.1>
35.73859498,33.26156809,25.10529989,0.49550698,0.60135663,2.42425001

>  <Name>
ligand

>  <RI>
0

>  <Rbt.Current_Directory>
/home/itssahil/PROJECTS/Mol_Feturizer/New_Systems/rnas/3GCA

>  <Rbt.Executable>
rbdock ($Id: //depot/dev/client3/rdock/2013.1/src/exe/rbdock.cxx#4 $)

>  <Rbt.Library>
libRbt.so (2013.1, Build901 2013/11/27)

>  <Rbt.Parameter_File>
/export/apps/rDock/src/rDock_2013.1_src/data/scripts/dock_solv.prm

>  <Rbt.Receptor>
prm/pocket_docking_5.prm

>  <SCORE>
-24.0621

>  <SCORE.INTER>
-24.0621

>  <SCORE.INTER.CONST>
1

>  <SCORE.INTER.POLAR>
0

>  <SCORE.INTER.ROT>
0

>  <SCORE.INTER.SOLV>
11.3489

>  <SCORE.INTER.VDW>
-23.4243

>  <SCORE.INTER.norm>
-1.85093

>  <SCORE.INTRA>
0

>  <SCORE.INTRA.DIHEDRAL>
0

>  <SCORE.INTRA.DIHEDRAL.0>
0

>  <SCORE.INTRA.POLAR>
0

>  <SCORE.INTRA.POLAR.0>
0

>  <SCORE.INTRA.REPUL>
0

>  <SCORE.INTRA.REPUL.0>
0

>  <SCORE.INTRA.SOLV>
0

>  <SCORE.INTRA.SOLV.lig_0>
-33.1994

>  <SCORE.INTRA.VDW>
0

>  <SCORE.INTRA.VDW.0>
0

>  <SCORE.INTRA.norm>
0

>  <SCORE.RESTR>
0

>  <SCORE.RESTR.CAVITY>
0

>  <SCORE.RESTR.norm>
0

>  <SCORE.SYSTEM>
0

>  <SCORE.SYSTEM.CONST>
0

>  <SCORE.SYSTEM.DIHEDRAL>
0

>  <SCORE.SYSTEM.SOLV>
0

>  <SCORE.SYSTEM.norm>
0

>  <SCORE.heavy>
13

>  <SCORE.norm>
-1.85093

>  <RMSD>
4.892

$$$$
ligand
 OpenBabel11021811473D
libRbt.so/2013.1/901 2013/11/27
 13 14  0  0  0  0  0  0  0  0999 V2000
   36.4230   32.0683   26.7779 N   0  0  0  0  0  0  0  0  0  0  0  0
   37.5903   33.1323   26.9031 C   0  0  0  0  0  0  0  0  0  0  0  0
   38.5346   32.9791   27.8993 N   0  0  0  0  0  0  0  0  0  0  0  0
   37.4895   34.0513   26.0377 N   0  0  0  0  0  0  0  0  0  0  0  0
   36.6003   34.2449   25.0446 C   0  0  0  0  0  0  0  0  0  0  0  0
   35.5813   33.3826   24.8607 C   0  0  0  0  0  0  0  0  0  0  0  0
   35.4763   32.1576   25.8524 C   0  0  0  0  0  0  0  0  0  0  0  0
   34.5746   31.4026   25.6778 O   0  0  0  0  0  0  0  0  0  0  0  0
   34.6632   33.7870   23.6924 C   0  0  0  0  0  0  0  0  0  0  0  0
   35.1993   34.9091   23.1993 C   0  0  0  0  0  0  0  0  0  0  0  0
   36.3214   35.3512   23.8470 N   0  0  0  0  0  0  0  0  0  0  0  0
   33.4683   33.0512   23.2209 C   0  0  0  0  0  0  0  0  0  0  0  0
   32.5304   32.4508   22.9101 N   0  0  0  0  0  0  0  0  0  0  0  0
  1  2  1  0  0  0  0
  1  7  1  0  0  0  0
  2  3  1  0  0  0  0
  2  4  2  0  0  0  0
  4  5  1  0  0  0  0
  5  6  2  0  0  0  0
  5 11  1  0  0  0  0
  6  7  1  0  0  0  0
  6  9  1  0  0  0  0
  7  8  2  0  0  0  0
  9 10  2  0  0  0  0
  9 12  1  0  0  0  0
 10 11  1  0  0  0  0
 12 13  3  0  0  0  0
M  END
>  <CHROM.1>
35.73135171,33.26500561,25.11007690,0.49162255,0.60174216,2.42738197

>  <Name>
ligand

>  <RI>
0

>  <Rbt.Current_Directory>
/home/itssahil/PROJECTS/Mol_Feturizer/New_Systems/rnas/3GCA

>  <Rbt.Executable>
rbdock ($Id: //depot/dev/client3/rdock/2013.1/src/exe/rbdock.cxx#4 $)

>  <Rbt.Library>
libRbt.so (2013.1, Build901 2013/11/27)

>  <Rbt.Parameter_File>
/export/apps/rDock/src/rDock_2013.1_src/data/scripts/dock_solv.prm

>  <Rbt.Receptor>
prm/pocket_docking_6.prm

>  <SCORE>
-24.0649

>  <SCORE.INTER>
-24.0649

>  <SCORE.INTER.CONST>
1

>  <SCORE.INTER.POLAR>
0

>  <SCORE.INTER.ROT>
0

>  <SCORE.INTER.SOLV>
11.3548

>  <SCORE.INTER.VDW>
-23.4282

>  <SCORE.INTER.norm>
-1.85115

>  <SCORE.INTRA>
0

>  <SCORE.INTRA.DIHEDRAL>
0

>  <SCORE.INTRA.DIHEDRAL.0>
0

>  <SCORE.INTRA.POLAR>
0

>  <SCORE.INTRA.POLAR.0>
0

>  <SCORE.INTRA.REPUL>
0

>  <SCORE.INTRA.REPUL.0>
0

>  <SCORE.INTRA.SOLV>
0

>  <SCORE.INTRA.SOLV.lig_0>
-33.1994

>  <SCORE.INTRA.VDW>
0

>  <SCORE.INTRA.VDW.0>
0

>  <SCORE.INTRA.norm>
0

>  <SCORE.RESTR>
0

>  <SCORE.RESTR.CAVITY>
0

>  <SCORE.RESTR.norm>
0

>  <SCORE.SYSTEM>
0

>  <SCORE.SYSTEM.CONST>
0

>  <SCORE.SYSTEM.DIHEDRAL>
0

>  <SCORE.SYSTEM.SOLV>
0

>  <SCORE.SYSTEM.norm>
0

>  <SCORE.heavy>
13

>  <SCORE.norm>
-1.85115

>  <RMSD>
4.892

$$$$
ligand
 OpenBabel11021811473D
libRbt.so/2013.1/901 2013/11/27
 13 14  0  0  0  0  0  0  0  0999 V2000
   36.4242   32.0668   26.7770 N   0  0  0  0  0  0  0  0  0  0  0  0
   37.5919   33.1303   26.9028 C   0  0  0  0  0  0  0  0  0  0  0  0
   38.5356   32.9766   27.8995 N   0  0  0  0  0  0  0  0  0  0  0  0
   37.4920   34.0495   26.0374 N   0  0  0  0  0  0  0  0  0  0  0  0
   36.6033   34.2435   25.0440 C   0  0  0  0  0  0  0  0  0  0  0  0
   35.5840   33.3817   24.8596 C   0  0  0  0  0  0  0  0  0  0  0  0
   35.4780   32.1566   25.8510 C   0  0  0  0  0  0  0  0  0  0  0  0
   34.5761   31.4020   25.6760 O   0  0  0  0  0  0  0  0  0  0  0  0
   34.6666   33.7866   23.6908 C   0  0  0  0  0  0  0  0  0  0  0  0
   35.2034   34.9085   23.1981 C   0  0  0  0  0  0  0  0  0  0  0  0
   36.3254   35.3500   23.8464 N   0  0  0  0  0  0  0  0  0  0  0  0
   33.4717   33.0513   23.2187 C   0  0  0  0  0  0  0  0  0  0  0  0
   32.5336   32.4513   22.9073 N   0  0  0  0  0  0  0  0  0  0  0  0
  1  2  1  0  0  0  0
  1  7  1  0  0  0  0
  2  3  1  0  0  0  0
  2  4  2  0  0  0  0
  4  5  1  0  0  0  0
  5  6  2  0  0  0  0
  5 11  1  0  0  0  0
  6  7  1  0  0  0  0
  6  9  1  0  0  0  0
  7  8  2  0  0  0  0
  9 10  2  0  0  0  0
  9 12  1  0  0  0  0
 10 11  1  0  0  0  0
 12 13  3  0  0  0  0
M  END
>  <CHROM.1>
35.73387262,33.26398522,25.10894022,0.49238489,0.60182879,2.42704234

>  <Name>
ligand

>  <RI>
0

>  <Rbt.Current_Directory>
/home/itssahil/PROJECTS/Mol_Feturizer/New_Systems/rnas/3GCA

>  <Rbt.Executable>
rbdock ($Id: //depot/dev/client3/rdock/2013.1/src/exe/rbdock.cxx#4 $)

>  <Rbt.Library>
libRbt.so (2013.1, Build901 2013/11/27)

>  <Rbt.Parameter_File>
/export/apps/rDock/src/rDock_2013.1_src/data/scripts/dock_solv.prm

>  <Rbt.Receptor>
prm/pocket_docking_6.prm

>  <SCORE>
-24.0655

>  <SCORE.INTER>
-24.0655

>  <SCORE.INTER.CONST>
1

>  <SCORE.INTER.POLAR>
0

>  <SCORE.INTER.ROT>
0

>  <SCORE.INTER.SOLV>
11.3503

>  <SCORE.INTER.VDW>
-23.4271

>  <SCORE.INTER.norm>
-1.85119

>  <SCORE.INTRA>
0

>  <SCORE.INTRA.DIHEDRAL>
0

>  <SCORE.INTRA.DIHEDRAL.0>
0

>  <SCORE.INTRA.POLAR>
0

>  <SCORE.INTRA.POLAR.0>
0

>  <SCORE.INTRA.REPUL>
0

>  <SCORE.INTRA.REPUL.0>
0

>  <SCORE.INTRA.SOLV>
0

>  <SCORE.INTRA.SOLV.lig_0>
-33.1994

>  <SCORE.INTRA.VDW>
0

>  <SCORE.INTRA.VDW.0>
0

>  <SCORE.INTRA.norm>
0

>  <SCORE.RESTR>
0

>  <SCORE.RESTR.CAVITY>
0

>  <SCORE.RESTR.norm>
0

>  <SCORE.SYSTEM>
0

>  <SCORE.SYSTEM.CONST>
0

>  <SCORE.SYSTEM.DIHEDRAL>
0

>  <SCORE.SYSTEM.SOLV>
0

>  <SCORE.SYSTEM.norm>
0

>  <SCORE.heavy>
13

>  <SCORE.norm>
-1.85119

>  <RMSD>
4.892

$$$$
ligand
 OpenBabel11021811473D
libRbt.so/2013.1/901 2013/11/27
 13 14  0  0  0  0  0  0  0  0999 V2000
   36.4202   32.0682   26.7778 N   0  0  0  0  0  0  0  0  0  0  0  0
   37.5880   33.1316   26.9033 C   0  0  0  0  0  0  0  0  0  0  0  0
   38.5319   32.9780   27.8998 N   0  0  0  0  0  0  0  0  0  0  0  0
   37.4879   34.0507   26.0378 N   0  0  0  0  0  0  0  0  0  0  0  0
   36.5991   34.2447   25.0446 C   0  0  0  0  0  0  0  0  0  0  0  0
   35.5797   33.3829   24.8604 C   0  0  0  0  0  0  0  0  0  0  0  0
   35.4738   32.1580   25.8520 C   0  0  0  0  0  0  0  0  0  0  0  0
   34.5718   31.4034   25.6773 O   0  0  0  0  0  0  0  0  0  0  0  0
   34.6621   33.7878   23.6918 C   0  0  0  0  0  0  0  0  0  0  0  0
   35.1988   34.9096   23.1989 C   0  0  0  0  0  0  0  0  0  0  0  0
   36.3210   35.3511   23.8469 N   0  0  0  0  0  0  0  0  0  0  0  0
   33.4669   33.0526   23.2201 C   0  0  0  0  0  0  0  0  0  0  0  0
   32.5288   32.4526   22.9090 N   0  0  0  0  0  0  0  0  0  0  0  0
  1  2  1  0  0  0  0
  1  7  1  0  0  0  0
  2  3  1  0  0  0  0
  2  4  2  0  0  0  0
  4  5  1  0  0  0  0
  5  6  2  0  0  0  0
  5 11  1  0  0  0  0
  6  7  1  0  0  0  0
  6  9  1  0  0  0  0
  7  8  2  0  0  0  0
  9 10  2  0  0  0  0
  9 12  1  0  0  0  0
 10 11  1  0  0  0  0
 12 13  3  0  0  0  0
M  END
>  <CHROM.1>
35.72958121,33.26525187,25.10981236,0.49227159,0.60161079,2.42700401

>  <Name>
ligand

>  <RI>
0

>  <Rbt.Current_Directory>
/home/itssahil/PROJECTS/Mol_Feturizer/New_Systems/rnas/3GCA

>  <Rbt.Executable>
rbdock ($Id: //depot/dev/client3/rdock/2013.1/src/exe/rbdock.cxx#4 $)

>  <Rbt.Library>
libRbt.so (2013.1, Build901 2013/11/27)

>  <Rbt.Parameter_File>
/export/apps/rDock/src/rDock_2013.1_src/data/scripts/dock_solv.prm

>  <Rbt.Receptor>
prm/pocket_docking_6.prm

>  <SCORE>
-24.0621

>  <SCORE.INTER>
-24.0621

>  <SCORE.INTER.CONST>
1

>  <SCORE.INTER.POLAR>
0

>  <SCORE.INTER.ROT>
0

>  <SCORE.INTER.SOLV>
11.3668

>  <SCORE.INTER.VDW>
-23.4304

>  <SCORE.INTER.norm>
-1.85093

>  <SCORE.INTRA>
0

>  <SCORE.INTRA.DIHEDRAL>
0

>  <SCORE.INTRA.DIHEDRAL.0>
0

>  <SCORE.INTRA.POLAR>
0

>  <SCORE.INTRA.POLAR.0>
0

>  <SCORE.INTRA.REPUL>
0

>  <SCORE.INTRA.REPUL.0>
0

>  <SCORE.INTRA.SOLV>
0

>  <SCORE.INTRA.SOLV.lig_0>
-33.1994

>  <SCORE.INTRA.VDW>
0

>  <SCORE.INTRA.VDW.0>
0

>  <SCORE.INTRA.norm>
0

>  <SCORE.RESTR>
0

>  <SCORE.RESTR.CAVITY>
0

>  <SCORE.RESTR.norm>
0

>  <SCORE.SYSTEM>
0

>  <SCORE.SYSTEM.CONST>
0

>  <SCORE.SYSTEM.DIHEDRAL>
0

>  <SCORE.SYSTEM.SOLV>
0

>  <SCORE.SYSTEM.norm>
0

>  <SCORE.heavy>
13

>  <SCORE.norm>
-1.85093

>  <RMSD>
4.892

$$$$
ligand
 OpenBabel11021811473D
libRbt.so/2013.1/901 2013/11/27
 13 14  0  0  0  0  0  0  0  0999 V2000
   36.4073   32.0763   26.7811 N   0  0  0  0  0  0  0  0  0  0  0  0
   37.5835   33.1314   26.8973 C   0  0  0  0  0  0  0  0  0  0  0  0
   38.5250   32.9801   27.8965 N   0  0  0  0  0  0  0  0  0  0  0  0
   37.4920   34.0425   26.0225 N   0  0  0  0  0  0  0  0  0  0  0  0
   36.6060   34.2337   25.0262 C   0  0  0  0  0  0  0  0  0  0  0  0
   35.5798   33.3784   24.8495 C   0  0  0  0  0  0  0  0  0  0  0  0
   35.4627   32.1644   25.8533 C   0  0  0  0  0  0  0  0  0  0  0  0
   34.5547   31.4156   25.6850 O   0  0  0  0  0  0  0  0  0  0  0  0
   34.6669   33.7790   23.6757 C   0  0  0  0  0  0  0  0  0  0  0  0
   35.2134   34.8913   23.1722 C   0  0  0  0  0  0  0  0  0  0  0  0
   36.3384   35.3301   23.8171 N   0  0  0  0  0  0  0  0  0  0  0  0
   33.4663   33.0488   23.2099 C   0  0  0  0  0  0  0  0  0  0  0  0
   32.5236   32.4534   22.9037 N   0  0  0  0  0  0  0  0  0  0  0  0
  1  2  1  0  0  0  0
  1  7  1  0  0  0  0
  2  3  1  0  0  0  0
  2  4  2  0  0  0  0
  4  5  1  0  0  0  0
  5  6  2  0  0  0  0
  5 11  1  0  0  0  0
  6  7  1  0  0  0  0
  6  9  1  0  0  0  0
  7  8  2  0  0  0  0
  9 10  2  0  0  0  0
  9 12  1  0  0  0  0
 10 11  1  0  0  0  0
 12 13  3  0  0  0  0
M  END
>  <CHROM.1>
35.72840482,33.26205164,25.10022789,0.50068231,0.59711651,2.41216769

>  <Name>
ligand

>  <RI>
0

>  <Rbt.Current_Directory>
/home/itssahil/PROJECTS/Mol_Feturizer/New_Systems/rnas/3GCA

>  <Rbt.Executable>
rbdock ($Id: //depot/dev/client3/rdock/2013.1/src/exe/rbdock.cxx#4 $)

>  <Rbt.Library>
libRbt.so (2013.1, Build901 2013/11/27)

>  <Rbt.Parameter_File>
/export/apps/rDock/src/rDock_2013.1_src/data/scripts/dock_solv.prm

>  <Rbt.Receptor>
prm/pocket_docking_6.prm

>  <SCORE>
-24.0625

>  <SCORE.INTER>
-24.0625

>  <SCORE.INTER.CONST>
1

>  <SCORE.INTER.POLAR>
0

>  <SCORE.INTER.ROT>
0

>  <SCORE.INTER.SOLV>
11.3918

>  <SCORE.INTER.VDW>
-23.4389

>  <SCORE.INTER.norm>
-1.85096

>  <SCORE.INTRA>
0

>  <SCORE.INTRA.DIHEDRAL>
0

>  <SCORE.INTRA.DIHEDRAL.0>
0

>  <SCORE.INTRA.POLAR>
0

>  <SCORE.INTRA.POLAR.0>
0

>  <SCORE.INTRA.REPUL>
0

>  <SCORE.INTRA.REPUL.0>
0

>  <SCORE.INTRA.SOLV>
0

>  <SCORE.INTRA.SOLV.lig_0>
-33.1994

>  <SCORE.INTRA.VDW>
0

>  <SCORE.INTRA.VDW.0>
0

>  <SCORE.INTRA.norm>
0

>  <SCORE.RESTR>
0

>  <SCORE.RESTR.CAVITY>
0

>  <SCORE.RESTR.norm>
0

>  <SCORE.SYSTEM>
0

>  <SCORE.SYSTEM.CONST>
0

>  <SCORE.SYSTEM.DIHEDRAL>
0

>  <SCORE.SYSTEM.SOLV>
0

>  <SCORE.SYSTEM.norm>
0

>  <SCORE.heavy>
13

>  <SCORE.norm>
-1.85096

>  <RMSD>
4.892

$$$$
ligand
 OpenBabel11021811473D
libRbt.so/2013.1/901 2013/11/27
 13 14  0  0  0  0  0  0  0  0999 V2000
   36.4176   32.0688   26.7775 N   0  0  0  0  0  0  0  0  0  0  0  0
   37.5894   33.1282   26.8990 C   0  0  0  0  0  0  0  0  0  0  0  0
   38.5327   32.9747   27.8961 N   0  0  0  0  0  0  0  0  0  0  0  0
   37.4930   34.0443   26.0300 N   0  0  0  0  0  0  0  0  0  0  0  0
   36.6050   34.2380   25.0359 C   0  0  0  0  0  0  0  0  0  0  0  0
   35.5823   33.3794   24.8550 C   0  0  0  0  0  0  0  0  0  0  0  0
   35.4716   32.1586   25.8513 C   0  0  0  0  0  0  0  0  0  0  0  0
   34.5667   31.4069   25.6793 O   0  0  0  0  0  0  0  0  0  0  0  0
   34.6663   33.7833   23.6848 C   0  0  0  0  0  0  0  0  0  0  0  0
   35.2074   34.9012   23.1876 C   0  0  0  0  0  0  0  0  0  0  0  0
   36.3313   35.3408   23.8340 N   0  0  0  0  0  0  0  0  0  0  0  0
   33.4684   33.0509   23.2158 C   0  0  0  0  0  0  0  0  0  0  0  0
   32.5280   32.4533   22.9069 N   0  0  0  0  0  0  0  0  0  0  0  0
  1  2  1  0  0  0  0
  1  7  1  0  0  0  0
  2  3  1  0  0  0  0
  2  4  2  0  0  0  0
  4  5  1  0  0  0  0
  5  6  2  0  0  0  0
  5 11  1  0  0  0  0
  6  7  1  0  0  0  0
  6  9  1  0  0  0  0
  7  8  2  0  0  0  0
  9 10  2  0  0  0  0
  9 12  1  0  0  0  0
 10 11  1  0  0  0  0
 12 13  3  0  0  0  0
M  END
>  <CHROM.1>
35.73170203,33.26209302,25.10485914,0.49585864,0.59913944,2.42115012

>  <Name>
ligand

>  <RI>
0

>  <Rbt.Current_Directory>
/home/itssahil/PROJECTS/Mol_Feturizer/New_Systems/rnas/3GCA

>  <Rbt.Executable>
rbdock ($Id: //depot/dev/client3/rdock/2013.1/src/exe/rbdock.cxx#4 $)

>  <Rbt.Library>
libRbt.so (2013.1, Build901 2013/11/27)

>  <Rbt.Parameter_File>
/export/apps/rDock/src/rDock_2013.1_src/data/scripts/dock_solv.prm

>  <Rbt.Receptor>
prm/pocket_docking_6.prm

>  <SCORE>
-24.0618

>  <SCORE.INTER>
-24.0618

>  <SCORE.INTER.CONST>
1

>  <SCORE.INTER.POLAR>
0

>  <SCORE.INTER.ROT>
0

>  <SCORE.INTER.SOLV>
11.3608

>  <SCORE.INTER.VDW>
-23.4281

>  <SCORE.INTER.norm>
-1.85091

>  <SCORE.INTRA>
0

>  <SCORE.INTRA.DIHEDRAL>
0

>  <SCORE.INTRA.DIHEDRAL.0>
0

>  <SCORE.INTRA.POLAR>
0

>  <SCORE.INTRA.POLAR.0>
0

>  <SCORE.INTRA.REPUL>
0

>  <SCORE.INTRA.REPUL.0>
0

>  <SCORE.INTRA.SOLV>
0

>  <SCORE.INTRA.SOLV.lig_0>
-33.1994

>  <SCORE.INTRA.VDW>
0

>  <SCORE.INTRA.VDW.0>
0

>  <SCORE.INTRA.norm>
0

>  <SCORE.RESTR>
0

>  <SCORE.RESTR.CAVITY>
0

>  <SCORE.RESTR.norm>
0

>  <SCORE.SYSTEM>
0

>  <SCORE.SYSTEM.CONST>
0

>  <SCORE.SYSTEM.DIHEDRAL>
0

>  <SCORE.SYSTEM.SOLV>
0

>  <SCORE.SYSTEM.norm>
0

>  <SCORE.heavy>
13

>  <SCORE.norm>
-1.85091

>  <RMSD>
4.892

$$$$
ligand
 OpenBabel11021811473D
libRbt.so/2013.1/901 2013/11/27
 13 14  0  0  0  0  0  0  0  0999 V2000
   36.4547   32.0505   26.7448 N   0  0  0  0  0  0  0  0  0  0  0  0
   37.6116   33.1248   26.8782 C   0  0  0  0  0  0  0  0  0  0  0  0
   38.5643   32.9665   27.8656 N   0  0  0  0  0  0  0  0  0  0  0  0
   37.4952   34.0557   26.0275 N   0  0  0  0  0  0  0  0  0  0  0  0
   36.5972   34.2548   25.0436 C   0  0  0  0  0  0  0  0  0  0  0  0
   35.5860   33.3846   24.8536 C   0  0  0  0  0  0  0  0  0  0  0  0
   35.5007   32.1437   25.8272 C   0  0  0  0  0  0  0  0  0  0  0  0
   34.6058   31.3819   25.6473 O   0  0  0  0  0  0  0  0  0  0  0  0
   34.6557   33.7969   23.6977 C   0  0  0  0  0  0  0  0  0  0  0  0
   35.1765   34.9319   23.2181 C   0  0  0  0  0  0  0  0  0  0  0  0
   36.2984   35.3760   23.8648 N   0  0  0  0  0  0  0  0  0  0  0  0
   33.4653   33.0557   23.2233 C   0  0  0  0  0  0  0  0  0  0  0  0
   32.5316   32.4501   22.9097 N   0  0  0  0  0  0  0  0  0  0  0  0
  1  2  1  0  0  0  0
  1  7  1  0  0  0  0
  2  3  1  0  0  0  0
  2  4  2  0  0  0  0
  4  5  1  0  0  0  0
  5  6  2  0  0  0  0
  5 11  1  0  0  0  0
  6  7  1  0  0  0  0
  6  9  1  0  0  0  0
  7  8  2  0  0  0  0
  9 10  2  0  0  0  0
  9 12  1  0  0  0  0
 10 11  1  0  0  0  0
 12 13  3  0  0  0  0
M  END
>  <CHROM.1>
35.73899413,33.26486920,25.10007326,0.47649129,0.60330984,2.45110032

>  <Name>
ligand

>  <RI>
0

>  <Rbt.Current_Directory>
/home/itssahil/PROJECTS/Mol_Feturizer/New_Systems/rnas/3GCA

>  <Rbt.Executable>
rbdock ($Id: //depot/dev/client3/rdock/2013.1/src/exe/rbdock.cxx#4 $)

>  <Rbt.Library>
libRbt.so (2013.1, Build901 2013/11/27)

>  <Rbt.Parameter_File>
/export/apps/rDock/src/rDock_2013.1_src/data/scripts/dock_solv.prm

>  <Rbt.Receptor>
prm/pocket_docking_7.prm

>  <SCORE>
-23.9863

>  <SCORE.INTER>
-23.9863

>  <SCORE.INTER.CONST>
1

>  <SCORE.INTER.POLAR>
0

>  <SCORE.INTER.ROT>
0

>  <SCORE.INTER.SOLV>
11.2112

>  <SCORE.INTER.VDW>
-23.3279

>  <SCORE.INTER.norm>
-1.8451

>  <SCORE.INTRA>
0

>  <SCORE.INTRA.DIHEDRAL>
0

>  <SCORE.INTRA.DIHEDRAL.0>
0

>  <SCORE.INTRA.POLAR>
0

>  <SCORE.INTRA.POLAR.0>
0

>  <SCORE.INTRA.REPUL>
0

>  <SCORE.INTRA.REPUL.0>
0

>  <SCORE.INTRA.SOLV>
0

>  <SCORE.INTRA.SOLV.lig_0>
-33.1994

>  <SCORE.INTRA.VDW>
0

>  <SCORE.INTRA.VDW.0>
0

>  <SCORE.INTRA.norm>
0

>  <SCORE.RESTR>
0

>  <SCORE.RESTR.CAVITY>
0

>  <SCORE.RESTR.norm>
0

>  <SCORE.SYSTEM>
0

>  <SCORE.SYSTEM.CONST>
0

>  <SCORE.SYSTEM.DIHEDRAL>
0

>  <SCORE.SYSTEM.SOLV>
0

>  <SCORE.SYSTEM.norm>
0

>  <SCORE.heavy>
13

>  <SCORE.norm>
-1.8451

>  <RMSD>
4.892

$$$$
ligand
 OpenBabel11021811473D
libRbt.so/2013.1/901 2013/11/27
 13 14  0  0  0  0  0  0  0  0999 V2000
   36.4339   32.0404   26.7611 N   0  0  0  0  0  0  0  0  0  0  0  0
   37.5792   33.1252   26.9082 C   0  0  0  0  0  0  0  0  0  0  0  0
   38.5253   32.9723   27.9027 N   0  0  0  0  0  0  0  0  0  0  0  0
   37.4608   34.0583   26.0601 N   0  0  0  0  0  0  0  0  0  0  0  0
   36.5690   34.2526   25.0696 C   0  0  0  0  0  0  0  0  0  0  0  0
   35.5679   33.3735   24.8679 C   0  0  0  0  0  0  0  0  0  0  0  0
   35.4866   32.1280   25.8360 C   0  0  0  0  0  0  0  0  0  0  0  0
   34.6006   31.3584   25.6459 O   0  0  0  0  0  0  0  0  0  0  0  0
   34.6430   33.7814   23.7060 C   0  0  0  0  0  0  0  0  0  0  0  0
   35.1568   34.9232   23.2351 C   0  0  0  0  0  0  0  0  0  0  0  0
   36.2690   35.3755   23.8928 N   0  0  0  0  0  0  0  0  0  0  0  0
   33.4638   33.0306   23.2190 C   0  0  0  0  0  0  0  0  0  0  0  0
   32.5386   32.4172   22.8954 N   0  0  0  0  0  0  0  0  0  0  0  0
  1  2  1  0  0  0  0
  1  7  1  0  0  0  0
  2  3  1  0  0  0  0
  2  4  2  0  0  0  0
  4  5  1  0  0  0  0
  5  6  2  0  0  0  0
  5 11  1  0  0  0  0
  6  7  1  0  0  0  0
  6  9  1  0  0  0  0
  7  8  2  0  0  0  0
  9 10  2  0  0  0  0
  9 12  1  0  0  0  0
 10 11  1  0  0  0  0
 12 13  3  0  0  0  0
M  END
>  <CHROM.1>
35.71993978,33.25427287,25.11521712,0.47374995,0.61578693,2.45655436

>  <Name>
ligand

>  <RI>
0

>  <Rbt.Current_Directory>
/home/itssahil/PROJECTS/Mol_Feturizer/New_Systems/rnas/3GCA

>  <Rbt.Executable>
rbdock ($Id: //depot/dev/client3/rdock/2013.1/src/exe/rbdock.cxx#4 $)

>  <Rbt.Library>
libRbt.so (2013.1, Build901 2013/11/27)

>  <Rbt.Parameter_File>
/export/apps/rDock/src/rDock_2013.1_src/data/scripts/dock_solv.prm

>  <Rbt.Receptor>
prm/pocket_docking_7.prm

>  <SCORE>
-24.0281

>  <SCORE.INTER>
-24.0281

>  <SCORE.INTER.CONST>
1

>  <SCORE.INTER.POLAR>
0

>  <SCORE.INTER.ROT>
0

>  <SCORE.INTER.SOLV>
11.4296

>  <SCORE.INTER.VDW>
-23.4286

>  <SCORE.INTER.norm>
-1.84831

>  <SCORE.INTRA>
0

>  <SCORE.INTRA.DIHEDRAL>
0

>  <SCORE.INTRA.DIHEDRAL.0>
0

>  <SCORE.INTRA.POLAR>
0

>  <SCORE.INTRA.POLAR.0>
0

>  <SCORE.INTRA.REPUL>
0

>  <SCORE.INTRA.REPUL.0>
0

>  <SCORE.INTRA.SOLV>
0

>  <SCORE.INTRA.SOLV.lig_0>
-33.1994

>  <SCORE.INTRA.VDW>
0

>  <SCORE.INTRA.VDW.0>
0

>  <SCORE.INTRA.norm>
0

>  <SCORE.RESTR>
0

>  <SCORE.RESTR.CAVITY>
0

>  <SCORE.RESTR.norm>
0

>  <SCORE.SYSTEM>
0

>  <SCORE.SYSTEM.CONST>
0

>  <SCORE.SYSTEM.DIHEDRAL>
0

>  <SCORE.SYSTEM.SOLV>
0

>  <SCORE.SYSTEM.norm>
0

>  <SCORE.heavy>
13

>  <SCORE.norm>
-1.84831

>  <RMSD>
4.892

$$$$
ligand
 OpenBabel11021811473D
libRbt.so/2013.1/901 2013/11/27
 13 14  0  0  0  0  0  0  0  0999 V2000
   36.4519   32.0429   26.7665 N   0  0  0  0  0  0  0  0  0  0  0  0
   37.5758   33.1462   26.9391 C   0  0  0  0  0  0  0  0  0  0  0  0
   38.5187   32.9940   27.9368 N   0  0  0  0  0  0  0  0  0  0  0  0
   37.4450   34.0913   26.1063 N   0  0  0  0  0  0  0  0  0  0  0  0
   36.5555   34.2859   25.1137 C   0  0  0  0  0  0  0  0  0  0  0  0
   35.5723   33.3918   24.8909 C   0  0  0  0  0  0  0  0  0  0  0  0
   35.5086   32.1287   25.8372 C   0  0  0  0  0  0  0  0  0  0  0  0
   34.6383   31.3460   25.6285 O   0  0  0  0  0  0  0  0  0  0  0  0
   34.6468   33.8022   23.7304 C   0  0  0  0  0  0  0  0  0  0  0  0
   35.1419   34.9612   23.2821 C   0  0  0  0  0  0  0  0  0  0  0  0
   36.2416   35.4229   23.9542 N   0  0  0  0  0  0  0  0  0  0  0  0
   33.4848   33.0380   23.2233 C   0  0  0  0  0  0  0  0  0  0  0  0
   32.5731   32.4131   22.8836 N   0  0  0  0  0  0  0  0  0  0  0  0
  1  2  1  0  0  0  0
  1  7  1  0  0  0  0
  2  3  1  0  0  0  0
  2  4  2  0  0  0  0
  4  5  1  0  0  0  0
  5  6  2  0  0  0  0
  5 11  1  0  0  0  0
  6  7  1  0  0  0  0
  6  9  1  0  0  0  0
  7  8  2  0  0  0  0
  9 10  2  0  0  0  0
  9 12  1  0  0  0  0
 10 11  1  0  0  0  0
 12 13  3  0  0  0  0
M  END
>  <CHROM.1>
35.72509773,33.27122095,25.13705924,0.46039694,0.63215359,2.48138076

>  <Name>
ligand

>  <RI>
0

>  <Rbt.Current_Directory>
/home/itssahil/PROJECTS/Mol_Feturizer/New_Systems/rnas/3GCA

>  <Rbt.Executable>
rbdock ($Id: //depot/dev/client3/rdock/2013.1/src/exe/rbdock.cxx#4 $)

>  <Rbt.Library>
libRbt.so (2013.1, Build901 2013/11/27)

>  <Rbt.Parameter_File>
/export/apps/rDock/src/rDock_2013.1_src/data/scripts/dock_solv.prm

>  <Rbt.Receptor>
prm/pocket_docking_8.prm

>  <SCORE>
-24.0013

>  <SCORE.INTER>
-24.0013

>  <SCORE.INTER.CONST>
1

>  <SCORE.INTER.POLAR>
0

>  <SCORE.INTER.ROT>
0

>  <SCORE.INTER.SOLV>
11.4923

>  <SCORE.INTER.VDW>
-23.4316

>  <SCORE.INTER.norm>
-1.84625

>  <SCORE.INTRA>
0

>  <SCORE.INTRA.DIHEDRAL>
0

>  <SCORE.INTRA.DIHEDRAL.0>
0

>  <SCORE.INTRA.POLAR>
0

>  <SCORE.INTRA.POLAR.0>
0

>  <SCORE.INTRA.REPUL>
0

>  <SCORE.INTRA.REPUL.0>
0

>  <SCORE.INTRA.SOLV>
0

>  <SCORE.INTRA.SOLV.lig_0>
-33.1994

>  <SCORE.INTRA.VDW>
0

>  <SCORE.INTRA.VDW.0>
0

>  <SCORE.INTRA.norm>
0

>  <SCORE.RESTR>
0

>  <SCORE.RESTR.CAVITY>
0

>  <SCORE.RESTR.norm>
0

>  <SCORE.SYSTEM>
0

>  <SCORE.SYSTEM.CONST>
0

>  <SCORE.SYSTEM.DIHEDRAL>
0

>  <SCORE.SYSTEM.SOLV>
0

>  <SCORE.SYSTEM.norm>
0

>  <SCORE.heavy>
13

>  <SCORE.norm>
-1.84625

>  <RMSD>
4.892

$$$$
ligand
 OpenBabel11021811473D
libRbt.so/2013.1/901 2013/11/27
 13 14  0  0  0  0  0  0  0  0999 V2000
   36.4184   32.0715   26.7813 N   0  0  0  0  0  0  0  0  0  0  0  0
   37.5915   33.1297   26.9015 C   0  0  0  0  0  0  0  0  0  0  0  0
   38.5335   32.9773   27.9000 N   0  0  0  0  0  0  0  0  0  0  0  0
   37.4972   34.0438   26.0302 N   0  0  0  0  0  0  0  0  0  0  0  0
   36.6105   34.2362   25.0347 C   0  0  0  0  0  0  0  0  0  0  0  0
   35.5868   33.3786   24.8548 C   0  0  0  0  0  0  0  0  0  0  0  0
   35.4734   32.1604   25.8540 C   0  0  0  0  0  0  0  0  0  0  0  0
   34.5677   31.4095   25.6829 O   0  0  0  0  0  0  0  0  0  0  0  0
   34.6726   33.7809   23.6826 C   0  0  0  0  0  0  0  0  0  0  0  0
   35.2158   34.8968   23.1833 C   0  0  0  0  0  0  0  0  0  0  0  0
   36.3395   35.3365   23.8298 N   0  0  0  0  0  0  0  0  0  0  0  0
   33.4742   33.0490   23.2141 C   0  0  0  0  0  0  0  0  0  0  0  0
   32.5333   32.4519   22.9057 N   0  0  0  0  0  0  0  0  0  0  0  0
  1  2  1  0  0  0  0
  1  7  1  0  0  0  0
  2  3  1  0  0  0  0
  2  4  2  0  0  0  0
  4  5  1  0  0  0  0
  5  6  2  0  0  0  0
  5 11  1  0  0  0  0
  6  7  1  0  0  0  0
  6  9  1  0  0  0  0
  7  8  2  0  0  0  0
  9 10  2  0  0  0  0
  9 12  1  0  0  0  0
 10 11  1  0  0  0  0
 12 13  3  0  0  0  0
M  END
>  <CHROM.1>
35.73581813,33.26169925,25.10508897,0.49792460,0.59902270,2.41754166

>  <Name>
ligand

>  <RI>
0

>  <Rbt.Current_Directory>
/home/itssahil/PROJECTS/Mol_Feturizer/New_Systems/rnas/3GCA

>  <Rbt.Executable>
rbdock ($Id: //depot/dev/client3/rdock/2013.1/src/exe/rbdock.cxx#4 $)

>  <Rbt.Library>
libRbt.so (2013.1, Build901 2013/11/27)

>  <Rbt.Parameter_File>
/export/apps/rDock/src/rDock_2013.1_src/data/scripts/dock_solv.prm

>  <Rbt.Receptor>
prm/pocket_docking_8.prm

>  <SCORE>
-24.0569

>  <SCORE.INTER>
-24.0569

>  <SCORE.INTER.CONST>
1

>  <SCORE.INTER.POLAR>
0

>  <SCORE.INTER.ROT>
0

>  <SCORE.INTER.SOLV>
11.358

>  <SCORE.INTER.VDW>
-23.4239

>  <SCORE.INTER.norm>
-1.85053

>  <SCORE.INTRA>
0

>  <SCORE.INTRA.DIHEDRAL>
0

>  <SCORE.INTRA.DIHEDRAL.0>
0

>  <SCORE.INTRA.POLAR>
0

>  <SCORE.INTRA.POLAR.0>
0

>  <SCORE.INTRA.REPUL>
0

>  <SCORE.INTRA.REPUL.0>
0

>  <SCORE.INTRA.SOLV>
0

>  <SCORE.INTRA.SOLV.lig_0>
-33.1994

>  <SCORE.INTRA.VDW>
0

>  <SCORE.INTRA.VDW.0>
0

>  <SCORE.INTRA.norm>
0

>  <SCORE.RESTR>
0

>  <SCORE.RESTR.CAVITY>
0

>  <SCORE.RESTR.norm>
0

>  <SCORE.SYSTEM>
0

>  <SCORE.SYSTEM.CONST>
0

>  <SCORE.SYSTEM.DIHEDRAL>
0

>  <SCORE.SYSTEM.SOLV>
0

>  <SCORE.SYSTEM.norm>
0

>  <SCORE.heavy>
13

>  <SCORE.norm>
-1.85053

>  <RMSD>
4.892

$$$$
ligand
 OpenBabel11021811473D
libRbt.so/2013.1/901 2013/11/27
 13 14  0  0  0  0  0  0  0  0999 V2000
   36.4016   32.0884   26.7883 N   0  0  0  0  0  0  0  0  0  0  0  0
   37.5812   33.1404   26.8987 C   0  0  0  0  0  0  0  0  0  0  0  0
   38.5216   32.9923   27.8994 N   0  0  0  0  0  0  0  0  0  0  0  0
   37.4932   34.0464   26.0182 N   0  0  0  0  0  0  0  0  0  0  0  0
   36.6083   34.2342   25.0202 C   0  0  0  0  0  0  0  0  0  0  0  0
   35.5795   33.3812   24.8482 C   0  0  0  0  0  0  0  0  0  0  0  0
   35.4579   32.1739   25.8594 C   0  0  0  0  0  0  0  0  0  0  0  0
   34.5476   31.4269   25.6952 O   0  0  0  0  0  0  0  0  0  0  0  0
   34.6686   33.7774   23.6714 C   0  0  0  0  0  0  0  0  0  0  0  0
   35.2190   34.8848   23.1613 C   0  0  0  0  0  0  0  0  0  0  0  0
   36.3450   35.3240   23.8041 N   0  0  0  0  0  0  0  0  0  0  0  0
   33.4659   33.0482   23.2094 C   0  0  0  0  0  0  0  0  0  0  0  0
   32.5215   32.4539   22.9063 N   0  0  0  0  0  0  0  0  0  0  0  0
  1  2  1  0  0  0  0
  1  7  1  0  0  0  0
  2  3  1  0  0  0  0
  2  4  2  0  0  0  0
  4  5  1  0  0  0  0
  5  6  2  0  0  0  0
  5 11  1  0  0  0  0
  6  7  1  0  0  0  0
  6  9  1  0  0  0  0
  7  8  2  0  0  0  0
  9 10  2  0  0  0  0
  9 12  1  0  0  0  0
 10 11  1  0  0  0  0
 12 13  3  0  0  0  0
M  END
>  <CHROM.1>
35.72758874,33.26592313,25.09973320,0.50406990,0.59540948,2.40405045

>  <Name>
ligand

>  <RI>
0

>  <Rbt.Current_Directory>
/home/itssahil/PROJECTS/Mol_Feturizer/New_Systems/rnas/3GCA

>  <Rbt.Executable>
rbdock ($Id: //depot/dev/client3/rdock/2013.1/src/exe/rbdock.cxx#4 $)

>  <Rbt.Library>
libRbt.so (2013.1, Build901 2013/11/27)

>  <Rbt.Parameter_File>
/export/apps/rDock/src/rDock_2013.1_src/data/scripts/dock_solv.prm

>  <Rbt.Receptor>
prm/blind_docking_100.prm

>  <SCORE>
-24.0573

>  <SCORE.INTER>
-24.0573

>  <SCORE.INTER.CONST>
1

>  <SCORE.INTER.POLAR>
0

>  <SCORE.INTER.ROT>
0

>  <SCORE.INTER.SOLV>
11.4024

>  <SCORE.INTER.VDW>
-23.439

>  <SCORE.INTER.norm>
-1.85056

>  <SCORE.INTRA>
0

>  <SCORE.INTRA.DIHEDRAL>
0

>  <SCORE.INTRA.DIHEDRAL.0>
0

>  <SCORE.INTRA.POLAR>
0

>  <SCORE.INTRA.POLAR.0>
0

>  <SCORE.INTRA.REPUL>
0

>  <SCORE.INTRA.REPUL.0>
0

>  <SCORE.INTRA.SOLV>
0

>  <SCORE.INTRA.SOLV.lig_0>
-33.1994

>  <SCORE.INTRA.VDW>
0

>  <SCORE.INTRA.VDW.0>
0

>  <SCORE.INTRA.norm>
0

>  <SCORE.RESTR>
0

>  <SCORE.RESTR.CAVITY>
0

>  <SCORE.RESTR.norm>
0

>  <SCORE.SYSTEM>
0

>  <SCORE.SYSTEM.CONST>
0

>  <SCORE.SYSTEM.DIHEDRAL>
0

>  <SCORE.SYSTEM.SOLV>
0

>  <SCORE.SYSTEM.norm>
0

>  <SCORE.heavy>
13

>  <SCORE.norm>
-1.85056

>  <RMSD>
4.893

$$$$
ligand
 OpenBabel11021811473D
libRbt.so/2013.1/901 2013/11/27
 13 14  0  0  0  0  0  0  0  0999 V2000
   36.4249   32.0464   26.7639 N   0  0  0  0  0  0  0  0  0  0  0  0
   37.5768   33.1255   26.9016 C   0  0  0  0  0  0  0  0  0  0  0  0
   38.5216   32.9758   27.8978 N   0  0  0  0  0  0  0  0  0  0  0  0
   37.4645   34.0515   26.0450 N   0  0  0  0  0  0  0  0  0  0  0  0
   36.5742   34.2423   25.0524 C   0  0  0  0  0  0  0  0  0  0  0  0
   35.5677   33.3676   24.8584 C   0  0  0  0  0  0  0  0  0  0  0  0
   35.4784   32.1315   25.8377 C   0  0  0  0  0  0  0  0  0  0  0  0
   34.5878   31.3656   25.6542 O   0  0  0  0  0  0  0  0  0  0  0  0
   34.6458   33.7705   23.6924 C   0  0  0  0  0  0  0  0  0  0  0  0
   35.1668   34.9048   23.2113 C   0  0  0  0  0  0  0  0  0  0  0  0
   36.2815   35.3562   23.8653 N   0  0  0  0  0  0  0  0  0  0  0  0
   33.4622   33.0226   23.2118 C   0  0  0  0  0  0  0  0  0  0  0  0
   32.5333   32.4120   22.8934 N   0  0  0  0  0  0  0  0  0  0  0  0
  1  2  1  0  0  0  0
  1  7  1  0  0  0  0
  2  3  1  0  0  0  0
  2  4  2  0  0  0  0
  4  5  1  0  0  0  0
  5  6  2  0  0  0  0
  5 11  1  0  0  0  0
  6  7  1  0  0  0  0
  6  9  1  0  0  0  0
  7  8  2  0  0  0  0
  9 10  2  0  0  0  0
  9 12  1  0  0  0  0
 10 11  1  0  0  0  0
 12 13  3  0  0  0  0
M  END
>  <CHROM.1>
35.71899156,33.24964257,25.10676797,0.47983323,0.61214115,2.44394013

>  <Name>
ligand

>  <RI>
0

>  <Rbt.Current_Directory>
/home/itssahil/PROJECTS/Mol_Feturizer/New_Systems/rnas/3GCA

>  <Rbt.Executable>
rbdock ($Id: //depot/dev/client3/rdock/2013.1/src/exe/rbdock.cxx#4 $)

>  <Rbt.Library>
libRbt.so (2013.1, Build901 2013/11/27)

>  <Rbt.Parameter_File>
/export/apps/rDock/src/rDock_2013.1_src/data/scripts/dock_solv.prm

>  <Rbt.Receptor>
prm/blind_docking_100.prm

>  <SCORE>
-24.0416

>  <SCORE.INTER>
-24.0416

>  <SCORE.INTER.CONST>
1

>  <SCORE.INTER.POLAR>
0

>  <SCORE.INTER.ROT>
0

>  <SCORE.INTER.SOLV>
11.4338

>  <SCORE.INTER.VDW>
-23.439

>  <SCORE.INTER.norm>
-1.84935

>  <SCORE.INTRA>
0

>  <SCORE.INTRA.DIHEDRAL>
0

>  <SCORE.INTRA.DIHEDRAL.0>
0

>  <SCORE.INTRA.POLAR>
0

>  <SCORE.INTRA.POLAR.0>
0

>  <SCORE.INTRA.REPUL>
0

>  <SCORE.INTRA.REPUL.0>
0

>  <SCORE.INTRA.SOLV>
0

>  <SCORE.INTRA.SOLV.lig_0>
-33.1994

>  <SCORE.INTRA.VDW>
0

>  <SCORE.INTRA.VDW.0>
0

>  <SCORE.INTRA.norm>
0

>  <SCORE.RESTR>
0

>  <SCORE.RESTR.CAVITY>
0

>  <SCORE.RESTR.norm>
0

>  <SCORE.SYSTEM>
0

>  <SCORE.SYSTEM.CONST>
0

>  <SCORE.SYSTEM.DIHEDRAL>
0

>  <SCORE.SYSTEM.SOLV>
0

>  <SCORE.SYSTEM.norm>
0

>  <SCORE.heavy>
13

>  <SCORE.norm>
-1.84935

>  <RMSD>
4.893

$$$$
ligand
 OpenBabel11021811473D
libRbt.so/2013.1/901 2013/11/27
 13 14  0  0  0  0  0  0  0  0999 V2000
   36.4105   32.0782   26.7828 N   0  0  0  0  0  0  0  0  0  0  0  0
   37.5863   33.1341   26.8963 C   0  0  0  0  0  0  0  0  0  0  0  0
   38.5300   32.9837   27.8936 N   0  0  0  0  0  0  0  0  0  0  0  0
   37.4923   34.0450   26.0215 N   0  0  0  0  0  0  0  0  0  0  0  0
   36.6040   34.2353   25.0270 C   0  0  0  0  0  0  0  0  0  0  0  0
   35.5781   33.3793   24.8526 C   0  0  0  0  0  0  0  0  0  0  0  0
   35.4639   32.1654   25.8569 C   0  0  0  0  0  0  0  0  0  0  0  0
   34.5562   31.4159   25.6907 O   0  0  0  0  0  0  0  0  0  0  0  0
   34.6625   33.7789   23.6806 C   0  0  0  0  0  0  0  0  0  0  0  0
   35.2071   34.8915   23.1757 C   0  0  0  0  0  0  0  0  0  0  0  0
   36.3331   35.3313   23.8182 N   0  0  0  0  0  0  0  0  0  0  0  0
   33.4614   33.0477   23.2175 C   0  0  0  0  0  0  0  0  0  0  0  0
   32.5186   32.4516   22.9134 N   0  0  0  0  0  0  0  0  0  0  0  0
  1  2  1  0  0  0  0
  1  7  1  0  0  0  0
  2  3  1  0  0  0  0
  2  4  2  0  0  0  0
  4  5  1  0  0  0  0
  5  6  2  0  0  0  0
  5 11  1  0  0  0  0
  6  7  1  0  0  0  0
  6  9  1  0  0  0  0
  7  8  2  0  0  0  0
  9 10  2  0  0  0  0
  9 12  1  0  0  0  0
 10 11  1  0  0  0  0
 12 13  3  0  0  0  0
M  END
>  <CHROM.1>
35.72731283,33.26306359,25.10308881,0.49836273,0.59603903,2.41323058

>  <Name>
ligand

>  <RI>
0

>  <Rbt.Current_Directory>
/home/itssahil/PROJECTS/Mol_Feturizer/New_Systems/rnas/3GCA

>  <Rbt.Executable>
rbdock ($Id: //depot/dev/client3/rdock/2013.1/src/exe/rbdock.cxx#4 $)

>  <Rbt.Library>
libRbt.so (2013.1, Build901 2013/11/27)

>  <Rbt.Parameter_File>
/export/apps/rDock/src/rDock_2013.1_src/data/scripts/dock_solv.prm

>  <Rbt.Receptor>
prm/blind_docking_100.prm

>  <SCORE>
-24.0672

>  <SCORE.INTER>
-24.0672

>  <SCORE.INTER.CONST>
1

>  <SCORE.INTER.POLAR>
0

>  <SCORE.INTER.ROT>
0

>  <SCORE.INTER.SOLV>
11.3682

>  <SCORE.INTER.VDW>
-23.4342

>  <SCORE.INTER.norm>
-1.85132

>  <SCORE.INTRA>
0

>  <SCORE.INTRA.DIHEDRAL>
0

>  <SCORE.INTRA.DIHEDRAL.0>
0

>  <SCORE.INTRA.POLAR>
0

>  <SCORE.INTRA.POLAR.0>
0

>  <SCORE.INTRA.REPUL>
0

>  <SCORE.INTRA.REPUL.0>
0

>  <SCORE.INTRA.SOLV>
0

>  <SCORE.INTRA.SOLV.lig_0>
-33.1994

>  <SCORE.INTRA.VDW>
0

>  <SCORE.INTRA.VDW.0>
0

>  <SCORE.INTRA.norm>
0

>  <SCORE.RESTR>
0

>  <SCORE.RESTR.CAVITY>
0

>  <SCORE.RESTR.norm>
0

>  <SCORE.SYSTEM>
0

>  <SCORE.SYSTEM.CONST>
0

>  <SCORE.SYSTEM.DIHEDRAL>
0

>  <SCORE.SYSTEM.SOLV>
0

>  <SCORE.SYSTEM.norm>
0

>  <SCORE.heavy>
13

>  <SCORE.norm>
-1.85132

>  <RMSD>
4.893

$$$$
ligand
 OpenBabel11021811473D
libRbt.so/2013.1/901 2013/11/27
 13 14  0  0  0  0  0  0  0  0999 V2000
   36.4367   32.0496   26.7673 N   0  0  0  0  0  0  0  0  0  0  0  0
   37.6155   33.1019   26.8829 C   0  0  0  0  0  0  0  0  0  0  0  0
   38.5620   32.9436   27.8762 N   0  0  0  0  0  0  0  0  0  0  0  0
   37.5210   34.0178   26.0134 N   0  0  0  0  0  0  0  0  0  0  0  0
   36.6301   34.2158   25.0228 C   0  0  0  0  0  0  0  0  0  0  0  0
   35.6014   33.3634   24.8470 C   0  0  0  0  0  0  0  0  0  0  0  0
   35.4874   32.1443   25.8450 C   0  0  0  0  0  0  0  0  0  0  0  0
   34.5772   31.3980   25.6776 O   0  0  0  0  0  0  0  0  0  0  0  0
   34.6831   33.7717   23.6802 C   0  0  0  0  0  0  0  0  0  0  0  0
   35.2289   34.8858   23.1797 C   0  0  0  0  0  0  0  0  0  0  0  0
   36.3581   35.3191   23.8209 N   0  0  0  0  0  0  0  0  0  0  0  0
   33.4787   33.0462   23.2169 C   0  0  0  0  0  0  0  0  0  0  0  0
   32.5334   32.4541   22.9126 N   0  0  0  0  0  0  0  0  0  0  0  0
  1  2  1  0  0  0  0
  1  7  1  0  0  0  0
  2  3  1  0  0  0  0
  2  4  2  0  0  0  0
  4  5  1  0  0  0  0
  5  6  2  0  0  0  0
  5 11  1  0  0  0  0
  6  7  1  0  0  0  0
  6  9  1  0  0  0  0
  7  8  2  0  0  0  0
  9 10  2  0  0  0  0
  9 12  1  0  0  0  0
 10 11  1  0  0  0  0
 12 13  3  0  0  0  0
M  END
>  <CHROM.1>
35.75115891,33.24541009,25.09636513,0.49808534,0.59196518,2.41890738

>  <Name>
ligand

>  <RI>
0

>  <Rbt.Current_Directory>
/home/itssahil/PROJECTS/Mol_Feturizer/New_Systems/rnas/3GCA

>  <Rbt.Executable>
rbdock ($Id: //depot/dev/client3/rdock/2013.1/src/exe/rbdock.cxx#4 $)

>  <Rbt.Library>
libRbt.so (2013.1, Build901 2013/11/27)

>  <Rbt.Parameter_File>
/export/apps/rDock/src/rDock_2013.1_src/data/scripts/dock_solv.prm

>  <Rbt.Receptor>
prm/blind_docking_60.prm

>  <SCORE>
-24.0275

>  <SCORE.INTER>
-24.0275

>  <SCORE.INTER.CONST>
1

>  <SCORE.INTER.POLAR>
0

>  <SCORE.INTER.ROT>
0

>  <SCORE.INTER.SOLV>
11.2284

>  <SCORE.INTER.VDW>
-23.3611

>  <SCORE.INTER.norm>
-1.84827

>  <SCORE.INTRA>
0

>  <SCORE.INTRA.DIHEDRAL>
0

>  <SCORE.INTRA.DIHEDRAL.0>
0

>  <SCORE.INTRA.POLAR>
0

>  <SCORE.INTRA.POLAR.0>
0

>  <SCORE.INTRA.REPUL>
0

>  <SCORE.INTRA.REPUL.0>
0

>  <SCORE.INTRA.SOLV>
0

>  <SCORE.INTRA.SOLV.lig_0>
-33.1994

>  <SCORE.INTRA.VDW>
0

>  <SCORE.INTRA.VDW.0>
0

>  <SCORE.INTRA.norm>
0

>  <SCORE.RESTR>
0

>  <SCORE.RESTR.CAVITY>
0

>  <SCORE.RESTR.norm>
0

>  <SCORE.SYSTEM>
0

>  <SCORE.SYSTEM.CONST>
0

>  <SCORE.SYSTEM.DIHEDRAL>
0

>  <SCORE.SYSTEM.SOLV>
0

>  <SCORE.SYSTEM.norm>
0

>  <SCORE.heavy>
13

>  <SCORE.norm>
-1.84827

>  <RMSD>
4.893

$$$$
ligand
 OpenBabel11021811473D
libRbt.so/2013.1/901 2013/11/27
 13 14  0  0  0  0  0  0  0  0999 V2000
   36.4116   32.0789   26.7832 N   0  0  0  0  0  0  0  0  0  0  0  0
   37.5880   33.1341   26.8971 C   0  0  0  0  0  0  0  0  0  0  0  0
   38.5309   32.9835   27.8950 N   0  0  0  0  0  0  0  0  0  0  0  0
   37.4952   34.0445   26.0217 N   0  0  0  0  0  0  0  0  0  0  0  0
   36.6077   34.2350   25.0265 C   0  0  0  0  0  0  0  0  0  0  0  0
   35.5813   33.3796   24.8519 C   0  0  0  0  0  0  0  0  0  0  0  0
   35.4657   32.1663   25.8567 C   0  0  0  0  0  0  0  0  0  0  0  0
   34.5575   31.4172   25.6903 O   0  0  0  0  0  0  0  0  0  0  0  0
   34.6667   33.7792   23.6791 C   0  0  0  0  0  0  0  0  0  0  0  0
   35.2124   34.8912   23.1740 C   0  0  0  0  0  0  0  0  0  0  0  0
   36.3383   35.3306   23.8170 N   0  0  0  0  0  0  0  0  0  0  0  0
   33.4655   33.0486   23.2155 C   0  0  0  0  0  0  0  0  0  0  0  0
   32.5225   32.4529   22.9111 N   0  0  0  0  0  0  0  0  0  0  0  0
  1  2  1  0  0  0  0
  1  7  1  0  0  0  0
  2  3  1  0  0  0  0
  2  4  2  0  0  0  0
  4  5  1  0  0  0  0
  5  6  2  0  0  0  0
  5 11  1  0  0  0  0
  6  7  1  0  0  0  0
  6  9  1  0  0  0  0
  7  8  2  0  0  0  0
  9 10  2  0  0  0  0
  9 12  1  0  0  0  0
 10 11  1  0  0  0  0
 12 13  3  0  0  0  0
M  END
>  <CHROM.1>
35.73027535,33.26336868,25.10250131,0.49949364,0.59610034,2.41211381

>  <Name>
ligand

>  <RI>
0

>  <Rbt.Current_Directory>
/home/itssahil/PROJECTS/Mol_Feturizer/New_Systems/rnas/3GCA

>  <Rbt.Executable>
rbdock ($Id: //depot/dev/client3/rdock/2013.1/src/exe/rbdock.cxx#4 $)

>  <Rbt.Library>
libRbt.so (2013.1, Build901 2013/11/27)

>  <Rbt.Parameter_File>
/export/apps/rDock/src/rDock_2013.1_src/data/scripts/dock_solv.prm

>  <Rbt.Receptor>
prm/blind_docking_60.prm

>  <SCORE>
-24.0661

>  <SCORE.INTER>
-24.0661

>  <SCORE.INTER.CONST>
1

>  <SCORE.INTER.POLAR>
0

>  <SCORE.INTER.ROT>
0

>  <SCORE.INTER.SOLV>
11.3641

>  <SCORE.INTER.VDW>
-23.4321

>  <SCORE.INTER.norm>
-1.85124

>  <SCORE.INTRA>
0

>  <SCORE.INTRA.DIHEDRAL>
0

>  <SCORE.INTRA.DIHEDRAL.0>
0

>  <SCORE.INTRA.POLAR>
0

>  <SCORE.INTRA.POLAR.0>
0

>  <SCORE.INTRA.REPUL>
0

>  <SCORE.INTRA.REPUL.0>
0

>  <SCORE.INTRA.SOLV>
0

>  <SCORE.INTRA.SOLV.lig_0>
-33.1994

>  <SCORE.INTRA.VDW>
0

>  <SCORE.INTRA.VDW.0>
0

>  <SCORE.INTRA.norm>
0

>  <SCORE.RESTR>
0

>  <SCORE.RESTR.CAVITY>
0

>  <SCORE.RESTR.norm>
0

>  <SCORE.SYSTEM>
0

>  <SCORE.SYSTEM.CONST>
0

>  <SCORE.SYSTEM.DIHEDRAL>
0

>  <SCORE.SYSTEM.SOLV>
0

>  <SCORE.SYSTEM.norm>
0

>  <SCORE.heavy>
13

>  <SCORE.norm>
-1.85124

>  <RMSD>
4.893

$$$$
ligand
 OpenBabel11021811473D
libRbt.so/2013.1/901 2013/11/27
 13 14  0  0  0  0  0  0  0  0999 V2000
   36.4112   32.0792   26.7834 N   0  0  0  0  0  0  0  0  0  0  0  0
   37.5872   33.1349   26.8968 C   0  0  0  0  0  0  0  0  0  0  0  0
   38.5302   32.9851   27.8948 N   0  0  0  0  0  0  0  0  0  0  0  0
   37.4941   34.0450   26.0211 N   0  0  0  0  0  0  0  0  0  0  0  0
   36.6065   34.2347   25.0258 C   0  0  0  0  0  0  0  0  0  0  0  0
   35.5804   33.3788   24.8516 C   0  0  0  0  0  0  0  0  0  0  0  0
   35.4652   32.1659   25.8569 C   0  0  0  0  0  0  0  0  0  0  0  0
   34.5573   31.4165   25.6908 O   0  0  0  0  0  0  0  0  0  0  0  0
   34.6657   33.7777   23.6786 C   0  0  0  0  0  0  0  0  0  0  0  0
   35.2110   34.8897   23.1731 C   0  0  0  0  0  0  0  0  0  0  0  0
   36.3367   35.3297   23.8159 N   0  0  0  0  0  0  0  0  0  0  0  0
   33.4647   33.0465   23.2154 C   0  0  0  0  0  0  0  0  0  0  0  0
   32.5218   32.4504   22.9112 N   0  0  0  0  0  0  0  0  0  0  0  0
  1  2  1  0  0  0  0
  1  7  1  0  0  0  0
  2  3  1  0  0  0  0
  2  4  2  0  0  0  0
  4  5  1  0  0  0  0
  5  6  2  0  0  0  0
  5 11  1  0  0  0  0
  6  7  1  0  0  0  0
  6  9  1  0  0  0  0
  7  8  2  0  0  0  0
  9 10  2  0  0  0  0
  9 12  1  0  0  0  0
 10 11  1  0  0  0  0
 12 13  3  0  0  0  0
M  END
>  <CHROM.1>
35.72942795,33.26281069,25.10223395,0.49916153,0.59631447,2.41189974

>  <Name>
ligand

>  <RI>
0

>  <Rbt.Current_Directory>
/home/itssahil/PROJECTS/Mol_Feturizer/New_Systems/rnas/3GCA

>  <Rbt.Executable>
rbdock ($Id: //depot/dev/client3/rdock/2013.1/src/exe/rbdock.cxx#4 $)

>  <Rbt.Library>
libRbt.so (2013.1, Build901 2013/11/27)

>  <Rbt.Parameter_File>
/export/apps/rDock/src/rDock_2013.1_src/data/scripts/dock_solv.prm

>  <Rbt.Receptor>
prm/blind_docking_80.prm

>  <SCORE>
-24.067

>  <SCORE.INTER>
-24.067

>  <SCORE.INTER.CONST>
1

>  <SCORE.INTER.POLAR>
0

>  <SCORE.INTER.ROT>
0

>  <SCORE.INTER.SOLV>
11.367

>  <SCORE.INTER.VDW>
-23.4336

>  <SCORE.INTER.norm>
-1.85131

>  <SCORE.INTRA>
0

>  <SCORE.INTRA.DIHEDRAL>
0

>  <SCORE.INTRA.DIHEDRAL.0>
0

>  <SCORE.INTRA.POLAR>
0

>  <SCORE.INTRA.POLAR.0>
0

>  <SCORE.INTRA.REPUL>
0

>  <SCORE.INTRA.REPUL.0>
0

>  <SCORE.INTRA.SOLV>
0

>  <SCORE.INTRA.SOLV.lig_0>
-33.1994

>  <SCORE.INTRA.VDW>
0

>  <SCORE.INTRA.VDW.0>
0

>  <SCORE.INTRA.norm>
0

>  <SCORE.RESTR>
0

>  <SCORE.RESTR.CAVITY>
0

>  <SCORE.RESTR.norm>
0

>  <SCORE.SYSTEM>
0

>  <SCORE.SYSTEM.CONST>
0

>  <SCORE.SYSTEM.DIHEDRAL>
0

>  <SCORE.SYSTEM.SOLV>
0

>  <SCORE.SYSTEM.norm>
0

>  <SCORE.heavy>
13

>  <SCORE.norm>
-1.85131

>  <RMSD>
4.893

$$$$
ligand
 OpenBabel11021811473D
libRbt.so/2013.1/901 2013/11/27
 13 14  0  0  0  0  0  0  0  0999 V2000
   36.4161   32.0869   26.7668 N   0  0  0  0  0  0  0  0  0  0  0  0
   37.5807   33.1543   26.8880 C   0  0  0  0  0  0  0  0  0  0  0  0
   38.5200   33.0125   27.8906 N   0  0  0  0  0  0  0  0  0  0  0  0
   37.4829   34.0648   26.0132 N   0  0  0  0  0  0  0  0  0  0  0  0
   36.5986   34.2471   25.0137 C   0  0  0  0  0  0  0  0  0  0  0  0
   35.5822   33.3811   24.8327 C   0  0  0  0  0  0  0  0  0  0  0  0
   35.4742   32.1655   25.8355 C   0  0  0  0  0  0  0  0  0  0  0  0
   34.5749   31.4071   25.6635 O   0  0  0  0  0  0  0  0  0  0  0  0
   34.6696   33.7725   23.6557 C   0  0  0  0  0  0  0  0  0  0  0  0
   35.2062   34.8909   23.1547 C   0  0  0  0  0  0  0  0  0  0  0  0
   36.3240   35.3413   23.8041 N   0  0  0  0  0  0  0  0  0  0  0  0
   33.4786   33.0300   23.1850 C   0  0  0  0  0  0  0  0  0  0  0  0
   32.5434   32.4247   22.8750 N   0  0  0  0  0  0  0  0  0  0  0  0
  1  2  1  0  0  0  0
  1  7  1  0  0  0  0
  2  3  1  0  0  0  0
  2  4  2  0  0  0  0
  4  5  1  0  0  0  0
  5  6  2  0  0  0  0
  5 11  1  0  0  0  0
  6  7  1  0  0  0  0
  6  9  1  0  0  0  0
  7  8  2  0  0  0  0
  9 10  2  0  0  0  0
  9 12  1  0  0  0  0
 10 11  1  0  0  0  0
 12 13  3  0  0  0  0
M  END
>  <CHROM.1>
35.73111833,33.26621926,25.08397018,0.49412984,0.60698458,2.41634946

>  <Name>
ligand

>  <RI>
0

>  <Rbt.Current_Directory>
/home/itssahil/PROJECTS/Mol_Feturizer/New_Systems/rnas/3GCA

>  <Rbt.Executable>
rbdock ($Id: //depot/dev/client3/rdock/2013.1/src/exe/rbdock.cxx#4 $)

>  <Rbt.Library>
libRbt.so (2013.1, Build901 2013/11/27)

>  <Rbt.Parameter_File>
/export/apps/rDock/src/rDock_2013.1_src/data/scripts/dock_solv.prm

>  <Rbt.Receptor>
prm/pocket_docking_3.prm

>  <SCORE>
-24.0174

>  <SCORE.INTER>
-24.0174

>  <SCORE.INTER.CONST>
1

>  <SCORE.INTER.POLAR>
0

>  <SCORE.INTER.ROT>
0

>  <SCORE.INTER.SOLV>
11.3945

>  <SCORE.INTER.VDW>
-23.4098

>  <SCORE.INTER.norm>
-1.84749

>  <SCORE.INTRA>
0

>  <SCORE.INTRA.DIHEDRAL>
0

>  <SCORE.INTRA.DIHEDRAL.0>
0

>  <SCORE.INTRA.POLAR>
0

>  <SCORE.INTRA.POLAR.0>
0

>  <SCORE.INTRA.REPUL>
0

>  <SCORE.INTRA.REPUL.0>
0

>  <SCORE.INTRA.SOLV>
0

>  <SCORE.INTRA.SOLV.lig_0>
-33.1994

>  <SCORE.INTRA.VDW>
0

>  <SCORE.INTRA.VDW.0>
0

>  <SCORE.INTRA.norm>
0

>  <SCORE.RESTR>
0

>  <SCORE.RESTR.CAVITY>
0

>  <SCORE.RESTR.norm>
0

>  <SCORE.SYSTEM>
0

>  <SCORE.SYSTEM.CONST>
0

>  <SCORE.SYSTEM.DIHEDRAL>
0

>  <SCORE.SYSTEM.SOLV>
0

>  <SCORE.SYSTEM.norm>
0

>  <SCORE.heavy>
13

>  <SCORE.norm>
-1.84749

>  <RMSD>
4.893

$$$$
ligand
 OpenBabel11021811473D
libRbt.so/2013.1/901 2013/11/27
 13 14  0  0  0  0  0  0  0  0999 V2000
   36.4238   32.0533   26.7682 N   0  0  0  0  0  0  0  0  0  0  0  0
   37.5731   33.1348   26.9093 C   0  0  0  0  0  0  0  0  0  0  0  0
   38.5159   32.9864   27.9076 N   0  0  0  0  0  0  0  0  0  0  0  0
   37.4608   34.0611   26.0530 N   0  0  0  0  0  0  0  0  0  0  0  0
   36.5724   34.2506   25.0585 C   0  0  0  0  0  0  0  0  0  0  0  0
   35.5683   33.3739   24.8615 C   0  0  0  0  0  0  0  0  0  0  0  0
   35.4793   32.1370   25.8398 C   0  0  0  0  0  0  0  0  0  0  0  0
   34.5907   31.3693   25.6538 O   0  0  0  0  0  0  0  0  0  0  0  0
   34.6483   33.7756   23.6936 C   0  0  0  0  0  0  0  0  0  0  0  0
   35.1680   34.9113   23.2145 C   0  0  0  0  0  0  0  0  0  0  0  0
   36.2803   35.3647   23.8713 N   0  0  0  0  0  0  0  0  0  0  0  0
   33.4674   33.0255   23.2097 C   0  0  0  0  0  0  0  0  0  0  0  0
   32.5405   32.4132   22.8888 N   0  0  0  0  0  0  0  0  0  0  0  0
  1  2  1  0  0  0  0
  1  7  1  0  0  0  0
  2  3  1  0  0  0  0
  2  4  2  0  0  0  0
  4  5  1  0  0  0  0
  5  6  2  0  0  0  0
  5 11  1  0  0  0  0
  6  7  1  0  0  0  0
  6  9  1  0  0  0  0
  7  8  2  0  0  0  0
  9 10  2  0  0  0  0
  9 12  1  0  0  0  0
 10 11  1  0  0  0  0
 12 13  3  0  0  0  0
M  END
>  <CHROM.1>
35.71925483,33.25610817,25.11017426,0.47970527,0.61529860,2.44464610

>  <Name>
ligand

>  <RI>
0

>  <Rbt.Current_Directory>
/home/itssahil/PROJECTS/Mol_Feturizer/New_Systems/rnas/3GCA

>  <Rbt.Executable>
rbdock ($Id: //depot/dev/client3/rdock/2013.1/src/exe/rbdock.cxx#4 $)

>  <Rbt.Library>
libRbt.so (2013.1, Build901 2013/11/27)

>  <Rbt.Parameter_File>
/export/apps/rDock/src/rDock_2013.1_src/data/scripts/dock_solv.prm

>  <Rbt.Receptor>
prm/pocket_docking_4.prm

>  <SCORE>
-24.0372

>  <SCORE.INTER>
-24.0372

>  <SCORE.INTER.CONST>
1

>  <SCORE.INTER.POLAR>
0

>  <SCORE.INTER.ROT>
0

>  <SCORE.INTER.SOLV>
11.4605

>  <SCORE.INTER.VDW>
-23.445

>  <SCORE.INTER.norm>
-1.84902

>  <SCORE.INTRA>
0

>  <SCORE.INTRA.DIHEDRAL>
0

>  <SCORE.INTRA.DIHEDRAL.0>
0

>  <SCORE.INTRA.POLAR>
0

>  <SCORE.INTRA.POLAR.0>
0

>  <SCORE.INTRA.REPUL>
0

>  <SCORE.INTRA.REPUL.0>
0

>  <SCORE.INTRA.SOLV>
0

>  <SCORE.INTRA.SOLV.lig_0>
-33.1994

>  <SCORE.INTRA.VDW>
0

>  <SCORE.INTRA.VDW.0>
0

>  <SCORE.INTRA.norm>
0

>  <SCORE.RESTR>
0

>  <SCORE.RESTR.CAVITY>
0

>  <SCORE.RESTR.norm>
0

>  <SCORE.SYSTEM>
0

>  <SCORE.SYSTEM.CONST>
0

>  <SCORE.SYSTEM.DIHEDRAL>
0

>  <SCORE.SYSTEM.SOLV>
0

>  <SCORE.SYSTEM.norm>
0

>  <SCORE.heavy>
13

>  <SCORE.norm>
-1.84902

>  <RMSD>
4.893

$$$$
ligand
 OpenBabel11021811473D
libRbt.so/2013.1/901 2013/11/27
 13 14  0  0  0  0  0  0  0  0999 V2000
   36.3913   32.0982   26.7937 N   0  0  0  0  0  0  0  0  0  0  0  0
   37.5667   33.1547   26.9053 C   0  0  0  0  0  0  0  0  0  0  0  0
   38.5074   33.0094   27.9061 N   0  0  0  0  0  0  0  0  0  0  0  0
   37.4754   34.0610   26.0255 N   0  0  0  0  0  0  0  0  0  0  0  0
   36.5901   34.2463   25.0274 C   0  0  0  0  0  0  0  0  0  0  0  0
   35.5647   33.3894   24.8544 C   0  0  0  0  0  0  0  0  0  0  0  0
   35.4475   32.1808   25.8646 C   0  0  0  0  0  0  0  0  0  0  0  0
   34.5401   31.4304   25.6996 O   0  0  0  0  0  0  0  0  0  0  0  0
   34.6526   33.7830   23.6777 C   0  0  0  0  0  0  0  0  0  0  0  0
   35.1988   34.8930   23.1687 C   0  0  0  0  0  0  0  0  0  0  0  0
   36.3229   35.3360   23.8122 N   0  0  0  0  0  0  0  0  0  0  0  0
   33.4529   33.0496   23.2147 C   0  0  0  0  0  0  0  0  0  0  0  0
   32.5109   32.4519   22.9109 N   0  0  0  0  0  0  0  0  0  0  0  0
  1  2  1  0  0  0  0
  1  7  1  0  0  0  0
  2  3  1  0  0  0  0
  2  4  2  0  0  0  0
  4  5  1  0  0  0  0
  5  6  2  0  0  0  0
  5 11  1  0  0  0  0
  6  7  1  0  0  0  0
  6  9  1  0  0  0  0
  7  8  2  0  0  0  0
  9 10  2  0  0  0  0
  9 12  1  0  0  0  0
 10 11  1  0  0  0  0
 12 13  3  0  0  0  0
M  END
>  <CHROM.1>
35.71313600,33.27448979,25.10591956,0.50082063,0.59821711,2.40670692

>  <Name>
ligand

>  <RI>
0

>  <Rbt.Current_Directory>
/home/itssahil/PROJECTS/Mol_Feturizer/New_Systems/rnas/3GCA

>  <Rbt.Executable>
rbdock ($Id: //depot/dev/client3/rdock/2013.1/src/exe/rbdock.cxx#4 $)

>  <Rbt.Library>
libRbt.so (2013.1, Build901 2013/11/27)

>  <Rbt.Parameter_File>
/export/apps/rDock/src/rDock_2013.1_src/data/scripts/dock_solv.prm

>  <Rbt.Receptor>
prm/pocket_docking_4.prm

>  <SCORE>
-24.049

>  <SCORE.INTER>
-24.049

>  <SCORE.INTER.CONST>
1

>  <SCORE.INTER.POLAR>
0

>  <SCORE.INTER.ROT>
0

>  <SCORE.INTER.SOLV>
11.4643

>  <SCORE.INTER.VDW>
-23.4541

>  <SCORE.INTER.norm>
-1.84992

>  <SCORE.INTRA>
0

>  <SCORE.INTRA.DIHEDRAL>
0

>  <SCORE.INTRA.DIHEDRAL.0>
0

>  <SCORE.INTRA.POLAR>
0

>  <SCORE.INTRA.POLAR.0>
0

>  <SCORE.INTRA.REPUL>
0

>  <SCORE.INTRA.REPUL.0>
0

>  <SCORE.INTRA.SOLV>
0

>  <SCORE.INTRA.SOLV.lig_0>
-33.1994

>  <SCORE.INTRA.VDW>
0

>  <SCORE.INTRA.VDW.0>
0

>  <SCORE.INTRA.norm>
0

>  <SCORE.RESTR>
0

>  <SCORE.RESTR.CAVITY>
0

>  <SCORE.RESTR.norm>
0

>  <SCORE.SYSTEM>
0

>  <SCORE.SYSTEM.CONST>
0

>  <SCORE.SYSTEM.DIHEDRAL>
0

>  <SCORE.SYSTEM.SOLV>
0

>  <SCORE.SYSTEM.norm>
0

>  <SCORE.heavy>
13

>  <SCORE.norm>
-1.84992

>  <RMSD>
4.893

$$$$
ligand
 OpenBabel11021811473D
libRbt.so/2013.1/901 2013/11/27
 13 14  0  0  0  0  0  0  0  0999 V2000
   36.4649   32.0255   26.7564 N   0  0  0  0  0  0  0  0  0  0  0  0
   37.5875   33.1304   26.9270 C   0  0  0  0  0  0  0  0  0  0  0  0
   38.5351   32.9773   27.9201 N   0  0  0  0  0  0  0  0  0  0  0  0
   37.4513   34.0775   26.0974 N   0  0  0  0  0  0  0  0  0  0  0  0
   36.5570   34.2731   25.1092 C   0  0  0  0  0  0  0  0  0  0  0  0
   35.5745   33.3779   24.8884 C   0  0  0  0  0  0  0  0  0  0  0  0
   35.5173   32.1120   25.8315 C   0  0  0  0  0  0  0  0  0  0  0  0
   34.6476   31.3283   25.6246 O   0  0  0  0  0  0  0  0  0  0  0  0
   34.6431   33.7896   23.7331 C   0  0  0  0  0  0  0  0  0  0  0  0
   35.1340   34.9508   23.2858 C   0  0  0  0  0  0  0  0  0  0  0  0
   36.2358   35.4127   23.9543 N   0  0  0  0  0  0  0  0  0  0  0  0
   33.4802   33.0246   23.2291 C   0  0  0  0  0  0  0  0  0  0  0  0
   32.5682   32.3990   22.8918 N   0  0  0  0  0  0  0  0  0  0  0  0
  1  2  1  0  0  0  0
  1  7  1  0  0  0  0
  2  3  1  0  0  0  0
  2  4  2  0  0  0  0
  4  5  1  0  0  0  0
  5  6  2  0  0  0  0
  5 11  1  0  0  0  0
  6  7  1  0  0  0  0
  6  9  1  0  0  0  0
  7  8  2  0  0  0  0
  9 10  2  0  0  0  0
  9 12  1  0  0  0  0
 10 11  1  0  0  0  0
 12 13  3  0  0  0  0
M  END
>  <CHROM.1>
35.72858945,33.25686659,25.13354891,0.45522069,0.62978243,2.48714594

>  <Name>
ligand

>  <RI>
0

>  <Rbt.Current_Directory>
/home/itssahil/PROJECTS/Mol_Feturizer/New_Systems/rnas/3GCA

>  <Rbt.Executable>
rbdock ($Id: //depot/dev/client3/rdock/2013.1/src/exe/rbdock.cxx#4 $)

>  <Rbt.Library>
libRbt.so (2013.1, Build901 2013/11/27)

>  <Rbt.Parameter_File>
/export/apps/rDock/src/rDock_2013.1_src/data/scripts/dock_solv.prm

>  <Rbt.Receptor>
prm/pocket_docking_4.prm

>  <SCORE>
-24.0108

>  <SCORE.INTER>
-24.0108

>  <SCORE.INTER.CONST>
1

>  <SCORE.INTER.POLAR>
0

>  <SCORE.INTER.ROT>
0

>  <SCORE.INTER.SOLV>
11.4283

>  <SCORE.INTER.VDW>
-23.4166

>  <SCORE.INTER.norm>
-1.84699

>  <SCORE.INTRA>
0

>  <SCORE.INTRA.DIHEDRAL>
0

>  <SCORE.INTRA.DIHEDRAL.0>
0

>  <SCORE.INTRA.POLAR>
0

>  <SCORE.INTRA.POLAR.0>
0

>  <SCORE.INTRA.REPUL>
0

>  <SCORE.INTRA.REPUL.0>
0

>  <SCORE.INTRA.SOLV>
0

>  <SCORE.INTRA.SOLV.lig_0>
-33.1994

>  <SCORE.INTRA.VDW>
0

>  <SCORE.INTRA.VDW.0>
0

>  <SCORE.INTRA.norm>
0

>  <SCORE.RESTR>
0

>  <SCORE.RESTR.CAVITY>
0

>  <SCORE.RESTR.norm>
0

>  <SCORE.SYSTEM>
0

>  <SCORE.SYSTEM.CONST>
0

>  <SCORE.SYSTEM.DIHEDRAL>
0

>  <SCORE.SYSTEM.SOLV>
0

>  <SCORE.SYSTEM.norm>
0

>  <SCORE.heavy>
13

>  <SCORE.norm>
-1.84699

>  <RMSD>
4.893

$$$$
ligand
 OpenBabel11021811473D
libRbt.so/2013.1/901 2013/11/27
 13 14  0  0  0  0  0  0  0  0999 V2000
   36.4645   32.0252   26.7553 N   0  0  0  0  0  0  0  0  0  0  0  0
   37.6286   33.0916   26.8895 C   0  0  0  0  0  0  0  0  0  0  0  0
   38.5799   32.9267   27.8772 N   0  0  0  0  0  0  0  0  0  0  0  0
   37.5190   34.0234   26.0389 N   0  0  0  0  0  0  0  0  0  0  0  0
   36.6227   34.2289   25.0546 C   0  0  0  0  0  0  0  0  0  0  0  0
   35.6058   33.3656   24.8640 C   0  0  0  0  0  0  0  0  0  0  0  0
   35.5116   32.1251   25.8373 C   0  0  0  0  0  0  0  0  0  0  0  0
   34.6116   31.3694   25.6569 O   0  0  0  0  0  0  0  0  0  0  0  0
   34.6787   33.7844   23.7078 C   0  0  0  0  0  0  0  0  0  0  0  0
   35.2074   34.9160   23.2287 C   0  0  0  0  0  0  0  0  0  0  0  0
   36.3320   35.3523   23.8760 N   0  0  0  0  0  0  0  0  0  0  0  0
   33.4835   33.0514   23.2327 C   0  0  0  0  0  0  0  0  0  0  0  0
   32.5458   32.4522   22.9186 N   0  0  0  0  0  0  0  0  0  0  0  0
  1  2  1  0  0  0  0
  1  7  1  0  0  0  0
  2  3  1  0  0  0  0
  2  4  2  0  0  0  0
  4  5  1  0  0  0  0
  5  6  2  0  0  0  0
  5 11  1  0  0  0  0
  6  7  1  0  0  0  0
  6  9  1  0  0  0  0
  7  8  2  0  0  0  0
  9 10  2  0  0  0  0
  9 12  1  0  0  0  0
 10 11  1  0  0  0  0
 12 13  3  0  0  0  0
M  END
>  <CHROM.1>
35.75778965,33.24475362,25.11053129,0.48314802,0.59931010,2.44754988

>  <Name>
ligand

>  <RI>
0

>  <Rbt.Current_Directory>
/home/itssahil/PROJECTS/Mol_Feturizer/New_Systems/rnas/3GCA

>  <Rbt.Executable>
rbdock ($Id: //depot/dev/client3/rdock/2013.1/src/exe/rbdock.cxx#4 $)

>  <Rbt.Library>
libRbt.so (2013.1, Build901 2013/11/27)

>  <Rbt.Parameter_File>
/export/apps/rDock/src/rDock_2013.1_src/data/scripts/dock_solv.prm

>  <Rbt.Receptor>
prm/pocket_docking_5.prm

>  <SCORE>
-24.0033

>  <SCORE.INTER>
-24.0033

>  <SCORE.INTER.CONST>
1

>  <SCORE.INTER.POLAR>
0

>  <SCORE.INTER.ROT>
0

>  <SCORE.INTER.SOLV>
11.1676

>  <SCORE.INTER.VDW>
-23.3247

>  <SCORE.INTER.norm>
-1.8464

>  <SCORE.INTRA>
0

>  <SCORE.INTRA.DIHEDRAL>
0

>  <SCORE.INTRA.DIHEDRAL.0>
0

>  <SCORE.INTRA.POLAR>
0

>  <SCORE.INTRA.POLAR.0>
0

>  <SCORE.INTRA.REPUL>
0

>  <SCORE.INTRA.REPUL.0>
0

>  <SCORE.INTRA.SOLV>
0

>  <SCORE.INTRA.SOLV.lig_0>
-33.1994

>  <SCORE.INTRA.VDW>
0

>  <SCORE.INTRA.VDW.0>
0

>  <SCORE.INTRA.norm>
0

>  <SCORE.RESTR>
0

>  <SCORE.RESTR.CAVITY>
0

>  <SCORE.RESTR.norm>
0

>  <SCORE.SYSTEM>
0

>  <SCORE.SYSTEM.CONST>
0

>  <SCORE.SYSTEM.DIHEDRAL>
0

>  <SCORE.SYSTEM.SOLV>
0

>  <SCORE.SYSTEM.norm>
0

>  <SCORE.heavy>
13

>  <SCORE.norm>
-1.8464

>  <RMSD>
4.893

$$$$
ligand
 OpenBabel11021811473D
libRbt.so/2013.1/901 2013/11/27
 13 14  0  0  0  0  0  0  0  0999 V2000
   36.3793   32.1117   26.8013 N   0  0  0  0  0  0  0  0  0  0  0  0
   37.5599   33.1632   26.9055 C   0  0  0  0  0  0  0  0  0  0  0  0
   38.4989   33.0213   27.9084 N   0  0  0  0  0  0  0  0  0  0  0  0
   37.4738   34.0628   26.0184 N   0  0  0  0  0  0  0  0  0  0  0  0
   36.5904   34.2445   25.0180 C   0  0  0  0  0  0  0  0  0  0  0  0
   35.5609   33.3913   24.8509 C   0  0  0  0  0  0  0  0  0  0  0  0
   35.4368   32.1914   25.8706 C   0  0  0  0  0  0  0  0  0  0  0  0
   34.5259   31.4442   25.7107 O   0  0  0  0  0  0  0  0  0  0  0  0
   34.6518   33.7799   23.6701 C   0  0  0  0  0  0  0  0  0  0  0  0
   35.2040   34.8831   23.1527 C   0  0  0  0  0  0  0  0  0  0  0  0
   36.3297   35.3257   23.7938 N   0  0  0  0  0  0  0  0  0  0  0  0
   33.4490   33.0487   23.2119 C   0  0  0  0  0  0  0  0  0  0  0  0
   32.5043   32.4532   22.9120 N   0  0  0  0  0  0  0  0  0  0  0  0
  1  2  1  0  0  0  0
  1  7  1  0  0  0  0
  2  3  1  0  0  0  0
  2  4  2  0  0  0  0
  4  5  1  0  0  0  0
  5  6  2  0  0  0  0
  5 11  1  0  0  0  0
  6  7  1  0  0  0  0
  6  9  1  0  0  0  0
  7  8  2  0  0  0  0
  9 10  2  0  0  0  0
  9 12  1  0  0  0  0
 10 11  1  0  0  0  0
 12 13  3  0  0  0  0
M  END
>  <CHROM.1>
35.70855245,33.27764120,25.10341881,0.50598855,0.59560826,2.39577480

>  <Name>
ligand

>  <RI>
0

>  <Rbt.Current_Directory>
/home/itssahil/PROJECTS/Mol_Feturizer/New_Systems/rnas/3GCA

>  <Rbt.Executable>
rbdock ($Id: //depot/dev/client3/rdock/2013.1/src/exe/rbdock.cxx#4 $)

>  <Rbt.Library>
libRbt.so (2013.1, Build901 2013/11/27)

>  <Rbt.Parameter_File>
/export/apps/rDock/src/rDock_2013.1_src/data/scripts/dock_solv.prm

>  <Rbt.Receptor>
prm/pocket_docking_7.prm

>  <SCORE>
-24.0418

>  <SCORE.INTER>
-24.0418

>  <SCORE.INTER.CONST>
1

>  <SCORE.INTER.POLAR>
0

>  <SCORE.INTER.ROT>
0

>  <SCORE.INTER.SOLV>
11.4957

>  <SCORE.INTER.VDW>
-23.4598

>  <SCORE.INTER.norm>
-1.84937

>  <SCORE.INTRA>
0

>  <SCORE.INTRA.DIHEDRAL>
0

>  <SCORE.INTRA.DIHEDRAL.0>
0

>  <SCORE.INTRA.POLAR>
0

>  <SCORE.INTRA.POLAR.0>
0

>  <SCORE.INTRA.REPUL>
0

>  <SCORE.INTRA.REPUL.0>
0

>  <SCORE.INTRA.SOLV>
0

>  <SCORE.INTRA.SOLV.lig_0>
-33.1994

>  <SCORE.INTRA.VDW>
0

>  <SCORE.INTRA.VDW.0>
0

>  <SCORE.INTRA.norm>
0

>  <SCORE.RESTR>
0

>  <SCORE.RESTR.CAVITY>
0

>  <SCORE.RESTR.norm>
0

>  <SCORE.SYSTEM>
0

>  <SCORE.SYSTEM.CONST>
0

>  <SCORE.SYSTEM.DIHEDRAL>
0

>  <SCORE.SYSTEM.SOLV>
0

>  <SCORE.SYSTEM.norm>
0

>  <SCORE.heavy>
13

>  <SCORE.norm>
-1.84937

>  <RMSD>
4.893

$$$$
ligand
 OpenBabel11021811473D
libRbt.so/2013.1/901 2013/11/27
 13 14  0  0  0  0  0  0  0  0999 V2000
   36.4223   32.0514   26.7670 N   0  0  0  0  0  0  0  0  0  0  0  0
   37.5714   33.1329   26.9091 C   0  0  0  0  0  0  0  0  0  0  0  0
   38.5135   32.9845   27.9081 N   0  0  0  0  0  0  0  0  0  0  0  0
   37.4597   34.0594   26.0530 N   0  0  0  0  0  0  0  0  0  0  0  0
   36.5720   34.2490   25.0578 C   0  0  0  0  0  0  0  0  0  0  0  0
   35.5681   33.3723   24.8599 C   0  0  0  0  0  0  0  0  0  0  0  0
   35.4785   32.1352   25.8380 C   0  0  0  0  0  0  0  0  0  0  0  0
   34.5901   31.3675   25.6512 O   0  0  0  0  0  0  0  0  0  0  0  0
   34.6489   33.7741   23.6915 C   0  0  0  0  0  0  0  0  0  0  0  0
   35.1688   34.9100   23.2130 C   0  0  0  0  0  0  0  0  0  0  0  0
   36.2806   35.3633   23.8707 N   0  0  0  0  0  0  0  0  0  0  0  0
   33.4683   33.0240   23.2066 C   0  0  0  0  0  0  0  0  0  0  0  0
   32.5418   32.4117   22.8850 N   0  0  0  0  0  0  0  0  0  0  0  0
  1  2  1  0  0  0  0
  1  7  1  0  0  0  0
  2  3  1  0  0  0  0
  2  4  2  0  0  0  0
  4  5  1  0  0  0  0
  5  6  2  0  0  0  0
  5 11  1  0  0  0  0
  6  7  1  0  0  0  0
  6  9  1  0  0  0  0
  7  8  2  0  0  0  0
  9 10  2  0  0  0  0
  9 12  1  0  0  0  0
 10 11  1  0  0  0  0
 12 13  3  0  0  0  0
M  END
>  <CHROM.1>
35.71885606,33.25446719,25.10872843,0.48019794,0.61588565,2.44454027

>  <Name>
ligand

>  <RI>
0

>  <Rbt.Current_Directory>
/home/itssahil/PROJECTS/Mol_Feturizer/New_Systems/rnas/3GCA

>  <Rbt.Executable>
rbdock ($Id: //depot/dev/client3/rdock/2013.1/src/exe/rbdock.cxx#4 $)

>  <Rbt.Library>
libRbt.so (2013.1, Build901 2013/11/27)

>  <Rbt.Parameter_File>
/export/apps/rDock/src/rDock_2013.1_src/data/scripts/dock_solv.prm

>  <Rbt.Receptor>
prm/pocket_docking_7.prm

>  <SCORE>
-24.0352

>  <SCORE.INTER>
-24.0352

>  <SCORE.INTER.CONST>
1

>  <SCORE.INTER.POLAR>
0

>  <SCORE.INTER.ROT>
0

>  <SCORE.INTER.SOLV>
11.4718

>  <SCORE.INTER.VDW>
-23.4474

>  <SCORE.INTER.norm>
-1.84886

>  <SCORE.INTRA>
0

>  <SCORE.INTRA.DIHEDRAL>
0

>  <SCORE.INTRA.DIHEDRAL.0>
0

>  <SCORE.INTRA.POLAR>
0

>  <SCORE.INTRA.POLAR.0>
0

>  <SCORE.INTRA.REPUL>
0

>  <SCORE.INTRA.REPUL.0>
0

>  <SCORE.INTRA.SOLV>
0

>  <SCORE.INTRA.SOLV.lig_0>
-33.1994

>  <SCORE.INTRA.VDW>
0

>  <SCORE.INTRA.VDW.0>
0

>  <SCORE.INTRA.norm>
0

>  <SCORE.RESTR>
0

>  <SCORE.RESTR.CAVITY>
0

>  <SCORE.RESTR.norm>
0

>  <SCORE.SYSTEM>
0

>  <SCORE.SYSTEM.CONST>
0

>  <SCORE.SYSTEM.DIHEDRAL>
0

>  <SCORE.SYSTEM.SOLV>
0

>  <SCORE.SYSTEM.norm>
0

>  <SCORE.heavy>
13

>  <SCORE.norm>
-1.84886

>  <RMSD>
4.893

$$$$
ligand
 OpenBabel11021811473D
libRbt.so/2013.1/901 2013/11/27
 13 14  0  0  0  0  0  0  0  0999 V2000
   36.4320   32.0774   26.7849 N   0  0  0  0  0  0  0  0  0  0  0  0
   37.5942   33.1462   26.9166 C   0  0  0  0  0  0  0  0  0  0  0  0
   38.5363   32.9943   27.9151 N   0  0  0  0  0  0  0  0  0  0  0  0
   37.4919   34.0673   26.0535 N   0  0  0  0  0  0  0  0  0  0  0  0
   36.6048   34.2598   25.0584 C   0  0  0  0  0  0  0  0  0  0  0  0
   35.5902   33.3936   24.8691 C   0  0  0  0  0  0  0  0  0  0  0  0
   35.4876   32.1652   25.8569 C   0  0  0  0  0  0  0  0  0  0  0  0
   34.5898   31.4067   25.6775 O   0  0  0  0  0  0  0  0  0  0  0  0
   34.6737   33.7973   23.6992 C   0  0  0  0  0  0  0  0  0  0  0  0
   35.2062   34.9232   23.2110 C   0  0  0  0  0  0  0  0  0  0  0  0
   36.3245   35.3683   23.8632 N   0  0  0  0  0  0  0  0  0  0  0  0
   33.4834   33.0576   23.2222 C   0  0  0  0  0  0  0  0  0  0  0  0
   32.5491   32.4539   22.9068 N   0  0  0  0  0  0  0  0  0  0  0  0
  1  2  1  0  0  0  0
  1  7  1  0  0  0  0
  2  3  1  0  0  0  0
  2  4  2  0  0  0  0
  4  5  1  0  0  0  0
  5  6  2  0  0  0  0
  5 11  1  0  0  0  0
  6  7  1  0  0  0  0
  6  9  1  0  0  0  0
  7  8  2  0  0  0  0
  9 10  2  0  0  0  0
  9 12  1  0  0  0  0
 10 11  1  0  0  0  0
 12 13  3  0  0  0  0
M  END
>  <CHROM.1>
35.73995602,33.27589231,25.11854331,0.48986779,0.60684633,2.43126601

>  <Name>
ligand

>  <RI>
0

>  <Rbt.Current_Directory>
/home/itssahil/PROJECTS/Mol_Feturizer/New_Systems/rnas/3GCA

>  <Rbt.Executable>
rbdock ($Id: //depot/dev/client3/rdock/2013.1/src/exe/rbdock.cxx#4 $)

>  <Rbt.Library>
libRbt.so (2013.1, Build901 2013/11/27)

>  <Rbt.Parameter_File>
/export/apps/rDock/src/rDock_2013.1_src/data/scripts/dock_solv.prm

>  <Rbt.Receptor>
prm/pocket_docking_8.prm

>  <SCORE>
-24.0224

>  <SCORE.INTER>
-24.0224

>  <SCORE.INTER.CONST>
1

>  <SCORE.INTER.POLAR>
0

>  <SCORE.INTER.ROT>
0

>  <SCORE.INTER.SOLV>
11.3514

>  <SCORE.INTER.VDW>
-23.3987

>  <SCORE.INTER.norm>
-1.84788

>  <SCORE.INTRA>
0

>  <SCORE.INTRA.DIHEDRAL>
0

>  <SCORE.INTRA.DIHEDRAL.0>
0

>  <SCORE.INTRA.POLAR>
0

>  <SCORE.INTRA.POLAR.0>
0

>  <SCORE.INTRA.REPUL>
0

>  <SCORE.INTRA.REPUL.0>
0

>  <SCORE.INTRA.SOLV>
0

>  <SCORE.INTRA.SOLV.lig_0>
-33.1994

>  <SCORE.INTRA.VDW>
0

>  <SCORE.INTRA.VDW.0>
0

>  <SCORE.INTRA.norm>
0

>  <SCORE.RESTR>
0

>  <SCORE.RESTR.CAVITY>
0

>  <SCORE.RESTR.norm>
0

>  <SCORE.SYSTEM>
0

>  <SCORE.SYSTEM.CONST>
0

>  <SCORE.SYSTEM.DIHEDRAL>
0

>  <SCORE.SYSTEM.SOLV>
0

>  <SCORE.SYSTEM.norm>
0

>  <SCORE.heavy>
13

>  <SCORE.norm>
-1.84788

>  <RMSD>
4.893

$$$$
ligand
 OpenBabel11021811473D
libRbt.so/2013.1/901 2013/11/27
 13 14  0  0  0  0  0  0  0  0999 V2000
   36.4316   32.0906   26.7741 N   0  0  0  0  0  0  0  0  0  0  0  0
   37.5952   33.1590   26.8960 C   0  0  0  0  0  0  0  0  0  0  0  0
   38.5408   33.0115   27.8918 N   0  0  0  0  0  0  0  0  0  0  0  0
   37.4906   34.0757   26.0284 N   0  0  0  0  0  0  0  0  0  0  0  0
   36.6000   34.2638   25.0356 C   0  0  0  0  0  0  0  0  0  0  0  0
   35.5839   33.3975   24.8545 C   0  0  0  0  0  0  0  0  0  0  0  0
   35.4839   32.1744   25.8491 C   0  0  0  0  0  0  0  0  0  0  0  0
   34.5848   31.4159   25.6770 O   0  0  0  0  0  0  0  0  0  0  0  0
   34.6635   33.7959   23.6859 C   0  0  0  0  0  0  0  0  0  0  0  0
   35.1953   34.9187   23.1898 C   0  0  0  0  0  0  0  0  0  0  0  0
   36.3163   35.3662   23.8356 N   0  0  0  0  0  0  0  0  0  0  0  0
   33.4709   33.0548   23.2170 C   0  0  0  0  0  0  0  0  0  0  0  0
   32.5348   32.4503   22.9083 N   0  0  0  0  0  0  0  0  0  0  0  0
  1  2  1  0  0  0  0
  1  7  1  0  0  0  0
  2  3  1  0  0  0  0
  2  4  2  0  0  0  0
  4  5  1  0  0  0  0
  5  6  2  0  0  0  0
  5 11  1  0  0  0  0
  6  7  1  0  0  0  0
  6  9  1  0  0  0  0
  7  8  2  0  0  0  0
  9 10  2  0  0  0  0
  9 12  1  0  0  0  0
 10 11  1  0  0  0  0
 12 13  3  0  0  0  0
M  END
>  <CHROM.1>
35.73451062,33.28099841,25.10400409,0.48780437,0.60349221,2.42719970

>  <Name>
ligand

>  <RI>
0

>  <Rbt.Current_Directory>
/home/itssahil/PROJECTS/Mol_Feturizer/New_Systems/rnas/3GCA

>  <Rbt.Executable>
rbdock ($Id: //depot/dev/client3/rdock/2013.1/src/exe/rbdock.cxx#4 $)

>  <Rbt.Library>
libRbt.so (2013.1, Build901 2013/11/27)

>  <Rbt.Parameter_File>
/export/apps/rDock/src/rDock_2013.1_src/data/scripts/dock_solv.prm

>  <Rbt.Receptor>
prm/blind_docking_100.prm

>  <SCORE>
-24.0291

>  <SCORE.INTER>
-24.0291

>  <SCORE.INTER.CONST>
1

>  <SCORE.INTER.POLAR>
0

>  <SCORE.INTER.ROT>
0

>  <SCORE.INTER.SOLV>
11.3035

>  <SCORE.INTER.VDW>
-23.3873

>  <SCORE.INTER.norm>
-1.84839

>  <SCORE.INTRA>
0

>  <SCORE.INTRA.DIHEDRAL>
0

>  <SCORE.INTRA.DIHEDRAL.0>
0

>  <SCORE.INTRA.POLAR>
0

>  <SCORE.INTRA.POLAR.0>
0

>  <SCORE.INTRA.REPUL>
0

>  <SCORE.INTRA.REPUL.0>
0

>  <SCORE.INTRA.SOLV>
0

>  <SCORE.INTRA.SOLV.lig_0>
-33.1994

>  <SCORE.INTRA.VDW>
0

>  <SCORE.INTRA.VDW.0>
0

>  <SCORE.INTRA.norm>
0

>  <SCORE.RESTR>
0

>  <SCORE.RESTR.CAVITY>
0

>  <SCORE.RESTR.norm>
0

>  <SCORE.SYSTEM>
0

>  <SCORE.SYSTEM.CONST>
0

>  <SCORE.SYSTEM.DIHEDRAL>
0

>  <SCORE.SYSTEM.SOLV>
0

>  <SCORE.SYSTEM.norm>
0

>  <SCORE.heavy>
13

>  <SCORE.norm>
-1.84839

>  <RMSD>
4.894

$$$$
ligand
 OpenBabel11021811473D
libRbt.so/2013.1/901 2013/11/27
 13 14  0  0  0  0  0  0  0  0999 V2000
   36.4315   32.0917   26.7747 N   0  0  0  0  0  0  0  0  0  0  0  0
   37.5958   33.1594   26.8957 C   0  0  0  0  0  0  0  0  0  0  0  0
   38.5411   33.0122   27.8919 N   0  0  0  0  0  0  0  0  0  0  0  0
   37.4919   34.0754   26.0274 N   0  0  0  0  0  0  0  0  0  0  0  0
   36.6015   34.2632   25.0343 C   0  0  0  0  0  0  0  0  0  0  0  0
   35.5849   33.3974   24.8538 C   0  0  0  0  0  0  0  0  0  0  0  0
   35.4839   32.1753   25.8495 C   0  0  0  0  0  0  0  0  0  0  0  0
   34.5843   31.4171   25.6780 O   0  0  0  0  0  0  0  0  0  0  0  0
   34.6649   33.7953   23.6847 C   0  0  0  0  0  0  0  0  0  0  0  0
   35.1974   34.9174   23.1877 C   0  0  0  0  0  0  0  0  0  0  0  0
   36.3187   35.3647   23.8333 N   0  0  0  0  0  0  0  0  0  0  0  0
   33.4718   33.0546   23.2164 C   0  0  0  0  0  0  0  0  0  0  0  0
   32.5354   32.4504   22.9081 N   0  0  0  0  0  0  0  0  0  0  0  0
  1  2  1  0  0  0  0
  1  7  1  0  0  0  0
  2  3  1  0  0  0  0
  2  4  2  0  0  0  0
  4  5  1  0  0  0  0
  5  6  2  0  0  0  0
  5 11  1  0  0  0  0
  6  7  1  0  0  0  0
  6  9  1  0  0  0  0
  7  8  2  0  0  0  0
  9 10  2  0  0  0  0
  9 12  1  0  0  0  0
 10 11  1  0  0  0  0
 12 13  3  0  0  0  0
M  END
>  <CHROM.1>
35.73536206,33.28098896,25.10345654,0.48850044,0.60315182,2.42590390

>  <Name>
ligand

>  <RI>
0

>  <Rbt.Current_Directory>
/home/itssahil/PROJECTS/Mol_Feturizer/New_Systems/rnas/3GCA

>  <Rbt.Executable>
rbdock ($Id: //depot/dev/client3/rdock/2013.1/src/exe/rbdock.cxx#4 $)

>  <Rbt.Library>
libRbt.so (2013.1, Build901 2013/11/27)

>  <Rbt.Parameter_File>
/export/apps/rDock/src/rDock_2013.1_src/data/scripts/dock_solv.prm

>  <Rbt.Receptor>
prm/blind_docking_100.prm

>  <SCORE>
-24.0294

>  <SCORE.INTER>
-24.0294

>  <SCORE.INTER.CONST>
1

>  <SCORE.INTER.POLAR>
0

>  <SCORE.INTER.ROT>
0

>  <SCORE.INTER.SOLV>
11.3013

>  <SCORE.INTER.VDW>
-23.3867

>  <SCORE.INTER.norm>
-1.84842

>  <SCORE.INTRA>
0

>  <SCORE.INTRA.DIHEDRAL>
0

>  <SCORE.INTRA.DIHEDRAL.0>
0

>  <SCORE.INTRA.POLAR>
0

>  <SCORE.INTRA.POLAR.0>
0

>  <SCORE.INTRA.REPUL>
0

>  <SCORE.INTRA.REPUL.0>
0

>  <SCORE.INTRA.SOLV>
0

>  <SCORE.INTRA.SOLV.lig_0>
-33.1994

>  <SCORE.INTRA.VDW>
0

>  <SCORE.INTRA.VDW.0>
0

>  <SCORE.INTRA.norm>
0

>  <SCORE.RESTR>
0

>  <SCORE.RESTR.CAVITY>
0

>  <SCORE.RESTR.norm>
0

>  <SCORE.SYSTEM>
0

>  <SCORE.SYSTEM.CONST>
0

>  <SCORE.SYSTEM.DIHEDRAL>
0

>  <SCORE.SYSTEM.SOLV>
0

>  <SCORE.SYSTEM.norm>
0

>  <SCORE.heavy>
13

>  <SCORE.norm>
-1.84842

>  <RMSD>
4.894

$$$$
ligand
 OpenBabel11021811473D
libRbt.so/2013.1/901 2013/11/27
 13 14  0  0  0  0  0  0  0  0999 V2000
   36.4297   32.0800   26.7861 N   0  0  0  0  0  0  0  0  0  0  0  0
   37.5961   33.1451   26.9096 C   0  0  0  0  0  0  0  0  0  0  0  0
   38.5394   32.9954   27.9073 N   0  0  0  0  0  0  0  0  0  0  0  0
   37.4958   34.0616   26.0414 N   0  0  0  0  0  0  0  0  0  0  0  0
   36.6076   34.2518   25.0468 C   0  0  0  0  0  0  0  0  0  0  0  0
   35.5893   33.3883   24.8643 C   0  0  0  0  0  0  0  0  0  0  0  0
   35.4840   32.1660   25.8593 C   0  0  0  0  0  0  0  0  0  0  0  0
   34.5830   31.4099   25.6859 O   0  0  0  0  0  0  0  0  0  0  0  0
   34.6723   33.7887   23.6937 C   0  0  0  0  0  0  0  0  0  0  0  0
   35.2082   34.9097   23.1980 C   0  0  0  0  0  0  0  0  0  0  0  0
   36.3293   35.3543   23.8457 N   0  0  0  0  0  0  0  0  0  0  0  0
   33.4783   33.0508   23.2231 C   0  0  0  0  0  0  0  0  0  0  0  0
   32.5412   32.4488   22.9129 N   0  0  0  0  0  0  0  0  0  0  0  0
  1  2  1  0  0  0  0
  1  7  1  0  0  0  0
  2  3  1  0  0  0  0
  2  4  2  0  0  0  0
  4  5  1  0  0  0  0
  5  6  2  0  0  0  0
  5 11  1  0  0  0  0
  6  7  1  0  0  0  0
  6  9  1  0  0  0  0
  7  8  2  0  0  0  0
  9 10  2  0  0  0  0
  9 12  1  0  0  0  0
 10 11  1  0  0  0  0
 12 13  3  0  0  0  0
M  END
>  <CHROM.1>
35.73913465,33.27146643,25.11411067,0.49191044,0.60300990,2.42432739

>  <Name>
ligand

>  <RI>
0

>  <Rbt.Current_Directory>
/home/itssahil/PROJECTS/Mol_Feturizer/New_Systems/rnas/3GCA

>  <Rbt.Executable>
rbdock ($Id: //depot/dev/client3/rdock/2013.1/src/exe/rbdock.cxx#4 $)

>  <Rbt.Library>
libRbt.so (2013.1, Build901 2013/11/27)

>  <Rbt.Parameter_File>
/export/apps/rDock/src/rDock_2013.1_src/data/scripts/dock_solv.prm

>  <Rbt.Receptor>
prm/blind_docking_60.prm

>  <SCORE>
-24.028

>  <SCORE.INTER>
-24.028

>  <SCORE.INTER.CONST>
1

>  <SCORE.INTER.POLAR>
0

>  <SCORE.INTER.ROT>
0

>  <SCORE.INTER.SOLV>
11.331

>  <SCORE.INTER.VDW>
-23.3957

>  <SCORE.INTER.norm>
-1.84831

>  <SCORE.INTRA>
0

>  <SCORE.INTRA.DIHEDRAL>
0

>  <SCORE.INTRA.DIHEDRAL.0>
0

>  <SCORE.INTRA.POLAR>
0

>  <SCORE.INTRA.POLAR.0>
0

>  <SCORE.INTRA.REPUL>
0

>  <SCORE.INTRA.REPUL.0>
0

>  <SCORE.INTRA.SOLV>
0

>  <SCORE.INTRA.SOLV.lig_0>
-33.1994

>  <SCORE.INTRA.VDW>
0

>  <SCORE.INTRA.VDW.0>
0

>  <SCORE.INTRA.norm>
0

>  <SCORE.RESTR>
0

>  <SCORE.RESTR.CAVITY>
0

>  <SCORE.RESTR.norm>
0

>  <SCORE.SYSTEM>
0

>  <SCORE.SYSTEM.CONST>
0

>  <SCORE.SYSTEM.DIHEDRAL>
0

>  <SCORE.SYSTEM.SOLV>
0

>  <SCORE.SYSTEM.norm>
0

>  <SCORE.heavy>
13

>  <SCORE.norm>
-1.84831

>  <RMSD>
4.894

$$$$
ligand
 OpenBabel11021811473D
libRbt.so/2013.1/901 2013/11/27
 13 14  0  0  0  0  0  0  0  0999 V2000
   36.4627   32.1233   26.7714 N   0  0  0  0  0  0  0  0  0  0  0  0
   37.6184   33.1989   26.9044 C   0  0  0  0  0  0  0  0  0  0  0  0
   38.5570   33.0555   27.9074 N   0  0  0  0  0  0  0  0  0  0  0  0
   37.5148   34.1164   26.0377 N   0  0  0  0  0  0  0  0  0  0  0  0
   36.6309   34.3007   25.0382 C   0  0  0  0  0  0  0  0  0  0  0  0
   35.6218   33.4283   24.8475 C   0  0  0  0  0  0  0  0  0  0  0  0
   35.5218   32.2028   25.8391 C   0  0  0  0  0  0  0  0  0  0  0  0
   34.6289   31.4388   25.6585 O   0  0  0  0  0  0  0  0  0  0  0  0
   34.7082   33.8230   23.6723 C   0  0  0  0  0  0  0  0  0  0  0  0
   35.2367   34.9501   23.1825 C   0  0  0  0  0  0  0  0  0  0  0  0
   36.3497   35.4035   23.8380 N   0  0  0  0  0  0  0  0  0  0  0  0
   33.5240   33.0752   23.1928 C   0  0  0  0  0  0  0  0  0  0  0  0
   32.5943   32.4653   22.8755 N   0  0  0  0  0  0  0  0  0  0  0  0
  1  2  1  0  0  0  0
  1  7  1  0  0  0  0
  2  3  1  0  0  0  0
  2  4  2  0  0  0  0
  4  5  1  0  0  0  0
  5  6  2  0  0  0  0
  5 11  1  0  0  0  0
  6  7  1  0  0  0  0
  6  9  1  0  0  0  0
  7  8  2  0  0  0  0
  9 10  2  0  0  0  0
  9 12  1  0  0  0  0
 10 11  1  0  0  0  0
 12 13  3  0  0  0  0
M  END
>  <CHROM.1>
35.77120324,33.31228795,25.09799545,0.48823460,0.61363893,2.42877655

>  <Name>
ligand

>  <RI>
0

>  <Rbt.Current_Directory>
/home/itssahil/PROJECTS/Mol_Feturizer/New_Systems/rnas/3GCA

>  <Rbt.Executable>
rbdock ($Id: //depot/dev/client3/rdock/2013.1/src/exe/rbdock.cxx#4 $)

>  <Rbt.Library>
libRbt.so (2013.1, Build901 2013/11/27)

>  <Rbt.Parameter_File>
/export/apps/rDock/src/rDock_2013.1_src/data/scripts/dock_solv.prm

>  <Rbt.Receptor>
prm/blind_docking_60.prm

>  <SCORE>
-24.0063

>  <SCORE.INTER>
-24.0063

>  <SCORE.INTER.CONST>
1

>  <SCORE.INTER.POLAR>
0

>  <SCORE.INTER.ROT>
0

>  <SCORE.INTER.SOLV>
11.2045

>  <SCORE.INTER.VDW>
-23.3391

>  <SCORE.INTER.norm>
-1.84664

>  <SCORE.INTRA>
0

>  <SCORE.INTRA.DIHEDRAL>
0

>  <SCORE.INTRA.DIHEDRAL.0>
0

>  <SCORE.INTRA.POLAR>
0

>  <SCORE.INTRA.POLAR.0>
0

>  <SCORE.INTRA.REPUL>
0

>  <SCORE.INTRA.REPUL.0>
0

>  <SCORE.INTRA.SOLV>
0

>  <SCORE.INTRA.SOLV.lig_0>
-33.1994

>  <SCORE.INTRA.VDW>
0

>  <SCORE.INTRA.VDW.0>
0

>  <SCORE.INTRA.norm>
0

>  <SCORE.RESTR>
0

>  <SCORE.RESTR.CAVITY>
0

>  <SCORE.RESTR.norm>
0

>  <SCORE.SYSTEM>
0

>  <SCORE.SYSTEM.CONST>
0

>  <SCORE.SYSTEM.DIHEDRAL>
0

>  <SCORE.SYSTEM.SOLV>
0

>  <SCORE.SYSTEM.norm>
0

>  <SCORE.heavy>
13

>  <SCORE.norm>
-1.84664

>  <RMSD>
4.894

$$$$
ligand
 OpenBabel11021811473D
libRbt.so/2013.1/901 2013/11/27
 13 14  0  0  0  0  0  0  0  0999 V2000
   36.4171   32.0609   26.7724 N   0  0  0  0  0  0  0  0  0  0  0  0
   37.5647   33.1447   26.9103 C   0  0  0  0  0  0  0  0  0  0  0  0
   38.5050   33.0034   27.9120 N   0  0  0  0  0  0  0  0  0  0  0  0
   37.4534   34.0659   26.0485 N   0  0  0  0  0  0  0  0  0  0  0  0
   36.5674   34.2486   25.0505 C   0  0  0  0  0  0  0  0  0  0  0  0
   35.5649   33.3694   24.8559 C   0  0  0  0  0  0  0  0  0  0  0  0
   35.4750   32.1380   25.8412 C   0  0  0  0  0  0  0  0  0  0  0  0
   34.5879   31.3681   25.6572 O   0  0  0  0  0  0  0  0  0  0  0  0
   34.6474   33.7632   23.6834 C   0  0  0  0  0  0  0  0  0  0  0  0
   35.1669   34.8968   23.1991 C   0  0  0  0  0  0  0  0  0  0  0  0
   36.2768   35.3554   23.8563 N   0  0  0  0  0  0  0  0  0  0  0  0
   33.4688   33.0087   23.2007 C   0  0  0  0  0  0  0  0  0  0  0  0
   32.5436   32.3933   22.8809 N   0  0  0  0  0  0  0  0  0  0  0  0
  1  2  1  0  0  0  0
  1  7  1  0  0  0  0
  2  3  1  0  0  0  0
  2  4  2  0  0  0  0
  4  5  1  0  0  0  0
  5  6  2  0  0  0  0
  5 11  1  0  0  0  0
  6  7  1  0  0  0  0
  6  9  1  0  0  0  0
  7  8  2  0  0  0  0
  9 10  2  0  0  0  0
  9 12  1  0  0  0  0
 10 11  1  0  0  0  0
 12 13  3  0  0  0  0
M  END
>  <CHROM.1>
35.71536667,33.25324592,25.10570668,0.48051099,0.61815429,2.43844855

>  <Name>
ligand

>  <RI>
0

>  <Rbt.Current_Directory>
/home/itssahil/PROJECTS/Mol_Feturizer/New_Systems/rnas/3GCA

>  <Rbt.Executable>
rbdock ($Id: //depot/dev/client3/rdock/2013.1/src/exe/rbdock.cxx#4 $)

>  <Rbt.Library>
libRbt.so (2013.1, Build901 2013/11/27)

>  <Rbt.Parameter_File>
/export/apps/rDock/src/rDock_2013.1_src/data/scripts/dock_solv.prm

>  <Rbt.Receptor>
prm/blind_docking_80.prm

>  <SCORE>
-24.0369

>  <SCORE.INTER>
-24.0369

>  <SCORE.INTER.CONST>
1

>  <SCORE.INTER.POLAR>
0

>  <SCORE.INTER.ROT>
0

>  <SCORE.INTER.SOLV>
11.5058

>  <SCORE.INTER.VDW>
-23.4599

>  <SCORE.INTER.norm>
-1.84899

>  <SCORE.INTRA>
0

>  <SCORE.INTRA.DIHEDRAL>
0

>  <SCORE.INTRA.DIHEDRAL.0>
0

>  <SCORE.INTRA.POLAR>
0

>  <SCORE.INTRA.POLAR.0>
0

>  <SCORE.INTRA.REPUL>
0

>  <SCORE.INTRA.REPUL.0>
0

>  <SCORE.INTRA.SOLV>
0

>  <SCORE.INTRA.SOLV.lig_0>
-33.1994

>  <SCORE.INTRA.VDW>
0

>  <SCORE.INTRA.VDW.0>
0

>  <SCORE.INTRA.norm>
0

>  <SCORE.RESTR>
0

>  <SCORE.RESTR.CAVITY>
0

>  <SCORE.RESTR.norm>
0

>  <SCORE.SYSTEM>
0

>  <SCORE.SYSTEM.CONST>
0

>  <SCORE.SYSTEM.DIHEDRAL>
0

>  <SCORE.SYSTEM.SOLV>
0

>  <SCORE.SYSTEM.norm>
0

>  <SCORE.heavy>
13

>  <SCORE.norm>
-1.84899

>  <RMSD>
4.894

$$$$
ligand
 OpenBabel11021811473D
libRbt.so/2013.1/901 2013/11/27
 13 14  0  0  0  0  0  0  0  0999 V2000
   36.3996   32.0788   26.7817 N   0  0  0  0  0  0  0  0  0  0  0  0
   37.5665   33.1440   26.8994 C   0  0  0  0  0  0  0  0  0  0  0  0
   38.5078   33.0011   27.9000 N   0  0  0  0  0  0  0  0  0  0  0  0
   37.4684   34.0540   26.0242 N   0  0  0  0  0  0  0  0  0  0  0  0
   36.5822   34.2373   25.0266 C   0  0  0  0  0  0  0  0  0  0  0  0
   35.5637   33.3732   24.8486 C   0  0  0  0  0  0  0  0  0  0  0  0
   35.4556   32.1585   25.8526 C   0  0  0  0  0  0  0  0  0  0  0  0
   34.5544   31.4018   25.6832 O   0  0  0  0  0  0  0  0  0  0  0  0
   34.6491   33.7655   23.6734 C   0  0  0  0  0  0  0  0  0  0  0  0
   35.1867   34.8824   23.1704 C   0  0  0  0  0  0  0  0  0  0  0  0
   36.3069   35.3311   23.8168 N   0  0  0  0  0  0  0  0  0  0  0  0
   33.4555   33.0249   23.2060 C   0  0  0  0  0  0  0  0  0  0  0  0
   32.5185   32.4213   22.8986 N   0  0  0  0  0  0  0  0  0  0  0  0
  1  2  1  0  0  0  0
  1  7  1  0  0  0  0
  2  3  1  0  0  0  0
  2  4  2  0  0  0  0
  4  5  1  0  0  0  0
  5  6  2  0  0  0  0
  5 11  1  0  0  0  0
  6  7  1  0  0  0  0
  6  9  1  0  0  0  0
  7  8  2  0  0  0  0
  9 10  2  0  0  0  0
  9 12  1  0  0  0  0
 10 11  1  0  0  0  0
 12 13  3  0  0  0  0
M  END
>  <CHROM.1>
35.71295180,33.25818229,25.09960575,0.49404177,0.60394487,2.41565902

>  <Name>
ligand

>  <RI>
0

>  <Rbt.Current_Directory>
/home/itssahil/PROJECTS/Mol_Feturizer/New_Systems/rnas/3GCA

>  <Rbt.Executable>
rbdock ($Id: //depot/dev/client3/rdock/2013.1/src/exe/rbdock.cxx#4 $)

>  <Rbt.Library>
libRbt.so (2013.1, Build901 2013/11/27)

>  <Rbt.Parameter_File>
/export/apps/rDock/src/rDock_2013.1_src/data/scripts/dock_solv.prm

>  <Rbt.Receptor>
prm/blind_docking_80.prm

>  <SCORE>
-24.0607

>  <SCORE.INTER>
-24.0607

>  <SCORE.INTER.CONST>
1

>  <SCORE.INTER.POLAR>
0

>  <SCORE.INTER.ROT>
0

>  <SCORE.INTER.SOLV>
11.4683

>  <SCORE.INTER.VDW>
-23.4633

>  <SCORE.INTER.norm>
-1.85083

>  <SCORE.INTRA>
0

>  <SCORE.INTRA.DIHEDRAL>
0

>  <SCORE.INTRA.DIHEDRAL.0>
0

>  <SCORE.INTRA.POLAR>
0

>  <SCORE.INTRA.POLAR.0>
0

>  <SCORE.INTRA.REPUL>
0

>  <SCORE.INTRA.REPUL.0>
0

>  <SCORE.INTRA.SOLV>
0

>  <SCORE.INTRA.SOLV.lig_0>
-33.1994

>  <SCORE.INTRA.VDW>
0

>  <SCORE.INTRA.VDW.0>
0

>  <SCORE.INTRA.norm>
0

>  <SCORE.RESTR>
0

>  <SCORE.RESTR.CAVITY>
0

>  <SCORE.RESTR.norm>
0

>  <SCORE.SYSTEM>
0

>  <SCORE.SYSTEM.CONST>
0

>  <SCORE.SYSTEM.DIHEDRAL>
0

>  <SCORE.SYSTEM.SOLV>
0

>  <SCORE.SYSTEM.norm>
0

>  <SCORE.heavy>
13

>  <SCORE.norm>
-1.85083

>  <RMSD>
4.894

$$$$
ligand
 OpenBabel11021811473D
libRbt.so/2013.1/901 2013/11/27
 13 14  0  0  0  0  0  0  0  0999 V2000
   36.4152   32.0869   26.7735 N   0  0  0  0  0  0  0  0  0  0  0  0
   37.5807   33.1537   26.8906 C   0  0  0  0  0  0  0  0  0  0  0  0
   38.5234   33.0114   27.8899 N   0  0  0  0  0  0  0  0  0  0  0  0
   37.4803   34.0642   26.0161 N   0  0  0  0  0  0  0  0  0  0  0  0
   36.5927   34.2470   25.0197 C   0  0  0  0  0  0  0  0  0  0  0  0
   35.5752   33.3815   24.8422 C   0  0  0  0  0  0  0  0  0  0  0  0
   35.4701   32.1659   25.8454 C   0  0  0  0  0  0  0  0  0  0  0  0
   34.5698   31.4080   25.6765 O   0  0  0  0  0  0  0  0  0  0  0  0
   34.6587   33.7734   23.6683 C   0  0  0  0  0  0  0  0  0  0  0  0
   35.1941   34.8914   23.1655 C   0  0  0  0  0  0  0  0  0  0  0  0
   36.3144   35.3413   23.8110 N   0  0  0  0  0  0  0  0  0  0  0  0
   33.4657   33.0314   23.2018 C   0  0  0  0  0  0  0  0  0  0  0  0
   32.5292   32.4266   22.8950 N   0  0  0  0  0  0  0  0  0  0  0  0
  1  2  1  0  0  0  0
  1  7  1  0  0  0  0
  2  3  1  0  0  0  0
  2  4  2  0  0  0  0
  4  5  1  0  0  0  0
  5  6  2  0  0  0  0
  5 11  1  0  0  0  0
  6  7  1  0  0  0  0
  6  9  1  0  0  0  0
  7  8  2  0  0  0  0
  9 10  2  0  0  0  0
  9 12  1  0  0  0  0
 10 11  1  0  0  0  0
 12 13  3  0  0  0  0
M  END
>  <CHROM.1>
35.72494855,33.26652676,25.09296353,0.49180255,0.60405154,2.41766208

>  <Name>
ligand

>  <RI>
0

>  <Rbt.Current_Directory>
/home/itssahil/PROJECTS/Mol_Feturizer/New_Systems/rnas/3GCA

>  <Rbt.Executable>
rbdock ($Id: //depot/dev/client3/rdock/2013.1/src/exe/rbdock.cxx#4 $)

>  <Rbt.Library>
libRbt.so (2013.1, Build901 2013/11/27)

>  <Rbt.Parameter_File>
/export/apps/rDock/src/rDock_2013.1_src/data/scripts/dock_solv.prm

>  <Rbt.Receptor>
prm/pocket_docking_3.prm

>  <SCORE>
-24.0604

>  <SCORE.INTER>
-24.0604

>  <SCORE.INTER.CONST>
1

>  <SCORE.INTER.POLAR>
0

>  <SCORE.INTER.ROT>
0

>  <SCORE.INTER.SOLV>
11.3833

>  <SCORE.INTER.VDW>
-23.4347

>  <SCORE.INTER.norm>
-1.8508

>  <SCORE.INTRA>
0

>  <SCORE.INTRA.DIHEDRAL>
0

>  <SCORE.INTRA.DIHEDRAL.0>
0

>  <SCORE.INTRA.POLAR>
0

>  <SCORE.INTRA.POLAR.0>
0

>  <SCORE.INTRA.REPUL>
0

>  <SCORE.INTRA.REPUL.0>
0

>  <SCORE.INTRA.SOLV>
0

>  <SCORE.INTRA.SOLV.lig_0>
-33.1994

>  <SCORE.INTRA.VDW>
0

>  <SCORE.INTRA.VDW.0>
0

>  <SCORE.INTRA.norm>
0

>  <SCORE.RESTR>
0

>  <SCORE.RESTR.CAVITY>
0

>  <SCORE.RESTR.norm>
0

>  <SCORE.SYSTEM>
0

>  <SCORE.SYSTEM.CONST>
0

>  <SCORE.SYSTEM.DIHEDRAL>
0

>  <SCORE.SYSTEM.SOLV>
0

>  <SCORE.SYSTEM.norm>
0

>  <SCORE.heavy>
13

>  <SCORE.norm>
-1.8508

>  <RMSD>
4.894

$$$$
ligand
 OpenBabel11021811473D
libRbt.so/2013.1/901 2013/11/27
 13 14  0  0  0  0  0  0  0  0999 V2000
   36.4032   32.0893   26.7891 N   0  0  0  0  0  0  0  0  0  0  0  0
   37.5860   33.1386   26.8905 C   0  0  0  0  0  0  0  0  0  0  0  0
   38.5299   32.9922   27.8882 N   0  0  0  0  0  0  0  0  0  0  0  0
   37.4970   34.0410   26.0064 N   0  0  0  0  0  0  0  0  0  0  0  0
   36.6088   34.2269   25.0110 C   0  0  0  0  0  0  0  0  0  0  0  0
   35.5770   33.3760   24.8466 C   0  0  0  0  0  0  0  0  0  0  0  0
   35.4561   32.1733   25.8635 C   0  0  0  0  0  0  0  0  0  0  0  0
   34.5432   31.4280   25.7060 O   0  0  0  0  0  0  0  0  0  0  0  0
   34.6627   33.7695   23.6716 C   0  0  0  0  0  0  0  0  0  0  0  0
   35.2141   34.8733   23.1547 C   0  0  0  0  0  0  0  0  0  0  0  0
   36.3437   35.3122   23.7913 N   0  0  0  0  0  0  0  0  0  0  0  0
   33.4563   33.0416   23.2174 C   0  0  0  0  0  0  0  0  0  0  0  0
   32.5092   32.4486   22.9205 N   0  0  0  0  0  0  0  0  0  0  0  0
  1  2  1  0  0  0  0
  1  7  1  0  0  0  0
  2  3  1  0  0  0  0
  2  4  2  0  0  0  0
  4  5  1  0  0  0  0
  5  6  2  0  0  0  0
  5 11  1  0  0  0  0
  6  7  1  0  0  0  0
  6  9  1  0  0  0  0
  7  8  2  0  0  0  0
  9 10  2  0  0  0  0
  9 12  1  0  0  0  0
 10 11  1  0  0  0  0
 12 13  3  0  0  0  0
M  END
>  <CHROM.1>
35.72579719,33.26134300,25.09810583,0.50333051,0.59076426,2.40018650

>  <Name>
ligand

>  <RI>
0

>  <Rbt.Current_Directory>
/home/itssahil/PROJECTS/Mol_Feturizer/New_Systems/rnas/3GCA

>  <Rbt.Executable>
rbdock ($Id: //depot/dev/client3/rdock/2013.1/src/exe/rbdock.cxx#4 $)

>  <Rbt.Library>
libRbt.so (2013.1, Build901 2013/11/27)

>  <Rbt.Parameter_File>
/export/apps/rDock/src/rDock_2013.1_src/data/scripts/dock_solv.prm

>  <Rbt.Receptor>
prm/pocket_docking_3.prm

>  <SCORE>
-24.0582

>  <SCORE.INTER>
-24.0582

>  <SCORE.INTER.CONST>
1

>  <SCORE.INTER.POLAR>
0

>  <SCORE.INTER.ROT>
0

>  <SCORE.INTER.SOLV>
11.3607

>  <SCORE.INTER.VDW>
-23.4257

>  <SCORE.INTER.norm>
-1.85063

>  <SCORE.INTRA>
0

>  <SCORE.INTRA.DIHEDRAL>
0

>  <SCORE.INTRA.DIHEDRAL.0>
0

>  <SCORE.INTRA.POLAR>
0

>  <SCORE.INTRA.POLAR.0>
0

>  <SCORE.INTRA.REPUL>
0

>  <SCORE.INTRA.REPUL.0>
0

>  <SCORE.INTRA.SOLV>
0

>  <SCORE.INTRA.SOLV.lig_0>
-33.1994

>  <SCORE.INTRA.VDW>
0

>  <SCORE.INTRA.VDW.0>
0

>  <SCORE.INTRA.norm>
0

>  <SCORE.RESTR>
0

>  <SCORE.RESTR.CAVITY>
0

>  <SCORE.RESTR.norm>
0

>  <SCORE.SYSTEM>
0

>  <SCORE.SYSTEM.CONST>
0

>  <SCORE.SYSTEM.DIHEDRAL>
0

>  <SCORE.SYSTEM.SOLV>
0

>  <SCORE.SYSTEM.norm>
0

>  <SCORE.heavy>
13

>  <SCORE.norm>
-1.85063

>  <RMSD>
4.894

$$$$
ligand
 OpenBabel11021811473D
libRbt.so/2013.1/901 2013/11/27
 13 14  0  0  0  0  0  0  0  0999 V2000
   36.4319   32.0860   26.7904 N   0  0  0  0  0  0  0  0  0  0  0  0
   37.5970   33.1524   26.9151 C   0  0  0  0  0  0  0  0  0  0  0  0
   38.5388   33.0043   27.9144 N   0  0  0  0  0  0  0  0  0  0  0  0
   37.4971   34.0683   26.0462 N   0  0  0  0  0  0  0  0  0  0  0  0
   36.6103   34.2569   25.0500 C   0  0  0  0  0  0  0  0  0  0  0  0
   35.5933   33.3922   24.8663 C   0  0  0  0  0  0  0  0  0  0  0  0
   35.4876   32.1704   25.8620 C   0  0  0  0  0  0  0  0  0  0  0  0
   34.5877   31.4133   25.6876 O   0  0  0  0  0  0  0  0  0  0  0  0
   34.6777   33.7909   23.6940 C   0  0  0  0  0  0  0  0  0  0  0  0
   35.2132   34.9122   23.1985 C   0  0  0  0  0  0  0  0  0  0  0  0
   36.3328   35.3584   23.8478 N   0  0  0  0  0  0  0  0  0  0  0  0
   33.4853   33.0514   23.2219 C   0  0  0  0  0  0  0  0  0  0  0  0
   32.5493   32.4483   22.9105 N   0  0  0  0  0  0  0  0  0  0  0  0
  1  2  1  0  0  0  0
  1  7  1  0  0  0  0
  2  3  1  0  0  0  0
  2  4  2  0  0  0  0
  4  5  1  0  0  0  0
  5  6  2  0  0  0  0
  5 11  1  0  0  0  0
  6  7  1  0  0  0  0
  6  9  1  0  0  0  0
  7  8  2  0  0  0  0
  9 10  2  0  0  0  0
  9 12  1  0  0  0  0
 10 11  1  0  0  0  0
 12 13  3  0  0  0  0
M  END
>  <CHROM.1>
35.74278032,33.27569206,25.11649847,0.49225729,0.60494401,2.42352013

>  <Name>
ligand

>  <RI>
0

>  <Rbt.Current_Directory>
/home/itssahil/PROJECTS/Mol_Feturizer/New_Systems/rnas/3GCA

>  <Rbt.Executable>
rbdock ($Id: //depot/dev/client3/rdock/2013.1/src/exe/rbdock.cxx#4 $)

>  <Rbt.Library>
libRbt.so (2013.1, Build901 2013/11/27)

>  <Rbt.Parameter_File>
/export/apps/rDock/src/rDock_2013.1_src/data/scripts/dock_solv.prm

>  <Rbt.Receptor>
prm/pocket_docking_4.prm

>  <SCORE>
-24.0269

>  <SCORE.INTER>
-24.0269

>  <SCORE.INTER.CONST>
1

>  <SCORE.INTER.POLAR>
0

>  <SCORE.INTER.ROT>
0

>  <SCORE.INTER.SOLV>
11.3345

>  <SCORE.INTER.VDW>
-23.3961

>  <SCORE.INTER.norm>
-1.84822

>  <SCORE.INTRA>
0

>  <SCORE.INTRA.DIHEDRAL>
0

>  <SCORE.INTRA.DIHEDRAL.0>
0

>  <SCORE.INTRA.POLAR>
0

>  <SCORE.INTRA.POLAR.0>
0

>  <SCORE.INTRA.REPUL>
0

>  <SCORE.INTRA.REPUL.0>
0

>  <SCORE.INTRA.SOLV>
0

>  <SCORE.INTRA.SOLV.lig_0>
-33.1994

>  <SCORE.INTRA.VDW>
0

>  <SCORE.INTRA.VDW.0>
0

>  <SCORE.INTRA.norm>
0

>  <SCORE.RESTR>
0

>  <SCORE.RESTR.CAVITY>
0

>  <SCORE.RESTR.norm>
0

>  <SCORE.SYSTEM>
0

>  <SCORE.SYSTEM.CONST>
0

>  <SCORE.SYSTEM.DIHEDRAL>
0

>  <SCORE.SYSTEM.SOLV>
0

>  <SCORE.SYSTEM.norm>
0

>  <SCORE.heavy>
13

>  <SCORE.norm>
-1.84822

>  <RMSD>
4.894

$$$$
ligand
 OpenBabel11021811473D
libRbt.so/2013.1/901 2013/11/27
 13 14  0  0  0  0  0  0  0  0999 V2000
   36.4452   32.0608   26.7579 N   0  0  0  0  0  0  0  0  0  0  0  0
   37.5972   33.1400   26.8944 C   0  0  0  0  0  0  0  0  0  0  0  0
   38.5384   32.9946   27.8947 N   0  0  0  0  0  0  0  0  0  0  0  0
   37.4883   34.0619   26.0330 N   0  0  0  0  0  0  0  0  0  0  0  0
   36.6016   34.2483   25.0363 C   0  0  0  0  0  0  0  0  0  0  0  0
   35.5955   33.3731   24.8430 C   0  0  0  0  0  0  0  0  0  0  0  0
   35.5021   32.1418   25.8280 C   0  0  0  0  0  0  0  0  0  0  0  0
   34.6117   31.3755   25.6450 O   0  0  0  0  0  0  0  0  0  0  0  0
   34.6779   33.7708   23.6718 C   0  0  0  0  0  0  0  0  0  0  0  0
   35.2011   34.9026   23.1871 C   0  0  0  0  0  0  0  0  0  0  0  0
   36.3138   35.3566   23.8428 N   0  0  0  0  0  0  0  0  0  0  0  0
   33.4955   33.0212   23.1906 C   0  0  0  0  0  0  0  0  0  0  0  0
   32.5675   32.4096   22.8719 N   0  0  0  0  0  0  0  0  0  0  0  0
  1  2  1  0  0  0  0
  1  7  1  0  0  0  0
  2  3  1  0  0  0  0
  2  4  2  0  0  0  0
  4  5  1  0  0  0  0
  5  6  2  0  0  0  0
  5 11  1  0  0  0  0
  6  7  1  0  0  0  0
  6  9  1  0  0  0  0
  7  8  2  0  0  0  0
  9 10  2  0  0  0  0
  9 12  1  0  0  0  0
 10 11  1  0  0  0  0
 12 13  3  0  0  0  0
M  END
>  <CHROM.1>
35.74577844,33.25631302,25.09247365,0.48308924,0.61452177,2.43722658

>  <Name>
ligand

>  <RI>
0

>  <Rbt.Current_Directory>
/home/itssahil/PROJECTS/Mol_Feturizer/New_Systems/rnas/3GCA

>  <Rbt.Executable>
rbdock ($Id: //depot/dev/client3/rdock/2013.1/src/exe/rbdock.cxx#4 $)

>  <Rbt.Library>
libRbt.so (2013.1, Build901 2013/11/27)

>  <Rbt.Parameter_File>
/export/apps/rDock/src/rDock_2013.1_src/data/scripts/dock_solv.prm

>  <Rbt.Receptor>
prm/pocket_docking_5.prm

>  <SCORE>
-24.0131

>  <SCORE.INTER>
-24.0131

>  <SCORE.INTER.CONST>
1

>  <SCORE.INTER.POLAR>
0

>  <SCORE.INTER.ROT>
0

>  <SCORE.INTER.SOLV>
11.3383

>  <SCORE.INTER.VDW>
-23.3882

>  <SCORE.INTER.norm>
-1.84716

>  <SCORE.INTRA>
0

>  <SCORE.INTRA.DIHEDRAL>
0

>  <SCORE.INTRA.DIHEDRAL.0>
0

>  <SCORE.INTRA.POLAR>
0

>  <SCORE.INTRA.POLAR.0>
0

>  <SCORE.INTRA.REPUL>
0

>  <SCORE.INTRA.REPUL.0>
0

>  <SCORE.INTRA.SOLV>
0

>  <SCORE.INTRA.SOLV.lig_0>
-33.1994

>  <SCORE.INTRA.VDW>
0

>  <SCORE.INTRA.VDW.0>
0

>  <SCORE.INTRA.norm>
0

>  <SCORE.RESTR>
0

>  <SCORE.RESTR.CAVITY>
0

>  <SCORE.RESTR.norm>
0

>  <SCORE.SYSTEM>
0

>  <SCORE.SYSTEM.CONST>
0

>  <SCORE.SYSTEM.DIHEDRAL>
0

>  <SCORE.SYSTEM.SOLV>
0

>  <SCORE.SYSTEM.norm>
0

>  <SCORE.heavy>
13

>  <SCORE.norm>
-1.84716

>  <RMSD>
4.894

$$$$
ligand
 OpenBabel11021811473D
libRbt.so/2013.1/901 2013/11/27
 13 14  0  0  0  0  0  0  0  0999 V2000
   36.4249   32.0484   26.7655 N   0  0  0  0  0  0  0  0  0  0  0  0
   37.5769   33.1277   26.9008 C   0  0  0  0  0  0  0  0  0  0  0  0
   38.5222   32.9797   27.8968 N   0  0  0  0  0  0  0  0  0  0  0  0
   37.4642   34.0522   26.0427 N   0  0  0  0  0  0  0  0  0  0  0  0
   36.5735   34.2414   25.0502 C   0  0  0  0  0  0  0  0  0  0  0  0
   35.5669   33.3663   24.8581 C   0  0  0  0  0  0  0  0  0  0  0  0
   35.4780   32.1319   25.8396 C   0  0  0  0  0  0  0  0  0  0  0  0
   34.5872   31.3658   25.6578 O   0  0  0  0  0  0  0  0  0  0  0  0
   34.6445   33.7673   23.6919 C   0  0  0  0  0  0  0  0  0  0  0  0
   35.1653   34.9008   23.2086 C   0  0  0  0  0  0  0  0  0  0  0  0
   36.2803   35.3533   23.8612 N   0  0  0  0  0  0  0  0  0  0  0  0
   33.4605   33.0186   23.2131 C   0  0  0  0  0  0  0  0  0  0  0  0
   32.5315   32.4076   22.8962 N   0  0  0  0  0  0  0  0  0  0  0  0
  1  2  1  0  0  0  0
  1  7  1  0  0  0  0
  2  3  1  0  0  0  0
  2  4  2  0  0  0  0
  4  5  1  0  0  0  0
  5  6  2  0  0  0  0
  5 11  1  0  0  0  0
  6  7  1  0  0  0  0
  6  9  1  0  0  0  0
  7  8  2  0  0  0  0
  9 10  2  0  0  0  0
  9 12  1  0  0  0  0
 10 11  1  0  0  0  0
 12 13  3  0  0  0  0
M  END
>  <CHROM.1>
35.71826528,33.24882938,25.10662337,0.47951739,0.61174726,2.44240219

>  <Name>
ligand

>  <RI>
0

>  <Rbt.Current_Directory>
/home/itssahil/PROJECTS/Mol_Feturizer/New_Systems/rnas/3GCA

>  <Rbt.Executable>
rbdock ($Id: //depot/dev/client3/rdock/2013.1/src/exe/rbdock.cxx#4 $)

>  <Rbt.Library>
libRbt.so (2013.1, Build901 2013/11/27)

>  <Rbt.Parameter_File>
/export/apps/rDock/src/rDock_2013.1_src/data/scripts/dock_solv.prm

>  <Rbt.Receptor>
prm/pocket_docking_5.prm

>  <SCORE>
-24.0431

>  <SCORE.INTER>
-24.0431

>  <SCORE.INTER.CONST>
1

>  <SCORE.INTER.POLAR>
0

>  <SCORE.INTER.ROT>
0

>  <SCORE.INTER.SOLV>
11.4304

>  <SCORE.INTER.VDW>
-23.4389

>  <SCORE.INTER.norm>
-1.84947

>  <SCORE.INTRA>
0

>  <SCORE.INTRA.DIHEDRAL>
0

>  <SCORE.INTRA.DIHEDRAL.0>
0

>  <SCORE.INTRA.POLAR>
0

>  <SCORE.INTRA.POLAR.0>
0

>  <SCORE.INTRA.REPUL>
0

>  <SCORE.INTRA.REPUL.0>
0

>  <SCORE.INTRA.SOLV>
0

>  <SCORE.INTRA.SOLV.lig_0>
-33.1994

>  <SCORE.INTRA.VDW>
0

>  <SCORE.INTRA.VDW.0>
0

>  <SCORE.INTRA.norm>
0

>  <SCORE.RESTR>
0

>  <SCORE.RESTR.CAVITY>
0

>  <SCORE.RESTR.norm>
0

>  <SCORE.SYSTEM>
0

>  <SCORE.SYSTEM.CONST>
0

>  <SCORE.SYSTEM.DIHEDRAL>
0

>  <SCORE.SYSTEM.SOLV>
0

>  <SCORE.SYSTEM.norm>
0

>  <SCORE.heavy>
13

>  <SCORE.norm>
-1.84947

>  <RMSD>
4.894

$$$$
ligand
 OpenBabel11021811473D
libRbt.so/2013.1/901 2013/11/27
 13 14  0  0  0  0  0  0  0  0999 V2000
   36.4324   32.0476   26.7656 N   0  0  0  0  0  0  0  0  0  0  0  0
   37.5793   33.1315   26.9077 C   0  0  0  0  0  0  0  0  0  0  0  0
   38.5246   32.9824   27.9035 N   0  0  0  0  0  0  0  0  0  0  0  0
   37.4628   34.0603   26.0547 N   0  0  0  0  0  0  0  0  0  0  0  0
   36.5718   34.2508   25.0627 C   0  0  0  0  0  0  0  0  0  0  0  0
   35.5695   33.3721   24.8650 C   0  0  0  0  0  0  0  0  0  0  0  0
   35.4858   32.1319   25.8396 C   0  0  0  0  0  0  0  0  0  0  0  0
   34.5987   31.3626   25.6530 O   0  0  0  0  0  0  0  0  0  0  0  0
   34.6459   33.7753   23.7005 C   0  0  0  0  0  0  0  0  0  0  0  0
   35.1616   34.9139   23.2239 C   0  0  0  0  0  0  0  0  0  0  0  0
   36.2742   35.3679   23.8798 N   0  0  0  0  0  0  0  0  0  0  0  0
   33.4658   33.0237   23.2167 C   0  0  0  0  0  0  0  0  0  0  0  0
   32.5398   32.4101   22.8958 N   0  0  0  0  0  0  0  0  0  0  0  0
  1  2  1  0  0  0  0
  1  7  1  0  0  0  0
  2  3  1  0  0  0  0
  2  4  2  0  0  0  0
  4  5  1  0  0  0  0
  5  6  2  0  0  0  0
  5 11  1  0  0  0  0
  6  7  1  0  0  0  0
  6  9  1  0  0  0  0
  7  8  2  0  0  0  0
  9 10  2  0  0  0  0
  9 12  1  0  0  0  0
 10 11  1  0  0  0  0
 12 13  3  0  0  0  0
M  END
>  <CHROM.1>
35.72123305,33.25395227,25.11301592,0.47560230,0.61525585,2.45024188

>  <Name>
ligand

>  <RI>
0

>  <Rbt.Current_Directory>
/home/itssahil/PROJECTS/Mol_Feturizer/New_Systems/rnas/3GCA

>  <Rbt.Executable>
rbdock ($Id: //depot/dev/client3/rdock/2013.1/src/exe/rbdock.cxx#4 $)

>  <Rbt.Library>
libRbt.so (2013.1, Build901 2013/11/27)

>  <Rbt.Parameter_File>
/export/apps/rDock/src/rDock_2013.1_src/data/scripts/dock_solv.prm

>  <Rbt.Receptor>
prm/pocket_docking_5.prm

>  <SCORE>
-24.0378

>  <SCORE.INTER>
-24.0378

>  <SCORE.INTER.CONST>
1

>  <SCORE.INTER.POLAR>
0

>  <SCORE.INTER.ROT>
0

>  <SCORE.INTER.SOLV>
11.427

>  <SCORE.INTER.VDW>
-23.4342

>  <SCORE.INTER.norm>
-1.84906

>  <SCORE.INTRA>
0

>  <SCORE.INTRA.DIHEDRAL>
0

>  <SCORE.INTRA.DIHEDRAL.0>
0

>  <SCORE.INTRA.POLAR>
0

>  <SCORE.INTRA.POLAR.0>
0

>  <SCORE.INTRA.REPUL>
0

>  <SCORE.INTRA.REPUL.0>
0

>  <SCORE.INTRA.SOLV>
0

>  <SCORE.INTRA.SOLV.lig_0>
-33.1994

>  <SCORE.INTRA.VDW>
0

>  <SCORE.INTRA.VDW.0>
0

>  <SCORE.INTRA.norm>
0

>  <SCORE.RESTR>
0

>  <SCORE.RESTR.CAVITY>
0

>  <SCORE.RESTR.norm>
0

>  <SCORE.SYSTEM>
0

>  <SCORE.SYSTEM.CONST>
0

>  <SCORE.SYSTEM.DIHEDRAL>
0

>  <SCORE.SYSTEM.SOLV>
0

>  <SCORE.SYSTEM.norm>
0

>  <SCORE.heavy>
13

>  <SCORE.norm>
-1.84906

>  <RMSD>
4.894

$$$$
ligand
 OpenBabel11021811473D
libRbt.so/2013.1/901 2013/11/27
 13 14  0  0  0  0  0  0  0  0999 V2000
   36.3986   32.0883   26.7882 N   0  0  0  0  0  0  0  0  0  0  0  0
   37.5669   33.1523   26.9030 C   0  0  0  0  0  0  0  0  0  0  0  0
   38.5080   33.0110   27.9040 N   0  0  0  0  0  0  0  0  0  0  0  0
   37.4700   34.0601   26.0253 N   0  0  0  0  0  0  0  0  0  0  0  0
   36.5841   34.2418   25.0271 C   0  0  0  0  0  0  0  0  0  0  0  0
   35.5645   33.3785   24.8515 C   0  0  0  0  0  0  0  0  0  0  0  0
   35.4548   32.1667   25.8587 C   0  0  0  0  0  0  0  0  0  0  0  0
   34.5527   31.4107   25.6914 O   0  0  0  0  0  0  0  0  0  0  0  0
   34.6505   33.7688   23.6751 C   0  0  0  0  0  0  0  0  0  0  0  0
   35.1896   34.8836   23.1690 C   0  0  0  0  0  0  0  0  0  0  0  0
   36.3103   35.3326   23.8143 N   0  0  0  0  0  0  0  0  0  0  0  0
   33.4560   33.0284   23.2097 C   0  0  0  0  0  0  0  0  0  0  0  0
   32.5182   32.4251   22.9039 N   0  0  0  0  0  0  0  0  0  0  0  0
  1  2  1  0  0  0  0
  1  7  1  0  0  0  0
  2  3  1  0  0  0  0
  2  4  2  0  0  0  0
  4  5  1  0  0  0  0
  5  6  2  0  0  0  0
  5 11  1  0  0  0  0
  6  7  1  0  0  0  0
  6  9  1  0  0  0  0
  7  8  2  0  0  0  0
  9 10  2  0  0  0  0
  9 12  1  0  0  0  0
 10 11  1  0  0  0  0
 12 13  3  0  0  0  0
M  END
>  <CHROM.1>
35.71361185,33.26396369,25.10279146,0.49525888,0.60314435,2.41221645

>  <Name>
ligand

>  <RI>
0

>  <Rbt.Current_Directory>
/home/itssahil/PROJECTS/Mol_Feturizer/New_Systems/rnas/3GCA

>  <Rbt.Executable>
rbdock ($Id: //depot/dev/client3/rdock/2013.1/src/exe/rbdock.cxx#4 $)

>  <Rbt.Library>
libRbt.so (2013.1, Build901 2013/11/27)

>  <Rbt.Parameter_File>
/export/apps/rDock/src/rDock_2013.1_src/data/scripts/dock_solv.prm

>  <Rbt.Receptor>
prm/pocket_docking_5.prm

>  <SCORE>
-24.0597

>  <SCORE.INTER>
-24.0597

>  <SCORE.INTER.CONST>
1

>  <SCORE.INTER.POLAR>
0

>  <SCORE.INTER.ROT>
0

>  <SCORE.INTER.SOLV>
11.4649

>  <SCORE.INTER.VDW>
-23.4614

>  <SCORE.INTER.norm>
-1.85074

>  <SCORE.INTRA>
0

>  <SCORE.INTRA.DIHEDRAL>
0

>  <SCORE.INTRA.DIHEDRAL.0>
0

>  <SCORE.INTRA.POLAR>
0

>  <SCORE.INTRA.POLAR.0>
0

>  <SCORE.INTRA.REPUL>
0

>  <SCORE.INTRA.REPUL.0>
0

>  <SCORE.INTRA.SOLV>
0

>  <SCORE.INTRA.SOLV.lig_0>
-33.1994

>  <SCORE.INTRA.VDW>
0

>  <SCORE.INTRA.VDW.0>
0

>  <SCORE.INTRA.norm>
0

>  <SCORE.RESTR>
0

>  <SCORE.RESTR.CAVITY>
0

>  <SCORE.RESTR.norm>
0

>  <SCORE.SYSTEM>
0

>  <SCORE.SYSTEM.CONST>
0

>  <SCORE.SYSTEM.DIHEDRAL>
0

>  <SCORE.SYSTEM.SOLV>
0

>  <SCORE.SYSTEM.norm>
0

>  <SCORE.heavy>
13

>  <SCORE.norm>
-1.85074

>  <RMSD>
4.894

$$$$
ligand
 OpenBabel11021811473D
libRbt.so/2013.1/901 2013/11/27
 13 14  0  0  0  0  0  0  0  0999 V2000
   36.4346   32.0427   26.7631 N   0  0  0  0  0  0  0  0  0  0  0  0
   37.5789   33.1291   26.9059 C   0  0  0  0  0  0  0  0  0  0  0  0
   38.5241   32.9819   27.9022 N   0  0  0  0  0  0  0  0  0  0  0  0
   37.4607   34.0578   26.0530 N   0  0  0  0  0  0  0  0  0  0  0  0
   36.5698   34.2464   25.0606 C   0  0  0  0  0  0  0  0  0  0  0  0
   35.5696   33.3656   24.8623 C   0  0  0  0  0  0  0  0  0  0  0  0
   35.4882   32.1249   25.8366 C   0  0  0  0  0  0  0  0  0  0  0  0
   34.6029   31.3537   25.6494 O   0  0  0  0  0  0  0  0  0  0  0  0
   34.6457   33.7668   23.6974 C   0  0  0  0  0  0  0  0  0  0  0  0
   35.1591   34.9067   23.2212 C   0  0  0  0  0  0  0  0  0  0  0  0
   36.2703   35.3631   23.8777 N   0  0  0  0  0  0  0  0  0  0  0  0
   33.4675   33.0127   23.2129 C   0  0  0  0  0  0  0  0  0  0  0  0
   32.5431   32.3971   22.8914 N   0  0  0  0  0  0  0  0  0  0  0  0
  1  2  1  0  0  0  0
  1  7  1  0  0  0  0
  2  3  1  0  0  0  0
  2  4  2  0  0  0  0
  4  5  1  0  0  0  0
  5  6  2  0  0  0  0
  5 11  1  0  0  0  0
  6  7  1  0  0  0  0
  6  9  1  0  0  0  0
  7  8  2  0  0  0  0
  9 10  2  0  0  0  0
  9 12  1  0  0  0  0
 10 11  1  0  0  0  0
 12 13  3  0  0  0  0
M  END
>  <CHROM.1>
35.72147149,33.24768984,25.11032615,0.47385813,0.61706539,2.45143445

>  <Name>
ligand

>  <RI>
0

>  <Rbt.Current_Directory>
/home/itssahil/PROJECTS/Mol_Feturizer/New_Systems/rnas/3GCA

>  <Rbt.Executable>
rbdock ($Id: //depot/dev/client3/rdock/2013.1/src/exe/rbdock.cxx#4 $)

>  <Rbt.Library>
libRbt.so (2013.1, Build901 2013/11/27)

>  <Rbt.Parameter_File>
/export/apps/rDock/src/rDock_2013.1_src/data/scripts/dock_solv.prm

>  <Rbt.Receptor>
prm/pocket_docking_6.prm

>  <SCORE>
-24.0372

>  <SCORE.INTER>
-24.0372

>  <SCORE.INTER.CONST>
1

>  <SCORE.INTER.POLAR>
0

>  <SCORE.INTER.ROT>
0

>  <SCORE.INTER.SOLV>
11.4332

>  <SCORE.INTER.VDW>
-23.4359

>  <SCORE.INTER.norm>
-1.84902

>  <SCORE.INTRA>
0

>  <SCORE.INTRA.DIHEDRAL>
0

>  <SCORE.INTRA.DIHEDRAL.0>
0

>  <SCORE.INTRA.POLAR>
0

>  <SCORE.INTRA.POLAR.0>
0

>  <SCORE.INTRA.REPUL>
0

>  <SCORE.INTRA.REPUL.0>
0

>  <SCORE.INTRA.SOLV>
0

>  <SCORE.INTRA.SOLV.lig_0>
-33.1994

>  <SCORE.INTRA.VDW>
0

>  <SCORE.INTRA.VDW.0>
0

>  <SCORE.INTRA.norm>
0

>  <SCORE.RESTR>
0

>  <SCORE.RESTR.CAVITY>
0

>  <SCORE.RESTR.norm>
0

>  <SCORE.SYSTEM>
0

>  <SCORE.SYSTEM.CONST>
0

>  <SCORE.SYSTEM.DIHEDRAL>
0

>  <SCORE.SYSTEM.SOLV>
0

>  <SCORE.SYSTEM.norm>
0

>  <SCORE.heavy>
13

>  <SCORE.norm>
-1.84902

>  <RMSD>
4.894

$$$$
ligand
 OpenBabel11021811473D
libRbt.so/2013.1/901 2013/11/27
 13 14  0  0  0  0  0  0  0  0999 V2000
   36.4345   32.0574   26.7516 N   0  0  0  0  0  0  0  0  0  0  0  0
   37.5787   33.1446   26.8894 C   0  0  0  0  0  0  0  0  0  0  0  0
   38.5260   33.0002   27.8840 N   0  0  0  0  0  0  0  0  0  0  0  0
   37.4584   34.0711   26.0345 N   0  0  0  0  0  0  0  0  0  0  0  0
   36.5652   34.2570   25.0435 C   0  0  0  0  0  0  0  0  0  0  0  0
   35.5649   33.3753   24.8495 C   0  0  0  0  0  0  0  0  0  0  0  0
   35.4861   32.1370   25.8270 C   0  0  0  0  0  0  0  0  0  0  0  0
   34.6008   31.3649   25.6435 O   0  0  0  0  0  0  0  0  0  0  0  0
   34.6384   33.7733   23.6855 C   0  0  0  0  0  0  0  0  0  0  0  0
   35.1504   34.9122   23.2055 C   0  0  0  0  0  0  0  0  0  0  0  0
   36.2628   35.3707   23.8586 N   0  0  0  0  0  0  0  0  0  0  0  0
   33.4595   33.0176   23.2054 C   0  0  0  0  0  0  0  0  0  0  0  0
   32.5347   32.4008   22.8874 N   0  0  0  0  0  0  0  0  0  0  0  0
  1  2  1  0  0  0  0
  1  7  1  0  0  0  0
  2  3  1  0  0  0  0
  2  4  2  0  0  0  0
  4  5  1  0  0  0  0
  5  6  2  0  0  0  0
  5 11  1  0  0  0  0
  6  7  1  0  0  0  0
  6  9  1  0  0  0  0
  7  8  2  0  0  0  0
  9 10  2  0  0  0  0
  9 12  1  0  0  0  0
 10 11  1  0  0  0  0
 12 13  3  0  0  0  0
M  END
>  <CHROM.1>
35.71742404,33.25805240,25.09748568,0.47183780,0.61568494,2.45015465

>  <Name>
ligand

>  <RI>
0

>  <Rbt.Current_Directory>
/home/itssahil/PROJECTS/Mol_Feturizer/New_Systems/rnas/3GCA

>  <Rbt.Executable>
rbdock ($Id: //depot/dev/client3/rdock/2013.1/src/exe/rbdock.cxx#4 $)

>  <Rbt.Library>
libRbt.so (2013.1, Build901 2013/11/27)

>  <Rbt.Parameter_File>
/export/apps/rDock/src/rDock_2013.1_src/data/scripts/dock_solv.prm

>  <Rbt.Receptor>
prm/pocket_docking_6.prm

>  <SCORE>
-24.0434

>  <SCORE.INTER>
-24.0434

>  <SCORE.INTER.CONST>
1

>  <SCORE.INTER.POLAR>
0

>  <SCORE.INTER.ROT>
0

>  <SCORE.INTER.SOLV>
11.3969

>  <SCORE.INTER.VDW>
-23.4279

>  <SCORE.INTER.norm>
-1.84949

>  <SCORE.INTRA>
0

>  <SCORE.INTRA.DIHEDRAL>
0

>  <SCORE.INTRA.DIHEDRAL.0>
0

>  <SCORE.INTRA.POLAR>
0

>  <SCORE.INTRA.POLAR.0>
0

>  <SCORE.INTRA.REPUL>
0

>  <SCORE.INTRA.REPUL.0>
0

>  <SCORE.INTRA.SOLV>
0

>  <SCORE.INTRA.SOLV.lig_0>
-33.1994

>  <SCORE.INTRA.VDW>
0

>  <SCORE.INTRA.VDW.0>
0

>  <SCORE.INTRA.norm>
0

>  <SCORE.RESTR>
0

>  <SCORE.RESTR.CAVITY>
0

>  <SCORE.RESTR.norm>
0

>  <SCORE.SYSTEM>
0

>  <SCORE.SYSTEM.CONST>
0

>  <SCORE.SYSTEM.DIHEDRAL>
0

>  <SCORE.SYSTEM.SOLV>
0

>  <SCORE.SYSTEM.norm>
0

>  <SCORE.heavy>
13

>  <SCORE.norm>
-1.84949

>  <RMSD>
4.894

$$$$
ligand
 OpenBabel11021811473D
libRbt.so/2013.1/901 2013/11/27
 13 14  0  0  0  0  0  0  0  0999 V2000
   36.4682   32.0235   26.7549 N   0  0  0  0  0  0  0  0  0  0  0  0
   37.6337   33.0889   26.8841 C   0  0  0  0  0  0  0  0  0  0  0  0
   38.5869   32.9253   27.8702 N   0  0  0  0  0  0  0  0  0  0  0  0
   37.5232   34.0190   26.0317 N   0  0  0  0  0  0  0  0  0  0  0  0
   36.6251   34.2231   25.0489 C   0  0  0  0  0  0  0  0  0  0  0  0
   35.6068   33.3605   24.8624 C   0  0  0  0  0  0  0  0  0  0  0  0
   35.5134   32.1223   25.8387 C   0  0  0  0  0  0  0  0  0  0  0  0
   34.6123   31.3672   25.6619 O   0  0  0  0  0  0  0  0  0  0  0  0
   34.6777   33.7776   23.7072 C   0  0  0  0  0  0  0  0  0  0  0  0
   35.2067   34.9075   23.2244 C   0  0  0  0  0  0  0  0  0  0  0  0
   36.3331   35.3441   23.8683 N   0  0  0  0  0  0  0  0  0  0  0  0
   33.4808   33.0448   23.2363 C   0  0  0  0  0  0  0  0  0  0  0  0
   32.5418   32.4459   22.9256 N   0  0  0  0  0  0  0  0  0  0  0  0
  1  2  1  0  0  0  0
  1  7  1  0  0  0  0
  2  3  1  0  0  0  0
  2  4  2  0  0  0  0
  4  5  1  0  0  0  0
  5  6  2  0  0  0  0
  5 11  1  0  0  0  0
  6  7  1  0  0  0  0
  6  9  1  0  0  0  0
  7  8  2  0  0  0  0
  9 10  2  0  0  0  0
  9 12  1  0  0  0  0
 10 11  1  0  0  0  0
 12 13  3  0  0  0  0
M  END
>  <CHROM.1>
35.75925872,33.24002052,25.10884636,0.48247620,0.59701203,2.44563847

>  <Name>
ligand

>  <RI>
0

>  <Rbt.Current_Directory>
/home/itssahil/PROJECTS/Mol_Feturizer/New_Systems/rnas/3GCA

>  <Rbt.Executable>
rbdock ($Id: //depot/dev/client3/rdock/2013.1/src/exe/rbdock.cxx#4 $)

>  <Rbt.Library>
libRbt.so (2013.1, Build901 2013/11/27)

>  <Rbt.Parameter_File>
/export/apps/rDock/src/rDock_2013.1_src/data/scripts/dock_solv.prm

>  <Rbt.Receptor>
prm/pocket_docking_6.prm

>  <SCORE>
-24.0061

>  <SCORE.INTER>
-24.0061

>  <SCORE.INTER.CONST>
1

>  <SCORE.INTER.POLAR>
0

>  <SCORE.INTER.ROT>
0

>  <SCORE.INTER.SOLV>
11.135

>  <SCORE.INTER.VDW>
-23.3158

>  <SCORE.INTER.norm>
-1.84663

>  <SCORE.INTRA>
0

>  <SCORE.INTRA.DIHEDRAL>
0

>  <SCORE.INTRA.DIHEDRAL.0>
0

>  <SCORE.INTRA.POLAR>
0

>  <SCORE.INTRA.POLAR.0>
0

>  <SCORE.INTRA.REPUL>
0

>  <SCORE.INTRA.REPUL.0>
0

>  <SCORE.INTRA.SOLV>
0

>  <SCORE.INTRA.SOLV.lig_0>
-33.1994

>  <SCORE.INTRA.VDW>
0

>  <SCORE.INTRA.VDW.0>
0

>  <SCORE.INTRA.norm>
0

>  <SCORE.RESTR>
0

>  <SCORE.RESTR.CAVITY>
0

>  <SCORE.RESTR.norm>
0

>  <SCORE.SYSTEM>
0

>  <SCORE.SYSTEM.CONST>
0

>  <SCORE.SYSTEM.DIHEDRAL>
0

>  <SCORE.SYSTEM.SOLV>
0

>  <SCORE.SYSTEM.norm>
0

>  <SCORE.heavy>
13

>  <SCORE.norm>
-1.84663

>  <RMSD>
4.894

$$$$
ligand
 OpenBabel11021811473D
libRbt.so/2013.1/901 2013/11/27
 13 14  0  0  0  0  0  0  0  0999 V2000
   36.3938   32.0878   26.7872 N   0  0  0  0  0  0  0  0  0  0  0  0
   37.5675   33.1463   26.8974 C   0  0  0  0  0  0  0  0  0  0  0  0
   38.5090   33.0034   27.8978 N   0  0  0  0  0  0  0  0  0  0  0  0
   37.4743   34.0518   26.0168 N   0  0  0  0  0  0  0  0  0  0  0  0
   36.5882   34.2347   25.0190 C   0  0  0  0  0  0  0  0  0  0  0  0
   35.5641   33.3760   24.8472 C   0  0  0  0  0  0  0  0  0  0  0  0
   35.4494   32.1680   25.8585 C   0  0  0  0  0  0  0  0  0  0  0  0
   34.5433   31.4159   25.6945 O   0  0  0  0  0  0  0  0  0  0  0  0
   34.6508   33.7670   23.6705 C   0  0  0  0  0  0  0  0  0  0  0  0
   35.1949   34.8775   23.1603 C   0  0  0  0  0  0  0  0  0  0  0  0
   36.3186   35.3230   23.8030 N   0  0  0  0  0  0  0  0  0  0  0  0
   33.4521   33.0312   23.2088 C   0  0  0  0  0  0  0  0  0  0  0  0
   32.5110   32.4316   22.9059 N   0  0  0  0  0  0  0  0  0  0  0  0
  1  2  1  0  0  0  0
  1  7  1  0  0  0  0
  2  3  1  0  0  0  0
  2  4  2  0  0  0  0
  4  5  1  0  0  0  0
  5  6  2  0  0  0  0
  5 11  1  0  0  0  0
  6  7  1  0  0  0  0
  6  9  1  0  0  0  0
  7  8  2  0  0  0  0
  9 10  2  0  0  0  0
  9 12  1  0  0  0  0
 10 11  1  0  0  0  0
 12 13  3  0  0  0  0
M  END
>  <CHROM.1>
35.71289237,33.26148804,25.09871880,0.49891668,0.59900170,2.40694430

>  <Name>
ligand

>  <RI>
0

>  <Rbt.Current_Directory>
/home/itssahil/PROJECTS/Mol_Feturizer/New_Systems/rnas/3GCA

>  <Rbt.Executable>
rbdock ($Id: //depot/dev/client3/rdock/2013.1/src/exe/rbdock.cxx#4 $)

>  <Rbt.Library>
libRbt.so (2013.1, Build901 2013/11/27)

>  <Rbt.Parameter_File>
/export/apps/rDock/src/rDock_2013.1_src/data/scripts/dock_solv.prm

>  <Rbt.Receptor>
prm/pocket_docking_6.prm

>  <SCORE>
-24.0561

>  <SCORE.INTER>
-24.0561

>  <SCORE.INTER.CONST>
1

>  <SCORE.INTER.POLAR>
0

>  <SCORE.INTER.ROT>
0

>  <SCORE.INTER.SOLV>
11.4583

>  <SCORE.INTER.VDW>
-23.4569

>  <SCORE.INTER.norm>
-1.85047

>  <SCORE.INTRA>
0

>  <SCORE.INTRA.DIHEDRAL>
0

>  <SCORE.INTRA.DIHEDRAL.0>
0

>  <SCORE.INTRA.POLAR>
0

>  <SCORE.INTRA.POLAR.0>
0

>  <SCORE.INTRA.REPUL>
0

>  <SCORE.INTRA.REPUL.0>
0

>  <SCORE.INTRA.SOLV>
0

>  <SCORE.INTRA.SOLV.lig_0>
-33.1994

>  <SCORE.INTRA.VDW>
0

>  <SCORE.INTRA.VDW.0>
0

>  <SCORE.INTRA.norm>
0

>  <SCORE.RESTR>
0

>  <SCORE.RESTR.CAVITY>
0

>  <SCORE.RESTR.norm>
0

>  <SCORE.SYSTEM>
0

>  <SCORE.SYSTEM.CONST>
0

>  <SCORE.SYSTEM.DIHEDRAL>
0

>  <SCORE.SYSTEM.SOLV>
0

>  <SCORE.SYSTEM.norm>
0

>  <SCORE.heavy>
13

>  <SCORE.norm>
-1.85047

>  <RMSD>
4.894

$$$$
ligand
 OpenBabel11021811473D
libRbt.so/2013.1/901 2013/11/27
 13 14  0  0  0  0  0  0  0  0999 V2000
   36.4096   32.0702   26.7776 N   0  0  0  0  0  0  0  0  0  0  0  0
   37.5760   33.1357   26.8978 C   0  0  0  0  0  0  0  0  0  0  0  0
   38.5164   32.9919   27.8990 N   0  0  0  0  0  0  0  0  0  0  0  0
   37.4783   34.0469   26.0237 N   0  0  0  0  0  0  0  0  0  0  0  0
   36.5929   34.2311   25.0255 C   0  0  0  0  0  0  0  0  0  0  0  0
   35.5750   33.3668   24.8454 C   0  0  0  0  0  0  0  0  0  0  0  0
   35.4665   32.1507   25.8477 C   0  0  0  0  0  0  0  0  0  0  0  0
   34.5657   31.3938   25.6764 O   0  0  0  0  0  0  0  0  0  0  0  0
   34.6613   33.7602   23.6699 C   0  0  0  0  0  0  0  0  0  0  0  0
   35.1989   34.8780   23.1688 C   0  0  0  0  0  0  0  0  0  0  0  0
   36.3183   35.3263   23.8168 N   0  0  0  0  0  0  0  0  0  0  0  0
   33.4685   33.0197   23.2004 C   0  0  0  0  0  0  0  0  0  0  0  0
   32.5320   32.4161   22.8914 N   0  0  0  0  0  0  0  0  0  0  0  0
  1  2  1  0  0  0  0
  1  7  1  0  0  0  0
  2  3  1  0  0  0  0
  2  4  2  0  0  0  0
  4  5  1  0  0  0  0
  5  6  2  0  0  0  0
  5 11  1  0  0  0  0
  6  7  1  0  0  0  0
  6  9  1  0  0  0  0
  7  8  2  0  0  0  0
  9 10  2  0  0  0  0
  9 12  1  0  0  0  0
 10 11  1  0  0  0  0
 12 13  3  0  0  0  0
M  END
>  <CHROM.1>
35.72402733,33.25148081,25.09640264,0.49440551,0.60492816,2.41675591

>  <Name>
ligand

>  <RI>
0

>  <Rbt.Current_Directory>
/home/itssahil/PROJECTS/Mol_Feturizer/New_Systems/rnas/3GCA

>  <Rbt.Executable>
rbdock ($Id: //depot/dev/client3/rdock/2013.1/src/exe/rbdock.cxx#4 $)

>  <Rbt.Library>
libRbt.so (2013.1, Build901 2013/11/27)

>  <Rbt.Parameter_File>
/export/apps/rDock/src/rDock_2013.1_src/data/scripts/dock_solv.prm

>  <Rbt.Receptor>
prm/pocket_docking_7.prm

>  <SCORE>
-24.0334

>  <SCORE.INTER>
-24.0334

>  <SCORE.INTER.CONST>
1

>  <SCORE.INTER.POLAR>
0

>  <SCORE.INTER.ROT>
0

>  <SCORE.INTER.SOLV>
11.4336

>  <SCORE.INTER.VDW>
-23.4335

>  <SCORE.INTER.norm>
-1.84873

>  <SCORE.INTRA>
0

>  <SCORE.INTRA.DIHEDRAL>
0

>  <SCORE.INTRA.DIHEDRAL.0>
0

>  <SCORE.INTRA.POLAR>
0

>  <SCORE.INTRA.POLAR.0>
0

>  <SCORE.INTRA.REPUL>
0

>  <SCORE.INTRA.REPUL.0>
0

>  <SCORE.INTRA.SOLV>
0

>  <SCORE.INTRA.SOLV.lig_0>
-33.1994

>  <SCORE.INTRA.VDW>
0

>  <SCORE.INTRA.VDW.0>
0

>  <SCORE.INTRA.norm>
0

>  <SCORE.RESTR>
0

>  <SCORE.RESTR.CAVITY>
0

>  <SCORE.RESTR.norm>
0

>  <SCORE.SYSTEM>
0

>  <SCORE.SYSTEM.CONST>
0

>  <SCORE.SYSTEM.DIHEDRAL>
0

>  <SCORE.SYSTEM.SOLV>
0

>  <SCORE.SYSTEM.norm>
0

>  <SCORE.heavy>
13

>  <SCORE.norm>
-1.84873

>  <RMSD>
4.894

$$$$
ligand
 OpenBabel11021811473D
libRbt.so/2013.1/901 2013/11/27
 13 14  0  0  0  0  0  0  0  0999 V2000
   36.4079   32.0819   26.7848 N   0  0  0  0  0  0  0  0  0  0  0  0
   37.5728   33.1491   26.9048 C   0  0  0  0  0  0  0  0  0  0  0  0
   38.5123   33.0079   27.9072 N   0  0  0  0  0  0  0  0  0  0  0  0
   37.4749   34.0590   26.0293 N   0  0  0  0  0  0  0  0  0  0  0  0
   36.5904   34.2407   25.0299 C   0  0  0  0  0  0  0  0  0  0  0  0
   35.5737   33.3748   24.8499 C   0  0  0  0  0  0  0  0  0  0  0  0
   35.4657   32.1600   25.8537 C   0  0  0  0  0  0  0  0  0  0  0  0
   34.5662   31.4017   25.6825 O   0  0  0  0  0  0  0  0  0  0  0  0
   34.6608   33.7655   23.6728 C   0  0  0  0  0  0  0  0  0  0  0  0
   35.1975   34.8833   23.1708 C   0  0  0  0  0  0  0  0  0  0  0  0
   36.3157   35.3340   23.8195 N   0  0  0  0  0  0  0  0  0  0  0  0
   33.4695   33.0228   23.2031 C   0  0  0  0  0  0  0  0  0  0  0  0
   32.5341   32.4176   22.8938 N   0  0  0  0  0  0  0  0  0  0  0  0
  1  2  1  0  0  0  0
  1  7  1  0  0  0  0
  2  3  1  0  0  0  0
  2  4  2  0  0  0  0
  4  5  1  0  0  0  0
  5  6  2  0  0  0  0
  5 11  1  0  0  0  0
  6  7  1  0  0  0  0
  6  9  1  0  0  0  0
  7  8  2  0  0  0  0
  9 10  2  0  0  0  0
  9 12  1  0  0  0  0
 10 11  1  0  0  0  0
 12 13  3  0  0  0  0
M  END
>  <CHROM.1>
35.72268307,33.26006156,25.10120240,0.49410812,0.60661104,2.41558649

>  <Name>
ligand

>  <RI>
0

>  <Rbt.Current_Directory>
/home/itssahil/PROJECTS/Mol_Feturizer/New_Systems/rnas/3GCA

>  <Rbt.Executable>
rbdock ($Id: //depot/dev/client3/rdock/2013.1/src/exe/rbdock.cxx#4 $)

>  <Rbt.Library>
libRbt.so (2013.1, Build901 2013/11/27)

>  <Rbt.Parameter_File>
/export/apps/rDock/src/rDock_2013.1_src/data/scripts/dock_solv.prm

>  <Rbt.Receptor>
prm/pocket_docking_8.prm

>  <SCORE>
-24.0636

>  <SCORE.INTER>
-24.0636

>  <SCORE.INTER.CONST>
1

>  <SCORE.INTER.POLAR>
0

>  <SCORE.INTER.ROT>
0

>  <SCORE.INTER.SOLV>
11.4496

>  <SCORE.INTER.VDW>
-23.4589

>  <SCORE.INTER.norm>
-1.85105

>  <SCORE.INTRA>
0

>  <SCORE.INTRA.DIHEDRAL>
0

>  <SCORE.INTRA.DIHEDRAL.0>
0

>  <SCORE.INTRA.POLAR>
0

>  <SCORE.INTRA.POLAR.0>
0

>  <SCORE.INTRA.REPUL>
0

>  <SCORE.INTRA.REPUL.0>
0

>  <SCORE.INTRA.SOLV>
0

>  <SCORE.INTRA.SOLV.lig_0>
-33.1994

>  <SCORE.INTRA.VDW>
0

>  <SCORE.INTRA.VDW.0>
0

>  <SCORE.INTRA.norm>
0

>  <SCORE.RESTR>
0

>  <SCORE.RESTR.CAVITY>
0

>  <SCORE.RESTR.norm>
0

>  <SCORE.SYSTEM>
0

>  <SCORE.SYSTEM.CONST>
0

>  <SCORE.SYSTEM.DIHEDRAL>
0

>  <SCORE.SYSTEM.SOLV>
0

>  <SCORE.SYSTEM.norm>
0

>  <SCORE.heavy>
13

>  <SCORE.norm>
-1.85105

>  <RMSD>
4.894

$$$$
ligand
 OpenBabel11021811473D
libRbt.so/2013.1/901 2013/11/27
 13 14  0  0  0  0  0  0  0  0999 V2000
   36.4161   32.0721   26.7798 N   0  0  0  0  0  0  0  0  0  0  0  0
   37.5848   33.1352   26.8983 C   0  0  0  0  0  0  0  0  0  0  0  0
   38.5271   32.9888   27.8975 N   0  0  0  0  0  0  0  0  0  0  0  0
   37.4872   34.0472   26.0251 N   0  0  0  0  0  0  0  0  0  0  0  0
   36.6001   34.2339   25.0288 C   0  0  0  0  0  0  0  0  0  0  0  0
   35.5800   33.3718   24.8503 C   0  0  0  0  0  0  0  0  0  0  0  0
   35.4712   32.1552   25.8519 C   0  0  0  0  0  0  0  0  0  0  0  0
   34.5686   31.4002   25.6819 O   0  0  0  0  0  0  0  0  0  0  0  0
   34.6647   33.7679   23.6769 C   0  0  0  0  0  0  0  0  0  0  0  0
   35.2035   34.8850   23.1755 C   0  0  0  0  0  0  0  0  0  0  0  0
   36.3251   35.3306   23.8216 N   0  0  0  0  0  0  0  0  0  0  0  0
   33.4695   33.0301   23.2094 C   0  0  0  0  0  0  0  0  0  0  0  0
   32.5311   32.4286   22.9018 N   0  0  0  0  0  0  0  0  0  0  0  0
  1  2  1  0  0  0  0
  1  7  1  0  0  0  0
  2  3  1  0  0  0  0
  2  4  2  0  0  0  0
  4  5  1  0  0  0  0
  5  6  2  0  0  0  0
  5 11  1  0  0  0  0
  6  7  1  0  0  0  0
  6  9  1  0  0  0  0
  7  8  2  0  0  0  0
  9 10  2  0  0  0  0
  9 12  1  0  0  0  0
 10 11  1  0  0  0  0
 12 13  3  0  0  0  0
M  END
>  <CHROM.1>
35.72938987,33.25598936,25.10085387,0.49454529,0.60205766,2.41740441

>  <Name>
ligand

>  <RI>
0

>  <Rbt.Current_Directory>
/home/itssahil/PROJECTS/Mol_Feturizer/New_Systems/rnas/3GCA

>  <Rbt.Executable>
rbdock ($Id: //depot/dev/client3/rdock/2013.1/src/exe/rbdock.cxx#4 $)

>  <Rbt.Library>
libRbt.so (2013.1, Build901 2013/11/27)

>  <Rbt.Parameter_File>
/export/apps/rDock/src/rDock_2013.1_src/data/scripts/dock_solv.prm

>  <Rbt.Receptor>
prm/pocket_docking_8.prm

>  <SCORE>
-24.0656

>  <SCORE.INTER>
-24.0656

>  <SCORE.INTER.CONST>
1

>  <SCORE.INTER.POLAR>
0

>  <SCORE.INTER.ROT>
0

>  <SCORE.INTER.SOLV>
11.3847

>  <SCORE.INTER.VDW>
-23.4386

>  <SCORE.INTER.norm>
-1.8512

>  <SCORE.INTRA>
0

>  <SCORE.INTRA.DIHEDRAL>
0

>  <SCORE.INTRA.DIHEDRAL.0>
0

>  <SCORE.INTRA.POLAR>
0

>  <SCORE.INTRA.POLAR.0>
0

>  <SCORE.INTRA.REPUL>
0

>  <SCORE.INTRA.REPUL.0>
0

>  <SCORE.INTRA.SOLV>
0

>  <SCORE.INTRA.SOLV.lig_0>
-33.1994

>  <SCORE.INTRA.VDW>
0

>  <SCORE.INTRA.VDW.0>
0

>  <SCORE.INTRA.norm>
0

>  <SCORE.RESTR>
0

>  <SCORE.RESTR.CAVITY>
0

>  <SCORE.RESTR.norm>
0

>  <SCORE.SYSTEM>
0

>  <SCORE.SYSTEM.CONST>
0

>  <SCORE.SYSTEM.DIHEDRAL>
0

>  <SCORE.SYSTEM.SOLV>
0

>  <SCORE.SYSTEM.norm>
0

>  <SCORE.heavy>
13

>  <SCORE.norm>
-1.8512

>  <RMSD>
4.894

$$$$
ligand
 OpenBabel11021811473D
libRbt.so/2013.1/901 2013/11/27
 13 14  0  0  0  0  0  0  0  0999 V2000
   36.4234   32.0521   26.7675 N   0  0  0  0  0  0  0  0  0  0  0  0
   37.5730   33.1336   26.9061 C   0  0  0  0  0  0  0  0  0  0  0  0
   38.5160   32.9871   27.9045 N   0  0  0  0  0  0  0  0  0  0  0  0
   37.4606   34.0583   26.0481 N   0  0  0  0  0  0  0  0  0  0  0  0
   36.5720   34.2461   25.0534 C   0  0  0  0  0  0  0  0  0  0  0  0
   35.5676   33.3691   24.8584 C   0  0  0  0  0  0  0  0  0  0  0  0
   35.4787   32.1341   25.8392 C   0  0  0  0  0  0  0  0  0  0  0  0
   34.5899   31.3663   25.6549 O   0  0  0  0  0  0  0  0  0  0  0  0
   34.6474   33.7687   23.6901 C   0  0  0  0  0  0  0  0  0  0  0  0
   35.1671   34.9034   23.2086 C   0  0  0  0  0  0  0  0  0  0  0  0
   36.2796   35.3579   23.8642 N   0  0  0  0  0  0  0  0  0  0  0  0
   33.4661   33.0179   23.2080 C   0  0  0  0  0  0  0  0  0  0  0  0
   32.5391   32.4051   22.8885 N   0  0  0  0  0  0  0  0  0  0  0  0
  1  2  1  0  0  0  0
  1  7  1  0  0  0  0
  2  3  1  0  0  0  0
  2  4  2  0  0  0  0
  4  5  1  0  0  0  0
  5  6  2  0  0  0  0
  5 11  1  0  0  0  0
  6  7  1  0  0  0  0
  6  9  1  0  0  0  0
  7  8  2  0  0  0  0
  9 10  2  0  0  0  0
  9 12  1  0  0  0  0
 10 11  1  0  0  0  0
 12 13  3  0  0  0  0
M  END
>  <CHROM.1>
35.71861853,33.25180661,25.10732691,0.47963135,0.61496165,2.44275963

>  <Name>
ligand

>  <RI>
0

>  <Rbt.Current_Directory>
/home/itssahil/PROJECTS/Mol_Feturizer/New_Systems/rnas/3GCA

>  <Rbt.Executable>
rbdock ($Id: //depot/dev/client3/rdock/2013.1/src/exe/rbdock.cxx#4 $)

>  <Rbt.Library>
libRbt.so (2013.1, Build901 2013/11/27)

>  <Rbt.Parameter_File>
/export/apps/rDock/src/rDock_2013.1_src/data/scripts/dock_solv.prm

>  <Rbt.Receptor>
prm/pocket_docking_8.prm

>  <SCORE>
-24.0401

>  <SCORE.INTER>
-24.0401

>  <SCORE.INTER.CONST>
1

>  <SCORE.INTER.POLAR>
0

>  <SCORE.INTER.ROT>
0

>  <SCORE.INTER.SOLV>
11.4592

>  <SCORE.INTER.VDW>
-23.4465

>  <SCORE.INTER.norm>
-1.84924

>  <SCORE.INTRA>
0

>  <SCORE.INTRA.DIHEDRAL>
0

>  <SCORE.INTRA.DIHEDRAL.0>
0

>  <SCORE.INTRA.POLAR>
0

>  <SCORE.INTRA.POLAR.0>
0

>  <SCORE.INTRA.REPUL>
0

>  <SCORE.INTRA.REPUL.0>
0

>  <SCORE.INTRA.SOLV>
0

>  <SCORE.INTRA.SOLV.lig_0>
-33.1994

>  <SCORE.INTRA.VDW>
0

>  <SCORE.INTRA.VDW.0>
0

>  <SCORE.INTRA.norm>
0

>  <SCORE.RESTR>
0

>  <SCORE.RESTR.CAVITY>
0

>  <SCORE.RESTR.norm>
0

>  <SCORE.SYSTEM>
0

>  <SCORE.SYSTEM.CONST>
0

>  <SCORE.SYSTEM.DIHEDRAL>
0

>  <SCORE.SYSTEM.SOLV>
0

>  <SCORE.SYSTEM.norm>
0

>  <SCORE.heavy>
13

>  <SCORE.norm>
-1.84924

>  <RMSD>
4.894

$$$$
ligand
 OpenBabel11021811473D
libRbt.so/2013.1/901 2013/11/27
 13 14  0  0  0  0  0  0  0  0999 V2000
   36.4711   32.0405   26.7373 N   0  0  0  0  0  0  0  0  0  0  0  0
   37.6125   33.1302   26.8794 C   0  0  0  0  0  0  0  0  0  0  0  0
   38.5660   32.9790   27.8671 N   0  0  0  0  0  0  0  0  0  0  0  0
   37.4843   34.0648   26.0345 N   0  0  0  0  0  0  0  0  0  0  0  0
   36.5849   34.2576   25.0505 C   0  0  0  0  0  0  0  0  0  0  0  0
   35.5864   33.3745   24.8533 C   0  0  0  0  0  0  0  0  0  0  0  0
   35.5172   32.1263   25.8188 C   0  0  0  0  0  0  0  0  0  0  0  0
   34.6334   31.3531   25.6327 O   0  0  0  0  0  0  0  0  0  0  0  0
   34.6519   33.7810   23.6987 C   0  0  0  0  0  0  0  0  0  0  0  0
   35.1574   34.9263   23.2272 C   0  0  0  0  0  0  0  0  0  0  0  0
   36.2720   35.3820   23.8785 N   0  0  0  0  0  0  0  0  0  0  0  0
   33.4728   33.0262   23.2177 C   0  0  0  0  0  0  0  0  0  0  0  0
   32.5482   32.4095   22.8989 N   0  0  0  0  0  0  0  0  0  0  0  0
  1  2  1  0  0  0  0
  1  7  1  0  0  0  0
  2  3  1  0  0  0  0
  2  4  2  0  0  0  0
  4  5  1  0  0  0  0
  5  6  2  0  0  0  0
  5 11  1  0  0  0  0
  6  7  1  0  0  0  0
  6  9  1  0  0  0  0
  7  8  2  0  0  0  0
  9 10  2  0  0  0  0
  9 12  1  0  0  0  0
 10 11  1  0  0  0  0
 12 13  3  0  0  0  0
M  END
>  <CHROM.1>
35.74067928,33.25529324,25.09929970,0.46430722,0.61335756,2.46447810

>  <Name>
ligand

>  <RI>
0

>  <Rbt.Current_Directory>
/home/itssahil/PROJECTS/Mol_Feturizer/New_Systems/rnas/3GCA

>  <Rbt.Executable>
rbdock ($Id: //depot/dev/client3/rdock/2013.1/src/exe/rbdock.cxx#4 $)

>  <Rbt.Library>
libRbt.so (2013.1, Build901 2013/11/27)

>  <Rbt.Parameter_File>
/export/apps/rDock/src/rDock_2013.1_src/data/scripts/dock_solv.prm

>  <Rbt.Receptor>
prm/blind_docking_100.prm

>  <SCORE>
-24.0105

>  <SCORE.INTER>
-24.0105

>  <SCORE.INTER.CONST>
1

>  <SCORE.INTER.POLAR>
0

>  <SCORE.INTER.ROT>
0

>  <SCORE.INTER.SOLV>
11.2217

>  <SCORE.INTER.VDW>
-23.3476

>  <SCORE.INTER.norm>
-1.84696

>  <SCORE.INTRA>
0

>  <SCORE.INTRA.DIHEDRAL>
0

>  <SCORE.INTRA.DIHEDRAL.0>
0

>  <SCORE.INTRA.POLAR>
0

>  <SCORE.INTRA.POLAR.0>
0

>  <SCORE.INTRA.REPUL>
0

>  <SCORE.INTRA.REPUL.0>
0

>  <SCORE.INTRA.SOLV>
0

>  <SCORE.INTRA.SOLV.lig_0>
-33.1994

>  <SCORE.INTRA.VDW>
0

>  <SCORE.INTRA.VDW.0>
0

>  <SCORE.INTRA.norm>
0

>  <SCORE.RESTR>
0

>  <SCORE.RESTR.CAVITY>
0

>  <SCORE.RESTR.norm>
0

>  <SCORE.SYSTEM>
0

>  <SCORE.SYSTEM.CONST>
0

>  <SCORE.SYSTEM.DIHEDRAL>
0

>  <SCORE.SYSTEM.SOLV>
0

>  <SCORE.SYSTEM.norm>
0

>  <SCORE.heavy>
13

>  <SCORE.norm>
-1.84696

>  <RMSD>
4.895

$$$$
ligand
 OpenBabel11021811473D
libRbt.so/2013.1/901 2013/11/27
 13 14  0  0  0  0  0  0  0  0999 V2000
   36.4289   32.0457   26.7640 N   0  0  0  0  0  0  0  0  0  0  0  0
   37.5749   33.1307   26.9041 C   0  0  0  0  0  0  0  0  0  0  0  0
   38.5186   32.9856   27.9021 N   0  0  0  0  0  0  0  0  0  0  0  0
   37.4595   34.0563   26.0476 N   0  0  0  0  0  0  0  0  0  0  0  0
   36.5701   34.2427   25.0533 C   0  0  0  0  0  0  0  0  0  0  0  0
   35.5686   33.3628   24.8571 C   0  0  0  0  0  0  0  0  0  0  0  0
   35.4838   32.1261   25.8360 C   0  0  0  0  0  0  0  0  0  0  0  0
   34.5975   31.3556   25.6506 O   0  0  0  0  0  0  0  0  0  0  0  0
   34.6468   33.7613   23.6895 C   0  0  0  0  0  0  0  0  0  0  0  0
   35.1628   34.8984   23.2097 C   0  0  0  0  0  0  0  0  0  0  0  0
   36.2740   35.3554   23.8659 N   0  0  0  0  0  0  0  0  0  0  0  0
   33.4680   33.0074   23.2064 C   0  0  0  0  0  0  0  0  0  0  0  0
   32.5429   32.3921   22.8861 N   0  0  0  0  0  0  0  0  0  0  0  0
  1  2  1  0  0  0  0
  1  7  1  0  0  0  0
  2  3  1  0  0  0  0
  2  4  2  0  0  0  0
  4  5  1  0  0  0  0
  5  6  2  0  0  0  0
  5 11  1  0  0  0  0
  6  7  1  0  0  0  0
  6  9  1  0  0  0  0
  7  8  2  0  0  0  0
  9 10  2  0  0  0  0
  9 12  1  0  0  0  0
 10 11  1  0  0  0  0
 12 13  3  0  0  0  0
M  END
>  <CHROM.1>
35.71996042,33.24562593,25.10578628,0.47648556,0.61692632,2.44611268

>  <Name>
ligand

>  <RI>
0

>  <Rbt.Current_Directory>
/home/itssahil/PROJECTS/Mol_Feturizer/New_Systems/rnas/3GCA

>  <Rbt.Executable>
rbdock ($Id: //depot/dev/client3/rdock/2013.1/src/exe/rbdock.cxx#4 $)

>  <Rbt.Library>
libRbt.so (2013.1, Build901 2013/11/27)

>  <Rbt.Parameter_File>
/export/apps/rDock/src/rDock_2013.1_src/data/scripts/dock_solv.prm

>  <Rbt.Receptor>
prm/blind_docking_100.prm

>  <SCORE>
-24.0391

>  <SCORE.INTER>
-24.0391

>  <SCORE.INTER.CONST>
1

>  <SCORE.INTER.POLAR>
0

>  <SCORE.INTER.ROT>
0

>  <SCORE.INTER.SOLV>
11.4534

>  <SCORE.INTER.VDW>
-23.4439

>  <SCORE.INTER.norm>
-1.84916

>  <SCORE.INTRA>
0

>  <SCORE.INTRA.DIHEDRAL>
0

>  <SCORE.INTRA.DIHEDRAL.0>
0

>  <SCORE.INTRA.POLAR>
0

>  <SCORE.INTRA.POLAR.0>
0

>  <SCORE.INTRA.REPUL>
0

>  <SCORE.INTRA.REPUL.0>
0

>  <SCORE.INTRA.SOLV>
0

>  <SCORE.INTRA.SOLV.lig_0>
-33.1994

>  <SCORE.INTRA.VDW>
0

>  <SCORE.INTRA.VDW.0>
0

>  <SCORE.INTRA.norm>
0

>  <SCORE.RESTR>
0

>  <SCORE.RESTR.CAVITY>
0

>  <SCORE.RESTR.norm>
0

>  <SCORE.SYSTEM>
0

>  <SCORE.SYSTEM.CONST>
0

>  <SCORE.SYSTEM.DIHEDRAL>
0

>  <SCORE.SYSTEM.SOLV>
0

>  <SCORE.SYSTEM.norm>
0

>  <SCORE.heavy>
13

>  <SCORE.norm>
-1.84916

>  <RMSD>
4.895

$$$$
ligand
 OpenBabel11021811473D
libRbt.so/2013.1/901 2013/11/27
 13 14  0  0  0  0  0  0  0  0999 V2000
   36.4107   32.0926   26.7772 N   0  0  0  0  0  0  0  0  0  0  0  0
   37.5699   33.1661   26.8977 C   0  0  0  0  0  0  0  0  0  0  0  0
   38.5094   33.0301   27.9008 N   0  0  0  0  0  0  0  0  0  0  0  0
   37.4678   34.0751   26.0219 N   0  0  0  0  0  0  0  0  0  0  0  0
   36.5830   34.2519   25.0218 C   0  0  0  0  0  0  0  0  0  0  0  0
   35.5711   33.3806   24.8414 C   0  0  0  0  0  0  0  0  0  0  0  0
   35.4688   32.1655   25.8454 C   0  0  0  0  0  0  0  0  0  0  0  0
   34.5734   31.4024   25.6738 O   0  0  0  0  0  0  0  0  0  0  0  0
   34.6569   33.7662   23.6635 C   0  0  0  0  0  0  0  0  0  0  0  0
   35.1881   34.8867   23.1616 C   0  0  0  0  0  0  0  0  0  0  0  0
   36.3033   35.3434   23.8109 N   0  0  0  0  0  0  0  0  0  0  0  0
   33.4699   33.0171   23.1932 C   0  0  0  0  0  0  0  0  0  0  0  0
   32.5380   32.4068   22.8834 N   0  0  0  0  0  0  0  0  0  0  0  0
  1  2  1  0  0  0  0
  1  7  1  0  0  0  0
  2  3  1  0  0  0  0
  2  4  2  0  0  0  0
  4  5  1  0  0  0  0
  5  6  2  0  0  0  0
  5 11  1  0  0  0  0
  6  7  1  0  0  0  0
  6  9  1  0  0  0  0
  7  8  2  0  0  0  0
  9 10  2  0  0  0  0
  9 12  1  0  0  0  0
 10 11  1  0  0  0  0
 12 13  3  0  0  0  0
M  END
>  <CHROM.1>
35.72045490,33.26672423,25.09278882,0.48984315,0.61064333,2.41774542

>  <Name>
ligand

>  <RI>
0

>  <Rbt.Current_Directory>
/home/itssahil/PROJECTS/Mol_Feturizer/New_Systems/rnas/3GCA

>  <Rbt.Executable>
rbdock ($Id: //depot/dev/client3/rdock/2013.1/src/exe/rbdock.cxx#4 $)

>  <Rbt.Library>
libRbt.so (2013.1, Build901 2013/11/27)

>  <Rbt.Parameter_File>
/export/apps/rDock/src/rDock_2013.1_src/data/scripts/dock_solv.prm

>  <Rbt.Receptor>
prm/blind_docking_60.prm

>  <SCORE>
-24.0564

>  <SCORE.INTER>
-24.0564

>  <SCORE.INTER.CONST>
1

>  <SCORE.INTER.POLAR>
0

>  <SCORE.INTER.ROT>
0

>  <SCORE.INTER.SOLV>
11.4467

>  <SCORE.INTER.VDW>
-23.4531

>  <SCORE.INTER.norm>
-1.85049

>  <SCORE.INTRA>
0

>  <SCORE.INTRA.DIHEDRAL>
0

>  <SCORE.INTRA.DIHEDRAL.0>
0

>  <SCORE.INTRA.POLAR>
0

>  <SCORE.INTRA.POLAR.0>
0

>  <SCORE.INTRA.REPUL>
0

>  <SCORE.INTRA.REPUL.0>
0

>  <SCORE.INTRA.SOLV>
0

>  <SCORE.INTRA.SOLV.lig_0>
-33.1994

>  <SCORE.INTRA.VDW>
0

>  <SCORE.INTRA.VDW.0>
0

>  <SCORE.INTRA.norm>
0

>  <SCORE.RESTR>
0

>  <SCORE.RESTR.CAVITY>
0

>  <SCORE.RESTR.norm>
0

>  <SCORE.SYSTEM>
0

>  <SCORE.SYSTEM.CONST>
0

>  <SCORE.SYSTEM.DIHEDRAL>
0

>  <SCORE.SYSTEM.SOLV>
0

>  <SCORE.SYSTEM.norm>
0

>  <SCORE.heavy>
13

>  <SCORE.norm>
-1.85049

>  <RMSD>
4.895

$$$$
ligand
 OpenBabel11021811473D
libRbt.so/2013.1/901 2013/11/27
 13 14  0  0  0  0  0  0  0  0999 V2000
   36.4017   32.0860   26.7870 N   0  0  0  0  0  0  0  0  0  0  0  0
   37.5647   33.1555   26.9054 C   0  0  0  0  0  0  0  0  0  0  0  0
   38.5052   33.0167   27.9073 N   0  0  0  0  0  0  0  0  0  0  0  0
   37.4644   34.0646   26.0295 N   0  0  0  0  0  0  0  0  0  0  0  0
   36.5788   34.2440   25.0305 C   0  0  0  0  0  0  0  0  0  0  0  0
   35.5637   33.3761   24.8519 C   0  0  0  0  0  0  0  0  0  0  0  0
   35.4587   32.1617   25.8565 C   0  0  0  0  0  0  0  0  0  0  0  0
   34.5605   31.4016   25.6864 O   0  0  0  0  0  0  0  0  0  0  0  0
   34.6492   33.7643   23.6752 C   0  0  0  0  0  0  0  0  0  0  0  0
   35.1834   34.8828   23.1721 C   0  0  0  0  0  0  0  0  0  0  0  0
   36.3011   35.3360   23.8196 N   0  0  0  0  0  0  0  0  0  0  0  0
   33.4589   33.0190   23.2068 C   0  0  0  0  0  0  0  0  0  0  0  0
   32.5245   32.4118   22.8986 N   0  0  0  0  0  0  0  0  0  0  0  0
  1  2  1  0  0  0  0
  1  7  1  0  0  0  0
  2  3  1  0  0  0  0
  2  4  2  0  0  0  0
  4  5  1  0  0  0  0
  5  6  2  0  0  0  0
  5 11  1  0  0  0  0
  6  7  1  0  0  0  0
  6  9  1  0  0  0  0
  7  8  2  0  0  0  0
  9 10  2  0  0  0  0
  9 12  1  0  0  0  0
 10 11  1  0  0  0  0
 12 13  3  0  0  0  0
M  END
>  <CHROM.1>
35.71304404,33.26176386,25.10311511,0.49178992,0.60732717,2.41625003

>  <Name>
ligand

>  <RI>
0

>  <Rbt.Current_Directory>
/home/itssahil/PROJECTS/Mol_Feturizer/New_Systems/rnas/3GCA

>  <Rbt.Executable>
rbdock ($Id: //depot/dev/client3/rdock/2013.1/src/exe/rbdock.cxx#4 $)

>  <Rbt.Library>
libRbt.so (2013.1, Build901 2013/11/27)

>  <Rbt.Parameter_File>
/export/apps/rDock/src/rDock_2013.1_src/data/scripts/dock_solv.prm

>  <Rbt.Receptor>
prm/blind_docking_60.prm

>  <SCORE>
-24.062

>  <SCORE.INTER>
-24.062

>  <SCORE.INTER.CONST>
1

>  <SCORE.INTER.POLAR>
0

>  <SCORE.INTER.ROT>
0

>  <SCORE.INTER.SOLV>
11.4797

>  <SCORE.INTER.VDW>
-23.4679

>  <SCORE.INTER.norm>
-1.85092

>  <SCORE.INTRA>
0

>  <SCORE.INTRA.DIHEDRAL>
0

>  <SCORE.INTRA.DIHEDRAL.0>
0

>  <SCORE.INTRA.POLAR>
0

>  <SCORE.INTRA.POLAR.0>
0

>  <SCORE.INTRA.REPUL>
0

>  <SCORE.INTRA.REPUL.0>
0

>  <SCORE.INTRA.SOLV>
0

>  <SCORE.INTRA.SOLV.lig_0>
-33.1994

>  <SCORE.INTRA.VDW>
0

>  <SCORE.INTRA.VDW.0>
0

>  <SCORE.INTRA.norm>
0

>  <SCORE.RESTR>
0

>  <SCORE.RESTR.CAVITY>
0

>  <SCORE.RESTR.norm>
0

>  <SCORE.SYSTEM>
0

>  <SCORE.SYSTEM.CONST>
0

>  <SCORE.SYSTEM.DIHEDRAL>
0

>  <SCORE.SYSTEM.SOLV>
0

>  <SCORE.SYSTEM.norm>
0

>  <SCORE.heavy>
13

>  <SCORE.norm>
-1.85092

>  <RMSD>
4.895

$$$$
ligand
 OpenBabel11021811473D
libRbt.so/2013.1/901 2013/11/27
 13 14  0  0  0  0  0  0  0  0999 V2000
   36.3942   32.0845   26.7850 N   0  0  0  0  0  0  0  0  0  0  0  0
   37.5583   33.1532   26.9001 C   0  0  0  0  0  0  0  0  0  0  0  0
   38.4988   33.0164   27.9023 N   0  0  0  0  0  0  0  0  0  0  0  0
   37.4589   34.0597   26.0214 N   0  0  0  0  0  0  0  0  0  0  0  0
   36.5733   34.2370   25.0220 C   0  0  0  0  0  0  0  0  0  0  0  0
   35.5573   33.3696   24.8461 C   0  0  0  0  0  0  0  0  0  0  0  0
   35.4511   32.1584   25.8544 C   0  0  0  0  0  0  0  0  0  0  0  0
   34.5521   31.3987   25.6868 O   0  0  0  0  0  0  0  0  0  0  0  0
   34.6430   33.7552   23.6684 C   0  0  0  0  0  0  0  0  0  0  0  0
   35.1784   34.8716   23.1618 C   0  0  0  0  0  0  0  0  0  0  0  0
   36.2967   35.3256   23.8078 N   0  0  0  0  0  0  0  0  0  0  0  0
   33.4519   33.0098   23.2024 C   0  0  0  0  0  0  0  0  0  0  0  0
   32.5168   32.4026   22.8961 N   0  0  0  0  0  0  0  0  0  0  0  0
  1  2  1  0  0  0  0
  1  7  1  0  0  0  0
  2  3  1  0  0  0  0
  2  4  2  0  0  0  0
  4  5  1  0  0  0  0
  5  6  2  0  0  0  0
  5 11  1  0  0  0  0
  6  7  1  0  0  0  0
  6  9  1  0  0  0  0
  7  8  2  0  0  0  0
  9 10  2  0  0  0  0
  9 12  1  0  0  0  0
 10 11  1  0  0  0  0
 12 13  3  0  0  0  0
M  END
>  <CHROM.1>
35.70653032,33.25591414,25.09769952,0.49264837,0.60652844,2.41272188

>  <Name>
ligand

>  <RI>
0

>  <Rbt.Current_Directory>
/home/itssahil/PROJECTS/Mol_Feturizer/New_Systems/rnas/3GCA

>  <Rbt.Executable>
rbdock ($Id: //depot/dev/client3/rdock/2013.1/src/exe/rbdock.cxx#4 $)

>  <Rbt.Library>
libRbt.so (2013.1, Build901 2013/11/27)

>  <Rbt.Parameter_File>
/export/apps/rDock/src/rDock_2013.1_src/data/scripts/dock_solv.prm

>  <Rbt.Receptor>
prm/blind_docking_60.prm

>  <SCORE>
-24.0596

>  <SCORE.INTER>
-24.0596

>  <SCORE.INTER.CONST>
1

>  <SCORE.INTER.POLAR>
0

>  <SCORE.INTER.ROT>
0

>  <SCORE.INTER.SOLV>
11.5062

>  <SCORE.INTER.VDW>
-23.4751

>  <SCORE.INTER.norm>
-1.85074

>  <SCORE.INTRA>
0

>  <SCORE.INTRA.DIHEDRAL>
0

>  <SCORE.INTRA.DIHEDRAL.0>
0

>  <SCORE.INTRA.POLAR>
0

>  <SCORE.INTRA.POLAR.0>
0

>  <SCORE.INTRA.REPUL>
0

>  <SCORE.INTRA.REPUL.0>
0

>  <SCORE.INTRA.SOLV>
0

>  <SCORE.INTRA.SOLV.lig_0>
-33.1994

>  <SCORE.INTRA.VDW>
0

>  <SCORE.INTRA.VDW.0>
0

>  <SCORE.INTRA.norm>
0

>  <SCORE.RESTR>
0

>  <SCORE.RESTR.CAVITY>
0

>  <SCORE.RESTR.norm>
0

>  <SCORE.SYSTEM>
0

>  <SCORE.SYSTEM.CONST>
0

>  <SCORE.SYSTEM.DIHEDRAL>
0

>  <SCORE.SYSTEM.SOLV>
0

>  <SCORE.SYSTEM.norm>
0

>  <SCORE.heavy>
13

>  <SCORE.norm>
-1.85074

>  <RMSD>
4.895

$$$$
ligand
 OpenBabel11021811473D
libRbt.so/2013.1/901 2013/11/27
 13 14  0  0  0  0  0  0  0  0999 V2000
   36.4650   32.1177   26.7769 N   0  0  0  0  0  0  0  0  0  0  0  0
   37.6152   33.1991   26.9106 C   0  0  0  0  0  0  0  0  0  0  0  0
   38.5576   33.0570   27.9103 N   0  0  0  0  0  0  0  0  0  0  0  0
   37.5040   34.1194   26.0478 N   0  0  0  0  0  0  0  0  0  0  0  0
   36.6160   34.3027   25.0517 C   0  0  0  0  0  0  0  0  0  0  0  0
   35.6112   33.4255   24.8607 C   0  0  0  0  0  0  0  0  0  0  0  0
   35.5209   32.1956   25.8477 C   0  0  0  0  0  0  0  0  0  0  0  0
   34.6317   31.4274   25.6668 O   0  0  0  0  0  0  0  0  0  0  0  0
   34.6918   33.8197   23.6898 C   0  0  0  0  0  0  0  0  0  0  0  0
   35.2126   34.9516   23.2028 C   0  0  0  0  0  0  0  0  0  0  0  0
   36.3251   35.4086   23.8567 N   0  0  0  0  0  0  0  0  0  0  0  0
   33.5104   33.0673   23.2108 C   0  0  0  0  0  0  0  0  0  0  0  0
   32.5831   32.4535   22.8940 N   0  0  0  0  0  0  0  0  0  0  0  0
  1  2  1  0  0  0  0
  1  7  1  0  0  0  0
  2  3  1  0  0  0  0
  2  4  2  0  0  0  0
  4  5  1  0  0  0  0
  5  6  2  0  0  0  0
  5 11  1  0  0  0  0
  6  7  1  0  0  0  0
  6  9  1  0  0  0  0
  7  8  2  0  0  0  0
  9 10  2  0  0  0  0
  9 12  1  0  0  0  0
 10 11  1  0  0  0  0
 12 13  3  0  0  0  0
M  END
>  <CHROM.1>
35.76195738,33.30933790,25.11022838,0.48071011,0.61494622,2.43702139

>  <Name>
ligand

>  <RI>
0

>  <Rbt.Current_Directory>
/home/itssahil/PROJECTS/Mol_Feturizer/New_Systems/rnas/3GCA

>  <Rbt.Executable>
rbdock ($Id: //depot/dev/client3/rdock/2013.1/src/exe/rbdock.cxx#4 $)

>  <Rbt.Library>
libRbt.so (2013.1, Build901 2013/11/27)

>  <Rbt.Parameter_File>
/export/apps/rDock/src/rDock_2013.1_src/data/scripts/dock_solv.prm

>  <Rbt.Receptor>
prm/blind_docking_60.prm

>  <SCORE>
-24.0167

>  <SCORE.INTER>
-24.0167

>  <SCORE.INTER.CONST>
1

>  <SCORE.INTER.POLAR>
0

>  <SCORE.INTER.ROT>
0

>  <SCORE.INTER.SOLV>
11.2153

>  <SCORE.INTER.VDW>
-23.3496

>  <SCORE.INTER.norm>
-1.84744

>  <SCORE.INTRA>
0

>  <SCORE.INTRA.DIHEDRAL>
0

>  <SCORE.INTRA.DIHEDRAL.0>
0

>  <SCORE.INTRA.POLAR>
0

>  <SCORE.INTRA.POLAR.0>
0

>  <SCORE.INTRA.REPUL>
0

>  <SCORE.INTRA.REPUL.0>
0

>  <SCORE.INTRA.SOLV>
0

>  <SCORE.INTRA.SOLV.lig_0>
-33.1994

>  <SCORE.INTRA.VDW>
0

>  <SCORE.INTRA.VDW.0>
0

>  <SCORE.INTRA.norm>
0

>  <SCORE.RESTR>
0

>  <SCORE.RESTR.CAVITY>
0

>  <SCORE.RESTR.norm>
0

>  <SCORE.SYSTEM>
0

>  <SCORE.SYSTEM.CONST>
0

>  <SCORE.SYSTEM.DIHEDRAL>
0

>  <SCORE.SYSTEM.SOLV>
0

>  <SCORE.SYSTEM.norm>
0

>  <SCORE.heavy>
13

>  <SCORE.norm>
-1.84744

>  <RMSD>
4.895

$$$$
ligand
 OpenBabel11021811473D
libRbt.so/2013.1/901 2013/11/27
 13 14  0  0  0  0  0  0  0  0999 V2000
   36.4264   32.0618   26.7740 N   0  0  0  0  0  0  0  0  0  0  0  0
   37.5692   33.1502   26.9142 C   0  0  0  0  0  0  0  0  0  0  0  0
   38.5101   33.0108   27.9156 N   0  0  0  0  0  0  0  0  0  0  0  0
   37.4540   34.0727   26.0543 N   0  0  0  0  0  0  0  0  0  0  0  0
   36.5672   34.2536   25.0567 C   0  0  0  0  0  0  0  0  0  0  0  0
   35.5686   33.3705   24.8603 C   0  0  0  0  0  0  0  0  0  0  0  0
   35.4840   32.1367   25.8429 C   0  0  0  0  0  0  0  0  0  0  0  0
   34.6002   31.3634   25.6573 O   0  0  0  0  0  0  0  0  0  0  0  0
   34.6494   33.7628   23.6885 C   0  0  0  0  0  0  0  0  0  0  0  0
   35.1640   34.8997   23.2067 C   0  0  0  0  0  0  0  0  0  0  0  0
   36.2719   35.3617   23.8648 N   0  0  0  0  0  0  0  0  0  0  0  0
   33.4740   33.0043   23.2042 C   0  0  0  0  0  0  0  0  0  0  0  0
   32.5515   32.3856   22.8831 N   0  0  0  0  0  0  0  0  0  0  0  0
  1  2  1  0  0  0  0
  1  7  1  0  0  0  0
  2  3  1  0  0  0  0
  2  4  2  0  0  0  0
  4  5  1  0  0  0  0
  5  6  2  0  0  0  0
  5 11  1  0  0  0  0
  6  7  1  0  0  0  0
  6  9  1  0  0  0  0
  7  8  2  0  0  0  0
  9 10  2  0  0  0  0
  9 12  1  0  0  0  0
 10 11  1  0  0  0  0
 12 13  3  0  0  0  0
M  END
>  <CHROM.1>
35.71950996,33.25453171,25.10979408,0.47649572,0.62095841,2.44287384

>  <Name>
ligand

>  <RI>
0

>  <Rbt.Current_Directory>
/home/itssahil/PROJECTS/Mol_Feturizer/New_Systems/rnas/3GCA

>  <Rbt.Executable>
rbdock ($Id: //depot/dev/client3/rdock/2013.1/src/exe/rbdock.cxx#4 $)

>  <Rbt.Library>
libRbt.so (2013.1, Build901 2013/11/27)

>  <Rbt.Parameter_File>
/export/apps/rDock/src/rDock_2013.1_src/data/scripts/dock_solv.prm

>  <Rbt.Receptor>
prm/blind_docking_60.prm

>  <SCORE>
-24.0373

>  <SCORE.INTER>
-24.0373

>  <SCORE.INTER.CONST>
1

>  <SCORE.INTER.POLAR>
0

>  <SCORE.INTER.ROT>
0

>  <SCORE.INTER.SOLV>
11.4883

>  <SCORE.INTER.VDW>
-23.4543

>  <SCORE.INTER.norm>
-1.84903

>  <SCORE.INTRA>
0

>  <SCORE.INTRA.DIHEDRAL>
0

>  <SCORE.INTRA.DIHEDRAL.0>
0

>  <SCORE.INTRA.POLAR>
0

>  <SCORE.INTRA.POLAR.0>
0

>  <SCORE.INTRA.REPUL>
0

>  <SCORE.INTRA.REPUL.0>
0

>  <SCORE.INTRA.SOLV>
0

>  <SCORE.INTRA.SOLV.lig_0>
-33.1994

>  <SCORE.INTRA.VDW>
0

>  <SCORE.INTRA.VDW.0>
0

>  <SCORE.INTRA.norm>
0

>  <SCORE.RESTR>
0

>  <SCORE.RESTR.CAVITY>
0

>  <SCORE.RESTR.norm>
0

>  <SCORE.SYSTEM>
0

>  <SCORE.SYSTEM.CONST>
0

>  <SCORE.SYSTEM.DIHEDRAL>
0

>  <SCORE.SYSTEM.SOLV>
0

>  <SCORE.SYSTEM.norm>
0

>  <SCORE.heavy>
13

>  <SCORE.norm>
-1.84903

>  <RMSD>
4.895

$$$$
ligand
 OpenBabel11021811473D
libRbt.so/2013.1/901 2013/11/27
 13 14  0  0  0  0  0  0  0  0999 V2000
   36.4262   32.0490   26.7657 N   0  0  0  0  0  0  0  0  0  0  0  0
   37.5766   33.1302   26.8999 C   0  0  0  0  0  0  0  0  0  0  0  0
   38.5214   32.9852   27.8969 N   0  0  0  0  0  0  0  0  0  0  0  0
   37.4631   34.0531   26.0402 N   0  0  0  0  0  0  0  0  0  0  0  0
   36.5728   34.2393   25.0468 C   0  0  0  0  0  0  0  0  0  0  0  0
   35.5676   33.3625   24.8555 C   0  0  0  0  0  0  0  0  0  0  0  0
   35.4799   32.1296   25.8390 C   0  0  0  0  0  0  0  0  0  0  0  0
   34.5904   31.3618   25.6579 O   0  0  0  0  0  0  0  0  0  0  0  0
   34.6454   33.7601   23.6880 C   0  0  0  0  0  0  0  0  0  0  0  0
   35.1648   34.8935   23.2032 C   0  0  0  0  0  0  0  0  0  0  0  0
   36.2788   35.3488   23.8558 N   0  0  0  0  0  0  0  0  0  0  0  0
   33.4629   33.0089   23.2096 C   0  0  0  0  0  0  0  0  0  0  0  0
   32.5349   32.3959   22.8932 N   0  0  0  0  0  0  0  0  0  0  0  0
  1  2  1  0  0  0  0
  1  7  1  0  0  0  0
  2  3  1  0  0  0  0
  2  4  2  0  0  0  0
  4  5  1  0  0  0  0
  5  6  2  0  0  0  0
  5 11  1  0  0  0  0
  6  7  1  0  0  0  0
  6  9  1  0  0  0  0
  7  8  2  0  0  0  0
  9 10  2  0  0  0  0
  9 12  1  0  0  0  0
 10 11  1  0  0  0  0
 12 13  3  0  0  0  0
M  END
>  <CHROM.1>
35.71900063,33.24557535,25.10432078,0.47866568,0.61320892,2.44122595

>  <Name>
ligand

>  <RI>
0

>  <Rbt.Current_Directory>
/home/itssahil/PROJECTS/Mol_Feturizer/New_Systems/rnas/3GCA

>  <Rbt.Executable>
rbdock ($Id: //depot/dev/client3/rdock/2013.1/src/exe/rbdock.cxx#4 $)

>  <Rbt.Library>
libRbt.so (2013.1, Build901 2013/11/27)

>  <Rbt.Parameter_File>
/export/apps/rDock/src/rDock_2013.1_src/data/scripts/dock_solv.prm

>  <Rbt.Receptor>
prm/blind_docking_60.prm

>  <SCORE>
-24.0449

>  <SCORE.INTER>
-24.0449

>  <SCORE.INTER.CONST>
1

>  <SCORE.INTER.POLAR>
0

>  <SCORE.INTER.ROT>
0

>  <SCORE.INTER.SOLV>
11.4343

>  <SCORE.INTER.VDW>
-23.4414

>  <SCORE.INTER.norm>
-1.84961

>  <SCORE.INTRA>
0

>  <SCORE.INTRA.DIHEDRAL>
0

>  <SCORE.INTRA.DIHEDRAL.0>
0

>  <SCORE.INTRA.POLAR>
0

>  <SCORE.INTRA.POLAR.0>
0

>  <SCORE.INTRA.REPUL>
0

>  <SCORE.INTRA.REPUL.0>
0

>  <SCORE.INTRA.SOLV>
0

>  <SCORE.INTRA.SOLV.lig_0>
-33.1994

>  <SCORE.INTRA.VDW>
0

>  <SCORE.INTRA.VDW.0>
0

>  <SCORE.INTRA.norm>
0

>  <SCORE.RESTR>
0

>  <SCORE.RESTR.CAVITY>
0

>  <SCORE.RESTR.norm>
0

>  <SCORE.SYSTEM>
0

>  <SCORE.SYSTEM.CONST>
0

>  <SCORE.SYSTEM.DIHEDRAL>
0

>  <SCORE.SYSTEM.SOLV>
0

>  <SCORE.SYSTEM.norm>
0

>  <SCORE.heavy>
13

>  <SCORE.norm>
-1.84961

>  <RMSD>
4.895

$$$$
ligand
 OpenBabel11021811473D
libRbt.so/2013.1/901 2013/11/27
 13 14  0  0  0  0  0  0  0  0999 V2000
   36.4312   32.0552   26.7703 N   0  0  0  0  0  0  0  0  0  0  0  0
   37.5756   33.1419   26.9108 C   0  0  0  0  0  0  0  0  0  0  0  0
   38.5197   32.9977   27.9085 N   0  0  0  0  0  0  0  0  0  0  0  0
   37.4585   34.0679   26.0549 N   0  0  0  0  0  0  0  0  0  0  0  0
   36.5686   34.2536   25.0610 C   0  0  0  0  0  0  0  0  0  0  0  0
   35.5684   33.3723   24.8645 C   0  0  0  0  0  0  0  0  0  0  0  0
   35.4857   32.1348   25.8426 C   0  0  0  0  0  0  0  0  0  0  0  0
   34.6005   31.3631   25.6569 O   0  0  0  0  0  0  0  0  0  0  0  0
   34.6457   33.7701   23.6974 C   0  0  0  0  0  0  0  0  0  0  0  0
   35.1599   34.9083   23.2182 C   0  0  0  0  0  0  0  0  0  0  0  0
   36.2705   35.3666   23.8743 N   0  0  0  0  0  0  0  0  0  0  0  0
   33.4679   33.0147   23.2140 C   0  0  0  0  0  0  0  0  0  0  0  0
   32.5437   32.3983   22.8936 N   0  0  0  0  0  0  0  0  0  0  0  0
  1  2  1  0  0  0  0
  1  7  1  0  0  0  0
  2  3  1  0  0  0  0
  2  4  2  0  0  0  0
  4  5  1  0  0  0  0
  5  6  2  0  0  0  0
  5 11  1  0  0  0  0
  6  7  1  0  0  0  0
  6  9  1  0  0  0  0
  7  8  2  0  0  0  0
  9 10  2  0  0  0  0
  9 12  1  0  0  0  0
 10 11  1  0  0  0  0
 12 13  3  0  0  0  0
M  END
>  <CHROM.1>
35.72001557,33.25519846,25.11302899,0.47485079,0.61771426,2.44770620

>  <Name>
ligand

>  <RI>
0

>  <Rbt.Current_Directory>
/home/itssahil/PROJECTS/Mol_Feturizer/New_Systems/rnas/3GCA

>  <Rbt.Executable>
rbdock ($Id: //depot/dev/client3/rdock/2013.1/src/exe/rbdock.cxx#4 $)

>  <Rbt.Library>
libRbt.so (2013.1, Build901 2013/11/27)

>  <Rbt.Parameter_File>
/export/apps/rDock/src/rDock_2013.1_src/data/scripts/dock_solv.prm

>  <Rbt.Receptor>
prm/blind_docking_60.prm

>  <SCORE>
-24.0388

>  <SCORE.INTER>
-24.0388

>  <SCORE.INTER.CONST>
1

>  <SCORE.INTER.POLAR>
0

>  <SCORE.INTER.ROT>
0

>  <SCORE.INTER.SOLV>
11.4478

>  <SCORE.INTER.VDW>
-23.4418

>  <SCORE.INTER.norm>
-1.84914

>  <SCORE.INTRA>
0

>  <SCORE.INTRA.DIHEDRAL>
0

>  <SCORE.INTRA.DIHEDRAL.0>
0

>  <SCORE.INTRA.POLAR>
0

>  <SCORE.INTRA.POLAR.0>
0

>  <SCORE.INTRA.REPUL>
0

>  <SCORE.INTRA.REPUL.0>
0

>  <SCORE.INTRA.SOLV>
0

>  <SCORE.INTRA.SOLV.lig_0>
-33.1994

>  <SCORE.INTRA.VDW>
0

>  <SCORE.INTRA.VDW.0>
0

>  <SCORE.INTRA.norm>
0

>  <SCORE.RESTR>
0

>  <SCORE.RESTR.CAVITY>
0

>  <SCORE.RESTR.norm>
0

>  <SCORE.SYSTEM>
0

>  <SCORE.SYSTEM.CONST>
0

>  <SCORE.SYSTEM.DIHEDRAL>
0

>  <SCORE.SYSTEM.SOLV>
0

>  <SCORE.SYSTEM.norm>
0

>  <SCORE.heavy>
13

>  <SCORE.norm>
-1.84914

>  <RMSD>
4.895

$$$$
ligand
 OpenBabel11021811473D
libRbt.so/2013.1/901 2013/11/27
 13 14  0  0  0  0  0  0  0  0999 V2000
   36.4185   32.0924   26.7929 N   0  0  0  0  0  0  0  0  0  0  0  0
   37.5841   33.1588   26.9136 C   0  0  0  0  0  0  0  0  0  0  0  0
   38.5188   33.0209   27.9210 N   0  0  0  0  0  0  0  0  0  0  0  0
   37.4913   34.0649   26.0337 N   0  0  0  0  0  0  0  0  0  0  0  0
   36.6116   34.2433   25.0294 C   0  0  0  0  0  0  0  0  0  0  0  0
   35.5948   33.3778   24.8485 C   0  0  0  0  0  0  0  0  0  0  0  0
   35.4807   32.1675   25.8571 C   0  0  0  0  0  0  0  0  0  0  0  0
   34.5811   31.4095   25.6850 O   0  0  0  0  0  0  0  0  0  0  0  0
   34.6878   33.7644   23.6655 C   0  0  0  0  0  0  0  0  0  0  0  0
   35.2281   34.8794   23.1611 C   0  0  0  0  0  0  0  0  0  0  0  0
   36.3438   35.3316   23.8130 N   0  0  0  0  0  0  0  0  0  0  0  0
   33.4978   33.0211   23.1935 C   0  0  0  0  0  0  0  0  0  0  0  0
   32.5632   32.4155   22.8826 N   0  0  0  0  0  0  0  0  0  0  0  0
  1  2  1  0  0  0  0
  1  7  1  0  0  0  0
  2  3  1  0  0  0  0
  2  4  2  0  0  0  0
  4  5  1  0  0  0  0
  5  6  2  0  0  0  0
  5 11  1  0  0  0  0
  6  7  1  0  0  0  0
  6  9  1  0  0  0  0
  7  8  2  0  0  0  0
  9 10  2  0  0  0  0
  9 12  1  0  0  0  0
 10 11  1  0  0  0  0
 12 13  3  0  0  0  0
M  END
>  <CHROM.1>
35.74246640,33.26398975,25.10099546,0.49891771,0.60928192,2.40845846

>  <Name>
ligand

>  <RI>
0

>  <Rbt.Current_Directory>
/home/itssahil/PROJECTS/Mol_Feturizer/New_Systems/rnas/3GCA

>  <Rbt.Executable>
rbdock ($Id: //depot/dev/client3/rdock/2013.1/src/exe/rbdock.cxx#4 $)

>  <Rbt.Library>
libRbt.so (2013.1, Build901 2013/11/27)

>  <Rbt.Parameter_File>
/export/apps/rDock/src/rDock_2013.1_src/data/scripts/dock_solv.prm

>  <Rbt.Receptor>
prm/blind_docking_80.prm

>  <SCORE>
-24.0108

>  <SCORE.INTER>
-24.0108

>  <SCORE.INTER.CONST>
1

>  <SCORE.INTER.POLAR>
0

>  <SCORE.INTER.ROT>
0

>  <SCORE.INTER.SOLV>
11.4192

>  <SCORE.INTER.VDW>
-23.4136

>  <SCORE.INTER.norm>
-1.84698

>  <SCORE.INTRA>
0

>  <SCORE.INTRA.DIHEDRAL>
0

>  <SCORE.INTRA.DIHEDRAL.0>
0

>  <SCORE.INTRA.POLAR>
0

>  <SCORE.INTRA.POLAR.0>
0

>  <SCORE.INTRA.REPUL>
0

>  <SCORE.INTRA.REPUL.0>
0

>  <SCORE.INTRA.SOLV>
0

>  <SCORE.INTRA.SOLV.lig_0>
-33.1994

>  <SCORE.INTRA.VDW>
0

>  <SCORE.INTRA.VDW.0>
0

>  <SCORE.INTRA.norm>
0

>  <SCORE.RESTR>
0

>  <SCORE.RESTR.CAVITY>
0

>  <SCORE.RESTR.norm>
0

>  <SCORE.SYSTEM>
0

>  <SCORE.SYSTEM.CONST>
0

>  <SCORE.SYSTEM.DIHEDRAL>
0

>  <SCORE.SYSTEM.SOLV>
0

>  <SCORE.SYSTEM.norm>
0

>  <SCORE.heavy>
13

>  <SCORE.norm>
-1.84698

>  <RMSD>
4.895

$$$$
ligand
 OpenBabel11021811473D
libRbt.so/2013.1/901 2013/11/27
 13 14  0  0  0  0  0  0  0  0999 V2000
   36.4488   32.0632   26.7513 N   0  0  0  0  0  0  0  0  0  0  0  0
   37.5894   33.1539   26.8918 C   0  0  0  0  0  0  0  0  0  0  0  0
   38.5366   33.0107   27.8868 N   0  0  0  0  0  0  0  0  0  0  0  0
   37.4666   34.0817   26.0386 N   0  0  0  0  0  0  0  0  0  0  0  0
   36.5735   34.2665   25.0474 C   0  0  0  0  0  0  0  0  0  0  0  0
   35.5762   33.3820   24.8511 C   0  0  0  0  0  0  0  0  0  0  0  0
   35.5007   32.1416   25.8262 C   0  0  0  0  0  0  0  0  0  0  0  0
   34.6180   31.3670   25.6407 O   0  0  0  0  0  0  0  0  0  0  0  0
   34.6491   33.7792   23.6873 C   0  0  0  0  0  0  0  0  0  0  0  0
   35.1577   34.9206   23.2098 C   0  0  0  0  0  0  0  0  0  0  0  0
   36.2682   35.3815   23.8644 N   0  0  0  0  0  0  0  0  0  0  0  0
   33.4730   33.0206   23.2050 C   0  0  0  0  0  0  0  0  0  0  0  0
   32.5503   32.4014   22.8853 N   0  0  0  0  0  0  0  0  0  0  0  0
  1  2  1  0  0  0  0
  1  7  1  0  0  0  0
  2  3  1  0  0  0  0
  2  4  2  0  0  0  0
  4  5  1  0  0  0  0
  5  6  2  0  0  0  0
  5 11  1  0  0  0  0
  6  7  1  0  0  0  0
  6  9  1  0  0  0  0
  7  8  2  0  0  0  0
  9 10  2  0  0  0  0
  9 12  1  0  0  0  0
 10 11  1  0  0  0  0
 12 13  3  0  0  0  0
M  END
>  <CHROM.1>
35.72890249,33.26474894,25.09897175,0.46928275,0.61821533,2.45353139

>  <Name>
ligand

>  <RI>
0

>  <Rbt.Current_Directory>
/home/itssahil/PROJECTS/Mol_Feturizer/New_Systems/rnas/3GCA

>  <Rbt.Executable>
rbdock ($Id: //depot/dev/client3/rdock/2013.1/src/exe/rbdock.cxx#4 $)

>  <Rbt.Library>
libRbt.so (2013.1, Build901 2013/11/27)

>  <Rbt.Parameter_File>
/export/apps/rDock/src/rDock_2013.1_src/data/scripts/dock_solv.prm

>  <Rbt.Receptor>
prm/blind_docking_80.prm

>  <SCORE>
-24.066

>  <SCORE.INTER>
-24.066

>  <SCORE.INTER.CONST>
1

>  <SCORE.INTER.POLAR>
0

>  <SCORE.INTER.ROT>
0

>  <SCORE.INTER.SOLV>
11.346

>  <SCORE.INTER.VDW>
-23.426

>  <SCORE.INTER.norm>
-1.85123

>  <SCORE.INTRA>
0

>  <SCORE.INTRA.DIHEDRAL>
0

>  <SCORE.INTRA.DIHEDRAL.0>
0

>  <SCORE.INTRA.POLAR>
0

>  <SCORE.INTRA.POLAR.0>
0

>  <SCORE.INTRA.REPUL>
0

>  <SCORE.INTRA.REPUL.0>
0

>  <SCORE.INTRA.SOLV>
0

>  <SCORE.INTRA.SOLV.lig_0>
-33.1994

>  <SCORE.INTRA.VDW>
0

>  <SCORE.INTRA.VDW.0>
0

>  <SCORE.INTRA.norm>
0

>  <SCORE.RESTR>
0

>  <SCORE.RESTR.CAVITY>
0

>  <SCORE.RESTR.norm>
0

>  <SCORE.SYSTEM>
0

>  <SCORE.SYSTEM.CONST>
0

>  <SCORE.SYSTEM.DIHEDRAL>
0

>  <SCORE.SYSTEM.SOLV>
0

>  <SCORE.SYSTEM.norm>
0

>  <SCORE.heavy>
13

>  <SCORE.norm>
-1.85123

>  <RMSD>
4.895

$$$$
ligand
 OpenBabel11021811473D
libRbt.so/2013.1/901 2013/11/27
 13 14  0  0  0  0  0  0  0  0999 V2000
   36.4172   32.0786   26.7838 N   0  0  0  0  0  0  0  0  0  0  0  0
   37.5813   33.1467   26.9037 C   0  0  0  0  0  0  0  0  0  0  0  0
   38.5217   33.0054   27.9054 N   0  0  0  0  0  0  0  0  0  0  0  0
   37.4821   34.0571   26.0290 N   0  0  0  0  0  0  0  0  0  0  0  0
   36.5966   34.2389   25.0304 C   0  0  0  0  0  0  0  0  0  0  0  0
   35.5805   33.3723   24.8505 C   0  0  0  0  0  0  0  0  0  0  0  0
   35.4742   32.1567   25.8535 C   0  0  0  0  0  0  0  0  0  0  0  0
   34.5751   31.3978   25.6824 O   0  0  0  0  0  0  0  0  0  0  0  0
   34.6665   33.7632   23.6744 C   0  0  0  0  0  0  0  0  0  0  0  0
   35.2019   34.8817   23.1728 C   0  0  0  0  0  0  0  0  0  0  0  0
   36.3202   35.3328   23.8209 N   0  0  0  0  0  0  0  0  0  0  0  0
   33.4754   33.0199   23.2050 C   0  0  0  0  0  0  0  0  0  0  0  0
   32.5402   32.4141   22.8960 N   0  0  0  0  0  0  0  0  0  0  0  0
  1  2  1  0  0  0  0
  1  7  1  0  0  0  0
  2  3  1  0  0  0  0
  2  4  2  0  0  0  0
  4  5  1  0  0  0  0
  5  6  2  0  0  0  0
  5 11  1  0  0  0  0
  6  7  1  0  0  0  0
  6  9  1  0  0  0  0
  7  8  2  0  0  0  0
  9 10  2  0  0  0  0
  9 12  1  0  0  0  0
 10 11  1  0  0  0  0
 12 13  3  0  0  0  0
M  END
>  <CHROM.1>
35.72975878,33.25748724,25.10160190,0.49280968,0.60656147,2.41703718

>  <Name>
ligand

>  <RI>
0

>  <Rbt.Current_Directory>
/home/itssahil/PROJECTS/Mol_Feturizer/New_Systems/rnas/3GCA

>  <Rbt.Executable>
rbdock ($Id: //depot/dev/client3/rdock/2013.1/src/exe/rbdock.cxx#4 $)

>  <Rbt.Library>
libRbt.so (2013.1, Build901 2013/11/27)

>  <Rbt.Parameter_File>
/export/apps/rDock/src/rDock_2013.1_src/data/scripts/dock_solv.prm

>  <Rbt.Receptor>
prm/blind_docking_80.prm

>  <SCORE>
-24.0667

>  <SCORE.INTER>
-24.0667

>  <SCORE.INTER.CONST>
1

>  <SCORE.INTER.POLAR>
0

>  <SCORE.INTER.ROT>
0

>  <SCORE.INTER.SOLV>
11.4096

>  <SCORE.INTER.VDW>
-23.4476

>  <SCORE.INTER.norm>
-1.85128

>  <SCORE.INTRA>
0

>  <SCORE.INTRA.DIHEDRAL>
0

>  <SCORE.INTRA.DIHEDRAL.0>
0

>  <SCORE.INTRA.POLAR>
0

>  <SCORE.INTRA.POLAR.0>
0

>  <SCORE.INTRA.REPUL>
0

>  <SCORE.INTRA.REPUL.0>
0

>  <SCORE.INTRA.SOLV>
0

>  <SCORE.INTRA.SOLV.lig_0>
-33.1994

>  <SCORE.INTRA.VDW>
0

>  <SCORE.INTRA.VDW.0>
0

>  <SCORE.INTRA.norm>
0

>  <SCORE.RESTR>
0

>  <SCORE.RESTR.CAVITY>
0

>  <SCORE.RESTR.norm>
0

>  <SCORE.SYSTEM>
0

>  <SCORE.SYSTEM.CONST>
0

>  <SCORE.SYSTEM.DIHEDRAL>
0

>  <SCORE.SYSTEM.SOLV>
0

>  <SCORE.SYSTEM.norm>
0

>  <SCORE.heavy>
13

>  <SCORE.norm>
-1.85128

>  <RMSD>
4.895

$$$$
ligand
 OpenBabel11021811473D
libRbt.so/2013.1/901 2013/11/27
 13 14  0  0  0  0  0  0  0  0999 V2000
   36.4461   32.0671   26.7535 N   0  0  0  0  0  0  0  0  0  0  0  0
   37.5911   33.1537   26.8903 C   0  0  0  0  0  0  0  0  0  0  0  0
   38.5368   33.0109   27.8867 N   0  0  0  0  0  0  0  0  0  0  0  0
   37.4728   34.0782   26.0329 N   0  0  0  0  0  0  0  0  0  0  0  0
   36.5814   34.2624   25.0401 C   0  0  0  0  0  0  0  0  0  0  0  0
   35.5806   33.3811   24.8468 C   0  0  0  0  0  0  0  0  0  0  0  0
   35.4992   32.1453   25.8272 C   0  0  0  0  0  0  0  0  0  0  0  0
   34.6135   31.3735   25.6444 O   0  0  0  0  0  0  0  0  0  0  0  0
   34.6562   33.7770   23.6805 C   0  0  0  0  0  0  0  0  0  0  0  0
   35.1698   34.9143   23.1985 C   0  0  0  0  0  0  0  0  0  0  0  0
   36.2817   35.3734   23.8520 N   0  0  0  0  0  0  0  0  0  0  0  0
   33.4773   33.0211   23.2004 C   0  0  0  0  0  0  0  0  0  0  0  0
   32.5524   32.4044   22.8826 N   0  0  0  0  0  0  0  0  0  0  0  0
  1  2  1  0  0  0  0
  1  7  1  0  0  0  0
  2  3  1  0  0  0  0
  2  4  2  0  0  0  0
  4  5  1  0  0  0  0
  5  6  2  0  0  0  0
  5 11  1  0  0  0  0
  6  7  1  0  0  0  0
  6  9  1  0  0  0  0
  7  8  2  0  0  0  0
  9 10  2  0  0  0  0
  9 12  1  0  0  0  0
 10 11  1  0  0  0  0
 12 13  3  0  0  0  0
M  END
>  <CHROM.1>
35.73259026,33.26432461,25.09533185,0.47384266,0.61627603,2.44651972

>  <Name>
ligand

>  <RI>
0

>  <Rbt.Current_Directory>
/home/itssahil/PROJECTS/Mol_Feturizer/New_Systems/rnas/3GCA

>  <Rbt.Executable>
rbdock ($Id: //depot/dev/client3/rdock/2013.1/src/exe/rbdock.cxx#4 $)

>  <Rbt.Library>
libRbt.so (2013.1, Build901 2013/11/27)

>  <Rbt.Parameter_File>
/export/apps/rDock/src/rDock_2013.1_src/data/scripts/dock_solv.prm

>  <Rbt.Receptor>
prm/blind_docking_80.prm

>  <SCORE>
-24.0363

>  <SCORE.INTER>
-24.0363

>  <SCORE.INTER.CONST>
1

>  <SCORE.INTER.POLAR>
0

>  <SCORE.INTER.ROT>
0

>  <SCORE.INTER.SOLV>
11.3387

>  <SCORE.INTER.VDW>
-23.4037

>  <SCORE.INTER.norm>
-1.84894

>  <SCORE.INTRA>
0

>  <SCORE.INTRA.DIHEDRAL>
0

>  <SCORE.INTRA.DIHEDRAL.0>
0

>  <SCORE.INTRA.POLAR>
0

>  <SCORE.INTRA.POLAR.0>
0

>  <SCORE.INTRA.REPUL>
0

>  <SCORE.INTRA.REPUL.0>
0

>  <SCORE.INTRA.SOLV>
0

>  <SCORE.INTRA.SOLV.lig_0>
-33.1994

>  <SCORE.INTRA.VDW>
0

>  <SCORE.INTRA.VDW.0>
0

>  <SCORE.INTRA.norm>
0

>  <SCORE.RESTR>
0

>  <SCORE.RESTR.CAVITY>
0

>  <SCORE.RESTR.norm>
0

>  <SCORE.SYSTEM>
0

>  <SCORE.SYSTEM.CONST>
0

>  <SCORE.SYSTEM.DIHEDRAL>
0

>  <SCORE.SYSTEM.SOLV>
0

>  <SCORE.SYSTEM.norm>
0

>  <SCORE.heavy>
13

>  <SCORE.norm>
-1.84894

>  <RMSD>
4.895

$$$$
ligand
 OpenBabel11021811473D
libRbt.so/2013.1/901 2013/11/27
 13 14  0  0  0  0  0  0  0  0999 V2000
   36.4134   32.0705   26.7678 N   0  0  0  0  0  0  0  0  0  0  0  0
   37.5753   33.1411   26.8875 C   0  0  0  0  0  0  0  0  0  0  0  0
   38.5207   32.9974   27.8841 N   0  0  0  0  0  0  0  0  0  0  0  0
   37.4694   34.0556   26.0179 N   0  0  0  0  0  0  0  0  0  0  0  0
   36.5788   34.2399   25.0243 C   0  0  0  0  0  0  0  0  0  0  0  0
   35.5642   33.3716   24.8449 C   0  0  0  0  0  0  0  0  0  0  0  0
   35.4659   32.1507   25.8423 C   0  0  0  0  0  0  0  0  0  0  0  0
   34.5681   31.3902   25.6717 O   0  0  0  0  0  0  0  0  0  0  0  0
   34.6436   33.7658   23.6751 C   0  0  0  0  0  0  0  0  0  0  0  0
   35.1736   34.8883   23.1766 C   0  0  0  0  0  0  0  0  0  0  0  0
   36.2937   35.3391   23.8217 N   0  0  0  0  0  0  0  0  0  0  0  0
   33.4523   33.0216   23.2076 C   0  0  0  0  0  0  0  0  0  0  0  0
   32.5173   32.4149   22.9000 N   0  0  0  0  0  0  0  0  0  0  0  0
  1  2  1  0  0  0  0
  1  7  1  0  0  0  0
  2  3  1  0  0  0  0
  2  4  2  0  0  0  0
  4  5  1  0  0  0  0
  5  6  2  0  0  0  0
  5 11  1  0  0  0  0
  6  7  1  0  0  0  0
  6  9  1  0  0  0  0
  7  8  2  0  0  0  0
  9 10  2  0  0  0  0
  9 12  1  0  0  0  0
 10 11  1  0  0  0  0
 12 13  3  0  0  0  0
M  END
>  <CHROM.1>
35.71494040,33.25588870,25.09474271,0.48655766,0.60479612,2.42558232

>  <Name>
ligand

>  <RI>
0

>  <Rbt.Current_Directory>
/home/itssahil/PROJECTS/Mol_Feturizer/New_Systems/rnas/3GCA

>  <Rbt.Executable>
rbdock ($Id: //depot/dev/client3/rdock/2013.1/src/exe/rbdock.cxx#4 $)

>  <Rbt.Library>
libRbt.so (2013.1, Build901 2013/11/27)

>  <Rbt.Parameter_File>
/export/apps/rDock/src/rDock_2013.1_src/data/scripts/dock_solv.prm

>  <Rbt.Receptor>
prm/pocket_docking_3.prm

>  <SCORE>
-24.0513

>  <SCORE.INTER>
-24.0513

>  <SCORE.INTER.CONST>
1

>  <SCORE.INTER.POLAR>
0

>  <SCORE.INTER.ROT>
0

>  <SCORE.INTER.SOLV>
11.4051

>  <SCORE.INTER.VDW>
-23.4359

>  <SCORE.INTER.norm>
-1.8501

>  <SCORE.INTRA>
0

>  <SCORE.INTRA.DIHEDRAL>
0

>  <SCORE.INTRA.DIHEDRAL.0>
0

>  <SCORE.INTRA.POLAR>
0

>  <SCORE.INTRA.POLAR.0>
0

>  <SCORE.INTRA.REPUL>
0

>  <SCORE.INTRA.REPUL.0>
0

>  <SCORE.INTRA.SOLV>
0

>  <SCORE.INTRA.SOLV.lig_0>
-33.1994

>  <SCORE.INTRA.VDW>
0

>  <SCORE.INTRA.VDW.0>
0

>  <SCORE.INTRA.norm>
0

>  <SCORE.RESTR>
0

>  <SCORE.RESTR.CAVITY>
0

>  <SCORE.RESTR.norm>
0

>  <SCORE.SYSTEM>
0

>  <SCORE.SYSTEM.CONST>
0

>  <SCORE.SYSTEM.DIHEDRAL>
0

>  <SCORE.SYSTEM.SOLV>
0

>  <SCORE.SYSTEM.norm>
0

>  <SCORE.heavy>
13

>  <SCORE.norm>
-1.8501

>  <RMSD>
4.895

$$$$
ligand
 OpenBabel11021811473D
libRbt.so/2013.1/901 2013/11/27
 13 14  0  0  0  0  0  0  0  0999 V2000
   36.4297   32.0454   26.7642 N   0  0  0  0  0  0  0  0  0  0  0  0
   37.5699   33.1358   26.9102 C   0  0  0  0  0  0  0  0  0  0  0  0
   38.5111   32.9934   27.9109 N   0  0  0  0  0  0  0  0  0  0  0  0
   37.4525   34.0627   26.0553 N   0  0  0  0  0  0  0  0  0  0  0  0
   36.5653   34.2468   25.0586 C   0  0  0  0  0  0  0  0  0  0  0  0
   35.5688   33.3623   24.8574 C   0  0  0  0  0  0  0  0  0  0  0  0
   35.4872   32.1230   25.8334 C   0  0  0  0  0  0  0  0  0  0  0  0
   34.6053   31.3486   25.6436 O   0  0  0  0  0  0  0  0  0  0  0  0
   34.6488   33.7586   23.6877 C   0  0  0  0  0  0  0  0  0  0  0  0
   35.1606   34.8993   23.2119 C   0  0  0  0  0  0  0  0  0  0  0  0
   36.2674   35.3605   23.8726 N   0  0  0  0  0  0  0  0  0  0  0  0
   33.4753   32.9998   23.1993 C   0  0  0  0  0  0  0  0  0  0  0  0
   32.5543   32.3806   22.8748 N   0  0  0  0  0  0  0  0  0  0  0  0
  1  2  1  0  0  0  0
  1  7  1  0  0  0  0
  2  3  1  0  0  0  0
  2  4  2  0  0  0  0
  4  5  1  0  0  0  0
  5  6  2  0  0  0  0
  5 11  1  0  0  0  0
  6  7  1  0  0  0  0
  6  9  1  0  0  0  0
  7  8  2  0  0  0  0
  9 10  2  0  0  0  0
  9 12  1  0  0  0  0
 10 11  1  0  0  0  0
 12 13  3  0  0  0  0
M  END
>  <CHROM.1>
35.72003270,33.24532427,25.10629399,0.47422614,0.62256535,2.44954341

>  <Name>
ligand

>  <RI>
0

>  <Rbt.Current_Directory>
/home/itssahil/PROJECTS/Mol_Feturizer/New_Systems/rnas/3GCA

>  <Rbt.Executable>
rbdock ($Id: //depot/dev/client3/rdock/2013.1/src/exe/rbdock.cxx#4 $)

>  <Rbt.Library>
libRbt.so (2013.1, Build901 2013/11/27)

>  <Rbt.Parameter_File>
/export/apps/rDock/src/rDock_2013.1_src/data/scripts/dock_solv.prm

>  <Rbt.Receptor>
prm/pocket_docking_3.prm

>  <SCORE>
-24.0287

>  <SCORE.INTER>
-24.0287

>  <SCORE.INTER.CONST>
1

>  <SCORE.INTER.POLAR>
0

>  <SCORE.INTER.ROT>
0

>  <SCORE.INTER.SOLV>
11.493

>  <SCORE.INTER.VDW>
-23.4501

>  <SCORE.INTER.norm>
-1.84836

>  <SCORE.INTRA>
0

>  <SCORE.INTRA.DIHEDRAL>
0

>  <SCORE.INTRA.DIHEDRAL.0>
0

>  <SCORE.INTRA.POLAR>
0

>  <SCORE.INTRA.POLAR.0>
0

>  <SCORE.INTRA.REPUL>
0

>  <SCORE.INTRA.REPUL.0>
0

>  <SCORE.INTRA.SOLV>
0

>  <SCORE.INTRA.SOLV.lig_0>
-33.1994

>  <SCORE.INTRA.VDW>
0

>  <SCORE.INTRA.VDW.0>
0

>  <SCORE.INTRA.norm>
0

>  <SCORE.RESTR>
0

>  <SCORE.RESTR.CAVITY>
0

>  <SCORE.RESTR.norm>
0

>  <SCORE.SYSTEM>
0

>  <SCORE.SYSTEM.CONST>
0

>  <SCORE.SYSTEM.DIHEDRAL>
0

>  <SCORE.SYSTEM.SOLV>
0

>  <SCORE.SYSTEM.norm>
0

>  <SCORE.heavy>
13

>  <SCORE.norm>
-1.84836

>  <RMSD>
4.895

$$$$
ligand
 OpenBabel11021811473D
libRbt.so/2013.1/901 2013/11/27
 13 14  0  0  0  0  0  0  0  0999 V2000
   36.4673   32.0461   26.7376 N   0  0  0  0  0  0  0  0  0  0  0  0
   37.6100   33.1344   26.8799 C   0  0  0  0  0  0  0  0  0  0  0  0
   38.5614   32.9836   27.8697 N   0  0  0  0  0  0  0  0  0  0  0  0
   37.4847   34.0676   26.0331 N   0  0  0  0  0  0  0  0  0  0  0  0
   36.5875   34.2599   25.0470 C   0  0  0  0  0  0  0  0  0  0  0  0
   35.5881   33.3779   24.8496 C   0  0  0  0  0  0  0  0  0  0  0  0
   35.5152   32.1315   25.8172 C   0  0  0  0  0  0  0  0  0  0  0  0
   34.6307   31.3593   25.6309 O   0  0  0  0  0  0  0  0  0  0  0  0
   34.6564   33.7837   23.6925 C   0  0  0  0  0  0  0  0  0  0  0  0
   35.1644   34.9274   23.2199 C   0  0  0  0  0  0  0  0  0  0  0  0
   36.2784   35.3827   23.8724 N   0  0  0  0  0  0  0  0  0  0  0  0
   33.4771   33.0297   23.2107 C   0  0  0  0  0  0  0  0  0  0  0  0
   32.5522   32.4138   22.8912 N   0  0  0  0  0  0  0  0  0  0  0  0
  1  2  1  0  0  0  0
  1  7  1  0  0  0  0
  2  3  1  0  0  0  0
  2  4  2  0  0  0  0
  4  5  1  0  0  0  0
  5  6  2  0  0  0  0
  5 11  1  0  0  0  0
  6  7  1  0  0  0  0
  6  9  1  0  0  0  0
  7  8  2  0  0  0  0
  9 10  2  0  0  0  0
  9 12  1  0  0  0  0
 10 11  1  0  0  0  0
 12 13  3  0  0  0  0
M  END
>  <CHROM.1>
35.74171967,33.25896441,25.09607674,0.46712331,0.61392129,2.46105103

>  <Name>
ligand

>  <RI>
0

>  <Rbt.Current_Directory>
/home/itssahil/PROJECTS/Mol_Feturizer/New_Systems/rnas/3GCA

>  <Rbt.Executable>
rbdock ($Id: //depot/dev/client3/rdock/2013.1/src/exe/rbdock.cxx#4 $)

>  <Rbt.Library>
libRbt.so (2013.1, Build901 2013/11/27)

>  <Rbt.Parameter_File>
/export/apps/rDock/src/rDock_2013.1_src/data/scripts/dock_solv.prm

>  <Rbt.Receptor>
prm/pocket_docking_3.prm

>  <SCORE>
-24.0135

>  <SCORE.INTER>
-24.0135

>  <SCORE.INTER.CONST>
1

>  <SCORE.INTER.POLAR>
0

>  <SCORE.INTER.ROT>
0

>  <SCORE.INTER.SOLV>
11.2363

>  <SCORE.INTER.VDW>
-23.3545

>  <SCORE.INTER.norm>
-1.8472

>  <SCORE.INTRA>
0

>  <SCORE.INTRA.DIHEDRAL>
0

>  <SCORE.INTRA.DIHEDRAL.0>
0

>  <SCORE.INTRA.POLAR>
0

>  <SCORE.INTRA.POLAR.0>
0

>  <SCORE.INTRA.REPUL>
0

>  <SCORE.INTRA.REPUL.0>
0

>  <SCORE.INTRA.SOLV>
0

>  <SCORE.INTRA.SOLV.lig_0>
-33.1994

>  <SCORE.INTRA.VDW>
0

>  <SCORE.INTRA.VDW.0>
0

>  <SCORE.INTRA.norm>
0

>  <SCORE.RESTR>
0

>  <SCORE.RESTR.CAVITY>
0

>  <SCORE.RESTR.norm>
0

>  <SCORE.SYSTEM>
0

>  <SCORE.SYSTEM.CONST>
0

>  <SCORE.SYSTEM.DIHEDRAL>
0

>  <SCORE.SYSTEM.SOLV>
0

>  <SCORE.SYSTEM.norm>
0

>  <SCORE.heavy>
13

>  <SCORE.norm>
-1.8472

>  <RMSD>
4.895

$$$$
ligand
 OpenBabel11021811473D
libRbt.so/2013.1/901 2013/11/27
 13 14  0  0  0  0  0  0  0  0999 V2000
   36.4434   32.0600   26.7493 N   0  0  0  0  0  0  0  0  0  0  0  0
   37.5767   33.1575   26.8960 C   0  0  0  0  0  0  0  0  0  0  0  0
   38.5233   33.0164   27.8919 N   0  0  0  0  0  0  0  0  0  0  0  0
   37.4493   34.0878   26.0463 N   0  0  0  0  0  0  0  0  0  0  0  0
   36.5565   34.2709   25.0545 C   0  0  0  0  0  0  0  0  0  0  0  0
   35.5652   33.3807   24.8531 C   0  0  0  0  0  0  0  0  0  0  0  0
   35.4963   32.1360   25.8231 C   0  0  0  0  0  0  0  0  0  0  0  0
   34.6189   31.3565   25.6331 O   0  0  0  0  0  0  0  0  0  0  0  0
   34.6374   33.7767   23.6895 C   0  0  0  0  0  0  0  0  0  0  0  0
   35.1393   34.9232   23.2173 C   0  0  0  0  0  0  0  0  0  0  0  0
   36.2458   35.3886   23.8755 N   0  0  0  0  0  0  0  0  0  0  0  0
   33.4669   33.0124   23.2023 C   0  0  0  0  0  0  0  0  0  0  0  0
   32.5487   32.3886   22.8786 N   0  0  0  0  0  0  0  0  0  0  0  0
  1  2  1  0  0  0  0
  1  7  1  0  0  0  0
  2  3  1  0  0  0  0
  2  4  2  0  0  0  0
  4  5  1  0  0  0  0
  5  6  2  0  0  0  0
  5 11  1  0  0  0  0
  6  7  1  0  0  0  0
  6  9  1  0  0  0  0
  7  8  2  0  0  0  0
  9 10  2  0  0  0  0
  9 12  1  0  0  0  0
 10 11  1  0  0  0  0
 12 13  3  0  0  0  0
M  END
>  <CHROM.1>
35.71828819,33.26351263,25.10072033,0.46432995,0.62349928,2.46041784

>  <Name>
ligand

>  <RI>
0

>  <Rbt.Current_Directory>
/home/itssahil/PROJECTS/Mol_Feturizer/New_Systems/rnas/3GCA

>  <Rbt.Executable>
rbdock ($Id: //depot/dev/client3/rdock/2013.1/src/exe/rbdock.cxx#4 $)

>  <Rbt.Library>
libRbt.so (2013.1, Build901 2013/11/27)

>  <Rbt.Parameter_File>
/export/apps/rDock/src/rDock_2013.1_src/data/scripts/dock_solv.prm

>  <Rbt.Receptor>
prm/pocket_docking_4.prm

>  <SCORE>
-24.0374

>  <SCORE.INTER>
-24.0374

>  <SCORE.INTER.CONST>
1

>  <SCORE.INTER.POLAR>
0

>  <SCORE.INTER.ROT>
0

>  <SCORE.INTER.SOLV>
11.4153

>  <SCORE.INTER.VDW>
-23.4301

>  <SCORE.INTER.norm>
-1.84903

>  <SCORE.INTRA>
0

>  <SCORE.INTRA.DIHEDRAL>
0

>  <SCORE.INTRA.DIHEDRAL.0>
0

>  <SCORE.INTRA.POLAR>
0

>  <SCORE.INTRA.POLAR.0>
0

>  <SCORE.INTRA.REPUL>
0

>  <SCORE.INTRA.REPUL.0>
0

>  <SCORE.INTRA.SOLV>
0

>  <SCORE.INTRA.SOLV.lig_0>
-33.1994

>  <SCORE.INTRA.VDW>
0

>  <SCORE.INTRA.VDW.0>
0

>  <SCORE.INTRA.norm>
0

>  <SCORE.RESTR>
0

>  <SCORE.RESTR.CAVITY>
0

>  <SCORE.RESTR.norm>
0

>  <SCORE.SYSTEM>
0

>  <SCORE.SYSTEM.CONST>
0

>  <SCORE.SYSTEM.DIHEDRAL>
0

>  <SCORE.SYSTEM.SOLV>
0

>  <SCORE.SYSTEM.norm>
0

>  <SCORE.heavy>
13

>  <SCORE.norm>
-1.84903

>  <RMSD>
4.895

$$$$
ligand
 OpenBabel11021811473D
libRbt.so/2013.1/901 2013/11/27
 13 14  0  0  0  0  0  0  0  0999 V2000
   36.4045   32.0842   26.7770 N   0  0  0  0  0  0  0  0  0  0  0  0
   37.5666   33.1546   26.8960 C   0  0  0  0  0  0  0  0  0  0  0  0
   38.5081   33.0152   27.8969 N   0  0  0  0  0  0  0  0  0  0  0  0
   37.4647   34.0648   26.0214 N   0  0  0  0  0  0  0  0  0  0  0  0
   36.5781   34.2448   25.0235 C   0  0  0  0  0  0  0  0  0  0  0  0
   35.5637   33.3762   24.8444 C   0  0  0  0  0  0  0  0  0  0  0  0
   35.4606   32.1603   25.8475 C   0  0  0  0  0  0  0  0  0  0  0  0
   34.5629   31.3996   25.6771 O   0  0  0  0  0  0  0  0  0  0  0  0
   34.6478   33.7652   23.6691 C   0  0  0  0  0  0  0  0  0  0  0  0
   35.1806   34.8849   23.1671 C   0  0  0  0  0  0  0  0  0  0  0  0
   36.2985   35.3382   23.8143 N   0  0  0  0  0  0  0  0  0  0  0  0
   33.4578   33.0195   23.2006 C   0  0  0  0  0  0  0  0  0  0  0  0
   32.5237   32.4119   22.8924 N   0  0  0  0  0  0  0  0  0  0  0  0
  1  2  1  0  0  0  0
  1  7  1  0  0  0  0
  2  3  1  0  0  0  0
  2  4  2  0  0  0  0
  4  5  1  0  0  0  0
  5  6  2  0  0  0  0
  5 11  1  0  0  0  0
  6  7  1  0  0  0  0
  6  9  1  0  0  0  0
  7  8  2  0  0  0  0
  9 10  2  0  0  0  0
  9 12  1  0  0  0  0
 10 11  1  0  0  0  0
 12 13  3  0  0  0  0
M  END
>  <CHROM.1>
35.71331820,33.26168119,25.09541413,0.49028665,0.60729698,2.41850677

>  <Name>
ligand

>  <RI>
0

>  <Rbt.Current_Directory>
/home/itssahil/PROJECTS/Mol_Feturizer/New_Systems/rnas/3GCA

>  <Rbt.Executable>
rbdock ($Id: //depot/dev/client3/rdock/2013.1/src/exe/rbdock.cxx#4 $)

>  <Rbt.Library>
libRbt.so (2013.1, Build901 2013/11/27)

>  <Rbt.Parameter_File>
/export/apps/rDock/src/rDock_2013.1_src/data/scripts/dock_solv.prm

>  <Rbt.Receptor>
prm/pocket_docking_4.prm

>  <SCORE>
-24.0726

>  <SCORE.INTER>
-24.0726

>  <SCORE.INTER.CONST>
1

>  <SCORE.INTER.POLAR>
0

>  <SCORE.INTER.ROT>
0

>  <SCORE.INTER.SOLV>
11.4592

>  <SCORE.INTER.VDW>
-23.4681

>  <SCORE.INTER.norm>
-1.85174

>  <SCORE.INTRA>
0

>  <SCORE.INTRA.DIHEDRAL>
0

>  <SCORE.INTRA.DIHEDRAL.0>
0

>  <SCORE.INTRA.POLAR>
0

>  <SCORE.INTRA.POLAR.0>
0

>  <SCORE.INTRA.REPUL>
0

>  <SCORE.INTRA.REPUL.0>
0

>  <SCORE.INTRA.SOLV>
0

>  <SCORE.INTRA.SOLV.lig_0>
-33.1994

>  <SCORE.INTRA.VDW>
0

>  <SCORE.INTRA.VDW.0>
0

>  <SCORE.INTRA.norm>
0

>  <SCORE.RESTR>
0

>  <SCORE.RESTR.CAVITY>
0

>  <SCORE.RESTR.norm>
0

>  <SCORE.SYSTEM>
0

>  <SCORE.SYSTEM.CONST>
0

>  <SCORE.SYSTEM.DIHEDRAL>
0

>  <SCORE.SYSTEM.SOLV>
0

>  <SCORE.SYSTEM.norm>
0

>  <SCORE.heavy>
13

>  <SCORE.norm>
-1.85174

>  <RMSD>
4.895

$$$$
ligand
 OpenBabel11021811473D
libRbt.so/2013.1/901 2013/11/27
 13 14  0  0  0  0  0  0  0  0999 V2000
   36.4312   32.0607   26.7560 N   0  0  0  0  0  0  0  0  0  0  0  0
   37.5788   33.1450   26.8893 C   0  0  0  0  0  0  0  0  0  0  0  0
   38.5259   33.0015   27.8842 N   0  0  0  0  0  0  0  0  0  0  0  0
   37.4610   34.0687   26.0310 N   0  0  0  0  0  0  0  0  0  0  0  0
   36.5681   34.2535   25.0395 C   0  0  0  0  0  0  0  0  0  0  0  0
   35.5651   33.3741   24.8491 C   0  0  0  0  0  0  0  0  0  0  0  0
   35.4828   32.1397   25.8313 C   0  0  0  0  0  0  0  0  0  0  0  0
   34.5951   31.3697   25.6510 O   0  0  0  0  0  0  0  0  0  0  0  0
   34.6395   33.7705   23.6839 C   0  0  0  0  0  0  0  0  0  0  0  0
   35.1547   34.9060   23.1995 C   0  0  0  0  0  0  0  0  0  0  0  0
   36.2687   35.3636   23.8505 N   0  0  0  0  0  0  0  0  0  0  0  0
   33.4582   33.0165   23.2069 C   0  0  0  0  0  0  0  0  0  0  0  0
   32.5314   32.4013   22.8916 N   0  0  0  0  0  0  0  0  0  0  0  0
  1  2  1  0  0  0  0
  1  7  1  0  0  0  0
  2  3  1  0  0  0  0
  2  4  2  0  0  0  0
  4  5  1  0  0  0  0
  5  6  2  0  0  0  0
  5 11  1  0  0  0  0
  6  7  1  0  0  0  0
  6  9  1  0  0  0  0
  7  8  2  0  0  0  0
  9 10  2  0  0  0  0
  9 12  1  0  0  0  0
 10 11  1  0  0  0  0
 12 13  3  0  0  0  0
M  END
>  <CHROM.1>
35.71731347,33.25732233,25.09751329,0.47446812,0.61353849,2.44486291

>  <Name>
ligand

>  <RI>
0

>  <Rbt.Current_Directory>
/home/itssahil/PROJECTS/Mol_Feturizer/New_Systems/rnas/3GCA

>  <Rbt.Executable>
rbdock ($Id: //depot/dev/client3/rdock/2013.1/src/exe/rbdock.cxx#4 $)

>  <Rbt.Library>
libRbt.so (2013.1, Build901 2013/11/27)

>  <Rbt.Parameter_File>
/export/apps/rDock/src/rDock_2013.1_src/data/scripts/dock_solv.prm

>  <Rbt.Receptor>
prm/pocket_docking_4.prm

>  <SCORE>
-24.079

>  <SCORE.INTER>
-24.079

>  <SCORE.INTER.CONST>
1

>  <SCORE.INTER.POLAR>
0

>  <SCORE.INTER.ROT>
0

>  <SCORE.INTER.SOLV>
11.3947

>  <SCORE.INTER.VDW>
-23.4509

>  <SCORE.INTER.norm>
-1.85223

>  <SCORE.INTRA>
0

>  <SCORE.INTRA.DIHEDRAL>
0

>  <SCORE.INTRA.DIHEDRAL.0>
0

>  <SCORE.INTRA.POLAR>
0

>  <SCORE.INTRA.POLAR.0>
0

>  <SCORE.INTRA.REPUL>
0

>  <SCORE.INTRA.REPUL.0>
0

>  <SCORE.INTRA.SOLV>
0

>  <SCORE.INTRA.SOLV.lig_0>
-33.1994

>  <SCORE.INTRA.VDW>
0

>  <SCORE.INTRA.VDW.0>
0

>  <SCORE.INTRA.norm>
0

>  <SCORE.RESTR>
0

>  <SCORE.RESTR.CAVITY>
0

>  <SCORE.RESTR.norm>
0

>  <SCORE.SYSTEM>
0

>  <SCORE.SYSTEM.CONST>
0

>  <SCORE.SYSTEM.DIHEDRAL>
0

>  <SCORE.SYSTEM.SOLV>
0

>  <SCORE.SYSTEM.norm>
0

>  <SCORE.heavy>
13

>  <SCORE.norm>
-1.85223

>  <RMSD>
4.895

$$$$
ligand
 OpenBabel11021811473D
libRbt.so/2013.1/901 2013/11/27
 13 14  0  0  0  0  0  0  0  0999 V2000
   36.4415   32.0589   26.7524 N   0  0  0  0  0  0  0  0  0  0  0  0
   37.5812   33.1505   26.8935 C   0  0  0  0  0  0  0  0  0  0  0  0
   38.5296   33.0065   27.8872 N   0  0  0  0  0  0  0  0  0  0  0  0
   37.4565   34.0796   26.0421 N   0  0  0  0  0  0  0  0  0  0  0  0
   36.5621   34.2653   25.0522 C   0  0  0  0  0  0  0  0  0  0  0  0
   35.5655   33.3801   24.8554 C   0  0  0  0  0  0  0  0  0  0  0  0
   35.4924   32.1379   25.8284 C   0  0  0  0  0  0  0  0  0  0  0  0
   34.6102   31.3627   25.6426 O   0  0  0  0  0  0  0  0  0  0  0  0
   34.6367   33.7784   23.6934 C   0  0  0  0  0  0  0  0  0  0  0  0
   35.1436   34.9212   23.2173 C   0  0  0  0  0  0  0  0  0  0  0  0
   36.2543   35.3820   23.8715 N   0  0  0  0  0  0  0  0  0  0  0  0
   33.4608   33.0194   23.2111 C   0  0  0  0  0  0  0  0  0  0  0  0
   32.5384   32.3999   22.8913 N   0  0  0  0  0  0  0  0  0  0  0  0
  1  2  1  0  0  0  0
  1  7  1  0  0  0  0
  2  3  1  0  0  0  0
  2  4  2  0  0  0  0
  4  5  1  0  0  0  0
  5  6  2  0  0  0  0
  5 11  1  0  0  0  0
  6  7  1  0  0  0  0
  6  9  1  0  0  0  0
  7  8  2  0  0  0  0
  9 10  2  0  0  0  0
  9 12  1  0  0  0  0
 10 11  1  0  0  0  0
 12 13  3  0  0  0  0
M  END
>  <CHROM.1>
35.71855654,33.26258108,25.10294549,0.46743993,0.61800711,2.45634857

>  <Name>
ligand

>  <RI>
0

>  <Rbt.Current_Directory>
/home/itssahil/PROJECTS/Mol_Feturizer/New_Systems/rnas/3GCA

>  <Rbt.Executable>
rbdock ($Id: //depot/dev/client3/rdock/2013.1/src/exe/rbdock.cxx#4 $)

>  <Rbt.Library>
libRbt.so (2013.1, Build901 2013/11/27)

>  <Rbt.Parameter_File>
/export/apps/rDock/src/rDock_2013.1_src/data/scripts/dock_solv.prm

>  <Rbt.Receptor>
prm/pocket_docking_4.prm

>  <SCORE>
-24.0409

>  <SCORE.INTER>
-24.0409

>  <SCORE.INTER.CONST>
1

>  <SCORE.INTER.POLAR>
0

>  <SCORE.INTER.ROT>
0

>  <SCORE.INTER.SOLV>
11.3847

>  <SCORE.INTER.VDW>
-23.4221

>  <SCORE.INTER.norm>
-1.8493

>  <SCORE.INTRA>
0

>  <SCORE.INTRA.DIHEDRAL>
0

>  <SCORE.INTRA.DIHEDRAL.0>
0

>  <SCORE.INTRA.POLAR>
0

>  <SCORE.INTRA.POLAR.0>
0

>  <SCORE.INTRA.REPUL>
0

>  <SCORE.INTRA.REPUL.0>
0

>  <SCORE.INTRA.SOLV>
0

>  <SCORE.INTRA.SOLV.lig_0>
-33.1994

>  <SCORE.INTRA.VDW>
0

>  <SCORE.INTRA.VDW.0>
0

>  <SCORE.INTRA.norm>
0

>  <SCORE.RESTR>
0

>  <SCORE.RESTR.CAVITY>
0

>  <SCORE.RESTR.norm>
0

>  <SCORE.SYSTEM>
0

>  <SCORE.SYSTEM.CONST>
0

>  <SCORE.SYSTEM.DIHEDRAL>
0

>  <SCORE.SYSTEM.SOLV>
0

>  <SCORE.SYSTEM.norm>
0

>  <SCORE.heavy>
13

>  <SCORE.norm>
-1.8493

>  <RMSD>
4.895

$$$$
ligand
 OpenBabel11021811473D
libRbt.so/2013.1/901 2013/11/27
 13 14  0  0  0  0  0  0  0  0999 V2000
   36.4226   32.0539   26.7685 N   0  0  0  0  0  0  0  0  0  0  0  0
   37.5722   33.1359   26.9032 C   0  0  0  0  0  0  0  0  0  0  0  0
   38.5157   32.9925   27.9017 N   0  0  0  0  0  0  0  0  0  0  0  0
   37.4594   34.0578   26.0423 N   0  0  0  0  0  0  0  0  0  0  0  0
   36.5704   34.2424   25.0474 C   0  0  0  0  0  0  0  0  0  0  0  0
   35.5660   33.3648   24.8557 C   0  0  0  0  0  0  0  0  0  0  0  0
   35.4775   32.1330   25.8405 C   0  0  0  0  0  0  0  0  0  0  0  0
   34.5886   31.3645   25.6590 O   0  0  0  0  0  0  0  0  0  0  0  0
   34.6452   33.7607   23.6865 C   0  0  0  0  0  0  0  0  0  0  0  0
   35.1647   34.8939   23.2011 C   0  0  0  0  0  0  0  0  0  0  0  0
   36.2775   35.3504   23.8548 N   0  0  0  0  0  0  0  0  0  0  0  0
   33.4637   33.0083   23.2073 C   0  0  0  0  0  0  0  0  0  0  0  0
   32.5366   32.3945   22.8902 N   0  0  0  0  0  0  0  0  0  0  0  0
  1  2  1  0  0  0  0
  1  7  1  0  0  0  0
  2  3  1  0  0  0  0
  2  4  2  0  0  0  0
  4  5  1  0  0  0  0
  5  6  2  0  0  0  0
  5 11  1  0  0  0  0
  6  7  1  0  0  0  0
  6  9  1  0  0  0  0
  7  8  2  0  0  0  0
  9 10  2  0  0  0  0
  9 12  1  0  0  0  0
 10 11  1  0  0  0  0
 12 13  3  0  0  0  0
M  END
>  <CHROM.1>
35.71705998,33.24829781,25.10488444,0.47928038,0.61463404,2.43976191

>  <Name>
ligand

>  <RI>
0

>  <Rbt.Current_Directory>
/home/itssahil/PROJECTS/Mol_Feturizer/New_Systems/rnas/3GCA

>  <Rbt.Executable>
rbdock ($Id: //depot/dev/client3/rdock/2013.1/src/exe/rbdock.cxx#4 $)

>  <Rbt.Library>
libRbt.so (2013.1, Build901 2013/11/27)

>  <Rbt.Parameter_File>
/export/apps/rDock/src/rDock_2013.1_src/data/scripts/dock_solv.prm

>  <Rbt.Receptor>
prm/pocket_docking_4.prm

>  <SCORE>
-24.0426

>  <SCORE.INTER>
-24.0426

>  <SCORE.INTER.CONST>
1

>  <SCORE.INTER.POLAR>
0

>  <SCORE.INTER.ROT>
0

>  <SCORE.INTER.SOLV>
11.459

>  <SCORE.INTER.VDW>
-23.4481

>  <SCORE.INTER.norm>
-1.84943

>  <SCORE.INTRA>
0

>  <SCORE.INTRA.DIHEDRAL>
0

>  <SCORE.INTRA.DIHEDRAL.0>
0

>  <SCORE.INTRA.POLAR>
0

>  <SCORE.INTRA.POLAR.0>
0

>  <SCORE.INTRA.REPUL>
0

>  <SCORE.INTRA.REPUL.0>
0

>  <SCORE.INTRA.SOLV>
0

>  <SCORE.INTRA.SOLV.lig_0>
-33.1994

>  <SCORE.INTRA.VDW>
0

>  <SCORE.INTRA.VDW.0>
0

>  <SCORE.INTRA.norm>
0

>  <SCORE.RESTR>
0

>  <SCORE.RESTR.CAVITY>
0

>  <SCORE.RESTR.norm>
0

>  <SCORE.SYSTEM>
0

>  <SCORE.SYSTEM.CONST>
0

>  <SCORE.SYSTEM.DIHEDRAL>
0

>  <SCORE.SYSTEM.SOLV>
0

>  <SCORE.SYSTEM.norm>
0

>  <SCORE.heavy>
13

>  <SCORE.norm>
-1.84943

>  <RMSD>
4.895

$$$$
ligand
 OpenBabel11021811473D
libRbt.so/2013.1/901 2013/11/27
 13 14  0  0  0  0  0  0  0  0999 V2000
   36.4414   32.0553   26.7719 N   0  0  0  0  0  0  0  0  0  0  0  0
   37.5846   33.1429   26.9150 C   0  0  0  0  0  0  0  0  0  0  0  0
   38.5267   32.9993   27.9147 N   0  0  0  0  0  0  0  0  0  0  0  0
   37.4685   34.0690   26.0590 N   0  0  0  0  0  0  0  0  0  0  0  0
   36.5806   34.2541   25.0632 C   0  0  0  0  0  0  0  0  0  0  0  0
   35.5816   33.3720   24.8644 C   0  0  0  0  0  0  0  0  0  0  0  0
   35.4979   32.1342   25.8421 C   0  0  0  0  0  0  0  0  0  0  0  0
   34.6137   31.3618   25.6545 O   0  0  0  0  0  0  0  0  0  0  0  0
   34.6611   33.7691   23.6954 C   0  0  0  0  0  0  0  0  0  0  0  0
   35.1753   34.9078   23.2174 C   0  0  0  0  0  0  0  0  0  0  0  0
   36.2841   35.3670   23.8761 N   0  0  0  0  0  0  0  0  0  0  0  0
   33.4849   33.0128   23.2094 C   0  0  0  0  0  0  0  0  0  0  0  0
   32.5619   32.3956   22.8869 N   0  0  0  0  0  0  0  0  0  0  0  0
  1  2  1  0  0  0  0
  1  7  1  0  0  0  0
  2  3  1  0  0  0  0
  2  4  2  0  0  0  0
  4  5  1  0  0  0  0
  5  6  2  0  0  0  0
  5 11  1  0  0  0  0
  6  7  1  0  0  0  0
  6  9  1  0  0  0  0
  7  8  2  0  0  0  0
  9 10  2  0  0  0  0
  9 12  1  0  0  0  0
 10 11  1  0  0  0  0
 12 13  3  0  0  0  0
M  END
>  <CHROM.1>
35.73274761,33.25490288,25.11326485,0.47573612,0.61991091,2.44734142

>  <Name>
ligand

>  <RI>
0

>  <Rbt.Current_Directory>
/home/itssahil/PROJECTS/Mol_Feturizer/New_Systems/rnas/3GCA

>  <Rbt.Executable>
rbdock ($Id: //depot/dev/client3/rdock/2013.1/src/exe/rbdock.cxx#4 $)

>  <Rbt.Library>
libRbt.so (2013.1, Build901 2013/11/27)

>  <Rbt.Parameter_File>
/export/apps/rDock/src/rDock_2013.1_src/data/scripts/dock_solv.prm

>  <Rbt.Receptor>
prm/pocket_docking_4.prm

>  <SCORE>
-24.0166

>  <SCORE.INTER>
-24.0166

>  <SCORE.INTER.CONST>
1

>  <SCORE.INTER.POLAR>
0

>  <SCORE.INTER.ROT>
0

>  <SCORE.INTER.SOLV>
11.4183

>  <SCORE.INTER.VDW>
-23.4172

>  <SCORE.INTER.norm>
-1.84743

>  <SCORE.INTRA>
0

>  <SCORE.INTRA.DIHEDRAL>
0

>  <SCORE.INTRA.DIHEDRAL.0>
0

>  <SCORE.INTRA.POLAR>
0

>  <SCORE.INTRA.POLAR.0>
0

>  <SCORE.INTRA.REPUL>
0

>  <SCORE.INTRA.REPUL.0>
0

>  <SCORE.INTRA.SOLV>
0

>  <SCORE.INTRA.SOLV.lig_0>
-33.1994

>  <SCORE.INTRA.VDW>
0

>  <SCORE.INTRA.VDW.0>
0

>  <SCORE.INTRA.norm>
0

>  <SCORE.RESTR>
0

>  <SCORE.RESTR.CAVITY>
0

>  <SCORE.RESTR.norm>
0

>  <SCORE.SYSTEM>
0

>  <SCORE.SYSTEM.CONST>
0

>  <SCORE.SYSTEM.DIHEDRAL>
0

>  <SCORE.SYSTEM.SOLV>
0

>  <SCORE.SYSTEM.norm>
0

>  <SCORE.heavy>
13

>  <SCORE.norm>
-1.84743

>  <RMSD>
4.895

$$$$
ligand
 OpenBabel11021811473D
libRbt.so/2013.1/901 2013/11/27
 13 14  0  0  0  0  0  0  0  0999 V2000
   36.4567   32.0603   26.7457 N   0  0  0  0  0  0  0  0  0  0  0  0
   37.5936   33.1543   26.8902 C   0  0  0  0  0  0  0  0  0  0  0  0
   38.5388   33.0128   27.8873 N   0  0  0  0  0  0  0  0  0  0  0  0
   37.4700   34.0827   26.0378 N   0  0  0  0  0  0  0  0  0  0  0  0
   36.5787   34.2661   25.0447 C   0  0  0  0  0  0  0  0  0  0  0  0
   35.5846   33.3787   24.8450 C   0  0  0  0  0  0  0  0  0  0  0  0
   35.5106   32.1369   25.8184 C   0  0  0  0  0  0  0  0  0  0  0  0
   34.6307   31.3598   25.6299 O   0  0  0  0  0  0  0  0  0  0  0  0
   34.6590   33.7745   23.6795 C   0  0  0  0  0  0  0  0  0  0  0  0
   35.1653   34.9180   23.2045 C   0  0  0  0  0  0  0  0  0  0  0  0
   36.2728   35.3815   23.8623 N   0  0  0  0  0  0  0  0  0  0  0  0
   33.4864   33.0128   23.1934 C   0  0  0  0  0  0  0  0  0  0  0  0
   32.5664   32.3912   22.8708 N   0  0  0  0  0  0  0  0  0  0  0  0
  1  2  1  0  0  0  0
  1  7  1  0  0  0  0
  2  3  1  0  0  0  0
  2  4  2  0  0  0  0
  4  5  1  0  0  0  0
  5  6  2  0  0  0  0
  5 11  1  0  0  0  0
  6  7  1  0  0  0  0
  6  9  1  0  0  0  0
  7  8  2  0  0  0  0
  9 10  2  0  0  0  0
  9 12  1  0  0  0  0
 10 11  1  0  0  0  0
 12 13  3  0  0  0  0
M  END
>  <CHROM.1>
35.73703399,33.26162458,25.09307231,0.46822497,0.62200516,2.45533542

>  <Name>
ligand

>  <RI>
0

>  <Rbt.Current_Directory>
/home/itssahil/PROJECTS/Mol_Feturizer/New_Systems/rnas/3GCA

>  <Rbt.Executable>
rbdock ($Id: //depot/dev/client3/rdock/2013.1/src/exe/rbdock.cxx#4 $)

>  <Rbt.Library>
libRbt.so (2013.1, Build901 2013/11/27)

>  <Rbt.Parameter_File>
/export/apps/rDock/src/rDock_2013.1_src/data/scripts/dock_solv.prm

>  <Rbt.Receptor>
prm/pocket_docking_5.prm

>  <SCORE>
-24.0678

>  <SCORE.INTER>
-24.0678

>  <SCORE.INTER.CONST>
1

>  <SCORE.INTER.POLAR>
0

>  <SCORE.INTER.ROT>
0

>  <SCORE.INTER.SOLV>
11.3376

>  <SCORE.INTER.VDW>
-23.4244

>  <SCORE.INTER.norm>
-1.85137

>  <SCORE.INTRA>
0

>  <SCORE.INTRA.DIHEDRAL>
0

>  <SCORE.INTRA.DIHEDRAL.0>
0

>  <SCORE.INTRA.POLAR>
0

>  <SCORE.INTRA.POLAR.0>
0

>  <SCORE.INTRA.REPUL>
0

>  <SCORE.INTRA.REPUL.0>
0

>  <SCORE.INTRA.SOLV>
0

>  <SCORE.INTRA.SOLV.lig_0>
-33.1994

>  <SCORE.INTRA.VDW>
0

>  <SCORE.INTRA.VDW.0>
0

>  <SCORE.INTRA.norm>
0

>  <SCORE.RESTR>
0

>  <SCORE.RESTR.CAVITY>
0

>  <SCORE.RESTR.norm>
0

>  <SCORE.SYSTEM>
0

>  <SCORE.SYSTEM.CONST>
0

>  <SCORE.SYSTEM.DIHEDRAL>
0

>  <SCORE.SYSTEM.SOLV>
0

>  <SCORE.SYSTEM.norm>
0

>  <SCORE.heavy>
13

>  <SCORE.norm>
-1.85137

>  <RMSD>
4.895

$$$$
ligand
 OpenBabel11021811473D
libRbt.so/2013.1/901 2013/11/27
 13 14  0  0  0  0  0  0  0  0999 V2000
   36.5307   32.0739   26.7336 N   0  0  0  0  0  0  0  0  0  0  0  0
   37.6530   33.1803   26.8967 C   0  0  0  0  0  0  0  0  0  0  0  0
   38.6097   33.0265   27.8809 N   0  0  0  0  0  0  0  0  0  0  0  0
   37.5077   34.1290   26.0705 N   0  0  0  0  0  0  0  0  0  0  0  0
   36.6044   34.3254   25.0908 C   0  0  0  0  0  0  0  0  0  0  0  0
   35.6214   33.4290   24.8767 C   0  0  0  0  0  0  0  0  0  0  0  0
   35.5748   32.1609   25.8175 C   0  0  0  0  0  0  0  0  0  0  0  0
   34.7045   31.3762   25.6165 O   0  0  0  0  0  0  0  0  0  0  0  0
   34.6790   33.8418   23.7307 C   0  0  0  0  0  0  0  0  0  0  0  0
   35.1640   35.0048   23.2817 C   0  0  0  0  0  0  0  0  0  0  0  0
   36.2710   35.4670   23.9414 N   0  0  0  0  0  0  0  0  0  0  0  0
   33.5130   33.0760   23.2355 C   0  0  0  0  0  0  0  0  0  0  0  0
   32.5990   32.4496   22.9049 N   0  0  0  0  0  0  0  0  0  0  0  0
  1  2  1  0  0  0  0
  1  7  1  0  0  0  0
  2  3  1  0  0  0  0
  2  4  2  0  0  0  0
  4  5  1  0  0  0  0
  5  6  2  0  0  0  0
  5 11  1  0  0  0  0
  6  7  1  0  0  0  0
  6  9  1  0  0  0  0
  7  8  2  0  0  0  0
  9 10  2  0  0  0  0
  9 12  1  0  0  0  0
 10 11  1  0  0  0  0
 12 13  3  0  0  0  0
M  END
>  <CHROM.1>
35.77787964,33.30769395,25.12022869,0.44689673,0.62367527,2.49428937

>  <Name>
ligand

>  <RI>
0

>  <Rbt.Current_Directory>
/home/itssahil/PROJECTS/Mol_Feturizer/New_Systems/rnas/3GCA

>  <Rbt.Executable>
rbdock ($Id: //depot/dev/client3/rdock/2013.1/src/exe/rbdock.cxx#4 $)

>  <Rbt.Library>
libRbt.so (2013.1, Build901 2013/11/27)

>  <Rbt.Parameter_File>
/export/apps/rDock/src/rDock_2013.1_src/data/scripts/dock_solv.prm

>  <Rbt.Receptor>
prm/pocket_docking_5.prm

>  <SCORE>
-23.9678

>  <SCORE.INTER>
-23.9678

>  <SCORE.INTER.CONST>
1

>  <SCORE.INTER.POLAR>
0

>  <SCORE.INTER.ROT>
0

>  <SCORE.INTER.SOLV>
11.0128

>  <SCORE.INTER.VDW>
-23.2495

>  <SCORE.INTER.norm>
-1.84368

>  <SCORE.INTRA>
0

>  <SCORE.INTRA.DIHEDRAL>
0

>  <SCORE.INTRA.DIHEDRAL.0>
0

>  <SCORE.INTRA.POLAR>
0

>  <SCORE.INTRA.POLAR.0>
0

>  <SCORE.INTRA.REPUL>
0

>  <SCORE.INTRA.REPUL.0>
0

>  <SCORE.INTRA.SOLV>
0

>  <SCORE.INTRA.SOLV.lig_0>
-33.1994

>  <SCORE.INTRA.VDW>
0

>  <SCORE.INTRA.VDW.0>
0

>  <SCORE.INTRA.norm>
0

>  <SCORE.RESTR>
0

>  <SCORE.RESTR.CAVITY>
0

>  <SCORE.RESTR.norm>
0

>  <SCORE.SYSTEM>
0

>  <SCORE.SYSTEM.CONST>
0

>  <SCORE.SYSTEM.DIHEDRAL>
0

>  <SCORE.SYSTEM.SOLV>
0

>  <SCORE.SYSTEM.norm>
0

>  <SCORE.heavy>
13

>  <SCORE.norm>
-1.84368

>  <RMSD>
4.895

$$$$
ligand
 OpenBabel11021811473D
libRbt.so/2013.1/901 2013/11/27
 13 14  0  0  0  0  0  0  0  0999 V2000
   36.4532   32.0623   26.7473 N   0  0  0  0  0  0  0  0  0  0  0  0
   37.5923   33.1542   26.8907 C   0  0  0  0  0  0  0  0  0  0  0  0
   38.5377   33.0114   27.8874 N   0  0  0  0  0  0  0  0  0  0  0  0
   37.4701   34.0823   26.0378 N   0  0  0  0  0  0  0  0  0  0  0  0
   36.5787   34.2668   25.0450 C   0  0  0  0  0  0  0  0  0  0  0  0
   35.5827   33.3812   24.8462 C   0  0  0  0  0  0  0  0  0  0  0  0
   35.5068   32.1401   25.8204 C   0  0  0  0  0  0  0  0  0  0  0  0
   34.6253   31.3647   25.6328 O   0  0  0  0  0  0  0  0  0  0  0  0
   34.6575   33.7781   23.6809 C   0  0  0  0  0  0  0  0  0  0  0  0
   35.1657   34.9204   23.2051 C   0  0  0  0  0  0  0  0  0  0  0  0
   36.2744   35.3821   23.8621 N   0  0  0  0  0  0  0  0  0  0  0  0
   33.4831   33.0185   23.1959 C   0  0  0  0  0  0  0  0  0  0  0  0
   32.5617   32.3984   22.8740 N   0  0  0  0  0  0  0  0  0  0  0  0
  1  2  1  0  0  0  0
  1  7  1  0  0  0  0
  2  3  1  0  0  0  0
  2  4  2  0  0  0  0
  4  5  1  0  0  0  0
  5  6  2  0  0  0  0
  5 11  1  0  0  0  0
  6  7  1  0  0  0  0
  6  9  1  0  0  0  0
  7  8  2  0  0  0  0
  9 10  2  0  0  0  0
  9 12  1  0  0  0  0
 10 11  1  0  0  0  0
 12 13  3  0  0  0  0
M  END
>  <CHROM.1>
35.73510042,33.26401860,25.09432751,0.46970690,0.62042235,2.45388464

>  <Name>
ligand

>  <RI>
0

>  <Rbt.Current_Directory>
/home/itssahil/PROJECTS/Mol_Feturizer/New_Systems/rnas/3GCA

>  <Rbt.Executable>
rbdock ($Id: //depot/dev/client3/rdock/2013.1/src/exe/rbdock.cxx#4 $)

>  <Rbt.Library>
libRbt.so (2013.1, Build901 2013/11/27)

>  <Rbt.Parameter_File>
/export/apps/rDock/src/rDock_2013.1_src/data/scripts/dock_solv.prm

>  <Rbt.Receptor>
prm/pocket_docking_5.prm

>  <SCORE>
-24.0687

>  <SCORE.INTER>
-24.0687

>  <SCORE.INTER.CONST>
1

>  <SCORE.INTER.POLAR>
0

>  <SCORE.INTER.ROT>
0

>  <SCORE.INTER.SOLV>
11.34

>  <SCORE.INTER.VDW>
-23.4258

>  <SCORE.INTER.norm>
-1.85144

>  <SCORE.INTRA>
0

>  <SCORE.INTRA.DIHEDRAL>
0

>  <SCORE.INTRA.DIHEDRAL.0>
0

>  <SCORE.INTRA.POLAR>
0

>  <SCORE.INTRA.POLAR.0>
0

>  <SCORE.INTRA.REPUL>
0

>  <SCORE.INTRA.REPUL.0>
0

>  <SCORE.INTRA.SOLV>
0

>  <SCORE.INTRA.SOLV.lig_0>
-33.1994

>  <SCORE.INTRA.VDW>
0

>  <SCORE.INTRA.VDW.0>
0

>  <SCORE.INTRA.norm>
0

>  <SCORE.RESTR>
0

>  <SCORE.RESTR.CAVITY>
0

>  <SCORE.RESTR.norm>
0

>  <SCORE.SYSTEM>
0

>  <SCORE.SYSTEM.CONST>
0

>  <SCORE.SYSTEM.DIHEDRAL>
0

>  <SCORE.SYSTEM.SOLV>
0

>  <SCORE.SYSTEM.norm>
0

>  <SCORE.heavy>
13

>  <SCORE.norm>
-1.85144

>  <RMSD>
4.895

$$$$
ligand
 OpenBabel11021811473D
libRbt.so/2013.1/901 2013/11/27
 13 14  0  0  0  0  0  0  0  0999 V2000
   36.4009   32.0774   26.7811 N   0  0  0  0  0  0  0  0  0  0  0  0
   37.5674   33.1435   26.8961 C   0  0  0  0  0  0  0  0  0  0  0  0
   38.5096   33.0027   27.8961 N   0  0  0  0  0  0  0  0  0  0  0  0
   37.4680   34.0521   26.0195 N   0  0  0  0  0  0  0  0  0  0  0  0
   36.5808   34.2334   25.0224 C   0  0  0  0  0  0  0  0  0  0  0  0
   35.5627   33.3684   24.8467 C   0  0  0  0  0  0  0  0  0  0  0  0
   35.4561   32.1552   25.8526 C   0  0  0  0  0  0  0  0  0  0  0  0
   34.5552   31.3977   25.6851 O   0  0  0  0  0  0  0  0  0  0  0  0
   34.6468   33.7584   23.6716 C   0  0  0  0  0  0  0  0  0  0  0  0
   35.1834   34.8748   23.1663 C   0  0  0  0  0  0  0  0  0  0  0  0
   36.3039   35.3251   23.8111 N   0  0  0  0  0  0  0  0  0  0  0  0
   33.4533   33.0163   23.2064 C   0  0  0  0  0  0  0  0  0  0  0  0
   32.5164   32.4117   22.9007 N   0  0  0  0  0  0  0  0  0  0  0  0
  1  2  1  0  0  0  0
  1  7  1  0  0  0  0
  2  3  1  0  0  0  0
  2  4  2  0  0  0  0
  4  5  1  0  0  0  0
  5  6  2  0  0  0  0
  5 11  1  0  0  0  0
  6  7  1  0  0  0  0
  6  9  1  0  0  0  0
  7  8  2  0  0  0  0
  9 10  2  0  0  0  0
  9 12  1  0  0  0  0
 10 11  1  0  0  0  0
 12 13  3  0  0  0  0
M  END
>  <CHROM.1>
35.71221368,33.25384191,25.09768547,0.49284426,0.60368461,2.41476435

>  <Name>
ligand

>  <RI>
0

>  <Rbt.Current_Directory>
/home/itssahil/PROJECTS/Mol_Feturizer/New_Systems/rnas/3GCA

>  <Rbt.Executable>
rbdock ($Id: //depot/dev/client3/rdock/2013.1/src/exe/rbdock.cxx#4 $)

>  <Rbt.Library>
libRbt.so (2013.1, Build901 2013/11/27)

>  <Rbt.Parameter_File>
/export/apps/rDock/src/rDock_2013.1_src/data/scripts/dock_solv.prm

>  <Rbt.Receptor>
prm/pocket_docking_5.prm

>  <SCORE>
-24.0629

>  <SCORE.INTER>
-24.0629

>  <SCORE.INTER.CONST>
1

>  <SCORE.INTER.POLAR>
0

>  <SCORE.INTER.ROT>
0

>  <SCORE.INTER.SOLV>
11.4594

>  <SCORE.INTER.VDW>
-23.4617

>  <SCORE.INTER.norm>
-1.85099

>  <SCORE.INTRA>
0

>  <SCORE.INTRA.DIHEDRAL>
0

>  <SCORE.INTRA.DIHEDRAL.0>
0

>  <SCORE.INTRA.POLAR>
0

>  <SCORE.INTRA.POLAR.0>
0

>  <SCORE.INTRA.REPUL>
0

>  <SCORE.INTRA.REPUL.0>
0

>  <SCORE.INTRA.SOLV>
0

>  <SCORE.INTRA.SOLV.lig_0>
-33.1994

>  <SCORE.INTRA.VDW>
0

>  <SCORE.INTRA.VDW.0>
0

>  <SCORE.INTRA.norm>
0

>  <SCORE.RESTR>
0

>  <SCORE.RESTR.CAVITY>
0

>  <SCORE.RESTR.norm>
0

>  <SCORE.SYSTEM>
0

>  <SCORE.SYSTEM.CONST>
0

>  <SCORE.SYSTEM.DIHEDRAL>
0

>  <SCORE.SYSTEM.SOLV>
0

>  <SCORE.SYSTEM.norm>
0

>  <SCORE.heavy>
13

>  <SCORE.norm>
-1.85099

>  <RMSD>
4.895

$$$$
ligand
 OpenBabel11021811473D
libRbt.so/2013.1/901 2013/11/27
 13 14  0  0  0  0  0  0  0  0999 V2000
   36.4084   32.0867   26.7883 N   0  0  0  0  0  0  0  0  0  0  0  0
   37.5712   33.1561   26.9091 C   0  0  0  0  0  0  0  0  0  0  0  0
   38.5091   33.0177   27.9135 N   0  0  0  0  0  0  0  0  0  0  0  0
   37.4734   34.0646   26.0324 N   0  0  0  0  0  0  0  0  0  0  0  0
   36.5905   34.2436   25.0311 C   0  0  0  0  0  0  0  0  0  0  0  0
   35.5756   33.3758   24.8503 C   0  0  0  0  0  0  0  0  0  0  0  0
   35.4678   32.1620   25.8554 C   0  0  0  0  0  0  0  0  0  0  0  0
   34.5699   31.4020   25.6835 O   0  0  0  0  0  0  0  0  0  0  0  0
   34.6643   33.7634   23.6710 C   0  0  0  0  0  0  0  0  0  0  0  0
   35.2000   34.8815   23.1686 C   0  0  0  0  0  0  0  0  0  0  0  0
   36.3162   35.3349   23.8187 N   0  0  0  0  0  0  0  0  0  0  0  0
   33.4751   33.0182   23.2000 C   0  0  0  0  0  0  0  0  0  0  0  0
   32.5413   32.4109   22.8897 N   0  0  0  0  0  0  0  0  0  0  0  0
  1  2  1  0  0  0  0
  1  7  1  0  0  0  0
  2  3  1  0  0  0  0
  2  4  2  0  0  0  0
  4  5  1  0  0  0  0
  5  6  2  0  0  0  0
  5 11  1  0  0  0  0
  6  7  1  0  0  0  0
  6  9  1  0  0  0  0
  7  8  2  0  0  0  0
  9 10  2  0  0  0  0
  9 12  1  0  0  0  0
 10 11  1  0  0  0  0
 12 13  3  0  0  0  0
M  END
>  <CHROM.1>
35.72431435,33.26159641,25.10198357,0.49407820,0.60912690,2.41432687

>  <Name>
ligand

>  <RI>
0

>  <Rbt.Current_Directory>
/home/itssahil/PROJECTS/Mol_Feturizer/New_Systems/rnas/3GCA

>  <Rbt.Executable>
rbdock ($Id: //depot/dev/client3/rdock/2013.1/src/exe/rbdock.cxx#4 $)

>  <Rbt.Library>
libRbt.so (2013.1, Build901 2013/11/27)

>  <Rbt.Parameter_File>
/export/apps/rDock/src/rDock_2013.1_src/data/scripts/dock_solv.prm

>  <Rbt.Receptor>
prm/pocket_docking_5.prm

>  <SCORE>
-24.0617

>  <SCORE.INTER>
-24.0617

>  <SCORE.INTER.CONST>
1

>  <SCORE.INTER.POLAR>
0

>  <SCORE.INTER.ROT>
0

>  <SCORE.INTER.SOLV>
11.4639

>  <SCORE.INTER.VDW>
-23.4624

>  <SCORE.INTER.norm>
-1.8509

>  <SCORE.INTRA>
0

>  <SCORE.INTRA.DIHEDRAL>
0

>  <SCORE.INTRA.DIHEDRAL.0>
0

>  <SCORE.INTRA.POLAR>
0

>  <SCORE.INTRA.POLAR.0>
0

>  <SCORE.INTRA.REPUL>
0

>  <SCORE.INTRA.REPUL.0>
0

>  <SCORE.INTRA.SOLV>
0

>  <SCORE.INTRA.SOLV.lig_0>
-33.1994

>  <SCORE.INTRA.VDW>
0

>  <SCORE.INTRA.VDW.0>
0

>  <SCORE.INTRA.norm>
0

>  <SCORE.RESTR>
0

>  <SCORE.RESTR.CAVITY>
0

>  <SCORE.RESTR.norm>
0

>  <SCORE.SYSTEM>
0

>  <SCORE.SYSTEM.CONST>
0

>  <SCORE.SYSTEM.DIHEDRAL>
0

>  <SCORE.SYSTEM.SOLV>
0

>  <SCORE.SYSTEM.norm>
0

>  <SCORE.heavy>
13

>  <SCORE.norm>
-1.8509

>  <RMSD>
4.895

$$$$
ligand
 OpenBabel11021811473D
libRbt.so/2013.1/901 2013/11/27
 13 14  0  0  0  0  0  0  0  0999 V2000
   36.3961   32.0838   26.7846 N   0  0  0  0  0  0  0  0  0  0  0  0
   37.5624   33.1502   26.8988 C   0  0  0  0  0  0  0  0  0  0  0  0
   38.5032   33.0118   27.9005 N   0  0  0  0  0  0  0  0  0  0  0  0
   37.4643   34.0567   26.0200 N   0  0  0  0  0  0  0  0  0  0  0  0
   36.5786   34.2355   25.0211 C   0  0  0  0  0  0  0  0  0  0  0  0
   35.5607   33.3701   24.8459 C   0  0  0  0  0  0  0  0  0  0  0  0
   35.4527   32.1594   25.8546 C   0  0  0  0  0  0  0  0  0  0  0  0
   34.5521   31.4014   25.6876 O   0  0  0  0  0  0  0  0  0  0  0  0
   34.6466   33.7573   23.6686 C   0  0  0  0  0  0  0  0  0  0  0  0
   35.1838   34.8725   23.1615 C   0  0  0  0  0  0  0  0  0  0  0  0
   36.3034   35.3244   23.8068 N   0  0  0  0  0  0  0  0  0  0  0  0
   33.4537   33.0141   23.2035 C   0  0  0  0  0  0  0  0  0  0  0  0
   32.5172   32.4088   22.8979 N   0  0  0  0  0  0  0  0  0  0  0  0
  1  2  1  0  0  0  0
  1  7  1  0  0  0  0
  2  3  1  0  0  0  0
  2  4  2  0  0  0  0
  4  5  1  0  0  0  0
  5  6  2  0  0  0  0
  5 11  1  0  0  0  0
  6  7  1  0  0  0  0
  6  9  1  0  0  0  0
  7  8  2  0  0  0  0
  9 10  2  0  0  0  0
  9 12  1  0  0  0  0
 10 11  1  0  0  0  0
 12 13  3  0  0  0  0
M  END
>  <CHROM.1>
35.70986788,33.25618663,25.09744421,0.49400727,0.60478346,2.41172506

>  <Name>
ligand

>  <RI>
0

>  <Rbt.Current_Directory>
/home/itssahil/PROJECTS/Mol_Feturizer/New_Systems/rnas/3GCA

>  <Rbt.Executable>
rbdock ($Id: //depot/dev/client3/rdock/2013.1/src/exe/rbdock.cxx#4 $)

>  <Rbt.Library>
libRbt.so (2013.1, Build901 2013/11/27)

>  <Rbt.Parameter_File>
/export/apps/rDock/src/rDock_2013.1_src/data/scripts/dock_solv.prm

>  <Rbt.Receptor>
prm/pocket_docking_5.prm

>  <SCORE>
-24.0607

>  <SCORE.INTER>
-24.0607

>  <SCORE.INTER.CONST>
1

>  <SCORE.INTER.POLAR>
0

>  <SCORE.INTER.ROT>
0

>  <SCORE.INTER.SOLV>
11.4864

>  <SCORE.INTER.VDW>
-23.4693

>  <SCORE.INTER.norm>
-1.85082

>  <SCORE.INTRA>
0

>  <SCORE.INTRA.DIHEDRAL>
0

>  <SCORE.INTRA.DIHEDRAL.0>
0

>  <SCORE.INTRA.POLAR>
0

>  <SCORE.INTRA.POLAR.0>
0

>  <SCORE.INTRA.REPUL>
0

>  <SCORE.INTRA.REPUL.0>
0

>  <SCORE.INTRA.SOLV>
0

>  <SCORE.INTRA.SOLV.lig_0>
-33.1994

>  <SCORE.INTRA.VDW>
0

>  <SCORE.INTRA.VDW.0>
0

>  <SCORE.INTRA.norm>
0

>  <SCORE.RESTR>
0

>  <SCORE.RESTR.CAVITY>
0

>  <SCORE.RESTR.norm>
0

>  <SCORE.SYSTEM>
0

>  <SCORE.SYSTEM.CONST>
0

>  <SCORE.SYSTEM.DIHEDRAL>
0

>  <SCORE.SYSTEM.SOLV>
0

>  <SCORE.SYSTEM.norm>
0

>  <SCORE.heavy>
13

>  <SCORE.norm>
-1.85082

>  <RMSD>
4.895

$$$$
ligand
 OpenBabel11021811473D
libRbt.so/2013.1/901 2013/11/27
 13 14  0  0  0  0  0  0  0  0999 V2000
   36.4490   32.0639   26.7509 N   0  0  0  0  0  0  0  0  0  0  0  0
   37.5906   33.1536   26.8905 C   0  0  0  0  0  0  0  0  0  0  0  0
   38.5365   33.0115   27.8868 N   0  0  0  0  0  0  0  0  0  0  0  0
   37.4698   34.0798   26.0352 N   0  0  0  0  0  0  0  0  0  0  0  0
   36.5780   34.2636   25.0426 C   0  0  0  0  0  0  0  0  0  0  0  0
   35.5800   33.3796   24.8470 C   0  0  0  0  0  0  0  0  0  0  0  0
   35.5021   32.1413   25.8246 C   0  0  0  0  0  0  0  0  0  0  0  0
   34.6187   31.3673   25.6397 O   0  0  0  0  0  0  0  0  0  0  0  0
   34.6546   33.7755   23.6814 C   0  0  0  0  0  0  0  0  0  0  0  0
   35.1650   34.9154   23.2021 C   0  0  0  0  0  0  0  0  0  0  0  0
   36.2752   35.3764   23.8570 N   0  0  0  0  0  0  0  0  0  0  0  0
   33.4782   33.0171   23.1993 C   0  0  0  0  0  0  0  0  0  0  0  0
   32.5552   32.3983   22.8798 N   0  0  0  0  0  0  0  0  0  0  0  0
  1  2  1  0  0  0  0
  1  7  1  0  0  0  0
  2  3  1  0  0  0  0
  2  4  2  0  0  0  0
  4  5  1  0  0  0  0
  5  6  2  0  0  0  0
  5 11  1  0  0  0  0
  6  7  1  0  0  0  0
  6  9  1  0  0  0  0
  7  8  2  0  0  0  0
  9 10  2  0  0  0  0
  9 12  1  0  0  0  0
 10 11  1  0  0  0  0
 12 13  3  0  0  0  0
M  END
>  <CHROM.1>
35.73224651,33.26277926,25.09530466,0.47117469,0.61842061,2.45037437

>  <Name>
ligand

>  <RI>
0

>  <Rbt.Current_Directory>
/home/itssahil/PROJECTS/Mol_Feturizer/New_Systems/rnas/3GCA

>  <Rbt.Executable>
rbdock ($Id: //depot/dev/client3/rdock/2013.1/src/exe/rbdock.cxx#4 $)

>  <Rbt.Library>
libRbt.so (2013.1, Build901 2013/11/27)

>  <Rbt.Parameter_File>
/export/apps/rDock/src/rDock_2013.1_src/data/scripts/dock_solv.prm

>  <Rbt.Receptor>
prm/pocket_docking_6.prm

>  <SCORE>
-24.0694

>  <SCORE.INTER>
-24.0694

>  <SCORE.INTER.CONST>
1

>  <SCORE.INTER.POLAR>
0

>  <SCORE.INTER.ROT>
0

>  <SCORE.INTER.SOLV>
11.3438

>  <SCORE.INTER.VDW>
-23.4275

>  <SCORE.INTER.norm>
-1.85149

>  <SCORE.INTRA>
0

>  <SCORE.INTRA.DIHEDRAL>
0

>  <SCORE.INTRA.DIHEDRAL.0>
0

>  <SCORE.INTRA.POLAR>
0

>  <SCORE.INTRA.POLAR.0>
0

>  <SCORE.INTRA.REPUL>
0

>  <SCORE.INTRA.REPUL.0>
0

>  <SCORE.INTRA.SOLV>
0

>  <SCORE.INTRA.SOLV.lig_0>
-33.1994

>  <SCORE.INTRA.VDW>
0

>  <SCORE.INTRA.VDW.0>
0

>  <SCORE.INTRA.norm>
0

>  <SCORE.RESTR>
0

>  <SCORE.RESTR.CAVITY>
0

>  <SCORE.RESTR.norm>
0

>  <SCORE.SYSTEM>
0

>  <SCORE.SYSTEM.CONST>
0

>  <SCORE.SYSTEM.DIHEDRAL>
0

>  <SCORE.SYSTEM.SOLV>
0

>  <SCORE.SYSTEM.norm>
0

>  <SCORE.heavy>
13

>  <SCORE.norm>
-1.85149

>  <RMSD>
4.895

$$$$
ligand
 OpenBabel11021811473D
libRbt.so/2013.1/901 2013/11/27
 13 14  0  0  0  0  0  0  0  0999 V2000
   36.4419   32.0912   26.7652 N   0  0  0  0  0  0  0  0  0  0  0  0
   37.5987   33.1664   26.8920 C   0  0  0  0  0  0  0  0  0  0  0  0
   38.5396   33.0257   27.8933 N   0  0  0  0  0  0  0  0  0  0  0  0
   37.4937   34.0812   26.0225 N   0  0  0  0  0  0  0  0  0  0  0  0
   36.6076   34.2628   25.0245 C   0  0  0  0  0  0  0  0  0  0  0  0
   35.5974   33.3904   24.8391 C   0  0  0  0  0  0  0  0  0  0  0  0
   35.4989   32.1682   25.8349 C   0  0  0  0  0  0  0  0  0  0  0  0
   34.6051   31.4043   25.6590 O   0  0  0  0  0  0  0  0  0  0  0  0
   34.6813   33.7819   23.6648 C   0  0  0  0  0  0  0  0  0  0  0  0
   35.2093   34.9070   23.1700 C   0  0  0  0  0  0  0  0  0  0  0  0
   36.3242   35.3619   23.8214 N   0  0  0  0  0  0  0  0  0  0  0  0
   33.4954   33.0334   23.1905 C   0  0  0  0  0  0  0  0  0  0  0  0
   32.5646   32.4231   22.8775 N   0  0  0  0  0  0  0  0  0  0  0  0
  1  2  1  0  0  0  0
  1  7  1  0  0  0  0
  2  3  1  0  0  0  0
  2  4  2  0  0  0  0
  4  5  1  0  0  0  0
  5  6  2  0  0  0  0
  5 11  1  0  0  0  0
  6  7  1  0  0  0  0
  6  9  1  0  0  0  0
  7  8  2  0  0  0  0
  9 10  2  0  0  0  0
  9 12  1  0  0  0  0
 10 11  1  0  0  0  0
 12 13  3  0  0  0  0
M  END
>  <CHROM.1>
35.74731707,33.27515543,25.08960675,0.48696848,0.61139708,2.42622648

>  <Name>
ligand

>  <RI>
0

>  <Rbt.Current_Directory>
/home/itssahil/PROJECTS/Mol_Feturizer/New_Systems/rnas/3GCA

>  <Rbt.Executable>
rbdock ($Id: //depot/dev/client3/rdock/2013.1/src/exe/rbdock.cxx#4 $)

>  <Rbt.Library>
libRbt.so (2013.1, Build901 2013/11/27)

>  <Rbt.Parameter_File>
/export/apps/rDock/src/rDock_2013.1_src/data/scripts/dock_solv.prm

>  <Rbt.Receptor>
prm/pocket_docking_6.prm

>  <SCORE>
-24.0045

>  <SCORE.INTER>
-24.0045

>  <SCORE.INTER.CONST>
1

>  <SCORE.INTER.POLAR>
0

>  <SCORE.INTER.ROT>
0

>  <SCORE.INTER.SOLV>
11.3052

>  <SCORE.INTER.VDW>
-23.3714

>  <SCORE.INTER.norm>
-1.8465

>  <SCORE.INTRA>
0

>  <SCORE.INTRA.DIHEDRAL>
0

>  <SCORE.INTRA.DIHEDRAL.0>
0

>  <SCORE.INTRA.POLAR>
0

>  <SCORE.INTRA.POLAR.0>
0

>  <SCORE.INTRA.REPUL>
0

>  <SCORE.INTRA.REPUL.0>
0

>  <SCORE.INTRA.SOLV>
0

>  <SCORE.INTRA.SOLV.lig_0>
-33.1994

>  <SCORE.INTRA.VDW>
0

>  <SCORE.INTRA.VDW.0>
0

>  <SCORE.INTRA.norm>
0

>  <SCORE.RESTR>
0

>  <SCORE.RESTR.CAVITY>
0

>  <SCORE.RESTR.norm>
0

>  <SCORE.SYSTEM>
0

>  <SCORE.SYSTEM.CONST>
0

>  <SCORE.SYSTEM.DIHEDRAL>
0

>  <SCORE.SYSTEM.SOLV>
0

>  <SCORE.SYSTEM.norm>
0

>  <SCORE.heavy>
13

>  <SCORE.norm>
-1.8465

>  <RMSD>
4.895

$$$$
ligand
 OpenBabel11021811473D
libRbt.so/2013.1/901 2013/11/27
 13 14  0  0  0  0  0  0  0  0999 V2000
   36.4231   32.0699   26.7788 N   0  0  0  0  0  0  0  0  0  0  0  0
   37.5692   33.1553   26.9157 C   0  0  0  0  0  0  0  0  0  0  0  0
   38.5103   33.0155   27.9170 N   0  0  0  0  0  0  0  0  0  0  0  0
   37.4562   34.0762   26.0538 N   0  0  0  0  0  0  0  0  0  0  0  0
   36.5694   34.2574   25.0563 C   0  0  0  0  0  0  0  0  0  0  0  0
   35.5681   33.3767   24.8624 C   0  0  0  0  0  0  0  0  0  0  0  0
   35.4804   32.1454   25.8480 C   0  0  0  0  0  0  0  0  0  0  0  0
   34.5943   31.3742   25.6646 O   0  0  0  0  0  0  0  0  0  0  0  0
   34.6494   33.7689   23.6903 C   0  0  0  0  0  0  0  0  0  0  0  0
   35.1670   34.9032   23.2055 C   0  0  0  0  0  0  0  0  0  0  0  0
   36.2766   35.3635   23.8619 N   0  0  0  0  0  0  0  0  0  0  0  0
   33.4716   33.0127   23.2084 C   0  0  0  0  0  0  0  0  0  0  0  0
   32.5471   32.3960   22.8892 N   0  0  0  0  0  0  0  0  0  0  0  0
  1  2  1  0  0  0  0
  1  7  1  0  0  0  0
  2  3  1  0  0  0  0
  2  4  2  0  0  0  0
  4  5  1  0  0  0  0
  5  6  2  0  0  0  0
  5 11  1  0  0  0  0
  6  7  1  0  0  0  0
  6  9  1  0  0  0  0
  7  8  2  0  0  0  0
  9 10  2  0  0  0  0
  9 12  1  0  0  0  0
 10 11  1  0  0  0  0
 12 13  3  0  0  0  0
M  END
>  <CHROM.1>
35.71881428,33.26085024,25.11212606,0.47877672,0.61866334,2.43922618

>  <Name>
ligand

>  <RI>
0

>  <Rbt.Current_Directory>
/home/itssahil/PROJECTS/Mol_Feturizer/New_Systems/rnas/3GCA

>  <Rbt.Executable>
rbdock ($Id: //depot/dev/client3/rdock/2013.1/src/exe/rbdock.cxx#4 $)

>  <Rbt.Library>
libRbt.so (2013.1, Build901 2013/11/27)

>  <Rbt.Parameter_File>
/export/apps/rDock/src/rDock_2013.1_src/data/scripts/dock_solv.prm

>  <Rbt.Receptor>
prm/pocket_docking_6.prm

>  <SCORE>
-24.0407

>  <SCORE.INTER>
-24.0407

>  <SCORE.INTER.CONST>
1

>  <SCORE.INTER.POLAR>
0

>  <SCORE.INTER.ROT>
0

>  <SCORE.INTER.SOLV>
11.4815

>  <SCORE.INTER.VDW>
-23.4543

>  <SCORE.INTER.norm>
-1.84928

>  <SCORE.INTRA>
0

>  <SCORE.INTRA.DIHEDRAL>
0

>  <SCORE.INTRA.DIHEDRAL.0>
0

>  <SCORE.INTRA.POLAR>
0

>  <SCORE.INTRA.POLAR.0>
0

>  <SCORE.INTRA.REPUL>
0

>  <SCORE.INTRA.REPUL.0>
0

>  <SCORE.INTRA.SOLV>
0

>  <SCORE.INTRA.SOLV.lig_0>
-33.1994

>  <SCORE.INTRA.VDW>
0

>  <SCORE.INTRA.VDW.0>
0

>  <SCORE.INTRA.norm>
0

>  <SCORE.RESTR>
0

>  <SCORE.RESTR.CAVITY>
0

>  <SCORE.RESTR.norm>
0

>  <SCORE.SYSTEM>
0

>  <SCORE.SYSTEM.CONST>
0

>  <SCORE.SYSTEM.DIHEDRAL>
0

>  <SCORE.SYSTEM.SOLV>
0

>  <SCORE.SYSTEM.norm>
0

>  <SCORE.heavy>
13

>  <SCORE.norm>
-1.84928

>  <RMSD>
4.895

$$$$
ligand
 OpenBabel11021811473D
libRbt.so/2013.1/901 2013/11/27
 13 14  0  0  0  0  0  0  0  0999 V2000
   36.4290   32.0544   26.7695 N   0  0  0  0  0  0  0  0  0  0  0  0
   37.5692   33.1450   26.9134 C   0  0  0  0  0  0  0  0  0  0  0  0
   38.5101   33.0048   27.9147 N   0  0  0  0  0  0  0  0  0  0  0  0
   37.4520   34.0700   26.0564 N   0  0  0  0  0  0  0  0  0  0  0  0
   36.5651   34.2519   25.0591 C   0  0  0  0  0  0  0  0  0  0  0  0
   35.5687   33.3670   24.8596 C   0  0  0  0  0  0  0  0  0  0  0  0
   35.4867   32.1300   25.8383 C   0  0  0  0  0  0  0  0  0  0  0  0
   34.6048   31.3551   25.6500 O   0  0  0  0  0  0  0  0  0  0  0  0
   34.6490   33.7608   23.6888 C   0  0  0  0  0  0  0  0  0  0  0  0
   35.1610   34.9004   23.2106 C   0  0  0  0  0  0  0  0  0  0  0  0
   36.2676   35.3630   23.8705 N   0  0  0  0  0  0  0  0  0  0  0  0
   33.4755   33.0010   23.2017 C   0  0  0  0  0  0  0  0  0  0  0  0
   32.5546   32.3811   22.8784 N   0  0  0  0  0  0  0  0  0  0  0  0
  1  2  1  0  0  0  0
  1  7  1  0  0  0  0
  2  3  1  0  0  0  0
  2  4  2  0  0  0  0
  4  5  1  0  0  0  0
  5  6  2  0  0  0  0
  5 11  1  0  0  0  0
  6  7  1  0  0  0  0
  6  9  1  0  0  0  0
  7  8  2  0  0  0  0
  9 10  2  0  0  0  0
  9 12  1  0  0  0  0
 10 11  1  0  0  0  0
 12 13  3  0  0  0  0
M  END
>  <CHROM.1>
35.71979734,33.25061305,25.10877407,0.47449626,0.62271597,2.44714935

>  <Name>
ligand

>  <RI>
0

>  <Rbt.Current_Directory>
/home/itssahil/PROJECTS/Mol_Feturizer/New_Systems/rnas/3GCA

>  <Rbt.Executable>
rbdock ($Id: //depot/dev/client3/rdock/2013.1/src/exe/rbdock.cxx#4 $)

>  <Rbt.Library>
libRbt.so (2013.1, Build901 2013/11/27)

>  <Rbt.Parameter_File>
/export/apps/rDock/src/rDock_2013.1_src/data/scripts/dock_solv.prm

>  <Rbt.Receptor>
prm/pocket_docking_7.prm

>  <SCORE>
-24.0327

>  <SCORE.INTER>
-24.0327

>  <SCORE.INTER.CONST>
1

>  <SCORE.INTER.POLAR>
0

>  <SCORE.INTER.ROT>
0

>  <SCORE.INTER.SOLV>
11.4937

>  <SCORE.INTER.VDW>
-23.453

>  <SCORE.INTER.norm>
-1.84867

>  <SCORE.INTRA>
0

>  <SCORE.INTRA.DIHEDRAL>
0

>  <SCORE.INTRA.DIHEDRAL.0>
0

>  <SCORE.INTRA.POLAR>
0

>  <SCORE.INTRA.POLAR.0>
0

>  <SCORE.INTRA.REPUL>
0

>  <SCORE.INTRA.REPUL.0>
0

>  <SCORE.INTRA.SOLV>
0

>  <SCORE.INTRA.SOLV.lig_0>
-33.1994

>  <SCORE.INTRA.VDW>
0

>  <SCORE.INTRA.VDW.0>
0

>  <SCORE.INTRA.norm>
0

>  <SCORE.RESTR>
0

>  <SCORE.RESTR.CAVITY>
0

>  <SCORE.RESTR.norm>
0

>  <SCORE.SYSTEM>
0

>  <SCORE.SYSTEM.CONST>
0

>  <SCORE.SYSTEM.DIHEDRAL>
0

>  <SCORE.SYSTEM.SOLV>
0

>  <SCORE.SYSTEM.norm>
0

>  <SCORE.heavy>
13

>  <SCORE.norm>
-1.84867

>  <RMSD>
4.895

$$$$
ligand
 OpenBabel11021811473D
libRbt.so/2013.1/901 2013/11/27
 13 14  0  0  0  0  0  0  0  0999 V2000
   36.4259   32.0686   26.7586 N   0  0  0  0  0  0  0  0  0  0  0  0
   37.5702   33.1559   26.8948 C   0  0  0  0  0  0  0  0  0  0  0  0
   38.5140   33.0162   27.8934 N   0  0  0  0  0  0  0  0  0  0  0  0
   37.4532   34.0782   26.0348 N   0  0  0  0  0  0  0  0  0  0  0  0
   36.5637   34.2594   25.0398 C   0  0  0  0  0  0  0  0  0  0  0  0
   35.5636   33.3772   24.8468 C   0  0  0  0  0  0  0  0  0  0  0  0
   35.4808   32.1439   25.8302 C   0  0  0  0  0  0  0  0  0  0  0  0
   34.5957   31.3714   25.6477 O   0  0  0  0  0  0  0  0  0  0  0  0
   34.6413   33.7698   23.6776 C   0  0  0  0  0  0  0  0  0  0  0  0
   35.1555   34.9059   23.1936 C   0  0  0  0  0  0  0  0  0  0  0  0
   36.2658   35.3672   23.8481 N   0  0  0  0  0  0  0  0  0  0  0  0
   33.4637   33.0121   23.1972 C   0  0  0  0  0  0  0  0  0  0  0  0
   32.5397   32.3941   22.8792 N   0  0  0  0  0  0  0  0  0  0  0  0
  1  2  1  0  0  0  0
  1  7  1  0  0  0  0
  2  3  1  0  0  0  0
  2  4  2  0  0  0  0
  4  5  1  0  0  0  0
  5  6  2  0  0  0  0
  5 11  1  0  0  0  0
  6  7  1  0  0  0  0
  6  9  1  0  0  0  0
  7  8  2  0  0  0  0
  9 10  2  0  0  0  0
  9 12  1  0  0  0  0
 10 11  1  0  0  0  0
 12 13  3  0  0  0  0
M  END
>  <CHROM.1>
35.71517493,33.26116692,25.09588422,0.47500964,0.61804971,2.44323840

>  <Name>
ligand

>  <RI>
0

>  <Rbt.Current_Directory>
/home/itssahil/PROJECTS/Mol_Feturizer/New_Systems/rnas/3GCA

>  <Rbt.Executable>
rbdock ($Id: //depot/dev/client3/rdock/2013.1/src/exe/rbdock.cxx#4 $)

>  <Rbt.Library>
libRbt.so (2013.1, Build901 2013/11/27)

>  <Rbt.Parameter_File>
/export/apps/rDock/src/rDock_2013.1_src/data/scripts/dock_solv.prm

>  <Rbt.Receptor>
prm/pocket_docking_7.prm

>  <SCORE>
-24.0401

>  <SCORE.INTER>
-24.0401

>  <SCORE.INTER.CONST>
1

>  <SCORE.INTER.POLAR>
0

>  <SCORE.INTER.ROT>
0

>  <SCORE.INTER.SOLV>
11.4461

>  <SCORE.INTER.VDW>
-23.4421

>  <SCORE.INTER.norm>
-1.84924

>  <SCORE.INTRA>
0

>  <SCORE.INTRA.DIHEDRAL>
0

>  <SCORE.INTRA.DIHEDRAL.0>
0

>  <SCORE.INTRA.POLAR>
0

>  <SCORE.INTRA.POLAR.0>
0

>  <SCORE.INTRA.REPUL>
0

>  <SCORE.INTRA.REPUL.0>
0

>  <SCORE.INTRA.SOLV>
0

>  <SCORE.INTRA.SOLV.lig_0>
-33.1994

>  <SCORE.INTRA.VDW>
0

>  <SCORE.INTRA.VDW.0>
0

>  <SCORE.INTRA.norm>
0

>  <SCORE.RESTR>
0

>  <SCORE.RESTR.CAVITY>
0

>  <SCORE.RESTR.norm>
0

>  <SCORE.SYSTEM>
0

>  <SCORE.SYSTEM.CONST>
0

>  <SCORE.SYSTEM.DIHEDRAL>
0

>  <SCORE.SYSTEM.SOLV>
0

>  <SCORE.SYSTEM.norm>
0

>  <SCORE.heavy>
13

>  <SCORE.norm>
-1.84924

>  <RMSD>
4.895

$$$$
ligand
 OpenBabel11021811473D
libRbt.so/2013.1/901 2013/11/27
 13 14  0  0  0  0  0  0  0  0999 V2000
   36.4617   32.1219   26.7757 N   0  0  0  0  0  0  0  0  0  0  0  0
   37.6163   33.1990   26.9068 C   0  0  0  0  0  0  0  0  0  0  0  0
   38.5573   33.0562   27.9077 N   0  0  0  0  0  0  0  0  0  0  0  0
   37.5095   34.1171   26.0411 N   0  0  0  0  0  0  0  0  0  0  0  0
   36.6231   34.3009   25.0437 C   0  0  0  0  0  0  0  0  0  0  0  0
   35.6148   33.4272   24.8546 C   0  0  0  0  0  0  0  0  0  0  0  0
   35.5187   32.2008   25.8455 C   0  0  0  0  0  0  0  0  0  0  0  0
   34.6264   31.4357   25.6664 O   0  0  0  0  0  0  0  0  0  0  0  0
   34.6979   33.8215   23.6818 C   0  0  0  0  0  0  0  0  0  0  0  0
   35.2238   34.9497   23.1916 C   0  0  0  0  0  0  0  0  0  0  0  0
   36.3376   35.4042   23.8449 N   0  0  0  0  0  0  0  0  0  0  0  0
   33.5137   33.0724   23.2043 C   0  0  0  0  0  0  0  0  0  0  0  0
   32.5842   32.4614   22.8887 N   0  0  0  0  0  0  0  0  0  0  0  0
  1  2  1  0  0  0  0
  1  7  1  0  0  0  0
  2  3  1  0  0  0  0
  2  4  2  0  0  0  0
  4  5  1  0  0  0  0
  5  6  2  0  0  0  0
  5 11  1  0  0  0  0
  6  7  1  0  0  0  0
  6  9  1  0  0  0  0
  7  8  2  0  0  0  0
  9 10  2  0  0  0  0
  9 12  1  0  0  0  0
 10 11  1  0  0  0  0
 12 13  3  0  0  0  0
M  END
>  <CHROM.1>
35.76486431,33.31119998,25.10468468,0.48515567,0.61284523,2.43127705

>  <Name>
ligand

>  <RI>
0

>  <Rbt.Current_Directory>
/home/itssahil/PROJECTS/Mol_Feturizer/New_Systems/rnas/3GCA

>  <Rbt.Executable>
rbdock ($Id: //depot/dev/client3/rdock/2013.1/src/exe/rbdock.cxx#4 $)

>  <Rbt.Library>
libRbt.so (2013.1, Build901 2013/11/27)

>  <Rbt.Parameter_File>
/export/apps/rDock/src/rDock_2013.1_src/data/scripts/dock_solv.prm

>  <Rbt.Receptor>
prm/pocket_docking_7.prm

>  <SCORE>
-24.0156

>  <SCORE.INTER>
-24.0156

>  <SCORE.INTER.CONST>
1

>  <SCORE.INTER.POLAR>
0

>  <SCORE.INTER.ROT>
0

>  <SCORE.INTER.SOLV>
11.2083

>  <SCORE.INTER.VDW>
-23.3465

>  <SCORE.INTER.norm>
-1.84735

>  <SCORE.INTRA>
0

>  <SCORE.INTRA.DIHEDRAL>
0

>  <SCORE.INTRA.DIHEDRAL.0>
0

>  <SCORE.INTRA.POLAR>
0

>  <SCORE.INTRA.POLAR.0>
0

>  <SCORE.INTRA.REPUL>
0

>  <SCORE.INTRA.REPUL.0>
0

>  <SCORE.INTRA.SOLV>
0

>  <SCORE.INTRA.SOLV.lig_0>
-33.1994

>  <SCORE.INTRA.VDW>
0

>  <SCORE.INTRA.VDW.0>
0

>  <SCORE.INTRA.norm>
0

>  <SCORE.RESTR>
0

>  <SCORE.RESTR.CAVITY>
0

>  <SCORE.RESTR.norm>
0

>  <SCORE.SYSTEM>
0

>  <SCORE.SYSTEM.CONST>
0

>  <SCORE.SYSTEM.DIHEDRAL>
0

>  <SCORE.SYSTEM.SOLV>
0

>  <SCORE.SYSTEM.norm>
0

>  <SCORE.heavy>
13

>  <SCORE.norm>
-1.84735

>  <RMSD>
4.895

$$$$
ligand
 OpenBabel11021811473D
libRbt.so/2013.1/901 2013/11/27
 13 14  0  0  0  0  0  0  0  0999 V2000
   36.3927   32.0958   26.7921 N   0  0  0  0  0  0  0  0  0  0  0  0
   37.5554   33.1658   26.9086 C   0  0  0  0  0  0  0  0  0  0  0  0
   38.4926   33.0323   27.9143 N   0  0  0  0  0  0  0  0  0  0  0  0
   37.4582   34.0701   26.0274 N   0  0  0  0  0  0  0  0  0  0  0  0
   36.5759   34.2442   25.0246 C   0  0  0  0  0  0  0  0  0  0  0  0
   35.5613   33.3755   24.8473 C   0  0  0  0  0  0  0  0  0  0  0  0
   35.4528   32.1666   25.8582 C   0  0  0  0  0  0  0  0  0  0  0  0
   34.5550   31.4057   25.6893 O   0  0  0  0  0  0  0  0  0  0  0  0
   34.6507   33.7574   23.6655 C   0  0  0  0  0  0  0  0  0  0  0  0
   35.1868   34.8731   23.1581 C   0  0  0  0  0  0  0  0  0  0  0  0
   36.3024   35.3296   23.8069 N   0  0  0  0  0  0  0  0  0  0  0  0
   33.4619   33.0098   23.1973 C   0  0  0  0  0  0  0  0  0  0  0  0
   32.5284   32.4010   22.8893 N   0  0  0  0  0  0  0  0  0  0  0  0
  1  2  1  0  0  0  0
  1  7  1  0  0  0  0
  2  3  1  0  0  0  0
  2  4  2  0  0  0  0
  4  5  1  0  0  0  0
  5  6  2  0  0  0  0
  5 11  1  0  0  0  0
  6  7  1  0  0  0  0
  6  9  1  0  0  0  0
  7  8  2  0  0  0  0
  9 10  2  0  0  0  0
  9 12  1  0  0  0  0
 10 11  1  0  0  0  0
 12 13  3  0  0  0  0
M  END
>  <CHROM.1>
35.70976928,33.26252685,25.09966746,0.49460226,0.60968932,2.40921519

>  <Name>
ligand

>  <RI>
0

>  <Rbt.Current_Directory>
/home/itssahil/PROJECTS/Mol_Feturizer/New_Systems/rnas/3GCA

>  <Rbt.Executable>
rbdock ($Id: //depot/dev/client3/rdock/2013.1/src/exe/rbdock.cxx#4 $)

>  <Rbt.Library>
libRbt.so (2013.1, Build901 2013/11/27)

>  <Rbt.Parameter_File>
/export/apps/rDock/src/rDock_2013.1_src/data/scripts/dock_solv.prm

>  <Rbt.Receptor>
prm/pocket_docking_7.prm

>  <SCORE>
-24.0572

>  <SCORE.INTER>
-24.0572

>  <SCORE.INTER.CONST>
1

>  <SCORE.INTER.POLAR>
0

>  <SCORE.INTER.ROT>
0

>  <SCORE.INTER.SOLV>
11.5323

>  <SCORE.INTER.VDW>
-23.4823

>  <SCORE.INTER.norm>
-1.85056

>  <SCORE.INTRA>
0

>  <SCORE.INTRA.DIHEDRAL>
0

>  <SCORE.INTRA.DIHEDRAL.0>
0

>  <SCORE.INTRA.POLAR>
0

>  <SCORE.INTRA.POLAR.0>
0

>  <SCORE.INTRA.REPUL>
0

>  <SCORE.INTRA.REPUL.0>
0

>  <SCORE.INTRA.SOLV>
0

>  <SCORE.INTRA.SOLV.lig_0>
-33.1994

>  <SCORE.INTRA.VDW>
0

>  <SCORE.INTRA.VDW.0>
0

>  <SCORE.INTRA.norm>
0

>  <SCORE.RESTR>
0

>  <SCORE.RESTR.CAVITY>
0

>  <SCORE.RESTR.norm>
0

>  <SCORE.SYSTEM>
0

>  <SCORE.SYSTEM.CONST>
0

>  <SCORE.SYSTEM.DIHEDRAL>
0

>  <SCORE.SYSTEM.SOLV>
0

>  <SCORE.SYSTEM.norm>
0

>  <SCORE.heavy>
13

>  <SCORE.norm>
-1.85056

>  <RMSD>
4.895

$$$$
ligand
 OpenBabel11021811473D
libRbt.so/2013.1/901 2013/11/27
 13 14  0  0  0  0  0  0  0  0999 V2000
   36.4707   32.1147   26.7789 N   0  0  0  0  0  0  0  0  0  0  0  0
   37.6226   33.1939   26.9162 C   0  0  0  0  0  0  0  0  0  0  0  0
   38.5611   33.0505   27.9193 N   0  0  0  0  0  0  0  0  0  0  0  0
   37.5163   34.1140   26.0525 N   0  0  0  0  0  0  0  0  0  0  0  0
   36.6324   34.2985   25.0530 C   0  0  0  0  0  0  0  0  0  0  0  0
   35.6265   33.4231   24.8588 C   0  0  0  0  0  0  0  0  0  0  0  0
   35.5301   32.1940   25.8462 C   0  0  0  0  0  0  0  0  0  0  0  0
   34.6400   31.4275   25.6626 O   0  0  0  0  0  0  0  0  0  0  0  0
   34.7122   33.8185   23.6844 C   0  0  0  0  0  0  0  0  0  0  0  0
   35.2370   34.9491   23.1986 C   0  0  0  0  0  0  0  0  0  0  0  0
   36.3480   35.4043   23.8563 N   0  0  0  0  0  0  0  0  0  0  0  0
   33.5309   33.0681   23.2016 C   0  0  0  0  0  0  0  0  0  0  0  0
   32.6036   32.4561   22.8818 N   0  0  0  0  0  0  0  0  0  0  0  0
  1  2  1  0  0  0  0
  1  7  1  0  0  0  0
  2  3  1  0  0  0  0
  2  4  2  0  0  0  0
  4  5  1  0  0  0  0
  5  6  2  0  0  0  0
  5 11  1  0  0  0  0
  6  7  1  0  0  0  0
  6  9  1  0  0  0  0
  7  8  2  0  0  0  0
  9 10  2  0  0  0  0
  9 12  1  0  0  0  0
 10 11  1  0  0  0  0
 12 13  3  0  0  0  0
M  END
>  <CHROM.1>
35.77609237,33.30681981,25.10900423,0.48546459,0.61640016,2.43369107

>  <Name>
ligand

>  <RI>
0

>  <Rbt.Current_Directory>
/home/itssahil/PROJECTS/Mol_Feturizer/New_Systems/rnas/3GCA

>  <Rbt.Executable>
rbdock ($Id: //depot/dev/client3/rdock/2013.1/src/exe/rbdock.cxx#4 $)

>  <Rbt.Library>
libRbt.so (2013.1, Build901 2013/11/27)

>  <Rbt.Parameter_File>
/export/apps/rDock/src/rDock_2013.1_src/data/scripts/dock_solv.prm

>  <Rbt.Receptor>
prm/pocket_docking_7.prm

>  <SCORE>
-23.9985

>  <SCORE.INTER>
-23.9985

>  <SCORE.INTER.CONST>
1

>  <SCORE.INTER.POLAR>
0

>  <SCORE.INTER.ROT>
0

>  <SCORE.INTER.SOLV>
11.2058

>  <SCORE.INTER.VDW>
-23.3343

>  <SCORE.INTER.norm>
-1.84604

>  <SCORE.INTRA>
0

>  <SCORE.INTRA.DIHEDRAL>
0

>  <SCORE.INTRA.DIHEDRAL.0>
0

>  <SCORE.INTRA.POLAR>
0

>  <SCORE.INTRA.POLAR.0>
0

>  <SCORE.INTRA.REPUL>
0

>  <SCORE.INTRA.REPUL.0>
0

>  <SCORE.INTRA.SOLV>
0

>  <SCORE.INTRA.SOLV.lig_0>
-33.1994

>  <SCORE.INTRA.VDW>
0

>  <SCORE.INTRA.VDW.0>
0

>  <SCORE.INTRA.norm>
0

>  <SCORE.RESTR>
0

>  <SCORE.RESTR.CAVITY>
0

>  <SCORE.RESTR.norm>
0

>  <SCORE.SYSTEM>
0

>  <SCORE.SYSTEM.CONST>
0

>  <SCORE.SYSTEM.DIHEDRAL>
0

>  <SCORE.SYSTEM.SOLV>
0

>  <SCORE.SYSTEM.norm>
0

>  <SCORE.heavy>
13

>  <SCORE.norm>
-1.84604

>  <RMSD>
4.895

$$$$
ligand
 OpenBabel11021811473D
libRbt.so/2013.1/901 2013/11/27
 13 14  0  0  0  0  0  0  0  0999 V2000
   36.4147   32.0929   26.7762 N   0  0  0  0  0  0  0  0  0  0  0  0
   37.5739   33.1662   26.8973 C   0  0  0  0  0  0  0  0  0  0  0  0
   38.5129   33.0302   27.9009 N   0  0  0  0  0  0  0  0  0  0  0  0
   37.4723   34.0753   26.0215 N   0  0  0  0  0  0  0  0  0  0  0  0
   36.5880   34.2522   25.0209 C   0  0  0  0  0  0  0  0  0  0  0  0
   35.5761   33.3809   24.8400 C   0  0  0  0  0  0  0  0  0  0  0  0
   35.4732   32.1658   25.8440 C   0  0  0  0  0  0  0  0  0  0  0  0
   34.5778   31.4028   25.6719 O   0  0  0  0  0  0  0  0  0  0  0  0
   34.6626   33.7665   23.6617 C   0  0  0  0  0  0  0  0  0  0  0  0
   35.1941   34.8870   23.1600 C   0  0  0  0  0  0  0  0  0  0  0  0
   36.3091   35.3436   23.8099 N   0  0  0  0  0  0  0  0  0  0  0  0
   33.4757   33.0175   23.1907 C   0  0  0  0  0  0  0  0  0  0  0  0
   32.5439   32.4073   22.8805 N   0  0  0  0  0  0  0  0  0  0  0  0
  1  2  1  0  0  0  0
  1  7  1  0  0  0  0
  2  3  1  0  0  0  0
  2  4  2  0  0  0  0
  4  5  1  0  0  0  0
  5  6  2  0  0  0  0
  5 11  1  0  0  0  0
  6  7  1  0  0  0  0
  6  9  1  0  0  0  0
  7  8  2  0  0  0  0
  9 10  2  0  0  0  0
  9 12  1  0  0  0  0
 10 11  1  0  0  0  0
 12 13  3  0  0  0  0
M  END
>  <CHROM.1>
35.72535007,33.26702602,25.09148771,0.49033248,0.61095241,2.41744782

>  <Name>
ligand

>  <RI>
0

>  <Rbt.Current_Directory>
/home/itssahil/PROJECTS/Mol_Feturizer/New_Systems/rnas/3GCA

>  <Rbt.Executable>
rbdock ($Id: //depot/dev/client3/rdock/2013.1/src/exe/rbdock.cxx#4 $)

>  <Rbt.Library>
libRbt.so (2013.1, Build901 2013/11/27)

>  <Rbt.Parameter_File>
/export/apps/rDock/src/rDock_2013.1_src/data/scripts/dock_solv.prm

>  <Rbt.Receptor>
prm/pocket_docking_7.prm

>  <SCORE>
-24.0581

>  <SCORE.INTER>
-24.0581

>  <SCORE.INTER.CONST>
1

>  <SCORE.INTER.POLAR>
0

>  <SCORE.INTER.ROT>
0

>  <SCORE.INTER.SOLV>
11.4304

>  <SCORE.INTER.VDW>
-23.4489

>  <SCORE.INTER.norm>
-1.85063

>  <SCORE.INTRA>
0

>  <SCORE.INTRA.DIHEDRAL>
0

>  <SCORE.INTRA.DIHEDRAL.0>
0

>  <SCORE.INTRA.POLAR>
0

>  <SCORE.INTRA.POLAR.0>
0

>  <SCORE.INTRA.REPUL>
0

>  <SCORE.INTRA.REPUL.0>
0

>  <SCORE.INTRA.SOLV>
0

>  <SCORE.INTRA.SOLV.lig_0>
-33.1994

>  <SCORE.INTRA.VDW>
0

>  <SCORE.INTRA.VDW.0>
0

>  <SCORE.INTRA.norm>
0

>  <SCORE.RESTR>
0

>  <SCORE.RESTR.CAVITY>
0

>  <SCORE.RESTR.norm>
0

>  <SCORE.SYSTEM>
0

>  <SCORE.SYSTEM.CONST>
0

>  <SCORE.SYSTEM.DIHEDRAL>
0

>  <SCORE.SYSTEM.SOLV>
0

>  <SCORE.SYSTEM.norm>
0

>  <SCORE.heavy>
13

>  <SCORE.norm>
-1.85063

>  <RMSD>
4.895

$$$$
ligand
 OpenBabel11021811473D
libRbt.so/2013.1/901 2013/11/27
 13 14  0  0  0  0  0  0  0  0999 V2000
   36.4209   32.0747   26.7818 N   0  0  0  0  0  0  0  0  0  0  0  0
   37.5900   33.1377   26.8981 C   0  0  0  0  0  0  0  0  0  0  0  0
   38.5320   32.9932   27.8978 N   0  0  0  0  0  0  0  0  0  0  0  0
   37.4928   34.0478   26.0228 N   0  0  0  0  0  0  0  0  0  0  0  0
   36.6059   34.2326   25.0260 C   0  0  0  0  0  0  0  0  0  0  0  0
   35.5856   33.3704   24.8493 C   0  0  0  0  0  0  0  0  0  0  0  0
   35.4762   32.1561   25.8536 C   0  0  0  0  0  0  0  0  0  0  0  0
   34.5733   31.4011   25.6852 O   0  0  0  0  0  0  0  0  0  0  0  0
   34.6706   33.7643   23.6749 C   0  0  0  0  0  0  0  0  0  0  0  0
   35.2099   34.8800   23.1711 C   0  0  0  0  0  0  0  0  0  0  0  0
   36.3316   35.3267   23.8163 N   0  0  0  0  0  0  0  0  0  0  0  0
   33.4751   33.0259   23.2089 C   0  0  0  0  0  0  0  0  0  0  0  0
   32.5366   32.4240   22.9025 N   0  0  0  0  0  0  0  0  0  0  0  0
  1  2  1  0  0  0  0
  1  7  1  0  0  0  0
  2  3  1  0  0  0  0
  2  4  2  0  0  0  0
  4  5  1  0  0  0  0
  5  6  2  0  0  0  0
  5 11  1  0  0  0  0
  6  7  1  0  0  0  0
  6  9  1  0  0  0  0
  7  8  2  0  0  0  0
  9 10  2  0  0  0  0
  9 12  1  0  0  0  0
 10 11  1  0  0  0  0
 12 13  3  0  0  0  0
M  END
>  <CHROM.1>
35.73488335,33.25514432,25.10012837,0.49500287,0.60191625,2.41491520

>  <Name>
ligand

>  <RI>
0

>  <Rbt.Current_Directory>
/home/itssahil/PROJECTS/Mol_Feturizer/New_Systems/rnas/3GCA

>  <Rbt.Executable>
rbdock ($Id: //depot/dev/client3/rdock/2013.1/src/exe/rbdock.cxx#4 $)

>  <Rbt.Library>
libRbt.so (2013.1, Build901 2013/11/27)

>  <Rbt.Parameter_File>
/export/apps/rDock/src/rDock_2013.1_src/data/scripts/dock_solv.prm

>  <Rbt.Receptor>
prm/pocket_docking_8.prm

>  <SCORE>
-24.0663

>  <SCORE.INTER>
-24.0663

>  <SCORE.INTER.CONST>
1

>  <SCORE.INTER.POLAR>
0

>  <SCORE.INTER.ROT>
0

>  <SCORE.INTER.SOLV>
11.3611

>  <SCORE.INTER.VDW>
-23.4312

>  <SCORE.INTER.norm>
-1.85125

>  <SCORE.INTRA>
0

>  <SCORE.INTRA.DIHEDRAL>
0

>  <SCORE.INTRA.DIHEDRAL.0>
0

>  <SCORE.INTRA.POLAR>
0

>  <SCORE.INTRA.POLAR.0>
0

>  <SCORE.INTRA.REPUL>
0

>  <SCORE.INTRA.REPUL.0>
0

>  <SCORE.INTRA.SOLV>
0

>  <SCORE.INTRA.SOLV.lig_0>
-33.1994

>  <SCORE.INTRA.VDW>
0

>  <SCORE.INTRA.VDW.0>
0

>  <SCORE.INTRA.norm>
0

>  <SCORE.RESTR>
0

>  <SCORE.RESTR.CAVITY>
0

>  <SCORE.RESTR.norm>
0

>  <SCORE.SYSTEM>
0

>  <SCORE.SYSTEM.CONST>
0

>  <SCORE.SYSTEM.DIHEDRAL>
0

>  <SCORE.SYSTEM.SOLV>
0

>  <SCORE.SYSTEM.norm>
0

>  <SCORE.heavy>
13

>  <SCORE.norm>
-1.85125

>  <RMSD>
4.895

$$$$
ligand
 OpenBabel11021811473D
libRbt.so/2013.1/901 2013/11/27
 13 14  0  0  0  0  0  0  0  0999 V2000
   36.3979   32.0889   26.7882 N   0  0  0  0  0  0  0  0  0  0  0  0
   37.5660   33.1535   26.8997 C   0  0  0  0  0  0  0  0  0  0  0  0
   38.5065   33.0160   27.9017 N   0  0  0  0  0  0  0  0  0  0  0  0
   37.4695   34.0580   26.0186 N   0  0  0  0  0  0  0  0  0  0  0  0
   36.5841   34.2359   25.0193 C   0  0  0  0  0  0  0  0  0  0  0  0
   35.5647   33.3719   24.8463 C   0  0  0  0  0  0  0  0  0  0  0  0
   35.4546   32.1638   25.8579 C   0  0  0  0  0  0  0  0  0  0  0  0
   34.5526   31.4070   25.6929 O   0  0  0  0  0  0  0  0  0  0  0  0
   34.6512   33.7577   23.6680 C   0  0  0  0  0  0  0  0  0  0  0  0
   35.1904   34.8707   23.1581 C   0  0  0  0  0  0  0  0  0  0  0  0
   36.3108   35.3222   23.8023 N   0  0  0  0  0  0  0  0  0  0  0  0
   33.4571   33.0154   23.2047 C   0  0  0  0  0  0  0  0  0  0  0  0
   32.5196   32.4109   22.9006 N   0  0  0  0  0  0  0  0  0  0  0  0
  1  2  1  0  0  0  0
  1  7  1  0  0  0  0
  2  3  1  0  0  0  0
  2  4  2  0  0  0  0
  4  5  1  0  0  0  0
  5  6  2  0  0  0  0
  5 11  1  0  0  0  0
  6  7  1  0  0  0  0
  6  9  1  0  0  0  0
  7  8  2  0  0  0  0
  9 10  2  0  0  0  0
  9 12  1  0  0  0  0
 10 11  1  0  0  0  0
 12 13  3  0  0  0  0
M  END
>  <CHROM.1>
35.71364906,33.25827809,25.09807234,0.49557515,0.60363223,2.40834578

>  <Name>
ligand

>  <RI>
0

>  <Rbt.Current_Directory>
/home/itssahil/PROJECTS/Mol_Feturizer/New_Systems/rnas/3GCA

>  <Rbt.Executable>
rbdock ($Id: //depot/dev/client3/rdock/2013.1/src/exe/rbdock.cxx#4 $)

>  <Rbt.Library>
libRbt.so (2013.1, Build901 2013/11/27)

>  <Rbt.Parameter_File>
/export/apps/rDock/src/rDock_2013.1_src/data/scripts/dock_solv.prm

>  <Rbt.Receptor>
prm/pocket_docking_8.prm

>  <SCORE>
-24.061

>  <SCORE.INTER>
-24.061

>  <SCORE.INTER.CONST>
1

>  <SCORE.INTER.POLAR>
0

>  <SCORE.INTER.ROT>
0

>  <SCORE.INTER.SOLV>
11.4695

>  <SCORE.INTER.VDW>
-23.4638

>  <SCORE.INTER.norm>
-1.85085

>  <SCORE.INTRA>
0

>  <SCORE.INTRA.DIHEDRAL>
0

>  <SCORE.INTRA.DIHEDRAL.0>
0

>  <SCORE.INTRA.POLAR>
0

>  <SCORE.INTRA.POLAR.0>
0

>  <SCORE.INTRA.REPUL>
0

>  <SCORE.INTRA.REPUL.0>
0

>  <SCORE.INTRA.SOLV>
0

>  <SCORE.INTRA.SOLV.lig_0>
-33.1994

>  <SCORE.INTRA.VDW>
0

>  <SCORE.INTRA.VDW.0>
0

>  <SCORE.INTRA.norm>
0

>  <SCORE.RESTR>
0

>  <SCORE.RESTR.CAVITY>
0

>  <SCORE.RESTR.norm>
0

>  <SCORE.SYSTEM>
0

>  <SCORE.SYSTEM.CONST>
0

>  <SCORE.SYSTEM.DIHEDRAL>
0

>  <SCORE.SYSTEM.SOLV>
0

>  <SCORE.SYSTEM.norm>
0

>  <SCORE.heavy>
13

>  <SCORE.norm>
-1.85085

>  <RMSD>
4.895

$$$$
ligand
 OpenBabel11021811473D
libRbt.so/2013.1/901 2013/11/27
 13 14  0  0  0  0  0  0  0  0999 V2000
   36.4107   32.0846   26.7870 N   0  0  0  0  0  0  0  0  0  0  0  0
   37.5741   33.1534   26.9064 C   0  0  0  0  0  0  0  0  0  0  0  0
   38.5123   33.0156   27.9106 N   0  0  0  0  0  0  0  0  0  0  0  0
   37.4765   34.0612   26.0287 N   0  0  0  0  0  0  0  0  0  0  0  0
   36.5933   34.2396   25.0275 C   0  0  0  0  0  0  0  0  0  0  0  0
   35.5780   33.3721   24.8480 C   0  0  0  0  0  0  0  0  0  0  0  0
   35.4699   32.1594   25.8543 C   0  0  0  0  0  0  0  0  0  0  0  0
   34.5715   31.3997   25.6834 O   0  0  0  0  0  0  0  0  0  0  0  0
   34.6664   33.7591   23.6686 C   0  0  0  0  0  0  0  0  0  0  0  0
   35.2026   34.8764   23.1649 C   0  0  0  0  0  0  0  0  0  0  0  0
   36.3192   35.3298   23.8142 N   0  0  0  0  0  0  0  0  0  0  0  0
   33.4767   33.0139   23.1987 C   0  0  0  0  0  0  0  0  0  0  0  0
   32.5425   32.4068   22.8893 N   0  0  0  0  0  0  0  0  0  0  0  0
  1  2  1  0  0  0  0
  1  7  1  0  0  0  0
  2  3  1  0  0  0  0
  2  4  2  0  0  0  0
  4  5  1  0  0  0  0
  5  6  2  0  0  0  0
  5 11  1  0  0  0  0
  6  7  1  0  0  0  0
  6  9  1  0  0  0  0
  7  8  2  0  0  0  0
  9 10  2  0  0  0  0
  9 12  1  0  0  0  0
 10 11  1  0  0  0  0
 12 13  3  0  0  0  0
M  END
>  <CHROM.1>
35.72667516,33.25810227,25.09972919,0.49428766,0.60854518,2.41320403

>  <Name>
ligand

>  <RI>
0

>  <Rbt.Current_Directory>
/home/itssahil/PROJECTS/Mol_Feturizer/New_Systems/rnas/3GCA

>  <Rbt.Executable>
rbdock ($Id: //depot/dev/client3/rdock/2013.1/src/exe/rbdock.cxx#4 $)

>  <Rbt.Library>
libRbt.so (2013.1, Build901 2013/11/27)

>  <Rbt.Parameter_File>
/export/apps/rDock/src/rDock_2013.1_src/data/scripts/dock_solv.prm

>  <Rbt.Receptor>
prm/pocket_docking_8.prm

>  <SCORE>
-24.0619

>  <SCORE.INTER>
-24.0619

>  <SCORE.INTER.CONST>
1

>  <SCORE.INTER.POLAR>
0

>  <SCORE.INTER.ROT>
0

>  <SCORE.INTER.SOLV>
11.4496

>  <SCORE.INTER.VDW>
-23.4578

>  <SCORE.INTER.norm>
-1.85091

>  <SCORE.INTRA>
0

>  <SCORE.INTRA.DIHEDRAL>
0

>  <SCORE.INTRA.DIHEDRAL.0>
0

>  <SCORE.INTRA.POLAR>
0

>  <SCORE.INTRA.POLAR.0>
0

>  <SCORE.INTRA.REPUL>
0

>  <SCORE.INTRA.REPUL.0>
0

>  <SCORE.INTRA.SOLV>
0

>  <SCORE.INTRA.SOLV.lig_0>
-33.1994

>  <SCORE.INTRA.VDW>
0

>  <SCORE.INTRA.VDW.0>
0

>  <SCORE.INTRA.norm>
0

>  <SCORE.RESTR>
0

>  <SCORE.RESTR.CAVITY>
0

>  <SCORE.RESTR.norm>
0

>  <SCORE.SYSTEM>
0

>  <SCORE.SYSTEM.CONST>
0

>  <SCORE.SYSTEM.DIHEDRAL>
0

>  <SCORE.SYSTEM.SOLV>
0

>  <SCORE.SYSTEM.norm>
0

>  <SCORE.heavy>
13

>  <SCORE.norm>
-1.85091

>  <RMSD>
4.895

$$$$
ligand
 OpenBabel11021811473D
libRbt.so/2013.1/901 2013/11/27
 13 14  0  0  0  0  0  0  0  0999 V2000
   36.4278   32.0491   26.7665 N   0  0  0  0  0  0  0  0  0  0  0  0
   37.5782   33.1301   26.9015 C   0  0  0  0  0  0  0  0  0  0  0  0
   38.5234   32.9840   27.8979 N   0  0  0  0  0  0  0  0  0  0  0  0
   37.4644   34.0540   26.0428 N   0  0  0  0  0  0  0  0  0  0  0  0
   36.5736   34.2412   25.0500 C   0  0  0  0  0  0  0  0  0  0  0  0
   35.5684   33.3647   24.8581 C   0  0  0  0  0  0  0  0  0  0  0  0
   35.4810   32.1307   25.8403 C   0  0  0  0  0  0  0  0  0  0  0  0
   34.5914   31.3631   25.6588 O   0  0  0  0  0  0  0  0  0  0  0  0
   34.6457   33.7636   23.6915 C   0  0  0  0  0  0  0  0  0  0  0  0
   35.1650   34.8976   23.2077 C   0  0  0  0  0  0  0  0  0  0  0  0
   36.2792   35.3520   23.8603 N   0  0  0  0  0  0  0  0  0  0  0  0
   33.4630   33.0129   23.2128 C   0  0  0  0  0  0  0  0  0  0  0  0
   32.5349   32.4003   22.8960 N   0  0  0  0  0  0  0  0  0  0  0  0
  1  2  1  0  0  0  0
  1  7  1  0  0  0  0
  2  3  1  0  0  0  0
  2  4  2  0  0  0  0
  4  5  1  0  0  0  0
  5  6  2  0  0  0  0
  5 11  1  0  0  0  0
  6  7  1  0  0  0  0
  6  9  1  0  0  0  0
  7  8  2  0  0  0  0
  9 10  2  0  0  0  0
  9 12  1  0  0  0  0
 10 11  1  0  0  0  0
 12 13  3  0  0  0  0
M  END
>  <CHROM.1>
35.71988549,33.24750142,25.10679366,0.47836603,0.61288793,2.44249119

>  <Name>
ligand

>  <RI>
0

>  <Rbt.Current_Directory>
/home/itssahil/PROJECTS/Mol_Feturizer/New_Systems/rnas/3GCA

>  <Rbt.Executable>
rbdock ($Id: //depot/dev/client3/rdock/2013.1/src/exe/rbdock.cxx#4 $)

>  <Rbt.Library>
libRbt.so (2013.1, Build901 2013/11/27)

>  <Rbt.Parameter_File>
/export/apps/rDock/src/rDock_2013.1_src/data/scripts/dock_solv.prm

>  <Rbt.Receptor>
prm/pocket_docking_8.prm

>  <SCORE>
-24.0441

>  <SCORE.INTER>
-24.0441

>  <SCORE.INTER.CONST>
1

>  <SCORE.INTER.POLAR>
0

>  <SCORE.INTER.ROT>
0

>  <SCORE.INTER.SOLV>
11.4264

>  <SCORE.INTER.VDW>
-23.4382

>  <SCORE.INTER.norm>
-1.84954

>  <SCORE.INTRA>
0

>  <SCORE.INTRA.DIHEDRAL>
0

>  <SCORE.INTRA.DIHEDRAL.0>
0

>  <SCORE.INTRA.POLAR>
0

>  <SCORE.INTRA.POLAR.0>
0

>  <SCORE.INTRA.REPUL>
0

>  <SCORE.INTRA.REPUL.0>
0

>  <SCORE.INTRA.SOLV>
0

>  <SCORE.INTRA.SOLV.lig_0>
-33.1994

>  <SCORE.INTRA.VDW>
0

>  <SCORE.INTRA.VDW.0>
0

>  <SCORE.INTRA.norm>
0

>  <SCORE.RESTR>
0

>  <SCORE.RESTR.CAVITY>
0

>  <SCORE.RESTR.norm>
0

>  <SCORE.SYSTEM>
0

>  <SCORE.SYSTEM.CONST>
0

>  <SCORE.SYSTEM.DIHEDRAL>
0

>  <SCORE.SYSTEM.SOLV>
0

>  <SCORE.SYSTEM.norm>
0

>  <SCORE.heavy>
13

>  <SCORE.norm>
-1.84954

>  <RMSD>
4.895

$$$$
ligand
 OpenBabel11021811473D
libRbt.so/2013.1/901 2013/11/27
 13 14  0  0  0  0  0  0  0  0999 V2000
   36.4082   32.0753   26.7805 N   0  0  0  0  0  0  0  0  0  0  0  0
   37.5694   33.1461   26.9038 C   0  0  0  0  0  0  0  0  0  0  0  0
   38.5039   33.0102   27.9118 N   0  0  0  0  0  0  0  0  0  0  0  0
   37.4737   34.0532   26.0254 N   0  0  0  0  0  0  0  0  0  0  0  0
   36.5941   34.2297   25.0207 C   0  0  0  0  0  0  0  0  0  0  0  0
   35.5809   33.3605   24.8376 C   0  0  0  0  0  0  0  0  0  0  0  0
   35.4708   32.1482   25.8441 C   0  0  0  0  0  0  0  0  0  0  0  0
   34.5743   31.3869   25.6702 O   0  0  0  0  0  0  0  0  0  0  0  0
   34.6732   33.7454   23.6545 C   0  0  0  0  0  0  0  0  0  0  0  0
   35.2095   34.8633   23.1523 C   0  0  0  0  0  0  0  0  0  0  0  0
   36.3229   35.3189   23.8057 N   0  0  0  0  0  0  0  0  0  0  0  0
   33.4865   32.9981   23.1804 C   0  0  0  0  0  0  0  0  0  0  0  0
   32.5545   32.3894   22.8678 N   0  0  0  0  0  0  0  0  0  0  0  0
  1  2  1  0  0  0  0
  1  7  1  0  0  0  0
  2  3  1  0  0  0  0
  2  4  2  0  0  0  0
  4  5  1  0  0  0  0
  5  6  2  0  0  0  0
  5 11  1  0  0  0  0
  6  7  1  0  0  0  0
  6  9  1  0  0  0  0
  7  8  2  0  0  0  0
  9 10  2  0  0  0  0
  9 12  1  0  0  0  0
 10 11  1  0  0  0  0
 12 13  3  0  0  0  0
M  END
>  <CHROM.1>
35.72875461,33.24686586,25.09001024,0.49595570,0.61249244,2.41174636

>  <Name>
ligand

>  <RI>
0

>  <Rbt.Current_Directory>
/home/itssahil/PROJECTS/Mol_Feturizer/New_Systems/rnas/3GCA

>  <Rbt.Executable>
rbdock ($Id: //depot/dev/client3/rdock/2013.1/src/exe/rbdock.cxx#4 $)

>  <Rbt.Library>
libRbt.so (2013.1, Build901 2013/11/27)

>  <Rbt.Parameter_File>
/export/apps/rDock/src/rDock_2013.1_src/data/scripts/dock_solv.prm

>  <Rbt.Receptor>
prm/pocket_docking_8.prm

>  <SCORE>
-23.9725

>  <SCORE.INTER>
-23.9725

>  <SCORE.INTER.CONST>
1

>  <SCORE.INTER.POLAR>
0

>  <SCORE.INTER.ROT>
0

>  <SCORE.INTER.SOLV>
11.4926

>  <SCORE.INTER.VDW>
-23.4125

>  <SCORE.INTER.norm>
-1.84404

>  <SCORE.INTRA>
0

>  <SCORE.INTRA.DIHEDRAL>
0

>  <SCORE.INTRA.DIHEDRAL.0>
0

>  <SCORE.INTRA.POLAR>
0

>  <SCORE.INTRA.POLAR.0>
0

>  <SCORE.INTRA.REPUL>
0

>  <SCORE.INTRA.REPUL.0>
0

>  <SCORE.INTRA.SOLV>
0

>  <SCORE.INTRA.SOLV.lig_0>
-33.1994

>  <SCORE.INTRA.VDW>
0

>  <SCORE.INTRA.VDW.0>
0

>  <SCORE.INTRA.norm>
0

>  <SCORE.RESTR>
0

>  <SCORE.RESTR.CAVITY>
0

>  <SCORE.RESTR.norm>
0

>  <SCORE.SYSTEM>
0

>  <SCORE.SYSTEM.CONST>
0

>  <SCORE.SYSTEM.DIHEDRAL>
0

>  <SCORE.SYSTEM.SOLV>
0

>  <SCORE.SYSTEM.norm>
0

>  <SCORE.heavy>
13

>  <SCORE.norm>
-1.84404

>  <RMSD>
4.895

$$$$
ligand
 OpenBabel11021811473D
libRbt.so/2013.1/901 2013/11/27
 13 14  0  0  0  0  0  0  0  0999 V2000
   36.4224   32.0815   26.7730 N   0  0  0  0  0  0  0  0  0  0  0  0
   37.5853   33.1513   26.8899 C   0  0  0  0  0  0  0  0  0  0  0  0
   38.5299   33.0101   27.8876 N   0  0  0  0  0  0  0  0  0  0  0  0
   37.4811   34.0628   26.0170 N   0  0  0  0  0  0  0  0  0  0  0  0
   36.5914   34.2446   25.0221 C   0  0  0  0  0  0  0  0  0  0  0  0
   35.5760   33.3767   24.8450 C   0  0  0  0  0  0  0  0  0  0  0  0
   35.4756   32.1594   25.8465 C   0  0  0  0  0  0  0  0  0  0  0  0
   34.5771   31.3993   25.6779 O   0  0  0  0  0  0  0  0  0  0  0  0
   34.6566   33.7678   23.6731 C   0  0  0  0  0  0  0  0  0  0  0  0
   35.1883   34.8880   23.1710 C   0  0  0  0  0  0  0  0  0  0  0  0
   36.3084   35.3399   23.8154 N   0  0  0  0  0  0  0  0  0  0  0  0
   33.4649   33.0233   23.2073 C   0  0  0  0  0  0  0  0  0  0  0  0
   32.5295   32.4165   22.9011 N   0  0  0  0  0  0  0  0  0  0  0  0
  1  2  1  0  0  0  0
  1  7  1  0  0  0  0
  2  3  1  0  0  0  0
  2  4  2  0  0  0  0
  4  5  1  0  0  0  0
  5  6  2  0  0  0  0
  5 11  1  0  0  0  0
  6  7  1  0  0  0  0
  6  9  1  0  0  0  0
  7  8  2  0  0  0  0
  9 10  2  0  0  0  0
  9 12  1  0  0  0  0
 10 11  1  0  0  0  0
 12 13  3  0  0  0  0
M  END
>  <CHROM.1>
35.72642451,33.26175116,25.09531610,0.48813090,0.60465846,2.42119561

>  <Name>
ligand

>  <RI>
0

>  <Rbt.Current_Directory>
/home/itssahil/PROJECTS/Mol_Feturizer/New_Systems/rnas/3GCA

>  <Rbt.Executable>
rbdock ($Id: //depot/dev/client3/rdock/2013.1/src/exe/rbdock.cxx#4 $)

>  <Rbt.Library>
libRbt.so (2013.1, Build901 2013/11/27)

>  <Rbt.Parameter_File>
/export/apps/rDock/src/rDock_2013.1_src/data/scripts/dock_solv.prm

>  <Rbt.Receptor>
prm/blind_docking_100.prm

>  <SCORE>
-24.0633

>  <SCORE.INTER>
-24.0633

>  <SCORE.INTER.CONST>
1

>  <SCORE.INTER.POLAR>
0

>  <SCORE.INTER.ROT>
0

>  <SCORE.INTER.SOLV>
11.3581

>  <SCORE.INTER.VDW>
-23.4282

>  <SCORE.INTER.norm>
-1.85103

>  <SCORE.INTRA>
0

>  <SCORE.INTRA.DIHEDRAL>
0

>  <SCORE.INTRA.DIHEDRAL.0>
0

>  <SCORE.INTRA.POLAR>
0

>  <SCORE.INTRA.POLAR.0>
0

>  <SCORE.INTRA.REPUL>
0

>  <SCORE.INTRA.REPUL.0>
0

>  <SCORE.INTRA.SOLV>
0

>  <SCORE.INTRA.SOLV.lig_0>
-33.1994

>  <SCORE.INTRA.VDW>
0

>  <SCORE.INTRA.VDW.0>
0

>  <SCORE.INTRA.norm>
0

>  <SCORE.RESTR>
0

>  <SCORE.RESTR.CAVITY>
0

>  <SCORE.RESTR.norm>
0

>  <SCORE.SYSTEM>
0

>  <SCORE.SYSTEM.CONST>
0

>  <SCORE.SYSTEM.DIHEDRAL>
0

>  <SCORE.SYSTEM.SOLV>
0

>  <SCORE.SYSTEM.norm>
0

>  <SCORE.heavy>
13

>  <SCORE.norm>
-1.85103

>  <RMSD>
4.896

$$$$
ligand
 OpenBabel11021811473D
libRbt.so/2013.1/901 2013/11/27
 13 14  0  0  0  0  0  0  0  0999 V2000
   36.4221   32.0760   26.7829 N   0  0  0  0  0  0  0  0  0  0  0  0
   37.5893   33.1412   26.8990 C   0  0  0  0  0  0  0  0  0  0  0  0
   38.5322   32.9980   27.8979 N   0  0  0  0  0  0  0  0  0  0  0  0
   37.4898   34.0515   26.0242 N   0  0  0  0  0  0  0  0  0  0  0  0
   36.6019   34.2352   25.0281 C   0  0  0  0  0  0  0  0  0  0  0  0
   35.5831   33.3711   24.8515 C   0  0  0  0  0  0  0  0  0  0  0  0
   35.4767   32.1561   25.8552 C   0  0  0  0  0  0  0  0  0  0  0  0
   34.5752   31.3994   25.6871 O   0  0  0  0  0  0  0  0  0  0  0  0
   34.6666   33.7638   23.6779 C   0  0  0  0  0  0  0  0  0  0  0  0
   35.2034   34.8808   23.1743 C   0  0  0  0  0  0  0  0  0  0  0  0
   36.3247   35.3293   23.8190 N   0  0  0  0  0  0  0  0  0  0  0  0
   33.4723   33.0234   23.2122 C   0  0  0  0  0  0  0  0  0  0  0  0
   32.5347   32.4198   22.9062 N   0  0  0  0  0  0  0  0  0  0  0  0
  1  2  1  0  0  0  0
  1  7  1  0  0  0  0
  2  3  1  0  0  0  0
  2  4  2  0  0  0  0
  4  5  1  0  0  0  0
  5  6  2  0  0  0  0
  5 11  1  0  0  0  0
  6  7  1  0  0  0  0
  6  9  1  0  0  0  0
  7  8  2  0  0  0  0
  9 10  2  0  0  0  0
  9 12  1  0  0  0  0
 10 11  1  0  0  0  0
 12 13  3  0  0  0  0
M  END
>  <CHROM.1>
35.73279409,33.25599370,25.10219891,0.49274800,0.60271950,2.41669397

>  <Name>
ligand

>  <RI>
0

>  <Rbt.Current_Directory>
/home/itssahil/PROJECTS/Mol_Feturizer/New_Systems/rnas/3GCA

>  <Rbt.Executable>
rbdock ($Id: //depot/dev/client3/rdock/2013.1/src/exe/rbdock.cxx#4 $)

>  <Rbt.Library>
libRbt.so (2013.1, Build901 2013/11/27)

>  <Rbt.Parameter_File>
/export/apps/rDock/src/rDock_2013.1_src/data/scripts/dock_solv.prm

>  <Rbt.Receptor>
prm/blind_docking_100.prm

>  <SCORE>
-24.0695

>  <SCORE.INTER>
-24.0695

>  <SCORE.INTER.CONST>
1

>  <SCORE.INTER.POLAR>
0

>  <SCORE.INTER.ROT>
0

>  <SCORE.INTER.SOLV>
11.3605

>  <SCORE.INTER.VDW>
-23.4332

>  <SCORE.INTER.norm>
-1.8515

>  <SCORE.INTRA>
0

>  <SCORE.INTRA.DIHEDRAL>
0

>  <SCORE.INTRA.DIHEDRAL.0>
0

>  <SCORE.INTRA.POLAR>
0

>  <SCORE.INTRA.POLAR.0>
0

>  <SCORE.INTRA.REPUL>
0

>  <SCORE.INTRA.REPUL.0>
0

>  <SCORE.INTRA.SOLV>
0

>  <SCORE.INTRA.SOLV.lig_0>
-33.1994

>  <SCORE.INTRA.VDW>
0

>  <SCORE.INTRA.VDW.0>
0

>  <SCORE.INTRA.norm>
0

>  <SCORE.RESTR>
0

>  <SCORE.RESTR.CAVITY>
0

>  <SCORE.RESTR.norm>
0

>  <SCORE.SYSTEM>
0

>  <SCORE.SYSTEM.CONST>
0

>  <SCORE.SYSTEM.DIHEDRAL>
0

>  <SCORE.SYSTEM.SOLV>
0

>  <SCORE.SYSTEM.norm>
0

>  <SCORE.heavy>
13

>  <SCORE.norm>
-1.8515

>  <RMSD>
4.896

$$$$
ligand
 OpenBabel11021811473D
libRbt.so/2013.1/901 2013/11/27
 13 14  0  0  0  0  0  0  0  0999 V2000
   36.4502   32.0641   26.7538 N   0  0  0  0  0  0  0  0  0  0  0  0
   37.5937   33.1525   26.8897 C   0  0  0  0  0  0  0  0  0  0  0  0
   38.5390   33.0125   27.8869 N   0  0  0  0  0  0  0  0  0  0  0  0
   37.4747   34.0756   26.0309 N   0  0  0  0  0  0  0  0  0  0  0  0
   36.5835   34.2571   25.0373 C   0  0  0  0  0  0  0  0  0  0  0  0
   35.5841   33.3742   24.8447 C   0  0  0  0  0  0  0  0  0  0  0  0
   35.5038   32.1397   25.8268 C   0  0  0  0  0  0  0  0  0  0  0  0
   34.6192   31.3665   25.6446 O   0  0  0  0  0  0  0  0  0  0  0  0
   34.6598   33.7672   23.6772 C   0  0  0  0  0  0  0  0  0  0  0  0
   35.1722   34.9044   23.1938 C   0  0  0  0  0  0  0  0  0  0  0  0
   36.2830   35.3660   23.8474 N   0  0  0  0  0  0  0  0  0  0  0  0
   33.4823   33.0090   23.1976 C   0  0  0  0  0  0  0  0  0  0  0  0
   32.5584   32.3905   22.8801 N   0  0  0  0  0  0  0  0  0  0  0  0
  1  2  1  0  0  0  0
  1  7  1  0  0  0  0
  2  3  1  0  0  0  0
  2  4  2  0  0  0  0
  4  5  1  0  0  0  0
  5  6  2  0  0  0  0
  5 11  1  0  0  0  0
  6  7  1  0  0  0  0
  6  9  1  0  0  0  0
  7  8  2  0  0  0  0
  9 10  2  0  0  0  0
  9 12  1  0  0  0  0
 10 11  1  0  0  0  0
 12 13  3  0  0  0  0
M  END
>  <CHROM.1>
35.73609091,33.25798459,25.09343395,0.47302419,0.61761340,2.44553975

>  <Name>
ligand

>  <RI>
0

>  <Rbt.Current_Directory>
/home/itssahil/PROJECTS/Mol_Feturizer/New_Systems/rnas/3GCA

>  <Rbt.Executable>
rbdock ($Id: //depot/dev/client3/rdock/2013.1/src/exe/rbdock.cxx#4 $)

>  <Rbt.Library>
libRbt.so (2013.1, Build901 2013/11/27)

>  <Rbt.Parameter_File>
/export/apps/rDock/src/rDock_2013.1_src/data/scripts/dock_solv.prm

>  <Rbt.Receptor>
prm/blind_docking_60.prm

>  <SCORE>
-24.0351

>  <SCORE.INTER>
-24.0351

>  <SCORE.INTER.CONST>
1

>  <SCORE.INTER.POLAR>
0

>  <SCORE.INTER.ROT>
0

>  <SCORE.INTER.SOLV>
11.3324

>  <SCORE.INTER.VDW>
-23.4009

>  <SCORE.INTER.norm>
-1.84885

>  <SCORE.INTRA>
0

>  <SCORE.INTRA.DIHEDRAL>
0

>  <SCORE.INTRA.DIHEDRAL.0>
0

>  <SCORE.INTRA.POLAR>
0

>  <SCORE.INTRA.POLAR.0>
0

>  <SCORE.INTRA.REPUL>
0

>  <SCORE.INTRA.REPUL.0>
0

>  <SCORE.INTRA.SOLV>
0

>  <SCORE.INTRA.SOLV.lig_0>
-33.1994

>  <SCORE.INTRA.VDW>
0

>  <SCORE.INTRA.VDW.0>
0

>  <SCORE.INTRA.norm>
0

>  <SCORE.RESTR>
0

>  <SCORE.RESTR.CAVITY>
0

>  <SCORE.RESTR.norm>
0

>  <SCORE.SYSTEM>
0

>  <SCORE.SYSTEM.CONST>
0

>  <SCORE.SYSTEM.DIHEDRAL>
0

>  <SCORE.SYSTEM.SOLV>
0

>  <SCORE.SYSTEM.norm>
0

>  <SCORE.heavy>
13

>  <SCORE.norm>
-1.84885

>  <RMSD>
4.896

$$$$
ligand
 OpenBabel11021811473D
libRbt.so/2013.1/901 2013/11/27
 13 14  0  0  0  0  0  0  0  0999 V2000
   36.4543   32.0622   26.7504 N   0  0  0  0  0  0  0  0  0  0  0  0
   37.5927   33.1551   26.8913 C   0  0  0  0  0  0  0  0  0  0  0  0
   38.5385   33.0149   27.8881 N   0  0  0  0  0  0  0  0  0  0  0  0
   37.4697   34.0815   26.0367 N   0  0  0  0  0  0  0  0  0  0  0  0
   36.5779   34.2634   25.0437 C   0  0  0  0  0  0  0  0  0  0  0  0
   35.5825   33.3768   24.8469 C   0  0  0  0  0  0  0  0  0  0  0  0
   35.5076   32.1376   25.8236 C   0  0  0  0  0  0  0  0  0  0  0  0
   34.6266   31.3612   25.6377 O   0  0  0  0  0  0  0  0  0  0  0  0
   34.6567   33.7709   23.6811 C   0  0  0  0  0  0  0  0  0  0  0  0
   35.1640   34.9126   23.2029 C   0  0  0  0  0  0  0  0  0  0  0  0
   36.2726   35.3763   23.8587 N   0  0  0  0  0  0  0  0  0  0  0  0
   33.4827   33.0095   23.1978 C   0  0  0  0  0  0  0  0  0  0  0  0
   32.5617   32.3883   22.8774 N   0  0  0  0  0  0  0  0  0  0  0  0
  1  2  1  0  0  0  0
  1  7  1  0  0  0  0
  2  3  1  0  0  0  0
  2  4  2  0  0  0  0
  4  5  1  0  0  0  0
  5  6  2  0  0  0  0
  5 11  1  0  0  0  0
  6  7  1  0  0  0  0
  6  9  1  0  0  0  0
  7  8  2  0  0  0  0
  9 10  2  0  0  0  0
  9 12  1  0  0  0  0
 10 11  1  0  0  0  0
 12 13  3  0  0  0  0
M  END
>  <CHROM.1>
35.73499127,33.26021992,25.09522769,0.46888842,0.62064848,2.45242560

>  <Name>
ligand

>  <RI>
0

>  <Rbt.Current_Directory>
/home/itssahil/PROJECTS/Mol_Feturizer/New_Systems/rnas/3GCA

>  <Rbt.Executable>
rbdock ($Id: //depot/dev/client3/rdock/2013.1/src/exe/rbdock.cxx#4 $)

>  <Rbt.Library>
libRbt.so (2013.1, Build901 2013/11/27)

>  <Rbt.Parameter_File>
/export/apps/rDock/src/rDock_2013.1_src/data/scripts/dock_solv.prm

>  <Rbt.Receptor>
prm/blind_docking_60.prm

>  <SCORE>
-24.0684

>  <SCORE.INTER>
-24.0684

>  <SCORE.INTER.CONST>
1

>  <SCORE.INTER.POLAR>
0

>  <SCORE.INTER.ROT>
0

>  <SCORE.INTER.SOLV>
11.3392

>  <SCORE.INTER.VDW>
-23.4253

>  <SCORE.INTER.norm>
-1.85142

>  <SCORE.INTRA>
0

>  <SCORE.INTRA.DIHEDRAL>
0

>  <SCORE.INTRA.DIHEDRAL.0>
0

>  <SCORE.INTRA.POLAR>
0

>  <SCORE.INTRA.POLAR.0>
0

>  <SCORE.INTRA.REPUL>
0

>  <SCORE.INTRA.REPUL.0>
0

>  <SCORE.INTRA.SOLV>
0

>  <SCORE.INTRA.SOLV.lig_0>
-33.1994

>  <SCORE.INTRA.VDW>
0

>  <SCORE.INTRA.VDW.0>
0

>  <SCORE.INTRA.norm>
0

>  <SCORE.RESTR>
0

>  <SCORE.RESTR.CAVITY>
0

>  <SCORE.RESTR.norm>
0

>  <SCORE.SYSTEM>
0

>  <SCORE.SYSTEM.CONST>
0

>  <SCORE.SYSTEM.DIHEDRAL>
0

>  <SCORE.SYSTEM.SOLV>
0

>  <SCORE.SYSTEM.norm>
0

>  <SCORE.heavy>
13

>  <SCORE.norm>
-1.85142

>  <RMSD>
4.896

$$$$
ligand
 OpenBabel11021811473D
libRbt.so/2013.1/901 2013/11/27
 13 14  0  0  0  0  0  0  0  0999 V2000
   36.4504   32.0445   26.7658 N   0  0  0  0  0  0  0  0  0  0  0  0
   37.5883   33.1370   26.9141 C   0  0  0  0  0  0  0  0  0  0  0  0
   38.5309   32.9935   27.9132 N   0  0  0  0  0  0  0  0  0  0  0  0
   37.4678   34.0664   26.0623 N   0  0  0  0  0  0  0  0  0  0  0  0
   36.5791   34.2517   25.0672 C   0  0  0  0  0  0  0  0  0  0  0  0
   35.5844   33.3656   24.8642 C   0  0  0  0  0  0  0  0  0  0  0  0
   35.5066   32.1230   25.8363 C   0  0  0  0  0  0  0  0  0  0  0  0
   34.6263   31.3472   25.6450 O   0  0  0  0  0  0  0  0  0  0  0  0
   34.6621   33.7636   23.6969 C   0  0  0  0  0  0  0  0  0  0  0  0
   35.1708   34.9070   23.2242 C   0  0  0  0  0  0  0  0  0  0  0  0
   36.2773   35.3686   23.8851 N   0  0  0  0  0  0  0  0  0  0  0  0
   33.4897   33.0038   23.2073 C   0  0  0  0  0  0  0  0  0  0  0  0
   32.5698   32.3835   22.8819 N   0  0  0  0  0  0  0  0  0  0  0  0
  1  2  1  0  0  0  0
  1  7  1  0  0  0  0
  2  3  1  0  0  0  0
  2  4  2  0  0  0  0
  4  5  1  0  0  0  0
  5  6  2  0  0  0  0
  5 11  1  0  0  0  0
  6  7  1  0  0  0  0
  6  9  1  0  0  0  0
  7  8  2  0  0  0  0
  9 10  2  0  0  0  0
  9 12  1  0  0  0  0
 10 11  1  0  0  0  0
 12 13  3  0  0  0  0
M  END
>  <CHROM.1>
35.73612589,33.24817632,25.11257788,0.47118697,0.62312997,2.45455769

>  <Name>
ligand

>  <RI>
0

>  <Rbt.Current_Directory>
/home/itssahil/PROJECTS/Mol_Feturizer/New_Systems/rnas/3GCA

>  <Rbt.Executable>
rbdock ($Id: //depot/dev/client3/rdock/2013.1/src/exe/rbdock.cxx#4 $)

>  <Rbt.Library>
libRbt.so (2013.1, Build901 2013/11/27)

>  <Rbt.Parameter_File>
/export/apps/rDock/src/rDock_2013.1_src/data/scripts/dock_solv.prm

>  <Rbt.Receptor>
prm/blind_docking_60.prm

>  <SCORE>
-24.0118

>  <SCORE.INTER>
-24.0118

>  <SCORE.INTER.CONST>
1

>  <SCORE.INTER.POLAR>
0

>  <SCORE.INTER.ROT>
0

>  <SCORE.INTER.SOLV>
11.4081

>  <SCORE.INTER.VDW>
-23.4106

>  <SCORE.INTER.norm>
-1.84706

>  <SCORE.INTRA>
0

>  <SCORE.INTRA.DIHEDRAL>
0

>  <SCORE.INTRA.DIHEDRAL.0>
0

>  <SCORE.INTRA.POLAR>
0

>  <SCORE.INTRA.POLAR.0>
0

>  <SCORE.INTRA.REPUL>
0

>  <SCORE.INTRA.REPUL.0>
0

>  <SCORE.INTRA.SOLV>
0

>  <SCORE.INTRA.SOLV.lig_0>
-33.1994

>  <SCORE.INTRA.VDW>
0

>  <SCORE.INTRA.VDW.0>
0

>  <SCORE.INTRA.norm>
0

>  <SCORE.RESTR>
0

>  <SCORE.RESTR.CAVITY>
0

>  <SCORE.RESTR.norm>
0

>  <SCORE.SYSTEM>
0

>  <SCORE.SYSTEM.CONST>
0

>  <SCORE.SYSTEM.DIHEDRAL>
0

>  <SCORE.SYSTEM.SOLV>
0

>  <SCORE.SYSTEM.norm>
0

>  <SCORE.heavy>
13

>  <SCORE.norm>
-1.84706

>  <RMSD>
4.896

$$$$
ligand
 OpenBabel11021811473D
libRbt.so/2013.1/901 2013/11/27
 13 14  0  0  0  0  0  0  0  0999 V2000
   36.4164   32.0690   26.7676 N   0  0  0  0  0  0  0  0  0  0  0  0
   37.5726   33.1454   26.8902 C   0  0  0  0  0  0  0  0  0  0  0  0
   38.5173   33.0055   27.8880 N   0  0  0  0  0  0  0  0  0  0  0  0
   37.4635   34.0602   26.0213 N   0  0  0  0  0  0  0  0  0  0  0  0
   36.5735   34.2410   25.0266 C   0  0  0  0  0  0  0  0  0  0  0  0
   35.5636   33.3677   24.8447 C   0  0  0  0  0  0  0  0  0  0  0  0
   35.4699   32.1453   25.8407 C   0  0  0  0  0  0  0  0  0  0  0  0
   34.5762   31.3804   25.6680 O   0  0  0  0  0  0  0  0  0  0  0  0
   34.6427   33.7584   23.6738 C   0  0  0  0  0  0  0  0  0  0  0  0
   35.1678   34.8841   23.1773 C   0  0  0  0  0  0  0  0  0  0  0  0
   36.2846   35.3400   23.8246 N   0  0  0  0  0  0  0  0  0  0  0  0
   33.4559   33.0087   23.2038 C   0  0  0  0  0  0  0  0  0  0  0  0
   32.5246   32.3975   22.8941 N   0  0  0  0  0  0  0  0  0  0  0  0
  1  2  1  0  0  0  0
  1  7  1  0  0  0  0
  2  3  1  0  0  0  0
  2  4  2  0  0  0  0
  4  5  1  0  0  0  0
  5  6  2  0  0  0  0
  5 11  1  0  0  0  0
  6  7  1  0  0  0  0
  6  9  1  0  0  0  0
  7  8  2  0  0  0  0
  9 10  2  0  0  0  0
  9 12  1  0  0  0  0
 10 11  1  0  0  0  0
 12 13  3  0  0  0  0
M  END
>  <CHROM.1>
35.71449053,33.25251910,25.09466567,0.48310746,0.60929844,2.42855645

>  <Name>
ligand

>  <RI>
0

>  <Rbt.Current_Directory>
/home/itssahil/PROJECTS/Mol_Feturizer/New_Systems/rnas/3GCA

>  <Rbt.Executable>
rbdock ($Id: //depot/dev/client3/rdock/2013.1/src/exe/rbdock.cxx#4 $)

>  <Rbt.Library>
libRbt.so (2013.1, Build901 2013/11/27)

>  <Rbt.Parameter_File>
/export/apps/rDock/src/rDock_2013.1_src/data/scripts/dock_solv.prm

>  <Rbt.Receptor>
prm/blind_docking_60.prm

>  <SCORE>
-24.049

>  <SCORE.INTER>
-24.049

>  <SCORE.INTER.CONST>
1

>  <SCORE.INTER.POLAR>
0

>  <SCORE.INTER.ROT>
0

>  <SCORE.INTER.SOLV>
11.4267

>  <SCORE.INTER.VDW>
-23.4416

>  <SCORE.INTER.norm>
-1.84993

>  <SCORE.INTRA>
0

>  <SCORE.INTRA.DIHEDRAL>
0

>  <SCORE.INTRA.DIHEDRAL.0>
0

>  <SCORE.INTRA.POLAR>
0

>  <SCORE.INTRA.POLAR.0>
0

>  <SCORE.INTRA.REPUL>
0

>  <SCORE.INTRA.REPUL.0>
0

>  <SCORE.INTRA.SOLV>
0

>  <SCORE.INTRA.SOLV.lig_0>
-33.1994

>  <SCORE.INTRA.VDW>
0

>  <SCORE.INTRA.VDW.0>
0

>  <SCORE.INTRA.norm>
0

>  <SCORE.RESTR>
0

>  <SCORE.RESTR.CAVITY>
0

>  <SCORE.RESTR.norm>
0

>  <SCORE.SYSTEM>
0

>  <SCORE.SYSTEM.CONST>
0

>  <SCORE.SYSTEM.DIHEDRAL>
0

>  <SCORE.SYSTEM.SOLV>
0

>  <SCORE.SYSTEM.norm>
0

>  <SCORE.heavy>
13

>  <SCORE.norm>
-1.84993

>  <RMSD>
4.896

$$$$
ligand
 OpenBabel11021811473D
libRbt.so/2013.1/901 2013/11/27
 13 14  0  0  0  0  0  0  0  0999 V2000
   36.4320   32.0968   26.7774 N   0  0  0  0  0  0  0  0  0  0  0  0
   37.5994   33.1619   26.8911 C   0  0  0  0  0  0  0  0  0  0  0  0
   38.5415   33.0216   27.8913 N   0  0  0  0  0  0  0  0  0  0  0  0
   37.5009   34.0695   26.0134 N   0  0  0  0  0  0  0  0  0  0  0  0
   36.6139   34.2503   25.0160 C   0  0  0  0  0  0  0  0  0  0  0  0
   35.5950   33.3860   24.8413 C   0  0  0  0  0  0  0  0  0  0  0  0
   35.4874   32.1742   25.8488 C   0  0  0  0  0  0  0  0  0  0  0  0
   34.5858   31.4172   25.6823 O   0  0  0  0  0  0  0  0  0  0  0  0
   34.6796   33.7752   23.6657 C   0  0  0  0  0  0  0  0  0  0  0  0
   35.2171   34.8905   23.1590 C   0  0  0  0  0  0  0  0  0  0  0  0
   36.3380   35.3407   23.8033 N   0  0  0  0  0  0  0  0  0  0  0  0
   33.4854   33.0337   23.2015 C   0  0  0  0  0  0  0  0  0  0  0  0
   32.5479   32.4295   22.8965 N   0  0  0  0  0  0  0  0  0  0  0  0
  1  2  1  0  0  0  0
  1  7  1  0  0  0  0
  2  3  1  0  0  0  0
  2  4  2  0  0  0  0
  4  5  1  0  0  0  0
  5  6  2  0  0  0  0
  5 11  1  0  0  0  0
  6  7  1  0  0  0  0
  6  9  1  0  0  0  0
  7  8  2  0  0  0  0
  9 10  2  0  0  0  0
  9 12  1  0  0  0  0
 10 11  1  0  0  0  0
 12 13  3  0  0  0  0
M  END
>  <CHROM.1>
35.74442459,33.27160139,25.09250077,0.49367511,0.60312003,2.41300672

>  <Name>
ligand

>  <RI>
0

>  <Rbt.Current_Directory>
/home/itssahil/PROJECTS/Mol_Feturizer/New_Systems/rnas/3GCA

>  <Rbt.Executable>
rbdock ($Id: //depot/dev/client3/rdock/2013.1/src/exe/rbdock.cxx#4 $)

>  <Rbt.Library>
libRbt.so (2013.1, Build901 2013/11/27)

>  <Rbt.Parameter_File>
/export/apps/rDock/src/rDock_2013.1_src/data/scripts/dock_solv.prm

>  <Rbt.Receptor>
prm/blind_docking_80.prm

>  <SCORE>
-24.0273

>  <SCORE.INTER>
-24.0273

>  <SCORE.INTER.CONST>
1

>  <SCORE.INTER.POLAR>
0

>  <SCORE.INTER.ROT>
0

>  <SCORE.INTER.SOLV>
11.2945

>  <SCORE.INTER.VDW>
-23.383

>  <SCORE.INTER.norm>
-1.84825

>  <SCORE.INTRA>
0

>  <SCORE.INTRA.DIHEDRAL>
0

>  <SCORE.INTRA.DIHEDRAL.0>
0

>  <SCORE.INTRA.POLAR>
0

>  <SCORE.INTRA.POLAR.0>
0

>  <SCORE.INTRA.REPUL>
0

>  <SCORE.INTRA.REPUL.0>
0

>  <SCORE.INTRA.SOLV>
0

>  <SCORE.INTRA.SOLV.lig_0>
-33.1994

>  <SCORE.INTRA.VDW>
0

>  <SCORE.INTRA.VDW.0>
0

>  <SCORE.INTRA.norm>
0

>  <SCORE.RESTR>
0

>  <SCORE.RESTR.CAVITY>
0

>  <SCORE.RESTR.norm>
0

>  <SCORE.SYSTEM>
0

>  <SCORE.SYSTEM.CONST>
0

>  <SCORE.SYSTEM.DIHEDRAL>
0

>  <SCORE.SYSTEM.SOLV>
0

>  <SCORE.SYSTEM.norm>
0

>  <SCORE.heavy>
13

>  <SCORE.norm>
-1.84825

>  <RMSD>
4.896

$$$$
ligand
 OpenBabel11021811473D
libRbt.so/2013.1/901 2013/11/27
 13 14  0  0  0  0  0  0  0  0999 V2000
   36.4525   32.0630   26.7507 N   0  0  0  0  0  0  0  0  0  0  0  0
   37.5902   33.1565   26.8932 C   0  0  0  0  0  0  0  0  0  0  0  0
   38.5353   33.0163   27.8905 N   0  0  0  0  0  0  0  0  0  0  0  0
   37.4672   34.0833   26.0390 N   0  0  0  0  0  0  0  0  0  0  0  0
   36.5761   34.2653   25.0455 C   0  0  0  0  0  0  0  0  0  0  0  0
   35.5814   33.3782   24.8474 C   0  0  0  0  0  0  0  0  0  0  0  0
   35.5066   32.1383   25.8232 C   0  0  0  0  0  0  0  0  0  0  0  0
   34.6262   31.3615   25.6361 O   0  0  0  0  0  0  0  0  0  0  0  0
   34.6562   33.7724   23.6811 C   0  0  0  0  0  0  0  0  0  0  0  0
   35.1632   34.9147   23.2040 C   0  0  0  0  0  0  0  0  0  0  0  0
   36.2710   35.3787   23.8609 N   0  0  0  0  0  0  0  0  0  0  0  0
   33.4831   33.0105   23.1964 C   0  0  0  0  0  0  0  0  0  0  0  0
   32.5627   32.3889   22.8749 N   0  0  0  0  0  0  0  0  0  0  0  0
  1  2  1  0  0  0  0
  1  7  1  0  0  0  0
  2  3  1  0  0  0  0
  2  4  2  0  0  0  0
  4  5  1  0  0  0  0
  5  6  2  0  0  0  0
  5 11  1  0  0  0  0
  6  7  1  0  0  0  0
  6  9  1  0  0  0  0
  7  8  2  0  0  0  0
  9 10  2  0  0  0  0
  9 12  1  0  0  0  0
 10 11  1  0  0  0  0
 12 13  3  0  0  0  0
M  END
>  <CHROM.1>
35.73378211,33.26153444,25.09571210,0.46888308,0.62163822,2.45303833

>  <Name>
ligand

>  <RI>
0

>  <Rbt.Current_Directory>
/home/itssahil/PROJECTS/Mol_Feturizer/New_Systems/rnas/3GCA

>  <Rbt.Executable>
rbdock ($Id: //depot/dev/client3/rdock/2013.1/src/exe/rbdock.cxx#4 $)

>  <Rbt.Library>
libRbt.so (2013.1, Build901 2013/11/27)

>  <Rbt.Parameter_File>
/export/apps/rDock/src/rDock_2013.1_src/data/scripts/dock_solv.prm

>  <Rbt.Receptor>
prm/blind_docking_80.prm

>  <SCORE>
-24.0648

>  <SCORE.INTER>
-24.0648

>  <SCORE.INTER.CONST>
1

>  <SCORE.INTER.POLAR>
0

>  <SCORE.INTER.ROT>
0

>  <SCORE.INTER.SOLV>
11.3542

>  <SCORE.INTER.VDW>
-23.4279

>  <SCORE.INTER.norm>
-1.85114

>  <SCORE.INTRA>
0

>  <SCORE.INTRA.DIHEDRAL>
0

>  <SCORE.INTRA.DIHEDRAL.0>
0

>  <SCORE.INTRA.POLAR>
0

>  <SCORE.INTRA.POLAR.0>
0

>  <SCORE.INTRA.REPUL>
0

>  <SCORE.INTRA.REPUL.0>
0

>  <SCORE.INTRA.SOLV>
0

>  <SCORE.INTRA.SOLV.lig_0>
-33.1994

>  <SCORE.INTRA.VDW>
0

>  <SCORE.INTRA.VDW.0>
0

>  <SCORE.INTRA.norm>
0

>  <SCORE.RESTR>
0

>  <SCORE.RESTR.CAVITY>
0

>  <SCORE.RESTR.norm>
0

>  <SCORE.SYSTEM>
0

>  <SCORE.SYSTEM.CONST>
0

>  <SCORE.SYSTEM.DIHEDRAL>
0

>  <SCORE.SYSTEM.SOLV>
0

>  <SCORE.SYSTEM.norm>
0

>  <SCORE.heavy>
13

>  <SCORE.norm>
-1.85114

>  <RMSD>
4.896

$$$$
ligand
 OpenBabel11021811473D
libRbt.so/2013.1/901 2013/11/27
 13 14  0  0  0  0  0  0  0  0999 V2000
   36.4353   32.0898   26.7932 N   0  0  0  0  0  0  0  0  0  0  0  0
   37.6001   33.1572   26.9128 C   0  0  0  0  0  0  0  0  0  0  0  0
   38.5450   33.0112   27.9095 N   0  0  0  0  0  0  0  0  0  0  0  0
   37.4970   34.0716   26.0428 N   0  0  0  0  0  0  0  0  0  0  0  0
   36.6071   34.2581   25.0490 C   0  0  0  0  0  0  0  0  0  0  0  0
   35.5901   33.3925   24.8697 C   0  0  0  0  0  0  0  0  0  0  0  0
   35.4882   32.1722   25.8675 C   0  0  0  0  0  0  0  0  0  0  0  0
   34.5882   31.4142   25.6970 O   0  0  0  0  0  0  0  0  0  0  0  0
   34.6707   33.7889   23.6995 C   0  0  0  0  0  0  0  0  0  0  0  0
   35.2041   34.9097   23.2007 C   0  0  0  0  0  0  0  0  0  0  0  0
   36.3253   35.3576   23.8459 N   0  0  0  0  0  0  0  0  0  0  0  0
   33.4775   33.0479   23.2321 C   0  0  0  0  0  0  0  0  0  0  0  0
   32.5409   32.4437   22.9245 N   0  0  0  0  0  0  0  0  0  0  0  0
  1  2  1  0  0  0  0
  1  7  1  0  0  0  0
  2  3  1  0  0  0  0
  2  4  2  0  0  0  0
  4  5  1  0  0  0  0
  5  6  2  0  0  0  0
  5 11  1  0  0  0  0
  6  7  1  0  0  0  0
  6  9  1  0  0  0  0
  7  8  2  0  0  0  0
  9 10  2  0  0  0  0
  9 12  1  0  0  0  0
 10 11  1  0  0  0  0
 12 13  3  0  0  0  0
M  END
>  <CHROM.1>
35.74042986,33.27648671,25.11959982,0.48927013,0.60310445,2.42368700

>  <Name>
ligand

>  <RI>
0

>  <Rbt.Current_Directory>
/home/itssahil/PROJECTS/Mol_Feturizer/New_Systems/rnas/3GCA

>  <Rbt.Executable>
rbdock ($Id: //depot/dev/client3/rdock/2013.1/src/exe/rbdock.cxx#4 $)

>  <Rbt.Library>
libRbt.so (2013.1, Build901 2013/11/27)

>  <Rbt.Parameter_File>
/export/apps/rDock/src/rDock_2013.1_src/data/scripts/dock_solv.prm

>  <Rbt.Receptor>
prm/blind_docking_80.prm

>  <SCORE>
-24.0285

>  <SCORE.INTER>
-24.0285

>  <SCORE.INTER.CONST>
1

>  <SCORE.INTER.POLAR>
0

>  <SCORE.INTER.ROT>
0

>  <SCORE.INTER.SOLV>
11.3039

>  <SCORE.INTER.VDW>
-23.3869

>  <SCORE.INTER.norm>
-1.84834

>  <SCORE.INTRA>
0

>  <SCORE.INTRA.DIHEDRAL>
0

>  <SCORE.INTRA.DIHEDRAL.0>
0

>  <SCORE.INTRA.POLAR>
0

>  <SCORE.INTRA.POLAR.0>
0

>  <SCORE.INTRA.REPUL>
0

>  <SCORE.INTRA.REPUL.0>
0

>  <SCORE.INTRA.SOLV>
0

>  <SCORE.INTRA.SOLV.lig_0>
-33.1994

>  <SCORE.INTRA.VDW>
0

>  <SCORE.INTRA.VDW.0>
0

>  <SCORE.INTRA.norm>
0

>  <SCORE.RESTR>
0

>  <SCORE.RESTR.CAVITY>
0

>  <SCORE.RESTR.norm>
0

>  <SCORE.SYSTEM>
0

>  <SCORE.SYSTEM.CONST>
0

>  <SCORE.SYSTEM.DIHEDRAL>
0

>  <SCORE.SYSTEM.SOLV>
0

>  <SCORE.SYSTEM.norm>
0

>  <SCORE.heavy>
13

>  <SCORE.norm>
-1.84834

>  <RMSD>
4.896

$$$$
ligand
 OpenBabel11021811473D
libRbt.so/2013.1/901 2013/11/27
 13 14  0  0  0  0  0  0  0  0999 V2000
   36.4379   32.0712   26.7591 N   0  0  0  0  0  0  0  0  0  0  0  0
   37.5740   33.1664   26.9008 C   0  0  0  0  0  0  0  0  0  0  0  0
   38.5191   33.0285   27.8985 N   0  0  0  0  0  0  0  0  0  0  0  0
   37.4499   34.0923   26.0457 N   0  0  0  0  0  0  0  0  0  0  0  0
   36.5587   34.2720   25.0518 C   0  0  0  0  0  0  0  0  0  0  0  0
   35.5653   33.3833   24.8544 C   0  0  0  0  0  0  0  0  0  0  0  0
   35.4920   32.1443   25.8314 C   0  0  0  0  0  0  0  0  0  0  0  0
   34.6128   31.3660   25.6449 O   0  0  0  0  0  0  0  0  0  0  0  0
   34.6398   33.7750   23.6875 C   0  0  0  0  0  0  0  0  0  0  0  0
   35.1453   34.9176   23.2094 C   0  0  0  0  0  0  0  0  0  0  0  0
   36.2522   35.3838   23.8661 N   0  0  0  0  0  0  0  0  0  0  0  0
   33.4679   33.0111   23.2034 C   0  0  0  0  0  0  0  0  0  0  0  0
   32.5484   32.3878   22.8823 N   0  0  0  0  0  0  0  0  0  0  0  0
  1  2  1  0  0  0  0
  1  7  1  0  0  0  0
  2  3  1  0  0  0  0
  2  4  2  0  0  0  0
  4  5  1  0  0  0  0
  5  6  2  0  0  0  0
  5 11  1  0  0  0  0
  6  7  1  0  0  0  0
  6  9  1  0  0  0  0
  7  8  2  0  0  0  0
  9 10  2  0  0  0  0
  9 12  1  0  0  0  0
 10 11  1  0  0  0  0
 12 13  3  0  0  0  0
M  END
>  <CHROM.1>
35.71781271,33.26710452,25.10286060,0.46769107,0.62269941,2.45276309

>  <Name>
ligand

>  <RI>
0

>  <Rbt.Current_Directory>
/home/itssahil/PROJECTS/Mol_Feturizer/New_Systems/rnas/3GCA

>  <Rbt.Executable>
rbdock ($Id: //depot/dev/client3/rdock/2013.1/src/exe/rbdock.cxx#4 $)

>  <Rbt.Library>
libRbt.so (2013.1, Build901 2013/11/27)

>  <Rbt.Parameter_File>
/export/apps/rDock/src/rDock_2013.1_src/data/scripts/dock_solv.prm

>  <Rbt.Receptor>
prm/pocket_docking_3.prm

>  <SCORE>
-24.0396

>  <SCORE.INTER>
-24.0396

>  <SCORE.INTER.CONST>
1

>  <SCORE.INTER.POLAR>
0

>  <SCORE.INTER.ROT>
0

>  <SCORE.INTER.SOLV>
11.429

>  <SCORE.INTER.VDW>
-23.436

>  <SCORE.INTER.norm>
-1.8492

>  <SCORE.INTRA>
0

>  <SCORE.INTRA.DIHEDRAL>
0

>  <SCORE.INTRA.DIHEDRAL.0>
0

>  <SCORE.INTRA.POLAR>
0

>  <SCORE.INTRA.POLAR.0>
0

>  <SCORE.INTRA.REPUL>
0

>  <SCORE.INTRA.REPUL.0>
0

>  <SCORE.INTRA.SOLV>
0

>  <SCORE.INTRA.SOLV.lig_0>
-33.1994

>  <SCORE.INTRA.VDW>
0

>  <SCORE.INTRA.VDW.0>
0

>  <SCORE.INTRA.norm>
0

>  <SCORE.RESTR>
0

>  <SCORE.RESTR.CAVITY>
0

>  <SCORE.RESTR.norm>
0

>  <SCORE.SYSTEM>
0

>  <SCORE.SYSTEM.CONST>
0

>  <SCORE.SYSTEM.DIHEDRAL>
0

>  <SCORE.SYSTEM.SOLV>
0

>  <SCORE.SYSTEM.norm>
0

>  <SCORE.heavy>
13

>  <SCORE.norm>
-1.8492

>  <RMSD>
4.896

$$$$
ligand
 OpenBabel11021811473D
libRbt.so/2013.1/901 2013/11/27
 13 14  0  0  0  0  0  0  0  0999 V2000
   36.4029   32.0795   26.7828 N   0  0  0  0  0  0  0  0  0  0  0  0
   37.5690   33.1463   26.8955 C   0  0  0  0  0  0  0  0  0  0  0  0
   38.5111   33.0081   27.8960 N   0  0  0  0  0  0  0  0  0  0  0  0
   37.4694   34.0529   26.0169 N   0  0  0  0  0  0  0  0  0  0  0  0
   36.5822   34.2315   25.0192 C   0  0  0  0  0  0  0  0  0  0  0  0
   35.5644   33.3658   24.8454 C   0  0  0  0  0  0  0  0  0  0  0  0
   35.4582   32.1548   25.8540 C   0  0  0  0  0  0  0  0  0  0  0  0
   34.5576   31.3966   25.6882 O   0  0  0  0  0  0  0  0  0  0  0  0
   34.6486   33.7527   23.6693 C   0  0  0  0  0  0  0  0  0  0  0  0
   35.1848   34.8682   23.1616 C   0  0  0  0  0  0  0  0  0  0  0  0
   36.3050   35.3204   23.8054 N   0  0  0  0  0  0  0  0  0  0  0  0
   33.4554   33.0092   23.2057 C   0  0  0  0  0  0  0  0  0  0  0  0
   32.5187   32.4035   22.9013 N   0  0  0  0  0  0  0  0  0  0  0  0
  1  2  1  0  0  0  0
  1  7  1  0  0  0  0
  2  3  1  0  0  0  0
  2  4  2  0  0  0  0
  4  5  1  0  0  0  0
  5  6  2  0  0  0  0
  5 11  1  0  0  0  0
  6  7  1  0  0  0  0
  6  9  1  0  0  0  0
  7  8  2  0  0  0  0
  9 10  2  0  0  0  0
  9 12  1  0  0  0  0
 10 11  1  0  0  0  0
 12 13  3  0  0  0  0
M  END
>  <CHROM.1>
35.71396305,33.25184173,25.09666624,0.49259581,0.60402748,2.41263108

>  <Name>
ligand

>  <RI>
0

>  <Rbt.Current_Directory>
/home/itssahil/PROJECTS/Mol_Feturizer/New_Systems/rnas/3GCA

>  <Rbt.Executable>
rbdock ($Id: //depot/dev/client3/rdock/2013.1/src/exe/rbdock.cxx#4 $)

>  <Rbt.Library>
libRbt.so (2013.1, Build901 2013/11/27)

>  <Rbt.Parameter_File>
/export/apps/rDock/src/rDock_2013.1_src/data/scripts/dock_solv.prm

>  <Rbt.Receptor>
prm/pocket_docking_3.prm

>  <SCORE>
-24.0633

>  <SCORE.INTER>
-24.0633

>  <SCORE.INTER.CONST>
1

>  <SCORE.INTER.POLAR>
0

>  <SCORE.INTER.ROT>
0

>  <SCORE.INTER.SOLV>
11.4514

>  <SCORE.INTER.VDW>
-23.4593

>  <SCORE.INTER.norm>
-1.85102

>  <SCORE.INTRA>
0

>  <SCORE.INTRA.DIHEDRAL>
0

>  <SCORE.INTRA.DIHEDRAL.0>
0

>  <SCORE.INTRA.POLAR>
0

>  <SCORE.INTRA.POLAR.0>
0

>  <SCORE.INTRA.REPUL>
0

>  <SCORE.INTRA.REPUL.0>
0

>  <SCORE.INTRA.SOLV>
0

>  <SCORE.INTRA.SOLV.lig_0>
-33.1994

>  <SCORE.INTRA.VDW>
0

>  <SCORE.INTRA.VDW.0>
0

>  <SCORE.INTRA.norm>
0

>  <SCORE.RESTR>
0

>  <SCORE.RESTR.CAVITY>
0

>  <SCORE.RESTR.norm>
0

>  <SCORE.SYSTEM>
0

>  <SCORE.SYSTEM.CONST>
0

>  <SCORE.SYSTEM.DIHEDRAL>
0

>  <SCORE.SYSTEM.SOLV>
0

>  <SCORE.SYSTEM.norm>
0

>  <SCORE.heavy>
13

>  <SCORE.norm>
-1.85102

>  <RMSD>
4.896

$$$$
ligand
 OpenBabel11021811473D
libRbt.so/2013.1/901 2013/11/27
 13 14  0  0  0  0  0  0  0  0999 V2000
   36.4017   32.0936   26.7919 N   0  0  0  0  0  0  0  0  0  0  0  0
   37.5676   33.1606   26.9046 C   0  0  0  0  0  0  0  0  0  0  0  0
   38.5090   33.0233   27.9059 N   0  0  0  0  0  0  0  0  0  0  0  0
   37.4686   34.0664   26.0252 N   0  0  0  0  0  0  0  0  0  0  0  0
   36.5823   34.2441   25.0266 C   0  0  0  0  0  0  0  0  0  0  0  0
   35.5647   33.3781   24.8526 C   0  0  0  0  0  0  0  0  0  0  0  0
   35.4578   32.1680   25.8622 C   0  0  0  0  0  0  0  0  0  0  0  0
   34.5574   31.4096   25.6963 O   0  0  0  0  0  0  0  0  0  0  0  0
   34.6498   33.7640   23.6755 C   0  0  0  0  0  0  0  0  0  0  0  0
   35.1863   34.8791   23.1673 C   0  0  0  0  0  0  0  0  0  0  0  0
   36.3060   35.3319   23.8117 N   0  0  0  0  0  0  0  0  0  0  0  0
   33.4570   33.0200   23.2115 C   0  0  0  0  0  0  0  0  0  0  0  0
   32.5206   32.4139   22.9069 N   0  0  0  0  0  0  0  0  0  0  0  0
  1  2  1  0  0  0  0
  1  7  1  0  0  0  0
  2  3  1  0  0  0  0
  2  4  2  0  0  0  0
  4  5  1  0  0  0  0
  5  6  2  0  0  0  0
  5 11  1  0  0  0  0
  6  7  1  0  0  0  0
  6  9  1  0  0  0  0
  7  8  2  0  0  0  0
  9 10  2  0  0  0  0
  9 12  1  0  0  0  0
 10 11  1  0  0  0  0
 12 13  3  0  0  0  0
M  END
>  <CHROM.1>
35.71405215,33.26441733,25.10415678,0.49317861,0.60469246,2.41145459

>  <Name>
ligand

>  <RI>
0

>  <Rbt.Current_Directory>
/home/itssahil/PROJECTS/Mol_Feturizer/New_Systems/rnas/3GCA

>  <Rbt.Executable>
rbdock ($Id: //depot/dev/client3/rdock/2013.1/src/exe/rbdock.cxx#4 $)

>  <Rbt.Library>
libRbt.so (2013.1, Build901 2013/11/27)

>  <Rbt.Parameter_File>
/export/apps/rDock/src/rDock_2013.1_src/data/scripts/dock_solv.prm

>  <Rbt.Receptor>
prm/pocket_docking_3.prm

>  <SCORE>
-24.0629

>  <SCORE.INTER>
-24.0629

>  <SCORE.INTER.CONST>
1

>  <SCORE.INTER.POLAR>
0

>  <SCORE.INTER.ROT>
0

>  <SCORE.INTER.SOLV>
11.4584

>  <SCORE.INTER.VDW>
-23.4614

>  <SCORE.INTER.norm>
-1.85099

>  <SCORE.INTRA>
0

>  <SCORE.INTRA.DIHEDRAL>
0

>  <SCORE.INTRA.DIHEDRAL.0>
0

>  <SCORE.INTRA.POLAR>
0

>  <SCORE.INTRA.POLAR.0>
0

>  <SCORE.INTRA.REPUL>
0

>  <SCORE.INTRA.REPUL.0>
0

>  <SCORE.INTRA.SOLV>
0

>  <SCORE.INTRA.SOLV.lig_0>
-33.1994

>  <SCORE.INTRA.VDW>
0

>  <SCORE.INTRA.VDW.0>
0

>  <SCORE.INTRA.norm>
0

>  <SCORE.RESTR>
0

>  <SCORE.RESTR.CAVITY>
0

>  <SCORE.RESTR.norm>
0

>  <SCORE.SYSTEM>
0

>  <SCORE.SYSTEM.CONST>
0

>  <SCORE.SYSTEM.DIHEDRAL>
0

>  <SCORE.SYSTEM.SOLV>
0

>  <SCORE.SYSTEM.norm>
0

>  <SCORE.heavy>
13

>  <SCORE.norm>
-1.85099

>  <RMSD>
4.896

$$$$
ligand
 OpenBabel11021811473D
libRbt.so/2013.1/901 2013/11/27
 13 14  0  0  0  0  0  0  0  0999 V2000
   36.4078   32.1011   26.7824 N   0  0  0  0  0  0  0  0  0  0  0  0
   37.5626   33.1791   26.9049 C   0  0  0  0  0  0  0  0  0  0  0  0
   38.4989   33.0487   27.9119 N   0  0  0  0  0  0  0  0  0  0  0  0
   37.4604   34.0858   26.0267 N   0  0  0  0  0  0  0  0  0  0  0  0
   36.5788   34.2571   25.0229 C   0  0  0  0  0  0  0  0  0  0  0  0
   35.5708   33.3817   24.8406 C   0  0  0  0  0  0  0  0  0  0  0  0
   35.4691   32.1685   25.8470 C   0  0  0  0  0  0  0  0  0  0  0  0
   34.5772   31.4017   25.6737 O   0  0  0  0  0  0  0  0  0  0  0  0
   34.6596   33.7613   23.6585 C   0  0  0  0  0  0  0  0  0  0  0  0
   35.1885   34.8826   23.1561 C   0  0  0  0  0  0  0  0  0  0  0  0
   36.2997   35.3449   23.8086 N   0  0  0  0  0  0  0  0  0  0  0  0
   33.4771   33.0068   23.1854 C   0  0  0  0  0  0  0  0  0  0  0  0
   32.5486   32.3924   22.8735 N   0  0  0  0  0  0  0  0  0  0  0  0
  1  2  1  0  0  0  0
  1  7  1  0  0  0  0
  2  3  1  0  0  0  0
  2  4  2  0  0  0  0
  4  5  1  0  0  0  0
  5  6  2  0  0  0  0
  5 11  1  0  0  0  0
  6  7  1  0  0  0  0
  6  9  1  0  0  0  0
  7  8  2  0  0  0  0
  9 10  2  0  0  0  0
  9 12  1  0  0  0  0
 10 11  1  0  0  0  0
 12 13  3  0  0  0  0
M  END
>  <CHROM.1>
35.71959486,33.26893318,25.09285864,0.48953332,0.61587774,2.41569850

>  <Name>
ligand

>  <RI>
0

>  <Rbt.Current_Directory>
/home/itssahil/PROJECTS/Mol_Feturizer/New_Systems/rnas/3GCA

>  <Rbt.Executable>
rbdock ($Id: //depot/dev/client3/rdock/2013.1/src/exe/rbdock.cxx#4 $)

>  <Rbt.Library>
libRbt.so (2013.1, Build901 2013/11/27)

>  <Rbt.Parameter_File>
/export/apps/rDock/src/rDock_2013.1_src/data/scripts/dock_solv.prm

>  <Rbt.Receptor>
prm/pocket_docking_3.prm

>  <SCORE>
-24.0496

>  <SCORE.INTER>
-24.0496

>  <SCORE.INTER.CONST>
1

>  <SCORE.INTER.POLAR>
0

>  <SCORE.INTER.ROT>
0

>  <SCORE.INTER.SOLV>
11.4931

>  <SCORE.INTER.VDW>
-23.4641

>  <SCORE.INTER.norm>
-1.84997

>  <SCORE.INTRA>
0

>  <SCORE.INTRA.DIHEDRAL>
0

>  <SCORE.INTRA.DIHEDRAL.0>
0

>  <SCORE.INTRA.POLAR>
0

>  <SCORE.INTRA.POLAR.0>
0

>  <SCORE.INTRA.REPUL>
0

>  <SCORE.INTRA.REPUL.0>
0

>  <SCORE.INTRA.SOLV>
0

>  <SCORE.INTRA.SOLV.lig_0>
-33.1994

>  <SCORE.INTRA.VDW>
0

>  <SCORE.INTRA.VDW.0>
0

>  <SCORE.INTRA.norm>
0

>  <SCORE.RESTR>
0

>  <SCORE.RESTR.CAVITY>
0

>  <SCORE.RESTR.norm>
0

>  <SCORE.SYSTEM>
0

>  <SCORE.SYSTEM.CONST>
0

>  <SCORE.SYSTEM.DIHEDRAL>
0

>  <SCORE.SYSTEM.SOLV>
0

>  <SCORE.SYSTEM.norm>
0

>  <SCORE.heavy>
13

>  <SCORE.norm>
-1.84997

>  <RMSD>
4.896

$$$$
ligand
 OpenBabel11021811473D
libRbt.so/2013.1/901 2013/11/27
 13 14  0  0  0  0  0  0  0  0999 V2000
   36.4650   32.1168   26.7811 N   0  0  0  0  0  0  0  0  0  0  0  0
   37.6148   33.1987   26.9136 C   0  0  0  0  0  0  0  0  0  0  0  0
   38.5579   33.0574   27.9127 N   0  0  0  0  0  0  0  0  0  0  0  0
   37.5025   34.1187   26.0506 N   0  0  0  0  0  0  0  0  0  0  0  0
   36.6138   34.3013   25.0550 C   0  0  0  0  0  0  0  0  0  0  0  0
   35.6092   33.4235   24.8650 C   0  0  0  0  0  0  0  0  0  0  0  0
   35.5202   32.1939   25.8525 C   0  0  0  0  0  0  0  0  0  0  0  0
   34.6312   31.4253   25.6725 O   0  0  0  0  0  0  0  0  0  0  0  0
   34.6889   33.8169   23.6946 C   0  0  0  0  0  0  0  0  0  0  0  0
   35.2088   34.9489   23.2068 C   0  0  0  0  0  0  0  0  0  0  0  0
   36.3216   35.4066   23.8598 N   0  0  0  0  0  0  0  0  0  0  0  0
   33.5074   33.0638   23.2167 C   0  0  0  0  0  0  0  0  0  0  0  0
   32.5802   32.4495   22.9007 N   0  0  0  0  0  0  0  0  0  0  0  0
  1  2  1  0  0  0  0
  1  7  1  0  0  0  0
  2  3  1  0  0  0  0
  2  4  2  0  0  0  0
  4  5  1  0  0  0  0
  5  6  2  0  0  0  0
  5 11  1  0  0  0  0
  6  7  1  0  0  0  0
  6  9  1  0  0  0  0
  7  8  2  0  0  0  0
  9 10  2  0  0  0  0
  9 12  1  0  0  0  0
 10 11  1  0  0  0  0
 12 13  3  0  0  0  0
M  END
>  <CHROM.1>
35.76022335,33.30751588,25.11446029,0.47975324,0.61470346,2.43721168

>  <Name>
ligand

>  <RI>
0

>  <Rbt.Current_Directory>
/home/itssahil/PROJECTS/Mol_Feturizer/New_Systems/rnas/3GCA

>  <Rbt.Executable>
rbdock ($Id: //depot/dev/client3/rdock/2013.1/src/exe/rbdock.cxx#4 $)

>  <Rbt.Library>
libRbt.so (2013.1, Build901 2013/11/27)

>  <Rbt.Parameter_File>
/export/apps/rDock/src/rDock_2013.1_src/data/scripts/dock_solv.prm

>  <Rbt.Receptor>
prm/pocket_docking_4.prm

>  <SCORE>
-24.0132

>  <SCORE.INTER>
-24.0132

>  <SCORE.INTER.CONST>
1

>  <SCORE.INTER.POLAR>
0

>  <SCORE.INTER.ROT>
0

>  <SCORE.INTER.SOLV>
11.219

>  <SCORE.INTER.VDW>
-23.3485

>  <SCORE.INTER.norm>
-1.84717

>  <SCORE.INTRA>
0

>  <SCORE.INTRA.DIHEDRAL>
0

>  <SCORE.INTRA.DIHEDRAL.0>
0

>  <SCORE.INTRA.POLAR>
0

>  <SCORE.INTRA.POLAR.0>
0

>  <SCORE.INTRA.REPUL>
0

>  <SCORE.INTRA.REPUL.0>
0

>  <SCORE.INTRA.SOLV>
0

>  <SCORE.INTRA.SOLV.lig_0>
-33.1994

>  <SCORE.INTRA.VDW>
0

>  <SCORE.INTRA.VDW.0>
0

>  <SCORE.INTRA.norm>
0

>  <SCORE.RESTR>
0

>  <SCORE.RESTR.CAVITY>
0

>  <SCORE.RESTR.norm>
0

>  <SCORE.SYSTEM>
0

>  <SCORE.SYSTEM.CONST>
0

>  <SCORE.SYSTEM.DIHEDRAL>
0

>  <SCORE.SYSTEM.SOLV>
0

>  <SCORE.SYSTEM.norm>
0

>  <SCORE.heavy>
13

>  <SCORE.norm>
-1.84717

>  <RMSD>
4.896

$$$$
ligand
 OpenBabel11021811473D
libRbt.so/2013.1/901 2013/11/27
 13 14  0  0  0  0  0  0  0  0999 V2000
   36.4082   32.0867   26.7880 N   0  0  0  0  0  0  0  0  0  0  0  0
   37.5696   33.1578   26.9078 C   0  0  0  0  0  0  0  0  0  0  0  0
   38.5076   33.0216   27.9125 N   0  0  0  0  0  0  0  0  0  0  0  0
   37.4707   34.0653   26.0302 N   0  0  0  0  0  0  0  0  0  0  0  0
   36.5876   34.2422   25.0286 C   0  0  0  0  0  0  0  0  0  0  0  0
   35.5740   33.3728   24.8485 C   0  0  0  0  0  0  0  0  0  0  0  0
   35.4676   32.1599   25.8548 C   0  0  0  0  0  0  0  0  0  0  0  0
   34.5707   31.3985   25.6835 O   0  0  0  0  0  0  0  0  0  0  0  0
   34.6622   33.7581   23.6687 C   0  0  0  0  0  0  0  0  0  0  0  0
   35.1965   34.8764   23.1653 C   0  0  0  0  0  0  0  0  0  0  0  0
   36.3120   35.3319   23.8151 N   0  0  0  0  0  0  0  0  0  0  0  0
   33.4741   33.0107   23.1983 C   0  0  0  0  0  0  0  0  0  0  0  0
   32.5412   32.4020   22.8886 N   0  0  0  0  0  0  0  0  0  0  0  0
  1  2  1  0  0  0  0
  1  7  1  0  0  0  0
  2  3  1  0  0  0  0
  2  4  2  0  0  0  0
  4  5  1  0  0  0  0
  5  6  2  0  0  0  0
  5 11  1  0  0  0  0
  6  7  1  0  0  0  0
  6  9  1  0  0  0  0
  7  8  2  0  0  0  0
  9 10  2  0  0  0  0
  9 12  1  0  0  0  0
 10 11  1  0  0  0  0
 12 13  3  0  0  0  0
M  END
>  <CHROM.1>
35.72274701,33.25905231,25.10036735,0.49296461,0.61009797,2.41397608

>  <Name>
ligand

>  <RI>
0

>  <Rbt.Current_Directory>
/home/itssahil/PROJECTS/Mol_Feturizer/New_Systems/rnas/3GCA

>  <Rbt.Executable>
rbdock ($Id: //depot/dev/client3/rdock/2013.1/src/exe/rbdock.cxx#4 $)

>  <Rbt.Library>
libRbt.so (2013.1, Build901 2013/11/27)

>  <Rbt.Parameter_File>
/export/apps/rDock/src/rDock_2013.1_src/data/scripts/dock_solv.prm

>  <Rbt.Receptor>
prm/pocket_docking_4.prm

>  <SCORE>
-24.0625

>  <SCORE.INTER>
-24.0625

>  <SCORE.INTER.CONST>
1

>  <SCORE.INTER.POLAR>
0

>  <SCORE.INTER.ROT>
0

>  <SCORE.INTER.SOLV>
11.4702

>  <SCORE.INTER.VDW>
-23.4651

>  <SCORE.INTER.norm>
-1.85096

>  <SCORE.INTRA>
0

>  <SCORE.INTRA.DIHEDRAL>
0

>  <SCORE.INTRA.DIHEDRAL.0>
0

>  <SCORE.INTRA.POLAR>
0

>  <SCORE.INTRA.POLAR.0>
0

>  <SCORE.INTRA.REPUL>
0

>  <SCORE.INTRA.REPUL.0>
0

>  <SCORE.INTRA.SOLV>
0

>  <SCORE.INTRA.SOLV.lig_0>
-33.1994

>  <SCORE.INTRA.VDW>
0

>  <SCORE.INTRA.VDW.0>
0

>  <SCORE.INTRA.norm>
0

>  <SCORE.RESTR>
0

>  <SCORE.RESTR.CAVITY>
0

>  <SCORE.RESTR.norm>
0

>  <SCORE.SYSTEM>
0

>  <SCORE.SYSTEM.CONST>
0

>  <SCORE.SYSTEM.DIHEDRAL>
0

>  <SCORE.SYSTEM.SOLV>
0

>  <SCORE.SYSTEM.norm>
0

>  <SCORE.heavy>
13

>  <SCORE.norm>
-1.85096

>  <RMSD>
4.896

$$$$
ligand
 OpenBabel11021811473D
libRbt.so/2013.1/901 2013/11/27
 13 14  0  0  0  0  0  0  0  0999 V2000
   36.4422   32.0575   26.7732 N   0  0  0  0  0  0  0  0  0  0  0  0
   37.5950   33.1362   26.9060 C   0  0  0  0  0  0  0  0  0  0  0  0
   38.5378   32.9920   27.9049 N   0  0  0  0  0  0  0  0  0  0  0  0
   37.4851   34.0569   26.0434 N   0  0  0  0  0  0  0  0  0  0  0  0
   36.5968   34.2422   25.0479 C   0  0  0  0  0  0  0  0  0  0  0  0
   35.5898   33.3673   24.8576 C   0  0  0  0  0  0  0  0  0  0  0  0
   35.4975   32.1376   25.8447 C   0  0  0  0  0  0  0  0  0  0  0  0
   34.6064   31.3714   25.6645 O   0  0  0  0  0  0  0  0  0  0  0  0
   34.6705   33.7637   23.6875 C   0  0  0  0  0  0  0  0  0  0  0  0
   35.1935   34.8944   23.2001 C   0  0  0  0  0  0  0  0  0  0  0  0
   36.3075   35.3488   23.8532 N   0  0  0  0  0  0  0  0  0  0  0  0
   33.4869   33.0139   23.2095 C   0  0  0  0  0  0  0  0  0  0  0  0
   32.5580   32.4023   22.8933 N   0  0  0  0  0  0  0  0  0  0  0  0
  1  2  1  0  0  0  0
  1  7  1  0  0  0  0
  2  3  1  0  0  0  0
  2  4  2  0  0  0  0
  4  5  1  0  0  0  0
  5  6  2  0  0  0  0
  5 11  1  0  0  0  0
  6  7  1  0  0  0  0
  6  9  1  0  0  0  0
  7  8  2  0  0  0  0
  9 10  2  0  0  0  0
  9 12  1  0  0  0  0
 10 11  1  0  0  0  0
 12 13  3  0  0  0  0
M  END
>  <CHROM.1>
35.74053564,33.25079974,25.10708737,0.48222493,0.61286610,2.43617468

>  <Name>
ligand

>  <RI>
0

>  <Rbt.Current_Directory>
/home/itssahil/PROJECTS/Mol_Feturizer/New_Systems/rnas/3GCA

>  <Rbt.Executable>
rbdock ($Id: //depot/dev/client3/rdock/2013.1/src/exe/rbdock.cxx#4 $)

>  <Rbt.Library>
libRbt.so (2013.1, Build901 2013/11/27)

>  <Rbt.Parameter_File>
/export/apps/rDock/src/rDock_2013.1_src/data/scripts/dock_solv.prm

>  <Rbt.Receptor>
prm/pocket_docking_4.prm

>  <SCORE>
-24.0279

>  <SCORE.INTER>
-24.0279

>  <SCORE.INTER.CONST>
1

>  <SCORE.INTER.POLAR>
0

>  <SCORE.INTER.ROT>
0

>  <SCORE.INTER.SOLV>
11.3572

>  <SCORE.INTER.VDW>
-23.4043

>  <SCORE.INTER.norm>
-1.8483

>  <SCORE.INTRA>
0

>  <SCORE.INTRA.DIHEDRAL>
0

>  <SCORE.INTRA.DIHEDRAL.0>
0

>  <SCORE.INTRA.POLAR>
0

>  <SCORE.INTRA.POLAR.0>
0

>  <SCORE.INTRA.REPUL>
0

>  <SCORE.INTRA.REPUL.0>
0

>  <SCORE.INTRA.SOLV>
0

>  <SCORE.INTRA.SOLV.lig_0>
-33.1994

>  <SCORE.INTRA.VDW>
0

>  <SCORE.INTRA.VDW.0>
0

>  <SCORE.INTRA.norm>
0

>  <SCORE.RESTR>
0

>  <SCORE.RESTR.CAVITY>
0

>  <SCORE.RESTR.norm>
0

>  <SCORE.SYSTEM>
0

>  <SCORE.SYSTEM.CONST>
0

>  <SCORE.SYSTEM.DIHEDRAL>
0

>  <SCORE.SYSTEM.SOLV>
0

>  <SCORE.SYSTEM.norm>
0

>  <SCORE.heavy>
13

>  <SCORE.norm>
-1.8483

>  <RMSD>
4.896

$$$$
ligand
 OpenBabel11021811473D
libRbt.so/2013.1/901 2013/11/27
 13 14  0  0  0  0  0  0  0  0999 V2000
   36.4547   32.1214   26.7831 N   0  0  0  0  0  0  0  0  0  0  0  0
   37.6137   33.1945   26.9070 C   0  0  0  0  0  0  0  0  0  0  0  0
   38.5559   33.0530   27.9070 N   0  0  0  0  0  0  0  0  0  0  0  0
   37.5091   34.1087   26.0369 N   0  0  0  0  0  0  0  0  0  0  0  0
   36.6218   34.2910   25.0400 C   0  0  0  0  0  0  0  0  0  0  0  0
   35.6097   33.4203   24.8570 C   0  0  0  0  0  0  0  0  0  0  0  0
   35.5104   32.1993   25.8541 C   0  0  0  0  0  0  0  0  0  0  0  0
   34.6149   31.4368   25.6803 O   0  0  0  0  0  0  0  0  0  0  0  0
   34.6925   33.8124   23.6837 C   0  0  0  0  0  0  0  0  0  0  0  0
   35.2219   34.9360   23.1870 C   0  0  0  0  0  0  0  0  0  0  0  0
   36.3387   35.3894   23.8363 N   0  0  0  0  0  0  0  0  0  0  0  0
   33.5046   33.0656   23.2119 C   0  0  0  0  0  0  0  0  0  0  0  0
   32.5721   32.4567   22.9009 N   0  0  0  0  0  0  0  0  0  0  0  0
  1  2  1  0  0  0  0
  1  7  1  0  0  0  0
  2  3  1  0  0  0  0
  2  4  2  0  0  0  0
  4  5  1  0  0  0  0
  5  6  2  0  0  0  0
  5 11  1  0  0  0  0
  6  7  1  0  0  0  0
  6  9  1  0  0  0  0
  7  8  2  0  0  0  0
  9 10  2  0  0  0  0
  9 12  1  0  0  0  0
 10 11  1  0  0  0  0
 12 13  3  0  0  0  0
M  END
>  <CHROM.1>
35.75978373,33.30501417,25.10736553,0.48746766,0.60903409,2.42497219

>  <Name>
ligand

>  <RI>
0

>  <Rbt.Current_Directory>
/home/itssahil/PROJECTS/Mol_Feturizer/New_Systems/rnas/3GCA

>  <Rbt.Executable>
rbdock ($Id: //depot/dev/client3/rdock/2013.1/src/exe/rbdock.cxx#4 $)

>  <Rbt.Library>
libRbt.so (2013.1, Build901 2013/11/27)

>  <Rbt.Parameter_File>
/export/apps/rDock/src/rDock_2013.1_src/data/scripts/dock_solv.prm

>  <Rbt.Receptor>
prm/pocket_docking_4.prm

>  <SCORE>
-24.0119

>  <SCORE.INTER>
-24.0119

>  <SCORE.INTER.CONST>
1

>  <SCORE.INTER.POLAR>
0

>  <SCORE.INTER.ROT>
0

>  <SCORE.INTER.SOLV>
11.2195

>  <SCORE.INTER.VDW>
-23.3478

>  <SCORE.INTER.norm>
-1.84707

>  <SCORE.INTRA>
0

>  <SCORE.INTRA.DIHEDRAL>
0

>  <SCORE.INTRA.DIHEDRAL.0>
0

>  <SCORE.INTRA.POLAR>
0

>  <SCORE.INTRA.POLAR.0>
0

>  <SCORE.INTRA.REPUL>
0

>  <SCORE.INTRA.REPUL.0>
0

>  <SCORE.INTRA.SOLV>
0

>  <SCORE.INTRA.SOLV.lig_0>
-33.1994

>  <SCORE.INTRA.VDW>
0

>  <SCORE.INTRA.VDW.0>
0

>  <SCORE.INTRA.norm>
0

>  <SCORE.RESTR>
0

>  <SCORE.RESTR.CAVITY>
0

>  <SCORE.RESTR.norm>
0

>  <SCORE.SYSTEM>
0

>  <SCORE.SYSTEM.CONST>
0

>  <SCORE.SYSTEM.DIHEDRAL>
0

>  <SCORE.SYSTEM.SOLV>
0

>  <SCORE.SYSTEM.norm>
0

>  <SCORE.heavy>
13

>  <SCORE.norm>
-1.84707

>  <RMSD>
4.896

$$$$
ligand
 OpenBabel11021811473D
libRbt.so/2013.1/901 2013/11/27
 13 14  0  0  0  0  0  0  0  0999 V2000
   36.4249   32.0804   26.7725 N   0  0  0  0  0  0  0  0  0  0  0  0
   37.5887   33.1493   26.8885 C   0  0  0  0  0  0  0  0  0  0  0  0
   38.5334   33.0078   27.8861 N   0  0  0  0  0  0  0  0  0  0  0  0
   37.4850   34.0604   26.0151 N   0  0  0  0  0  0  0  0  0  0  0  0
   36.5952   34.2425   25.0204 C   0  0  0  0  0  0  0  0  0  0  0  0
   35.5791   33.3752   24.8440 C   0  0  0  0  0  0  0  0  0  0  0  0
   35.4780   32.1585   25.8462 C   0  0  0  0  0  0  0  0  0  0  0  0
   34.5788   31.3991   25.6782 O   0  0  0  0  0  0  0  0  0  0  0  0
   34.6597   33.7665   23.6721 C   0  0  0  0  0  0  0  0  0  0  0  0
   35.1921   34.8860   23.1694 C   0  0  0  0  0  0  0  0  0  0  0  0
   36.3127   35.3373   23.8133 N   0  0  0  0  0  0  0  0  0  0  0  0
   33.4673   33.0227   23.2070 C   0  0  0  0  0  0  0  0  0  0  0  0
   32.5313   32.4164   22.9014 N   0  0  0  0  0  0  0  0  0  0  0  0
  1  2  1  0  0  0  0
  1  7  1  0  0  0  0
  2  3  1  0  0  0  0
  2  4  2  0  0  0  0
  4  5  1  0  0  0  0
  5  6  2  0  0  0  0
  5 11  1  0  0  0  0
  6  7  1  0  0  0  0
  6  9  1  0  0  0  0
  7  8  2  0  0  0  0
  9 10  2  0  0  0  0
  9 12  1  0  0  0  0
 10 11  1  0  0  0  0
 12 13  3  0  0  0  0
M  END
>  <CHROM.1>
35.72944018,33.26029233,25.09435911,0.48865179,0.60395035,2.42038472

>  <Name>
ligand

>  <RI>
0

>  <Rbt.Current_Directory>
/home/itssahil/PROJECTS/Mol_Feturizer/New_Systems/rnas/3GCA

>  <Rbt.Executable>
rbdock ($Id: //depot/dev/client3/rdock/2013.1/src/exe/rbdock.cxx#4 $)

>  <Rbt.Library>
libRbt.so (2013.1, Build901 2013/11/27)

>  <Rbt.Parameter_File>
/export/apps/rDock/src/rDock_2013.1_src/data/scripts/dock_solv.prm

>  <Rbt.Receptor>
prm/pocket_docking_4.prm

>  <SCORE>
-24.0639

>  <SCORE.INTER>
-24.0639

>  <SCORE.INTER.CONST>
1

>  <SCORE.INTER.POLAR>
0

>  <SCORE.INTER.ROT>
0

>  <SCORE.INTER.SOLV>
11.3424

>  <SCORE.INTER.VDW>
-23.4234

>  <SCORE.INTER.norm>
-1.85107

>  <SCORE.INTRA>
0

>  <SCORE.INTRA.DIHEDRAL>
0

>  <SCORE.INTRA.DIHEDRAL.0>
0

>  <SCORE.INTRA.POLAR>
0

>  <SCORE.INTRA.POLAR.0>
0

>  <SCORE.INTRA.REPUL>
0

>  <SCORE.INTRA.REPUL.0>
0

>  <SCORE.INTRA.SOLV>
0

>  <SCORE.INTRA.SOLV.lig_0>
-33.1994

>  <SCORE.INTRA.VDW>
0

>  <SCORE.INTRA.VDW.0>
0

>  <SCORE.INTRA.norm>
0

>  <SCORE.RESTR>
0

>  <SCORE.RESTR.CAVITY>
0

>  <SCORE.RESTR.norm>
0

>  <SCORE.SYSTEM>
0

>  <SCORE.SYSTEM.CONST>
0

>  <SCORE.SYSTEM.DIHEDRAL>
0

>  <SCORE.SYSTEM.SOLV>
0

>  <SCORE.SYSTEM.norm>
0

>  <SCORE.heavy>
13

>  <SCORE.norm>
-1.85107

>  <RMSD>
4.896

$$$$
ligand
 OpenBabel11021811473D
libRbt.so/2013.1/901 2013/11/27
 13 14  0  0  0  0  0  0  0  0999 V2000
   36.4225   32.0686   26.7779 N   0  0  0  0  0  0  0  0  0  0  0  0
   37.5638   33.1586   26.9188 C   0  0  0  0  0  0  0  0  0  0  0  0
   38.5029   33.0217   27.9222 N   0  0  0  0  0  0  0  0  0  0  0  0
   37.4491   34.0798   26.0574 N   0  0  0  0  0  0  0  0  0  0  0  0
   36.5641   34.2583   25.0578 C   0  0  0  0  0  0  0  0  0  0  0  0
   35.5669   33.3737   24.8607 C   0  0  0  0  0  0  0  0  0  0  0  0
   35.4818   32.1411   25.8448 C   0  0  0  0  0  0  0  0  0  0  0  0
   34.5994   31.3665   25.6585 O   0  0  0  0  0  0  0  0  0  0  0  0
   34.6495   33.7633   23.6866 C   0  0  0  0  0  0  0  0  0  0  0  0
   35.1636   34.9001   23.2042 C   0  0  0  0  0  0  0  0  0  0  0  0
   36.2697   35.3644   23.8638 N   0  0  0  0  0  0  0  0  0  0  0  0
   33.4760   33.0027   23.2011 C   0  0  0  0  0  0  0  0  0  0  0  0
   32.5549   32.3824   22.8790 N   0  0  0  0  0  0  0  0  0  0  0  0
  1  2  1  0  0  0  0
  1  7  1  0  0  0  0
  2  3  1  0  0  0  0
  2  4  2  0  0  0  0
  4  5  1  0  0  0  0
  5  6  2  0  0  0  0
  5 11  1  0  0  0  0
  6  7  1  0  0  0  0
  6  9  1  0  0  0  0
  7  8  2  0  0  0  0
  9 10  2  0  0  0  0
  9 12  1  0  0  0  0
 10 11  1  0  0  0  0
 12 13  3  0  0  0  0
M  END
>  <CHROM.1>
35.71745744,33.25822204,25.11063765,0.47688830,0.62323100,2.44127463

>  <Name>
ligand

>  <RI>
0

>  <Rbt.Current_Directory>
/home/itssahil/PROJECTS/Mol_Feturizer/New_Systems/rnas/3GCA

>  <Rbt.Executable>
rbdock ($Id: //depot/dev/client3/rdock/2013.1/src/exe/rbdock.cxx#4 $)

>  <Rbt.Library>
libRbt.so (2013.1, Build901 2013/11/27)

>  <Rbt.Parameter_File>
/export/apps/rDock/src/rDock_2013.1_src/data/scripts/dock_solv.prm

>  <Rbt.Receptor>
prm/pocket_docking_5.prm

>  <SCORE>
-24.0339

>  <SCORE.INTER>
-24.0339

>  <SCORE.INTER.CONST>
1

>  <SCORE.INTER.POLAR>
0

>  <SCORE.INTER.ROT>
0

>  <SCORE.INTER.SOLV>
11.5188

>  <SCORE.INTER.VDW>
-23.4622

>  <SCORE.INTER.norm>
-1.84876

>  <SCORE.INTRA>
0

>  <SCORE.INTRA.DIHEDRAL>
0

>  <SCORE.INTRA.DIHEDRAL.0>
0

>  <SCORE.INTRA.POLAR>
0

>  <SCORE.INTRA.POLAR.0>
0

>  <SCORE.INTRA.REPUL>
0

>  <SCORE.INTRA.REPUL.0>
0

>  <SCORE.INTRA.SOLV>
0

>  <SCORE.INTRA.SOLV.lig_0>
-33.1994

>  <SCORE.INTRA.VDW>
0

>  <SCORE.INTRA.VDW.0>
0

>  <SCORE.INTRA.norm>
0

>  <SCORE.RESTR>
0

>  <SCORE.RESTR.CAVITY>
0

>  <SCORE.RESTR.norm>
0

>  <SCORE.SYSTEM>
0

>  <SCORE.SYSTEM.CONST>
0

>  <SCORE.SYSTEM.DIHEDRAL>
0

>  <SCORE.SYSTEM.SOLV>
0

>  <SCORE.SYSTEM.norm>
0

>  <SCORE.heavy>
13

>  <SCORE.norm>
-1.84876

>  <RMSD>
4.896

$$$$
ligand
 OpenBabel11021811473D
libRbt.so/2013.1/901 2013/11/27
 13 14  0  0  0  0  0  0  0  0999 V2000
   36.4463   32.0662   26.7567 N   0  0  0  0  0  0  0  0  0  0  0  0
   37.5899   33.1540   26.8953 C   0  0  0  0  0  0  0  0  0  0  0  0
   38.5313   33.0149   27.8964 N   0  0  0  0  0  0  0  0  0  0  0  0
   37.4748   34.0759   26.0347 N   0  0  0  0  0  0  0  0  0  0  0  0
   36.5877   34.2564   25.0374 C   0  0  0  0  0  0  0  0  0  0  0  0
   35.5884   33.3738   24.8422 C   0  0  0  0  0  0  0  0  0  0  0  0
   35.5035   32.1409   25.8260 C   0  0  0  0  0  0  0  0  0  0  0  0
   34.6191   31.3680   25.6415 O   0  0  0  0  0  0  0  0  0  0  0  0
   34.6689   33.7656   23.6706 C   0  0  0  0  0  0  0  0  0  0  0  0
   35.1839   34.9018   23.1875 C   0  0  0  0  0  0  0  0  0  0  0  0
   36.2925   35.3637   23.8446 N   0  0  0  0  0  0  0  0  0  0  0  0
   33.4927   33.0074   23.1876 C   0  0  0  0  0  0  0  0  0  0  0  0
   32.5697   32.3890   22.8675 N   0  0  0  0  0  0  0  0  0  0  0  0
  1  2  1  0  0  0  0
  1  7  1  0  0  0  0
  2  3  1  0  0  0  0
  2  4  2  0  0  0  0
  4  5  1  0  0  0  0
  5  6  2  0  0  0  0
  5 11  1  0  0  0  0
  6  7  1  0  0  0  0
  6  9  1  0  0  0  0
  7  8  2  0  0  0  0
  9 10  2  0  0  0  0
  9 12  1  0  0  0  0
 10 11  1  0  0  0  0
 12 13  3  0  0  0  0
M  END
>  <CHROM.1>
35.73935341,33.25792014,25.09178290,0.47667954,0.62014900,2.44187551

>  <Name>
ligand

>  <RI>
0

>  <Rbt.Current_Directory>
/home/itssahil/PROJECTS/Mol_Feturizer/New_Systems/rnas/3GCA

>  <Rbt.Executable>
rbdock ($Id: //depot/dev/client3/rdock/2013.1/src/exe/rbdock.cxx#4 $)

>  <Rbt.Library>
libRbt.so (2013.1, Build901 2013/11/27)

>  <Rbt.Parameter_File>
/export/apps/rDock/src/rDock_2013.1_src/data/scripts/dock_solv.prm

>  <Rbt.Receptor>
prm/pocket_docking_5.prm

>  <SCORE>
-24.0203

>  <SCORE.INTER>
-24.0203

>  <SCORE.INTER.CONST>
1

>  <SCORE.INTER.POLAR>
0

>  <SCORE.INTER.ROT>
0

>  <SCORE.INTER.SOLV>
11.369

>  <SCORE.INTER.VDW>
-23.4032

>  <SCORE.INTER.norm>
-1.84772

>  <SCORE.INTRA>
0

>  <SCORE.INTRA.DIHEDRAL>
0

>  <SCORE.INTRA.DIHEDRAL.0>
0

>  <SCORE.INTRA.POLAR>
0

>  <SCORE.INTRA.POLAR.0>
0

>  <SCORE.INTRA.REPUL>
0

>  <SCORE.INTRA.REPUL.0>
0

>  <SCORE.INTRA.SOLV>
0

>  <SCORE.INTRA.SOLV.lig_0>
-33.1994

>  <SCORE.INTRA.VDW>
0

>  <SCORE.INTRA.VDW.0>
0

>  <SCORE.INTRA.norm>
0

>  <SCORE.RESTR>
0

>  <SCORE.RESTR.CAVITY>
0

>  <SCORE.RESTR.norm>
0

>  <SCORE.SYSTEM>
0

>  <SCORE.SYSTEM.CONST>
0

>  <SCORE.SYSTEM.DIHEDRAL>
0

>  <SCORE.SYSTEM.SOLV>
0

>  <SCORE.SYSTEM.norm>
0

>  <SCORE.heavy>
13

>  <SCORE.norm>
-1.84772

>  <RMSD>
4.896

$$$$
ligand
 OpenBabel11021811473D
libRbt.so/2013.1/901 2013/11/27
 13 14  0  0  0  0  0  0  0  0999 V2000
   36.4518   32.0648   26.7521 N   0  0  0  0  0  0  0  0  0  0  0  0
   37.5897   33.1582   26.8936 C   0  0  0  0  0  0  0  0  0  0  0  0
   38.5339   33.0194   27.8920 N   0  0  0  0  0  0  0  0  0  0  0  0
   37.4679   34.0835   26.0376 N   0  0  0  0  0  0  0  0  0  0  0  0
   36.5777   34.2640   25.0430 C   0  0  0  0  0  0  0  0  0  0  0  0
   35.5828   33.3769   24.8456 C   0  0  0  0  0  0  0  0  0  0  0  0
   35.5067   32.1389   25.8236 C   0  0  0  0  0  0  0  0  0  0  0  0
   34.6262   31.3620   25.6372 O   0  0  0  0  0  0  0  0  0  0  0  0
   34.6588   33.7693   23.6778 C   0  0  0  0  0  0  0  0  0  0  0  0
   35.1667   34.9106   23.1990 C   0  0  0  0  0  0  0  0  0  0  0  0
   36.2740   35.3753   23.8561 N   0  0  0  0  0  0  0  0  0  0  0  0
   33.4858   33.0071   23.1935 C   0  0  0  0  0  0  0  0  0  0  0  0
   32.5655   32.3852   22.8723 N   0  0  0  0  0  0  0  0  0  0  0  0
  1  2  1  0  0  0  0
  1  7  1  0  0  0  0
  2  3  1  0  0  0  0
  2  4  2  0  0  0  0
  4  5  1  0  0  0  0
  5  6  2  0  0  0  0
  5 11  1  0  0  0  0
  6  7  1  0  0  0  0
  6  9  1  0  0  0  0
  7  8  2  0  0  0  0
  9 10  2  0  0  0  0
  9 12  1  0  0  0  0
 10 11  1  0  0  0  0
 12 13  3  0  0  0  0
M  END
>  <CHROM.1>
35.73494473,33.26065419,25.09429409,0.46993390,0.62208516,2.45061440

>  <Name>
ligand

>  <RI>
0

>  <Rbt.Current_Directory>
/home/itssahil/PROJECTS/Mol_Feturizer/New_Systems/rnas/3GCA

>  <Rbt.Executable>
rbdock ($Id: //depot/dev/client3/rdock/2013.1/src/exe/rbdock.cxx#4 $)

>  <Rbt.Library>
libRbt.so (2013.1, Build901 2013/11/27)

>  <Rbt.Parameter_File>
/export/apps/rDock/src/rDock_2013.1_src/data/scripts/dock_solv.prm

>  <Rbt.Receptor>
prm/pocket_docking_5.prm

>  <SCORE>
-24.0643

>  <SCORE.INTER>
-24.0643

>  <SCORE.INTER.CONST>
1

>  <SCORE.INTER.POLAR>
0

>  <SCORE.INTER.ROT>
0

>  <SCORE.INTER.SOLV>
11.3592

>  <SCORE.INTER.VDW>
-23.4293

>  <SCORE.INTER.norm>
-1.8511

>  <SCORE.INTRA>
0

>  <SCORE.INTRA.DIHEDRAL>
0

>  <SCORE.INTRA.DIHEDRAL.0>
0

>  <SCORE.INTRA.POLAR>
0

>  <SCORE.INTRA.POLAR.0>
0

>  <SCORE.INTRA.REPUL>
0

>  <SCORE.INTRA.REPUL.0>
0

>  <SCORE.INTRA.SOLV>
0

>  <SCORE.INTRA.SOLV.lig_0>
-33.1994

>  <SCORE.INTRA.VDW>
0

>  <SCORE.INTRA.VDW.0>
0

>  <SCORE.INTRA.norm>
0

>  <SCORE.RESTR>
0

>  <SCORE.RESTR.CAVITY>
0

>  <SCORE.RESTR.norm>
0

>  <SCORE.SYSTEM>
0

>  <SCORE.SYSTEM.CONST>
0

>  <SCORE.SYSTEM.DIHEDRAL>
0

>  <SCORE.SYSTEM.SOLV>
0

>  <SCORE.SYSTEM.norm>
0

>  <SCORE.heavy>
13

>  <SCORE.norm>
-1.8511

>  <RMSD>
4.896

$$$$
ligand
 OpenBabel11021811473D
libRbt.so/2013.1/901 2013/11/27
 13 14  0  0  0  0  0  0  0  0999 V2000
   36.4597   32.1213   26.7812 N   0  0  0  0  0  0  0  0  0  0  0  0
   37.6133   33.2000   26.9080 C   0  0  0  0  0  0  0  0  0  0  0  0
   38.5567   33.0601   27.9070 N   0  0  0  0  0  0  0  0  0  0  0  0
   37.5035   34.1164   26.0408 N   0  0  0  0  0  0  0  0  0  0  0  0
   36.6147   34.2974   25.0451 C   0  0  0  0  0  0  0  0  0  0  0  0
   35.6070   33.4222   24.8598 C   0  0  0  0  0  0  0  0  0  0  0  0
   35.5145   32.1975   25.8530 C   0  0  0  0  0  0  0  0  0  0  0  0
   34.6228   31.4310   25.6772 O   0  0  0  0  0  0  0  0  0  0  0  0
   34.6871   33.8134   23.6883 C   0  0  0  0  0  0  0  0  0  0  0  0
   35.2106   34.9413   23.1949 C   0  0  0  0  0  0  0  0  0  0  0  0
   36.3253   35.3982   23.8450 N   0  0  0  0  0  0  0  0  0  0  0  0
   33.5028   33.0620   23.2147 C   0  0  0  0  0  0  0  0  0  0  0  0
   32.5732   32.4494   22.9023 N   0  0  0  0  0  0  0  0  0  0  0  0
  1  2  1  0  0  0  0
  1  7  1  0  0  0  0
  2  3  1  0  0  0  0
  2  4  2  0  0  0  0
  4  5  1  0  0  0  0
  5  6  2  0  0  0  0
  5 11  1  0  0  0  0
  6  7  1  0  0  0  0
  6  9  1  0  0  0  0
  7  8  2  0  0  0  0
  9 10  2  0  0  0  0
  9 12  1  0  0  0  0
 10 11  1  0  0  0  0
 12 13  3  0  0  0  0
M  END
>  <CHROM.1>
35.75779379,33.30683781,25.10970047,0.48231390,0.61194737,2.43115145

>  <Name>
ligand

>  <RI>
0

>  <Rbt.Current_Directory>
/home/itssahil/PROJECTS/Mol_Feturizer/New_Systems/rnas/3GCA

>  <Rbt.Executable>
rbdock ($Id: //depot/dev/client3/rdock/2013.1/src/exe/rbdock.cxx#4 $)

>  <Rbt.Library>
libRbt.so (2013.1, Build901 2013/11/27)

>  <Rbt.Parameter_File>
/export/apps/rDock/src/rDock_2013.1_src/data/scripts/dock_solv.prm

>  <Rbt.Receptor>
prm/pocket_docking_6.prm

>  <SCORE>
-24.0204

>  <SCORE.INTER>
-24.0204

>  <SCORE.INTER.CONST>
1

>  <SCORE.INTER.POLAR>
0

>  <SCORE.INTER.ROT>
0

>  <SCORE.INTER.SOLV>
11.2161

>  <SCORE.INTER.VDW>
-23.3523

>  <SCORE.INTER.norm>
-1.84773

>  <SCORE.INTRA>
0

>  <SCORE.INTRA.DIHEDRAL>
0

>  <SCORE.INTRA.DIHEDRAL.0>
0

>  <SCORE.INTRA.POLAR>
0

>  <SCORE.INTRA.POLAR.0>
0

>  <SCORE.INTRA.REPUL>
0

>  <SCORE.INTRA.REPUL.0>
0

>  <SCORE.INTRA.SOLV>
0

>  <SCORE.INTRA.SOLV.lig_0>
-33.1994

>  <SCORE.INTRA.VDW>
0

>  <SCORE.INTRA.VDW.0>
0

>  <SCORE.INTRA.norm>
0

>  <SCORE.RESTR>
0

>  <SCORE.RESTR.CAVITY>
0

>  <SCORE.RESTR.norm>
0

>  <SCORE.SYSTEM>
0

>  <SCORE.SYSTEM.CONST>
0

>  <SCORE.SYSTEM.DIHEDRAL>
0

>  <SCORE.SYSTEM.SOLV>
0

>  <SCORE.SYSTEM.norm>
0

>  <SCORE.heavy>
13

>  <SCORE.norm>
-1.84773

>  <RMSD>
4.896

$$$$
ligand
 OpenBabel11021811473D
libRbt.so/2013.1/901 2013/11/27
 13 14  0  0  0  0  0  0  0  0999 V2000
   36.4154   32.0797   26.7842 N   0  0  0  0  0  0  0  0  0  0  0  0
   37.5825   33.1452   26.8987 C   0  0  0  0  0  0  0  0  0  0  0  0
   38.5235   33.0054   27.9000 N   0  0  0  0  0  0  0  0  0  0  0  0
   37.4848   34.0523   26.0205 N   0  0  0  0  0  0  0  0  0  0  0  0
   36.5988   34.2325   25.0220 C   0  0  0  0  0  0  0  0  0  0  0  0
   35.5803   33.3679   24.8466 C   0  0  0  0  0  0  0  0  0  0  0  0
   35.4717   32.1565   25.8545 C   0  0  0  0  0  0  0  0  0  0  0  0
   34.5705   31.3994   25.6873 O   0  0  0  0  0  0  0  0  0  0  0  0
   34.6660   33.7565   23.6698 C   0  0  0  0  0  0  0  0  0  0  0  0
   35.2040   34.8716   23.1632 C   0  0  0  0  0  0  0  0  0  0  0  0
   36.3241   35.3223   23.8085 N   0  0  0  0  0  0  0  0  0  0  0  0
   33.4725   33.0145   23.2046 C   0  0  0  0  0  0  0  0  0  0  0  0
   32.5355   32.4100   22.8989 N   0  0  0  0  0  0  0  0  0  0  0  0
  1  2  1  0  0  0  0
  1  7  1  0  0  0  0
  2  3  1  0  0  0  0
  2  4  2  0  0  0  0
  4  5  1  0  0  0  0
  5  6  2  0  0  0  0
  5 11  1  0  0  0  0
  6  7  1  0  0  0  0
  6  9  1  0  0  0  0
  7  8  2  0  0  0  0
  9 10  2  0  0  0  0
  9 12  1  0  0  0  0
 10 11  1  0  0  0  0
 12 13  3  0  0  0  0
M  END
>  <CHROM.1>
35.72943686,33.25367712,25.09798307,0.49439784,0.60406354,2.41215050

>  <Name>
ligand

>  <RI>
0

>  <Rbt.Current_Directory>
/home/itssahil/PROJECTS/Mol_Feturizer/New_Systems/rnas/3GCA

>  <Rbt.Executable>
rbdock ($Id: //depot/dev/client3/rdock/2013.1/src/exe/rbdock.cxx#4 $)

>  <Rbt.Library>
libRbt.so (2013.1, Build901 2013/11/27)

>  <Rbt.Parameter_File>
/export/apps/rDock/src/rDock_2013.1_src/data/scripts/dock_solv.prm

>  <Rbt.Receptor>
prm/pocket_docking_6.prm

>  <SCORE>
-24.0653

>  <SCORE.INTER>
-24.0653

>  <SCORE.INTER.CONST>
1

>  <SCORE.INTER.POLAR>
0

>  <SCORE.INTER.ROT>
0

>  <SCORE.INTER.SOLV>
11.3977

>  <SCORE.INTER.VDW>
-23.4427

>  <SCORE.INTER.norm>
-1.85117

>  <SCORE.INTRA>
0

>  <SCORE.INTRA.DIHEDRAL>
0

>  <SCORE.INTRA.DIHEDRAL.0>
0

>  <SCORE.INTRA.POLAR>
0

>  <SCORE.INTRA.POLAR.0>
0

>  <SCORE.INTRA.REPUL>
0

>  <SCORE.INTRA.REPUL.0>
0

>  <SCORE.INTRA.SOLV>
0

>  <SCORE.INTRA.SOLV.lig_0>
-33.1994

>  <SCORE.INTRA.VDW>
0

>  <SCORE.INTRA.VDW.0>
0

>  <SCORE.INTRA.norm>
0

>  <SCORE.RESTR>
0

>  <SCORE.RESTR.CAVITY>
0

>  <SCORE.RESTR.norm>
0

>  <SCORE.SYSTEM>
0

>  <SCORE.SYSTEM.CONST>
0

>  <SCORE.SYSTEM.DIHEDRAL>
0

>  <SCORE.SYSTEM.SOLV>
0

>  <SCORE.SYSTEM.norm>
0

>  <SCORE.heavy>
13

>  <SCORE.norm>
-1.85117

>  <RMSD>
4.896

$$$$
ligand
 OpenBabel11021811473D
libRbt.so/2013.1/901 2013/11/27
 13 14  0  0  0  0  0  0  0  0999 V2000
   36.4468   32.0665   26.7547 N   0  0  0  0  0  0  0  0  0  0  0  0
   37.5927   33.1524   26.8894 C   0  0  0  0  0  0  0  0  0  0  0  0
   38.5377   33.0113   27.8867 N   0  0  0  0  0  0  0  0  0  0  0  0
   37.4757   34.0749   26.0297 N   0  0  0  0  0  0  0  0  0  0  0  0
   36.5850   34.2575   25.0360 C   0  0  0  0  0  0  0  0  0  0  0  0
   35.5835   33.3766   24.8443 C   0  0  0  0  0  0  0  0  0  0  0  0
   35.5005   32.1433   25.8277 C   0  0  0  0  0  0  0  0  0  0  0  0
   34.6142   31.3719   25.6462 O   0  0  0  0  0  0  0  0  0  0  0  0
   34.6601   33.7705   23.6765 C   0  0  0  0  0  0  0  0  0  0  0  0
   35.1751   34.9061   23.1919 C   0  0  0  0  0  0  0  0  0  0  0  0
   36.2869   35.3658   23.8450 N   0  0  0  0  0  0  0  0  0  0  0  0
   33.4809   33.0145   23.1976 C   0  0  0  0  0  0  0  0  0  0  0  0
   32.5556   32.3978   22.8808 N   0  0  0  0  0  0  0  0  0  0  0  0
  1  2  1  0  0  0  0
  1  7  1  0  0  0  0
  2  3  1  0  0  0  0
  2  4  2  0  0  0  0
  4  5  1  0  0  0  0
  5  6  2  0  0  0  0
  5 11  1  0  0  0  0
  6  7  1  0  0  0  0
  6  9  1  0  0  0  0
  7  8  2  0  0  0  0
  9 10  2  0  0  0  0
  9 12  1  0  0  0  0
 10 11  1  0  0  0  0
 12 13  3  0  0  0  0
M  END
>  <CHROM.1>
35.73528481,33.26030701,25.09316724,0.47512652,0.61613161,2.44331857

>  <Name>
ligand

>  <RI>
0

>  <Rbt.Current_Directory>
/home/itssahil/PROJECTS/Mol_Feturizer/New_Systems/rnas/3GCA

>  <Rbt.Executable>
rbdock ($Id: //depot/dev/client3/rdock/2013.1/src/exe/rbdock.cxx#4 $)

>  <Rbt.Library>
libRbt.so (2013.1, Build901 2013/11/27)

>  <Rbt.Parameter_File>
/export/apps/rDock/src/rDock_2013.1_src/data/scripts/dock_solv.prm

>  <Rbt.Receptor>
prm/pocket_docking_6.prm

>  <SCORE>
-24.036

>  <SCORE.INTER>
-24.036

>  <SCORE.INTER.CONST>
1

>  <SCORE.INTER.POLAR>
0

>  <SCORE.INTER.ROT>
0

>  <SCORE.INTER.SOLV>
11.335

>  <SCORE.INTER.VDW>
-23.4023

>  <SCORE.INTER.norm>
-1.84892

>  <SCORE.INTRA>
0

>  <SCORE.INTRA.DIHEDRAL>
0

>  <SCORE.INTRA.DIHEDRAL.0>
0

>  <SCORE.INTRA.POLAR>
0

>  <SCORE.INTRA.POLAR.0>
0

>  <SCORE.INTRA.REPUL>
0

>  <SCORE.INTRA.REPUL.0>
0

>  <SCORE.INTRA.SOLV>
0

>  <SCORE.INTRA.SOLV.lig_0>
-33.1994

>  <SCORE.INTRA.VDW>
0

>  <SCORE.INTRA.VDW.0>
0

>  <SCORE.INTRA.norm>
0

>  <SCORE.RESTR>
0

>  <SCORE.RESTR.CAVITY>
0

>  <SCORE.RESTR.norm>
0

>  <SCORE.SYSTEM>
0

>  <SCORE.SYSTEM.CONST>
0

>  <SCORE.SYSTEM.DIHEDRAL>
0

>  <SCORE.SYSTEM.SOLV>
0

>  <SCORE.SYSTEM.norm>
0

>  <SCORE.heavy>
13

>  <SCORE.norm>
-1.84892

>  <RMSD>
4.896

$$$$
ligand
 OpenBabel11021811473D
libRbt.so/2013.1/901 2013/11/27
 13 14  0  0  0  0  0  0  0  0999 V2000
   36.4643   32.0557   26.7396 N   0  0  0  0  0  0  0  0  0  0  0  0
   37.5941   33.1561   26.8909 C   0  0  0  0  0  0  0  0  0  0  0  0
   38.5383   33.0163   27.8892 N   0  0  0  0  0  0  0  0  0  0  0  0
   37.4663   34.0873   26.0422 N   0  0  0  0  0  0  0  0  0  0  0  0
   36.5757   34.2692   25.0482 C   0  0  0  0  0  0  0  0  0  0  0  0
   35.5875   33.3765   24.8428 C   0  0  0  0  0  0  0  0  0  0  0  0
   35.5195   32.1302   25.8109 C   0  0  0  0  0  0  0  0  0  0  0  0
   34.6448   31.3485   25.6175 O   0  0  0  0  0  0  0  0  0  0  0  0
   34.6617   33.7714   23.6772 C   0  0  0  0  0  0  0  0  0  0  0  0
   35.1617   34.9201   23.2080 C   0  0  0  0  0  0  0  0  0  0  0  0
   36.2650   35.3877   23.8699 N   0  0  0  0  0  0  0  0  0  0  0  0
   33.4948   33.0045   23.1858 C   0  0  0  0  0  0  0  0  0  0  0  0
   32.5793   32.3785   22.8587 N   0  0  0  0  0  0  0  0  0  0  0  0
  1  2  1  0  0  0  0
  1  7  1  0  0  0  0
  2  3  1  0  0  0  0
  2  4  2  0  0  0  0
  4  5  1  0  0  0  0
  5  6  2  0  0  0  0
  5 11  1  0  0  0  0
  6  7  1  0  0  0  0
  6  9  1  0  0  0  0
  7  8  2  0  0  0  0
  9 10  2  0  0  0  0
  9 12  1  0  0  0  0
 10 11  1  0  0  0  0
 12 13  3  0  0  0  0
M  END
>  <CHROM.1>
35.74024493,33.25936583,25.09070731,0.46371317,0.62742221,2.46217073

>  <Name>
ligand

>  <RI>
0

>  <Rbt.Current_Directory>
/home/itssahil/PROJECTS/Mol_Feturizer/New_Systems/rnas/3GCA

>  <Rbt.Executable>
rbdock ($Id: //depot/dev/client3/rdock/2013.1/src/exe/rbdock.cxx#4 $)

>  <Rbt.Library>
libRbt.so (2013.1, Build901 2013/11/27)

>  <Rbt.Parameter_File>
/export/apps/rDock/src/rDock_2013.1_src/data/scripts/dock_solv.prm

>  <Rbt.Receptor>
prm/pocket_docking_7.prm

>  <SCORE>
-24.0572

>  <SCORE.INTER>
-24.0572

>  <SCORE.INTER.CONST>
1

>  <SCORE.INTER.POLAR>
0

>  <SCORE.INTER.ROT>
0

>  <SCORE.INTER.SOLV>
11.3474

>  <SCORE.INTER.VDW>
-23.4206

>  <SCORE.INTER.norm>
-1.85055

>  <SCORE.INTRA>
0

>  <SCORE.INTRA.DIHEDRAL>
0

>  <SCORE.INTRA.DIHEDRAL.0>
0

>  <SCORE.INTRA.POLAR>
0

>  <SCORE.INTRA.POLAR.0>
0

>  <SCORE.INTRA.REPUL>
0

>  <SCORE.INTRA.REPUL.0>
0

>  <SCORE.INTRA.SOLV>
0

>  <SCORE.INTRA.SOLV.lig_0>
-33.1994

>  <SCORE.INTRA.VDW>
0

>  <SCORE.INTRA.VDW.0>
0

>  <SCORE.INTRA.norm>
0

>  <SCORE.RESTR>
0

>  <SCORE.RESTR.CAVITY>
0

>  <SCORE.RESTR.norm>
0

>  <SCORE.SYSTEM>
0

>  <SCORE.SYSTEM.CONST>
0

>  <SCORE.SYSTEM.DIHEDRAL>
0

>  <SCORE.SYSTEM.SOLV>
0

>  <SCORE.SYSTEM.norm>
0

>  <SCORE.heavy>
13

>  <SCORE.norm>
-1.85055

>  <RMSD>
4.896

$$$$
ligand
 OpenBabel11021811473D
libRbt.so/2013.1/901 2013/11/27
 13 14  0  0  0  0  0  0  0  0999 V2000
   36.4195   32.0786   26.7842 N   0  0  0  0  0  0  0  0  0  0  0  0
   37.5866   33.1439   26.8997 C   0  0  0  0  0  0  0  0  0  0  0  0
   38.5286   33.0023   27.8998 N   0  0  0  0  0  0  0  0  0  0  0  0
   37.4880   34.0527   26.0233 N   0  0  0  0  0  0  0  0  0  0  0  0
   36.6012   34.2347   25.0260 C   0  0  0  0  0  0  0  0  0  0  0  0
   35.5825   33.3704   24.8499 C   0  0  0  0  0  0  0  0  0  0  0  0
   35.4750   32.1571   25.8555 C   0  0  0  0  0  0  0  0  0  0  0  0
   34.5736   31.4002   25.6877 O   0  0  0  0  0  0  0  0  0  0  0  0
   34.6672   33.7612   23.6747 C   0  0  0  0  0  0  0  0  0  0  0  0
   35.2045   34.8774   23.1697 C   0  0  0  0  0  0  0  0  0  0  0  0
   36.3252   35.3269   23.8148 N   0  0  0  0  0  0  0  0  0  0  0  0
   33.4733   33.0200   23.2091 C   0  0  0  0  0  0  0  0  0  0  0  0
   32.5360   32.4160   22.9031 N   0  0  0  0  0  0  0  0  0  0  0  0
  1  2  1  0  0  0  0
  1  7  1  0  0  0  0
  2  3  1  0  0  0  0
  2  4  2  0  0  0  0
  4  5  1  0  0  0  0
  5  6  2  0  0  0  0
  5 11  1  0  0  0  0
  6  7  1  0  0  0  0
  6  9  1  0  0  0  0
  7  8  2  0  0  0  0
  9 10  2  0  0  0  0
  9 12  1  0  0  0  0
 10 11  1  0  0  0  0
 12 13  3  0  0  0  0
M  END
>  <CHROM.1>
35.73191339,33.25572639,25.10089023,0.49358591,0.60342734,2.41454356

>  <Name>
ligand

>  <RI>
0

>  <Rbt.Current_Directory>
/home/itssahil/PROJECTS/Mol_Feturizer/New_Systems/rnas/3GCA

>  <Rbt.Executable>
rbdock ($Id: //depot/dev/client3/rdock/2013.1/src/exe/rbdock.cxx#4 $)

>  <Rbt.Library>
libRbt.so (2013.1, Build901 2013/11/27)

>  <Rbt.Parameter_File>
/export/apps/rDock/src/rDock_2013.1_src/data/scripts/dock_solv.prm

>  <Rbt.Receptor>
prm/pocket_docking_7.prm

>  <SCORE>
-24.0677

>  <SCORE.INTER>
-24.0677

>  <SCORE.INTER.CONST>
1

>  <SCORE.INTER.POLAR>
0

>  <SCORE.INTER.ROT>
0

>  <SCORE.INTER.SOLV>
11.376

>  <SCORE.INTER.VDW>
-23.4371

>  <SCORE.INTER.norm>
-1.85136

>  <SCORE.INTRA>
0

>  <SCORE.INTRA.DIHEDRAL>
0

>  <SCORE.INTRA.DIHEDRAL.0>
0

>  <SCORE.INTRA.POLAR>
0

>  <SCORE.INTRA.POLAR.0>
0

>  <SCORE.INTRA.REPUL>
0

>  <SCORE.INTRA.REPUL.0>
0

>  <SCORE.INTRA.SOLV>
0

>  <SCORE.INTRA.SOLV.lig_0>
-33.1994

>  <SCORE.INTRA.VDW>
0

>  <SCORE.INTRA.VDW.0>
0

>  <SCORE.INTRA.norm>
0

>  <SCORE.RESTR>
0

>  <SCORE.RESTR.CAVITY>
0

>  <SCORE.RESTR.norm>
0

>  <SCORE.SYSTEM>
0

>  <SCORE.SYSTEM.CONST>
0

>  <SCORE.SYSTEM.DIHEDRAL>
0

>  <SCORE.SYSTEM.SOLV>
0

>  <SCORE.SYSTEM.norm>
0

>  <SCORE.heavy>
13

>  <SCORE.norm>
-1.85136

>  <RMSD>
4.896

$$$$
ligand
 OpenBabel11021811473D
libRbt.so/2013.1/901 2013/11/27
 13 14  0  0  0  0  0  0  0  0999 V2000
   36.4237   32.0551   26.7693 N   0  0  0  0  0  0  0  0  0  0  0  0
   37.5823   33.1286   26.8934 C   0  0  0  0  0  0  0  0  0  0  0  0
   38.5265   32.9854   27.8912 N   0  0  0  0  0  0  0  0  0  0  0  0
   37.4755   34.0447   26.0255 N   0  0  0  0  0  0  0  0  0  0  0  0
   36.5861   34.2287   25.0308 C   0  0  0  0  0  0  0  0  0  0  0  0
   35.5742   33.3579   24.8478 C   0  0  0  0  0  0  0  0  0  0  0  0
   35.4776   32.1345   25.8423 C   0  0  0  0  0  0  0  0  0  0  0  0
   34.5822   31.3720   25.6684 O   0  0  0  0  0  0  0  0  0  0  0  0
   34.6545   33.7521   23.6772 C   0  0  0  0  0  0  0  0  0  0  0  0
   35.1823   34.8772   23.1820 C   0  0  0  0  0  0  0  0  0  0  0  0
   36.3000   35.3297   23.8301 N   0  0  0  0  0  0  0  0  0  0  0  0
   33.4661   33.0057   23.2060 C   0  0  0  0  0  0  0  0  0  0  0  0
   32.5334   32.3970   22.8954 N   0  0  0  0  0  0  0  0  0  0  0  0
  1  2  1  0  0  0  0
  1  7  1  0  0  0  0
  2  3  1  0  0  0  0
  2  4  2  0  0  0  0
  4  5  1  0  0  0  0
  5  6  2  0  0  0  0
  5 11  1  0  0  0  0
  6  7  1  0  0  0  0
  6  9  1  0  0  0  0
  7  8  2  0  0  0  0
  9 10  2  0  0  0  0
  9 12  1  0  0  0  0
 10 11  1  0  0  0  0
 12 13  3  0  0  0  0
M  END
>  <CHROM.1>
35.72482129,33.24211396,25.09758433,0.48537421,0.60794701,2.42844834

>  <Name>
ligand

>  <RI>
0

>  <Rbt.Current_Directory>
/home/itssahil/PROJECTS/Mol_Feturizer/New_Systems/rnas/3GCA

>  <Rbt.Executable>
rbdock ($Id: //depot/dev/client3/rdock/2013.1/src/exe/rbdock.cxx#4 $)

>  <Rbt.Library>
libRbt.so (2013.1, Build901 2013/11/27)

>  <Rbt.Parameter_File>
/export/apps/rDock/src/rDock_2013.1_src/data/scripts/dock_solv.prm

>  <Rbt.Receptor>
prm/pocket_docking_7.prm

>  <SCORE>
-24.0607

>  <SCORE.INTER>
-24.0607

>  <SCORE.INTER.CONST>
1

>  <SCORE.INTER.POLAR>
0

>  <SCORE.INTER.ROT>
0

>  <SCORE.INTER.SOLV>
11.3996

>  <SCORE.INTER.VDW>
-23.4403

>  <SCORE.INTER.norm>
-1.85082

>  <SCORE.INTRA>
0

>  <SCORE.INTRA.DIHEDRAL>
0

>  <SCORE.INTRA.DIHEDRAL.0>
0

>  <SCORE.INTRA.POLAR>
0

>  <SCORE.INTRA.POLAR.0>
0

>  <SCORE.INTRA.REPUL>
0

>  <SCORE.INTRA.REPUL.0>
0

>  <SCORE.INTRA.SOLV>
0

>  <SCORE.INTRA.SOLV.lig_0>
-33.1994

>  <SCORE.INTRA.VDW>
0

>  <SCORE.INTRA.VDW.0>
0

>  <SCORE.INTRA.norm>
0

>  <SCORE.RESTR>
0

>  <SCORE.RESTR.CAVITY>
0

>  <SCORE.RESTR.norm>
0

>  <SCORE.SYSTEM>
0

>  <SCORE.SYSTEM.CONST>
0

>  <SCORE.SYSTEM.DIHEDRAL>
0

>  <SCORE.SYSTEM.SOLV>
0

>  <SCORE.SYSTEM.norm>
0

>  <SCORE.heavy>
13

>  <SCORE.norm>
-1.85082

>  <RMSD>
4.896

$$$$
ligand
 OpenBabel11021811473D
libRbt.so/2013.1/901 2013/11/27
 13 14  0  0  0  0  0  0  0  0999 V2000
   36.4314   32.0663   26.7592 N   0  0  0  0  0  0  0  0  0  0  0  0
   37.5748   33.1547   26.8948 C   0  0  0  0  0  0  0  0  0  0  0  0
   38.5202   33.0148   27.8919 N   0  0  0  0  0  0  0  0  0  0  0  0
   37.4557   34.0777   26.0359 N   0  0  0  0  0  0  0  0  0  0  0  0
   36.5645   34.2591   25.0424 C   0  0  0  0  0  0  0  0  0  0  0  0
   35.5650   33.3761   24.8500 C   0  0  0  0  0  0  0  0  0  0  0  0
   35.4848   32.1417   25.8323 C   0  0  0  0  0  0  0  0  0  0  0  0
   34.6002   31.3685   25.6503 O   0  0  0  0  0  0  0  0  0  0  0  0
   34.6406   33.7689   23.6826 C   0  0  0  0  0  0  0  0  0  0  0  0
   35.1529   34.9061   23.1990 C   0  0  0  0  0  0  0  0  0  0  0  0
   36.2638   35.3678   23.8523 N   0  0  0  0  0  0  0  0  0  0  0  0
   33.4630   33.0107   23.2032 C   0  0  0  0  0  0  0  0  0  0  0  0
   32.5390   32.3921   22.8859 N   0  0  0  0  0  0  0  0  0  0  0  0
  1  2  1  0  0  0  0
  1  7  1  0  0  0  0
  2  3  1  0  0  0  0
  2  4  2  0  0  0  0
  4  5  1  0  0  0  0
  5  6  2  0  0  0  0
  5 11  1  0  0  0  0
  6  7  1  0  0  0  0
  6  9  1  0  0  0  0
  7  8  2  0  0  0  0
  9 10  2  0  0  0  0
  9 12  1  0  0  0  0
 10 11  1  0  0  0  0
 12 13  3  0  0  0  0
M  END
>  <CHROM.1>
35.71700459,33.25993069,25.09874380,0.47293640,0.61751485,2.44544552

>  <Name>
ligand

>  <RI>
0

>  <Rbt.Current_Directory>
/home/itssahil/PROJECTS/Mol_Feturizer/New_Systems/rnas/3GCA

>  <Rbt.Executable>
rbdock ($Id: //depot/dev/client3/rdock/2013.1/src/exe/rbdock.cxx#4 $)

>  <Rbt.Library>
libRbt.so (2013.1, Build901 2013/11/27)

>  <Rbt.Parameter_File>
/export/apps/rDock/src/rDock_2013.1_src/data/scripts/dock_solv.prm

>  <Rbt.Receptor>
prm/pocket_docking_7.prm

>  <SCORE>
-24.0414

>  <SCORE.INTER>
-24.0414

>  <SCORE.INTER.CONST>
1

>  <SCORE.INTER.POLAR>
0

>  <SCORE.INTER.ROT>
0

>  <SCORE.INTER.SOLV>
11.4217

>  <SCORE.INTER.VDW>
-23.4348

>  <SCORE.INTER.norm>
-1.84934

>  <SCORE.INTRA>
0

>  <SCORE.INTRA.DIHEDRAL>
0

>  <SCORE.INTRA.DIHEDRAL.0>
0

>  <SCORE.INTRA.POLAR>
0

>  <SCORE.INTRA.POLAR.0>
0

>  <SCORE.INTRA.REPUL>
0

>  <SCORE.INTRA.REPUL.0>
0

>  <SCORE.INTRA.SOLV>
0

>  <SCORE.INTRA.SOLV.lig_0>
-33.1994

>  <SCORE.INTRA.VDW>
0

>  <SCORE.INTRA.VDW.0>
0

>  <SCORE.INTRA.norm>
0

>  <SCORE.RESTR>
0

>  <SCORE.RESTR.CAVITY>
0

>  <SCORE.RESTR.norm>
0

>  <SCORE.SYSTEM>
0

>  <SCORE.SYSTEM.CONST>
0

>  <SCORE.SYSTEM.DIHEDRAL>
0

>  <SCORE.SYSTEM.SOLV>
0

>  <SCORE.SYSTEM.norm>
0

>  <SCORE.heavy>
13

>  <SCORE.norm>
-1.84934

>  <RMSD>
4.896

$$$$
ligand
 OpenBabel11021811473D
libRbt.so/2013.1/901 2013/11/27
 13 14  0  0  0  0  0  0  0  0999 V2000
   36.4124   32.0789   26.7833 N   0  0  0  0  0  0  0  0  0  0  0  0
   37.5591   33.1641   26.9170 C   0  0  0  0  0  0  0  0  0  0  0  0
   38.4978   33.0290   27.9211 N   0  0  0  0  0  0  0  0  0  0  0  0
   37.4488   34.0803   26.0497 N   0  0  0  0  0  0  0  0  0  0  0  0
   36.5645   34.2568   25.0492 C   0  0  0  0  0  0  0  0  0  0  0  0
   35.5628   33.3760   24.8579 C   0  0  0  0  0  0  0  0  0  0  0  0
   35.4719   32.1502   25.8500 C   0  0  0  0  0  0  0  0  0  0  0  0
   34.5855   31.3788   25.6689 O   0  0  0  0  0  0  0  0  0  0  0  0
   34.6472   33.7625   23.6816 C   0  0  0  0  0  0  0  0  0  0  0  0
   35.1669   34.8937   23.1917 C   0  0  0  0  0  0  0  0  0  0  0  0
   36.2754   35.3566   23.8481 N   0  0  0  0  0  0  0  0  0  0  0  0
   33.4697   33.0047   23.2012 C   0  0  0  0  0  0  0  0  0  0  0  0
   32.5455   32.3870   22.8833 N   0  0  0  0  0  0  0  0  0  0  0  0
  1  2  1  0  0  0  0
  1  7  1  0  0  0  0
  2  3  1  0  0  0  0
  2  4  2  0  0  0  0
  4  5  1  0  0  0  0
  5  6  2  0  0  0  0
  5 11  1  0  0  0  0
  6  7  1  0  0  0  0
  6  9  1  0  0  0  0
  7  8  2  0  0  0  0
  9 10  2  0  0  0  0
  9 12  1  0  0  0  0
 10 11  1  0  0  0  0
 12 13  3  0  0  0  0
M  END
>  <CHROM.1>
35.71289330,33.26133280,25.10861244,0.48140346,0.61982560,2.43221848

>  <Name>
ligand

>  <RI>
0

>  <Rbt.Current_Directory>
/home/itssahil/PROJECTS/Mol_Feturizer/New_Systems/rnas/3GCA

>  <Rbt.Executable>
rbdock ($Id: //depot/dev/client3/rdock/2013.1/src/exe/rbdock.cxx#4 $)

>  <Rbt.Library>
libRbt.so (2013.1, Build901 2013/11/27)

>  <Rbt.Parameter_File>
/export/apps/rDock/src/rDock_2013.1_src/data/scripts/dock_solv.prm

>  <Rbt.Receptor>
prm/pocket_docking_7.prm

>  <SCORE>
-24.0169

>  <SCORE.INTER>
-24.0169

>  <SCORE.INTER.CONST>
1

>  <SCORE.INTER.POLAR>
0

>  <SCORE.INTER.ROT>
0

>  <SCORE.INTER.SOLV>
11.5303

>  <SCORE.INTER.VDW>
-23.4547

>  <SCORE.INTER.norm>
-1.84745

>  <SCORE.INTRA>
0

>  <SCORE.INTRA.DIHEDRAL>
0

>  <SCORE.INTRA.DIHEDRAL.0>
0

>  <SCORE.INTRA.POLAR>
0

>  <SCORE.INTRA.POLAR.0>
0

>  <SCORE.INTRA.REPUL>
0

>  <SCORE.INTRA.REPUL.0>
0

>  <SCORE.INTRA.SOLV>
0

>  <SCORE.INTRA.SOLV.lig_0>
-33.1994

>  <SCORE.INTRA.VDW>
0

>  <SCORE.INTRA.VDW.0>
0

>  <SCORE.INTRA.norm>
0

>  <SCORE.RESTR>
0

>  <SCORE.RESTR.CAVITY>
0

>  <SCORE.RESTR.norm>
0

>  <SCORE.SYSTEM>
0

>  <SCORE.SYSTEM.CONST>
0

>  <SCORE.SYSTEM.DIHEDRAL>
0

>  <SCORE.SYSTEM.SOLV>
0

>  <SCORE.SYSTEM.norm>
0

>  <SCORE.heavy>
13

>  <SCORE.norm>
-1.84745

>  <RMSD>
4.896

$$$$
ligand
 OpenBabel11021811473D
libRbt.so/2013.1/901 2013/11/27
 13 14  0  0  0  0  0  0  0  0999 V2000
   36.4182   32.0803   26.7850 N   0  0  0  0  0  0  0  0  0  0  0  0
   37.5839   33.1473   26.8991 C   0  0  0  0  0  0  0  0  0  0  0  0
   38.5269   33.0073   27.8984 N   0  0  0  0  0  0  0  0  0  0  0  0
   37.4831   34.0557   26.0225 N   0  0  0  0  0  0  0  0  0  0  0  0
   36.5951   34.2362   25.0260 C   0  0  0  0  0  0  0  0  0  0  0  0
   35.5775   33.3703   24.8511 C   0  0  0  0  0  0  0  0  0  0  0  0
   35.4727   32.1572   25.8572 C   0  0  0  0  0  0  0  0  0  0  0  0
   34.5722   31.3989   25.6904 O   0  0  0  0  0  0  0  0  0  0  0  0
   34.6605   33.7595   23.6766 C   0  0  0  0  0  0  0  0  0  0  0  0
   35.1958   34.8763   23.1709 C   0  0  0  0  0  0  0  0  0  0  0  0
   36.3164   35.3275   23.8148 N   0  0  0  0  0  0  0  0  0  0  0  0
   33.4672   33.0164   23.2124 C   0  0  0  0  0  0  0  0  0  0  0  0
   32.5305   32.4110   22.9074 N   0  0  0  0  0  0  0  0  0  0  0  0
  1  2  1  0  0  0  0
  1  7  1  0  0  0  0
  2  3  1  0  0  0  0
  2  4  2  0  0  0  0
  4  5  1  0  0  0  0
  5  6  2  0  0  0  0
  5 11  1  0  0  0  0
  6  7  1  0  0  0  0
  6  9  1  0  0  0  0
  7  8  2  0  0  0  0
  9 10  2  0  0  0  0
  9 12  1  0  0  0  0
 10 11  1  0  0  0  0
 12 13  3  0  0  0  0
M  END
>  <CHROM.1>
35.72729656,33.25593836,25.10198527,0.49152953,0.60367555,2.41541787

>  <Name>
ligand

>  <RI>
0

>  <Rbt.Current_Directory>
/home/itssahil/PROJECTS/Mol_Feturizer/New_Systems/rnas/3GCA

>  <Rbt.Executable>
rbdock ($Id: //depot/dev/client3/rdock/2013.1/src/exe/rbdock.cxx#4 $)

>  <Rbt.Library>
libRbt.so (2013.1, Build901 2013/11/27)

>  <Rbt.Parameter_File>
/export/apps/rDock/src/rDock_2013.1_src/data/scripts/dock_solv.prm

>  <Rbt.Receptor>
prm/pocket_docking_8.prm

>  <SCORE>
-24.0699

>  <SCORE.INTER>
-24.0699

>  <SCORE.INTER.CONST>
1

>  <SCORE.INTER.POLAR>
0

>  <SCORE.INTER.ROT>
0

>  <SCORE.INTER.SOLV>
11.3821

>  <SCORE.INTER.VDW>
-23.4407

>  <SCORE.INTER.norm>
-1.85153

>  <SCORE.INTRA>
0

>  <SCORE.INTRA.DIHEDRAL>
0

>  <SCORE.INTRA.DIHEDRAL.0>
0

>  <SCORE.INTRA.POLAR>
0

>  <SCORE.INTRA.POLAR.0>
0

>  <SCORE.INTRA.REPUL>
0

>  <SCORE.INTRA.REPUL.0>
0

>  <SCORE.INTRA.SOLV>
0

>  <SCORE.INTRA.SOLV.lig_0>
-33.1994

>  <SCORE.INTRA.VDW>
0

>  <SCORE.INTRA.VDW.0>
0

>  <SCORE.INTRA.norm>
0

>  <SCORE.RESTR>
0

>  <SCORE.RESTR.CAVITY>
0

>  <SCORE.RESTR.norm>
0

>  <SCORE.SYSTEM>
0

>  <SCORE.SYSTEM.CONST>
0

>  <SCORE.SYSTEM.DIHEDRAL>
0

>  <SCORE.SYSTEM.SOLV>
0

>  <SCORE.SYSTEM.norm>
0

>  <SCORE.heavy>
13

>  <SCORE.norm>
-1.85153

>  <RMSD>
4.896

$$$$
ligand
 OpenBabel11021811473D
libRbt.so/2013.1/901 2013/11/27
 13 14  0  0  0  0  0  0  0  0999 V2000
   36.3977   32.0876   26.7873 N   0  0  0  0  0  0  0  0  0  0  0  0
   37.5637   33.1545   26.8996 C   0  0  0  0  0  0  0  0  0  0  0  0
   38.5033   33.0192   27.9028 N   0  0  0  0  0  0  0  0  0  0  0  0
   37.4665   34.0583   26.0179 N   0  0  0  0  0  0  0  0  0  0  0  0
   36.5819   34.2340   25.0174 C   0  0  0  0  0  0  0  0  0  0  0  0
   35.5643   33.3679   24.8437 C   0  0  0  0  0  0  0  0  0  0  0  0
   35.4553   32.1602   25.8559 C   0  0  0  0  0  0  0  0  0  0  0  0
   34.5550   31.4016   25.6902 O   0  0  0  0  0  0  0  0  0  0  0  0
   34.6515   33.7514   23.6642 C   0  0  0  0  0  0  0  0  0  0  0  0
   35.1892   34.8651   23.1543 C   0  0  0  0  0  0  0  0  0  0  0  0
   36.3080   35.3191   23.7995 N   0  0  0  0  0  0  0  0  0  0  0  0
   33.4593   33.0066   23.1999 C   0  0  0  0  0  0  0  0  0  0  0  0
   32.5232   32.4002   22.8951 N   0  0  0  0  0  0  0  0  0  0  0  0
  1  2  1  0  0  0  0
  1  7  1  0  0  0  0
  2  3  1  0  0  0  0
  2  4  2  0  0  0  0
  4  5  1  0  0  0  0
  5  6  2  0  0  0  0
  5 11  1  0  0  0  0
  6  7  1  0  0  0  0
  6  9  1  0  0  0  0
  7  8  2  0  0  0  0
  9 10  2  0  0  0  0
  9 12  1  0  0  0  0
 10 11  1  0  0  0  0
 12 13  3  0  0  0  0
M  END
>  <CHROM.1>
35.71321124,33.25476434,25.09577295,0.49482101,0.60573934,2.40822423

>  <Name>
ligand

>  <RI>
0

>  <Rbt.Current_Directory>
/home/itssahil/PROJECTS/Mol_Feturizer/New_Systems/rnas/3GCA

>  <Rbt.Executable>
rbdock ($Id: //depot/dev/client3/rdock/2013.1/src/exe/rbdock.cxx#4 $)

>  <Rbt.Library>
libRbt.so (2013.1, Build901 2013/11/27)

>  <Rbt.Parameter_File>
/export/apps/rDock/src/rDock_2013.1_src/data/scripts/dock_solv.prm

>  <Rbt.Receptor>
prm/pocket_docking_8.prm

>  <SCORE>
-24.0597

>  <SCORE.INTER>
-24.0597

>  <SCORE.INTER.CONST>
1

>  <SCORE.INTER.POLAR>
0

>  <SCORE.INTER.ROT>
0

>  <SCORE.INTER.SOLV>
11.4844

>  <SCORE.INTER.VDW>
-23.4679

>  <SCORE.INTER.norm>
-1.85074

>  <SCORE.INTRA>
0

>  <SCORE.INTRA.DIHEDRAL>
0

>  <SCORE.INTRA.DIHEDRAL.0>
0

>  <SCORE.INTRA.POLAR>
0

>  <SCORE.INTRA.POLAR.0>
0

>  <SCORE.INTRA.REPUL>
0

>  <SCORE.INTRA.REPUL.0>
0

>  <SCORE.INTRA.SOLV>
0

>  <SCORE.INTRA.SOLV.lig_0>
-33.1994

>  <SCORE.INTRA.VDW>
0

>  <SCORE.INTRA.VDW.0>
0

>  <SCORE.INTRA.norm>
0

>  <SCORE.RESTR>
0

>  <SCORE.RESTR.CAVITY>
0

>  <SCORE.RESTR.norm>
0

>  <SCORE.SYSTEM>
0

>  <SCORE.SYSTEM.CONST>
0

>  <SCORE.SYSTEM.DIHEDRAL>
0

>  <SCORE.SYSTEM.SOLV>
0

>  <SCORE.SYSTEM.norm>
0

>  <SCORE.heavy>
13

>  <SCORE.norm>
-1.85074

>  <RMSD>
4.896

$$$$
ligand
 OpenBabel11021811473D
libRbt.so/2013.1/901 2013/11/27
 13 14  0  0  0  0  0  0  0  0999 V2000
   36.4239   32.0730   26.7809 N   0  0  0  0  0  0  0  0  0  0  0  0
   37.5918   33.1374   26.8960 C   0  0  0  0  0  0  0  0  0  0  0  0
   38.5351   32.9939   27.8946 N   0  0  0  0  0  0  0  0  0  0  0  0
   37.4925   34.0475   26.0209 N   0  0  0  0  0  0  0  0  0  0  0  0
   36.6043   34.2313   25.0252 C   0  0  0  0  0  0  0  0  0  0  0  0
   35.5849   33.3679   24.8494 C   0  0  0  0  0  0  0  0  0  0  0  0
   35.4780   32.1534   25.8536 C   0  0  0  0  0  0  0  0  0  0  0  0
   34.5759   31.3973   25.6862 O   0  0  0  0  0  0  0  0  0  0  0  0
   34.6681   33.7608   23.6761 C   0  0  0  0  0  0  0  0  0  0  0  0
   35.2054   34.8773   23.1718 C   0  0  0  0  0  0  0  0  0  0  0  0
   36.3273   35.3252   23.8159 N   0  0  0  0  0  0  0  0  0  0  0  0
   33.4730   33.0210   23.2113 C   0  0  0  0  0  0  0  0  0  0  0  0
   32.5349   32.4180   22.9059 N   0  0  0  0  0  0  0  0  0  0  0  0
  1  2  1  0  0  0  0
  1  7  1  0  0  0  0
  2  3  1  0  0  0  0
  2  4  2  0  0  0  0
  4  5  1  0  0  0  0
  5  6  2  0  0  0  0
  5 11  1  0  0  0  0
  6  7  1  0  0  0  0
  6  9  1  0  0  0  0
  7  8  2  0  0  0  0
  9 10  2  0  0  0  0
  9 12  1  0  0  0  0
 10 11  1  0  0  0  0
 12 13  3  0  0  0  0
M  END
>  <CHROM.1>
35.73455507,33.25281100,25.10007482,0.49299658,0.60190825,2.41618232

>  <Name>
ligand

>  <RI>
0

>  <Rbt.Current_Directory>
/home/itssahil/PROJECTS/Mol_Feturizer/New_Systems/rnas/3GCA

>  <Rbt.Executable>
rbdock ($Id: //depot/dev/client3/rdock/2013.1/src/exe/rbdock.cxx#4 $)

>  <Rbt.Library>
libRbt.so (2013.1, Build901 2013/11/27)

>  <Rbt.Parameter_File>
/export/apps/rDock/src/rDock_2013.1_src/data/scripts/dock_solv.prm

>  <Rbt.Receptor>
prm/pocket_docking_8.prm

>  <SCORE>
-24.0693

>  <SCORE.INTER>
-24.0693

>  <SCORE.INTER.CONST>
1

>  <SCORE.INTER.POLAR>
0

>  <SCORE.INTER.ROT>
0

>  <SCORE.INTER.SOLV>
11.3479

>  <SCORE.INTER.VDW>
-23.4288

>  <SCORE.INTER.norm>
-1.85149

>  <SCORE.INTRA>
0

>  <SCORE.INTRA.DIHEDRAL>
0

>  <SCORE.INTRA.DIHEDRAL.0>
0

>  <SCORE.INTRA.POLAR>
0

>  <SCORE.INTRA.POLAR.0>
0

>  <SCORE.INTRA.REPUL>
0

>  <SCORE.INTRA.REPUL.0>
0

>  <SCORE.INTRA.SOLV>
0

>  <SCORE.INTRA.SOLV.lig_0>
-33.1994

>  <SCORE.INTRA.VDW>
0

>  <SCORE.INTRA.VDW.0>
0

>  <SCORE.INTRA.norm>
0

>  <SCORE.RESTR>
0

>  <SCORE.RESTR.CAVITY>
0

>  <SCORE.RESTR.norm>
0

>  <SCORE.SYSTEM>
0

>  <SCORE.SYSTEM.CONST>
0

>  <SCORE.SYSTEM.DIHEDRAL>
0

>  <SCORE.SYSTEM.SOLV>
0

>  <SCORE.SYSTEM.norm>
0

>  <SCORE.heavy>
13

>  <SCORE.norm>
-1.85149

>  <RMSD>
4.896

$$$$
ligand
 OpenBabel11021811473D
libRbt.so/2013.1/901 2013/11/27
 13 14  0  0  0  0  0  0  0  0999 V2000
   36.4133   32.0857   26.7879 N   0  0  0  0  0  0  0  0  0  0  0  0
   37.5765   33.1548   26.9078 C   0  0  0  0  0  0  0  0  0  0  0  0
   38.5131   33.0181   27.9136 N   0  0  0  0  0  0  0  0  0  0  0  0
   37.4801   34.0615   26.0290 N   0  0  0  0  0  0  0  0  0  0  0  0
   36.5984   34.2388   25.0262 C   0  0  0  0  0  0  0  0  0  0  0  0
   35.5834   33.3710   24.8461 C   0  0  0  0  0  0  0  0  0  0  0  0
   35.4739   32.1594   25.8536 C   0  0  0  0  0  0  0  0  0  0  0  0
   34.5758   31.3994   25.6823 O   0  0  0  0  0  0  0  0  0  0  0  0
   34.6736   33.7566   23.6649 C   0  0  0  0  0  0  0  0  0  0  0  0
   35.2105   34.8733   23.1607 C   0  0  0  0  0  0  0  0  0  0  0  0
   36.3261   35.3276   23.8113 N   0  0  0  0  0  0  0  0  0  0  0  0
   33.4847   33.0108   23.1940 C   0  0  0  0  0  0  0  0  0  0  0  0
   32.5510   32.4033   22.8839 N   0  0  0  0  0  0  0  0  0  0  0  0
  1  2  1  0  0  0  0
  1  7  1  0  0  0  0
  2  3  1  0  0  0  0
  2  4  2  0  0  0  0
  4  5  1  0  0  0  0
  5  6  2  0  0  0  0
  5 11  1  0  0  0  0
  6  7  1  0  0  0  0
  6  9  1  0  0  0  0
  7  8  2  0  0  0  0
  9 10  2  0  0  0  0
  9 12  1  0  0  0  0
 10 11  1  0  0  0  0
 12 13  3  0  0  0  0
M  END
>  <CHROM.1>
35.73174131,33.25727649,25.09819810,0.49545143,0.60971801,2.41141488

>  <Name>
ligand

>  <RI>
0

>  <Rbt.Current_Directory>
/home/itssahil/PROJECTS/Mol_Feturizer/New_Systems/rnas/3GCA

>  <Rbt.Executable>
rbdock ($Id: //depot/dev/client3/rdock/2013.1/src/exe/rbdock.cxx#4 $)

>  <Rbt.Library>
libRbt.so (2013.1, Build901 2013/11/27)

>  <Rbt.Parameter_File>
/export/apps/rDock/src/rDock_2013.1_src/data/scripts/dock_solv.prm

>  <Rbt.Receptor>
prm/pocket_docking_8.prm

>  <SCORE>
-24.0574

>  <SCORE.INTER>
-24.0574

>  <SCORE.INTER.CONST>
1

>  <SCORE.INTER.POLAR>
0

>  <SCORE.INTER.ROT>
0

>  <SCORE.INTER.SOLV>
11.4464

>  <SCORE.INTER.VDW>
-23.4537

>  <SCORE.INTER.norm>
-1.85057

>  <SCORE.INTRA>
0

>  <SCORE.INTRA.DIHEDRAL>
0

>  <SCORE.INTRA.DIHEDRAL.0>
0

>  <SCORE.INTRA.POLAR>
0

>  <SCORE.INTRA.POLAR.0>
0

>  <SCORE.INTRA.REPUL>
0

>  <SCORE.INTRA.REPUL.0>
0

>  <SCORE.INTRA.SOLV>
0

>  <SCORE.INTRA.SOLV.lig_0>
-33.1994

>  <SCORE.INTRA.VDW>
0

>  <SCORE.INTRA.VDW.0>
0

>  <SCORE.INTRA.norm>
0

>  <SCORE.RESTR>
0

>  <SCORE.RESTR.CAVITY>
0

>  <SCORE.RESTR.norm>
0

>  <SCORE.SYSTEM>
0

>  <SCORE.SYSTEM.CONST>
0

>  <SCORE.SYSTEM.DIHEDRAL>
0

>  <SCORE.SYSTEM.SOLV>
0

>  <SCORE.SYSTEM.norm>
0

>  <SCORE.heavy>
13

>  <SCORE.norm>
-1.85057

>  <RMSD>
4.896

$$$$
ligand
 OpenBabel11021811473D
libRbt.so/2013.1/901 2013/11/27
 13 14  0  0  0  0  0  0  0  0999 V2000
   36.4410   32.0597   26.7743 N   0  0  0  0  0  0  0  0  0  0  0  0
   37.5950   33.1377   26.9035 C   0  0  0  0  0  0  0  0  0  0  0  0
   38.5378   32.9956   27.9028 N   0  0  0  0  0  0  0  0  0  0  0  0
   37.4860   34.0556   26.0380 N   0  0  0  0  0  0  0  0  0  0  0  0
   36.5977   34.2387   25.0421 C   0  0  0  0  0  0  0  0  0  0  0  0
   35.5898   33.3643   24.8548 C   0  0  0  0  0  0  0  0  0  0  0  0
   35.4963   32.1378   25.8458 C   0  0  0  0  0  0  0  0  0  0  0  0
   34.6043   31.3721   25.6682 O   0  0  0  0  0  0  0  0  0  0  0  0
   34.6706   33.7579   23.6835 C   0  0  0  0  0  0  0  0  0  0  0  0
   35.1947   34.8865   23.1925 C   0  0  0  0  0  0  0  0  0  0  0  0
   36.3093   35.3418   23.8439 N   0  0  0  0  0  0  0  0  0  0  0  0
   33.4862   33.0079   23.2081 C   0  0  0  0  0  0  0  0  0  0  0  0
   32.5565   32.3962   22.8941 N   0  0  0  0  0  0  0  0  0  0  0  0
  1  2  1  0  0  0  0
  1  7  1  0  0  0  0
  2  3  1  0  0  0  0
  2  4  2  0  0  0  0
  4  5  1  0  0  0  0
  5  6  2  0  0  0  0
  5 11  1  0  0  0  0
  6  7  1  0  0  0  0
  6  9  1  0  0  0  0
  7  8  2  0  0  0  0
  9 10  2  0  0  0  0
  9 12  1  0  0  0  0
 10 11  1  0  0  0  0
 12 13  3  0  0  0  0
M  END
>  <CHROM.1>
35.74037113,33.24842282,25.10457657,0.48307469,0.61204509,2.43248607

>  <Name>
ligand

>  <RI>
0

>  <Rbt.Current_Directory>
/home/itssahil/PROJECTS/Mol_Feturizer/New_Systems/rnas/3GCA

>  <Rbt.Executable>
rbdock ($Id: //depot/dev/client3/rdock/2013.1/src/exe/rbdock.cxx#4 $)

>  <Rbt.Library>
libRbt.so (2013.1, Build901 2013/11/27)

>  <Rbt.Parameter_File>
/export/apps/rDock/src/rDock_2013.1_src/data/scripts/dock_solv.prm

>  <Rbt.Receptor>
prm/blind_docking_100.prm

>  <SCORE>
-24.028

>  <SCORE.INTER>
-24.028

>  <SCORE.INTER.CONST>
1

>  <SCORE.INTER.POLAR>
0

>  <SCORE.INTER.ROT>
0

>  <SCORE.INTER.SOLV>
11.3542

>  <SCORE.INTER.VDW>
-23.4034

>  <SCORE.INTER.norm>
-1.84831

>  <SCORE.INTRA>
0

>  <SCORE.INTRA.DIHEDRAL>
0

>  <SCORE.INTRA.DIHEDRAL.0>
0

>  <SCORE.INTRA.POLAR>
0

>  <SCORE.INTRA.POLAR.0>
0

>  <SCORE.INTRA.REPUL>
0

>  <SCORE.INTRA.REPUL.0>
0

>  <SCORE.INTRA.SOLV>
0

>  <SCORE.INTRA.SOLV.lig_0>
-33.1994

>  <SCORE.INTRA.VDW>
0

>  <SCORE.INTRA.VDW.0>
0

>  <SCORE.INTRA.norm>
0

>  <SCORE.RESTR>
0

>  <SCORE.RESTR.CAVITY>
0

>  <SCORE.RESTR.norm>
0

>  <SCORE.SYSTEM>
0

>  <SCORE.SYSTEM.CONST>
0

>  <SCORE.SYSTEM.DIHEDRAL>
0

>  <SCORE.SYSTEM.SOLV>
0

>  <SCORE.SYSTEM.norm>
0

>  <SCORE.heavy>
13

>  <SCORE.norm>
-1.84831

>  <RMSD>
4.897

$$$$
ligand
 OpenBabel11021811473D
libRbt.so/2013.1/901 2013/11/27
 13 14  0  0  0  0  0  0  0  0999 V2000
   36.4093   32.0944   26.7932 N   0  0  0  0  0  0  0  0  0  0  0  0
   37.5664   33.1700   26.9135 C   0  0  0  0  0  0  0  0  0  0  0  0
   38.5018   33.0400   27.9214 N   0  0  0  0  0  0  0  0  0  0  0  0
   37.4670   34.0747   26.0329 N   0  0  0  0  0  0  0  0  0  0  0  0
   36.5863   34.2454   25.0282 C   0  0  0  0  0  0  0  0  0  0  0  0
   35.5763   33.3719   24.8475 C   0  0  0  0  0  0  0  0  0  0  0  0
   35.4713   32.1615   25.8570 C   0  0  0  0  0  0  0  0  0  0  0  0
   34.5776   31.3964   25.6852 O   0  0  0  0  0  0  0  0  0  0  0  0
   34.6668   33.7506   23.6639 C   0  0  0  0  0  0  0  0  0  0  0  0
   35.1986   34.8693   23.1589 C   0  0  0  0  0  0  0  0  0  0  0  0
   36.3105   35.3307   23.8108 N   0  0  0  0  0  0  0  0  0  0  0  0
   33.4828   32.9976   23.1920 C   0  0  0  0  0  0  0  0  0  0  0  0
   32.5530   32.3846   22.8812 N   0  0  0  0  0  0  0  0  0  0  0  0
  1  2  1  0  0  0  0
  1  7  1  0  0  0  0
  2  3  1  0  0  0  0
  2  4  2  0  0  0  0
  4  5  1  0  0  0  0
  5  6  2  0  0  0  0
  5 11  1  0  0  0  0
  6  7  1  0  0  0  0
  6  9  1  0  0  0  0
  7  8  2  0  0  0  0
  9 10  2  0  0  0  0
  9 12  1  0  0  0  0
 10 11  1  0  0  0  0
 12 13  3  0  0  0  0
M  END
>  <CHROM.1>
35.72474910,33.25945118,25.10016095,0.49216561,0.61475048,2.41157908

>  <Name>
ligand

>  <RI>
0

>  <Rbt.Current_Directory>
/home/itssahil/PROJECTS/Mol_Feturizer/New_Systems/rnas/3GCA

>  <Rbt.Executable>
rbdock ($Id: //depot/dev/client3/rdock/2013.1/src/exe/rbdock.cxx#4 $)

>  <Rbt.Library>
libRbt.so (2013.1, Build901 2013/11/27)

>  <Rbt.Parameter_File>
/export/apps/rDock/src/rDock_2013.1_src/data/scripts/dock_solv.prm

>  <Rbt.Receptor>
prm/blind_docking_100.prm

>  <SCORE>
-24.0563

>  <SCORE.INTER>
-24.0563

>  <SCORE.INTER.CONST>
1

>  <SCORE.INTER.POLAR>
0

>  <SCORE.INTER.ROT>
0

>  <SCORE.INTER.SOLV>
11.4958

>  <SCORE.INTER.VDW>
-23.4694

>  <SCORE.INTER.norm>
-1.85048

>  <SCORE.INTRA>
0

>  <SCORE.INTRA.DIHEDRAL>
0

>  <SCORE.INTRA.DIHEDRAL.0>
0

>  <SCORE.INTRA.POLAR>
0

>  <SCORE.INTRA.POLAR.0>
0

>  <SCORE.INTRA.REPUL>
0

>  <SCORE.INTRA.REPUL.0>
0

>  <SCORE.INTRA.SOLV>
0

>  <SCORE.INTRA.SOLV.lig_0>
-33.1994

>  <SCORE.INTRA.VDW>
0

>  <SCORE.INTRA.VDW.0>
0

>  <SCORE.INTRA.norm>
0

>  <SCORE.RESTR>
0

>  <SCORE.RESTR.CAVITY>
0

>  <SCORE.RESTR.norm>
0

>  <SCORE.SYSTEM>
0

>  <SCORE.SYSTEM.CONST>
0

>  <SCORE.SYSTEM.DIHEDRAL>
0

>  <SCORE.SYSTEM.SOLV>
0

>  <SCORE.SYSTEM.norm>
0

>  <SCORE.heavy>
13

>  <SCORE.norm>
-1.85048

>  <RMSD>
4.897

$$$$
ligand
 OpenBabel11021811473D
libRbt.so/2013.1/901 2013/11/27
 13 14  0  0  0  0  0  0  0  0999 V2000
   36.5426   32.0678   26.7322 N   0  0  0  0  0  0  0  0  0  0  0  0
   37.6684   33.1714   26.8911 C   0  0  0  0  0  0  0  0  0  0  0  0
   38.6256   33.0173   27.8748 N   0  0  0  0  0  0  0  0  0  0  0  0
   37.5250   34.1183   26.0625 N   0  0  0  0  0  0  0  0  0  0  0  0
   36.6213   34.3147   25.0833 C   0  0  0  0  0  0  0  0  0  0  0  0
   35.6354   33.4207   24.8726 C   0  0  0  0  0  0  0  0  0  0  0  0
   35.5860   32.1553   25.8167 C   0  0  0  0  0  0  0  0  0  0  0  0
   34.7132   31.3726   25.6188 O   0  0  0  0  0  0  0  0  0  0  0  0
   34.6931   33.8332   23.7265 C   0  0  0  0  0  0  0  0  0  0  0  0
   35.1810   34.9936   23.2739 C   0  0  0  0  0  0  0  0  0  0  0  0
   36.2900   35.4543   23.9311 N   0  0  0  0  0  0  0  0  0  0  0  0
   33.5242   33.0695   23.2344 C   0  0  0  0  0  0  0  0  0  0  0  0
   32.6081   32.4450   22.9064 N   0  0  0  0  0  0  0  0  0  0  0  0
  1  2  1  0  0  0  0
  1  7  1  0  0  0  0
  2  3  1  0  0  0  0
  2  4  2  0  0  0  0
  4  5  1  0  0  0  0
  5  6  2  0  0  0  0
  5 11  1  0  0  0  0
  6  7  1  0  0  0  0
  6  9  1  0  0  0  0
  7  8  2  0  0  0  0
  9 10  2  0  0  0  0
  9 12  1  0  0  0  0
 10 11  1  0  0  0  0
 12 13  3  0  0  0  0
M  END
>  <CHROM.1>
35.79179585,33.29955718,25.11624457,0.44902121,0.62106890,2.49039403

>  <Name>
ligand

>  <RI>
0

>  <Rbt.Current_Directory>
/home/itssahil/PROJECTS/Mol_Feturizer/New_Systems/rnas/3GCA

>  <Rbt.Executable>
rbdock ($Id: //depot/dev/client3/rdock/2013.1/src/exe/rbdock.cxx#4 $)

>  <Rbt.Library>
libRbt.so (2013.1, Build901 2013/11/27)

>  <Rbt.Parameter_File>
/export/apps/rDock/src/rDock_2013.1_src/data/scripts/dock_solv.prm

>  <Rbt.Receptor>
prm/blind_docking_100.prm

>  <SCORE>
-23.9922

>  <SCORE.INTER>
-23.9922

>  <SCORE.INTER.CONST>
1

>  <SCORE.INTER.POLAR>
0

>  <SCORE.INTER.ROT>
0

>  <SCORE.INTER.SOLV>
10.9438

>  <SCORE.INTER.VDW>
-23.2428

>  <SCORE.INTER.norm>
-1.84556

>  <SCORE.INTRA>
0

>  <SCORE.INTRA.DIHEDRAL>
0

>  <SCORE.INTRA.DIHEDRAL.0>
0

>  <SCORE.INTRA.POLAR>
0

>  <SCORE.INTRA.POLAR.0>
0

>  <SCORE.INTRA.REPUL>
0

>  <SCORE.INTRA.REPUL.0>
0

>  <SCORE.INTRA.SOLV>
0

>  <SCORE.INTRA.SOLV.lig_0>
-33.1994

>  <SCORE.INTRA.VDW>
0

>  <SCORE.INTRA.VDW.0>
0

>  <SCORE.INTRA.norm>
0

>  <SCORE.RESTR>
0

>  <SCORE.RESTR.CAVITY>
0

>  <SCORE.RESTR.norm>
0

>  <SCORE.SYSTEM>
0

>  <SCORE.SYSTEM.CONST>
0

>  <SCORE.SYSTEM.DIHEDRAL>
0

>  <SCORE.SYSTEM.SOLV>
0

>  <SCORE.SYSTEM.norm>
0

>  <SCORE.heavy>
13

>  <SCORE.norm>
-1.84556

>  <RMSD>
4.897

$$$$
ligand
 OpenBabel11021811473D
libRbt.so/2013.1/901 2013/11/27
 13 14  0  0  0  0  0  0  0  0999 V2000
   36.4636   32.0833   26.7601 N   0  0  0  0  0  0  0  0  0  0  0  0
   37.6039   33.1746   26.8973 C   0  0  0  0  0  0  0  0  0  0  0  0
   38.5461   33.0393   27.8981 N   0  0  0  0  0  0  0  0  0  0  0  0
   37.4857   34.0954   26.0359 N   0  0  0  0  0  0  0  0  0  0  0  0
   36.5976   34.2725   25.0388 C   0  0  0  0  0  0  0  0  0  0  0  0
   35.6009   33.3867   24.8448 C   0  0  0  0  0  0  0  0  0  0  0  0
   35.5201   32.1544   25.8297 C   0  0  0  0  0  0  0  0  0  0  0  0
   34.6381   31.3786   25.6462 O   0  0  0  0  0  0  0  0  0  0  0  0
   34.6797   33.7747   23.6733 C   0  0  0  0  0  0  0  0  0  0  0  0
   35.1911   34.9120   23.1890 C   0  0  0  0  0  0  0  0  0  0  0  0
   36.2986   35.3778   23.8452 N   0  0  0  0  0  0  0  0  0  0  0  0
   33.5057   33.0126   23.1914 C   0  0  0  0  0  0  0  0  0  0  0  0
   32.5844   32.3912   22.8722 N   0  0  0  0  0  0  0  0  0  0  0  0
  1  2  1  0  0  0  0
  1  7  1  0  0  0  0
  2  3  1  0  0  0  0
  2  4  2  0  0  0  0
  4  5  1  0  0  0  0
  5  6  2  0  0  0  0
  5 11  1  0  0  0  0
  6  7  1  0  0  0  0
  6  9  1  0  0  0  0
  7  8  2  0  0  0  0
  9 10  2  0  0  0  0
  9 12  1  0  0  0  0
 10 11  1  0  0  0  0
 12 13  3  0  0  0  0
M  END
>  <CHROM.1>
35.75233119,33.27147616,25.09440857,0.47351154,0.62178659,2.44288578

>  <Name>
ligand

>  <RI>
0

>  <Rbt.Current_Directory>
/home/itssahil/PROJECTS/Mol_Feturizer/New_Systems/rnas/3GCA

>  <Rbt.Executable>
rbdock ($Id: //depot/dev/client3/rdock/2013.1/src/exe/rbdock.cxx#4 $)

>  <Rbt.Library>
libRbt.so (2013.1, Build901 2013/11/27)

>  <Rbt.Parameter_File>
/export/apps/rDock/src/rDock_2013.1_src/data/scripts/dock_solv.prm

>  <Rbt.Receptor>
prm/blind_docking_100.prm

>  <SCORE>
-24.0048

>  <SCORE.INTER>
-24.0048

>  <SCORE.INTER.CONST>
1

>  <SCORE.INTER.POLAR>
0

>  <SCORE.INTER.ROT>
0

>  <SCORE.INTER.SOLV>
11.2906

>  <SCORE.INTER.VDW>
-23.3667

>  <SCORE.INTER.norm>
-1.84652

>  <SCORE.INTRA>
0

>  <SCORE.INTRA.DIHEDRAL>
0

>  <SCORE.INTRA.DIHEDRAL.0>
0

>  <SCORE.INTRA.POLAR>
0

>  <SCORE.INTRA.POLAR.0>
0

>  <SCORE.INTRA.REPUL>
0

>  <SCORE.INTRA.REPUL.0>
0

>  <SCORE.INTRA.SOLV>
0

>  <SCORE.INTRA.SOLV.lig_0>
-33.1994

>  <SCORE.INTRA.VDW>
0

>  <SCORE.INTRA.VDW.0>
0

>  <SCORE.INTRA.norm>
0

>  <SCORE.RESTR>
0

>  <SCORE.RESTR.CAVITY>
0

>  <SCORE.RESTR.norm>
0

>  <SCORE.SYSTEM>
0

>  <SCORE.SYSTEM.CONST>
0

>  <SCORE.SYSTEM.DIHEDRAL>
0

>  <SCORE.SYSTEM.SOLV>
0

>  <SCORE.SYSTEM.norm>
0

>  <SCORE.heavy>
13

>  <SCORE.norm>
-1.84652

>  <RMSD>
4.897

$$$$
ligand
 OpenBabel11021811473D
libRbt.so/2013.1/901 2013/11/27
 13 14  0  0  0  0  0  0  0  0999 V2000
   36.4334   32.1068   26.7853 N   0  0  0  0  0  0  0  0  0  0  0  0
   37.5968   33.1765   26.8986 C   0  0  0  0  0  0  0  0  0  0  0  0
   38.5370   33.0424   27.9014 N   0  0  0  0  0  0  0  0  0  0  0  0
   37.4972   34.0811   26.0179 N   0  0  0  0  0  0  0  0  0  0  0  0
   36.6119   34.2557   25.0179 C   0  0  0  0  0  0  0  0  0  0  0  0
   35.5965   33.3873   24.8434 C   0  0  0  0  0  0  0  0  0  0  0  0
   35.4907   32.1782   25.8542 C   0  0  0  0  0  0  0  0  0  0  0  0
   34.5922   31.4175   25.6878 O   0  0  0  0  0  0  0  0  0  0  0  0
   34.6824   33.7699   23.6644 C   0  0  0  0  0  0  0  0  0  0  0  0
   35.2173   34.8855   23.1558 C   0  0  0  0  0  0  0  0  0  0  0  0
   36.3350   35.3416   23.8013 N   0  0  0  0  0  0  0  0  0  0  0  0
   33.4920   33.0227   23.1996 C   0  0  0  0  0  0  0  0  0  0  0  0
   32.5574   32.4143   22.8942 N   0  0  0  0  0  0  0  0  0  0  0  0
  1  2  1  0  0  0  0
  1  7  1  0  0  0  0
  2  3  1  0  0  0  0
  2  4  2  0  0  0  0
  4  5  1  0  0  0  0
  5  6  2  0  0  0  0
  5 11  1  0  0  0  0
  6  7  1  0  0  0  0
  6  9  1  0  0  0  0
  7  8  2  0  0  0  0
  9 10  2  0  0  0  0
  9 12  1  0  0  0  0
 10 11  1  0  0  0  0
 12 13  3  0  0  0  0
M  END
>  <CHROM.1>
35.74569105,33.27424507,25.09524486,0.49239167,0.60724449,2.41077447

>  <Name>
ligand

>  <RI>
0

>  <Rbt.Current_Directory>
/home/itssahil/PROJECTS/Mol_Feturizer/New_Systems/rnas/3GCA

>  <Rbt.Executable>
rbdock ($Id: //depot/dev/client3/rdock/2013.1/src/exe/rbdock.cxx#4 $)

>  <Rbt.Library>
libRbt.so (2013.1, Build901 2013/11/27)

>  <Rbt.Parameter_File>
/export/apps/rDock/src/rDock_2013.1_src/data/scripts/dock_solv.prm

>  <Rbt.Receptor>
prm/blind_docking_60.prm

>  <SCORE>
-24.0253

>  <SCORE.INTER>
-24.0253

>  <SCORE.INTER.CONST>
1

>  <SCORE.INTER.POLAR>
0

>  <SCORE.INTER.ROT>
0

>  <SCORE.INTER.SOLV>
11.3145

>  <SCORE.INTER.VDW>
-23.3883

>  <SCORE.INTER.norm>
-1.8481

>  <SCORE.INTRA>
0

>  <SCORE.INTRA.DIHEDRAL>
0

>  <SCORE.INTRA.DIHEDRAL.0>
0

>  <SCORE.INTRA.POLAR>
0

>  <SCORE.INTRA.POLAR.0>
0

>  <SCORE.INTRA.REPUL>
0

>  <SCORE.INTRA.REPUL.0>
0

>  <SCORE.INTRA.SOLV>
0

>  <SCORE.INTRA.SOLV.lig_0>
-33.1994

>  <SCORE.INTRA.VDW>
0

>  <SCORE.INTRA.VDW.0>
0

>  <SCORE.INTRA.norm>
0

>  <SCORE.RESTR>
0

>  <SCORE.RESTR.CAVITY>
0

>  <SCORE.RESTR.norm>
0

>  <SCORE.SYSTEM>
0

>  <SCORE.SYSTEM.CONST>
0

>  <SCORE.SYSTEM.DIHEDRAL>
0

>  <SCORE.SYSTEM.SOLV>
0

>  <SCORE.SYSTEM.norm>
0

>  <SCORE.heavy>
13

>  <SCORE.norm>
-1.8481

>  <RMSD>
4.897

$$$$
ligand
 OpenBabel11021811473D
libRbt.so/2013.1/901 2013/11/27
 13 14  0  0  0  0  0  0  0  0999 V2000
   36.4331   32.0999   26.7793 N   0  0  0  0  0  0  0  0  0  0  0  0
   37.5975   33.1683   26.8940 C   0  0  0  0  0  0  0  0  0  0  0  0
   38.5384   33.0312   27.8957 N   0  0  0  0  0  0  0  0  0  0  0  0
   37.4979   34.0749   26.0154 N   0  0  0  0  0  0  0  0  0  0  0  0
   36.6120   34.2525   25.0164 C   0  0  0  0  0  0  0  0  0  0  0  0
   35.5956   33.3853   24.8409 C   0  0  0  0  0  0  0  0  0  0  0  0
   35.4897   32.1741   25.8491 C   0  0  0  0  0  0  0  0  0  0  0  0
   34.5904   31.4146   25.6818 O   0  0  0  0  0  0  0  0  0  0  0  0
   34.6810   33.7713   23.6635 C   0  0  0  0  0  0  0  0  0  0  0  0
   35.2163   34.8876   23.1569 C   0  0  0  0  0  0  0  0  0  0  0  0
   36.3350   35.3412   23.8025 N   0  0  0  0  0  0  0  0  0  0  0  0
   33.4895   33.0262   23.1980 C   0  0  0  0  0  0  0  0  0  0  0  0
   32.5541   32.4192   22.8921 N   0  0  0  0  0  0  0  0  0  0  0  0
  1  2  1  0  0  0  0
  1  7  1  0  0  0  0
  2  3  1  0  0  0  0
  2  4  2  0  0  0  0
  4  5  1  0  0  0  0
  5  6  2  0  0  0  0
  5 11  1  0  0  0  0
  6  7  1  0  0  0  0
  6  9  1  0  0  0  0
  7  8  2  0  0  0  0
  9 10  2  0  0  0  0
  9 12  1  0  0  0  0
 10 11  1  0  0  0  0
 12 13  3  0  0  0  0
M  END
>  <CHROM.1>
35.74496805,33.27157906,25.09238347,0.49251167,0.60605280,2.41289199

>  <Name>
ligand

>  <RI>
0

>  <Rbt.Current_Directory>
/home/itssahil/PROJECTS/Mol_Feturizer/New_Systems/rnas/3GCA

>  <Rbt.Executable>
rbdock ($Id: //depot/dev/client3/rdock/2013.1/src/exe/rbdock.cxx#4 $)

>  <Rbt.Library>
libRbt.so (2013.1, Build901 2013/11/27)

>  <Rbt.Parameter_File>
/export/apps/rDock/src/rDock_2013.1_src/data/scripts/dock_solv.prm

>  <Rbt.Receptor>
prm/blind_docking_60.prm

>  <SCORE>
-24.0276

>  <SCORE.INTER>
-24.0276

>  <SCORE.INTER.CONST>
1

>  <SCORE.INTER.POLAR>
0

>  <SCORE.INTER.ROT>
0

>  <SCORE.INTER.SOLV>
11.3088

>  <SCORE.INTER.VDW>
-23.388

>  <SCORE.INTER.norm>
-1.84828

>  <SCORE.INTRA>
0

>  <SCORE.INTRA.DIHEDRAL>
0

>  <SCORE.INTRA.DIHEDRAL.0>
0

>  <SCORE.INTRA.POLAR>
0

>  <SCORE.INTRA.POLAR.0>
0

>  <SCORE.INTRA.REPUL>
0

>  <SCORE.INTRA.REPUL.0>
0

>  <SCORE.INTRA.SOLV>
0

>  <SCORE.INTRA.SOLV.lig_0>
-33.1994

>  <SCORE.INTRA.VDW>
0

>  <SCORE.INTRA.VDW.0>
0

>  <SCORE.INTRA.norm>
0

>  <SCORE.RESTR>
0

>  <SCORE.RESTR.CAVITY>
0

>  <SCORE.RESTR.norm>
0

>  <SCORE.SYSTEM>
0

>  <SCORE.SYSTEM.CONST>
0

>  <SCORE.SYSTEM.DIHEDRAL>
0

>  <SCORE.SYSTEM.SOLV>
0

>  <SCORE.SYSTEM.norm>
0

>  <SCORE.heavy>
13

>  <SCORE.norm>
-1.84828

>  <RMSD>
4.897

$$$$
ligand
 OpenBabel11021811473D
libRbt.so/2013.1/901 2013/11/27
 13 14  0  0  0  0  0  0  0  0999 V2000
   36.4527   32.0648   26.7518 N   0  0  0  0  0  0  0  0  0  0  0  0
   37.5897   33.1591   26.8935 C   0  0  0  0  0  0  0  0  0  0  0  0
   38.5331   33.0218   27.8928 N   0  0  0  0  0  0  0  0  0  0  0  0
   37.4679   34.0837   26.0367 N   0  0  0  0  0  0  0  0  0  0  0  0
   36.5784   34.2628   25.0412 C   0  0  0  0  0  0  0  0  0  0  0  0
   35.5844   33.3748   24.8437 C   0  0  0  0  0  0  0  0  0  0  0  0
   35.5083   32.1375   25.8225 C   0  0  0  0  0  0  0  0  0  0  0  0
   34.6285   31.3598   25.6360 O   0  0  0  0  0  0  0  0  0  0  0  0
   34.6611   33.7657   23.6748 C   0  0  0  0  0  0  0  0  0  0  0  0
   35.1685   34.9070   23.1956 C   0  0  0  0  0  0  0  0  0  0  0  0
   36.2750   35.3730   23.8533 N   0  0  0  0  0  0  0  0  0  0  0  0
   33.4890   33.0022   23.1901 C   0  0  0  0  0  0  0  0  0  0  0  0
   32.5694   32.3795   22.8686 N   0  0  0  0  0  0  0  0  0  0  0  0
  1  2  1  0  0  0  0
  1  7  1  0  0  0  0
  2  3  1  0  0  0  0
  2  4  2  0  0  0  0
  4  5  1  0  0  0  0
  5  6  2  0  0  0  0
  5 11  1  0  0  0  0
  6  7  1  0  0  0  0
  6  9  1  0  0  0  0
  7  8  2  0  0  0  0
  9 10  2  0  0  0  0
  9 12  1  0  0  0  0
 10 11  1  0  0  0  0
 12 13  3  0  0  0  0
M  END
>  <CHROM.1>
35.73638350,33.25887734,25.09257192,0.46989739,0.62319193,2.44988883

>  <Name>
ligand

>  <RI>
0

>  <Rbt.Current_Directory>
/home/itssahil/PROJECTS/Mol_Feturizer/New_Systems/rnas/3GCA

>  <Rbt.Executable>
rbdock ($Id: //depot/dev/client3/rdock/2013.1/src/exe/rbdock.cxx#4 $)

>  <Rbt.Library>
libRbt.so (2013.1, Build901 2013/11/27)

>  <Rbt.Parameter_File>
/export/apps/rDock/src/rDock_2013.1_src/data/scripts/dock_solv.prm

>  <Rbt.Receptor>
prm/blind_docking_80.prm

>  <SCORE>
-24.0623

>  <SCORE.INTER>
-24.0623

>  <SCORE.INTER.CONST>
1

>  <SCORE.INTER.POLAR>
0

>  <SCORE.INTER.ROT>
0

>  <SCORE.INTER.SOLV>
11.3629

>  <SCORE.INTER.VDW>
-23.4292

>  <SCORE.INTER.norm>
-1.85095

>  <SCORE.INTRA>
0

>  <SCORE.INTRA.DIHEDRAL>
0

>  <SCORE.INTRA.DIHEDRAL.0>
0

>  <SCORE.INTRA.POLAR>
0

>  <SCORE.INTRA.POLAR.0>
0

>  <SCORE.INTRA.REPUL>
0

>  <SCORE.INTRA.REPUL.0>
0

>  <SCORE.INTRA.SOLV>
0

>  <SCORE.INTRA.SOLV.lig_0>
-33.1994

>  <SCORE.INTRA.VDW>
0

>  <SCORE.INTRA.VDW.0>
0

>  <SCORE.INTRA.norm>
0

>  <SCORE.RESTR>
0

>  <SCORE.RESTR.CAVITY>
0

>  <SCORE.RESTR.norm>
0

>  <SCORE.SYSTEM>
0

>  <SCORE.SYSTEM.CONST>
0

>  <SCORE.SYSTEM.DIHEDRAL>
0

>  <SCORE.SYSTEM.SOLV>
0

>  <SCORE.SYSTEM.norm>
0

>  <SCORE.heavy>
13

>  <SCORE.norm>
-1.85095

>  <RMSD>
4.897

$$$$
ligand
 OpenBabel11021811473D
libRbt.so/2013.1/901 2013/11/27
 13 14  0  0  0  0  0  0  0  0999 V2000
   36.4560   32.1270   26.7929 N   0  0  0  0  0  0  0  0  0  0  0  0
   37.6164   33.1993   26.9111 C   0  0  0  0  0  0  0  0  0  0  0  0
   38.5593   33.0610   27.9108 N   0  0  0  0  0  0  0  0  0  0  0  0
   37.5120   34.1099   26.0372 N   0  0  0  0  0  0  0  0  0  0  0  0
   36.6239   34.2890   25.0404 C   0  0  0  0  0  0  0  0  0  0  0  0
   35.6107   33.4188   24.8621 C   0  0  0  0  0  0  0  0  0  0  0  0
   35.5109   32.2021   25.8645 C   0  0  0  0  0  0  0  0  0  0  0  0
   34.6143   31.4400   25.6947 O   0  0  0  0  0  0  0  0  0  0  0  0
   34.6928   33.8070   23.6880 C   0  0  0  0  0  0  0  0  0  0  0  0
   35.2231   34.9278   23.1861 C   0  0  0  0  0  0  0  0  0  0  0  0
   36.3410   35.3826   23.8323 N   0  0  0  0  0  0  0  0  0  0  0  0
   33.5036   33.0595   23.2205 C   0  0  0  0  0  0  0  0  0  0  0  0
   32.5701   32.4505   22.9130 N   0  0  0  0  0  0  0  0  0  0  0  0
  1  2  1  0  0  0  0
  1  7  1  0  0  0  0
  2  3  1  0  0  0  0
  2  4  2  0  0  0  0
  4  5  1  0  0  0  0
  5  6  2  0  0  0  0
  5 11  1  0  0  0  0
  6  7  1  0  0  0  0
  6  9  1  0  0  0  0
  7  8  2  0  0  0  0
  9 10  2  0  0  0  0
  9 12  1  0  0  0  0
 10 11  1  0  0  0  0
 12 13  3  0  0  0  0
M  END
>  <CHROM.1>
35.76086822,33.30435345,25.11278200,0.48778593,0.60753752,2.42054295

>  <Name>
ligand

>  <RI>
0

>  <Rbt.Current_Directory>
/home/itssahil/PROJECTS/Mol_Feturizer/New_Systems/rnas/3GCA

>  <Rbt.Executable>
rbdock ($Id: //depot/dev/client3/rdock/2013.1/src/exe/rbdock.cxx#4 $)

>  <Rbt.Library>
libRbt.so (2013.1, Build901 2013/11/27)

>  <Rbt.Parameter_File>
/export/apps/rDock/src/rDock_2013.1_src/data/scripts/dock_solv.prm

>  <Rbt.Receptor>
prm/blind_docking_80.prm

>  <SCORE>
-24.0065

>  <SCORE.INTER>
-24.0065

>  <SCORE.INTER.CONST>
1

>  <SCORE.INTER.POLAR>
0

>  <SCORE.INTER.ROT>
0

>  <SCORE.INTER.SOLV>
11.2056

>  <SCORE.INTER.VDW>
-23.3395

>  <SCORE.INTER.norm>
-1.84665

>  <SCORE.INTRA>
0

>  <SCORE.INTRA.DIHEDRAL>
0

>  <SCORE.INTRA.DIHEDRAL.0>
0

>  <SCORE.INTRA.POLAR>
0

>  <SCORE.INTRA.POLAR.0>
0

>  <SCORE.INTRA.REPUL>
0

>  <SCORE.INTRA.REPUL.0>
0

>  <SCORE.INTRA.SOLV>
0

>  <SCORE.INTRA.SOLV.lig_0>
-33.1994

>  <SCORE.INTRA.VDW>
0

>  <SCORE.INTRA.VDW.0>
0

>  <SCORE.INTRA.norm>
0

>  <SCORE.RESTR>
0

>  <SCORE.RESTR.CAVITY>
0

>  <SCORE.RESTR.norm>
0

>  <SCORE.SYSTEM>
0

>  <SCORE.SYSTEM.CONST>
0

>  <SCORE.SYSTEM.DIHEDRAL>
0

>  <SCORE.SYSTEM.SOLV>
0

>  <SCORE.SYSTEM.norm>
0

>  <SCORE.heavy>
13

>  <SCORE.norm>
-1.84665

>  <RMSD>
4.897

$$$$
ligand
 OpenBabel11021811473D
libRbt.so/2013.1/901 2013/11/27
 13 14  0  0  0  0  0  0  0  0999 V2000
   36.4160   32.1241   26.7913 N   0  0  0  0  0  0  0  0  0  0  0  0
   37.5747   33.1981   26.9100 C   0  0  0  0  0  0  0  0  0  0  0  0
   38.5068   33.0714   27.9213 N   0  0  0  0  0  0  0  0  0  0  0  0
   37.4795   34.0988   26.0248 N   0  0  0  0  0  0  0  0  0  0  0  0
   36.6022   34.2663   25.0165 C   0  0  0  0  0  0  0  0  0  0  0  0
   35.5912   33.3937   24.8370 C   0  0  0  0  0  0  0  0  0  0  0  0
   35.4810   32.1883   25.8519 C   0  0  0  0  0  0  0  0  0  0  0  0
   34.5865   31.4240   25.6811 O   0  0  0  0  0  0  0  0  0  0  0  0
   34.6860   33.7682   23.6488 C   0  0  0  0  0  0  0  0  0  0  0  0
   35.2213   34.8836   23.1400 C   0  0  0  0  0  0  0  0  0  0  0  0
   36.3320   35.3461   23.7931 N   0  0  0  0  0  0  0  0  0  0  0  0
   33.5020   33.0151   23.1770 C   0  0  0  0  0  0  0  0  0  0  0  0
   32.5721   32.4022   22.8663 N   0  0  0  0  0  0  0  0  0  0  0  0
  1  2  1  0  0  0  0
  1  7  1  0  0  0  0
  2  3  1  0  0  0  0
  2  4  2  0  0  0  0
  4  5  1  0  0  0  0
  5  6  2  0  0  0  0
  5 11  1  0  0  0  0
  6  7  1  0  0  0  0
  6  9  1  0  0  0  0
  7  8  2  0  0  0  0
  9 10  2  0  0  0  0
  9 12  1  0  0  0  0
 10 11  1  0  0  0  0
 12 13  3  0  0  0  0
M  END
>  <CHROM.1>
35.73868846,33.28213916,25.09063342,0.49625094,0.61582209,2.40440835

>  <Name>
ligand

>  <RI>
0

>  <Rbt.Current_Directory>
/home/itssahil/PROJECTS/Mol_Feturizer/New_Systems/rnas/3GCA

>  <Rbt.Executable>
rbdock ($Id: //depot/dev/client3/rdock/2013.1/src/exe/rbdock.cxx#4 $)

>  <Rbt.Library>
libRbt.so (2013.1, Build901 2013/11/27)

>  <Rbt.Parameter_File>
/export/apps/rDock/src/rDock_2013.1_src/data/scripts/dock_solv.prm

>  <Rbt.Receptor>
prm/pocket_docking_3.prm

>  <SCORE>
-24.0059

>  <SCORE.INTER>
-24.0059

>  <SCORE.INTER.CONST>
1

>  <SCORE.INTER.POLAR>
0

>  <SCORE.INTER.ROT>
0

>  <SCORE.INTER.SOLV>
11.4436

>  <SCORE.INTER.VDW>
-23.4185

>  <SCORE.INTER.norm>
-1.84661

>  <SCORE.INTRA>
0

>  <SCORE.INTRA.DIHEDRAL>
0

>  <SCORE.INTRA.DIHEDRAL.0>
0

>  <SCORE.INTRA.POLAR>
0

>  <SCORE.INTRA.POLAR.0>
0

>  <SCORE.INTRA.REPUL>
0

>  <SCORE.INTRA.REPUL.0>
0

>  <SCORE.INTRA.SOLV>
0

>  <SCORE.INTRA.SOLV.lig_0>
-33.1994

>  <SCORE.INTRA.VDW>
0

>  <SCORE.INTRA.VDW.0>
0

>  <SCORE.INTRA.norm>
0

>  <SCORE.RESTR>
0

>  <SCORE.RESTR.CAVITY>
0

>  <SCORE.RESTR.norm>
0

>  <SCORE.SYSTEM>
0

>  <SCORE.SYSTEM.CONST>
0

>  <SCORE.SYSTEM.DIHEDRAL>
0

>  <SCORE.SYSTEM.SOLV>
0

>  <SCORE.SYSTEM.norm>
0

>  <SCORE.heavy>
13

>  <SCORE.norm>
-1.84661

>  <RMSD>
4.897

$$$$
ligand
 OpenBabel11021811473D
libRbt.so/2013.1/901 2013/11/27
 13 14  0  0  0  0  0  0  0  0999 V2000
   36.4144   32.0864   26.7885 N   0  0  0  0  0  0  0  0  0  0  0  0
   37.5766   33.1569   26.9052 C   0  0  0  0  0  0  0  0  0  0  0  0
   38.5171   33.0205   27.9075 N   0  0  0  0  0  0  0  0  0  0  0  0
   37.4758   34.0644   26.0277 N   0  0  0  0  0  0  0  0  0  0  0  0
   36.5902   34.2414   25.0283 C   0  0  0  0  0  0  0  0  0  0  0  0
   35.5757   33.3724   24.8511 C   0  0  0  0  0  0  0  0  0  0  0  0
   35.4715   32.1598   25.8578 C   0  0  0  0  0  0  0  0  0  0  0  0
   34.5738   31.3987   25.6890 O   0  0  0  0  0  0  0  0  0  0  0  0
   34.6610   33.7579   23.6736 C   0  0  0  0  0  0  0  0  0  0  0  0
   35.1945   34.8759   23.1686 C   0  0  0  0  0  0  0  0  0  0  0  0
   36.3119   35.3310   23.8155 N   0  0  0  0  0  0  0  0  0  0  0  0
   33.4714   33.0110   23.2064 C   0  0  0  0  0  0  0  0  0  0  0  0
   32.5374   32.4026   22.8992 N   0  0  0  0  0  0  0  0  0  0  0  0
  1  2  1  0  0  0  0
  1  7  1  0  0  0  0
  2  3  1  0  0  0  0
  2  4  2  0  0  0  0
  4  5  1  0  0  0  0
  5  6  2  0  0  0  0
  5 11  1  0  0  0  0
  6  7  1  0  0  0  0
  6  9  1  0  0  0  0
  7  8  2  0  0  0  0
  9 10  2  0  0  0  0
  9 12  1  0  0  0  0
 10 11  1  0  0  0  0
 12 13  3  0  0  0  0
M  END
>  <CHROM.1>
35.72508361,33.25868240,25.10255893,0.49123729,0.60787098,2.41480197

>  <Name>
ligand

>  <RI>
0

>  <Rbt.Current_Directory>
/home/itssahil/PROJECTS/Mol_Feturizer/New_Systems/rnas/3GCA

>  <Rbt.Executable>
rbdock ($Id: //depot/dev/client3/rdock/2013.1/src/exe/rbdock.cxx#4 $)

>  <Rbt.Library>
libRbt.so (2013.1, Build901 2013/11/27)

>  <Rbt.Parameter_File>
/export/apps/rDock/src/rDock_2013.1_src/data/scripts/dock_solv.prm

>  <Rbt.Receptor>
prm/pocket_docking_3.prm

>  <SCORE>
-24.0674

>  <SCORE.INTER>
-24.0674

>  <SCORE.INTER.CONST>
1

>  <SCORE.INTER.POLAR>
0

>  <SCORE.INTER.ROT>
0

>  <SCORE.INTER.SOLV>
11.4267

>  <SCORE.INTER.VDW>
-23.4539

>  <SCORE.INTER.norm>
-1.85134

>  <SCORE.INTRA>
0

>  <SCORE.INTRA.DIHEDRAL>
0

>  <SCORE.INTRA.DIHEDRAL.0>
0

>  <SCORE.INTRA.POLAR>
0

>  <SCORE.INTRA.POLAR.0>
0

>  <SCORE.INTRA.REPUL>
0

>  <SCORE.INTRA.REPUL.0>
0

>  <SCORE.INTRA.SOLV>
0

>  <SCORE.INTRA.SOLV.lig_0>
-33.1994

>  <SCORE.INTRA.VDW>
0

>  <SCORE.INTRA.VDW.0>
0

>  <SCORE.INTRA.norm>
0

>  <SCORE.RESTR>
0

>  <SCORE.RESTR.CAVITY>
0

>  <SCORE.RESTR.norm>
0

>  <SCORE.SYSTEM>
0

>  <SCORE.SYSTEM.CONST>
0

>  <SCORE.SYSTEM.DIHEDRAL>
0

>  <SCORE.SYSTEM.SOLV>
0

>  <SCORE.SYSTEM.norm>
0

>  <SCORE.heavy>
13

>  <SCORE.norm>
-1.85134

>  <RMSD>
4.897

$$$$
ligand
 OpenBabel11021811473D
libRbt.so/2013.1/901 2013/11/27
 13 14  0  0  0  0  0  0  0  0999 V2000
   36.4470   32.0960   26.7733 N   0  0  0  0  0  0  0  0  0  0  0  0
   37.5987   33.1768   26.8993 C   0  0  0  0  0  0  0  0  0  0  0  0
   38.5406   33.0410   27.9003 N   0  0  0  0  0  0  0  0  0  0  0  0
   37.4889   34.0909   26.0297 N   0  0  0  0  0  0  0  0  0  0  0  0
   36.6014   34.2679   25.0320 C   0  0  0  0  0  0  0  0  0  0  0  0
   35.5955   33.3906   24.8472 C   0  0  0  0  0  0  0  0  0  0  0  0
   35.5033   32.1682   25.8433 C   0  0  0  0  0  0  0  0  0  0  0  0
   34.6131   31.3999   25.6679 O   0  0  0  0  0  0  0  0  0  0  0  0
   34.6770   33.7774   23.6732 C   0  0  0  0  0  0  0  0  0  0  0  0
   35.1994   34.9049   23.1779 C   0  0  0  0  0  0  0  0  0  0  0  0
   36.3123   35.3653   23.8287 N   0  0  0  0  0  0  0  0  0  0  0  0
   33.4946   33.0229   23.1995 C   0  0  0  0  0  0  0  0  0  0  0  0
   32.5666   32.4081   22.8870 N   0  0  0  0  0  0  0  0  0  0  0  0
  1  2  1  0  0  0  0
  1  7  1  0  0  0  0
  2  3  1  0  0  0  0
  2  4  2  0  0  0  0
  4  5  1  0  0  0  0
  5  6  2  0  0  0  0
  5 11  1  0  0  0  0
  6  7  1  0  0  0  0
  6  9  1  0  0  0  0
  7  8  2  0  0  0  0
  9 10  2  0  0  0  0
  9 12  1  0  0  0  0
 10 11  1  0  0  0  0
 12 13  3  0  0  0  0
M  END
>  <CHROM.1>
35.74601768,33.27615954,25.09766517,0.48216612,0.61428094,2.42873273

>  <Name>
ligand

>  <RI>
0

>  <Rbt.Current_Directory>
/home/itssahil/PROJECTS/Mol_Feturizer/New_Systems/rnas/3GCA

>  <Rbt.Executable>
rbdock ($Id: //depot/dev/client3/rdock/2013.1/src/exe/rbdock.cxx#4 $)

>  <Rbt.Library>
libRbt.so (2013.1, Build901 2013/11/27)

>  <Rbt.Parameter_File>
/export/apps/rDock/src/rDock_2013.1_src/data/scripts/dock_solv.prm

>  <Rbt.Receptor>
prm/pocket_docking_3.prm

>  <SCORE>
-24.0087

>  <SCORE.INTER>
-24.0087

>  <SCORE.INTER.CONST>
1

>  <SCORE.INTER.POLAR>
0

>  <SCORE.INTER.ROT>
0

>  <SCORE.INTER.SOLV>
11.3062

>  <SCORE.INTER.VDW>
-23.3745

>  <SCORE.INTER.norm>
-1.84682

>  <SCORE.INTRA>
0

>  <SCORE.INTRA.DIHEDRAL>
0

>  <SCORE.INTRA.DIHEDRAL.0>
0

>  <SCORE.INTRA.POLAR>
0

>  <SCORE.INTRA.POLAR.0>
0

>  <SCORE.INTRA.REPUL>
0

>  <SCORE.INTRA.REPUL.0>
0

>  <SCORE.INTRA.SOLV>
0

>  <SCORE.INTRA.SOLV.lig_0>
-33.1994

>  <SCORE.INTRA.VDW>
0

>  <SCORE.INTRA.VDW.0>
0

>  <SCORE.INTRA.norm>
0

>  <SCORE.RESTR>
0

>  <SCORE.RESTR.CAVITY>
0

>  <SCORE.RESTR.norm>
0

>  <SCORE.SYSTEM>
0

>  <SCORE.SYSTEM.CONST>
0

>  <SCORE.SYSTEM.DIHEDRAL>
0

>  <SCORE.SYSTEM.SOLV>
0

>  <SCORE.SYSTEM.norm>
0

>  <SCORE.heavy>
13

>  <SCORE.norm>
-1.84682

>  <RMSD>
4.897

$$$$
ligand
 OpenBabel11021811473D
libRbt.so/2013.1/901 2013/11/27
 13 14  0  0  0  0  0  0  0  0999 V2000
   36.4453   32.0683   26.7595 N   0  0  0  0  0  0  0  0  0  0  0  0
   37.5920   33.1537   26.8913 C   0  0  0  0  0  0  0  0  0  0  0  0
   38.5359   33.0155   27.8900 N   0  0  0  0  0  0  0  0  0  0  0  0
   37.4768   34.0730   26.0280 N   0  0  0  0  0  0  0  0  0  0  0  0
   36.5871   34.2526   25.0327 C   0  0  0  0  0  0  0  0  0  0  0  0
   35.5851   33.3719   24.8433 C   0  0  0  0  0  0  0  0  0  0  0  0
   35.4999   32.1424   25.8313 C   0  0  0  0  0  0  0  0  0  0  0  0
   34.6131   31.3711   25.6519 O   0  0  0  0  0  0  0  0  0  0  0  0
   34.6632   33.7622   23.6731 C   0  0  0  0  0  0  0  0  0  0  0  0
   35.1796   34.8955   23.1848 C   0  0  0  0  0  0  0  0  0  0  0  0
   36.2913   35.3567   23.8372 N   0  0  0  0  0  0  0  0  0  0  0  0
   33.4837   33.0055   23.1960 C   0  0  0  0  0  0  0  0  0  0  0  0
   32.5582   32.3884   22.8805 N   0  0  0  0  0  0  0  0  0  0  0  0
  1  2  1  0  0  0  0
  1  7  1  0  0  0  0
  2  3  1  0  0  0  0
  2  4  2  0  0  0  0
  4  5  1  0  0  0  0
  5  6  2  0  0  0  0
  5 11  1  0  0  0  0
  6  7  1  0  0  0  0
  6  9  1  0  0  0  0
  7  8  2  0  0  0  0
  9 10  2  0  0  0  0
  9 12  1  0  0  0  0
 10 11  1  0  0  0  0
 12 13  3  0  0  0  0
M  END
>  <CHROM.1>
35.73647956,33.25644335,25.09277873,0.47674839,0.61630376,2.43859680

>  <Name>
ligand

>  <RI>
0

>  <Rbt.Current_Directory>
/home/itssahil/PROJECTS/Mol_Feturizer/New_Systems/rnas/3GCA

>  <Rbt.Executable>
rbdock ($Id: //depot/dev/client3/rdock/2013.1/src/exe/rbdock.cxx#4 $)

>  <Rbt.Library>
libRbt.so (2013.1, Build901 2013/11/27)

>  <Rbt.Parameter_File>
/export/apps/rDock/src/rDock_2013.1_src/data/scripts/dock_solv.prm

>  <Rbt.Receptor>
prm/pocket_docking_3.prm

>  <SCORE>
-24.0297

>  <SCORE.INTER>
-24.0297

>  <SCORE.INTER.CONST>
1

>  <SCORE.INTER.POLAR>
0

>  <SCORE.INTER.ROT>
0

>  <SCORE.INTER.SOLV>
11.3445

>  <SCORE.INTER.VDW>
-23.4013

>  <SCORE.INTER.norm>
-1.84844

>  <SCORE.INTRA>
0

>  <SCORE.INTRA.DIHEDRAL>
0

>  <SCORE.INTRA.DIHEDRAL.0>
0

>  <SCORE.INTRA.POLAR>
0

>  <SCORE.INTRA.POLAR.0>
0

>  <SCORE.INTRA.REPUL>
0

>  <SCORE.INTRA.REPUL.0>
0

>  <SCORE.INTRA.SOLV>
0

>  <SCORE.INTRA.SOLV.lig_0>
-33.1994

>  <SCORE.INTRA.VDW>
0

>  <SCORE.INTRA.VDW.0>
0

>  <SCORE.INTRA.norm>
0

>  <SCORE.RESTR>
0

>  <SCORE.RESTR.CAVITY>
0

>  <SCORE.RESTR.norm>
0

>  <SCORE.SYSTEM>
0

>  <SCORE.SYSTEM.CONST>
0

>  <SCORE.SYSTEM.DIHEDRAL>
0

>  <SCORE.SYSTEM.SOLV>
0

>  <SCORE.SYSTEM.norm>
0

>  <SCORE.heavy>
13

>  <SCORE.norm>
-1.84844

>  <RMSD>
4.897

$$$$
ligand
 OpenBabel11021811473D
libRbt.so/2013.1/901 2013/11/27
 13 14  0  0  0  0  0  0  0  0999 V2000
   36.4430   32.0682   26.7651 N   0  0  0  0  0  0  0  0  0  0  0  0
   37.5928   33.1507   26.8937 C   0  0  0  0  0  0  0  0  0  0  0  0
   38.5361   33.0129   27.8931 N   0  0  0  0  0  0  0  0  0  0  0  0
   37.4803   34.0677   26.0275 N   0  0  0  0  0  0  0  0  0  0  0  0
   36.5914   34.2467   25.0315 C   0  0  0  0  0  0  0  0  0  0  0  0
   35.5869   33.3683   24.8446 C   0  0  0  0  0  0  0  0  0  0  0  0
   35.4980   32.1421   25.8364 C   0  0  0  0  0  0  0  0  0  0  0  0
   34.6090   31.3728   25.6592 O   0  0  0  0  0  0  0  0  0  0  0  0
   34.6663   33.7576   23.6730 C   0  0  0  0  0  0  0  0  0  0  0  0
   35.1861   34.8879   23.1813 C   0  0  0  0  0  0  0  0  0  0  0  0
   36.2990   35.3479   23.8325 N   0  0  0  0  0  0  0  0  0  0  0  0
   33.4848   33.0028   23.1980 C   0  0  0  0  0  0  0  0  0  0  0  0
   32.5576   32.3873   22.8843 N   0  0  0  0  0  0  0  0  0  0  0  0
  1  2  1  0  0  0  0
  1  7  1  0  0  0  0
  2  3  1  0  0  0  0
  2  4  2  0  0  0  0
  4  5  1  0  0  0  0
  5  6  2  0  0  0  0
  5 11  1  0  0  0  0
  6  7  1  0  0  0  0
  6  9  1  0  0  0  0
  7  8  2  0  0  0  0
  9 10  2  0  0  0  0
  9 12  1  0  0  0  0
 10 11  1  0  0  0  0
 12 13  3  0  0  0  0
M  END
>  <CHROM.1>
35.73790253,33.25317984,25.09451271,0.47958568,0.61461105,2.43384461

>  <Name>
ligand

>  <RI>
0

>  <Rbt.Current_Directory>
/home/itssahil/PROJECTS/Mol_Feturizer/New_Systems/rnas/3GCA

>  <Rbt.Executable>
rbdock ($Id: //depot/dev/client3/rdock/2013.1/src/exe/rbdock.cxx#4 $)

>  <Rbt.Library>
libRbt.so (2013.1, Build901 2013/11/27)

>  <Rbt.Parameter_File>
/export/apps/rDock/src/rDock_2013.1_src/data/scripts/dock_solv.prm

>  <Rbt.Receptor>
prm/pocket_docking_4.prm

>  <SCORE>
-24.0197

>  <SCORE.INTER>
-24.0197

>  <SCORE.INTER.CONST>
1

>  <SCORE.INTER.POLAR>
0

>  <SCORE.INTER.ROT>
0

>  <SCORE.INTER.SOLV>
11.3467

>  <SCORE.INTER.VDW>
-23.3954

>  <SCORE.INTER.norm>
-1.84767

>  <SCORE.INTRA>
0

>  <SCORE.INTRA.DIHEDRAL>
0

>  <SCORE.INTRA.DIHEDRAL.0>
0

>  <SCORE.INTRA.POLAR>
0

>  <SCORE.INTRA.POLAR.0>
0

>  <SCORE.INTRA.REPUL>
0

>  <SCORE.INTRA.REPUL.0>
0

>  <SCORE.INTRA.SOLV>
0

>  <SCORE.INTRA.SOLV.lig_0>
-33.1994

>  <SCORE.INTRA.VDW>
0

>  <SCORE.INTRA.VDW.0>
0

>  <SCORE.INTRA.norm>
0

>  <SCORE.RESTR>
0

>  <SCORE.RESTR.CAVITY>
0

>  <SCORE.RESTR.norm>
0

>  <SCORE.SYSTEM>
0

>  <SCORE.SYSTEM.CONST>
0

>  <SCORE.SYSTEM.DIHEDRAL>
0

>  <SCORE.SYSTEM.SOLV>
0

>  <SCORE.SYSTEM.norm>
0

>  <SCORE.heavy>
13

>  <SCORE.norm>
-1.84767

>  <RMSD>
4.897

$$$$
ligand
 OpenBabel11021811473D
libRbt.so/2013.1/901 2013/11/27
 13 14  0  0  0  0  0  0  0  0999 V2000
   36.4835   32.1151   26.7731 N   0  0  0  0  0  0  0  0  0  0  0  0
   37.6332   33.1975   26.9036 C   0  0  0  0  0  0  0  0  0  0  0  0
   38.5797   33.0550   27.8993 N   0  0  0  0  0  0  0  0  0  0  0  0
   37.5175   34.1189   26.0425 N   0  0  0  0  0  0  0  0  0  0  0  0
   36.6254   34.3026   25.0502 C   0  0  0  0  0  0  0  0  0  0  0  0
   35.6207   33.4246   24.8620 C   0  0  0  0  0  0  0  0  0  0  0  0
   35.5356   32.1933   25.8478 C   0  0  0  0  0  0  0  0  0  0  0  0
   34.6465   31.4244   25.6694 O   0  0  0  0  0  0  0  0  0  0  0  0
   34.6962   33.8194   23.6954 C   0  0  0  0  0  0  0  0  0  0  0  0
   35.2139   34.9525   23.2078 C   0  0  0  0  0  0  0  0  0  0  0  0
   36.3285   35.4098   23.8579 N   0  0  0  0  0  0  0  0  0  0  0  0
   33.5136   33.0664   23.2202 C   0  0  0  0  0  0  0  0  0  0  0  0
   32.5857   32.4521   22.9062 N   0  0  0  0  0  0  0  0  0  0  0  0
  1  2  1  0  0  0  0
  1  7  1  0  0  0  0
  2  3  1  0  0  0  0
  2  4  2  0  0  0  0
  4  5  1  0  0  0  0
  5  6  2  0  0  0  0
  5 11  1  0  0  0  0
  6  7  1  0  0  0  0
  6  9  1  0  0  0  0
  7  8  2  0  0  0  0
  9 10  2  0  0  0  0
  9 12  1  0  0  0  0
 10 11  1  0  0  0  0
 12 13  3  0  0  0  0
M  END
>  <CHROM.1>
35.77258086,33.30823971,25.11083259,0.47658210,0.61254894,2.44073157

>  <Name>
ligand

>  <RI>
0

>  <Rbt.Current_Directory>
/home/itssahil/PROJECTS/Mol_Feturizer/New_Systems/rnas/3GCA

>  <Rbt.Executable>
rbdock ($Id: //depot/dev/client3/rdock/2013.1/src/exe/rbdock.cxx#4 $)

>  <Rbt.Library>
libRbt.so (2013.1, Build901 2013/11/27)

>  <Rbt.Parameter_File>
/export/apps/rDock/src/rDock_2013.1_src/data/scripts/dock_solv.prm

>  <Rbt.Receptor>
prm/pocket_docking_4.prm

>  <SCORE>
-24.0025

>  <SCORE.INTER>
-24.0025

>  <SCORE.INTER.CONST>
1

>  <SCORE.INTER.POLAR>
0

>  <SCORE.INTER.ROT>
0

>  <SCORE.INTER.SOLV>
11.1115

>  <SCORE.INTER.VDW>
-23.3055

>  <SCORE.INTER.norm>
-1.84634

>  <SCORE.INTRA>
0

>  <SCORE.INTRA.DIHEDRAL>
0

>  <SCORE.INTRA.DIHEDRAL.0>
0

>  <SCORE.INTRA.POLAR>
0

>  <SCORE.INTRA.POLAR.0>
0

>  <SCORE.INTRA.REPUL>
0

>  <SCORE.INTRA.REPUL.0>
0

>  <SCORE.INTRA.SOLV>
0

>  <SCORE.INTRA.SOLV.lig_0>
-33.1994

>  <SCORE.INTRA.VDW>
0

>  <SCORE.INTRA.VDW.0>
0

>  <SCORE.INTRA.norm>
0

>  <SCORE.RESTR>
0

>  <SCORE.RESTR.CAVITY>
0

>  <SCORE.RESTR.norm>
0

>  <SCORE.SYSTEM>
0

>  <SCORE.SYSTEM.CONST>
0

>  <SCORE.SYSTEM.DIHEDRAL>
0

>  <SCORE.SYSTEM.SOLV>
0

>  <SCORE.SYSTEM.norm>
0

>  <SCORE.heavy>
13

>  <SCORE.norm>
-1.84634

>  <RMSD>
4.897

$$$$
ligand
 OpenBabel11021811473D
libRbt.so/2013.1/901 2013/11/27
 13 14  0  0  0  0  0  0  0  0999 V2000
   36.5179   32.0959   26.7559 N   0  0  0  0  0  0  0  0  0  0  0  0
   37.6661   33.1792   26.8910 C   0  0  0  0  0  0  0  0  0  0  0  0
   38.6182   33.0289   27.8802 N   0  0  0  0  0  0  0  0  0  0  0  0
   37.5441   34.1088   26.0397 N   0  0  0  0  0  0  0  0  0  0  0  0
   36.6464   34.3005   25.0539 C   0  0  0  0  0  0  0  0  0  0  0  0
   35.6424   33.4224   24.8624 C   0  0  0  0  0  0  0  0  0  0  0  0
   35.5650   32.1813   25.8365 C   0  0  0  0  0  0  0  0  0  0  0  0
   34.6764   31.4124   25.6553 O   0  0  0  0  0  0  0  0  0  0  0  0
   34.7110   33.8268   23.7046 C   0  0  0  0  0  0  0  0  0  0  0  0
   35.2239   34.9657   23.2255 C   0  0  0  0  0  0  0  0  0  0  0  0
   36.3411   35.4188   23.8741 N   0  0  0  0  0  0  0  0  0  0  0  0
   33.5274   33.0761   23.2283 C   0  0  0  0  0  0  0  0  0  0  0  0
   32.5990   32.4631   22.9132 N   0  0  0  0  0  0  0  0  0  0  0  0
  1  2  1  0  0  0  0
  1  7  1  0  0  0  0
  2  3  1  0  0  0  0
  2  4  2  0  0  0  0
  4  5  1  0  0  0  0
  5  6  2  0  0  0  0
  5 11  1  0  0  0  0
  6  7  1  0  0  0  0
  6  9  1  0  0  0  0
  7  8  2  0  0  0  0
  9 10  2  0  0  0  0
  9 12  1  0  0  0  0
 10 11  1  0  0  0  0
 12 13  3  0  0  0  0
M  END
>  <CHROM.1>
35.79585334,33.30390759,25.10926821,0.47060916,0.60973583,2.45398752

>  <Name>
ligand

>  <RI>
0

>  <Rbt.Current_Directory>
/home/itssahil/PROJECTS/Mol_Feturizer/New_Systems/rnas/3GCA

>  <Rbt.Executable>
rbdock ($Id: //depot/dev/client3/rdock/2013.1/src/exe/rbdock.cxx#4 $)

>  <Rbt.Library>
libRbt.so (2013.1, Build901 2013/11/27)

>  <Rbt.Parameter_File>
/export/apps/rDock/src/rDock_2013.1_src/data/scripts/dock_solv.prm

>  <Rbt.Receptor>
prm/pocket_docking_5.prm

>  <SCORE>
-23.9883

>  <SCORE.INTER>
-23.9883

>  <SCORE.INTER.CONST>
1

>  <SCORE.INTER.POLAR>
0

>  <SCORE.INTER.ROT>
0

>  <SCORE.INTER.SOLV>
10.9398

>  <SCORE.INTER.VDW>
-23.2388

>  <SCORE.INTER.norm>
-1.84525

>  <SCORE.INTRA>
0

>  <SCORE.INTRA.DIHEDRAL>
0

>  <SCORE.INTRA.DIHEDRAL.0>
0

>  <SCORE.INTRA.POLAR>
0

>  <SCORE.INTRA.POLAR.0>
0

>  <SCORE.INTRA.REPUL>
0

>  <SCORE.INTRA.REPUL.0>
0

>  <SCORE.INTRA.SOLV>
0

>  <SCORE.INTRA.SOLV.lig_0>
-33.1994

>  <SCORE.INTRA.VDW>
0

>  <SCORE.INTRA.VDW.0>
0

>  <SCORE.INTRA.norm>
0

>  <SCORE.RESTR>
0

>  <SCORE.RESTR.CAVITY>
0

>  <SCORE.RESTR.norm>
0

>  <SCORE.SYSTEM>
0

>  <SCORE.SYSTEM.CONST>
0

>  <SCORE.SYSTEM.DIHEDRAL>
0

>  <SCORE.SYSTEM.SOLV>
0

>  <SCORE.SYSTEM.norm>
0

>  <SCORE.heavy>
13

>  <SCORE.norm>
-1.84525

>  <RMSD>
4.897

$$$$
ligand
 OpenBabel11021811473D
libRbt.so/2013.1/901 2013/11/27
 13 14  0  0  0  0  0  0  0  0999 V2000
   36.4317   32.0996   26.7817 N   0  0  0  0  0  0  0  0  0  0  0  0
   37.5936   33.1707   26.8968 C   0  0  0  0  0  0  0  0  0  0  0  0
   38.5348   33.0354   27.8985 N   0  0  0  0  0  0  0  0  0  0  0  0
   37.4919   34.0774   26.0186 N   0  0  0  0  0  0  0  0  0  0  0  0
   36.6055   34.2534   25.0197 C   0  0  0  0  0  0  0  0  0  0  0  0
   35.5912   33.3839   24.8438 C   0  0  0  0  0  0  0  0  0  0  0  0
   35.4881   32.1720   25.8516 C   0  0  0  0  0  0  0  0  0  0  0  0
   34.5905   31.4105   25.6840 O   0  0  0  0  0  0  0  0  0  0  0  0
   34.6756   33.7681   23.6667 C   0  0  0  0  0  0  0  0  0  0  0  0
   35.2084   34.8859   23.1604 C   0  0  0  0  0  0  0  0  0  0  0  0
   36.3260   35.3419   23.8062 N   0  0  0  0  0  0  0  0  0  0  0  0
   33.4859   33.0204   23.2009 C   0  0  0  0  0  0  0  0  0  0  0  0
   32.5519   32.4114   22.8947 N   0  0  0  0  0  0  0  0  0  0  0  0
  1  2  1  0  0  0  0
  1  7  1  0  0  0  0
  2  3  1  0  0  0  0
  2  4  2  0  0  0  0
  4  5  1  0  0  0  0
  5  6  2  0  0  0  0
  5 11  1  0  0  0  0
  6  7  1  0  0  0  0
  6  9  1  0  0  0  0
  7  8  2  0  0  0  0
  9 10  2  0  0  0  0
  9 12  1  0  0  0  0
 10 11  1  0  0  0  0
 12 13  3  0  0  0  0
M  END
>  <CHROM.1>
35.74079914,33.27038032,25.09528504,0.49037135,0.60759665,2.41450634

>  <Name>
ligand

>  <RI>
0

>  <Rbt.Current_Directory>
/home/itssahil/PROJECTS/Mol_Feturizer/New_Systems/rnas/3GCA

>  <Rbt.Executable>
rbdock ($Id: //depot/dev/client3/rdock/2013.1/src/exe/rbdock.cxx#4 $)

>  <Rbt.Library>
libRbt.so (2013.1, Build901 2013/11/27)

>  <Rbt.Parameter_File>
/export/apps/rDock/src/rDock_2013.1_src/data/scripts/dock_solv.prm

>  <Rbt.Receptor>
prm/pocket_docking_5.prm

>  <SCORE>
-24.0274

>  <SCORE.INTER>
-24.0274

>  <SCORE.INTER.CONST>
1

>  <SCORE.INTER.POLAR>
0

>  <SCORE.INTER.ROT>
0

>  <SCORE.INTER.SOLV>
11.3282

>  <SCORE.INTER.VDW>
-23.3943

>  <SCORE.INTER.norm>
-1.84826

>  <SCORE.INTRA>
0

>  <SCORE.INTRA.DIHEDRAL>
0

>  <SCORE.INTRA.DIHEDRAL.0>
0

>  <SCORE.INTRA.POLAR>
0

>  <SCORE.INTRA.POLAR.0>
0

>  <SCORE.INTRA.REPUL>
0

>  <SCORE.INTRA.REPUL.0>
0

>  <SCORE.INTRA.SOLV>
0

>  <SCORE.INTRA.SOLV.lig_0>
-33.1994

>  <SCORE.INTRA.VDW>
0

>  <SCORE.INTRA.VDW.0>
0

>  <SCORE.INTRA.norm>
0

>  <SCORE.RESTR>
0

>  <SCORE.RESTR.CAVITY>
0

>  <SCORE.RESTR.norm>
0

>  <SCORE.SYSTEM>
0

>  <SCORE.SYSTEM.CONST>
0

>  <SCORE.SYSTEM.DIHEDRAL>
0

>  <SCORE.SYSTEM.SOLV>
0

>  <SCORE.SYSTEM.norm>
0

>  <SCORE.heavy>
13

>  <SCORE.norm>
-1.84826

>  <RMSD>
4.897

$$$$
ligand
 OpenBabel11021811473D
libRbt.so/2013.1/901 2013/11/27
 13 14  0  0  0  0  0  0  0  0999 V2000
   36.4177   32.0773   26.7829 N   0  0  0  0  0  0  0  0  0  0  0  0
   37.5827   33.1451   26.8961 C   0  0  0  0  0  0  0  0  0  0  0  0
   38.5266   33.0059   27.8947 N   0  0  0  0  0  0  0  0  0  0  0  0
   37.4807   34.0534   26.0195 N   0  0  0  0  0  0  0  0  0  0  0  0
   36.5919   34.2331   25.0235 C   0  0  0  0  0  0  0  0  0  0  0  0
   35.5747   33.3666   24.8494 C   0  0  0  0  0  0  0  0  0  0  0  0
   35.4715   32.1535   25.8558 C   0  0  0  0  0  0  0  0  0  0  0  0
   34.5714   31.3946   25.6898 O   0  0  0  0  0  0  0  0  0  0  0  0
   34.6567   33.7549   23.6756 C   0  0  0  0  0  0  0  0  0  0  0  0
   35.1908   34.8720   23.1693 C   0  0  0  0  0  0  0  0  0  0  0  0
   36.3116   35.3242   23.8124 N   0  0  0  0  0  0  0  0  0  0  0  0
   33.4636   33.0110   23.2123 C   0  0  0  0  0  0  0  0  0  0  0  0
   32.5271   32.4049   22.9081 N   0  0  0  0  0  0  0  0  0  0  0  0
  1  2  1  0  0  0  0
  1  7  1  0  0  0  0
  2  3  1  0  0  0  0
  2  4  2  0  0  0  0
  4  5  1  0  0  0  0
  5  6  2  0  0  0  0
  5 11  1  0  0  0  0
  6  7  1  0  0  0  0
  6  9  1  0  0  0  0
  7  8  2  0  0  0  0
  9 10  2  0  0  0  0
  9 12  1  0  0  0  0
 10 11  1  0  0  0  0
 12 13  3  0  0  0  0
M  END
>  <CHROM.1>
35.72480721,33.25231842,25.10026812,0.49034338,0.60360696,2.41596667

>  <Name>
ligand

>  <RI>
0

>  <Rbt.Current_Directory>
/home/itssahil/PROJECTS/Mol_Feturizer/New_Systems/rnas/3GCA

>  <Rbt.Executable>
rbdock ($Id: //depot/dev/client3/rdock/2013.1/src/exe/rbdock.cxx#4 $)

>  <Rbt.Library>
libRbt.so (2013.1, Build901 2013/11/27)

>  <Rbt.Parameter_File>
/export/apps/rDock/src/rDock_2013.1_src/data/scripts/dock_solv.prm

>  <Rbt.Receptor>
prm/pocket_docking_5.prm

>  <SCORE>
-24.0699

>  <SCORE.INTER>
-24.0699

>  <SCORE.INTER.CONST>
1

>  <SCORE.INTER.POLAR>
0

>  <SCORE.INTER.ROT>
0

>  <SCORE.INTER.SOLV>
11.3843

>  <SCORE.INTER.VDW>
-23.4414

>  <SCORE.INTER.norm>
-1.85153

>  <SCORE.INTRA>
0

>  <SCORE.INTRA.DIHEDRAL>
0

>  <SCORE.INTRA.DIHEDRAL.0>
0

>  <SCORE.INTRA.POLAR>
0

>  <SCORE.INTRA.POLAR.0>
0

>  <SCORE.INTRA.REPUL>
0

>  <SCORE.INTRA.REPUL.0>
0

>  <SCORE.INTRA.SOLV>
0

>  <SCORE.INTRA.SOLV.lig_0>
-33.1994

>  <SCORE.INTRA.VDW>
0

>  <SCORE.INTRA.VDW.0>
0

>  <SCORE.INTRA.norm>
0

>  <SCORE.RESTR>
0

>  <SCORE.RESTR.CAVITY>
0

>  <SCORE.RESTR.norm>
0

>  <SCORE.SYSTEM>
0

>  <SCORE.SYSTEM.CONST>
0

>  <SCORE.SYSTEM.DIHEDRAL>
0

>  <SCORE.SYSTEM.SOLV>
0

>  <SCORE.SYSTEM.norm>
0

>  <SCORE.heavy>
13

>  <SCORE.norm>
-1.85153

>  <RMSD>
4.897

$$$$
ligand
 OpenBabel11021811473D
libRbt.so/2013.1/901 2013/11/27
 13 14  0  0  0  0  0  0  0  0999 V2000
   36.4366   32.0860   26.7737 N   0  0  0  0  0  0  0  0  0  0  0  0
   37.5973   33.1581   26.8907 C   0  0  0  0  0  0  0  0  0  0  0  0
   38.5405   33.0202   27.8902 N   0  0  0  0  0  0  0  0  0  0  0  0
   37.4930   34.0680   26.0161 N   0  0  0  0  0  0  0  0  0  0  0  0
   36.6046   34.2467   25.0195 C   0  0  0  0  0  0  0  0  0  0  0  0
   35.5911   33.3766   24.8421 C   0  0  0  0  0  0  0  0  0  0  0  0
   35.4912   32.1607   25.8455 C   0  0  0  0  0  0  0  0  0  0  0  0
   34.5943   31.3988   25.6766 O   0  0  0  0  0  0  0  0  0  0  0  0
   34.6729   33.7642   23.6681 C   0  0  0  0  0  0  0  0  0  0  0  0
   35.2034   34.8845   23.1651 C   0  0  0  0  0  0  0  0  0  0  0  0
   36.3216   35.3395   23.8106 N   0  0  0  0  0  0  0  0  0  0  0  0
   33.4833   33.0168   23.2016 C   0  0  0  0  0  0  0  0  0  0  0  0
   32.5495   32.4078   22.8948 N   0  0  0  0  0  0  0  0  0  0  0  0
  1  2  1  0  0  0  0
  1  7  1  0  0  0  0
  2  3  1  0  0  0  0
  2  4  2  0  0  0  0
  4  5  1  0  0  0  0
  5  6  2  0  0  0  0
  5 11  1  0  0  0  0
  6  7  1  0  0  0  0
  6  9  1  0  0  0  0
  7  8  2  0  0  0  0
  9 10  2  0  0  0  0
  9 12  1  0  0  0  0
 10 11  1  0  0  0  0
 12 13  3  0  0  0  0
M  END
>  <CHROM.1>
35.74126073,33.26234002,25.09290671,0.48781273,0.60708729,2.41976821

>  <Name>
ligand

>  <RI>
0

>  <Rbt.Current_Directory>
/home/itssahil/PROJECTS/Mol_Feturizer/New_Systems/rnas/3GCA

>  <Rbt.Executable>
rbdock ($Id: //depot/dev/client3/rdock/2013.1/src/exe/rbdock.cxx#4 $)

>  <Rbt.Library>
libRbt.so (2013.1, Build901 2013/11/27)

>  <Rbt.Parameter_File>
/export/apps/rDock/src/rDock_2013.1_src/data/scripts/dock_solv.prm

>  <Rbt.Receptor>
prm/pocket_docking_5.prm

>  <SCORE>
-24.0297

>  <SCORE.INTER>
-24.0297

>  <SCORE.INTER.CONST>
1

>  <SCORE.INTER.POLAR>
0

>  <SCORE.INTER.ROT>
0

>  <SCORE.INTER.SOLV>
11.3088

>  <SCORE.INTER.VDW>
-23.3894

>  <SCORE.INTER.norm>
-1.84844

>  <SCORE.INTRA>
0

>  <SCORE.INTRA.DIHEDRAL>
0

>  <SCORE.INTRA.DIHEDRAL.0>
0

>  <SCORE.INTRA.POLAR>
0

>  <SCORE.INTRA.POLAR.0>
0

>  <SCORE.INTRA.REPUL>
0

>  <SCORE.INTRA.REPUL.0>
0

>  <SCORE.INTRA.SOLV>
0

>  <SCORE.INTRA.SOLV.lig_0>
-33.1994

>  <SCORE.INTRA.VDW>
0

>  <SCORE.INTRA.VDW.0>
0

>  <SCORE.INTRA.norm>
0

>  <SCORE.RESTR>
0

>  <SCORE.RESTR.CAVITY>
0

>  <SCORE.RESTR.norm>
0

>  <SCORE.SYSTEM>
0

>  <SCORE.SYSTEM.CONST>
0

>  <SCORE.SYSTEM.DIHEDRAL>
0

>  <SCORE.SYSTEM.SOLV>
0

>  <SCORE.SYSTEM.norm>
0

>  <SCORE.heavy>
13

>  <SCORE.norm>
-1.84844

>  <RMSD>
4.897

$$$$
ligand
 OpenBabel11021811473D
libRbt.so/2013.1/901 2013/11/27
 13 14  0  0  0  0  0  0  0  0999 V2000
   36.4375   32.0938   26.7778 N   0  0  0  0  0  0  0  0  0  0  0  0
   37.6013   33.1628   26.8920 C   0  0  0  0  0  0  0  0  0  0  0  0
   38.5442   33.0248   27.8917 N   0  0  0  0  0  0  0  0  0  0  0  0
   37.4994   34.0708   26.0151 N   0  0  0  0  0  0  0  0  0  0  0  0
   36.6114   34.2494   25.0182 C   0  0  0  0  0  0  0  0  0  0  0  0
   35.5954   33.3818   24.8432 C   0  0  0  0  0  0  0  0  0  0  0  0
   35.4922   32.1688   25.8496 C   0  0  0  0  0  0  0  0  0  0  0  0
   34.5931   31.4090   25.6828 O   0  0  0  0  0  0  0  0  0  0  0  0
   34.6782   33.7690   23.6682 C   0  0  0  0  0  0  0  0  0  0  0  0
   35.2118   34.8866   23.1624 C   0  0  0  0  0  0  0  0  0  0  0  0
   36.3314   35.3400   23.8066 N   0  0  0  0  0  0  0  0  0  0  0  0
   33.4863   33.0239   23.2038 C   0  0  0  0  0  0  0  0  0  0  0  0
   32.5508   32.4168   22.8986 N   0  0  0  0  0  0  0  0  0  0  0  0
  1  2  1  0  0  0  0
  1  7  1  0  0  0  0
  2  3  1  0  0  0  0
  2  4  2  0  0  0  0
  4  5  1  0  0  0  0
  5  6  2  0  0  0  0
  5 11  1  0  0  0  0
  6  7  1  0  0  0  0
  6  9  1  0  0  0  0
  7  8  2  0  0  0  0
  9 10  2  0  0  0  0
  9 12  1  0  0  0  0
 10 11  1  0  0  0  0
 12 13  3  0  0  0  0
M  END
>  <CHROM.1>
35.74527531,33.26777132,25.09418058,0.49029793,0.60509687,2.41581291

>  <Name>
ligand

>  <RI>
0

>  <Rbt.Current_Directory>
/home/itssahil/PROJECTS/Mol_Feturizer/New_Systems/rnas/3GCA

>  <Rbt.Executable>
rbdock ($Id: //depot/dev/client3/rdock/2013.1/src/exe/rbdock.cxx#4 $)

>  <Rbt.Library>
libRbt.so (2013.1, Build901 2013/11/27)

>  <Rbt.Parameter_File>
/export/apps/rDock/src/rDock_2013.1_src/data/scripts/dock_solv.prm

>  <Rbt.Receptor>
prm/pocket_docking_7.prm

>  <SCORE>
-24.0303

>  <SCORE.INTER>
-24.0303

>  <SCORE.INTER.CONST>
1

>  <SCORE.INTER.POLAR>
0

>  <SCORE.INTER.ROT>
0

>  <SCORE.INTER.SOLV>
11.2863

>  <SCORE.INTER.VDW>
-23.3823

>  <SCORE.INTER.norm>
-1.84849

>  <SCORE.INTRA>
0

>  <SCORE.INTRA.DIHEDRAL>
0

>  <SCORE.INTRA.DIHEDRAL.0>
0

>  <SCORE.INTRA.POLAR>
0

>  <SCORE.INTRA.POLAR.0>
0

>  <SCORE.INTRA.REPUL>
0

>  <SCORE.INTRA.REPUL.0>
0

>  <SCORE.INTRA.SOLV>
0

>  <SCORE.INTRA.SOLV.lig_0>
-33.1994

>  <SCORE.INTRA.VDW>
0

>  <SCORE.INTRA.VDW.0>
0

>  <SCORE.INTRA.norm>
0

>  <SCORE.RESTR>
0

>  <SCORE.RESTR.CAVITY>
0

>  <SCORE.RESTR.norm>
0

>  <SCORE.SYSTEM>
0

>  <SCORE.SYSTEM.CONST>
0

>  <SCORE.SYSTEM.DIHEDRAL>
0

>  <SCORE.SYSTEM.SOLV>
0

>  <SCORE.SYSTEM.norm>
0

>  <SCORE.heavy>
13

>  <SCORE.norm>
-1.84849

>  <RMSD>
4.897

$$$$
ligand
 OpenBabel11021811473D
libRbt.so/2013.1/901 2013/11/27
 13 14  0  0  0  0  0  0  0  0999 V2000
   36.4517   32.0632   26.7561 N   0  0  0  0  0  0  0  0  0  0  0  0
   37.5934   33.1532   26.8922 C   0  0  0  0  0  0  0  0  0  0  0  0
   38.5400   33.0134   27.8882 N   0  0  0  0  0  0  0  0  0  0  0  0
   37.4720   34.0774   26.0349 N   0  0  0  0  0  0  0  0  0  0  0  0
   36.5795   34.2588   25.0425 C   0  0  0  0  0  0  0  0  0  0  0  0
   35.5813   33.3744   24.8497 C   0  0  0  0  0  0  0  0  0  0  0  0
   35.5041   32.1385   25.8302 C   0  0  0  0  0  0  0  0  0  0  0  0
   34.6207   31.3640   25.6478 O   0  0  0  0  0  0  0  0  0  0  0  0
   34.6552   33.7675   23.6837 C   0  0  0  0  0  0  0  0  0  0  0  0
   35.1652   34.9063   23.2014 C   0  0  0  0  0  0  0  0  0  0  0  0
   36.2759   35.3688   23.8544 N   0  0  0  0  0  0  0  0  0  0  0  0
   33.4784   33.0080   23.2043 C   0  0  0  0  0  0  0  0  0  0  0  0
   32.5552   32.3884   22.8869 N   0  0  0  0  0  0  0  0  0  0  0  0
  1  2  1  0  0  0  0
  1  7  1  0  0  0  0
  2  3  1  0  0  0  0
  2  4  2  0  0  0  0
  4  5  1  0  0  0  0
  5  6  2  0  0  0  0
  5 11  1  0  0  0  0
  6  7  1  0  0  0  0
  6  9  1  0  0  0  0
  7  8  2  0  0  0  0
  9 10  2  0  0  0  0
  9 12  1  0  0  0  0
 10 11  1  0  0  0  0
 12 13  3  0  0  0  0
M  END
>  <CHROM.1>
35.73380382,33.25816025,25.09811742,0.47063236,0.61786874,2.44831931

>  <Name>
ligand

>  <RI>
0

>  <Rbt.Current_Directory>
/home/itssahil/PROJECTS/Mol_Feturizer/New_Systems/rnas/3GCA

>  <Rbt.Executable>
rbdock ($Id: //depot/dev/client3/rdock/2013.1/src/exe/rbdock.cxx#4 $)

>  <Rbt.Library>
libRbt.so (2013.1, Build901 2013/11/27)

>  <Rbt.Parameter_File>
/export/apps/rDock/src/rDock_2013.1_src/data/scripts/dock_solv.prm

>  <Rbt.Receptor>
prm/pocket_docking_8.prm

>  <SCORE>
-24.0667

>  <SCORE.INTER>
-24.0667

>  <SCORE.INTER.CONST>
1

>  <SCORE.INTER.POLAR>
0

>  <SCORE.INTER.ROT>
0

>  <SCORE.INTER.SOLV>
11.3325

>  <SCORE.INTER.VDW>
-23.422

>  <SCORE.INTER.norm>
-1.85129

>  <SCORE.INTRA>
0

>  <SCORE.INTRA.DIHEDRAL>
0

>  <SCORE.INTRA.DIHEDRAL.0>
0

>  <SCORE.INTRA.POLAR>
0

>  <SCORE.INTRA.POLAR.0>
0

>  <SCORE.INTRA.REPUL>
0

>  <SCORE.INTRA.REPUL.0>
0

>  <SCORE.INTRA.SOLV>
0

>  <SCORE.INTRA.SOLV.lig_0>
-33.1994

>  <SCORE.INTRA.VDW>
0

>  <SCORE.INTRA.VDW.0>
0

>  <SCORE.INTRA.norm>
0

>  <SCORE.RESTR>
0

>  <SCORE.RESTR.CAVITY>
0

>  <SCORE.RESTR.norm>
0

>  <SCORE.SYSTEM>
0

>  <SCORE.SYSTEM.CONST>
0

>  <SCORE.SYSTEM.DIHEDRAL>
0

>  <SCORE.SYSTEM.SOLV>
0

>  <SCORE.SYSTEM.norm>
0

>  <SCORE.heavy>
13

>  <SCORE.norm>
-1.85129

>  <RMSD>
4.897

$$$$
ligand
 OpenBabel11021811473D
libRbt.so/2013.1/901 2013/11/27
 13 14  0  0  0  0  0  0  0  0999 V2000
   36.4674   32.0833   26.7622 N   0  0  0  0  0  0  0  0  0  0  0  0
   37.6054   33.1771   26.9002 C   0  0  0  0  0  0  0  0  0  0  0  0
   38.5500   33.0411   27.8985 N   0  0  0  0  0  0  0  0  0  0  0  0
   37.4830   34.1002   26.0419 N   0  0  0  0  0  0  0  0  0  0  0  0
   36.5923   34.2781   25.0472 C   0  0  0  0  0  0  0  0  0  0  0  0
   35.5974   33.3903   24.8527 C   0  0  0  0  0  0  0  0  0  0  0  0
   35.5218   32.1549   25.8340 C   0  0  0  0  0  0  0  0  0  0  0  0
   34.6413   31.3775   25.6501 O   0  0  0  0  0  0  0  0  0  0  0  0
   34.6727   33.7796   23.6843 C   0  0  0  0  0  0  0  0  0  0  0  0
   35.1802   34.9196   23.2023 C   0  0  0  0  0  0  0  0  0  0  0  0
   36.2879   35.3862   23.8576 N   0  0  0  0  0  0  0  0  0  0  0  0
   33.4995   33.0160   23.2027 C   0  0  0  0  0  0  0  0  0  0  0  0
   32.5791   32.3932   22.8836 N   0  0  0  0  0  0  0  0  0  0  0  0
  1  2  1  0  0  0  0
  1  7  1  0  0  0  0
  2  3  1  0  0  0  0
  2  4  2  0  0  0  0
  4  5  1  0  0  0  0
  5  6  2  0  0  0  0
  5 11  1  0  0  0  0
  6  7  1  0  0  0  0
  6  9  1  0  0  0  0
  7  8  2  0  0  0  0
  9 10  2  0  0  0  0
  9 12  1  0  0  0  0
 10 11  1  0  0  0  0
 12 13  3  0  0  0  0
M  END
>  <CHROM.1>
35.74962812,33.27475168,25.10162600,0.46946099,0.62172323,2.44823875

>  <Name>
ligand

>  <RI>
0

>  <Rbt.Current_Directory>
/home/itssahil/PROJECTS/Mol_Feturizer/New_Systems/rnas/3GCA

>  <Rbt.Executable>
rbdock ($Id: //depot/dev/client3/rdock/2013.1/src/exe/rbdock.cxx#4 $)

>  <Rbt.Library>
libRbt.so (2013.1, Build901 2013/11/27)

>  <Rbt.Parameter_File>
/export/apps/rDock/src/rDock_2013.1_src/data/scripts/dock_solv.prm

>  <Rbt.Receptor>
prm/blind_docking_60.prm

>  <SCORE>
-24.0091

>  <SCORE.INTER>
-24.0091

>  <SCORE.INTER.CONST>
1

>  <SCORE.INTER.POLAR>
0

>  <SCORE.INTER.ROT>
0

>  <SCORE.INTER.SOLV>
11.2765

>  <SCORE.INTER.VDW>
-23.3649

>  <SCORE.INTER.norm>
-1.84685

>  <SCORE.INTRA>
0

>  <SCORE.INTRA.DIHEDRAL>
0

>  <SCORE.INTRA.DIHEDRAL.0>
0

>  <SCORE.INTRA.POLAR>
0

>  <SCORE.INTRA.POLAR.0>
0

>  <SCORE.INTRA.REPUL>
0

>  <SCORE.INTRA.REPUL.0>
0

>  <SCORE.INTRA.SOLV>
0

>  <SCORE.INTRA.SOLV.lig_0>
-33.1994

>  <SCORE.INTRA.VDW>
0

>  <SCORE.INTRA.VDW.0>
0

>  <SCORE.INTRA.norm>
0

>  <SCORE.RESTR>
0

>  <SCORE.RESTR.CAVITY>
0

>  <SCORE.RESTR.norm>
0

>  <SCORE.SYSTEM>
0

>  <SCORE.SYSTEM.CONST>
0

>  <SCORE.SYSTEM.DIHEDRAL>
0

>  <SCORE.SYSTEM.SOLV>
0

>  <SCORE.SYSTEM.norm>
0

>  <SCORE.heavy>
13

>  <SCORE.norm>
-1.84685

>  <RMSD>
4.898

$$$$
ligand
 OpenBabel11021811473D
libRbt.so/2013.1/901 2013/11/27
 13 14  0  0  0  0  0  0  0  0999 V2000
   36.4753   32.0760   26.7533 N   0  0  0  0  0  0  0  0  0  0  0  0
   37.6051   33.1771   26.9000 C   0  0  0  0  0  0  0  0  0  0  0  0
   38.5499   33.0409   27.8981 N   0  0  0  0  0  0  0  0  0  0  0  0
   37.4767   34.1053   26.0481 N   0  0  0  0  0  0  0  0  0  0  0  0
   36.5855   34.2836   25.0539 C   0  0  0  0  0  0  0  0  0  0  0  0
   35.5972   33.3901   24.8523 C   0  0  0  0  0  0  0  0  0  0  0  0
   35.5299   32.1472   25.8248 C   0  0  0  0  0  0  0  0  0  0  0  0
   34.6552   31.3647   25.6347 O   0  0  0  0  0  0  0  0  0  0  0  0
   34.6707   33.7808   23.6859 C   0  0  0  0  0  0  0  0  0  0  0  0
   35.1703   34.9279   23.2124 C   0  0  0  0  0  0  0  0  0  0  0  0
   36.2740   35.3979   23.8719 N   0  0  0  0  0  0  0  0  0  0  0  0
   33.5035   33.0121   23.1979 C   0  0  0  0  0  0  0  0  0  0  0  0
   32.5879   32.3849   22.8736 N   0  0  0  0  0  0  0  0  0  0  0  0
  1  2  1  0  0  0  0
  1  7  1  0  0  0  0
  2  3  1  0  0  0  0
  2  4  2  0  0  0  0
  4  5  1  0  0  0  0
  5  6  2  0  0  0  0
  5 11  1  0  0  0  0
  6  7  1  0  0  0  0
  6  9  1  0  0  0  0
  7  8  2  0  0  0  0
  9 10  2  0  0  0  0
  9 12  1  0  0  0  0
 10 11  1  0  0  0  0
 12 13  3  0  0  0  0
M  END
>  <CHROM.1>
35.75013386,33.27383168,25.10053928,0.46317142,0.62699825,2.45896837

>  <Name>
ligand

>  <RI>
0

>  <Rbt.Current_Directory>
/home/itssahil/PROJECTS/Mol_Feturizer/New_Systems/rnas/3GCA

>  <Rbt.Executable>
rbdock ($Id: //depot/dev/client3/rdock/2013.1/src/exe/rbdock.cxx#4 $)

>  <Rbt.Library>
libRbt.so (2013.1, Build901 2013/11/27)

>  <Rbt.Parameter_File>
/export/apps/rDock/src/rDock_2013.1_src/data/scripts/dock_solv.prm

>  <Rbt.Receptor>
prm/blind_docking_60.prm

>  <SCORE>
-24.0385

>  <SCORE.INTER>
-24.0385

>  <SCORE.INTER.CONST>
1

>  <SCORE.INTER.POLAR>
0

>  <SCORE.INTER.ROT>
0

>  <SCORE.INTER.SOLV>
11.2852

>  <SCORE.INTER.VDW>
-23.3874

>  <SCORE.INTER.norm>
-1.84912

>  <SCORE.INTRA>
0

>  <SCORE.INTRA.DIHEDRAL>
0

>  <SCORE.INTRA.DIHEDRAL.0>
0

>  <SCORE.INTRA.POLAR>
0

>  <SCORE.INTRA.POLAR.0>
0

>  <SCORE.INTRA.REPUL>
0

>  <SCORE.INTRA.REPUL.0>
0

>  <SCORE.INTRA.SOLV>
0

>  <SCORE.INTRA.SOLV.lig_0>
-33.1994

>  <SCORE.INTRA.VDW>
0

>  <SCORE.INTRA.VDW.0>
0

>  <SCORE.INTRA.norm>
0

>  <SCORE.RESTR>
0

>  <SCORE.RESTR.CAVITY>
0

>  <SCORE.RESTR.norm>
0

>  <SCORE.SYSTEM>
0

>  <SCORE.SYSTEM.CONST>
0

>  <SCORE.SYSTEM.DIHEDRAL>
0

>  <SCORE.SYSTEM.SOLV>
0

>  <SCORE.SYSTEM.norm>
0

>  <SCORE.heavy>
13

>  <SCORE.norm>
-1.84912

>  <RMSD>
4.898

$$$$
ligand
 OpenBabel11021811473D
libRbt.so/2013.1/901 2013/11/27
 13 14  0  0  0  0  0  0  0  0999 V2000
   36.4236   32.1252   26.7234 N   0  0  0  0  0  0  0  0  0  0  0  0
   37.5714   33.2122   26.8300 C   0  0  0  0  0  0  0  0  0  0  0  0
   38.5256   33.0865   27.8206 N   0  0  0  0  0  0  0  0  0  0  0  0
   37.4471   34.1208   25.9566 N   0  0  0  0  0  0  0  0  0  0  0  0
   36.5473   34.2880   24.9683 C   0  0  0  0  0  0  0  0  0  0  0  0
   35.5435   33.4049   24.8002 C   0  0  0  0  0  0  0  0  0  0  0  0
   35.4688   32.1877   25.8041 C   0  0  0  0  0  0  0  0  0  0  0  0
   34.5803   31.4142   25.6434 O   0  0  0  0  0  0  0  0  0  0  0  0
   34.6095   33.7807   23.6348 C   0  0  0  0  0  0  0  0  0  0  0  0
   35.1207   34.9078   23.1272 C   0  0  0  0  0  0  0  0  0  0  0  0
   36.2389   35.3772   23.7624 N   0  0  0  0  0  0  0  0  0  0  0  0
   33.4254   33.0179   23.1792 C   0  0  0  0  0  0  0  0  0  0  0  0
   32.4968   32.3969   22.8809 N   0  0  0  0  0  0  0  0  0  0  0  0
  1  2  1  0  0  0  0
  1  7  1  0  0  0  0
  2  3  1  0  0  0  0
  2  4  2  0  0  0  0
  4  5  1  0  0  0  0
  5  6  2  0  0  0  0
  5 11  1  0  0  0  0
  6  7  1  0  0  0  0
  6  9  1  0  0  0  0
  7  8  2  0  0  0  0
  9 10  2  0  0  0  0
  9 12  1  0  0  0  0
 10 11  1  0  0  0  0
 12 13  3  0  0  0  0
M  END
>  <CHROM.1>
35.69748352,33.29255910,25.04949356,0.46845149,0.60859504,2.43099092

>  <Name>
ligand

>  <RI>
0

>  <Rbt.Current_Directory>
/home/itssahil/PROJECTS/Mol_Feturizer/New_Systems/rnas/3GCA

>  <Rbt.Executable>
rbdock ($Id: //depot/dev/client3/rdock/2013.1/src/exe/rbdock.cxx#4 $)

>  <Rbt.Library>
libRbt.so (2013.1, Build901 2013/11/27)

>  <Rbt.Parameter_File>
/export/apps/rDock/src/rDock_2013.1_src/data/scripts/dock_solv.prm

>  <Rbt.Receptor>
prm/pocket_docking_4.prm

>  <SCORE>
-24.0149

>  <SCORE.INTER>
-24.0149

>  <SCORE.INTER.CONST>
1

>  <SCORE.INTER.POLAR>
0

>  <SCORE.INTER.ROT>
0

>  <SCORE.INTER.SOLV>
11.2933

>  <SCORE.INTER.VDW>
-23.3743

>  <SCORE.INTER.norm>
-1.8473

>  <SCORE.INTRA>
0

>  <SCORE.INTRA.DIHEDRAL>
0

>  <SCORE.INTRA.DIHEDRAL.0>
0

>  <SCORE.INTRA.POLAR>
0

>  <SCORE.INTRA.POLAR.0>
0

>  <SCORE.INTRA.REPUL>
0

>  <SCORE.INTRA.REPUL.0>
0

>  <SCORE.INTRA.SOLV>
0

>  <SCORE.INTRA.SOLV.lig_0>
-33.1994

>  <SCORE.INTRA.VDW>
0

>  <SCORE.INTRA.VDW.0>
0

>  <SCORE.INTRA.norm>
0

>  <SCORE.RESTR>
0

>  <SCORE.RESTR.CAVITY>
0

>  <SCORE.RESTR.norm>
0

>  <SCORE.SYSTEM>
0

>  <SCORE.SYSTEM.CONST>
0

>  <SCORE.SYSTEM.DIHEDRAL>
0

>  <SCORE.SYSTEM.SOLV>
0

>  <SCORE.SYSTEM.norm>
0

>  <SCORE.heavy>
13

>  <SCORE.norm>
-1.8473

>  <RMSD>
4.898

$$$$
ligand
 OpenBabel11021811473D
libRbt.so/2013.1/901 2013/11/27
 13 14  0  0  0  0  0  0  0  0999 V2000
   36.5097   32.1003   26.7642 N   0  0  0  0  0  0  0  0  0  0  0  0
   37.6644   33.1778   26.8911 C   0  0  0  0  0  0  0  0  0  0  0  0
   38.6158   33.0290   27.8812 N   0  0  0  0  0  0  0  0  0  0  0  0
   37.5478   34.1018   26.0330 N   0  0  0  0  0  0  0  0  0  0  0  0
   36.6510   34.2916   25.0461 C   0  0  0  0  0  0  0  0  0  0  0  0
   35.6417   33.4181   24.8612 C   0  0  0  0  0  0  0  0  0  0  0  0
   35.5571   32.1847   25.8444 C   0  0  0  0  0  0  0  0  0  0  0  0
   34.6638   31.4199   25.6690 O   0  0  0  0  0  0  0  0  0  0  0  0
   34.7125   33.8196   23.7006 C   0  0  0  0  0  0  0  0  0  0  0  0
   35.2320   34.9518   23.2130 C   0  0  0  0  0  0  0  0  0  0  0  0
   36.3521   35.4029   23.8581 N   0  0  0  0  0  0  0  0  0  0  0  0
   33.5242   33.0725   23.2301 C   0  0  0  0  0  0  0  0  0  0  0  0
   32.5921   32.4628   22.9198 N   0  0  0  0  0  0  0  0  0  0  0  0
  1  2  1  0  0  0  0
  1  7  1  0  0  0  0
  2  3  1  0  0  0  0
  2  4  2  0  0  0  0
  4  5  1  0  0  0  0
  5  6  2  0  0  0  0
  5 11  1  0  0  0  0
  6  7  1  0  0  0  0
  6  9  1  0  0  0  0
  7  8  2  0  0  0  0
  9 10  2  0  0  0  0
  9 12  1  0  0  0  0
 10 11  1  0  0  0  0
 12 13  3  0  0  0  0
M  END
>  <CHROM.1>
35.79448443,33.30052389,25.10888421,0.47603843,0.60573243,2.44353011

>  <Name>
ligand

>  <RI>
0

>  <Rbt.Current_Directory>
/home/itssahil/PROJECTS/Mol_Feturizer/New_Systems/rnas/3GCA

>  <Rbt.Executable>
rbdock ($Id: //depot/dev/client3/rdock/2013.1/src/exe/rbdock.cxx#4 $)

>  <Rbt.Library>
libRbt.so (2013.1, Build901 2013/11/27)

>  <Rbt.Parameter_File>
/export/apps/rDock/src/rDock_2013.1_src/data/scripts/dock_solv.prm

>  <Rbt.Receptor>
prm/pocket_docking_4.prm

>  <SCORE>
-23.9818

>  <SCORE.INTER>
-23.9818

>  <SCORE.INTER.CONST>
1

>  <SCORE.INTER.POLAR>
0

>  <SCORE.INTER.ROT>
0

>  <SCORE.INTER.SOLV>
10.9476

>  <SCORE.INTER.VDW>
-23.2371

>  <SCORE.INTER.norm>
-1.84475

>  <SCORE.INTRA>
0

>  <SCORE.INTRA.DIHEDRAL>
0

>  <SCORE.INTRA.DIHEDRAL.0>
0

>  <SCORE.INTRA.POLAR>
0

>  <SCORE.INTRA.POLAR.0>
0

>  <SCORE.INTRA.REPUL>
0

>  <SCORE.INTRA.REPUL.0>
0

>  <SCORE.INTRA.SOLV>
0

>  <SCORE.INTRA.SOLV.lig_0>
-33.1994

>  <SCORE.INTRA.VDW>
0

>  <SCORE.INTRA.VDW.0>
0

>  <SCORE.INTRA.norm>
0

>  <SCORE.RESTR>
0

>  <SCORE.RESTR.CAVITY>
0

>  <SCORE.RESTR.norm>
0

>  <SCORE.SYSTEM>
0

>  <SCORE.SYSTEM.CONST>
0

>  <SCORE.SYSTEM.DIHEDRAL>
0

>  <SCORE.SYSTEM.SOLV>
0

>  <SCORE.SYSTEM.norm>
0

>  <SCORE.heavy>
13

>  <SCORE.norm>
-1.84475

>  <RMSD>
4.898

$$$$
ligand
 OpenBabel11021811473D
libRbt.so/2013.1/901 2013/11/27
 13 14  0  0  0  0  0  0  0  0999 V2000
   36.4150   32.1360   26.7227 N   0  0  0  0  0  0  0  0  0  0  0  0
   37.5688   33.2173   26.8202 C   0  0  0  0  0  0  0  0  0  0  0  0
   38.5216   33.0951   27.8126 N   0  0  0  0  0  0  0  0  0  0  0  0
   37.4502   34.1188   25.9387 N   0  0  0  0  0  0  0  0  0  0  0  0
   36.5519   34.2822   24.9483 C   0  0  0  0  0  0  0  0  0  0  0  0
   35.5433   33.4033   24.7875 C   0  0  0  0  0  0  0  0  0  0  0  0
   35.4610   32.1956   25.8022 C   0  0  0  0  0  0  0  0  0  0  0  0
   34.5683   31.4257   25.6479 O   0  0  0  0  0  0  0  0  0  0  0  0
   34.6121   33.7739   23.6181 C   0  0  0  0  0  0  0  0  0  0  0  0
   35.1300   34.8936   23.1008 C   0  0  0  0  0  0  0  0  0  0  0  0
   36.2504   35.3623   23.7325 N   0  0  0  0  0  0  0  0  0  0  0  0
   33.4240   33.0138   23.1686 C   0  0  0  0  0  0  0  0  0  0  0  0
   32.4920   32.3954   22.8753 N   0  0  0  0  0  0  0  0  0  0  0  0
  1  2  1  0  0  0  0
  1  7  1  0  0  0  0
  2  3  1  0  0  0  0
  2  4  2  0  0  0  0
  4  5  1  0  0  0  0
  5  6  2  0  0  0  0
  5 11  1  0  0  0  0
  6  7  1  0  0  0  0
  6  9  1  0  0  0  0
  7  8  2  0  0  0  0
  9 10  2  0  0  0  0
  9 12  1  0  0  0  0
 10 11  1  0  0  0  0
 12 13  3  0  0  0  0
M  END
>  <CHROM.1>
35.69645244,33.29234204,25.03787527,0.47415360,0.60534251,2.41877811

>  <Name>
ligand

>  <RI>
0

>  <Rbt.Current_Directory>
/home/itssahil/PROJECTS/Mol_Feturizer/New_Systems/rnas/3GCA

>  <Rbt.Executable>
rbdock ($Id: //depot/dev/client3/rdock/2013.1/src/exe/rbdock.cxx#4 $)

>  <Rbt.Library>
libRbt.so (2013.1, Build901 2013/11/27)

>  <Rbt.Parameter_File>
/export/apps/rDock/src/rDock_2013.1_src/data/scripts/dock_solv.prm

>  <Rbt.Receptor>
prm/pocket_docking_4.prm

>  <SCORE>
-23.9824

>  <SCORE.INTER>
-23.9824

>  <SCORE.INTER.CONST>
1

>  <SCORE.INTER.POLAR>
0

>  <SCORE.INTER.ROT>
0

>  <SCORE.INTER.SOLV>
11.3047

>  <SCORE.INTER.VDW>
-23.3565

>  <SCORE.INTER.norm>
-1.8448

>  <SCORE.INTRA>
0

>  <SCORE.INTRA.DIHEDRAL>
0

>  <SCORE.INTRA.DIHEDRAL.0>
0

>  <SCORE.INTRA.POLAR>
0

>  <SCORE.INTRA.POLAR.0>
0

>  <SCORE.INTRA.REPUL>
0

>  <SCORE.INTRA.REPUL.0>
0

>  <SCORE.INTRA.SOLV>
0

>  <SCORE.INTRA.SOLV.lig_0>
-33.1994

>  <SCORE.INTRA.VDW>
0

>  <SCORE.INTRA.VDW.0>
0

>  <SCORE.INTRA.norm>
0

>  <SCORE.RESTR>
0

>  <SCORE.RESTR.CAVITY>
0

>  <SCORE.RESTR.norm>
0

>  <SCORE.SYSTEM>
0

>  <SCORE.SYSTEM.CONST>
0

>  <SCORE.SYSTEM.DIHEDRAL>
0

>  <SCORE.SYSTEM.SOLV>
0

>  <SCORE.SYSTEM.norm>
0

>  <SCORE.heavy>
13

>  <SCORE.norm>
-1.8448

>  <RMSD>
4.898

$$$$
ligand
 OpenBabel11021811473D
libRbt.so/2013.1/901 2013/11/27
 13 14  0  0  0  0  0  0  0  0999 V2000
   36.4376   32.0620   26.7754 N   0  0  0  0  0  0  0  0  0  0  0  0
   37.5960   33.1361   26.8975 C   0  0  0  0  0  0  0  0  0  0  0  0
   38.5392   32.9960   27.8967 N   0  0  0  0  0  0  0  0  0  0  0  0
   37.4899   34.0495   26.0267 N   0  0  0  0  0  0  0  0  0  0  0  0
   36.6015   34.2305   25.0306 C   0  0  0  0  0  0  0  0  0  0  0  0
   35.5899   33.3590   24.8491 C   0  0  0  0  0  0  0  0  0  0  0  0
   35.4924   32.1386   25.8473 C   0  0  0  0  0  0  0  0  0  0  0  0
   34.5972   31.3754   25.6748 O   0  0  0  0  0  0  0  0  0  0  0  0
   34.6713   33.7496   23.6764 C   0  0  0  0  0  0  0  0  0  0  0  0
   35.1995   34.8732   23.1784 C   0  0  0  0  0  0  0  0  0  0  0  0
   36.3165   35.3278   23.8263 N   0  0  0  0  0  0  0  0  0  0  0  0
   33.4835   33.0016   23.2063 C   0  0  0  0  0  0  0  0  0  0  0  0
   32.5511   32.3918   22.8966 N   0  0  0  0  0  0  0  0  0  0  0  0
  1  2  1  0  0  0  0
  1  7  1  0  0  0  0
  2  3  1  0  0  0  0
  2  4  2  0  0  0  0
  4  5  1  0  0  0  0
  5  6  2  0  0  0  0
  5 11  1  0  0  0  0
  6  7  1  0  0  0  0
  6  9  1  0  0  0  0
  7  8  2  0  0  0  0
  9 10  2  0  0  0  0
  9 12  1  0  0  0  0
 10 11  1  0  0  0  0
 12 13  3  0  0  0  0
M  END
>  <CHROM.1>
35.74027616,33.24396074,25.09946491,0.48607637,0.60877820,2.42503141

>  <Name>
ligand

>  <RI>
0

>  <Rbt.Current_Directory>
/home/itssahil/PROJECTS/Mol_Feturizer/New_Systems/rnas/3GCA

>  <Rbt.Executable>
rbdock ($Id: //depot/dev/client3/rdock/2013.1/src/exe/rbdock.cxx#4 $)

>  <Rbt.Library>
libRbt.so (2013.1, Build901 2013/11/27)

>  <Rbt.Parameter_File>
/export/apps/rDock/src/rDock_2013.1_src/data/scripts/dock_solv.prm

>  <Rbt.Receptor>
prm/pocket_docking_5.prm

>  <SCORE>
-24.0614

>  <SCORE.INTER>
-24.0614

>  <SCORE.INTER.CONST>
1

>  <SCORE.INTER.POLAR>
0

>  <SCORE.INTER.ROT>
0

>  <SCORE.INTER.SOLV>
11.3427

>  <SCORE.INTER.VDW>
-23.4219

>  <SCORE.INTER.norm>
-1.85088

>  <SCORE.INTRA>
0

>  <SCORE.INTRA.DIHEDRAL>
0

>  <SCORE.INTRA.DIHEDRAL.0>
0

>  <SCORE.INTRA.POLAR>
0

>  <SCORE.INTRA.POLAR.0>
0

>  <SCORE.INTRA.REPUL>
0

>  <SCORE.INTRA.REPUL.0>
0

>  <SCORE.INTRA.SOLV>
0

>  <SCORE.INTRA.SOLV.lig_0>
-33.1994

>  <SCORE.INTRA.VDW>
0

>  <SCORE.INTRA.VDW.0>
0

>  <SCORE.INTRA.norm>
0

>  <SCORE.RESTR>
0

>  <SCORE.RESTR.CAVITY>
0

>  <SCORE.RESTR.norm>
0

>  <SCORE.SYSTEM>
0

>  <SCORE.SYSTEM.CONST>
0

>  <SCORE.SYSTEM.DIHEDRAL>
0

>  <SCORE.SYSTEM.SOLV>
0

>  <SCORE.SYSTEM.norm>
0

>  <SCORE.heavy>
13

>  <SCORE.norm>
-1.85088

>  <RMSD>
4.898

$$$$
ligand
 OpenBabel11021811473D
libRbt.so/2013.1/901 2013/11/27
 13 14  0  0  0  0  0  0  0  0999 V2000
   36.4526   32.0973   26.7781 N   0  0  0  0  0  0  0  0  0  0  0  0
   37.6037   33.1789   26.9017 C   0  0  0  0  0  0  0  0  0  0  0  0
   38.5474   33.0441   27.9011 N   0  0  0  0  0  0  0  0  0  0  0  0
   37.4919   34.0925   26.0318 N   0  0  0  0  0  0  0  0  0  0  0  0
   36.6026   34.2686   25.0356 C   0  0  0  0  0  0  0  0  0  0  0  0
   35.5969   33.3905   24.8528 C   0  0  0  0  0  0  0  0  0  0  0  0
   35.5072   32.1685   25.8497 C   0  0  0  0  0  0  0  0  0  0  0  0
   34.6172   31.3995   25.6761 O   0  0  0  0  0  0  0  0  0  0  0  0
   34.6762   33.7762   23.6802 C   0  0  0  0  0  0  0  0  0  0  0  0
   35.1970   34.9038   23.1836 C   0  0  0  0  0  0  0  0  0  0  0  0
   36.3108   35.3652   23.8323 N   0  0  0  0  0  0  0  0  0  0  0  0
   33.4935   33.0208   23.2089 C   0  0  0  0  0  0  0  0  0  0  0  0
   32.5654   32.4052   22.8982 N   0  0  0  0  0  0  0  0  0  0  0  0
  1  2  1  0  0  0  0
  1  7  1  0  0  0  0
  2  3  1  0  0  0  0
  2  4  2  0  0  0  0
  4  5  1  0  0  0  0
  5  6  2  0  0  0  0
  5 11  1  0  0  0  0
  6  7  1  0  0  0  0
  6  9  1  0  0  0  0
  7  8  2  0  0  0  0
  9 10  2  0  0  0  0
  9 12  1  0  0  0  0
 10 11  1  0  0  0  0
 12 13  3  0  0  0  0
M  END
>  <CHROM.1>
35.74796954,33.27625188,25.10309888,0.48022145,0.61342422,2.42941998

>  <Name>
ligand

>  <RI>
0

>  <Rbt.Current_Directory>
/home/itssahil/PROJECTS/Mol_Feturizer/New_Systems/rnas/3GCA

>  <Rbt.Executable>
rbdock ($Id: //depot/dev/client3/rdock/2013.1/src/exe/rbdock.cxx#4 $)

>  <Rbt.Library>
libRbt.so (2013.1, Build901 2013/11/27)

>  <Rbt.Parameter_File>
/export/apps/rDock/src/rDock_2013.1_src/data/scripts/dock_solv.prm

>  <Rbt.Receptor>
prm/pocket_docking_5.prm

>  <SCORE>
-24.009

>  <SCORE.INTER>
-24.009

>  <SCORE.INTER.CONST>
1

>  <SCORE.INTER.POLAR>
0

>  <SCORE.INTER.ROT>
0

>  <SCORE.INTER.SOLV>
11.2779

>  <SCORE.INTER.VDW>
-23.3653

>  <SCORE.INTER.norm>
-1.84685

>  <SCORE.INTRA>
0

>  <SCORE.INTRA.DIHEDRAL>
0

>  <SCORE.INTRA.DIHEDRAL.0>
0

>  <SCORE.INTRA.POLAR>
0

>  <SCORE.INTRA.POLAR.0>
0

>  <SCORE.INTRA.REPUL>
0

>  <SCORE.INTRA.REPUL.0>
0

>  <SCORE.INTRA.SOLV>
0

>  <SCORE.INTRA.SOLV.lig_0>
-33.1994

>  <SCORE.INTRA.VDW>
0

>  <SCORE.INTRA.VDW.0>
0

>  <SCORE.INTRA.norm>
0

>  <SCORE.RESTR>
0

>  <SCORE.RESTR.CAVITY>
0

>  <SCORE.RESTR.norm>
0

>  <SCORE.SYSTEM>
0

>  <SCORE.SYSTEM.CONST>
0

>  <SCORE.SYSTEM.DIHEDRAL>
0

>  <SCORE.SYSTEM.SOLV>
0

>  <SCORE.SYSTEM.norm>
0

>  <SCORE.heavy>
13

>  <SCORE.norm>
-1.84685

>  <RMSD>
4.898

$$$$
ligand
 OpenBabel11021811473D
libRbt.so/2013.1/901 2013/11/27
 13 14  0  0  0  0  0  0  0  0999 V2000
   36.4338   32.0457   26.7647 N   0  0  0  0  0  0  0  0  0  0  0  0
   37.5588   33.1510   26.9162 C   0  0  0  0  0  0  0  0  0  0  0  0
   38.4978   33.0202   27.9206 N   0  0  0  0  0  0  0  0  0  0  0  0
   37.4326   34.0770   26.0616 N   0  0  0  0  0  0  0  0  0  0  0  0
   36.5471   34.2503   25.0615 C   0  0  0  0  0  0  0  0  0  0  0  0
   35.5633   33.3529   24.8555 C   0  0  0  0  0  0  0  0  0  0  0  0
   35.4941   32.1117   25.8301 C   0  0  0  0  0  0  0  0  0  0  0  0
   34.6234   31.3258   25.6361 O   0  0  0  0  0  0  0  0  0  0  0  0
   34.6428   33.7380   23.6825 C   0  0  0  0  0  0  0  0  0  0  0  0
   35.1413   34.8858   23.2098 C   0  0  0  0  0  0  0  0  0  0  0  0
   36.2392   35.3610   23.8753 N   0  0  0  0  0  0  0  0  0  0  0  0
   33.4814   32.9642   23.1887 C   0  0  0  0  0  0  0  0  0  0  0  0
   32.5700   32.3332   22.8599 N   0  0  0  0  0  0  0  0  0  0  0  0
  1  2  1  0  0  0  0
  1  7  1  0  0  0  0
  2  3  1  0  0  0  0
  2  4  2  0  0  0  0
  4  5  1  0  0  0  0
  5  6  2  0  0  0  0
  5 11  1  0  0  0  0
  6  7  1  0  0  0  0
  6  9  1  0  0  0  0
  7  8  2  0  0  0  0
  9 10  2  0  0  0  0
  9 12  1  0  0  0  0
 10 11  1  0  0  0  0
 12 13  3  0  0  0  0
M  END
>  <CHROM.1>
35.71499779,33.23767911,25.10493986,0.46476616,0.63410177,2.45599825

>  <Name>
ligand

>  <RI>
0

>  <Rbt.Current_Directory>
/home/itssahil/PROJECTS/Mol_Feturizer/New_Systems/rnas/3GCA

>  <Rbt.Executable>
rbdock ($Id: //depot/dev/client3/rdock/2013.1/src/exe/rbdock.cxx#4 $)

>  <Rbt.Library>
libRbt.so (2013.1, Build901 2013/11/27)

>  <Rbt.Parameter_File>
/export/apps/rDock/src/rDock_2013.1_src/data/scripts/dock_solv.prm

>  <Rbt.Receptor>
prm/pocket_docking_5.prm

>  <SCORE>
-24.0004

>  <SCORE.INTER>
-24.0004

>  <SCORE.INTER.CONST>
1

>  <SCORE.INTER.POLAR>
0

>  <SCORE.INTER.ROT>
0

>  <SCORE.INTER.SOLV>
11.5633

>  <SCORE.INTER.VDW>
-23.4547

>  <SCORE.INTER.norm>
-1.84619

>  <SCORE.INTRA>
0

>  <SCORE.INTRA.DIHEDRAL>
0

>  <SCORE.INTRA.DIHEDRAL.0>
0

>  <SCORE.INTRA.POLAR>
0

>  <SCORE.INTRA.POLAR.0>
0

>  <SCORE.INTRA.REPUL>
0

>  <SCORE.INTRA.REPUL.0>
0

>  <SCORE.INTRA.SOLV>
0

>  <SCORE.INTRA.SOLV.lig_0>
-33.1994

>  <SCORE.INTRA.VDW>
0

>  <SCORE.INTRA.VDW.0>
0

>  <SCORE.INTRA.norm>
0

>  <SCORE.RESTR>
0

>  <SCORE.RESTR.CAVITY>
0

>  <SCORE.RESTR.norm>
0

>  <SCORE.SYSTEM>
0

>  <SCORE.SYSTEM.CONST>
0

>  <SCORE.SYSTEM.DIHEDRAL>
0

>  <SCORE.SYSTEM.SOLV>
0

>  <SCORE.SYSTEM.norm>
0

>  <SCORE.heavy>
13

>  <SCORE.norm>
-1.84619

>  <RMSD>
4.898

$$$$
ligand
 OpenBabel11021811473D
libRbt.so/2013.1/901 2013/11/27
 13 14  0  0  0  0  0  0  0  0999 V2000
   36.4233   32.1287   26.7175 N   0  0  0  0  0  0  0  0  0  0  0  0
   37.5695   33.2173   26.8244 C   0  0  0  0  0  0  0  0  0  0  0  0
   38.5236   33.0927   27.8153 N   0  0  0  0  0  0  0  0  0  0  0  0
   37.4442   34.1258   25.9511 N   0  0  0  0  0  0  0  0  0  0  0  0
   36.5444   34.2918   24.9626 C   0  0  0  0  0  0  0  0  0  0  0  0
   35.5419   33.4073   24.7941 C   0  0  0  0  0  0  0  0  0  0  0  0
   35.4686   32.1900   25.7980 C   0  0  0  0  0  0  0  0  0  0  0  0
   34.5813   31.4152   25.6370 O   0  0  0  0  0  0  0  0  0  0  0  0
   34.6077   33.7819   23.6285 C   0  0  0  0  0  0  0  0  0  0  0  0
   35.1174   34.9098   23.1212 C   0  0  0  0  0  0  0  0  0  0  0  0
   36.2348   35.3807   23.7567 N   0  0  0  0  0  0  0  0  0  0  0  0
   33.4247   33.0175   23.1726 C   0  0  0  0  0  0  0  0  0  0  0  0
   32.4971   32.3953   22.8741 N   0  0  0  0  0  0  0  0  0  0  0  0
  1  2  1  0  0  0  0
  1  7  1  0  0  0  0
  2  3  1  0  0  0  0
  2  4  2  0  0  0  0
  4  5  1  0  0  0  0
  5  6  2  0  0  0  0
  5 11  1  0  0  0  0
  6  7  1  0  0  0  0
  6  9  1  0  0  0  0
  7  8  2  0  0  0  0
  9 10  2  0  0  0  0
  9 12  1  0  0  0  0
 10 11  1  0  0  0  0
 12 13  3  0  0  0  0
M  END
>  <CHROM.1>
35.69595780,33.29516007,25.04349630,0.46736728,0.60968698,2.43169870

>  <Name>
ligand

>  <RI>
0

>  <Rbt.Current_Directory>
/home/itssahil/PROJECTS/Mol_Feturizer/New_Systems/rnas/3GCA

>  <Rbt.Executable>
rbdock ($Id: //depot/dev/client3/rdock/2013.1/src/exe/rbdock.cxx#4 $)

>  <Rbt.Library>
libRbt.so (2013.1, Build901 2013/11/27)

>  <Rbt.Parameter_File>
/export/apps/rDock/src/rDock_2013.1_src/data/scripts/dock_solv.prm

>  <Rbt.Receptor>
prm/pocket_docking_6.prm

>  <SCORE>
-24.015

>  <SCORE.INTER>
-24.015

>  <SCORE.INTER.CONST>
1

>  <SCORE.INTER.POLAR>
0

>  <SCORE.INTER.ROT>
0

>  <SCORE.INTER.SOLV>
11.3006

>  <SCORE.INTER.VDW>
-23.3769

>  <SCORE.INTER.norm>
-1.84731

>  <SCORE.INTRA>
0

>  <SCORE.INTRA.DIHEDRAL>
0

>  <SCORE.INTRA.DIHEDRAL.0>
0

>  <SCORE.INTRA.POLAR>
0

>  <SCORE.INTRA.POLAR.0>
0

>  <SCORE.INTRA.REPUL>
0

>  <SCORE.INTRA.REPUL.0>
0

>  <SCORE.INTRA.SOLV>
0

>  <SCORE.INTRA.SOLV.lig_0>
-33.1994

>  <SCORE.INTRA.VDW>
0

>  <SCORE.INTRA.VDW.0>
0

>  <SCORE.INTRA.norm>
0

>  <SCORE.RESTR>
0

>  <SCORE.RESTR.CAVITY>
0

>  <SCORE.RESTR.norm>
0

>  <SCORE.SYSTEM>
0

>  <SCORE.SYSTEM.CONST>
0

>  <SCORE.SYSTEM.DIHEDRAL>
0

>  <SCORE.SYSTEM.SOLV>
0

>  <SCORE.SYSTEM.norm>
0

>  <SCORE.heavy>
13

>  <SCORE.norm>
-1.84731

>  <RMSD>
4.898

$$$$
ligand
 OpenBabel11021811473D
libRbt.so/2013.1/901 2013/11/27
 13 14  0  0  0  0  0  0  0  0999 V2000
   36.3979   32.0927   26.7906 N   0  0  0  0  0  0  0  0  0  0  0  0
   37.5351   33.1878   26.9236 C   0  0  0  0  0  0  0  0  0  0  0  0
   38.4671   33.0686   27.9359 N   0  0  0  0  0  0  0  0  0  0  0  0
   37.4245   34.0957   26.0477 N   0  0  0  0  0  0  0  0  0  0  0  0
   36.5465   34.2567   25.0390 C   0  0  0  0  0  0  0  0  0  0  0  0
   35.5531   33.3665   24.8477 C   0  0  0  0  0  0  0  0  0  0  0  0
   35.4640   32.1486   25.8496 C   0  0  0  0  0  0  0  0  0  0  0  0
   34.5850   31.3688   25.6684 O   0  0  0  0  0  0  0  0  0  0  0  0
   34.6436   33.7359   23.6612 C   0  0  0  0  0  0  0  0  0  0  0  0
   35.1583   34.8668   23.1655 C   0  0  0  0  0  0  0  0  0  0  0  0
   36.2582   35.3440   23.8263 N   0  0  0  0  0  0  0  0  0  0  0  0
   33.4757   32.9649   23.1784 C   0  0  0  0  0  0  0  0  0  0  0  0
   32.5586   32.3374   22.8588 N   0  0  0  0  0  0  0  0  0  0  0  0
  1  2  1  0  0  0  0
  1  7  1  0  0  0  0
  2  3  1  0  0  0  0
  2  4  2  0  0  0  0
  4  5  1  0  0  0  0
  5  6  2  0  0  0  0
  5 11  1  0  0  0  0
  6  7  1  0  0  0  0
  6  9  1  0  0  0  0
  7  8  2  0  0  0  0
  9 10  2  0  0  0  0
  9 12  1  0  0  0  0
 10 11  1  0  0  0  0
 12 13  3  0  0  0  0
M  END
>  <CHROM.1>
35.70213830,33.25522629,25.10050198,0.48035696,0.63063579,2.42422665

>  <Name>
ligand

>  <RI>
0

>  <Rbt.Current_Directory>
/home/itssahil/PROJECTS/Mol_Feturizer/New_Systems/rnas/3GCA

>  <Rbt.Executable>
rbdock ($Id: //depot/dev/client3/rdock/2013.1/src/exe/rbdock.cxx#4 $)

>  <Rbt.Library>
libRbt.so (2013.1, Build901 2013/11/27)

>  <Rbt.Parameter_File>
/export/apps/rDock/src/rDock_2013.1_src/data/scripts/dock_solv.prm

>  <Rbt.Receptor>
prm/pocket_docking_6.prm

>  <SCORE>
-24.0493

>  <SCORE.INTER>
-24.0493

>  <SCORE.INTER.CONST>
1

>  <SCORE.INTER.POLAR>
0

>  <SCORE.INTER.ROT>
0

>  <SCORE.INTER.SOLV>
11.6606

>  <SCORE.INTER.VDW>
-23.5198

>  <SCORE.INTER.norm>
-1.84995

>  <SCORE.INTRA>
0

>  <SCORE.INTRA.DIHEDRAL>
0

>  <SCORE.INTRA.DIHEDRAL.0>
0

>  <SCORE.INTRA.POLAR>
0

>  <SCORE.INTRA.POLAR.0>
0

>  <SCORE.INTRA.REPUL>
0

>  <SCORE.INTRA.REPUL.0>
0

>  <SCORE.INTRA.SOLV>
0

>  <SCORE.INTRA.SOLV.lig_0>
-33.1994

>  <SCORE.INTRA.VDW>
0

>  <SCORE.INTRA.VDW.0>
0

>  <SCORE.INTRA.norm>
0

>  <SCORE.RESTR>
0

>  <SCORE.RESTR.CAVITY>
0

>  <SCORE.RESTR.norm>
0

>  <SCORE.SYSTEM>
0

>  <SCORE.SYSTEM.CONST>
0

>  <SCORE.SYSTEM.DIHEDRAL>
0

>  <SCORE.SYSTEM.SOLV>
0

>  <SCORE.SYSTEM.norm>
0

>  <SCORE.heavy>
13

>  <SCORE.norm>
-1.84995

>  <RMSD>
4.898

$$$$
ligand
 OpenBabel11021811473D
libRbt.so/2013.1/901 2013/11/27
 13 14  0  0  0  0  0  0  0  0999 V2000
   36.4662   32.0825   26.7623 N   0  0  0  0  0  0  0  0  0  0  0  0
   37.6027   33.1776   26.9017 C   0  0  0  0  0  0  0  0  0  0  0  0
   38.5494   33.0400   27.8978 N   0  0  0  0  0  0  0  0  0  0  0  0
   37.4773   34.1032   26.0464 N   0  0  0  0  0  0  0  0  0  0  0  0
   36.5845   34.2827   25.0540 C   0  0  0  0  0  0  0  0  0  0  0  0
   35.5906   33.3941   24.8586 C   0  0  0  0  0  0  0  0  0  0  0  0
   35.5188   32.1554   25.8361 C   0  0  0  0  0  0  0  0  0  0  0  0
   34.6391   31.3773   25.6514 O   0  0  0  0  0  0  0  0  0  0  0  0
   34.6632   33.7855   23.6931 C   0  0  0  0  0  0  0  0  0  0  0  0
   35.1680   34.9278   23.2137 C   0  0  0  0  0  0  0  0  0  0  0  0
   36.2762   35.3941   23.8684 N   0  0  0  0  0  0  0  0  0  0  0  0
   33.4903   33.0216   23.2112 C   0  0  0  0  0  0  0  0  0  0  0  0
   32.5702   32.3984   22.8919 N   0  0  0  0  0  0  0  0  0  0  0  0
  1  2  1  0  0  0  0
  1  7  1  0  0  0  0
  2  3  1  0  0  0  0
  2  4  2  0  0  0  0
  4  5  1  0  0  0  0
  5  6  2  0  0  0  0
  5 11  1  0  0  0  0
  6  7  1  0  0  0  0
  6  9  1  0  0  0  0
  7  8  2  0  0  0  0
  9 10  2  0  0  0  0
  9 12  1  0  0  0  0
 10 11  1  0  0  0  0
 12 13  3  0  0  0  0
M  END
>  <CHROM.1>
35.74350414,33.27795825,25.10682120,0.46653875,0.62129426,2.45306031

>  <Name>
ligand

>  <RI>
0

>  <Rbt.Current_Directory>
/home/itssahil/PROJECTS/Mol_Feturizer/New_Systems/rnas/3GCA

>  <Rbt.Executable>
rbdock ($Id: //depot/dev/client3/rdock/2013.1/src/exe/rbdock.cxx#4 $)

>  <Rbt.Library>
libRbt.so (2013.1, Build901 2013/11/27)

>  <Rbt.Parameter_File>
/export/apps/rDock/src/rDock_2013.1_src/data/scripts/dock_solv.prm

>  <Rbt.Receptor>
prm/pocket_docking_6.prm

>  <SCORE>
-24.041

>  <SCORE.INTER>
-24.041

>  <SCORE.INTER.CONST>
1

>  <SCORE.INTER.POLAR>
0

>  <SCORE.INTER.ROT>
0

>  <SCORE.INTER.SOLV>
11.2814

>  <SCORE.INTER.VDW>
-23.3878

>  <SCORE.INTER.norm>
-1.84931

>  <SCORE.INTRA>
0

>  <SCORE.INTRA.DIHEDRAL>
0

>  <SCORE.INTRA.DIHEDRAL.0>
0

>  <SCORE.INTRA.POLAR>
0

>  <SCORE.INTRA.POLAR.0>
0

>  <SCORE.INTRA.REPUL>
0

>  <SCORE.INTRA.REPUL.0>
0

>  <SCORE.INTRA.SOLV>
0

>  <SCORE.INTRA.SOLV.lig_0>
-33.1994

>  <SCORE.INTRA.VDW>
0

>  <SCORE.INTRA.VDW.0>
0

>  <SCORE.INTRA.norm>
0

>  <SCORE.RESTR>
0

>  <SCORE.RESTR.CAVITY>
0

>  <SCORE.RESTR.norm>
0

>  <SCORE.SYSTEM>
0

>  <SCORE.SYSTEM.CONST>
0

>  <SCORE.SYSTEM.DIHEDRAL>
0

>  <SCORE.SYSTEM.SOLV>
0

>  <SCORE.SYSTEM.norm>
0

>  <SCORE.heavy>
13

>  <SCORE.norm>
-1.84931

>  <RMSD>
4.898

$$$$
ligand
 OpenBabel11021811473D
libRbt.so/2013.1/901 2013/11/27
 13 14  0  0  0  0  0  0  0  0999 V2000
   36.4461   32.0692   26.7568 N   0  0  0  0  0  0  0  0  0  0  0  0
   37.5887   33.1587   26.8911 C   0  0  0  0  0  0  0  0  0  0  0  0
   38.5246   33.0295   27.8986 N   0  0  0  0  0  0  0  0  0  0  0  0
   37.4781   34.0721   26.0210 N   0  0  0  0  0  0  0  0  0  0  0  0
   36.5964   34.2428   25.0172 C   0  0  0  0  0  0  0  0  0  0  0  0
   35.5984   33.3580   24.8251 C   0  0  0  0  0  0  0  0  0  0  0  0
   35.5084   32.1347   25.8203 C   0  0  0  0  0  0  0  0  0  0  0  0
   34.6252   31.3598   25.6385 O   0  0  0  0  0  0  0  0  0  0  0  0
   34.6852   33.7382   23.6448 C   0  0  0  0  0  0  0  0  0  0  0  0
   35.2026   34.8698   23.1534 C   0  0  0  0  0  0  0  0  0  0  0  0
   36.3074   35.3383   23.8121 N   0  0  0  0  0  0  0  0  0  0  0  0
   33.5119   32.9751   23.1627 C   0  0  0  0  0  0  0  0  0  0  0  0
   32.5907   32.3534   22.8435 N   0  0  0  0  0  0  0  0  0  0  0  0
  1  2  1  0  0  0  0
  1  7  1  0  0  0  0
  2  3  1  0  0  0  0
  2  4  2  0  0  0  0
  4  5  1  0  0  0  0
  5  6  2  0  0  0  0
  5 11  1  0  0  0  0
  6  7  1  0  0  0  0
  6  9  1  0  0  0  0
  7  8  2  0  0  0  0
  9 10  2  0  0  0  0
  9 12  1  0  0  0  0
 10 11  1  0  0  0  0
 12 13  3  0  0  0  0
M  END
>  <CHROM.1>
35.74799614,33.24460921,25.07658523,0.48080654,0.62448268,2.42979490

>  <Name>
ligand

>  <RI>
0

>  <Rbt.Current_Directory>
/home/itssahil/PROJECTS/Mol_Feturizer/New_Systems/rnas/3GCA

>  <Rbt.Executable>
rbdock ($Id: //depot/dev/client3/rdock/2013.1/src/exe/rbdock.cxx#4 $)

>  <Rbt.Library>
libRbt.so (2013.1, Build901 2013/11/27)

>  <Rbt.Parameter_File>
/export/apps/rDock/src/rDock_2013.1_src/data/scripts/dock_solv.prm

>  <Rbt.Receptor>
prm/pocket_docking_7.prm

>  <SCORE>
-24.0173

>  <SCORE.INTER>
-24.0173

>  <SCORE.INTER.CONST>
1

>  <SCORE.INTER.POLAR>
0

>  <SCORE.INTER.ROT>
0

>  <SCORE.INTER.SOLV>
11.3961

>  <SCORE.INTER.VDW>
-23.4102

>  <SCORE.INTER.norm>
-1.84748

>  <SCORE.INTRA>
0

>  <SCORE.INTRA.DIHEDRAL>
0

>  <SCORE.INTRA.DIHEDRAL.0>
0

>  <SCORE.INTRA.POLAR>
0

>  <SCORE.INTRA.POLAR.0>
0

>  <SCORE.INTRA.REPUL>
0

>  <SCORE.INTRA.REPUL.0>
0

>  <SCORE.INTRA.SOLV>
0

>  <SCORE.INTRA.SOLV.lig_0>
-33.1994

>  <SCORE.INTRA.VDW>
0

>  <SCORE.INTRA.VDW.0>
0

>  <SCORE.INTRA.norm>
0

>  <SCORE.RESTR>
0

>  <SCORE.RESTR.CAVITY>
0

>  <SCORE.RESTR.norm>
0

>  <SCORE.SYSTEM>
0

>  <SCORE.SYSTEM.CONST>
0

>  <SCORE.SYSTEM.DIHEDRAL>
0

>  <SCORE.SYSTEM.SOLV>
0

>  <SCORE.SYSTEM.norm>
0

>  <SCORE.heavy>
13

>  <SCORE.norm>
-1.84748

>  <RMSD>
4.898

$$$$
ligand
 OpenBabel11021811473D
libRbt.so/2013.1/901 2013/11/27
 13 14  0  0  0  0  0  0  0  0999 V2000
   36.4767   32.0748   26.7513 N   0  0  0  0  0  0  0  0  0  0  0  0
   37.6059   33.1764   26.8992 C   0  0  0  0  0  0  0  0  0  0  0  0
   38.5501   33.0403   27.8981 N   0  0  0  0  0  0  0  0  0  0  0  0
   37.4777   34.1048   26.0475 N   0  0  0  0  0  0  0  0  0  0  0  0
   36.5872   34.2830   25.0528 C   0  0  0  0  0  0  0  0  0  0  0  0
   35.5995   33.3891   24.8502 C   0  0  0  0  0  0  0  0  0  0  0  0
   35.5320   32.1459   25.8222 C   0  0  0  0  0  0  0  0  0  0  0  0
   34.6578   31.3630   25.6312 O   0  0  0  0  0  0  0  0  0  0  0  0
   34.6736   33.7797   23.6832 C   0  0  0  0  0  0  0  0  0  0  0  0
   35.1730   34.9272   23.2104 C   0  0  0  0  0  0  0  0  0  0  0  0
   36.2760   35.3975   23.8709 N   0  0  0  0  0  0  0  0  0  0  0  0
   33.5072   33.0106   23.1941 C   0  0  0  0  0  0  0  0  0  0  0  0
   32.5921   32.3831   22.8689 N   0  0  0  0  0  0  0  0  0  0  0  0
  1  2  1  0  0  0  0
  1  7  1  0  0  0  0
  2  3  1  0  0  0  0
  2  4  2  0  0  0  0
  4  5  1  0  0  0  0
  5  6  2  0  0  0  0
  5 11  1  0  0  0  0
  6  7  1  0  0  0  0
  6  9  1  0  0  0  0
  7  8  2  0  0  0  0
  9 10  2  0  0  0  0
  9 12  1  0  0  0  0
 10 11  1  0  0  0  0
 12 13  3  0  0  0  0
M  END
>  <CHROM.1>
35.75224993,33.27284052,25.09847355,0.46327830,0.62787166,2.45922723

>  <Name>
ligand

>  <RI>
0

>  <Rbt.Current_Directory>
/home/itssahil/PROJECTS/Mol_Feturizer/New_Systems/rnas/3GCA

>  <Rbt.Executable>
rbdock ($Id: //depot/dev/client3/rdock/2013.1/src/exe/rbdock.cxx#4 $)

>  <Rbt.Library>
libRbt.so (2013.1, Build901 2013/11/27)

>  <Rbt.Parameter_File>
/export/apps/rDock/src/rDock_2013.1_src/data/scripts/dock_solv.prm

>  <Rbt.Receptor>
prm/pocket_docking_8.prm

>  <SCORE>
-24.0368

>  <SCORE.INTER>
-24.0368

>  <SCORE.INTER.CONST>
1

>  <SCORE.INTER.POLAR>
0

>  <SCORE.INTER.ROT>
0

>  <SCORE.INTER.SOLV>
11.2848

>  <SCORE.INTER.VDW>
-23.3862

>  <SCORE.INTER.norm>
-1.84899

>  <SCORE.INTRA>
0

>  <SCORE.INTRA.DIHEDRAL>
0

>  <SCORE.INTRA.DIHEDRAL.0>
0

>  <SCORE.INTRA.POLAR>
0

>  <SCORE.INTRA.POLAR.0>
0

>  <SCORE.INTRA.REPUL>
0

>  <SCORE.INTRA.REPUL.0>
0

>  <SCORE.INTRA.SOLV>
0

>  <SCORE.INTRA.SOLV.lig_0>
-33.1994

>  <SCORE.INTRA.VDW>
0

>  <SCORE.INTRA.VDW.0>
0

>  <SCORE.INTRA.norm>
0

>  <SCORE.RESTR>
0

>  <SCORE.RESTR.CAVITY>
0

>  <SCORE.RESTR.norm>
0

>  <SCORE.SYSTEM>
0

>  <SCORE.SYSTEM.CONST>
0

>  <SCORE.SYSTEM.DIHEDRAL>
0

>  <SCORE.SYSTEM.SOLV>
0

>  <SCORE.SYSTEM.norm>
0

>  <SCORE.heavy>
13

>  <SCORE.norm>
-1.84899

>  <RMSD>
4.898

$$$$
ligand
 OpenBabel11021811473D
libRbt.so/2013.1/901 2013/11/27
 13 14  0  0  0  0  0  0  0  0999 V2000
   36.5240   32.0957   26.7563 N   0  0  0  0  0  0  0  0  0  0  0  0
   37.6703   33.1810   26.8920 C   0  0  0  0  0  0  0  0  0  0  0  0
   38.6233   33.0312   27.8805 N   0  0  0  0  0  0  0  0  0  0  0  0
   37.5462   34.1114   26.0419 N   0  0  0  0  0  0  0  0  0  0  0  0
   36.6475   34.3026   25.0569 C   0  0  0  0  0  0  0  0  0  0  0  0
   35.6450   33.4229   24.8650 C   0  0  0  0  0  0  0  0  0  0  0  0
   35.5703   32.1805   25.8376 C   0  0  0  0  0  0  0  0  0  0  0  0
   34.6830   31.4103   25.6560 O   0  0  0  0  0  0  0  0  0  0  0  0
   34.7122   33.8271   23.7082 C   0  0  0  0  0  0  0  0  0  0  0  0
   35.2227   34.9674   23.2301 C   0  0  0  0  0  0  0  0  0  0  0  0
   36.3395   35.4217   23.8786 N   0  0  0  0  0  0  0  0  0  0  0  0
   33.5296   33.0748   23.2317 C   0  0  0  0  0  0  0  0  0  0  0  0
   32.6021   32.4605   22.9165 N   0  0  0  0  0  0  0  0  0  0  0  0
  1  2  1  0  0  0  0
  1  7  1  0  0  0  0
  2  3  1  0  0  0  0
  2  4  2  0  0  0  0
  4  5  1  0  0  0  0
  5  6  2  0  0  0  0
  5 11  1  0  0  0  0
  6  7  1  0  0  0  0
  6  9  1  0  0  0  0
  7  8  2  0  0  0  0
  9 10  2  0  0  0  0
  9 12  1  0  0  0  0
 10 11  1  0  0  0  0
 12 13  3  0  0  0  0
M  END
>  <CHROM.1>
35.79876354,33.30441530,25.11156729,0.46844428,0.61039791,2.45642313

>  <Name>
ligand

>  <RI>
0

>  <Rbt.Current_Directory>
/home/itssahil/PROJECTS/Mol_Feturizer/New_Systems/rnas/3GCA

>  <Rbt.Executable>
rbdock ($Id: //depot/dev/client3/rdock/2013.1/src/exe/rbdock.cxx#4 $)

>  <Rbt.Library>
libRbt.so (2013.1, Build901 2013/11/27)

>  <Rbt.Parameter_File>
/export/apps/rDock/src/rDock_2013.1_src/data/scripts/dock_solv.prm

>  <Rbt.Receptor>
prm/pocket_docking_8.prm

>  <SCORE>
-23.99

>  <SCORE.INTER>
-23.99

>  <SCORE.INTER.CONST>
1

>  <SCORE.INTER.POLAR>
0

>  <SCORE.INTER.ROT>
0

>  <SCORE.INTER.SOLV>
10.9189

>  <SCORE.INTER.VDW>
-23.233

>  <SCORE.INTER.norm>
-1.84539

>  <SCORE.INTRA>
0

>  <SCORE.INTRA.DIHEDRAL>
0

>  <SCORE.INTRA.DIHEDRAL.0>
0

>  <SCORE.INTRA.POLAR>
0

>  <SCORE.INTRA.POLAR.0>
0

>  <SCORE.INTRA.REPUL>
0

>  <SCORE.INTRA.REPUL.0>
0

>  <SCORE.INTRA.SOLV>
0

>  <SCORE.INTRA.SOLV.lig_0>
-33.1994

>  <SCORE.INTRA.VDW>
0

>  <SCORE.INTRA.VDW.0>
0

>  <SCORE.INTRA.norm>
0

>  <SCORE.RESTR>
0

>  <SCORE.RESTR.CAVITY>
0

>  <SCORE.RESTR.norm>
0

>  <SCORE.SYSTEM>
0

>  <SCORE.SYSTEM.CONST>
0

>  <SCORE.SYSTEM.DIHEDRAL>
0

>  <SCORE.SYSTEM.SOLV>
0

>  <SCORE.SYSTEM.norm>
0

>  <SCORE.heavy>
13

>  <SCORE.norm>
-1.84539

>  <RMSD>
4.898

$$$$
ligand
 OpenBabel11021811473D
libRbt.so/2013.1/901 2013/11/27
 13 14  0  0  0  0  0  0  0  0999 V2000
   36.4447   32.0481   26.7525 N   0  0  0  0  0  0  0  0  0  0  0  0
   37.5819   33.1430   26.8882 C   0  0  0  0  0  0  0  0  0  0  0  0
   38.5240   33.0121   27.8896 N   0  0  0  0  0  0  0  0  0  0  0  0
   37.4615   34.0618   26.0250 N   0  0  0  0  0  0  0  0  0  0  0  0
   36.5733   34.2345   25.0272 C   0  0  0  0  0  0  0  0  0  0  0  0
   35.5792   33.3455   24.8345 C   0  0  0  0  0  0  0  0  0  0  0  0
   35.5015   32.1148   25.8216 C   0  0  0  0  0  0  0  0  0  0  0  0
   34.6217   31.3362   25.6392 O   0  0  0  0  0  0  0  0  0  0  0  0
   34.6574   33.7287   23.6618 C   0  0  0  0  0  0  0  0  0  0  0  0
   35.1658   34.8666   23.1756 C   0  0  0  0  0  0  0  0  0  0  0  0
   36.2717   35.3367   23.8314 N   0  0  0  0  0  0  0  0  0  0  0  0
   33.4858   32.9624   23.1808 C   0  0  0  0  0  0  0  0  0  0  0  0
   32.5663   32.3377   22.8624 N   0  0  0  0  0  0  0  0  0  0  0  0
  1  2  1  0  0  0  0
  1  7  1  0  0  0  0
  2  3  1  0  0  0  0
  2  4  2  0  0  0  0
  4  5  1  0  0  0  0
  5  6  2  0  0  0  0
  5 11  1  0  0  0  0
  6  7  1  0  0  0  0
  6  9  1  0  0  0  0
  7  8  2  0  0  0  0
  9 10  2  0  0  0  0
  9 12  1  0  0  0  0
 10 11  1  0  0  0  0
 12 13  3  0  0  0  0
M  END
>  <CHROM.1>
35.73083698,33.23118008,25.08434435,0.47119193,0.62393037,2.44235484

>  <Name>
ligand

>  <RI>
0

>  <Rbt.Current_Directory>
/home/itssahil/PROJECTS/Mol_Feturizer/New_Systems/rnas/3GCA

>  <Rbt.Executable>
rbdock ($Id: //depot/dev/client3/rdock/2013.1/src/exe/rbdock.cxx#4 $)

>  <Rbt.Library>
libRbt.so (2013.1, Build901 2013/11/27)

>  <Rbt.Parameter_File>
/export/apps/rDock/src/rDock_2013.1_src/data/scripts/dock_solv.prm

>  <Rbt.Receptor>
prm/pocket_docking_3.prm

>  <SCORE>
-24.0172

>  <SCORE.INTER>
-24.0172

>  <SCORE.INTER.CONST>
1

>  <SCORE.INTER.POLAR>
0

>  <SCORE.INTER.ROT>
0

>  <SCORE.INTER.SOLV>
11.4162

>  <SCORE.INTER.VDW>
-23.4169

>  <SCORE.INTER.norm>
-1.84748

>  <SCORE.INTRA>
0

>  <SCORE.INTRA.DIHEDRAL>
0

>  <SCORE.INTRA.DIHEDRAL.0>
0

>  <SCORE.INTRA.POLAR>
0

>  <SCORE.INTRA.POLAR.0>
0

>  <SCORE.INTRA.REPUL>
0

>  <SCORE.INTRA.REPUL.0>
0

>  <SCORE.INTRA.SOLV>
0

>  <SCORE.INTRA.SOLV.lig_0>
-33.1994

>  <SCORE.INTRA.VDW>
0

>  <SCORE.INTRA.VDW.0>
0

>  <SCORE.INTRA.norm>
0

>  <SCORE.RESTR>
0

>  <SCORE.RESTR.CAVITY>
0

>  <SCORE.RESTR.norm>
0

>  <SCORE.SYSTEM>
0

>  <SCORE.SYSTEM.CONST>
0

>  <SCORE.SYSTEM.DIHEDRAL>
0

>  <SCORE.SYSTEM.SOLV>
0

>  <SCORE.SYSTEM.norm>
0

>  <SCORE.heavy>
13

>  <SCORE.norm>
-1.84748

>  <RMSD>
4.899

$$$$
ligand
 OpenBabel11021811473D
libRbt.so/2013.1/901 2013/11/27
 13 14  0  0  0  0  0  0  0  0999 V2000
   36.5116   32.0489   26.7397 N   0  0  0  0  0  0  0  0  0  0  0  0
   37.6414   33.1501   26.8857 C   0  0  0  0  0  0  0  0  0  0  0  0
   38.5963   33.0056   27.8731 N   0  0  0  0  0  0  0  0  0  0  0  0
   37.5034   34.0862   26.0441 N   0  0  0  0  0  0  0  0  0  0  0  0
   36.6021   34.2729   25.0606 C   0  0  0  0  0  0  0  0  0  0  0  0
   35.6131   33.3800   24.8603 C   0  0  0  0  0  0  0  0  0  0  0  0
   35.5569   32.1278   25.8214 C   0  0  0  0  0  0  0  0  0  0  0  0
   34.6814   31.3460   25.6325 O   0  0  0  0  0  0  0  0  0  0  0  0
   34.6745   33.7807   23.7070 C   0  0  0  0  0  0  0  0  0  0  0  0
   35.1679   34.9329   23.2395 C   0  0  0  0  0  0  0  0  0  0  0  0
   36.2775   35.3981   23.8925 N   0  0  0  0  0  0  0  0  0  0  0  0
   33.5034   33.0151   23.2232 C   0  0  0  0  0  0  0  0  0  0  0  0
   32.5854   32.3898   22.9020 N   0  0  0  0  0  0  0  0  0  0  0  0
  1  2  1  0  0  0  0
  1  7  1  0  0  0  0
  2  3  1  0  0  0  0
  2  4  2  0  0  0  0
  4  5  1  0  0  0  0
  5  6  2  0  0  0  0
  5 11  1  0  0  0  0
  6  7  1  0  0  0  0
  6  9  1  0  0  0  0
  7  8  2  0  0  0  0
  9 10  2  0  0  0  0
  9 12  1  0  0  0  0
 10 11  1  0  0  0  0
 12 13  3  0  0  0  0
M  END
>  <CHROM.1>
35.76855261,33.26162342,25.10583277,0.45425584,0.62004678,2.47379287

>  <Name>
ligand

>  <RI>
0

>  <Rbt.Current_Directory>
/home/itssahil/PROJECTS/Mol_Feturizer/New_Systems/rnas/3GCA

>  <Rbt.Executable>
rbdock ($Id: //depot/dev/client3/rdock/2013.1/src/exe/rbdock.cxx#4 $)

>  <Rbt.Library>
libRbt.so (2013.1, Build901 2013/11/27)

>  <Rbt.Parameter_File>
/export/apps/rDock/src/rDock_2013.1_src/data/scripts/dock_solv.prm

>  <Rbt.Receptor>
prm/pocket_docking_4.prm

>  <SCORE>
-23.9902

>  <SCORE.INTER>
-23.9902

>  <SCORE.INTER.CONST>
1

>  <SCORE.INTER.POLAR>
0

>  <SCORE.INTER.ROT>
0

>  <SCORE.INTER.SOLV>
11.0891

>  <SCORE.INTER.VDW>
-23.2898

>  <SCORE.INTER.norm>
-1.8454

>  <SCORE.INTRA>
0

>  <SCORE.INTRA.DIHEDRAL>
0

>  <SCORE.INTRA.DIHEDRAL.0>
0

>  <SCORE.INTRA.POLAR>
0

>  <SCORE.INTRA.POLAR.0>
0

>  <SCORE.INTRA.REPUL>
0

>  <SCORE.INTRA.REPUL.0>
0

>  <SCORE.INTRA.SOLV>
0

>  <SCORE.INTRA.SOLV.lig_0>
-33.1994

>  <SCORE.INTRA.VDW>
0

>  <SCORE.INTRA.VDW.0>
0

>  <SCORE.INTRA.norm>
0

>  <SCORE.RESTR>
0

>  <SCORE.RESTR.CAVITY>
0

>  <SCORE.RESTR.norm>
0

>  <SCORE.SYSTEM>
0

>  <SCORE.SYSTEM.CONST>
0

>  <SCORE.SYSTEM.DIHEDRAL>
0

>  <SCORE.SYSTEM.SOLV>
0

>  <SCORE.SYSTEM.norm>
0

>  <SCORE.heavy>
13

>  <SCORE.norm>
-1.8454

>  <RMSD>
4.899

$$$$
ligand
 OpenBabel11021811473D
libRbt.so/2013.1/901 2013/11/27
 13 14  0  0  0  0  0  0  0  0999 V2000
   36.4588   32.0081   26.7451 N   0  0  0  0  0  0  0  0  0  0  0  0
   37.5631   33.1313   26.9164 C   0  0  0  0  0  0  0  0  0  0  0  0
   38.5031   33.0014   27.9200 N   0  0  0  0  0  0  0  0  0  0  0  0
   37.4208   34.0687   26.0767 N   0  0  0  0  0  0  0  0  0  0  0  0
   36.5335   34.2418   25.0782 C   0  0  0  0  0  0  0  0  0  0  0  0
   35.5666   33.3299   24.8562 C   0  0  0  0  0  0  0  0  0  0  0  0
   35.5191   32.0720   25.8104 C   0  0  0  0  0  0  0  0  0  0  0  0
   34.6633   31.2735   25.6022 O   0  0  0  0  0  0  0  0  0  0  0  0
   34.6407   33.7171   23.6881 C   0  0  0  0  0  0  0  0  0  0  0  0
   35.1186   34.8815   23.2349 C   0  0  0  0  0  0  0  0  0  0  0  0
   36.2067   35.3659   23.9097 N   0  0  0  0  0  0  0  0  0  0  0  0
   33.4943   32.9302   23.1800 C   0  0  0  0  0  0  0  0  0  0  0  0
   32.5951   32.2880   22.8397 N   0  0  0  0  0  0  0  0  0  0  0  0
  1  2  1  0  0  0  0
  1  7  1  0  0  0  0
  2  3  1  0  0  0  0
  2  4  2  0  0  0  0
  4  5  1  0  0  0  0
  5  6  2  0  0  0  0
  5 11  1  0  0  0  0
  6  7  1  0  0  0  0
  6  9  1  0  0  0  0
  7  8  2  0  0  0  0
  9 10  2  0  0  0  0
  9 12  1  0  0  0  0
 10 11  1  0  0  0  0
 12 13  3  0  0  0  0
M  END
>  <CHROM.1>
35.72015461,33.21351312,25.10391540,0.44787687,0.64664417,2.48234981

>  <Name>
ligand

>  <RI>
0

>  <Rbt.Current_Directory>
/home/itssahil/PROJECTS/Mol_Feturizer/New_Systems/rnas/3GCA

>  <Rbt.Executable>
rbdock ($Id: //depot/dev/client3/rdock/2013.1/src/exe/rbdock.cxx#4 $)

>  <Rbt.Library>
libRbt.so (2013.1, Build901 2013/11/27)

>  <Rbt.Parameter_File>
/export/apps/rDock/src/rDock_2013.1_src/data/scripts/dock_solv.prm

>  <Rbt.Receptor>
prm/pocket_docking_4.prm

>  <SCORE>
-23.9508

>  <SCORE.INTER>
-23.9508

>  <SCORE.INTER.CONST>
1

>  <SCORE.INTER.POLAR>
0

>  <SCORE.INTER.ROT>
0

>  <SCORE.INTER.SOLV>
11.5958

>  <SCORE.INTER.VDW>
-23.4325

>  <SCORE.INTER.norm>
-1.84237

>  <SCORE.INTRA>
0

>  <SCORE.INTRA.DIHEDRAL>
0

>  <SCORE.INTRA.DIHEDRAL.0>
0

>  <SCORE.INTRA.POLAR>
0

>  <SCORE.INTRA.POLAR.0>
0

>  <SCORE.INTRA.REPUL>
0

>  <SCORE.INTRA.REPUL.0>
0

>  <SCORE.INTRA.SOLV>
0

>  <SCORE.INTRA.SOLV.lig_0>
-33.1994

>  <SCORE.INTRA.VDW>
0

>  <SCORE.INTRA.VDW.0>
0

>  <SCORE.INTRA.norm>
0

>  <SCORE.RESTR>
0

>  <SCORE.RESTR.CAVITY>
0

>  <SCORE.RESTR.norm>
0

>  <SCORE.SYSTEM>
0

>  <SCORE.SYSTEM.CONST>
0

>  <SCORE.SYSTEM.DIHEDRAL>
0

>  <SCORE.SYSTEM.SOLV>
0

>  <SCORE.SYSTEM.norm>
0

>  <SCORE.heavy>
13

>  <SCORE.norm>
-1.84237

>  <RMSD>
4.899

$$$$
ligand
 OpenBabel11021811473D
libRbt.so/2013.1/901 2013/11/27
 13 14  0  0  0  0  0  0  0  0999 V2000
   36.4200   32.0662   26.7760 N   0  0  0  0  0  0  0  0  0  0  0  0
   37.5581   33.1604   26.9092 C   0  0  0  0  0  0  0  0  0  0  0  0
   38.4965   33.0344   27.9147 N   0  0  0  0  0  0  0  0  0  0  0  0
   37.4418   34.0743   26.0402 N   0  0  0  0  0  0  0  0  0  0  0  0
   36.5573   34.2422   25.0383 C   0  0  0  0  0  0  0  0  0  0  0  0
   35.5628   33.3533   24.8473 C   0  0  0  0  0  0  0  0  0  0  0  0
   35.4801   32.1285   25.8414 C   0  0  0  0  0  0  0  0  0  0  0  0
   34.6000   31.3500   25.6605 O   0  0  0  0  0  0  0  0  0  0  0  0
   34.6456   33.7307   23.6692 C   0  0  0  0  0  0  0  0  0  0  0  0
   35.1571   34.8651   23.1780 C   0  0  0  0  0  0  0  0  0  0  0  0
   36.2612   35.3377   23.8350 N   0  0  0  0  0  0  0  0  0  0  0  0
   33.4747   32.9630   23.1886 C   0  0  0  0  0  0  0  0  0  0  0  0
   32.5556   32.3376   22.8706 N   0  0  0  0  0  0  0  0  0  0  0  0
  1  2  1  0  0  0  0
  1  7  1  0  0  0  0
  2  3  1  0  0  0  0
  2  4  2  0  0  0  0
  4  5  1  0  0  0  0
  5  6  2  0  0  0  0
  5 11  1  0  0  0  0
  6  7  1  0  0  0  0
  6  9  1  0  0  0  0
  7  8  2  0  0  0  0
  9 10  2  0  0  0  0
  9 12  1  0  0  0  0
 10 11  1  0  0  0  0
 12 13  3  0  0  0  0
M  END
>  <CHROM.1>
35.71341314,33.24026243,25.09837129,0.47513478,0.62581237,2.43415703

>  <Name>
ligand

>  <RI>
0

>  <Rbt.Current_Directory>
/home/itssahil/PROJECTS/Mol_Feturizer/New_Systems/rnas/3GCA

>  <Rbt.Executable>
rbdock ($Id: //depot/dev/client3/rdock/2013.1/src/exe/rbdock.cxx#4 $)

>  <Rbt.Library>
libRbt.so (2013.1, Build901 2013/11/27)

>  <Rbt.Parameter_File>
/export/apps/rDock/src/rDock_2013.1_src/data/scripts/dock_solv.prm

>  <Rbt.Receptor>
prm/pocket_docking_5.prm

>  <SCORE>
-24.0588

>  <SCORE.INTER>
-24.0588

>  <SCORE.INTER.CONST>
1

>  <SCORE.INTER.POLAR>
0

>  <SCORE.INTER.ROT>
0

>  <SCORE.INTER.SOLV>
11.5445

>  <SCORE.INTER.VDW>
-23.4873

>  <SCORE.INTER.norm>
-1.85067

>  <SCORE.INTRA>
0

>  <SCORE.INTRA.DIHEDRAL>
0

>  <SCORE.INTRA.DIHEDRAL.0>
0

>  <SCORE.INTRA.POLAR>
0

>  <SCORE.INTRA.POLAR.0>
0

>  <SCORE.INTRA.REPUL>
0

>  <SCORE.INTRA.REPUL.0>
0

>  <SCORE.INTRA.SOLV>
0

>  <SCORE.INTRA.SOLV.lig_0>
-33.1994

>  <SCORE.INTRA.VDW>
0

>  <SCORE.INTRA.VDW.0>
0

>  <SCORE.INTRA.norm>
0

>  <SCORE.RESTR>
0

>  <SCORE.RESTR.CAVITY>
0

>  <SCORE.RESTR.norm>
0

>  <SCORE.SYSTEM>
0

>  <SCORE.SYSTEM.CONST>
0

>  <SCORE.SYSTEM.DIHEDRAL>
0

>  <SCORE.SYSTEM.SOLV>
0

>  <SCORE.SYSTEM.norm>
0

>  <SCORE.heavy>
13

>  <SCORE.norm>
-1.85067

>  <RMSD>
4.899

$$$$
ligand
 OpenBabel11021811473D
libRbt.so/2013.1/901 2013/11/27
 13 14  0  0  0  0  0  0  0  0999 V2000
   36.4809   32.0795   26.7592 N   0  0  0  0  0  0  0  0  0  0  0  0
   37.6085   33.1831   26.9041 C   0  0  0  0  0  0  0  0  0  0  0  0
   38.5536   33.0505   27.9025 N   0  0  0  0  0  0  0  0  0  0  0  0
   37.4782   34.1096   26.0506 N   0  0  0  0  0  0  0  0  0  0  0  0
   36.5867   34.2845   25.0562 C   0  0  0  0  0  0  0  0  0  0  0  0
   35.6002   33.3886   24.8561 C   0  0  0  0  0  0  0  0  0  0  0  0
   35.5354   32.1473   25.8307 C   0  0  0  0  0  0  0  0  0  0  0  0
   34.6622   31.3627   25.6419 O   0  0  0  0  0  0  0  0  0  0  0  0
   34.6729   33.7755   23.6890 C   0  0  0  0  0  0  0  0  0  0  0  0
   35.1702   34.9228   23.2136 C   0  0  0  0  0  0  0  0  0  0  0  0
   36.2730   35.3961   23.8723 N   0  0  0  0  0  0  0  0  0  0  0  0
   33.5073   33.0037   23.2023 C   0  0  0  0  0  0  0  0  0  0  0  0
   32.5929   32.3741   22.8791 N   0  0  0  0  0  0  0  0  0  0  0  0
  1  2  1  0  0  0  0
  1  7  1  0  0  0  0
  2  3  1  0  0  0  0
  2  4  2  0  0  0  0
  4  5  1  0  0  0  0
  5  6  2  0  0  0  0
  5 11  1  0  0  0  0
  6  7  1  0  0  0  0
  6  9  1  0  0  0  0
  7  8  2  0  0  0  0
  9 10  2  0  0  0  0
  9 12  1  0  0  0  0
 10 11  1  0  0  0  0
 12 13  3  0  0  0  0
M  END
>  <CHROM.1>
35.75336110,33.27311808,25.10451305,0.46124135,0.62824701,2.45841059

>  <Name>
ligand

>  <RI>
0

>  <Rbt.Current_Directory>
/home/itssahil/PROJECTS/Mol_Feturizer/New_Systems/rnas/3GCA

>  <Rbt.Executable>
rbdock ($Id: //depot/dev/client3/rdock/2013.1/src/exe/rbdock.cxx#4 $)

>  <Rbt.Library>
libRbt.so (2013.1, Build901 2013/11/27)

>  <Rbt.Parameter_File>
/export/apps/rDock/src/rDock_2013.1_src/data/scripts/dock_solv.prm

>  <Rbt.Receptor>
prm/pocket_docking_6.prm

>  <SCORE>
-24.0377

>  <SCORE.INTER>
-24.0377

>  <SCORE.INTER.CONST>
1

>  <SCORE.INTER.POLAR>
0

>  <SCORE.INTER.ROT>
0

>  <SCORE.INTER.SOLV>
11.2707

>  <SCORE.INTER.VDW>
-23.382

>  <SCORE.INTER.norm>
-1.84905

>  <SCORE.INTRA>
0

>  <SCORE.INTRA.DIHEDRAL>
0

>  <SCORE.INTRA.DIHEDRAL.0>
0

>  <SCORE.INTRA.POLAR>
0

>  <SCORE.INTRA.POLAR.0>
0

>  <SCORE.INTRA.REPUL>
0

>  <SCORE.INTRA.REPUL.0>
0

>  <SCORE.INTRA.SOLV>
0

>  <SCORE.INTRA.SOLV.lig_0>
-33.1994

>  <SCORE.INTRA.VDW>
0

>  <SCORE.INTRA.VDW.0>
0

>  <SCORE.INTRA.norm>
0

>  <SCORE.RESTR>
0

>  <SCORE.RESTR.CAVITY>
0

>  <SCORE.RESTR.norm>
0

>  <SCORE.SYSTEM>
0

>  <SCORE.SYSTEM.CONST>
0

>  <SCORE.SYSTEM.DIHEDRAL>
0

>  <SCORE.SYSTEM.SOLV>
0

>  <SCORE.SYSTEM.norm>
0

>  <SCORE.heavy>
13

>  <SCORE.norm>
-1.84905

>  <RMSD>
4.899

$$$$
ligand
 OpenBabel11021811473D
libRbt.so/2013.1/901 2013/11/27
 13 14  0  0  0  0  0  0  0  0999 V2000
   36.4823   32.0757   26.7539 N   0  0  0  0  0  0  0  0  0  0  0  0
   37.6078   33.1809   26.9023 C   0  0  0  0  0  0  0  0  0  0  0  0
   38.5526   33.0473   27.9009 N   0  0  0  0  0  0  0  0  0  0  0  0
   37.4764   34.1095   26.0512 N   0  0  0  0  0  0  0  0  0  0  0  0
   36.5851   34.2854   25.0568 C   0  0  0  0  0  0  0  0  0  0  0  0
   35.6003   33.3883   24.8537 C   0  0  0  0  0  0  0  0  0  0  0  0
   35.5372   32.1442   25.8250 C   0  0  0  0  0  0  0  0  0  0  0  0
   34.6655   31.3586   25.6336 O   0  0  0  0  0  0  0  0  0  0  0  0
   34.6730   33.7767   23.6872 C   0  0  0  0  0  0  0  0  0  0  0  0
   35.1685   34.9261   23.2151 C   0  0  0  0  0  0  0  0  0  0  0  0
   36.2700   35.3996   23.8756 N   0  0  0  0  0  0  0  0  0  0  0  0
   33.5090   33.0040   23.1977 C   0  0  0  0  0  0  0  0  0  0  0  0
   32.5959   32.3737   22.8723 N   0  0  0  0  0  0  0  0  0  0  0  0
  1  2  1  0  0  0  0
  1  7  1  0  0  0  0
  2  3  1  0  0  0  0
  2  4  2  0  0  0  0
  4  5  1  0  0  0  0
  5  6  2  0  0  0  0
  5 11  1  0  0  0  0
  6  7  1  0  0  0  0
  6  9  1  0  0  0  0
  7  8  2  0  0  0  0
  9 10  2  0  0  0  0
  9 12  1  0  0  0  0
 10 11  1  0  0  0  0
 12 13  3  0  0  0  0
M  END
>  <CHROM.1>
35.75353091,33.27242463,25.10192087,0.45996309,0.62982491,2.46183688

>  <Name>
ligand

>  <RI>
0

>  <Rbt.Current_Directory>
/home/itssahil/PROJECTS/Mol_Feturizer/New_Systems/rnas/3GCA

>  <Rbt.Executable>
rbdock ($Id: //depot/dev/client3/rdock/2013.1/src/exe/rbdock.cxx#4 $)

>  <Rbt.Library>
libRbt.so (2013.1, Build901 2013/11/27)

>  <Rbt.Parameter_File>
/export/apps/rDock/src/rDock_2013.1_src/data/scripts/dock_solv.prm

>  <Rbt.Receptor>
prm/pocket_docking_8.prm

>  <SCORE>
-24.0353

>  <SCORE.INTER>
-24.0353

>  <SCORE.INTER.CONST>
1

>  <SCORE.INTER.POLAR>
0

>  <SCORE.INTER.ROT>
0

>  <SCORE.INTER.SOLV>
11.2772

>  <SCORE.INTER.VDW>
-23.3826

>  <SCORE.INTER.norm>
-1.84887

>  <SCORE.INTRA>
0

>  <SCORE.INTRA.DIHEDRAL>
0

>  <SCORE.INTRA.DIHEDRAL.0>
0

>  <SCORE.INTRA.POLAR>
0

>  <SCORE.INTRA.POLAR.0>
0

>  <SCORE.INTRA.REPUL>
0

>  <SCORE.INTRA.REPUL.0>
0

>  <SCORE.INTRA.SOLV>
0

>  <SCORE.INTRA.SOLV.lig_0>
-33.1994

>  <SCORE.INTRA.VDW>
0

>  <SCORE.INTRA.VDW.0>
0

>  <SCORE.INTRA.norm>
0

>  <SCORE.RESTR>
0

>  <SCORE.RESTR.CAVITY>
0

>  <SCORE.RESTR.norm>
0

>  <SCORE.SYSTEM>
0

>  <SCORE.SYSTEM.CONST>
0

>  <SCORE.SYSTEM.DIHEDRAL>
0

>  <SCORE.SYSTEM.SOLV>
0

>  <SCORE.SYSTEM.norm>
0

>  <SCORE.heavy>
13

>  <SCORE.norm>
-1.84887

>  <RMSD>
4.899

$$$$
ligand
 OpenBabel11021811473D
libRbt.so/2013.1/901 2013/11/27
 13 14  0  0  0  0  0  0  0  0999 V2000
   36.4296   32.0540   26.7712 N   0  0  0  0  0  0  0  0  0  0  0  0
   37.5679   33.1480   26.9044 C   0  0  0  0  0  0  0  0  0  0  0  0
   38.5093   33.0190   27.9067 N   0  0  0  0  0  0  0  0  0  0  0  0
   37.4489   34.0645   26.0386 N   0  0  0  0  0  0  0  0  0  0  0  0
   36.5614   34.2353   25.0398 C   0  0  0  0  0  0  0  0  0  0  0  0
   35.5665   33.3468   24.8490 C   0  0  0  0  0  0  0  0  0  0  0  0
   35.4869   32.1190   25.8396 C   0  0  0  0  0  0  0  0  0  0  0  0
   34.6064   31.3409   25.6589 O   0  0  0  0  0  0  0  0  0  0  0  0
   34.6458   33.7277   23.6748 C   0  0  0  0  0  0  0  0  0  0  0  0
   35.1557   34.8636   23.1856 C   0  0  0  0  0  0  0  0  0  0  0  0
   36.2616   35.3345   23.8407 N   0  0  0  0  0  0  0  0  0  0  0  0
   33.4736   32.9613   23.1953 C   0  0  0  0  0  0  0  0  0  0  0  0
   32.5537   32.3367   22.8782 N   0  0  0  0  0  0  0  0  0  0  0  0
  1  2  1  0  0  0  0
  1  7  1  0  0  0  0
  2  3  1  0  0  0  0
  2  4  2  0  0  0  0
  4  5  1  0  0  0  0
  5  6  2  0  0  0  0
  5 11  1  0  0  0  0
  6  7  1  0  0  0  0
  6  9  1  0  0  0  0
  7  8  2  0  0  0  0
  9 10  2  0  0  0  0
  9 12  1  0  0  0  0
 10 11  1  0  0  0  0
 12 13  3  0  0  0  0
M  END
>  <CHROM.1>
35.71788594,33.23306169,25.09930189,0.47262493,0.62366894,2.43869237

>  <Name>
ligand

>  <RI>
0

>  <Rbt.Current_Directory>
/home/itssahil/PROJECTS/Mol_Feturizer/New_Systems/rnas/3GCA

>  <Rbt.Executable>
rbdock ($Id: //depot/dev/client3/rdock/2013.1/src/exe/rbdock.cxx#4 $)

>  <Rbt.Library>
libRbt.so (2013.1, Build901 2013/11/27)

>  <Rbt.Parameter_File>
/export/apps/rDock/src/rDock_2013.1_src/data/scripts/dock_solv.prm

>  <Rbt.Receptor>
prm/blind_docking_100.prm

>  <SCORE>
-24.0573

>  <SCORE.INTER>
-24.0573

>  <SCORE.INTER.CONST>
1

>  <SCORE.INTER.POLAR>
0

>  <SCORE.INTER.ROT>
0

>  <SCORE.INTER.SOLV>
11.4952

>  <SCORE.INTER.VDW>
-23.4699

>  <SCORE.INTER.norm>
-1.85056

>  <SCORE.INTRA>
0

>  <SCORE.INTRA.DIHEDRAL>
0

>  <SCORE.INTRA.DIHEDRAL.0>
0

>  <SCORE.INTRA.POLAR>
0

>  <SCORE.INTRA.POLAR.0>
0

>  <SCORE.INTRA.REPUL>
0

>  <SCORE.INTRA.REPUL.0>
0

>  <SCORE.INTRA.SOLV>
0

>  <SCORE.INTRA.SOLV.lig_0>
-33.1994

>  <SCORE.INTRA.VDW>
0

>  <SCORE.INTRA.VDW.0>
0

>  <SCORE.INTRA.norm>
0

>  <SCORE.RESTR>
0

>  <SCORE.RESTR.CAVITY>
0

>  <SCORE.RESTR.norm>
0

>  <SCORE.SYSTEM>
0

>  <SCORE.SYSTEM.CONST>
0

>  <SCORE.SYSTEM.DIHEDRAL>
0

>  <SCORE.SYSTEM.SOLV>
0

>  <SCORE.SYSTEM.norm>
0

>  <SCORE.heavy>
13

>  <SCORE.norm>
-1.85056

>  <RMSD>
4.900

$$$$
ligand
 OpenBabel11021811473D
libRbt.so/2013.1/901 2013/11/27
 13 14  0  0  0  0  0  0  0  0999 V2000
   36.4290   32.0397   26.7602 N   0  0  0  0  0  0  0  0  0  0  0  0
   37.5592   33.1412   26.9005 C   0  0  0  0  0  0  0  0  0  0  0  0
   38.4978   33.0160   27.9059 N   0  0  0  0  0  0  0  0  0  0  0  0
   37.4371   34.0592   26.0366 N   0  0  0  0  0  0  0  0  0  0  0  0
   36.5522   34.2265   25.0350 C   0  0  0  0  0  0  0  0  0  0  0  0
   35.5642   33.3317   24.8382 C   0  0  0  0  0  0  0  0  0  0  0  0
   35.4894   32.1007   25.8252 C   0  0  0  0  0  0  0  0  0  0  0  0
   34.6150   31.3170   25.6392 O   0  0  0  0  0  0  0  0  0  0  0  0
   34.6452   33.7093   23.6615 C   0  0  0  0  0  0  0  0  0  0  0  0
   35.1490   34.8500   23.1772 C   0  0  0  0  0  0  0  0  0  0  0  0
   36.2493   35.3267   23.8377 N   0  0  0  0  0  0  0  0  0  0  0  0
   33.4801   32.9360   23.1757 C   0  0  0  0  0  0  0  0  0  0  0  0
   32.5657   32.3060   22.8535 N   0  0  0  0  0  0  0  0  0  0  0  0
  1  2  1  0  0  0  0
  1  7  1  0  0  0  0
  2  3  1  0  0  0  0
  2  4  2  0  0  0  0
  4  5  1  0  0  0  0
  5  6  2  0  0  0  0
  5 11  1  0  0  0  0
  6  7  1  0  0  0  0
  6  9  1  0  0  0  0
  7  8  2  0  0  0  0
  9 10  2  0  0  0  0
  9 12  1  0  0  0  0
 10 11  1  0  0  0  0
 12 13  3  0  0  0  0
M  END
>  <CHROM.1>
35.71540093,33.21827514,25.08872540,0.46906142,0.63095929,2.44342274

>  <Name>
ligand

>  <RI>
0

>  <Rbt.Current_Directory>
/home/itssahil/PROJECTS/Mol_Feturizer/New_Systems/rnas/3GCA

>  <Rbt.Executable>
rbdock ($Id: //depot/dev/client3/rdock/2013.1/src/exe/rbdock.cxx#4 $)

>  <Rbt.Library>
libRbt.so (2013.1, Build901 2013/11/27)

>  <Rbt.Parameter_File>
/export/apps/rDock/src/rDock_2013.1_src/data/scripts/dock_solv.prm

>  <Rbt.Receptor>
prm/blind_docking_60.prm

>  <SCORE>
-24.0241

>  <SCORE.INTER>
-24.0241

>  <SCORE.INTER.CONST>
1

>  <SCORE.INTER.POLAR>
0

>  <SCORE.INTER.ROT>
0

>  <SCORE.INTER.SOLV>
11.5553

>  <SCORE.INTER.VDW>
-23.4678

>  <SCORE.INTER.norm>
-1.84801

>  <SCORE.INTRA>
0

>  <SCORE.INTRA.DIHEDRAL>
0

>  <SCORE.INTRA.DIHEDRAL.0>
0

>  <SCORE.INTRA.POLAR>
0

>  <SCORE.INTRA.POLAR.0>
0

>  <SCORE.INTRA.REPUL>
0

>  <SCORE.INTRA.REPUL.0>
0

>  <SCORE.INTRA.SOLV>
0

>  <SCORE.INTRA.SOLV.lig_0>
-33.1994

>  <SCORE.INTRA.VDW>
0

>  <SCORE.INTRA.VDW.0>
0

>  <SCORE.INTRA.norm>
0

>  <SCORE.RESTR>
0

>  <SCORE.RESTR.CAVITY>
0

>  <SCORE.RESTR.norm>
0

>  <SCORE.SYSTEM>
0

>  <SCORE.SYSTEM.CONST>
0

>  <SCORE.SYSTEM.DIHEDRAL>
0

>  <SCORE.SYSTEM.SOLV>
0

>  <SCORE.SYSTEM.norm>
0

>  <SCORE.heavy>
13

>  <SCORE.norm>
-1.84801

>  <RMSD>
4.900

$$$$
ligand
 OpenBabel11021811473D
libRbt.so/2013.1/901 2013/11/27
 13 14  0  0  0  0  0  0  0  0999 V2000
   36.4489   32.0431   26.7648 N   0  0  0  0  0  0  0  0  0  0  0  0
   37.5742   33.1488   26.9106 C   0  0  0  0  0  0  0  0  0  0  0  0
   38.5179   33.0188   27.9107 N   0  0  0  0  0  0  0  0  0  0  0  0
   37.4438   34.0743   26.0561 N   0  0  0  0  0  0  0  0  0  0  0  0
   36.5537   34.2467   25.0600 C   0  0  0  0  0  0  0  0  0  0  0  0
   35.5692   33.3489   24.8590 C   0  0  0  0  0  0  0  0  0  0  0  0
   35.5048   32.1083   25.8345 C   0  0  0  0  0  0  0  0  0  0  0  0
   34.6334   31.3220   25.6449 O   0  0  0  0  0  0  0  0  0  0  0  0
   34.6432   33.7332   23.6900 C   0  0  0  0  0  0  0  0  0  0  0  0
   35.1392   34.8809   23.2143 C   0  0  0  0  0  0  0  0  0  0  0  0
   36.2400   35.3568   23.8745 N   0  0  0  0  0  0  0  0  0  0  0  0
   33.4797   32.9588   23.2019 C   0  0  0  0  0  0  0  0  0  0  0  0
   32.5670   32.3273   22.8777 N   0  0  0  0  0  0  0  0  0  0  0  0
  1  2  1  0  0  0  0
  1  7  1  0  0  0  0
  2  3  1  0  0  0  0
  2  4  2  0  0  0  0
  4  5  1  0  0  0  0
  5  6  2  0  0  0  0
  5 11  1  0  0  0  0
  6  7  1  0  0  0  0
  6  9  1  0  0  0  0
  7  8  2  0  0  0  0
  9 10  2  0  0  0  0
  9 12  1  0  0  0  0
 10 11  1  0  0  0  0
 12 13  3  0  0  0  0
M  END
>  <CHROM.1>
35.72205291,33.23392019,25.10773929,0.46087448,0.63072737,2.45775741

>  <Name>
ligand

>  <RI>
0

>  <Rbt.Current_Directory>
/home/itssahil/PROJECTS/Mol_Feturizer/New_Systems/rnas/3GCA

>  <Rbt.Executable>
rbdock ($Id: //depot/dev/client3/rdock/2013.1/src/exe/rbdock.cxx#4 $)

>  <Rbt.Library>
libRbt.so (2013.1, Build901 2013/11/27)

>  <Rbt.Parameter_File>
/export/apps/rDock/src/rDock_2013.1_src/data/scripts/dock_solv.prm

>  <Rbt.Receptor>
prm/blind_docking_80.prm

>  <SCORE>
-24.0114

>  <SCORE.INTER>
-24.0114

>  <SCORE.INTER.CONST>
1

>  <SCORE.INTER.POLAR>
0

>  <SCORE.INTER.ROT>
0

>  <SCORE.INTER.SOLV>
11.4757

>  <SCORE.INTER.VDW>
-23.4328

>  <SCORE.INTER.norm>
-1.84703

>  <SCORE.INTRA>
0

>  <SCORE.INTRA.DIHEDRAL>
0

>  <SCORE.INTRA.DIHEDRAL.0>
0

>  <SCORE.INTRA.POLAR>
0

>  <SCORE.INTRA.POLAR.0>
0

>  <SCORE.INTRA.REPUL>
0

>  <SCORE.INTRA.REPUL.0>
0

>  <SCORE.INTRA.SOLV>
0

>  <SCORE.INTRA.SOLV.lig_0>
-33.1994

>  <SCORE.INTRA.VDW>
0

>  <SCORE.INTRA.VDW.0>
0

>  <SCORE.INTRA.norm>
0

>  <SCORE.RESTR>
0

>  <SCORE.RESTR.CAVITY>
0

>  <SCORE.RESTR.norm>
0

>  <SCORE.SYSTEM>
0

>  <SCORE.SYSTEM.CONST>
0

>  <SCORE.SYSTEM.DIHEDRAL>
0

>  <SCORE.SYSTEM.SOLV>
0

>  <SCORE.SYSTEM.norm>
0

>  <SCORE.heavy>
13

>  <SCORE.norm>
-1.84703

>  <RMSD>
4.900

$$$$
ligand
 OpenBabel11021811473D
libRbt.so/2013.1/901 2013/11/27
 13 14  0  0  0  0  0  0  0  0999 V2000
   36.4286   32.0439   26.7628 N   0  0  0  0  0  0  0  0  0  0  0  0
   37.5595   33.1448   26.9023 C   0  0  0  0  0  0  0  0  0  0  0  0
   38.4972   33.0204   27.9087 N   0  0  0  0  0  0  0  0  0  0  0  0
   37.4388   34.0615   26.0370 N   0  0  0  0  0  0  0  0  0  0  0  0
   36.5548   34.2280   25.0344 C   0  0  0  0  0  0  0  0  0  0  0  0
   35.5662   33.3336   24.8381 C   0  0  0  0  0  0  0  0  0  0  0  0
   35.4898   32.1042   25.8270 C   0  0  0  0  0  0  0  0  0  0  0  0
   34.6149   31.3208   25.6415 O   0  0  0  0  0  0  0  0  0  0  0  0
   34.6485   33.7101   23.6602 C   0  0  0  0  0  0  0  0  0  0  0  0
   35.1535   34.8497   23.1745 C   0  0  0  0  0  0  0  0  0  0  0  0
   36.2536   35.3266   23.8352 N   0  0  0  0  0  0  0  0  0  0  0  0
   33.4832   32.9370   23.1746 C   0  0  0  0  0  0  0  0  0  0  0  0
   32.5686   32.3071   22.8526 N   0  0  0  0  0  0  0  0  0  0  0  0
  1  2  1  0  0  0  0
  1  7  1  0  0  0  0
  2  3  1  0  0  0  0
  2  4  2  0  0  0  0
  4  5  1  0  0  0  0
  5  6  2  0  0  0  0
  5 11  1  0  0  0  0
  6  7  1  0  0  0  0
  6  9  1  0  0  0  0
  7  8  2  0  0  0  0
  9 10  2  0  0  0  0
  9 12  1  0  0  0  0
 10 11  1  0  0  0  0
 12 13  3  0  0  0  0
M  END
>  <CHROM.1>
35.71717650,33.22046222,25.08896863,0.47039371,0.63108616,2.44111004

>  <Name>
ligand

>  <RI>
0

>  <Rbt.Current_Directory>
/home/itssahil/PROJECTS/Mol_Feturizer/New_Systems/rnas/3GCA

>  <Rbt.Executable>
rbdock ($Id: //depot/dev/client3/rdock/2013.1/src/exe/rbdock.cxx#4 $)

>  <Rbt.Library>
libRbt.so (2013.1, Build901 2013/11/27)

>  <Rbt.Parameter_File>
/export/apps/rDock/src/rDock_2013.1_src/data/scripts/dock_solv.prm

>  <Rbt.Receptor>
prm/pocket_docking_3.prm

>  <SCORE>
-24.0261

>  <SCORE.INTER>
-24.0261

>  <SCORE.INTER.CONST>
1

>  <SCORE.INTER.POLAR>
0

>  <SCORE.INTER.ROT>
0

>  <SCORE.INTER.SOLV>
11.5554

>  <SCORE.INTER.VDW>
-23.4692

>  <SCORE.INTER.norm>
-1.84816

>  <SCORE.INTRA>
0

>  <SCORE.INTRA.DIHEDRAL>
0

>  <SCORE.INTRA.DIHEDRAL.0>
0

>  <SCORE.INTRA.POLAR>
0

>  <SCORE.INTRA.POLAR.0>
0

>  <SCORE.INTRA.REPUL>
0

>  <SCORE.INTRA.REPUL.0>
0

>  <SCORE.INTRA.SOLV>
0

>  <SCORE.INTRA.SOLV.lig_0>
-33.1994

>  <SCORE.INTRA.VDW>
0

>  <SCORE.INTRA.VDW.0>
0

>  <SCORE.INTRA.norm>
0

>  <SCORE.RESTR>
0

>  <SCORE.RESTR.CAVITY>
0

>  <SCORE.RESTR.norm>
0

>  <SCORE.SYSTEM>
0

>  <SCORE.SYSTEM.CONST>
0

>  <SCORE.SYSTEM.DIHEDRAL>
0

>  <SCORE.SYSTEM.SOLV>
0

>  <SCORE.SYSTEM.norm>
0

>  <SCORE.heavy>
13

>  <SCORE.norm>
-1.84816

>  <RMSD>
4.900

$$$$
ligand
 OpenBabel11021811473D
libRbt.so/2013.1/901 2013/11/27
 13 14  0  0  0  0  0  0  0  0999 V2000
   36.4146   32.0433   26.7608 N   0  0  0  0  0  0  0  0  0  0  0  0
   37.5561   33.1345   26.8894 C   0  0  0  0  0  0  0  0  0  0  0  0
   38.4957   33.0082   27.8939 N   0  0  0  0  0  0  0  0  0  0  0  0
   37.4413   34.0464   26.0182 N   0  0  0  0  0  0  0  0  0  0  0  0
   36.5559   34.2143   25.0172 C   0  0  0  0  0  0  0  0  0  0  0  0
   35.5584   33.3279   24.8300 C   0  0  0  0  0  0  0  0  0  0  0  0
   35.4735   32.1060   25.8274 C   0  0  0  0  0  0  0  0  0  0  0  0
   34.5908   31.3296   25.6499 O   0  0  0  0  0  0  0  0  0  0  0  0
   34.6406   33.7050   23.6522 C   0  0  0  0  0  0  0  0  0  0  0  0
   35.1548   34.8364   23.1573 C   0  0  0  0  0  0  0  0  0  0  0  0
   36.2613   35.3075   23.8114 N   0  0  0  0  0  0  0  0  0  0  0  0
   33.4667   32.9395   23.1754 C   0  0  0  0  0  0  0  0  0  0  0  0
   32.5453   32.3160   22.8605 N   0  0  0  0  0  0  0  0  0  0  0  0
  1  2  1  0  0  0  0
  1  7  1  0  0  0  0
  2  3  1  0  0  0  0
  2  4  2  0  0  0  0
  4  5  1  0  0  0  0
  5  6  2  0  0  0  0
  5 11  1  0  0  0  0
  6  7  1  0  0  0  0
  6  9  1  0  0  0  0
  7  8  2  0  0  0  0
  9 10  2  0  0  0  0
  9 12  1  0  0  0  0
 10 11  1  0  0  0  0
 12 13  3  0  0  0  0
M  END
>  <CHROM.1>
35.70906641,33.21505508,25.08114788,0.47677291,0.62273413,2.43055913

>  <Name>
ligand

>  <RI>
0

>  <Rbt.Current_Directory>
/home/itssahil/PROJECTS/Mol_Feturizer/New_Systems/rnas/3GCA

>  <Rbt.Executable>
rbdock ($Id: //depot/dev/client3/rdock/2013.1/src/exe/rbdock.cxx#4 $)

>  <Rbt.Library>
libRbt.so (2013.1, Build901 2013/11/27)

>  <Rbt.Parameter_File>
/export/apps/rDock/src/rDock_2013.1_src/data/scripts/dock_solv.prm

>  <Rbt.Receptor>
prm/pocket_docking_3.prm

>  <SCORE>
-24.0334

>  <SCORE.INTER>
-24.0334

>  <SCORE.INTER.CONST>
1

>  <SCORE.INTER.POLAR>
0

>  <SCORE.INTER.ROT>
0

>  <SCORE.INTER.SOLV>
11.5503

>  <SCORE.INTER.VDW>
-23.4724

>  <SCORE.INTER.norm>
-1.84873

>  <SCORE.INTRA>
0

>  <SCORE.INTRA.DIHEDRAL>
0

>  <SCORE.INTRA.DIHEDRAL.0>
0

>  <SCORE.INTRA.POLAR>
0

>  <SCORE.INTRA.POLAR.0>
0

>  <SCORE.INTRA.REPUL>
0

>  <SCORE.INTRA.REPUL.0>
0

>  <SCORE.INTRA.SOLV>
0

>  <SCORE.INTRA.SOLV.lig_0>
-33.1994

>  <SCORE.INTRA.VDW>
0

>  <SCORE.INTRA.VDW.0>
0

>  <SCORE.INTRA.norm>
0

>  <SCORE.RESTR>
0

>  <SCORE.RESTR.CAVITY>
0

>  <SCORE.RESTR.norm>
0

>  <SCORE.SYSTEM>
0

>  <SCORE.SYSTEM.CONST>
0

>  <SCORE.SYSTEM.DIHEDRAL>
0

>  <SCORE.SYSTEM.SOLV>
0

>  <SCORE.SYSTEM.norm>
0

>  <SCORE.heavy>
13

>  <SCORE.norm>
-1.84873

>  <RMSD>
4.900

$$$$
ligand
 OpenBabel11021811473D
libRbt.so/2013.1/901 2013/11/27
 13 14  0  0  0  0  0  0  0  0999 V2000
   36.4179   32.0804   26.7849 N   0  0  0  0  0  0  0  0  0  0  0  0
   37.5566   33.1744   26.9142 C   0  0  0  0  0  0  0  0  0  0  0  0
   38.4940   33.0524   27.9213 N   0  0  0  0  0  0  0  0  0  0  0  0
   37.4419   34.0843   26.0409 N   0  0  0  0  0  0  0  0  0  0  0  0
   36.5586   34.2481   25.0373 C   0  0  0  0  0  0  0  0  0  0  0  0
   35.5636   33.3590   24.8494 C   0  0  0  0  0  0  0  0  0  0  0  0
   35.4791   32.1390   25.8491 C   0  0  0  0  0  0  0  0  0  0  0  0
   34.5986   31.3602   25.6709 O   0  0  0  0  0  0  0  0  0  0  0  0
   34.6480   33.7316   23.6685 C   0  0  0  0  0  0  0  0  0  0  0  0
   35.1608   34.8633   23.1726 C   0  0  0  0  0  0  0  0  0  0  0  0
   36.2645   35.3382   23.8285 N   0  0  0  0  0  0  0  0  0  0  0  0
   33.4770   32.9625   23.1903 C   0  0  0  0  0  0  0  0  0  0  0  0
   32.5578   32.3362   22.8743 N   0  0  0  0  0  0  0  0  0  0  0  0
  1  2  1  0  0  0  0
  1  7  1  0  0  0  0
  2  3  1  0  0  0  0
  2  4  2  0  0  0  0
  4  5  1  0  0  0  0
  5  6  2  0  0  0  0
  5 11  1  0  0  0  0
  6  7  1  0  0  0  0
  6  9  1  0  0  0  0
  7  8  2  0  0  0  0
  9 10  2  0  0  0  0
  9 12  1  0  0  0  0
 10 11  1  0  0  0  0
 12 13  3  0  0  0  0
M  END
>  <CHROM.1>
35.71393180,33.24707475,25.10112416,0.47663980,0.62613808,2.42860321

>  <Name>
ligand

>  <RI>
0

>  <Rbt.Current_Directory>
/home/itssahil/PROJECTS/Mol_Feturizer/New_Systems/rnas/3GCA

>  <Rbt.Executable>
rbdock ($Id: //depot/dev/client3/rdock/2013.1/src/exe/rbdock.cxx#4 $)

>  <Rbt.Library>
libRbt.so (2013.1, Build901 2013/11/27)

>  <Rbt.Parameter_File>
/export/apps/rDock/src/rDock_2013.1_src/data/scripts/dock_solv.prm

>  <Rbt.Receptor>
prm/pocket_docking_4.prm

>  <SCORE>
-24.0614

>  <SCORE.INTER>
-24.0614

>  <SCORE.INTER.CONST>
1

>  <SCORE.INTER.POLAR>
0

>  <SCORE.INTER.ROT>
0

>  <SCORE.INTER.SOLV>
11.5482

>  <SCORE.INTER.VDW>
-23.4904

>  <SCORE.INTER.norm>
-1.85088

>  <SCORE.INTRA>
0

>  <SCORE.INTRA.DIHEDRAL>
0

>  <SCORE.INTRA.DIHEDRAL.0>
0

>  <SCORE.INTRA.POLAR>
0

>  <SCORE.INTRA.POLAR.0>
0

>  <SCORE.INTRA.REPUL>
0

>  <SCORE.INTRA.REPUL.0>
0

>  <SCORE.INTRA.SOLV>
0

>  <SCORE.INTRA.SOLV.lig_0>
-33.1994

>  <SCORE.INTRA.VDW>
0

>  <SCORE.INTRA.VDW.0>
0

>  <SCORE.INTRA.norm>
0

>  <SCORE.RESTR>
0

>  <SCORE.RESTR.CAVITY>
0

>  <SCORE.RESTR.norm>
0

>  <SCORE.SYSTEM>
0

>  <SCORE.SYSTEM.CONST>
0

>  <SCORE.SYSTEM.DIHEDRAL>
0

>  <SCORE.SYSTEM.SOLV>
0

>  <SCORE.SYSTEM.norm>
0

>  <SCORE.heavy>
13

>  <SCORE.norm>
-1.85088

>  <RMSD>
4.900

$$$$
ligand
 OpenBabel11021811473D
libRbt.so/2013.1/901 2013/11/27
 13 14  0  0  0  0  0  0  0  0999 V2000
   36.4375   32.0434   26.7665 N   0  0  0  0  0  0  0  0  0  0  0  0
   37.5684   33.1439   26.9087 C   0  0  0  0  0  0  0  0  0  0  0  0
   38.5089   33.0146   27.9118 N   0  0  0  0  0  0  0  0  0  0  0  0
   37.4450   34.0652   26.0485 N   0  0  0  0  0  0  0  0  0  0  0  0
   36.5582   34.2366   25.0493 C   0  0  0  0  0  0  0  0  0  0  0  0
   35.5694   33.3429   24.8510 C   0  0  0  0  0  0  0  0  0  0  0  0
   35.4961   32.1083   25.8336 C   0  0  0  0  0  0  0  0  0  0  0  0
   34.6210   31.3256   25.6463 O   0  0  0  0  0  0  0  0  0  0  0  0
   34.6483   33.7253   23.6776 C   0  0  0  0  0  0  0  0  0  0  0  0
   35.1516   34.8676   23.1966 C   0  0  0  0  0  0  0  0  0  0  0  0
   36.2533   35.3414   23.8567 N   0  0  0  0  0  0  0  0  0  0  0  0
   33.4819   32.9543   23.1911 C   0  0  0  0  0  0  0  0  0  0  0  0
   32.5667   32.3258   22.8683 N   0  0  0  0  0  0  0  0  0  0  0  0
  1  2  1  0  0  0  0
  1  7  1  0  0  0  0
  2  3  1  0  0  0  0
  2  4  2  0  0  0  0
  4  5  1  0  0  0  0
  5  6  2  0  0  0  0
  5 11  1  0  0  0  0
  6  7  1  0  0  0  0
  6  9  1  0  0  0  0
  7  8  2  0  0  0  0
  9 10  2  0  0  0  0
  9 12  1  0  0  0  0
 10 11  1  0  0  0  0
 12 13  3  0  0  0  0
M  END
>  <CHROM.1>
35.72108680,33.22850611,25.10083074,0.46787750,0.62921029,2.44787112

>  <Name>
ligand

>  <RI>
0

>  <Rbt.Current_Directory>
/home/itssahil/PROJECTS/Mol_Feturizer/New_Systems/rnas/3GCA

>  <Rbt.Executable>
rbdock ($Id: //depot/dev/client3/rdock/2013.1/src/exe/rbdock.cxx#4 $)

>  <Rbt.Library>
libRbt.so (2013.1, Build901 2013/11/27)

>  <Rbt.Parameter_File>
/export/apps/rDock/src/rDock_2013.1_src/data/scripts/dock_solv.prm

>  <Rbt.Receptor>
prm/pocket_docking_5.prm

>  <SCORE>
-24.0041

>  <SCORE.INTER>
-24.0041

>  <SCORE.INTER.CONST>
1

>  <SCORE.INTER.POLAR>
0

>  <SCORE.INTER.ROT>
0

>  <SCORE.INTER.SOLV>
11.5104

>  <SCORE.INTER.VDW>
-23.4395

>  <SCORE.INTER.norm>
-1.84647

>  <SCORE.INTRA>
0

>  <SCORE.INTRA.DIHEDRAL>
0

>  <SCORE.INTRA.DIHEDRAL.0>
0

>  <SCORE.INTRA.POLAR>
0

>  <SCORE.INTRA.POLAR.0>
0

>  <SCORE.INTRA.REPUL>
0

>  <SCORE.INTRA.REPUL.0>
0

>  <SCORE.INTRA.SOLV>
0

>  <SCORE.INTRA.SOLV.lig_0>
-33.1994

>  <SCORE.INTRA.VDW>
0

>  <SCORE.INTRA.VDW.0>
0

>  <SCORE.INTRA.norm>
0

>  <SCORE.RESTR>
0

>  <SCORE.RESTR.CAVITY>
0

>  <SCORE.RESTR.norm>
0

>  <SCORE.SYSTEM>
0

>  <SCORE.SYSTEM.CONST>
0

>  <SCORE.SYSTEM.DIHEDRAL>
0

>  <SCORE.SYSTEM.SOLV>
0

>  <SCORE.SYSTEM.norm>
0

>  <SCORE.heavy>
13

>  <SCORE.norm>
-1.84647

>  <RMSD>
4.900

$$$$
ligand
 OpenBabel11021811473D
libRbt.so/2013.1/901 2013/11/27
 13 14  0  0  0  0  0  0  0  0999 V2000
   36.5018   32.0301   26.7183 N   0  0  0  0  0  0  0  0  0  0  0  0
   37.5848   33.1714   26.9050 C   0  0  0  0  0  0  0  0  0  0  0  0
   38.5195   33.0516   27.9147 N   0  0  0  0  0  0  0  0  0  0  0  0
   37.4321   34.1116   26.0704 N   0  0  0  0  0  0  0  0  0  0  0  0
   36.5493   34.2756   25.0664 C   0  0  0  0  0  0  0  0  0  0  0  0
   35.6004   33.3482   24.8312 C   0  0  0  0  0  0  0  0  0  0  0  0
   35.5681   32.0835   25.7769 C   0  0  0  0  0  0  0  0  0  0  0  0
   34.7281   31.2713   25.5573 O   0  0  0  0  0  0  0  0  0  0  0  0
   34.6763   33.7267   23.6588 C   0  0  0  0  0  0  0  0  0  0  0  0
   35.1369   34.9022   23.2166 C   0  0  0  0  0  0  0  0  0  0  0  0
   36.2112   35.4013   23.9027 N   0  0  0  0  0  0  0  0  0  0  0  0
   33.5479   32.9230   23.1371 C   0  0  0  0  0  0  0  0  0  0  0  0
   32.6627   32.2672   22.7859 N   0  0  0  0  0  0  0  0  0  0  0  0
  1  2  1  0  0  0  0
  1  7  1  0  0  0  0
  2  3  1  0  0  0  0
  2  4  2  0  0  0  0
  4  5  1  0  0  0  0
  5  6  2  0  0  0  0
  5 11  1  0  0  0  0
  6  7  1  0  0  0  0
  6  9  1  0  0  0  0
  7  8  2  0  0  0  0
  9 10  2  0  0  0  0
  9 12  1  0  0  0  0
 10 11  1  0  0  0  0
 12 13  3  0  0  0  0
M  END
>  <CHROM.1>
35.75409902,33.23292387,25.07934245,0.43584009,0.66328901,2.49617034

>  <Name>
ligand

>  <RI>
0

>  <Rbt.Current_Directory>
/home/itssahil/PROJECTS/Mol_Feturizer/New_Systems/rnas/3GCA

>  <Rbt.Executable>
rbdock ($Id: //depot/dev/client3/rdock/2013.1/src/exe/rbdock.cxx#4 $)

>  <Rbt.Library>
libRbt.so (2013.1, Build901 2013/11/27)

>  <Rbt.Parameter_File>
/export/apps/rDock/src/rDock_2013.1_src/data/scripts/dock_solv.prm

>  <Rbt.Receptor>
prm/pocket_docking_6.prm

>  <SCORE>
-23.8189

>  <SCORE.INTER>
-23.8189

>  <SCORE.INTER.CONST>
1

>  <SCORE.INTER.POLAR>
0

>  <SCORE.INTER.ROT>
0

>  <SCORE.INTER.SOLV>
11.512

>  <SCORE.INTER.VDW>
-23.3166

>  <SCORE.INTER.norm>
-1.83222

>  <SCORE.INTRA>
0

>  <SCORE.INTRA.DIHEDRAL>
0

>  <SCORE.INTRA.DIHEDRAL.0>
0

>  <SCORE.INTRA.POLAR>
0

>  <SCORE.INTRA.POLAR.0>
0

>  <SCORE.INTRA.REPUL>
0

>  <SCORE.INTRA.REPUL.0>
0

>  <SCORE.INTRA.SOLV>
0

>  <SCORE.INTRA.SOLV.lig_0>
-33.1994

>  <SCORE.INTRA.VDW>
0

>  <SCORE.INTRA.VDW.0>
0

>  <SCORE.INTRA.norm>
0

>  <SCORE.RESTR>
0

>  <SCORE.RESTR.CAVITY>
0

>  <SCORE.RESTR.norm>
0

>  <SCORE.SYSTEM>
0

>  <SCORE.SYSTEM.CONST>
0

>  <SCORE.SYSTEM.DIHEDRAL>
0

>  <SCORE.SYSTEM.SOLV>
0

>  <SCORE.SYSTEM.norm>
0

>  <SCORE.heavy>
13

>  <SCORE.norm>
-1.83222

>  <RMSD>
4.900

$$$$
ligand
 OpenBabel11021811473D
libRbt.so/2013.1/901 2013/11/27
 13 14  0  0  0  0  0  0  0  0999 V2000
   36.4002   32.0679   26.7777 N   0  0  0  0  0  0  0  0  0  0  0  0
   37.5506   33.1509   26.8962 C   0  0  0  0  0  0  0  0  0  0  0  0
   38.4854   33.0299   27.9057 N   0  0  0  0  0  0  0  0  0  0  0  0
   37.4468   34.0522   26.0125 N   0  0  0  0  0  0  0  0  0  0  0  0
   36.5665   34.2143   25.0060 C   0  0  0  0  0  0  0  0  0  0  0  0
   35.5621   33.3341   24.8269 C   0  0  0  0  0  0  0  0  0  0  0  0
   35.4631   32.1263   25.8400 C   0  0  0  0  0  0  0  0  0  0  0  0
   34.5744   31.3552   25.6695 O   0  0  0  0  0  0  0  0  0  0  0  0
   34.6519   33.7034   23.6408 C   0  0  0  0  0  0  0  0  0  0  0  0
   35.1776   34.8238   23.1329 C   0  0  0  0  0  0  0  0  0  0  0  0
   36.2857   35.2940   23.7848 N   0  0  0  0  0  0  0  0  0  0  0  0
   33.4732   32.9417   23.1697 C   0  0  0  0  0  0  0  0  0  0  0  0
   32.5476   32.3220   22.8596 N   0  0  0  0  0  0  0  0  0  0  0  0
  1  2  1  0  0  0  0
  1  7  1  0  0  0  0
  2  3  1  0  0  0  0
  2  4  2  0  0  0  0
  4  5  1  0  0  0  0
  5  6  2  0  0  0  0
  5 11  1  0  0  0  0
  6  7  1  0  0  0  0
  6  9  1  0  0  0  0
  7  8  2  0  0  0  0
  9 10  2  0  0  0  0
  9 12  1  0  0  0  0
 10 11  1  0  0  0  0
 12 13  3  0  0  0  0
M  END
>  <CHROM.1>
35.71089750,33.22331875,25.08003308,0.48769017,0.61984900,2.41096779

>  <Name>
ligand

>  <RI>
0

>  <Rbt.Current_Directory>
/home/itssahil/PROJECTS/Mol_Feturizer/New_Systems/rnas/3GCA

>  <Rbt.Executable>
rbdock ($Id: //depot/dev/client3/rdock/2013.1/src/exe/rbdock.cxx#4 $)

>  <Rbt.Library>
libRbt.so (2013.1, Build901 2013/11/27)

>  <Rbt.Parameter_File>
/export/apps/rDock/src/rDock_2013.1_src/data/scripts/dock_solv.prm

>  <Rbt.Receptor>
prm/pocket_docking_6.prm

>  <SCORE>
-24.0264

>  <SCORE.INTER>
-24.0264

>  <SCORE.INTER.CONST>
1

>  <SCORE.INTER.POLAR>
0

>  <SCORE.INTER.ROT>
0

>  <SCORE.INTER.SOLV>
11.5785

>  <SCORE.INTER.VDW>
-23.4771

>  <SCORE.INTER.norm>
-1.84819

>  <SCORE.INTRA>
0

>  <SCORE.INTRA.DIHEDRAL>
0

>  <SCORE.INTRA.DIHEDRAL.0>
0

>  <SCORE.INTRA.POLAR>
0

>  <SCORE.INTRA.POLAR.0>
0

>  <SCORE.INTRA.REPUL>
0

>  <SCORE.INTRA.REPUL.0>
0

>  <SCORE.INTRA.SOLV>
0

>  <SCORE.INTRA.SOLV.lig_0>
-33.1994

>  <SCORE.INTRA.VDW>
0

>  <SCORE.INTRA.VDW.0>
0

>  <SCORE.INTRA.norm>
0

>  <SCORE.RESTR>
0

>  <SCORE.RESTR.CAVITY>
0

>  <SCORE.RESTR.norm>
0

>  <SCORE.SYSTEM>
0

>  <SCORE.SYSTEM.CONST>
0

>  <SCORE.SYSTEM.DIHEDRAL>
0

>  <SCORE.SYSTEM.SOLV>
0

>  <SCORE.SYSTEM.norm>
0

>  <SCORE.heavy>
13

>  <SCORE.norm>
-1.84819

>  <RMSD>
4.900

$$$$
ligand
 OpenBabel11021811473D
libRbt.so/2013.1/901 2013/11/27
 13 14  0  0  0  0  0  0  0  0999 V2000
   36.4226   32.0488   26.7653 N   0  0  0  0  0  0  0  0  0  0  0  0
   37.5520   33.1512   26.9047 C   0  0  0  0  0  0  0  0  0  0  0  0
   38.4897   33.0283   27.9113 N   0  0  0  0  0  0  0  0  0  0  0  0
   37.4302   34.0676   26.0391 N   0  0  0  0  0  0  0  0  0  0  0  0
   36.5461   34.2326   25.0364 C   0  0  0  0  0  0  0  0  0  0  0  0
   35.5587   33.3369   24.8402 C   0  0  0  0  0  0  0  0  0  0  0  0
   35.4838   32.1076   25.8294 C   0  0  0  0  0  0  0  0  0  0  0  0
   34.6100   31.3230   25.6439 O   0  0  0  0  0  0  0  0  0  0  0  0
   34.6407   33.7119   23.6620 C   0  0  0  0  0  0  0  0  0  0  0  0
   35.1443   34.8520   23.1762 C   0  0  0  0  0  0  0  0  0  0  0  0
   36.2436   35.3305   23.8369 N   0  0  0  0  0  0  0  0  0  0  0  0
   33.4765   32.9371   23.1765 C   0  0  0  0  0  0  0  0  0  0  0  0
   32.5627   32.3059   22.8545 N   0  0  0  0  0  0  0  0  0  0  0  0
  1  2  1  0  0  0  0
  1  7  1  0  0  0  0
  2  3  1  0  0  0  0
  2  4  2  0  0  0  0
  4  5  1  0  0  0  0
  5  6  2  0  0  0  0
  5 11  1  0  0  0  0
  6  7  1  0  0  0  0
  6  9  1  0  0  0  0
  7  8  2  0  0  0  0
  9 10  2  0  0  0  0
  9 12  1  0  0  0  0
 10 11  1  0  0  0  0
 12 13  3  0  0  0  0
M  END
>  <CHROM.1>
35.70981414,33.22398855,25.09111450,0.46925258,0.63205070,2.44154234

>  <Name>
ligand

>  <RI>
0

>  <Rbt.Current_Directory>
/home/itssahil/PROJECTS/Mol_Feturizer/New_Systems/rnas/3GCA

>  <Rbt.Executable>
rbdock ($Id: //depot/dev/client3/rdock/2013.1/src/exe/rbdock.cxx#4 $)

>  <Rbt.Library>
libRbt.so (2013.1, Build901 2013/11/27)

>  <Rbt.Parameter_File>
/export/apps/rDock/src/rDock_2013.1_src/data/scripts/dock_solv.prm

>  <Rbt.Receptor>
prm/pocket_docking_8.prm

>  <SCORE>
-24.0268

>  <SCORE.INTER>
-24.0268

>  <SCORE.INTER.CONST>
1

>  <SCORE.INTER.POLAR>
0

>  <SCORE.INTER.ROT>
0

>  <SCORE.INTER.SOLV>
11.5872

>  <SCORE.INTER.VDW>
-23.4802

>  <SCORE.INTER.norm>
-1.84821

>  <SCORE.INTRA>
0

>  <SCORE.INTRA.DIHEDRAL>
0

>  <SCORE.INTRA.DIHEDRAL.0>
0

>  <SCORE.INTRA.POLAR>
0

>  <SCORE.INTRA.POLAR.0>
0

>  <SCORE.INTRA.REPUL>
0

>  <SCORE.INTRA.REPUL.0>
0

>  <SCORE.INTRA.SOLV>
0

>  <SCORE.INTRA.SOLV.lig_0>
-33.1994

>  <SCORE.INTRA.VDW>
0

>  <SCORE.INTRA.VDW.0>
0

>  <SCORE.INTRA.norm>
0

>  <SCORE.RESTR>
0

>  <SCORE.RESTR.CAVITY>
0

>  <SCORE.RESTR.norm>
0

>  <SCORE.SYSTEM>
0

>  <SCORE.SYSTEM.CONST>
0

>  <SCORE.SYSTEM.DIHEDRAL>
0

>  <SCORE.SYSTEM.SOLV>
0

>  <SCORE.SYSTEM.norm>
0

>  <SCORE.heavy>
13

>  <SCORE.norm>
-1.84821

>  <RMSD>
4.900

$$$$
ligand
 OpenBabel11021811473D
libRbt.so/2013.1/901 2013/11/27
 13 14  0  0  0  0  0  0  0  0999 V2000
   36.4226   32.0768   26.7832 N   0  0  0  0  0  0  0  0  0  0  0  0
   37.5635   33.1689   26.9094 C   0  0  0  0  0  0  0  0  0  0  0  0
   38.5026   33.0459   27.9146 N   0  0  0  0  0  0  0  0  0  0  0  0
   37.4487   34.0783   26.0355 N   0  0  0  0  0  0  0  0  0  0  0  0
   36.5637   34.2430   25.0336 C   0  0  0  0  0  0  0  0  0  0  0  0
   35.5668   33.3555   24.8483 C   0  0  0  0  0  0  0  0  0  0  0  0
   35.4820   32.1364   25.8491 C   0  0  0  0  0  0  0  0  0  0  0  0
   34.5997   31.3591   25.6733 O   0  0  0  0  0  0  0  0  0  0  0  0
   34.6495   33.7289   23.6690 C   0  0  0  0  0  0  0  0  0  0  0  0
   35.1633   34.8592   23.1712 C   0  0  0  0  0  0  0  0  0  0  0  0
   36.2692   35.3327   23.8246 N   0  0  0  0  0  0  0  0  0  0  0  0
   33.4762   32.9614   23.1937 C   0  0  0  0  0  0  0  0  0  0  0  0
   32.5552   32.3366   22.8800 N   0  0  0  0  0  0  0  0  0  0  0  0
  1  2  1  0  0  0  0
  1  7  1  0  0  0  0
  2  3  1  0  0  0  0
  2  4  2  0  0  0  0
  4  5  1  0  0  0  0
  5  6  2  0  0  0  0
  5 11  1  0  0  0  0
  6  7  1  0  0  0  0
  6  9  1  0  0  0  0
  7  8  2  0  0  0  0
  9 10  2  0  0  0  0
  9 12  1  0  0  0  0
 10 11  1  0  0  0  0
 12 13  3  0  0  0  0
M  END
>  <CHROM.1>
35.71736301,33.24349902,25.09985562,0.47671888,0.62347069,2.42779521

>  <Name>
ligand

>  <RI>
0

>  <Rbt.Current_Directory>
/home/itssahil/PROJECTS/Mol_Feturizer/New_Systems/rnas/3GCA

>  <Rbt.Executable>
rbdock ($Id: //depot/dev/client3/rdock/2013.1/src/exe/rbdock.cxx#4 $)

>  <Rbt.Library>
libRbt.so (2013.1, Build901 2013/11/27)

>  <Rbt.Parameter_File>
/export/apps/rDock/src/rDock_2013.1_src/data/scripts/dock_solv.prm

>  <Rbt.Receptor>
prm/blind_docking_60.prm

>  <SCORE>
-24.065

>  <SCORE.INTER>
-24.065

>  <SCORE.INTER.CONST>
1

>  <SCORE.INTER.POLAR>
0

>  <SCORE.INTER.ROT>
0

>  <SCORE.INTER.SOLV>
11.5092

>  <SCORE.INTER.VDW>
-23.4798

>  <SCORE.INTER.norm>
-1.85116

>  <SCORE.INTRA>
0

>  <SCORE.INTRA.DIHEDRAL>
0

>  <SCORE.INTRA.DIHEDRAL.0>
0

>  <SCORE.INTRA.POLAR>
0

>  <SCORE.INTRA.POLAR.0>
0

>  <SCORE.INTRA.REPUL>
0

>  <SCORE.INTRA.REPUL.0>
0

>  <SCORE.INTRA.SOLV>
0

>  <SCORE.INTRA.SOLV.lig_0>
-33.1994

>  <SCORE.INTRA.VDW>
0

>  <SCORE.INTRA.VDW.0>
0

>  <SCORE.INTRA.norm>
0

>  <SCORE.RESTR>
0

>  <SCORE.RESTR.CAVITY>
0

>  <SCORE.RESTR.norm>
0

>  <SCORE.SYSTEM>
0

>  <SCORE.SYSTEM.CONST>
0

>  <SCORE.SYSTEM.DIHEDRAL>
0

>  <SCORE.SYSTEM.SOLV>
0

>  <SCORE.SYSTEM.norm>
0

>  <SCORE.heavy>
13

>  <SCORE.norm>
-1.85116

>  <RMSD>
4.901

$$$$
ligand
 OpenBabel11021811473D
libRbt.so/2013.1/901 2013/11/27
 13 14  0  0  0  0  0  0  0  0999 V2000
   36.4557   32.0488   26.7572 N   0  0  0  0  0  0  0  0  0  0  0  0
   37.5926   33.1444   26.8892 C   0  0  0  0  0  0  0  0  0  0  0  0
   38.5375   33.0146   27.8882 N   0  0  0  0  0  0  0  0  0  0  0  0
   37.4693   34.0627   26.0259 N   0  0  0  0  0  0  0  0  0  0  0  0
   36.5784   34.2343   25.0304 C   0  0  0  0  0  0  0  0  0  0  0  0
   35.5843   33.3446   24.8408 C   0  0  0  0  0  0  0  0  0  0  0  0
   35.5099   32.1144   25.8288 C   0  0  0  0  0  0  0  0  0  0  0  0
   34.6301   31.3352   25.6491 O   0  0  0  0  0  0  0  0  0  0  0  0
   34.6592   33.7267   23.6704 C   0  0  0  0  0  0  0  0  0  0  0  0
   35.1656   34.8646   23.1822 C   0  0  0  0  0  0  0  0  0  0  0  0
   36.2728   35.3358   23.8349 N   0  0  0  0  0  0  0  0  0  0  0  0
   33.4867   32.9594   23.1930 C   0  0  0  0  0  0  0  0  0  0  0  0
   32.5668   32.3340   22.8773 N   0  0  0  0  0  0  0  0  0  0  0  0
  1  2  1  0  0  0  0
  1  7  1  0  0  0  0
  2  3  1  0  0  0  0
  2  4  2  0  0  0  0
  4  5  1  0  0  0  0
  5  6  2  0  0  0  0
  5 11  1  0  0  0  0
  6  7  1  0  0  0  0
  6  9  1  0  0  0  0
  7  8  2  0  0  0  0
  9 10  2  0  0  0  0
  9 12  1  0  0  0  0
 10 11  1  0  0  0  0
 12 13  3  0  0  0  0
M  END
>  <CHROM.1>
35.73665674,33.23054431,25.09031374,0.46850201,0.62227086,2.44340564

>  <Name>
ligand

>  <RI>
0

>  <Rbt.Current_Directory>
/home/itssahil/PROJECTS/Mol_Feturizer/New_Systems/rnas/3GCA

>  <Rbt.Executable>
rbdock ($Id: //depot/dev/client3/rdock/2013.1/src/exe/rbdock.cxx#4 $)

>  <Rbt.Library>
libRbt.so (2013.1, Build901 2013/11/27)

>  <Rbt.Parameter_File>
/export/apps/rDock/src/rDock_2013.1_src/data/scripts/dock_solv.prm

>  <Rbt.Receptor>
prm/blind_docking_60.prm

>  <SCORE>
-24.0218

>  <SCORE.INTER>
-24.0218

>  <SCORE.INTER.CONST>
1

>  <SCORE.INTER.POLAR>
0

>  <SCORE.INTER.ROT>
0

>  <SCORE.INTER.SOLV>
11.3594

>  <SCORE.INTER.VDW>
-23.401

>  <SCORE.INTER.norm>
-1.84783

>  <SCORE.INTRA>
0

>  <SCORE.INTRA.DIHEDRAL>
0

>  <SCORE.INTRA.DIHEDRAL.0>
0

>  <SCORE.INTRA.POLAR>
0

>  <SCORE.INTRA.POLAR.0>
0

>  <SCORE.INTRA.REPUL>
0

>  <SCORE.INTRA.REPUL.0>
0

>  <SCORE.INTRA.SOLV>
0

>  <SCORE.INTRA.SOLV.lig_0>
-33.1994

>  <SCORE.INTRA.VDW>
0

>  <SCORE.INTRA.VDW.0>
0

>  <SCORE.INTRA.norm>
0

>  <SCORE.RESTR>
0

>  <SCORE.RESTR.CAVITY>
0

>  <SCORE.RESTR.norm>
0

>  <SCORE.SYSTEM>
0

>  <SCORE.SYSTEM.CONST>
0

>  <SCORE.SYSTEM.DIHEDRAL>
0

>  <SCORE.SYSTEM.SOLV>
0

>  <SCORE.SYSTEM.norm>
0

>  <SCORE.heavy>
13

>  <SCORE.norm>
-1.84783

>  <RMSD>
4.901

$$$$
ligand
 OpenBabel11021811473D
libRbt.so/2013.1/901 2013/11/27
 13 14  0  0  0  0  0  0  0  0999 V2000
   36.4135   32.0634   26.7739 N   0  0  0  0  0  0  0  0  0  0  0  0
   37.5493   33.1605   26.9038 C   0  0  0  0  0  0  0  0  0  0  0  0
   38.4863   33.0411   27.9114 N   0  0  0  0  0  0  0  0  0  0  0  0
   37.4327   34.0700   26.0302 N   0  0  0  0  0  0  0  0  0  0  0  0
   36.5496   34.2314   25.0260 C   0  0  0  0  0  0  0  0  0  0  0  0
   35.5571   33.3396   24.8377 C   0  0  0  0  0  0  0  0  0  0  0  0
   35.4751   32.1195   25.8374 C   0  0  0  0  0  0  0  0  0  0  0  0
   34.5968   31.3383   25.6588 O   0  0  0  0  0  0  0  0  0  0  0  0
   34.6412   33.7096   23.6562 C   0  0  0  0  0  0  0  0  0  0  0  0
   35.1513   34.8426   23.1605 C   0  0  0  0  0  0  0  0  0  0  0  0
   36.2534   35.3205   23.8170 N   0  0  0  0  0  0  0  0  0  0  0  0
   33.4726   32.9373   23.1774 C   0  0  0  0  0  0  0  0  0  0  0  0
   32.5552   32.3086   22.8608 N   0  0  0  0  0  0  0  0  0  0  0  0
  1  2  1  0  0  0  0
  1  7  1  0  0  0  0
  2  3  1  0  0  0  0
  2  4  2  0  0  0  0
  4  5  1  0  0  0  0
  5  6  2  0  0  0  0
  5 11  1  0  0  0  0
  6  7  1  0  0  0  0
  6  9  1  0  0  0  0
  7  8  2  0  0  0  0
  9 10  2  0  0  0  0
  9 12  1  0  0  0  0
 10 11  1  0  0  0  0
 12 13  3  0  0  0  0
M  END
>  <CHROM.1>
35.70753722,33.22808338,25.08950800,0.47467547,0.62834901,2.42962964

>  <Name>
ligand

>  <RI>
0

>  <Rbt.Current_Directory>
/home/itssahil/PROJECTS/Mol_Feturizer/New_Systems/rnas/3GCA

>  <Rbt.Executable>
rbdock ($Id: //depot/dev/client3/rdock/2013.1/src/exe/rbdock.cxx#4 $)

>  <Rbt.Library>
libRbt.so (2013.1, Build901 2013/11/27)

>  <Rbt.Parameter_File>
/export/apps/rDock/src/rDock_2013.1_src/data/scripts/dock_solv.prm

>  <Rbt.Receptor>
prm/blind_docking_60.prm

>  <SCORE>
-24.036

>  <SCORE.INTER>
-24.036

>  <SCORE.INTER.CONST>
1

>  <SCORE.INTER.POLAR>
0

>  <SCORE.INTER.ROT>
0

>  <SCORE.INTER.SOLV>
11.588

>  <SCORE.INTER.VDW>
-23.4867

>  <SCORE.INTER.norm>
-1.84893

>  <SCORE.INTRA>
0

>  <SCORE.INTRA.DIHEDRAL>
0

>  <SCORE.INTRA.DIHEDRAL.0>
0

>  <SCORE.INTRA.POLAR>
0

>  <SCORE.INTRA.POLAR.0>
0

>  <SCORE.INTRA.REPUL>
0

>  <SCORE.INTRA.REPUL.0>
0

>  <SCORE.INTRA.SOLV>
0

>  <SCORE.INTRA.SOLV.lig_0>
-33.1994

>  <SCORE.INTRA.VDW>
0

>  <SCORE.INTRA.VDW.0>
0

>  <SCORE.INTRA.norm>
0

>  <SCORE.RESTR>
0

>  <SCORE.RESTR.CAVITY>
0

>  <SCORE.RESTR.norm>
0

>  <SCORE.SYSTEM>
0

>  <SCORE.SYSTEM.CONST>
0

>  <SCORE.SYSTEM.DIHEDRAL>
0

>  <SCORE.SYSTEM.SOLV>
0

>  <SCORE.SYSTEM.norm>
0

>  <SCORE.heavy>
13

>  <SCORE.norm>
-1.84893

>  <RMSD>
4.901

$$$$
ligand
 OpenBabel11021811473D
libRbt.so/2013.1/901 2013/11/27
 13 14  0  0  0  0  0  0  0  0999 V2000
   36.4002   32.0880   26.7883 N   0  0  0  0  0  0  0  0  0  0  0  0
   37.5282   33.1925   26.9225 C   0  0  0  0  0  0  0  0  0  0  0  0
   38.4608   33.0804   27.9352 N   0  0  0  0  0  0  0  0  0  0  0  0
   37.4103   34.1000   26.0472 N   0  0  0  0  0  0  0  0  0  0  0  0
   36.5314   34.2544   25.0382 C   0  0  0  0  0  0  0  0  0  0  0  0
   35.5457   33.3561   24.8459 C   0  0  0  0  0  0  0  0  0  0  0  0
   35.4663   32.1367   25.8469 C   0  0  0  0  0  0  0  0  0  0  0  0
   34.5940   31.3497   25.6648 O   0  0  0  0  0  0  0  0  0  0  0  0
   34.6335   33.7186   23.6592 C   0  0  0  0  0  0  0  0  0  0  0  0
   35.1389   34.8542   23.1646 C   0  0  0  0  0  0  0  0  0  0  0  0
   36.2345   35.3401   23.8262 N   0  0  0  0  0  0  0  0  0  0  0  0
   33.4724   32.9382   23.1754 C   0  0  0  0  0  0  0  0  0  0  0  0
   32.5607   32.3032   22.8550 N   0  0  0  0  0  0  0  0  0  0  0  0
  1  2  1  0  0  0  0
  1  7  1  0  0  0  0
  2  3  1  0  0  0  0
  2  4  2  0  0  0  0
  4  5  1  0  0  0  0
  5  6  2  0  0  0  0
  5 11  1  0  0  0  0
  6  7  1  0  0  0  0
  6  9  1  0  0  0  0
  7  8  2  0  0  0  0
  9 10  2  0  0  0  0
  9 12  1  0  0  0  0
 10 11  1  0  0  0  0
 12 13  3  0  0  0  0
M  END
>  <CHROM.1>
35.69549882,33.24582810,25.09868902,0.47284061,0.63645269,2.42939154

>  <Name>
ligand

>  <RI>
0

>  <Rbt.Current_Directory>
/home/itssahil/PROJECTS/Mol_Feturizer/New_Systems/rnas/3GCA

>  <Rbt.Executable>
rbdock ($Id: //depot/dev/client3/rdock/2013.1/src/exe/rbdock.cxx#4 $)

>  <Rbt.Library>
libRbt.so (2013.1, Build901 2013/11/27)

>  <Rbt.Parameter_File>
/export/apps/rDock/src/rDock_2013.1_src/data/scripts/dock_solv.prm

>  <Rbt.Receptor>
prm/blind_docking_80.prm

>  <SCORE>
-24.0666

>  <SCORE.INTER>
-24.0666

>  <SCORE.INTER.CONST>
1

>  <SCORE.INTER.POLAR>
0

>  <SCORE.INTER.ROT>
0

>  <SCORE.INTER.SOLV>
11.6972

>  <SCORE.INTER.VDW>
-23.5435

>  <SCORE.INTER.norm>
-1.85128

>  <SCORE.INTRA>
0

>  <SCORE.INTRA.DIHEDRAL>
0

>  <SCORE.INTRA.DIHEDRAL.0>
0

>  <SCORE.INTRA.POLAR>
0

>  <SCORE.INTRA.POLAR.0>
0

>  <SCORE.INTRA.REPUL>
0

>  <SCORE.INTRA.REPUL.0>
0

>  <SCORE.INTRA.SOLV>
0

>  <SCORE.INTRA.SOLV.lig_0>
-33.1994

>  <SCORE.INTRA.VDW>
0

>  <SCORE.INTRA.VDW.0>
0

>  <SCORE.INTRA.norm>
0

>  <SCORE.RESTR>
0

>  <SCORE.RESTR.CAVITY>
0

>  <SCORE.RESTR.norm>
0

>  <SCORE.SYSTEM>
0

>  <SCORE.SYSTEM.CONST>
0

>  <SCORE.SYSTEM.DIHEDRAL>
0

>  <SCORE.SYSTEM.SOLV>
0

>  <SCORE.SYSTEM.norm>
0

>  <SCORE.heavy>
13

>  <SCORE.norm>
-1.85128

>  <RMSD>
4.901

$$$$
ligand
 OpenBabel11021811473D
libRbt.so/2013.1/901 2013/11/27
 13 14  0  0  0  0  0  0  0  0999 V2000
   36.4050   32.0880   26.7885 N   0  0  0  0  0  0  0  0  0  0  0  0
   37.5336   33.1920   26.9216 C   0  0  0  0  0  0  0  0  0  0  0  0
   38.4663   33.0801   27.9341 N   0  0  0  0  0  0  0  0  0  0  0  0
   37.4159   34.0990   26.0457 N   0  0  0  0  0  0  0  0  0  0  0  0
   36.5367   34.2532   25.0369 C   0  0  0  0  0  0  0  0  0  0  0  0
   35.5504   33.3552   24.8455 C   0  0  0  0  0  0  0  0  0  0  0  0
   35.4708   32.1366   25.8474 C   0  0  0  0  0  0  0  0  0  0  0  0
   34.5980   31.3500   25.6661 O   0  0  0  0  0  0  0  0  0  0  0  0
   34.6381   33.7175   23.6589 C   0  0  0  0  0  0  0  0  0  0  0  0
   35.1440   34.8524   23.1634 C   0  0  0  0  0  0  0  0  0  0  0  0
   36.2400   35.3382   23.8243 N   0  0  0  0  0  0  0  0  0  0  0  0
   33.4764   32.9373   23.1760 C   0  0  0  0  0  0  0  0  0  0  0  0
   32.5643   32.3026   22.8563 N   0  0  0  0  0  0  0  0  0  0  0  0
  1  2  1  0  0  0  0
  1  7  1  0  0  0  0
  2  3  1  0  0  0  0
  2  4  2  0  0  0  0
  4  5  1  0  0  0  0
  5  6  2  0  0  0  0
  5 11  1  0  0  0  0
  6  7  1  0  0  0  0
  6  9  1  0  0  0  0
  7  8  2  0  0  0  0
  9 10  2  0  0  0  0
  9 12  1  0  0  0  0
 10 11  1  0  0  0  0
 12 13  3  0  0  0  0
M  END
>  <CHROM.1>
35.70029377,33.24509102,25.09835241,0.47308090,0.63587290,2.42856025

>  <Name>
ligand

>  <RI>
0

>  <Rbt.Current_Directory>
/home/itssahil/PROJECTS/Mol_Feturizer/New_Systems/rnas/3GCA

>  <Rbt.Executable>
rbdock ($Id: //depot/dev/client3/rdock/2013.1/src/exe/rbdock.cxx#4 $)

>  <Rbt.Library>
libRbt.so (2013.1, Build901 2013/11/27)

>  <Rbt.Parameter_File>
/export/apps/rDock/src/rDock_2013.1_src/data/scripts/dock_solv.prm

>  <Rbt.Receptor>
prm/pocket_docking_3.prm

>  <SCORE>
-24.0702

>  <SCORE.INTER>
-24.0702

>  <SCORE.INTER.CONST>
1

>  <SCORE.INTER.POLAR>
0

>  <SCORE.INTER.ROT>
0

>  <SCORE.INTER.SOLV>
11.6717

>  <SCORE.INTER.VDW>
-23.5374

>  <SCORE.INTER.norm>
-1.85155

>  <SCORE.INTRA>
0

>  <SCORE.INTRA.DIHEDRAL>
0

>  <SCORE.INTRA.DIHEDRAL.0>
0

>  <SCORE.INTRA.POLAR>
0

>  <SCORE.INTRA.POLAR.0>
0

>  <SCORE.INTRA.REPUL>
0

>  <SCORE.INTRA.REPUL.0>
0

>  <SCORE.INTRA.SOLV>
0

>  <SCORE.INTRA.SOLV.lig_0>
-33.1994

>  <SCORE.INTRA.VDW>
0

>  <SCORE.INTRA.VDW.0>
0

>  <SCORE.INTRA.norm>
0

>  <SCORE.RESTR>
0

>  <SCORE.RESTR.CAVITY>
0

>  <SCORE.RESTR.norm>
0

>  <SCORE.SYSTEM>
0

>  <SCORE.SYSTEM.CONST>
0

>  <SCORE.SYSTEM.DIHEDRAL>
0

>  <SCORE.SYSTEM.SOLV>
0

>  <SCORE.SYSTEM.norm>
0

>  <SCORE.heavy>
13

>  <SCORE.norm>
-1.85155

>  <RMSD>
4.901

$$$$
ligand
 OpenBabel11021811473D
libRbt.so/2013.1/901 2013/11/27
 13 14  0  0  0  0  0  0  0  0999 V2000
   36.4188   32.1137   26.7148 N   0  0  0  0  0  0  0  0  0  0  0  0
   37.5481   33.2190   26.8300 C   0  0  0  0  0  0  0  0  0  0  0  0
   38.4940   33.1110   27.8306 N   0  0  0  0  0  0  0  0  0  0  0  0
   37.4182   34.1233   25.9530 N   0  0  0  0  0  0  0  0  0  0  0  0
   36.5260   34.2737   24.9552 C   0  0  0  0  0  0  0  0  0  0  0  0
   35.5381   33.3743   24.7793 C   0  0  0  0  0  0  0  0  0  0  0  0
   35.4725   32.1587   25.7857 C   0  0  0  0  0  0  0  0  0  0  0  0
   34.5981   31.3707   25.6181 O   0  0  0  0  0  0  0  0  0  0  0  0
   34.6102   33.7322   23.6035 C   0  0  0  0  0  0  0  0  0  0  0  0
   35.1086   34.8661   23.0981 C   0  0  0  0  0  0  0  0  0  0  0  0
   36.2126   35.3548   23.7433 N   0  0  0  0  0  0  0  0  0  0  0  0
   33.4430   32.9497   23.1380 C   0  0  0  0  0  0  0  0  0  0  0  0
   32.5274   32.3132   22.8320 N   0  0  0  0  0  0  0  0  0  0  0  0
  1  2  1  0  0  0  0
  1  7  1  0  0  0  0
  2  3  1  0  0  0  0
  2  4  2  0  0  0  0
  4  5  1  0  0  0  0
  5  6  2  0  0  0  0
  5 11  1  0  0  0  0
  6  7  1  0  0  0  0
  6  9  1  0  0  0  0
  7  8  2  0  0  0  0
  9 10  2  0  0  0  0
  9 12  1  0  0  0  0
 10 11  1  0  0  0  0
 12 13  3  0  0  0  0
M  END
>  <CHROM.1>
35.69129823,33.26508754,25.03047491,0.46179850,0.62664078,2.43223014

>  <Name>
ligand

>  <RI>
0

>  <Rbt.Current_Directory>
/home/itssahil/PROJECTS/Mol_Feturizer/New_Systems/rnas/3GCA

>  <Rbt.Executable>
rbdock ($Id: //depot/dev/client3/rdock/2013.1/src/exe/rbdock.cxx#4 $)

>  <Rbt.Library>
libRbt.so (2013.1, Build901 2013/11/27)

>  <Rbt.Parameter_File>
/export/apps/rDock/src/rDock_2013.1_src/data/scripts/dock_solv.prm

>  <Rbt.Receptor>
prm/pocket_docking_3.prm

>  <SCORE>
-24.0372

>  <SCORE.INTER>
-24.0372

>  <SCORE.INTER.CONST>
1

>  <SCORE.INTER.POLAR>
0

>  <SCORE.INTER.ROT>
0

>  <SCORE.INTER.SOLV>
11.4264

>  <SCORE.INTER.VDW>
-23.4336

>  <SCORE.INTER.norm>
-1.84901

>  <SCORE.INTRA>
0

>  <SCORE.INTRA.DIHEDRAL>
0

>  <SCORE.INTRA.DIHEDRAL.0>
0

>  <SCORE.INTRA.POLAR>
0

>  <SCORE.INTRA.POLAR.0>
0

>  <SCORE.INTRA.REPUL>
0

>  <SCORE.INTRA.REPUL.0>
0

>  <SCORE.INTRA.SOLV>
0

>  <SCORE.INTRA.SOLV.lig_0>
-33.1994

>  <SCORE.INTRA.VDW>
0

>  <SCORE.INTRA.VDW.0>
0

>  <SCORE.INTRA.norm>
0

>  <SCORE.RESTR>
0

>  <SCORE.RESTR.CAVITY>
0

>  <SCORE.RESTR.norm>
0

>  <SCORE.SYSTEM>
0

>  <SCORE.SYSTEM.CONST>
0

>  <SCORE.SYSTEM.DIHEDRAL>
0

>  <SCORE.SYSTEM.SOLV>
0

>  <SCORE.SYSTEM.norm>
0

>  <SCORE.heavy>
13

>  <SCORE.norm>
-1.84901

>  <RMSD>
4.901

$$$$
ligand
 OpenBabel11021811473D
libRbt.so/2013.1/901 2013/11/27
 13 14  0  0  0  0  0  0  0  0999 V2000
   36.4435   32.0625   26.7656 N   0  0  0  0  0  0  0  0  0  0  0  0
   37.5804   33.1582   26.8971 C   0  0  0  0  0  0  0  0  0  0  0  0
   38.5223   33.0317   27.8993 N   0  0  0  0  0  0  0  0  0  0  0  0
   37.4600   34.0734   26.0301 N   0  0  0  0  0  0  0  0  0  0  0  0
   36.5721   34.2418   25.0313 C   0  0  0  0  0  0  0  0  0  0  0  0
   35.5782   33.3517   24.8420 C   0  0  0  0  0  0  0  0  0  0  0  0
   35.5005   32.1251   25.8342 C   0  0  0  0  0  0  0  0  0  0  0  0
   34.6210   31.3456   25.6548 O   0  0  0  0  0  0  0  0  0  0  0  0
   34.6567   33.7299   23.6675 C   0  0  0  0  0  0  0  0  0  0  0  0
   35.1649   34.8658   23.1767 C   0  0  0  0  0  0  0  0  0  0  0  0
   36.2705   35.3390   23.8309 N   0  0  0  0  0  0  0  0  0  0  0  0
   33.4853   32.9613   23.1894 C   0  0  0  0  0  0  0  0  0  0  0  0
   32.5662   32.3351   22.8733 N   0  0  0  0  0  0  0  0  0  0  0  0
  1  2  1  0  0  0  0
  1  7  1  0  0  0  0
  2  3  1  0  0  0  0
  2  4  2  0  0  0  0
  4  5  1  0  0  0  0
  5  6  2  0  0  0  0
  5 11  1  0  0  0  0
  6  7  1  0  0  0  0
  6  9  1  0  0  0  0
  7  8  2  0  0  0  0
  9 10  2  0  0  0  0
  9 12  1  0  0  0  0
 10 11  1  0  0  0  0
 12 13  3  0  0  0  0
M  END
>  <CHROM.1>
35.72983065,33.23848683,25.09237144,0.47117521,0.62430002,2.43823352

>  <Name>
ligand

>  <RI>
0

>  <Rbt.Current_Directory>
/home/itssahil/PROJECTS/Mol_Feturizer/New_Systems/rnas/3GCA

>  <Rbt.Executable>
rbdock ($Id: //depot/dev/client3/rdock/2013.1/src/exe/rbdock.cxx#4 $)

>  <Rbt.Library>
libRbt.so (2013.1, Build901 2013/11/27)

>  <Rbt.Parameter_File>
/export/apps/rDock/src/rDock_2013.1_src/data/scripts/dock_solv.prm

>  <Rbt.Receptor>
prm/pocket_docking_5.prm

>  <SCORE>
-24.019

>  <SCORE.INTER>
-24.019

>  <SCORE.INTER.CONST>
1

>  <SCORE.INTER.POLAR>
0

>  <SCORE.INTER.ROT>
0

>  <SCORE.INTER.SOLV>
11.4215

>  <SCORE.INTER.VDW>
-23.4199

>  <SCORE.INTER.norm>
-1.84762

>  <SCORE.INTRA>
0

>  <SCORE.INTRA.DIHEDRAL>
0

>  <SCORE.INTRA.DIHEDRAL.0>
0

>  <SCORE.INTRA.POLAR>
0

>  <SCORE.INTRA.POLAR.0>
0

>  <SCORE.INTRA.REPUL>
0

>  <SCORE.INTRA.REPUL.0>
0

>  <SCORE.INTRA.SOLV>
0

>  <SCORE.INTRA.SOLV.lig_0>
-33.1994

>  <SCORE.INTRA.VDW>
0

>  <SCORE.INTRA.VDW.0>
0

>  <SCORE.INTRA.norm>
0

>  <SCORE.RESTR>
0

>  <SCORE.RESTR.CAVITY>
0

>  <SCORE.RESTR.norm>
0

>  <SCORE.SYSTEM>
0

>  <SCORE.SYSTEM.CONST>
0

>  <SCORE.SYSTEM.DIHEDRAL>
0

>  <SCORE.SYSTEM.SOLV>
0

>  <SCORE.SYSTEM.norm>
0

>  <SCORE.heavy>
13

>  <SCORE.norm>
-1.84762

>  <RMSD>
4.901

$$$$
ligand
 OpenBabel11021811473D
libRbt.so/2013.1/901 2013/11/27
 13 14  0  0  0  0  0  0  0  0999 V2000
   36.4598   32.0347   26.7433 N   0  0  0  0  0  0  0  0  0  0  0  0
   37.5874   33.1386   26.8856 C   0  0  0  0  0  0  0  0  0  0  0  0
   38.5284   33.0120   27.8887 N   0  0  0  0  0  0  0  0  0  0  0  0
   37.4611   34.0596   26.0256 N   0  0  0  0  0  0  0  0  0  0  0  0
   36.5737   34.2285   25.0264 C   0  0  0  0  0  0  0  0  0  0  0  0
   35.5876   33.3319   24.8282 C   0  0  0  0  0  0  0  0  0  0  0  0
   35.5181   32.0969   25.8105 C   0  0  0  0  0  0  0  0  0  0  0  0
   34.6453   31.3116   25.6233 O   0  0  0  0  0  0  0  0  0  0  0  0
   34.6652   33.7117   23.6548 C   0  0  0  0  0  0  0  0  0  0  0  0
   35.1651   34.8555   23.1739 C   0  0  0  0  0  0  0  0  0  0  0  0
   36.2654   35.3326   23.8340 N   0  0  0  0  0  0  0  0  0  0  0  0
   33.5012   32.9372   23.1684 C   0  0  0  0  0  0  0  0  0  0  0  0
   32.5877   32.3060   22.8456 N   0  0  0  0  0  0  0  0  0  0  0  0
  1  2  1  0  0  0  0
  1  7  1  0  0  0  0
  2  3  1  0  0  0  0
  2  4  2  0  0  0  0
  4  5  1  0  0  0  0
  5  6  2  0  0  0  0
  5 11  1  0  0  0  0
  6  7  1  0  0  0  0
  6  9  1  0  0  0  0
  7  8  2  0  0  0  0
  9 10  2  0  0  0  0
  9 12  1  0  0  0  0
 10 11  1  0  0  0  0
 12 13  3  0  0  0  0
M  END
>  <CHROM.1>
35.73963459,33.21791021,25.07793237,0.46494975,0.63106302,2.44972036

>  <Name>
ligand

>  <RI>
0

>  <Rbt.Current_Directory>
/home/itssahil/PROJECTS/Mol_Feturizer/New_Systems/rnas/3GCA

>  <Rbt.Executable>
rbdock ($Id: //depot/dev/client3/rdock/2013.1/src/exe/rbdock.cxx#4 $)

>  <Rbt.Library>
libRbt.so (2013.1, Build901 2013/11/27)

>  <Rbt.Parameter_File>
/export/apps/rDock/src/rDock_2013.1_src/data/scripts/dock_solv.prm

>  <Rbt.Receptor>
prm/pocket_docking_5.prm

>  <SCORE>
-24.018

>  <SCORE.INTER>
-24.018

>  <SCORE.INTER.CONST>
1

>  <SCORE.INTER.POLAR>
0

>  <SCORE.INTER.ROT>
0

>  <SCORE.INTER.SOLV>
11.4149

>  <SCORE.INTER.VDW>
-23.417

>  <SCORE.INTER.norm>
-1.84754

>  <SCORE.INTRA>
0

>  <SCORE.INTRA.DIHEDRAL>
0

>  <SCORE.INTRA.DIHEDRAL.0>
0

>  <SCORE.INTRA.POLAR>
0

>  <SCORE.INTRA.POLAR.0>
0

>  <SCORE.INTRA.REPUL>
0

>  <SCORE.INTRA.REPUL.0>
0

>  <SCORE.INTRA.SOLV>
0

>  <SCORE.INTRA.SOLV.lig_0>
-33.1994

>  <SCORE.INTRA.VDW>
0

>  <SCORE.INTRA.VDW.0>
0

>  <SCORE.INTRA.norm>
0

>  <SCORE.RESTR>
0

>  <SCORE.RESTR.CAVITY>
0

>  <SCORE.RESTR.norm>
0

>  <SCORE.SYSTEM>
0

>  <SCORE.SYSTEM.CONST>
0

>  <SCORE.SYSTEM.DIHEDRAL>
0

>  <SCORE.SYSTEM.SOLV>
0

>  <SCORE.SYSTEM.norm>
0

>  <SCORE.heavy>
13

>  <SCORE.norm>
-1.84754

>  <RMSD>
4.901

$$$$
ligand
 OpenBabel11021811473D
libRbt.so/2013.1/901 2013/11/27
 13 14  0  0  0  0  0  0  0  0999 V2000
   36.4257   32.0246   26.7521 N   0  0  0  0  0  0  0  0  0  0  0  0
   37.5676   33.1156   26.8794 C   0  0  0  0  0  0  0  0  0  0  0  0
   38.5101   32.9875   27.8808 N   0  0  0  0  0  0  0  0  0  0  0  0
   37.4503   34.0291   26.0102 N   0  0  0  0  0  0  0  0  0  0  0  0
   36.5619   34.1988   25.0120 C   0  0  0  0  0  0  0  0  0  0  0  0
   35.5639   33.3127   24.8261 C   0  0  0  0  0  0  0  0  0  0  0  0
   35.4819   32.0890   25.8216 C   0  0  0  0  0  0  0  0  0  0  0  0
   34.5987   31.3129   25.6452 O   0  0  0  0  0  0  0  0  0  0  0  0
   34.6427   33.6919   23.6517 C   0  0  0  0  0  0  0  0  0  0  0  0
   35.1555   34.8243   23.1574 C   0  0  0  0  0  0  0  0  0  0  0  0
   36.2639   35.2942   23.8091 N   0  0  0  0  0  0  0  0  0  0  0  0
   33.4674   32.9273   23.1769 C   0  0  0  0  0  0  0  0  0  0  0  0
   32.5451   32.3044   22.8635 N   0  0  0  0  0  0  0  0  0  0  0  0
  1  2  1  0  0  0  0
  1  7  1  0  0  0  0
  2  3  1  0  0  0  0
  2  4  2  0  0  0  0
  4  5  1  0  0  0  0
  5  6  2  0  0  0  0
  5 11  1  0  0  0  0
  6  7  1  0  0  0  0
  6  9  1  0  0  0  0
  7  8  2  0  0  0  0
  9 10  2  0  0  0  0
  9 12  1  0  0  0  0
 10 11  1  0  0  0  0
 12 13  3  0  0  0  0
M  END
>  <CHROM.1>
35.71531738,33.19942679,25.07661609,0.47443158,0.62052597,2.43373196

>  <Name>
ligand

>  <RI>
0

>  <Rbt.Current_Directory>
/home/itssahil/PROJECTS/Mol_Feturizer/New_Systems/rnas/3GCA

>  <Rbt.Executable>
rbdock ($Id: //depot/dev/client3/rdock/2013.1/src/exe/rbdock.cxx#4 $)

>  <Rbt.Library>
libRbt.so (2013.1, Build901 2013/11/27)

>  <Rbt.Parameter_File>
/export/apps/rDock/src/rDock_2013.1_src/data/scripts/dock_solv.prm

>  <Rbt.Receptor>
prm/pocket_docking_6.prm

>  <SCORE>
-24.0821

>  <SCORE.INTER>
-24.0821

>  <SCORE.INTER.CONST>
1

>  <SCORE.INTER.POLAR>
0

>  <SCORE.INTER.ROT>
0

>  <SCORE.INTER.SOLV>
11.4954

>  <SCORE.INTER.VDW>
-23.4865

>  <SCORE.INTER.norm>
-1.85247

>  <SCORE.INTRA>
0

>  <SCORE.INTRA.DIHEDRAL>
0

>  <SCORE.INTRA.DIHEDRAL.0>
0

>  <SCORE.INTRA.POLAR>
0

>  <SCORE.INTRA.POLAR.0>
0

>  <SCORE.INTRA.REPUL>
0

>  <SCORE.INTRA.REPUL.0>
0

>  <SCORE.INTRA.SOLV>
0

>  <SCORE.INTRA.SOLV.lig_0>
-33.1994

>  <SCORE.INTRA.VDW>
0

>  <SCORE.INTRA.VDW.0>
0

>  <SCORE.INTRA.norm>
0

>  <SCORE.RESTR>
0

>  <SCORE.RESTR.CAVITY>
0

>  <SCORE.RESTR.norm>
0

>  <SCORE.SYSTEM>
0

>  <SCORE.SYSTEM.CONST>
0

>  <SCORE.SYSTEM.DIHEDRAL>
0

>  <SCORE.SYSTEM.SOLV>
0

>  <SCORE.SYSTEM.norm>
0

>  <SCORE.heavy>
13

>  <SCORE.norm>
-1.85247

>  <RMSD>
4.901

$$$$
ligand
 OpenBabel11021811473D
libRbt.so/2013.1/901 2013/11/27
 13 14  0  0  0  0  0  0  0  0999 V2000
   36.4304   32.0376   26.7591 N   0  0  0  0  0  0  0  0  0  0  0  0
   37.5659   33.1345   26.8922 C   0  0  0  0  0  0  0  0  0  0  0  0
   38.5069   33.0086   27.8953 N   0  0  0  0  0  0  0  0  0  0  0  0
   37.4452   34.0501   26.0257 N   0  0  0  0  0  0  0  0  0  0  0  0
   36.5580   34.2180   25.0262 C   0  0  0  0  0  0  0  0  0  0  0  0
   35.5654   33.3270   24.8354 C   0  0  0  0  0  0  0  0  0  0  0  0
   35.4882   32.0996   25.8267 C   0  0  0  0  0  0  0  0  0  0  0  0
   34.6097   31.3192   25.6460 O   0  0  0  0  0  0  0  0  0  0  0  0
   34.6446   33.7047   23.6602 C   0  0  0  0  0  0  0  0  0  0  0  0
   35.1520   34.8415   23.1706 C   0  0  0  0  0  0  0  0  0  0  0  0
   36.2563   35.3156   23.8261 N   0  0  0  0  0  0  0  0  0  0  0  0
   33.4746   32.9350   23.1805 C   0  0  0  0  0  0  0  0  0  0  0  0
   32.5565   32.3079   22.8631 N   0  0  0  0  0  0  0  0  0  0  0  0
  1  2  1  0  0  0  0
  1  7  1  0  0  0  0
  2  3  1  0  0  0  0
  2  4  2  0  0  0  0
  4  5  1  0  0  0  0
  5  6  2  0  0  0  0
  5 11  1  0  0  0  0
  6  7  1  0  0  0  0
  6  9  1  0  0  0  0
  7  8  2  0  0  0  0
  9 10  2  0  0  0  0
  9 12  1  0  0  0  0
 10 11  1  0  0  0  0
 12 13  3  0  0  0  0
M  END
>  <CHROM.1>
35.71691602,33.21372575,25.08581956,0.47084508,0.62579206,2.43901915

>  <Name>
ligand

>  <RI>
0

>  <Rbt.Current_Directory>
/home/itssahil/PROJECTS/Mol_Feturizer/New_Systems/rnas/3GCA

>  <Rbt.Executable>
rbdock ($Id: //depot/dev/client3/rdock/2013.1/src/exe/rbdock.cxx#4 $)

>  <Rbt.Library>
libRbt.so (2013.1, Build901 2013/11/27)

>  <Rbt.Parameter_File>
/export/apps/rDock/src/rDock_2013.1_src/data/scripts/dock_solv.prm

>  <Rbt.Receptor>
prm/pocket_docking_7.prm

>  <SCORE>
-24.0319

>  <SCORE.INTER>
-24.0319

>  <SCORE.INTER.CONST>
1

>  <SCORE.INTER.POLAR>
0

>  <SCORE.INTER.ROT>
0

>  <SCORE.INTER.SOLV>
11.5094

>  <SCORE.INTER.VDW>
-23.4577

>  <SCORE.INTER.norm>
-1.84861

>  <SCORE.INTRA>
0

>  <SCORE.INTRA.DIHEDRAL>
0

>  <SCORE.INTRA.DIHEDRAL.0>
0

>  <SCORE.INTRA.POLAR>
0

>  <SCORE.INTRA.POLAR.0>
0

>  <SCORE.INTRA.REPUL>
0

>  <SCORE.INTRA.REPUL.0>
0

>  <SCORE.INTRA.SOLV>
0

>  <SCORE.INTRA.SOLV.lig_0>
-33.1994

>  <SCORE.INTRA.VDW>
0

>  <SCORE.INTRA.VDW.0>
0

>  <SCORE.INTRA.norm>
0

>  <SCORE.RESTR>
0

>  <SCORE.RESTR.CAVITY>
0

>  <SCORE.RESTR.norm>
0

>  <SCORE.SYSTEM>
0

>  <SCORE.SYSTEM.CONST>
0

>  <SCORE.SYSTEM.DIHEDRAL>
0

>  <SCORE.SYSTEM.SOLV>
0

>  <SCORE.SYSTEM.norm>
0

>  <SCORE.heavy>
13

>  <SCORE.norm>
-1.84861

>  <RMSD>
4.901

$$$$
ligand
 OpenBabel11021811473D
libRbt.so/2013.1/901 2013/11/27
 13 14  0  0  0  0  0  0  0  0999 V2000
   36.4326   32.0153   26.7451 N   0  0  0  0  0  0  0  0  0  0  0  0
   37.5659   33.1140   26.8823 C   0  0  0  0  0  0  0  0  0  0  0  0
   38.5093   32.9844   27.8827 N   0  0  0  0  0  0  0  0  0  0  0  0
   37.4413   34.0343   26.0213 N   0  0  0  0  0  0  0  0  0  0  0  0
   36.5517   34.2060   25.0246 C   0  0  0  0  0  0  0  0  0  0  0  0
   35.5608   33.3137   24.8306 C   0  0  0  0  0  0  0  0  0  0  0  0
   35.4884   32.0805   25.8150 C   0  0  0  0  0  0  0  0  0  0  0  0
   34.6114   31.2991   25.6316 O   0  0  0  0  0  0  0  0  0  0  0  0
   34.6367   33.6962   23.6596 C   0  0  0  0  0  0  0  0  0  0  0  0
   35.1405   34.8370   23.1755 C   0  0  0  0  0  0  0  0  0  0  0  0
   36.2450   35.3098   23.8315 N   0  0  0  0  0  0  0  0  0  0  0  0
   33.4675   32.9265   23.1778 C   0  0  0  0  0  0  0  0  0  0  0  0
   32.5501   32.2992   22.8587 N   0  0  0  0  0  0  0  0  0  0  0  0
  1  2  1  0  0  0  0
  1  7  1  0  0  0  0
  2  3  1  0  0  0  0
  2  4  2  0  0  0  0
  4  5  1  0  0  0  0
  5  6  2  0  0  0  0
  5 11  1  0  0  0  0
  6  7  1  0  0  0  0
  6  9  1  0  0  0  0
  7  8  2  0  0  0  0
  9 10  2  0  0  0  0
  9 12  1  0  0  0  0
 10 11  1  0  0  0  0
 12 13  3  0  0  0  0
M  END
>  <CHROM.1>
35.71305493,33.19940364,25.08011857,0.46705016,0.62571209,2.44703219

>  <Name>
ligand

>  <RI>
0

>  <Rbt.Current_Directory>
/home/itssahil/PROJECTS/Mol_Feturizer/New_Systems/rnas/3GCA

>  <Rbt.Executable>
rbdock ($Id: //depot/dev/client3/rdock/2013.1/src/exe/rbdock.cxx#4 $)

>  <Rbt.Library>
libRbt.so (2013.1, Build901 2013/11/27)

>  <Rbt.Parameter_File>
/export/apps/rDock/src/rDock_2013.1_src/data/scripts/dock_solv.prm

>  <Rbt.Receptor>
prm/pocket_docking_7.prm

>  <SCORE>
-24.043

>  <SCORE.INTER>
-24.043

>  <SCORE.INTER.CONST>
1

>  <SCORE.INTER.POLAR>
0

>  <SCORE.INTER.ROT>
0

>  <SCORE.INTER.SOLV>
11.5132

>  <SCORE.INTER.VDW>
-23.4664

>  <SCORE.INTER.norm>
-1.84946

>  <SCORE.INTRA>
0

>  <SCORE.INTRA.DIHEDRAL>
0

>  <SCORE.INTRA.DIHEDRAL.0>
0

>  <SCORE.INTRA.POLAR>
0

>  <SCORE.INTRA.POLAR.0>
0

>  <SCORE.INTRA.REPUL>
0

>  <SCORE.INTRA.REPUL.0>
0

>  <SCORE.INTRA.SOLV>
0

>  <SCORE.INTRA.SOLV.lig_0>
-33.1994

>  <SCORE.INTRA.VDW>
0

>  <SCORE.INTRA.VDW.0>
0

>  <SCORE.INTRA.norm>
0

>  <SCORE.RESTR>
0

>  <SCORE.RESTR.CAVITY>
0

>  <SCORE.RESTR.norm>
0

>  <SCORE.SYSTEM>
0

>  <SCORE.SYSTEM.CONST>
0

>  <SCORE.SYSTEM.DIHEDRAL>
0

>  <SCORE.SYSTEM.SOLV>
0

>  <SCORE.SYSTEM.norm>
0

>  <SCORE.heavy>
13

>  <SCORE.norm>
-1.84946

>  <RMSD>
4.901

$$$$
ligand
 OpenBabel11021811473D
libRbt.so/2013.1/901 2013/11/27
 13 14  0  0  0  0  0  0  0  0999 V2000
   36.4227   32.0759   26.7826 N   0  0  0  0  0  0  0  0  0  0  0  0
   37.5617   33.1699   26.9097 C   0  0  0  0  0  0  0  0  0  0  0  0
   38.5014   33.0474   27.9144 N   0  0  0  0  0  0  0  0  0  0  0  0
   37.4448   34.0802   26.0370 N   0  0  0  0  0  0  0  0  0  0  0  0
   36.5591   34.2445   25.0356 C   0  0  0  0  0  0  0  0  0  0  0  0
   35.5637   33.3555   24.8497 C   0  0  0  0  0  0  0  0  0  0  0  0
   35.4816   32.1350   25.8490 C   0  0  0  0  0  0  0  0  0  0  0  0
   34.6007   31.3562   25.6726 O   0  0  0  0  0  0  0  0  0  0  0  0
   34.6453   33.7286   23.6712 C   0  0  0  0  0  0  0  0  0  0  0  0
   35.1569   34.8604   23.1746 C   0  0  0  0  0  0  0  0  0  0  0  0
   36.2622   35.3351   23.8281 N   0  0  0  0  0  0  0  0  0  0  0  0
   33.4732   32.9596   23.1955 C   0  0  0  0  0  0  0  0  0  0  0  0
   32.5532   32.3335   22.8814 N   0  0  0  0  0  0  0  0  0  0  0  0
  1  2  1  0  0  0  0
  1  7  1  0  0  0  0
  2  3  1  0  0  0  0
  2  4  2  0  0  0  0
  4  5  1  0  0  0  0
  5  6  2  0  0  0  0
  5 11  1  0  0  0  0
  6  7  1  0  0  0  0
  6  9  1  0  0  0  0
  7  8  2  0  0  0  0
  9 10  2  0  0  0  0
  9 12  1  0  0  0  0
 10 11  1  0  0  0  0
 12 13  3  0  0  0  0
M  END
>  <CHROM.1>
35.71463527,33.24338412,25.10102882,0.47469760,0.62434508,2.43019686

>  <Name>
ligand

>  <RI>
0

>  <Rbt.Current_Directory>
/home/itssahil/PROJECTS/Mol_Feturizer/New_Systems/rnas/3GCA

>  <Rbt.Executable>
rbdock ($Id: //depot/dev/client3/rdock/2013.1/src/exe/rbdock.cxx#4 $)

>  <Rbt.Library>
libRbt.so (2013.1, Build901 2013/11/27)

>  <Rbt.Parameter_File>
/export/apps/rDock/src/rDock_2013.1_src/data/scripts/dock_solv.prm

>  <Rbt.Receptor>
prm/pocket_docking_7.prm

>  <SCORE>
-24.063

>  <SCORE.INTER>
-24.063

>  <SCORE.INTER.CONST>
1

>  <SCORE.INTER.POLAR>
0

>  <SCORE.INTER.ROT>
0

>  <SCORE.INTER.SOLV>
11.5168

>  <SCORE.INTER.VDW>
-23.4809

>  <SCORE.INTER.norm>
-1.851

>  <SCORE.INTRA>
0

>  <SCORE.INTRA.DIHEDRAL>
0

>  <SCORE.INTRA.DIHEDRAL.0>
0

>  <SCORE.INTRA.POLAR>
0

>  <SCORE.INTRA.POLAR.0>
0

>  <SCORE.INTRA.REPUL>
0

>  <SCORE.INTRA.REPUL.0>
0

>  <SCORE.INTRA.SOLV>
0

>  <SCORE.INTRA.SOLV.lig_0>
-33.1994

>  <SCORE.INTRA.VDW>
0

>  <SCORE.INTRA.VDW.0>
0

>  <SCORE.INTRA.norm>
0

>  <SCORE.RESTR>
0

>  <SCORE.RESTR.CAVITY>
0

>  <SCORE.RESTR.norm>
0

>  <SCORE.SYSTEM>
0

>  <SCORE.SYSTEM.CONST>
0

>  <SCORE.SYSTEM.DIHEDRAL>
0

>  <SCORE.SYSTEM.SOLV>
0

>  <SCORE.SYSTEM.norm>
0

>  <SCORE.heavy>
13

>  <SCORE.norm>
-1.851

>  <RMSD>
4.901

$$$$
ligand
 OpenBabel11021811473D
libRbt.so/2013.1/901 2013/11/27
 13 14  0  0  0  0  0  0  0  0999 V2000
   36.4293   32.0201   26.7479 N   0  0  0  0  0  0  0  0  0  0  0  0
   37.5600   33.1213   26.8863 C   0  0  0  0  0  0  0  0  0  0  0  0
   38.5030   32.9934   27.8874 N   0  0  0  0  0  0  0  0  0  0  0  0
   37.4341   34.0417   26.0256 N   0  0  0  0  0  0  0  0  0  0  0  0
   36.5449   34.2117   25.0283 C   0  0  0  0  0  0  0  0  0  0  0  0
   35.5560   33.3174   24.8333 C   0  0  0  0  0  0  0  0  0  0  0  0
   35.4856   32.0837   25.8172 C   0  0  0  0  0  0  0  0  0  0  0  0
   34.6104   31.3004   25.6329 O   0  0  0  0  0  0  0  0  0  0  0  0
   34.6319   33.6983   23.6617 C   0  0  0  0  0  0  0  0  0  0  0  0
   35.1336   34.8403   23.1784 C   0  0  0  0  0  0  0  0  0  0  0  0
   36.2367   35.3152   23.8354 N   0  0  0  0  0  0  0  0  0  0  0  0
   33.4647   32.9263   23.1788 C   0  0  0  0  0  0  0  0  0  0  0  0
   32.5489   32.2971   22.8588 N   0  0  0  0  0  0  0  0  0  0  0  0
  1  2  1  0  0  0  0
  1  7  1  0  0  0  0
  2  3  1  0  0  0  0
  2  4  2  0  0  0  0
  4  5  1  0  0  0  0
  5  6  2  0  0  0  0
  5 11  1  0  0  0  0
  6  7  1  0  0  0  0
  6  9  1  0  0  0  0
  7  8  2  0  0  0  0
  9 10  2  0  0  0  0
  9 12  1  0  0  0  0
 10 11  1  0  0  0  0
 12 13  3  0  0  0  0
M  END
>  <CHROM.1>
35.70832219,33.20331412,25.08287212,0.46556767,0.62764363,2.44824830

>  <Name>
ligand

>  <RI>
0

>  <Rbt.Current_Directory>
/home/itssahil/PROJECTS/Mol_Feturizer/New_Systems/rnas/3GCA

>  <Rbt.Executable>
rbdock ($Id: //depot/dev/client3/rdock/2013.1/src/exe/rbdock.cxx#4 $)

>  <Rbt.Library>
libRbt.so (2013.1, Build901 2013/11/27)

>  <Rbt.Parameter_File>
/export/apps/rDock/src/rDock_2013.1_src/data/scripts/dock_solv.prm

>  <Rbt.Receptor>
prm/pocket_docking_7.prm

>  <SCORE>
-24.0432

>  <SCORE.INTER>
-24.0432

>  <SCORE.INTER.CONST>
1

>  <SCORE.INTER.POLAR>
0

>  <SCORE.INTER.ROT>
0

>  <SCORE.INTER.SOLV>
11.5412

>  <SCORE.INTER.VDW>
-23.4759

>  <SCORE.INTER.norm>
-1.84948

>  <SCORE.INTRA>
0

>  <SCORE.INTRA.DIHEDRAL>
0

>  <SCORE.INTRA.DIHEDRAL.0>
0

>  <SCORE.INTRA.POLAR>
0

>  <SCORE.INTRA.POLAR.0>
0

>  <SCORE.INTRA.REPUL>
0

>  <SCORE.INTRA.REPUL.0>
0

>  <SCORE.INTRA.SOLV>
0

>  <SCORE.INTRA.SOLV.lig_0>
-33.1994

>  <SCORE.INTRA.VDW>
0

>  <SCORE.INTRA.VDW.0>
0

>  <SCORE.INTRA.norm>
0

>  <SCORE.RESTR>
0

>  <SCORE.RESTR.CAVITY>
0

>  <SCORE.RESTR.norm>
0

>  <SCORE.SYSTEM>
0

>  <SCORE.SYSTEM.CONST>
0

>  <SCORE.SYSTEM.DIHEDRAL>
0

>  <SCORE.SYSTEM.SOLV>
0

>  <SCORE.SYSTEM.norm>
0

>  <SCORE.heavy>
13

>  <SCORE.norm>
-1.84948

>  <RMSD>
4.901

$$$$
ligand
 OpenBabel11021811473D
libRbt.so/2013.1/901 2013/11/27
 13 14  0  0  0  0  0  0  0  0999 V2000
   36.3983   32.1266   26.7263 N   0  0  0  0  0  0  0  0  0  0  0  0
   37.5396   33.2210   26.8267 C   0  0  0  0  0  0  0  0  0  0  0  0
   38.4870   33.1136   27.8259 N   0  0  0  0  0  0  0  0  0  0  0  0
   37.4171   34.1171   25.9403 N   0  0  0  0  0  0  0  0  0  0  0  0
   36.5239   34.2663   24.9432 C   0  0  0  0  0  0  0  0  0  0  0  0
   35.5260   33.3757   24.7795 C   0  0  0  0  0  0  0  0  0  0  0  0
   35.4501   32.1717   25.7992 C   0  0  0  0  0  0  0  0  0  0  0  0
   34.5669   31.3914   25.6423 O   0  0  0  0  0  0  0  0  0  0  0  0
   34.5988   33.7309   23.6023 C   0  0  0  0  0  0  0  0  0  0  0  0
   35.1079   34.8538   23.0833 C   0  0  0  0  0  0  0  0  0  0  0  0
   36.2189   35.3376   23.7204 N   0  0  0  0  0  0  0  0  0  0  0  0
   33.4221   32.9559   23.1482 C   0  0  0  0  0  0  0  0  0  0  0  0
   32.4990   32.3260   22.8515 N   0  0  0  0  0  0  0  0  0  0  0  0
  1  2  1  0  0  0  0
  1  7  1  0  0  0  0
  2  3  1  0  0  0  0
  2  4  2  0  0  0  0
  4  5  1  0  0  0  0
  5  6  2  0  0  0  0
  5 11  1  0  0  0  0
  6  7  1  0  0  0  0
  6  9  1  0  0  0  0
  7  8  2  0  0  0  0
  9 10  2  0  0  0  0
  9 12  1  0  0  0  0
 10 11  1  0  0  0  0
 12 13  3  0  0  0  0
M  END
>  <CHROM.1>
35.67867732,33.26754048,25.03144080,0.46961149,0.61764194,2.41689579

>  <Name>
ligand

>  <RI>
0

>  <Rbt.Current_Directory>
/home/itssahil/PROJECTS/Mol_Feturizer/New_Systems/rnas/3GCA

>  <Rbt.Executable>
rbdock ($Id: //depot/dev/client3/rdock/2013.1/src/exe/rbdock.cxx#4 $)

>  <Rbt.Library>
libRbt.so (2013.1, Build901 2013/11/27)

>  <Rbt.Parameter_File>
/export/apps/rDock/src/rDock_2013.1_src/data/scripts/dock_solv.prm

>  <Rbt.Receptor>
prm/pocket_docking_8.prm

>  <SCORE>
-24.0333

>  <SCORE.INTER>
-24.0333

>  <SCORE.INTER.CONST>
1

>  <SCORE.INTER.POLAR>
0

>  <SCORE.INTER.ROT>
0

>  <SCORE.INTER.SOLV>
11.4436

>  <SCORE.INTER.VDW>
-23.4367

>  <SCORE.INTER.norm>
-1.84871

>  <SCORE.INTRA>
0

>  <SCORE.INTRA.DIHEDRAL>
0

>  <SCORE.INTRA.DIHEDRAL.0>
0

>  <SCORE.INTRA.POLAR>
0

>  <SCORE.INTRA.POLAR.0>
0

>  <SCORE.INTRA.REPUL>
0

>  <SCORE.INTRA.REPUL.0>
0

>  <SCORE.INTRA.SOLV>
0

>  <SCORE.INTRA.SOLV.lig_0>
-33.1994

>  <SCORE.INTRA.VDW>
0

>  <SCORE.INTRA.VDW.0>
0

>  <SCORE.INTRA.norm>
0

>  <SCORE.RESTR>
0

>  <SCORE.RESTR.CAVITY>
0

>  <SCORE.RESTR.norm>
0

>  <SCORE.SYSTEM>
0

>  <SCORE.SYSTEM.CONST>
0

>  <SCORE.SYSTEM.DIHEDRAL>
0

>  <SCORE.SYSTEM.SOLV>
0

>  <SCORE.SYSTEM.norm>
0

>  <SCORE.heavy>
13

>  <SCORE.norm>
-1.84871

>  <RMSD>
4.901

$$$$
ligand
 OpenBabel11021811473D
libRbt.so/2013.1/901 2013/11/27
 13 14  0  0  0  0  0  0  0  0999 V2000
   36.4119   32.0486   26.7734 N   0  0  0  0  0  0  0  0  0  0  0  0
   37.5506   33.1430   26.8998 C   0  0  0  0  0  0  0  0  0  0  0  0
   38.4886   33.0229   27.9065 N   0  0  0  0  0  0  0  0  0  0  0  0
   37.4353   34.0512   26.0248 N   0  0  0  0  0  0  0  0  0  0  0  0
   36.5514   34.2131   25.0214 C   0  0  0  0  0  0  0  0  0  0  0  0
   35.5563   33.3236   24.8359 C   0  0  0  0  0  0  0  0  0  0  0  0
   35.4724   32.1054   25.8380 C   0  0  0  0  0  0  0  0  0  0  0  0
   34.5919   31.3263   25.6619 O   0  0  0  0  0  0  0  0  0  0  0  0
   34.6399   33.6938   23.6550 C   0  0  0  0  0  0  0  0  0  0  0  0
   35.1523   34.8246   23.1565 C   0  0  0  0  0  0  0  0  0  0  0  0
   36.2565   35.3008   23.8108 N   0  0  0  0  0  0  0  0  0  0  0  0
   33.4686   32.9237   23.1790 C   0  0  0  0  0  0  0  0  0  0  0  0
   32.5493   32.2968   22.8648 N   0  0  0  0  0  0  0  0  0  0  0  0
  1  2  1  0  0  0  0
  1  7  1  0  0  0  0
  2  3  1  0  0  0  0
  2  4  2  0  0  0  0
  4  5  1  0  0  0  0
  5  6  2  0  0  0  0
  5 11  1  0  0  0  0
  6  7  1  0  0  0  0
  6  9  1  0  0  0  0
  7  8  2  0  0  0  0
  9 10  2  0  0  0  0
  9 12  1  0  0  0  0
 10 11  1  0  0  0  0
 12 13  3  0  0  0  0
M  END
>  <CHROM.1>
35.70677768,33.21209926,25.08777339,0.47607142,0.62568931,2.42702267

>  <Name>
ligand

>  <RI>
0

>  <Rbt.Current_Directory>
/home/itssahil/PROJECTS/Mol_Feturizer/New_Systems/rnas/3GCA

>  <Rbt.Executable>
rbdock ($Id: //depot/dev/client3/rdock/2013.1/src/exe/rbdock.cxx#4 $)

>  <Rbt.Library>
libRbt.so (2013.1, Build901 2013/11/27)

>  <Rbt.Parameter_File>
/export/apps/rDock/src/rDock_2013.1_src/data/scripts/dock_solv.prm

>  <Rbt.Receptor>
prm/blind_docking_100.prm

>  <SCORE>
-24.0349

>  <SCORE.INTER>
-24.0349

>  <SCORE.INTER.CONST>
1

>  <SCORE.INTER.POLAR>
0

>  <SCORE.INTER.ROT>
0

>  <SCORE.INTER.SOLV>
11.5885

>  <SCORE.INTER.VDW>
-23.4861

>  <SCORE.INTER.norm>
-1.84884

>  <SCORE.INTRA>
0

>  <SCORE.INTRA.DIHEDRAL>
0

>  <SCORE.INTRA.DIHEDRAL.0>
0

>  <SCORE.INTRA.POLAR>
0

>  <SCORE.INTRA.POLAR.0>
0

>  <SCORE.INTRA.REPUL>
0

>  <SCORE.INTRA.REPUL.0>
0

>  <SCORE.INTRA.SOLV>
0

>  <SCORE.INTRA.SOLV.lig_0>
-33.1994

>  <SCORE.INTRA.VDW>
0

>  <SCORE.INTRA.VDW.0>
0

>  <SCORE.INTRA.norm>
0

>  <SCORE.RESTR>
0

>  <SCORE.RESTR.CAVITY>
0

>  <SCORE.RESTR.norm>
0

>  <SCORE.SYSTEM>
0

>  <SCORE.SYSTEM.CONST>
0

>  <SCORE.SYSTEM.DIHEDRAL>
0

>  <SCORE.SYSTEM.SOLV>
0

>  <SCORE.SYSTEM.norm>
0

>  <SCORE.heavy>
13

>  <SCORE.norm>
-1.84884

>  <RMSD>
4.902

$$$$
ligand
 OpenBabel11021811473D
libRbt.so/2013.1/901 2013/11/27
 13 14  0  0  0  0  0  0  0  0999 V2000
   36.4104   32.0859   26.7922 N   0  0  0  0  0  0  0  0  0  0  0  0
   37.5419   33.1876   26.9208 C   0  0  0  0  0  0  0  0  0  0  0  0
   38.4760   33.0759   27.9320 N   0  0  0  0  0  0  0  0  0  0  0  0
   37.4248   34.0928   26.0429 N   0  0  0  0  0  0  0  0  0  0  0  0
   36.5444   34.2466   25.0352 C   0  0  0  0  0  0  0  0  0  0  0  0
   35.5557   33.3505   24.8476 C   0  0  0  0  0  0  0  0  0  0  0  0
   35.4748   32.1345   25.8525 C   0  0  0  0  0  0  0  0  0  0  0  0
   34.5999   31.3494   25.6745 O   0  0  0  0  0  0  0  0  0  0  0  0
   34.6423   33.7120   23.6616 C   0  0  0  0  0  0  0  0  0  0  0  0
   35.1500   34.8446   23.1625 C   0  0  0  0  0  0  0  0  0  0  0  0
   36.2482   35.3294   23.8205 N   0  0  0  0  0  0  0  0  0  0  0  0
   33.4779   32.9335   23.1825 C   0  0  0  0  0  0  0  0  0  0  0  0
   32.5639   32.3001   22.8658 N   0  0  0  0  0  0  0  0  0  0  0  0
  1  2  1  0  0  0  0
  1  7  1  0  0  0  0
  2  3  1  0  0  0  0
  2  4  2  0  0  0  0
  4  5  1  0  0  0  0
  5  6  2  0  0  0  0
  5 11  1  0  0  0  0
  6  7  1  0  0  0  0
  6  9  1  0  0  0  0
  7  8  2  0  0  0  0
  9 10  2  0  0  0  0
  9 12  1  0  0  0  0
 10 11  1  0  0  0  0
 12 13  3  0  0  0  0
M  END
>  <CHROM.1>
35.70570561,33.24059698,25.10043663,0.47394058,0.63309443,2.42566821

>  <Name>
ligand

>  <RI>
0

>  <Rbt.Current_Directory>
/home/itssahil/PROJECTS/Mol_Feturizer/New_Systems/rnas/3GCA

>  <Rbt.Executable>
rbdock ($Id: //depot/dev/client3/rdock/2013.1/src/exe/rbdock.cxx#4 $)

>  <Rbt.Library>
libRbt.so (2013.1, Build901 2013/11/27)

>  <Rbt.Parameter_File>
/export/apps/rDock/src/rDock_2013.1_src/data/scripts/dock_solv.prm

>  <Rbt.Receptor>
prm/blind_docking_60.prm

>  <SCORE>
-24.0646

>  <SCORE.INTER>
-24.0646

>  <SCORE.INTER.CONST>
1

>  <SCORE.INTER.POLAR>
0

>  <SCORE.INTER.ROT>
0

>  <SCORE.INTER.SOLV>
11.6309

>  <SCORE.INTER.VDW>
-23.52

>  <SCORE.INTER.norm>
-1.85112

>  <SCORE.INTRA>
0

>  <SCORE.INTRA.DIHEDRAL>
0

>  <SCORE.INTRA.DIHEDRAL.0>
0

>  <SCORE.INTRA.POLAR>
0

>  <SCORE.INTRA.POLAR.0>
0

>  <SCORE.INTRA.REPUL>
0

>  <SCORE.INTRA.REPUL.0>
0

>  <SCORE.INTRA.SOLV>
0

>  <SCORE.INTRA.SOLV.lig_0>
-33.1994

>  <SCORE.INTRA.VDW>
0

>  <SCORE.INTRA.VDW.0>
0

>  <SCORE.INTRA.norm>
0

>  <SCORE.RESTR>
0

>  <SCORE.RESTR.CAVITY>
0

>  <SCORE.RESTR.norm>
0

>  <SCORE.SYSTEM>
0

>  <SCORE.SYSTEM.CONST>
0

>  <SCORE.SYSTEM.DIHEDRAL>
0

>  <SCORE.SYSTEM.SOLV>
0

>  <SCORE.SYSTEM.norm>
0

>  <SCORE.heavy>
13

>  <SCORE.norm>
-1.85112

>  <RMSD>
4.902

$$$$
ligand
 OpenBabel11021811473D
libRbt.so/2013.1/901 2013/11/27
 13 14  0  0  0  0  0  0  0  0999 V2000
   36.4586   32.0311   26.7584 N   0  0  0  0  0  0  0  0  0  0  0  0
   37.5955   33.1263   26.8939 C   0  0  0  0  0  0  0  0  0  0  0  0
   38.5335   32.9996   27.8997 N   0  0  0  0  0  0  0  0  0  0  0  0
   37.4788   34.0413   26.0263 N   0  0  0  0  0  0  0  0  0  0  0  0
   36.5947   34.2098   25.0241 C   0  0  0  0  0  0  0  0  0  0  0  0
   35.6012   33.3202   24.8312 C   0  0  0  0  0  0  0  0  0  0  0  0
   35.5192   32.0938   25.8234 C   0  0  0  0  0  0  0  0  0  0  0  0
   34.6400   31.3146   25.6408 O   0  0  0  0  0  0  0  0  0  0  0  0
   34.6843   33.6985   23.6531 C   0  0  0  0  0  0  0  0  0  0  0  0
   35.1949   34.8341   23.1640 C   0  0  0  0  0  0  0  0  0  0  0  0
   36.2982   35.3069   23.8223 N   0  0  0  0  0  0  0  0  0  0  0  0
   33.5144   32.9303   23.1707 C   0  0  0  0  0  0  0  0  0  0  0  0
   32.5962   32.3044   22.8513 N   0  0  0  0  0  0  0  0  0  0  0  0
  1  2  1  0  0  0  0
  1  7  1  0  0  0  0
  2  3  1  0  0  0  0
  2  4  2  0  0  0  0
  4  5  1  0  0  0  0
  5  6  2  0  0  0  0
  5 11  1  0  0  0  0
  6  7  1  0  0  0  0
  6  9  1  0  0  0  0
  7  8  2  0  0  0  0
  9 10  2  0  0  0  0
  9 12  1  0  0  0  0
 10 11  1  0  0  0  0
 12 13  3  0  0  0  0
M  END
>  <CHROM.1>
35.75180335,33.20694735,25.08218143,0.47462129,0.62690648,2.43598079

>  <Name>
ligand

>  <RI>
0

>  <Rbt.Current_Directory>
/home/itssahil/PROJECTS/Mol_Feturizer/New_Systems/rnas/3GCA

>  <Rbt.Executable>
rbdock ($Id: //depot/dev/client3/rdock/2013.1/src/exe/rbdock.cxx#4 $)

>  <Rbt.Library>
libRbt.so (2013.1, Build901 2013/11/27)

>  <Rbt.Parameter_File>
/export/apps/rDock/src/rDock_2013.1_src/data/scripts/dock_solv.prm

>  <Rbt.Receptor>
prm/blind_docking_60.prm

>  <SCORE>
-23.9675

>  <SCORE.INTER>
-23.9675

>  <SCORE.INTER.CONST>
1

>  <SCORE.INTER.POLAR>
0

>  <SCORE.INTER.ROT>
0

>  <SCORE.INTER.SOLV>
11.4024

>  <SCORE.INTER.VDW>
-23.3791

>  <SCORE.INTER.norm>
-1.84365

>  <SCORE.INTRA>
0

>  <SCORE.INTRA.DIHEDRAL>
0

>  <SCORE.INTRA.DIHEDRAL.0>
0

>  <SCORE.INTRA.POLAR>
0

>  <SCORE.INTRA.POLAR.0>
0

>  <SCORE.INTRA.REPUL>
0

>  <SCORE.INTRA.REPUL.0>
0

>  <SCORE.INTRA.SOLV>
0

>  <SCORE.INTRA.SOLV.lig_0>
-33.1994

>  <SCORE.INTRA.VDW>
0

>  <SCORE.INTRA.VDW.0>
0

>  <SCORE.INTRA.norm>
0

>  <SCORE.RESTR>
0

>  <SCORE.RESTR.CAVITY>
0

>  <SCORE.RESTR.norm>
0

>  <SCORE.SYSTEM>
0

>  <SCORE.SYSTEM.CONST>
0

>  <SCORE.SYSTEM.DIHEDRAL>
0

>  <SCORE.SYSTEM.SOLV>
0

>  <SCORE.SYSTEM.norm>
0

>  <SCORE.heavy>
13

>  <SCORE.norm>
-1.84365

>  <RMSD>
4.902

$$$$
ligand
 OpenBabel11021811473D
libRbt.so/2013.1/901 2013/11/27
 13 14  0  0  0  0  0  0  0  0999 V2000
   36.4325   32.0487   26.7666 N   0  0  0  0  0  0  0  0  0  0  0  0
   37.5596   33.1536   26.9047 C   0  0  0  0  0  0  0  0  0  0  0  0
   38.4995   33.0322   27.9094 N   0  0  0  0  0  0  0  0  0  0  0  0
   37.4340   34.0702   26.0400 N   0  0  0  0  0  0  0  0  0  0  0  0
   36.5477   34.2339   25.0390 C   0  0  0  0  0  0  0  0  0  0  0  0
   35.5620   33.3361   24.8441 C   0  0  0  0  0  0  0  0  0  0  0  0
   35.4918   32.1060   25.8325 C   0  0  0  0  0  0  0  0  0  0  0  0
   34.6194   31.3195   25.6482 O   0  0  0  0  0  0  0  0  0  0  0  0
   34.6408   33.7098   23.6679 C   0  0  0  0  0  0  0  0  0  0  0  0
   35.1409   34.8514   23.1819 C   0  0  0  0  0  0  0  0  0  0  0  0
   36.2404   35.3320   23.8408 N   0  0  0  0  0  0  0  0  0  0  0  0
   33.4775   32.9326   23.1840 C   0  0  0  0  0  0  0  0  0  0  0  0
   32.5646   32.2996   22.8634 N   0  0  0  0  0  0  0  0  0  0  0  0
  1  2  1  0  0  0  0
  1  7  1  0  0  0  0
  2  3  1  0  0  0  0
  2  4  2  0  0  0  0
  4  5  1  0  0  0  0
  5  6  2  0  0  0  0
  5 11  1  0  0  0  0
  6  7  1  0  0  0  0
  6  9  1  0  0  0  0
  7  8  2  0  0  0  0
  9 10  2  0  0  0  0
  9 12  1  0  0  0  0
 10 11  1  0  0  0  0
 12 13  3  0  0  0  0
M  END
>  <CHROM.1>
35.71381522,33.22337386,25.09460721,0.46555957,0.63207503,2.44440831

>  <Name>
ligand

>  <RI>
0

>  <Rbt.Current_Directory>
/home/itssahil/PROJECTS/Mol_Feturizer/New_Systems/rnas/3GCA

>  <Rbt.Executable>
rbdock ($Id: //depot/dev/client3/rdock/2013.1/src/exe/rbdock.cxx#4 $)

>  <Rbt.Library>
libRbt.so (2013.1, Build901 2013/11/27)

>  <Rbt.Parameter_File>
/export/apps/rDock/src/rDock_2013.1_src/data/scripts/dock_solv.prm

>  <Rbt.Receptor>
prm/blind_docking_60.prm

>  <SCORE>
-24.0276

>  <SCORE.INTER>
-24.0276

>  <SCORE.INTER.CONST>
1

>  <SCORE.INTER.POLAR>
0

>  <SCORE.INTER.ROT>
0

>  <SCORE.INTER.SOLV>
11.548

>  <SCORE.INTER.VDW>
-23.4677

>  <SCORE.INTER.norm>
-1.84828

>  <SCORE.INTRA>
0

>  <SCORE.INTRA.DIHEDRAL>
0

>  <SCORE.INTRA.DIHEDRAL.0>
0

>  <SCORE.INTRA.POLAR>
0

>  <SCORE.INTRA.POLAR.0>
0

>  <SCORE.INTRA.REPUL>
0

>  <SCORE.INTRA.REPUL.0>
0

>  <SCORE.INTRA.SOLV>
0

>  <SCORE.INTRA.SOLV.lig_0>
-33.1994

>  <SCORE.INTRA.VDW>
0

>  <SCORE.INTRA.VDW.0>
0

>  <SCORE.INTRA.norm>
0

>  <SCORE.RESTR>
0

>  <SCORE.RESTR.CAVITY>
0

>  <SCORE.RESTR.norm>
0

>  <SCORE.SYSTEM>
0

>  <SCORE.SYSTEM.CONST>
0

>  <SCORE.SYSTEM.DIHEDRAL>
0

>  <SCORE.SYSTEM.SOLV>
0

>  <SCORE.SYSTEM.norm>
0

>  <SCORE.heavy>
13

>  <SCORE.norm>
-1.84828

>  <RMSD>
4.902

$$$$
ligand
 OpenBabel11021811473D
libRbt.so/2013.1/901 2013/11/27
 13 14  0  0  0  0  0  0  0  0999 V2000
   36.4262   32.0845   26.7888 N   0  0  0  0  0  0  0  0  0  0  0  0
   37.5635   33.1804   26.9151 C   0  0  0  0  0  0  0  0  0  0  0  0
   38.5023   33.0610   27.9210 N   0  0  0  0  0  0  0  0  0  0  0  0
   37.4463   34.0890   26.0407 N   0  0  0  0  0  0  0  0  0  0  0  0
   36.5614   34.2502   25.0381 C   0  0  0  0  0  0  0  0  0  0  0  0
   35.5675   33.3594   24.8527 C   0  0  0  0  0  0  0  0  0  0  0  0
   35.4860   32.1406   25.8540 C   0  0  0  0  0  0  0  0  0  0  0  0
   34.6064   31.3603   25.6781 O   0  0  0  0  0  0  0  0  0  0  0  0
   34.6497   33.7291   23.6726 C   0  0  0  0  0  0  0  0  0  0  0  0
   35.1602   34.8609   23.1745 C   0  0  0  0  0  0  0  0  0  0  0  0
   36.2641   35.3383   23.8283 N   0  0  0  0  0  0  0  0  0  0  0  0
   33.4792   32.9577   23.1969 C   0  0  0  0  0  0  0  0  0  0  0  0
   32.5605   32.3297   22.8830 N   0  0  0  0  0  0  0  0  0  0  0  0
  1  2  1  0  0  0  0
  1  7  1  0  0  0  0
  2  3  1  0  0  0  0
  2  4  2  0  0  0  0
  4  5  1  0  0  0  0
  5  6  2  0  0  0  0
  5 11  1  0  0  0  0
  6  7  1  0  0  0  0
  6  9  1  0  0  0  0
  7  8  2  0  0  0  0
  9 10  2  0  0  0  0
  9 12  1  0  0  0  0
 10 11  1  0  0  0  0
 12 13  3  0  0  0  0
M  END
>  <CHROM.1>
35.71828366,33.24801453,25.10435864,0.47420231,0.62608110,2.42873564

>  <Name>
ligand

>  <RI>
0

>  <Rbt.Current_Directory>
/home/itssahil/PROJECTS/Mol_Feturizer/New_Systems/rnas/3GCA

>  <Rbt.Executable>
rbdock ($Id: //depot/dev/client3/rdock/2013.1/src/exe/rbdock.cxx#4 $)

>  <Rbt.Library>
libRbt.so (2013.1, Build901 2013/11/27)

>  <Rbt.Parameter_File>
/export/apps/rDock/src/rDock_2013.1_src/data/scripts/dock_solv.prm

>  <Rbt.Receptor>
prm/blind_docking_80.prm

>  <SCORE>
-24.0619

>  <SCORE.INTER>
-24.0619

>  <SCORE.INTER.CONST>
1

>  <SCORE.INTER.POLAR>
0

>  <SCORE.INTER.ROT>
0

>  <SCORE.INTER.SOLV>
11.5099

>  <SCORE.INTER.VDW>
-23.4779

>  <SCORE.INTER.norm>
-1.85092

>  <SCORE.INTRA>
0

>  <SCORE.INTRA.DIHEDRAL>
0

>  <SCORE.INTRA.DIHEDRAL.0>
0

>  <SCORE.INTRA.POLAR>
0

>  <SCORE.INTRA.POLAR.0>
0

>  <SCORE.INTRA.REPUL>
0

>  <SCORE.INTRA.REPUL.0>
0

>  <SCORE.INTRA.SOLV>
0

>  <SCORE.INTRA.SOLV.lig_0>
-33.1994

>  <SCORE.INTRA.VDW>
0

>  <SCORE.INTRA.VDW.0>
0

>  <SCORE.INTRA.norm>
0

>  <SCORE.RESTR>
0

>  <SCORE.RESTR.CAVITY>
0

>  <SCORE.RESTR.norm>
0

>  <SCORE.SYSTEM>
0

>  <SCORE.SYSTEM.CONST>
0

>  <SCORE.SYSTEM.DIHEDRAL>
0

>  <SCORE.SYSTEM.SOLV>
0

>  <SCORE.SYSTEM.norm>
0

>  <SCORE.heavy>
13

>  <SCORE.norm>
-1.85092

>  <RMSD>
4.902

$$$$
ligand
 OpenBabel11021811473D
libRbt.so/2013.1/901 2013/11/27
 13 14  0  0  0  0  0  0  0  0999 V2000
   36.4354   32.1130   26.7037 N   0  0  0  0  0  0  0  0  0  0  0  0
   37.5647   33.2189   26.8133 C   0  0  0  0  0  0  0  0  0  0  0  0
   38.5188   33.1084   27.8058 N   0  0  0  0  0  0  0  0  0  0  0  0
   37.4271   34.1258   25.9402 N   0  0  0  0  0  0  0  0  0  0  0  0
   36.5267   34.2787   24.9502 C   0  0  0  0  0  0  0  0  0  0  0  0
   35.5381   33.3791   24.7794 C   0  0  0  0  0  0  0  0  0  0  0  0
   35.4816   32.1602   25.7825 C   0  0  0  0  0  0  0  0  0  0  0  0
   34.6064   31.3721   25.6195 O   0  0  0  0  0  0  0  0  0  0  0  0
   34.6004   33.7400   23.6124 C   0  0  0  0  0  0  0  0  0  0  0  0
   35.0938   34.8759   23.1065 C   0  0  0  0  0  0  0  0  0  0  0  0
   36.2027   35.3633   23.7443 N   0  0  0  0  0  0  0  0  0  0  0  0
   33.4300   32.9580   23.1538 C   0  0  0  0  0  0  0  0  0  0  0  0
   32.5125   32.3218   22.8533 N   0  0  0  0  0  0  0  0  0  0  0  0
  1  2  1  0  0  0  0
  1  7  1  0  0  0  0
  2  3  1  0  0  0  0
  2  4  2  0  0  0  0
  4  5  1  0  0  0  0
  5  6  2  0  0  0  0
  5 11  1  0  0  0  0
  6  7  1  0  0  0  0
  6  9  1  0  0  0  0
  7  8  2  0  0  0  0
  9 10  2  0  0  0  0
  9 12  1  0  0  0  0
 10 11  1  0  0  0  0
 12 13  3  0  0  0  0
M  END
>  <CHROM.1>
35.69339116,33.26916731,25.02901535,0.45458721,0.62095389,2.43961409

>  <Name>
ligand

>  <RI>
0

>  <Rbt.Current_Directory>
/home/itssahil/PROJECTS/Mol_Feturizer/New_Systems/rnas/3GCA

>  <Rbt.Executable>
rbdock ($Id: //depot/dev/client3/rdock/2013.1/src/exe/rbdock.cxx#4 $)

>  <Rbt.Library>
libRbt.so (2013.1, Build901 2013/11/27)

>  <Rbt.Parameter_File>
/export/apps/rDock/src/rDock_2013.1_src/data/scripts/dock_solv.prm

>  <Rbt.Receptor>
prm/pocket_docking_3.prm

>  <SCORE>
-24.0335

>  <SCORE.INTER>
-24.0335

>  <SCORE.INTER.CONST>
1

>  <SCORE.INTER.POLAR>
0

>  <SCORE.INTER.ROT>
0

>  <SCORE.INTER.SOLV>
11.3463

>  <SCORE.INTER.VDW>
-23.4044

>  <SCORE.INTER.norm>
-1.84873

>  <SCORE.INTRA>
0

>  <SCORE.INTRA.DIHEDRAL>
0

>  <SCORE.INTRA.DIHEDRAL.0>
0

>  <SCORE.INTRA.POLAR>
0

>  <SCORE.INTRA.POLAR.0>
0

>  <SCORE.INTRA.REPUL>
0

>  <SCORE.INTRA.REPUL.0>
0

>  <SCORE.INTRA.SOLV>
0

>  <SCORE.INTRA.SOLV.lig_0>
-33.1994

>  <SCORE.INTRA.VDW>
0

>  <SCORE.INTRA.VDW.0>
0

>  <SCORE.INTRA.norm>
0

>  <SCORE.RESTR>
0

>  <SCORE.RESTR.CAVITY>
0

>  <SCORE.RESTR.norm>
0

>  <SCORE.SYSTEM>
0

>  <SCORE.SYSTEM.CONST>
0

>  <SCORE.SYSTEM.DIHEDRAL>
0

>  <SCORE.SYSTEM.SOLV>
0

>  <SCORE.SYSTEM.norm>
0

>  <SCORE.heavy>
13

>  <SCORE.norm>
-1.84873

>  <RMSD>
4.902

$$$$
ligand
 OpenBabel11021811473D
libRbt.so/2013.1/901 2013/11/27
 13 14  0  0  0  0  0  0  0  0999 V2000
   36.4180   32.0715   26.7792 N   0  0  0  0  0  0  0  0  0  0  0  0
   37.5505   33.1718   26.9099 C   0  0  0  0  0  0  0  0  0  0  0  0
   38.4864   33.0557   27.9189 N   0  0  0  0  0  0  0  0  0  0  0  0
   37.4326   34.0804   26.0356 N   0  0  0  0  0  0  0  0  0  0  0  0
   36.5505   34.2387   25.0301 C   0  0  0  0  0  0  0  0  0  0  0  0
   35.5607   33.3441   24.8409 C   0  0  0  0  0  0  0  0  0  0  0  0
   35.4807   32.1244   25.8414 C   0  0  0  0  0  0  0  0  0  0  0  0
   34.6048   31.3407   25.6621 O   0  0  0  0  0  0  0  0  0  0  0  0
   34.6454   33.7108   23.6579 C   0  0  0  0  0  0  0  0  0  0  0  0
   35.1531   34.8448   23.1622 C   0  0  0  0  0  0  0  0  0  0  0  0
   36.2530   35.3262   23.8199 N   0  0  0  0  0  0  0  0  0  0  0  0
   33.4796   32.9349   23.1780 C   0  0  0  0  0  0  0  0  0  0  0  0
   32.5645   32.3035   22.8606 N   0  0  0  0  0  0  0  0  0  0  0  0
  1  2  1  0  0  0  0
  1  7  1  0  0  0  0
  2  3  1  0  0  0  0
  2  4  2  0  0  0  0
  4  5  1  0  0  0  0
  5  6  2  0  0  0  0
  5 11  1  0  0  0  0
  6  7  1  0  0  0  0
  6  9  1  0  0  0  0
  7  8  2  0  0  0  0
  9 10  2  0  0  0  0
  9 12  1  0  0  0  0
 10 11  1  0  0  0  0
 12 13  3  0  0  0  0
M  END
>  <CHROM.1>
35.71110444,33.23311474,25.09304562,0.47320959,0.63119913,2.42983012

>  <Name>
ligand

>  <RI>
0

>  <Rbt.Current_Directory>
/home/itssahil/PROJECTS/Mol_Feturizer/New_Systems/rnas/3GCA

>  <Rbt.Executable>
rbdock ($Id: //depot/dev/client3/rdock/2013.1/src/exe/rbdock.cxx#4 $)

>  <Rbt.Library>
libRbt.so (2013.1, Build901 2013/11/27)

>  <Rbt.Parameter_File>
/export/apps/rDock/src/rDock_2013.1_src/data/scripts/dock_solv.prm

>  <Rbt.Receptor>
prm/pocket_docking_3.prm

>  <SCORE>
-24.0354

>  <SCORE.INTER>
-24.0354

>  <SCORE.INTER.CONST>
1

>  <SCORE.INTER.POLAR>
0

>  <SCORE.INTER.ROT>
0

>  <SCORE.INTER.SOLV>
11.5867

>  <SCORE.INTER.VDW>
-23.4858

>  <SCORE.INTER.norm>
-1.84888

>  <SCORE.INTRA>
0

>  <SCORE.INTRA.DIHEDRAL>
0

>  <SCORE.INTRA.DIHEDRAL.0>
0

>  <SCORE.INTRA.POLAR>
0

>  <SCORE.INTRA.POLAR.0>
0

>  <SCORE.INTRA.REPUL>
0

>  <SCORE.INTRA.REPUL.0>
0

>  <SCORE.INTRA.SOLV>
0

>  <SCORE.INTRA.SOLV.lig_0>
-33.1994

>  <SCORE.INTRA.VDW>
0

>  <SCORE.INTRA.VDW.0>
0

>  <SCORE.INTRA.norm>
0

>  <SCORE.RESTR>
0

>  <SCORE.RESTR.CAVITY>
0

>  <SCORE.RESTR.norm>
0

>  <SCORE.SYSTEM>
0

>  <SCORE.SYSTEM.CONST>
0

>  <SCORE.SYSTEM.DIHEDRAL>
0

>  <SCORE.SYSTEM.SOLV>
0

>  <SCORE.SYSTEM.norm>
0

>  <SCORE.heavy>
13

>  <SCORE.norm>
-1.84888

>  <RMSD>
4.902

$$$$
ligand
 OpenBabel11021811473D
libRbt.so/2013.1/901 2013/11/27
 13 14  0  0  0  0  0  0  0  0999 V2000
   36.4382   32.1091   26.6983 N   0  0  0  0  0  0  0  0  0  0  0  0
   37.5649   33.2174   26.8101 C   0  0  0  0  0  0  0  0  0  0  0  0
   38.5203   33.1061   27.8013 N   0  0  0  0  0  0  0  0  0  0  0  0
   37.4241   34.1267   25.9400 N   0  0  0  0  0  0  0  0  0  0  0  0
   36.5222   34.2805   24.9515 C   0  0  0  0  0  0  0  0  0  0  0  0
   35.5357   33.3790   24.7789 C   0  0  0  0  0  0  0  0  0  0  0  0
   35.4832   32.1568   25.7782 C   0  0  0  0  0  0  0  0  0  0  0  0
   34.6098   31.3671   25.6137 O   0  0  0  0  0  0  0  0  0  0  0  0
   34.5958   33.7412   23.6140 C   0  0  0  0  0  0  0  0  0  0  0  0
   35.0859   34.8799   23.1111 C   0  0  0  0  0  0  0  0  0  0  0  0
   36.1943   35.3681   23.7493 N   0  0  0  0  0  0  0  0  0  0  0  0
   33.4269   32.9578   23.1542 C   0  0  0  0  0  0  0  0  0  0  0  0
   32.5107   32.3202   22.8527 N   0  0  0  0  0  0  0  0  0  0  0  0
  1  2  1  0  0  0  0
  1  7  1  0  0  0  0
  2  3  1  0  0  0  0
  2  4  2  0  0  0  0
  4  5  1  0  0  0  0
  5  6  2  0  0  0  0
  5 11  1  0  0  0  0
  6  7  1  0  0  0  0
  6  9  1  0  0  0  0
  7  8  2  0  0  0  0
  9 10  2  0  0  0  0
  9 12  1  0  0  0  0
 10 11  1  0  0  0  0
 12 13  3  0  0  0  0
M  END
>  <CHROM.1>
35.69151468,33.26865906,25.02798736,0.45143502,0.62173291,2.44457741

>  <Name>
ligand

>  <RI>
0

>  <Rbt.Current_Directory>
/home/itssahil/PROJECTS/Mol_Feturizer/New_Systems/rnas/3GCA

>  <Rbt.Executable>
rbdock ($Id: //depot/dev/client3/rdock/2013.1/src/exe/rbdock.cxx#4 $)

>  <Rbt.Library>
libRbt.so (2013.1, Build901 2013/11/27)

>  <Rbt.Parameter_File>
/export/apps/rDock/src/rDock_2013.1_src/data/scripts/dock_solv.prm

>  <Rbt.Receptor>
prm/pocket_docking_3.prm

>  <SCORE>
-24.0299

>  <SCORE.INTER>
-24.0299

>  <SCORE.INTER.CONST>
1

>  <SCORE.INTER.POLAR>
0

>  <SCORE.INTER.ROT>
0

>  <SCORE.INTER.SOLV>
11.3467

>  <SCORE.INTER.VDW>
-23.4022

>  <SCORE.INTER.norm>
-1.84845

>  <SCORE.INTRA>
0

>  <SCORE.INTRA.DIHEDRAL>
0

>  <SCORE.INTRA.DIHEDRAL.0>
0

>  <SCORE.INTRA.POLAR>
0

>  <SCORE.INTRA.POLAR.0>
0

>  <SCORE.INTRA.REPUL>
0

>  <SCORE.INTRA.REPUL.0>
0

>  <SCORE.INTRA.SOLV>
0

>  <SCORE.INTRA.SOLV.lig_0>
-33.1994

>  <SCORE.INTRA.VDW>
0

>  <SCORE.INTRA.VDW.0>
0

>  <SCORE.INTRA.norm>
0

>  <SCORE.RESTR>
0

>  <SCORE.RESTR.CAVITY>
0

>  <SCORE.RESTR.norm>
0

>  <SCORE.SYSTEM>
0

>  <SCORE.SYSTEM.CONST>
0

>  <SCORE.SYSTEM.DIHEDRAL>
0

>  <SCORE.SYSTEM.SOLV>
0

>  <SCORE.SYSTEM.norm>
0

>  <SCORE.heavy>
13

>  <SCORE.norm>
-1.84845

>  <RMSD>
4.902

$$$$
ligand
 OpenBabel11021811473D
libRbt.so/2013.1/901 2013/11/27
 13 14  0  0  0  0  0  0  0  0999 V2000
   36.4150   32.0567   26.7780 N   0  0  0  0  0  0  0  0  0  0  0  0
   37.5411   33.1631   26.9115 C   0  0  0  0  0  0  0  0  0  0  0  0
   38.4827   33.0453   27.9151 N   0  0  0  0  0  0  0  0  0  0  0  0
   37.4132   34.0775   26.0448 N   0  0  0  0  0  0  0  0  0  0  0  0
   36.5251   34.2378   25.0448 C   0  0  0  0  0  0  0  0  0  0  0  0
   35.5401   33.3383   24.8537 C   0  0  0  0  0  0  0  0  0  0  0  0
   35.4728   32.1106   25.8452 C   0  0  0  0  0  0  0  0  0  0  0  0
   34.6010   31.3227   25.6643 O   0  0  0  0  0  0  0  0  0  0  0  0
   34.6167   33.7081   23.6780 C   0  0  0  0  0  0  0  0  0  0  0  0
   35.1147   34.8491   23.1884 C   0  0  0  0  0  0  0  0  0  0  0  0
   36.2147   35.3325   23.8444 N   0  0  0  0  0  0  0  0  0  0  0  0
   33.4534   32.9285   23.1979 C   0  0  0  0  0  0  0  0  0  0  0  0
   32.5408   32.2937   22.8802 N   0  0  0  0  0  0  0  0  0  0  0  0
  1  2  1  0  0  0  0
  1  7  1  0  0  0  0
  2  3  1  0  0  0  0
  2  4  2  0  0  0  0
  4  5  1  0  0  0  0
  5  6  2  0  0  0  0
  5 11  1  0  0  0  0
  6  7  1  0  0  0  0
  6  9  1  0  0  0  0
  7  8  2  0  0  0  0
  9 10  2  0  0  0  0
  9 12  1  0  0  0  0
 10 11  1  0  0  0  0
 12 13  3  0  0  0  0
M  END
>  <CHROM.1>
35.69242625,33.22642251,25.10422502,0.46326700,0.63158046,2.44328507

>  <Name>
ligand

>  <RI>
0

>  <Rbt.Current_Directory>
/home/itssahil/PROJECTS/Mol_Feturizer/New_Systems/rnas/3GCA

>  <Rbt.Executable>
rbdock ($Id: //depot/dev/client3/rdock/2013.1/src/exe/rbdock.cxx#4 $)

>  <Rbt.Library>
libRbt.so (2013.1, Build901 2013/11/27)

>  <Rbt.Parameter_File>
/export/apps/rDock/src/rDock_2013.1_src/data/scripts/dock_solv.prm

>  <Rbt.Receptor>
prm/pocket_docking_3.prm

>  <SCORE>
-24.0331

>  <SCORE.INTER>
-24.0331

>  <SCORE.INTER.CONST>
1

>  <SCORE.INTER.POLAR>
0

>  <SCORE.INTER.ROT>
0

>  <SCORE.INTER.SOLV>
11.6253

>  <SCORE.INTER.VDW>
-23.4972

>  <SCORE.INTER.norm>
-1.8487

>  <SCORE.INTRA>
0

>  <SCORE.INTRA.DIHEDRAL>
0

>  <SCORE.INTRA.DIHEDRAL.0>
0

>  <SCORE.INTRA.POLAR>
0

>  <SCORE.INTRA.POLAR.0>
0

>  <SCORE.INTRA.REPUL>
0

>  <SCORE.INTRA.REPUL.0>
0

>  <SCORE.INTRA.SOLV>
0

>  <SCORE.INTRA.SOLV.lig_0>
-33.1994

>  <SCORE.INTRA.VDW>
0

>  <SCORE.INTRA.VDW.0>
0

>  <SCORE.INTRA.norm>
0

>  <SCORE.RESTR>
0

>  <SCORE.RESTR.CAVITY>
0

>  <SCORE.RESTR.norm>
0

>  <SCORE.SYSTEM>
0

>  <SCORE.SYSTEM.CONST>
0

>  <SCORE.SYSTEM.DIHEDRAL>
0

>  <SCORE.SYSTEM.SOLV>
0

>  <SCORE.SYSTEM.norm>
0

>  <SCORE.heavy>
13

>  <SCORE.norm>
-1.8487

>  <RMSD>
4.902

$$$$
ligand
 OpenBabel11021811473D
libRbt.so/2013.1/901 2013/11/27
 13 14  0  0  0  0  0  0  0  0999 V2000
   36.5917   32.0409   26.7347 N   0  0  0  0  0  0  0  0  0  0  0  0
   37.7073   33.1539   26.8994 C   0  0  0  0  0  0  0  0  0  0  0  0
   38.6686   33.0013   27.8793 N   0  0  0  0  0  0  0  0  0  0  0  0
   37.5529   34.1058   26.0785 N   0  0  0  0  0  0  0  0  0  0  0  0
   36.6447   34.3012   25.1032 C   0  0  0  0  0  0  0  0  0  0  0  0
   35.6668   33.3994   24.8881 C   0  0  0  0  0  0  0  0  0  0  0  0
   35.6319   32.1264   25.8225 C   0  0  0  0  0  0  0  0  0  0  0  0
   34.7661   31.3370   25.6207 O   0  0  0  0  0  0  0  0  0  0  0  0
   34.7176   33.8118   23.7476 C   0  0  0  0  0  0  0  0  0  0  0  0
   35.1934   34.9803   23.3028 C   0  0  0  0  0  0  0  0  0  0  0  0
   36.2996   35.4464   23.9608 N   0  0  0  0  0  0  0  0  0  0  0  0
   33.5548   33.0410   23.2526 C   0  0  0  0  0  0  0  0  0  0  0  0
   32.6438   32.4103   22.9221 N   0  0  0  0  0  0  0  0  0  0  0  0
  1  2  1  0  0  0  0
  1  7  1  0  0  0  0
  2  3  1  0  0  0  0
  2  4  2  0  0  0  0
  4  5  1  0  0  0  0
  5  6  2  0  0  0  0
  5 11  1  0  0  0  0
  6  7  1  0  0  0  0
  6  9  1  0  0  0  0
  7  8  2  0  0  0  0
  9 10  2  0  0  0  0
  9 12  1  0  0  0  0
 10 11  1  0  0  0  0
 12 13  3  0  0  0  0
M  END
>  <CHROM.1>
35.82499145,33.27795201,25.13036217,0.43775429,0.62469246,2.50472725

>  <Name>
ligand

>  <RI>
0

>  <Rbt.Current_Directory>
/home/itssahil/PROJECTS/Mol_Feturizer/New_Systems/rnas/3GCA

>  <Rbt.Executable>
rbdock ($Id: //depot/dev/client3/rdock/2013.1/src/exe/rbdock.cxx#4 $)

>  <Rbt.Library>
libRbt.so (2013.1, Build901 2013/11/27)

>  <Rbt.Parameter_File>
/export/apps/rDock/src/rDock_2013.1_src/data/scripts/dock_solv.prm

>  <Rbt.Receptor>
prm/pocket_docking_4.prm

>  <SCORE>
-23.9389

>  <SCORE.INTER>
-23.9389

>  <SCORE.INTER.CONST>
1

>  <SCORE.INTER.POLAR>
0

>  <SCORE.INTER.ROT>
0

>  <SCORE.INTER.SOLV>
10.8352

>  <SCORE.INTER.VDW>
-23.171

>  <SCORE.INTER.norm>
-1.84145

>  <SCORE.INTRA>
0

>  <SCORE.INTRA.DIHEDRAL>
0

>  <SCORE.INTRA.DIHEDRAL.0>
0

>  <SCORE.INTRA.POLAR>
0

>  <SCORE.INTRA.POLAR.0>
0

>  <SCORE.INTRA.REPUL>
0

>  <SCORE.INTRA.REPUL.0>
0

>  <SCORE.INTRA.SOLV>
0

>  <SCORE.INTRA.SOLV.lig_0>
-33.1994

>  <SCORE.INTRA.VDW>
0

>  <SCORE.INTRA.VDW.0>
0

>  <SCORE.INTRA.norm>
0

>  <SCORE.RESTR>
0

>  <SCORE.RESTR.CAVITY>
0

>  <SCORE.RESTR.norm>
0

>  <SCORE.SYSTEM>
0

>  <SCORE.SYSTEM.CONST>
0

>  <SCORE.SYSTEM.DIHEDRAL>
0

>  <SCORE.SYSTEM.SOLV>
0

>  <SCORE.SYSTEM.norm>
0

>  <SCORE.heavy>
13

>  <SCORE.norm>
-1.84145

>  <RMSD>
4.902

$$$$
ligand
 OpenBabel11021811473D
libRbt.so/2013.1/901 2013/11/27
 13 14  0  0  0  0  0  0  0  0999 V2000
   36.4272   32.0354   26.7628 N   0  0  0  0  0  0  0  0  0  0  0  0
   37.5667   33.1290   26.8880 C   0  0  0  0  0  0  0  0  0  0  0  0
   38.5111   33.0034   27.8880 N   0  0  0  0  0  0  0  0  0  0  0  0
   37.4459   34.0421   26.0188 N   0  0  0  0  0  0  0  0  0  0  0  0
   36.5555   34.2095   25.0221 C   0  0  0  0  0  0  0  0  0  0  0  0
   35.5593   33.3210   24.8379 C   0  0  0  0  0  0  0  0  0  0  0  0
   35.4818   32.0974   25.8337 C   0  0  0  0  0  0  0  0  0  0  0  0
   34.6001   31.3192   25.6589 O   0  0  0  0  0  0  0  0  0  0  0  0
   34.6354   33.6979   23.6649 C   0  0  0  0  0  0  0  0  0  0  0  0
   35.1447   34.8313   23.1695 C   0  0  0  0  0  0  0  0  0  0  0  0
   36.2530   35.3040   23.8194 N   0  0  0  0  0  0  0  0  0  0  0  0
   33.4611   32.9304   23.1921 C   0  0  0  0  0  0  0  0  0  0  0  0
   32.5398   32.3052   22.8803 N   0  0  0  0  0  0  0  0  0  0  0  0
  1  2  1  0  0  0  0
  1  7  1  0  0  0  0
  2  3  1  0  0  0  0
  2  4  2  0  0  0  0
  4  5  1  0  0  0  0
  5  6  2  0  0  0  0
  5 11  1  0  0  0  0
  6  7  1  0  0  0  0
  6  9  1  0  0  0  0
  7  8  2  0  0  0  0
  9 10  2  0  0  0  0
  9 12  1  0  0  0  0
 10 11  1  0  0  0  0
 12 13  3  0  0  0  0
M  END
>  <CHROM.1>
35.71137406,33.20817668,25.08819999,0.47096154,0.62085526,2.43555967

>  <Name>
ligand

>  <RI>
0

>  <Rbt.Current_Directory>
/home/itssahil/PROJECTS/Mol_Feturizer/New_Systems/rnas/3GCA

>  <Rbt.Executable>
rbdock ($Id: //depot/dev/client3/rdock/2013.1/src/exe/rbdock.cxx#4 $)

>  <Rbt.Library>
libRbt.so (2013.1, Build901 2013/11/27)

>  <Rbt.Parameter_File>
/export/apps/rDock/src/rDock_2013.1_src/data/scripts/dock_solv.prm

>  <Rbt.Receptor>
prm/pocket_docking_6.prm

>  <SCORE>
-24.0184

>  <SCORE.INTER>
-24.0184

>  <SCORE.INTER.CONST>
1

>  <SCORE.INTER.POLAR>
0

>  <SCORE.INTER.ROT>
0

>  <SCORE.INTER.SOLV>
11.4917

>  <SCORE.INTER.VDW>
-23.4428

>  <SCORE.INTER.norm>
-1.84757

>  <SCORE.INTRA>
0

>  <SCORE.INTRA.DIHEDRAL>
0

>  <SCORE.INTRA.DIHEDRAL.0>
0

>  <SCORE.INTRA.POLAR>
0

>  <SCORE.INTRA.POLAR.0>
0

>  <SCORE.INTRA.REPUL>
0

>  <SCORE.INTRA.REPUL.0>
0

>  <SCORE.INTRA.SOLV>
0

>  <SCORE.INTRA.SOLV.lig_0>
-33.1994

>  <SCORE.INTRA.VDW>
0

>  <SCORE.INTRA.VDW.0>
0

>  <SCORE.INTRA.norm>
0

>  <SCORE.RESTR>
0

>  <SCORE.RESTR.CAVITY>
0

>  <SCORE.RESTR.norm>
0

>  <SCORE.SYSTEM>
0

>  <SCORE.SYSTEM.CONST>
0

>  <SCORE.SYSTEM.DIHEDRAL>
0

>  <SCORE.SYSTEM.SOLV>
0

>  <SCORE.SYSTEM.norm>
0

>  <SCORE.heavy>
13

>  <SCORE.norm>
-1.84757

>  <RMSD>
4.902

$$$$
ligand
 OpenBabel11021811473D
libRbt.so/2013.1/901 2013/11/27
 13 14  0  0  0  0  0  0  0  0999 V2000
   36.4523   32.0583   26.7631 N   0  0  0  0  0  0  0  0  0  0  0  0
   37.5865   33.1566   26.8957 C   0  0  0  0  0  0  0  0  0  0  0  0
   38.5285   33.0315   27.8980 N   0  0  0  0  0  0  0  0  0  0  0  0
   37.4641   34.0723   26.0296 N   0  0  0  0  0  0  0  0  0  0  0  0
   36.5759   34.2394   25.0308 C   0  0  0  0  0  0  0  0  0  0  0  0
   35.5843   33.3471   24.8405 C   0  0  0  0  0  0  0  0  0  0  0  0
   35.5094   32.1194   25.8315 C   0  0  0  0  0  0  0  0  0  0  0  0
   34.6317   31.3379   25.6513 O   0  0  0  0  0  0  0  0  0  0  0  0
   34.6621   33.7241   23.6661 C   0  0  0  0  0  0  0  0  0  0  0  0
   35.1676   34.8617   23.1764 C   0  0  0  0  0  0  0  0  0  0  0  0
   36.2719   35.3369   23.8313 N   0  0  0  0  0  0  0  0  0  0  0  0
   33.4926   32.9530   23.1871 C   0  0  0  0  0  0  0  0  0  0  0  0
   32.5750   32.3249   22.8703 N   0  0  0  0  0  0  0  0  0  0  0  0
  1  2  1  0  0  0  0
  1  7  1  0  0  0  0
  2  3  1  0  0  0  0
  2  4  2  0  0  0  0
  4  5  1  0  0  0  0
  5  6  2  0  0  0  0
  5 11  1  0  0  0  0
  6  7  1  0  0  0  0
  6  9  1  0  0  0  0
  7  8  2  0  0  0  0
  9 10  2  0  0  0  0
  9 12  1  0  0  0  0
 10 11  1  0  0  0  0
 12 13  3  0  0  0  0
M  END
>  <CHROM.1>
35.73609256,33.23398949,25.09076160,0.46904771,0.62600999,2.44036116

>  <Name>
ligand

>  <RI>
0

>  <Rbt.Current_Directory>
/home/itssahil/PROJECTS/Mol_Feturizer/New_Systems/rnas/3GCA

>  <Rbt.Executable>
rbdock ($Id: //depot/dev/client3/rdock/2013.1/src/exe/rbdock.cxx#4 $)

>  <Rbt.Library>
libRbt.so (2013.1, Build901 2013/11/27)

>  <Rbt.Parameter_File>
/export/apps/rDock/src/rDock_2013.1_src/data/scripts/dock_solv.prm

>  <Rbt.Receptor>
prm/pocket_docking_6.prm

>  <SCORE>
-24.0124

>  <SCORE.INTER>
-24.0124

>  <SCORE.INTER.CONST>
1

>  <SCORE.INTER.POLAR>
0

>  <SCORE.INTER.ROT>
0

>  <SCORE.INTER.SOLV>
11.3972

>  <SCORE.INTER.VDW>
-23.4073

>  <SCORE.INTER.norm>
-1.84711

>  <SCORE.INTRA>
0

>  <SCORE.INTRA.DIHEDRAL>
0

>  <SCORE.INTRA.DIHEDRAL.0>
0

>  <SCORE.INTRA.POLAR>
0

>  <SCORE.INTRA.POLAR.0>
0

>  <SCORE.INTRA.REPUL>
0

>  <SCORE.INTRA.REPUL.0>
0

>  <SCORE.INTRA.SOLV>
0

>  <SCORE.INTRA.SOLV.lig_0>
-33.1994

>  <SCORE.INTRA.VDW>
0

>  <SCORE.INTRA.VDW.0>
0

>  <SCORE.INTRA.norm>
0

>  <SCORE.RESTR>
0

>  <SCORE.RESTR.CAVITY>
0

>  <SCORE.RESTR.norm>
0

>  <SCORE.SYSTEM>
0

>  <SCORE.SYSTEM.CONST>
0

>  <SCORE.SYSTEM.DIHEDRAL>
0

>  <SCORE.SYSTEM.SOLV>
0

>  <SCORE.SYSTEM.norm>
0

>  <SCORE.heavy>
13

>  <SCORE.norm>
-1.84711

>  <RMSD>
4.902

$$$$
ligand
 OpenBabel11021811473D
libRbt.so/2013.1/901 2013/11/27
 13 14  0  0  0  0  0  0  0  0999 V2000
   36.4337   32.1135   26.7091 N   0  0  0  0  0  0  0  0  0  0  0  0
   37.5644   33.2182   26.8162 C   0  0  0  0  0  0  0  0  0  0  0  0
   38.5187   33.1084   27.8086 N   0  0  0  0  0  0  0  0  0  0  0  0
   37.4275   34.1237   25.9414 N   0  0  0  0  0  0  0  0  0  0  0  0
   36.5269   34.2757   24.9514 C   0  0  0  0  0  0  0  0  0  0  0  0
   35.5372   33.3770   24.7827 C   0  0  0  0  0  0  0  0  0  0  0  0
   35.4795   32.1601   25.7881 C   0  0  0  0  0  0  0  0  0  0  0  0
   34.6034   31.3728   25.6269 O   0  0  0  0  0  0  0  0  0  0  0  0
   34.5995   33.7368   23.6153 C   0  0  0  0  0  0  0  0  0  0  0  0
   35.0941   34.8711   23.1070 C   0  0  0  0  0  0  0  0  0  0  0  0
   36.2038   35.3584   23.7435 N   0  0  0  0  0  0  0  0  0  0  0  0
   33.4280   32.9553   23.1587 C   0  0  0  0  0  0  0  0  0  0  0  0
   32.5096   32.3197   22.8597 N   0  0  0  0  0  0  0  0  0  0  0  0
  1  2  1  0  0  0  0
  1  7  1  0  0  0  0
  2  3  1  0  0  0  0
  2  4  2  0  0  0  0
  4  5  1  0  0  0  0
  5  6  2  0  0  0  0
  5 11  1  0  0  0  0
  6  7  1  0  0  0  0
  6  9  1  0  0  0  0
  7  8  2  0  0  0  0
  9 10  2  0  0  0  0
  9 12  1  0  0  0  0
 10 11  1  0  0  0  0
 12 13  3  0  0  0  0
M  END
>  <CHROM.1>
35.69244993,33.26735336,25.03244731,0.45545244,0.61989536,2.43719145

>  <Name>
ligand

>  <RI>
0

>  <Rbt.Current_Directory>
/home/itssahil/PROJECTS/Mol_Feturizer/New_Systems/rnas/3GCA

>  <Rbt.Executable>
rbdock ($Id: //depot/dev/client3/rdock/2013.1/src/exe/rbdock.cxx#4 $)

>  <Rbt.Library>
libRbt.so (2013.1, Build901 2013/11/27)

>  <Rbt.Parameter_File>
/export/apps/rDock/src/rDock_2013.1_src/data/scripts/dock_solv.prm

>  <Rbt.Receptor>
prm/blind_docking_100.prm

>  <SCORE>
-24.0353

>  <SCORE.INTER>
-24.0353

>  <SCORE.INTER.CONST>
1

>  <SCORE.INTER.POLAR>
0

>  <SCORE.INTER.ROT>
0

>  <SCORE.INTER.SOLV>
11.3462

>  <SCORE.INTER.VDW>
-23.4056

>  <SCORE.INTER.norm>
-1.84887

>  <SCORE.INTRA>
0

>  <SCORE.INTRA.DIHEDRAL>
0

>  <SCORE.INTRA.DIHEDRAL.0>
0

>  <SCORE.INTRA.POLAR>
0

>  <SCORE.INTRA.POLAR.0>
0

>  <SCORE.INTRA.REPUL>
0

>  <SCORE.INTRA.REPUL.0>
0

>  <SCORE.INTRA.SOLV>
0

>  <SCORE.INTRA.SOLV.lig_0>
-33.1994

>  <SCORE.INTRA.VDW>
0

>  <SCORE.INTRA.VDW.0>
0

>  <SCORE.INTRA.norm>
0

>  <SCORE.RESTR>
0

>  <SCORE.RESTR.CAVITY>
0

>  <SCORE.RESTR.norm>
0

>  <SCORE.SYSTEM>
0

>  <SCORE.SYSTEM.CONST>
0

>  <SCORE.SYSTEM.DIHEDRAL>
0

>  <SCORE.SYSTEM.SOLV>
0

>  <SCORE.SYSTEM.norm>
0

>  <SCORE.heavy>
13

>  <SCORE.norm>
-1.84887

>  <RMSD>
4.903

$$$$
ligand
 OpenBabel11021811473D
libRbt.so/2013.1/901 2013/11/27
 13 14  0  0  0  0  0  0  0  0999 V2000
   36.4345   32.1117   26.7113 N   0  0  0  0  0  0  0  0  0  0  0  0
   37.5669   33.2148   26.8172 C   0  0  0  0  0  0  0  0  0  0  0  0
   38.5210   33.1046   27.8098 N   0  0  0  0  0  0  0  0  0  0  0  0
   37.4315   34.1195   25.9414 N   0  0  0  0  0  0  0  0  0  0  0  0
   36.5312   34.2719   24.9512 C   0  0  0  0  0  0  0  0  0  0  0  0
   35.5401   33.3746   24.7835 C   0  0  0  0  0  0  0  0  0  0  0  0
   35.4805   32.1588   25.7902 C   0  0  0  0  0  0  0  0  0  0  0  0
   34.6031   31.3727   25.6297 O   0  0  0  0  0  0  0  0  0  0  0  0
   34.6030   33.7346   23.6156 C   0  0  0  0  0  0  0  0  0  0  0  0
   35.0994   34.8676   23.1062 C   0  0  0  0  0  0  0  0  0  0  0  0
   36.2099   35.3539   23.7422 N   0  0  0  0  0  0  0  0  0  0  0  0
   33.4304   32.9545   23.1597 C   0  0  0  0  0  0  0  0  0  0  0  0
   32.5110   32.3200   22.8614 N   0  0  0  0  0  0  0  0  0  0  0  0
  1  2  1  0  0  0  0
  1  7  1  0  0  0  0
  2  3  1  0  0  0  0
  2  4  2  0  0  0  0
  4  5  1  0  0  0  0
  5  6  2  0  0  0  0
  5 11  1  0  0  0  0
  6  7  1  0  0  0  0
  6  9  1  0  0  0  0
  7  8  2  0  0  0  0
  9 10  2  0  0  0  0
  9 12  1  0  0  0  0
 10 11  1  0  0  0  0
 12 13  3  0  0  0  0
M  END
>  <CHROM.1>
35.69517091,33.26496431,25.03331089,0.45695307,0.61892581,2.43526431

>  <Name>
ligand

>  <RI>
0

>  <Rbt.Current_Directory>
/home/itssahil/PROJECTS/Mol_Feturizer/New_Systems/rnas/3GCA

>  <Rbt.Executable>
rbdock ($Id: //depot/dev/client3/rdock/2013.1/src/exe/rbdock.cxx#4 $)

>  <Rbt.Library>
libRbt.so (2013.1, Build901 2013/11/27)

>  <Rbt.Parameter_File>
/export/apps/rDock/src/rDock_2013.1_src/data/scripts/dock_solv.prm

>  <Rbt.Receptor>
prm/blind_docking_100.prm

>  <SCORE>
-24.0354

>  <SCORE.INTER>
-24.0354

>  <SCORE.INTER.CONST>
1

>  <SCORE.INTER.POLAR>
0

>  <SCORE.INTER.ROT>
0

>  <SCORE.INTER.SOLV>
11.3374

>  <SCORE.INTER.VDW>
-23.4027

>  <SCORE.INTER.norm>
-1.84887

>  <SCORE.INTRA>
0

>  <SCORE.INTRA.DIHEDRAL>
0

>  <SCORE.INTRA.DIHEDRAL.0>
0

>  <SCORE.INTRA.POLAR>
0

>  <SCORE.INTRA.POLAR.0>
0

>  <SCORE.INTRA.REPUL>
0

>  <SCORE.INTRA.REPUL.0>
0

>  <SCORE.INTRA.SOLV>
0

>  <SCORE.INTRA.SOLV.lig_0>
-33.1994

>  <SCORE.INTRA.VDW>
0

>  <SCORE.INTRA.VDW.0>
0

>  <SCORE.INTRA.norm>
0

>  <SCORE.RESTR>
0

>  <SCORE.RESTR.CAVITY>
0

>  <SCORE.RESTR.norm>
0

>  <SCORE.SYSTEM>
0

>  <SCORE.SYSTEM.CONST>
0

>  <SCORE.SYSTEM.DIHEDRAL>
0

>  <SCORE.SYSTEM.SOLV>
0

>  <SCORE.SYSTEM.norm>
0

>  <SCORE.heavy>
13

>  <SCORE.norm>
-1.84887

>  <RMSD>
4.903

$$$$
ligand
 OpenBabel11021811473D
libRbt.so/2013.1/901 2013/11/27
 13 14  0  0  0  0  0  0  0  0999 V2000
   36.4367   32.1132   26.7097 N   0  0  0  0  0  0  0  0  0  0  0  0
   37.5688   33.2166   26.8151 C   0  0  0  0  0  0  0  0  0  0  0  0
   38.5232   33.1069   27.8074 N   0  0  0  0  0  0  0  0  0  0  0  0
   37.4329   34.1211   25.9392 N   0  0  0  0  0  0  0  0  0  0  0  0
   36.5323   34.2730   24.9492 C   0  0  0  0  0  0  0  0  0  0  0  0
   35.5413   33.3754   24.7819 C   0  0  0  0  0  0  0  0  0  0  0  0
   35.4824   32.1598   25.7889 C   0  0  0  0  0  0  0  0  0  0  0  0
   34.6052   31.3734   25.6289 O   0  0  0  0  0  0  0  0  0  0  0  0
   34.6039   33.7349   23.6142 C   0  0  0  0  0  0  0  0  0  0  0  0
   35.0998   34.8679   23.1044 C   0  0  0  0  0  0  0  0  0  0  0  0
   36.2103   35.3546   23.7400 N   0  0  0  0  0  0  0  0  0  0  0  0
   33.4313   32.9543   23.1589 C   0  0  0  0  0  0  0  0  0  0  0  0
   32.5120   32.3195   22.8609 N   0  0  0  0  0  0  0  0  0  0  0  0
  1  2  1  0  0  0  0
  1  7  1  0  0  0  0
  2  3  1  0  0  0  0
  2  4  2  0  0  0  0
  4  5  1  0  0  0  0
  5  6  2  0  0  0  0
  5 11  1  0  0  0  0
  6  7  1  0  0  0  0
  6  9  1  0  0  0  0
  7  8  2  0  0  0  0
  9 10  2  0  0  0  0
  9 12  1  0  0  0  0
 10 11  1  0  0  0  0
 12 13  3  0  0  0  0
M  END
>  <CHROM.1>
35.69653328,33.26584628,25.03171943,0.45646826,0.61889040,2.43531502

>  <Name>
ligand

>  <RI>
0

>  <Rbt.Current_Directory>
/home/itssahil/PROJECTS/Mol_Feturizer/New_Systems/rnas/3GCA

>  <Rbt.Executable>
rbdock ($Id: //depot/dev/client3/rdock/2013.1/src/exe/rbdock.cxx#4 $)

>  <Rbt.Library>
libRbt.so (2013.1, Build901 2013/11/27)

>  <Rbt.Parameter_File>
/export/apps/rDock/src/rDock_2013.1_src/data/scripts/dock_solv.prm

>  <Rbt.Receptor>
prm/blind_docking_100.prm

>  <SCORE>
-24.0367

>  <SCORE.INTER>
-24.0367

>  <SCORE.INTER.CONST>
1

>  <SCORE.INTER.POLAR>
0

>  <SCORE.INTER.ROT>
0

>  <SCORE.INTER.SOLV>
11.3307

>  <SCORE.INTER.VDW>
-23.4014

>  <SCORE.INTER.norm>
-1.84898

>  <SCORE.INTRA>
0

>  <SCORE.INTRA.DIHEDRAL>
0

>  <SCORE.INTRA.DIHEDRAL.0>
0

>  <SCORE.INTRA.POLAR>
0

>  <SCORE.INTRA.POLAR.0>
0

>  <SCORE.INTRA.REPUL>
0

>  <SCORE.INTRA.REPUL.0>
0

>  <SCORE.INTRA.SOLV>
0

>  <SCORE.INTRA.SOLV.lig_0>
-33.1994

>  <SCORE.INTRA.VDW>
0

>  <SCORE.INTRA.VDW.0>
0

>  <SCORE.INTRA.norm>
0

>  <SCORE.RESTR>
0

>  <SCORE.RESTR.CAVITY>
0

>  <SCORE.RESTR.norm>
0

>  <SCORE.SYSTEM>
0

>  <SCORE.SYSTEM.CONST>
0

>  <SCORE.SYSTEM.DIHEDRAL>
0

>  <SCORE.SYSTEM.SOLV>
0

>  <SCORE.SYSTEM.norm>
0

>  <SCORE.heavy>
13

>  <SCORE.norm>
-1.84898

>  <RMSD>
4.903

$$$$
ligand
 OpenBabel11021811473D
libRbt.so/2013.1/901 2013/11/27
 13 14  0  0  0  0  0  0  0  0999 V2000
   36.4228   32.0556   26.7707 N   0  0  0  0  0  0  0  0  0  0  0  0
   37.5430   33.1673   26.9102 C   0  0  0  0  0  0  0  0  0  0  0  0
   38.4788   33.0548   27.9198 N   0  0  0  0  0  0  0  0  0  0  0  0
   37.4163   34.0803   26.0418 N   0  0  0  0  0  0  0  0  0  0  0  0
   36.5338   34.2355   25.0361 C   0  0  0  0  0  0  0  0  0  0  0  0
   35.5541   33.3314   24.8396 C   0  0  0  0  0  0  0  0  0  0  0  0
   35.4862   32.1043   25.8319 C   0  0  0  0  0  0  0  0  0  0  0  0
   34.6192   31.3122   25.6462 O   0  0  0  0  0  0  0  0  0  0  0  0
   34.6365   33.6958   23.6578 C   0  0  0  0  0  0  0  0  0  0  0  0
   35.1323   34.8386   23.1703 C   0  0  0  0  0  0  0  0  0  0  0  0
   36.2259   35.3277   23.8327 N   0  0  0  0  0  0  0  0  0  0  0  0
   33.4799   32.9104   23.1711 C   0  0  0  0  0  0  0  0  0  0  0  0
   32.5721   32.2711   22.8483 N   0  0  0  0  0  0  0  0  0  0  0  0
  1  2  1  0  0  0  0
  1  7  1  0  0  0  0
  2  3  1  0  0  0  0
  2  4  2  0  0  0  0
  4  5  1  0  0  0  0
  5  6  2  0  0  0  0
  5 11  1  0  0  0  0
  6  7  1  0  0  0  0
  6  9  1  0  0  0  0
  7  8  2  0  0  0  0
  9 10  2  0  0  0  0
  9 12  1  0  0  0  0
 10 11  1  0  0  0  0
 12 13  3  0  0  0  0
M  END
>  <CHROM.1>
35.70539944,33.22043893,25.09124415,0.46391307,0.63936517,2.44195911

>  <Name>
ligand

>  <RI>
0

>  <Rbt.Current_Directory>
/home/itssahil/PROJECTS/Mol_Feturizer/New_Systems/rnas/3GCA

>  <Rbt.Executable>
rbdock ($Id: //depot/dev/client3/rdock/2013.1/src/exe/rbdock.cxx#4 $)

>  <Rbt.Library>
libRbt.so (2013.1, Build901 2013/11/27)

>  <Rbt.Parameter_File>
/export/apps/rDock/src/rDock_2013.1_src/data/scripts/dock_solv.prm

>  <Rbt.Receptor>
prm/blind_docking_60.prm

>  <SCORE>
-24.021

>  <SCORE.INTER>
-24.021

>  <SCORE.INTER.CONST>
1

>  <SCORE.INTER.POLAR>
0

>  <SCORE.INTER.ROT>
0

>  <SCORE.INTER.SOLV>
11.6454

>  <SCORE.INTER.VDW>
-23.4958

>  <SCORE.INTER.norm>
-1.84777

>  <SCORE.INTRA>
0

>  <SCORE.INTRA.DIHEDRAL>
0

>  <SCORE.INTRA.DIHEDRAL.0>
0

>  <SCORE.INTRA.POLAR>
0

>  <SCORE.INTRA.POLAR.0>
0

>  <SCORE.INTRA.REPUL>
0

>  <SCORE.INTRA.REPUL.0>
0

>  <SCORE.INTRA.SOLV>
0

>  <SCORE.INTRA.SOLV.lig_0>
-33.1994

>  <SCORE.INTRA.VDW>
0

>  <SCORE.INTRA.VDW.0>
0

>  <SCORE.INTRA.norm>
0

>  <SCORE.RESTR>
0

>  <SCORE.RESTR.CAVITY>
0

>  <SCORE.RESTR.norm>
0

>  <SCORE.SYSTEM>
0

>  <SCORE.SYSTEM.CONST>
0

>  <SCORE.SYSTEM.DIHEDRAL>
0

>  <SCORE.SYSTEM.SOLV>
0

>  <SCORE.SYSTEM.norm>
0

>  <SCORE.heavy>
13

>  <SCORE.norm>
-1.84777

>  <RMSD>
4.903

$$$$
ligand
 OpenBabel11021811473D
libRbt.so/2013.1/901 2013/11/27
 13 14  0  0  0  0  0  0  0  0999 V2000
   36.4157   32.1151   26.7214 N   0  0  0  0  0  0  0  0  0  0  0  0
   37.5474   33.2187   26.8293 C   0  0  0  0  0  0  0  0  0  0  0  0
   38.4939   33.1144   27.8297 N   0  0  0  0  0  0  0  0  0  0  0  0
   37.4187   34.1183   25.9472 N   0  0  0  0  0  0  0  0  0  0  0  0
   36.5259   34.2648   24.9493 C   0  0  0  0  0  0  0  0  0  0  0  0
   35.5360   33.3665   24.7793 C   0  0  0  0  0  0  0  0  0  0  0  0
   35.4687   32.1568   25.7928 C   0  0  0  0  0  0  0  0  0  0  0  0
   34.5925   31.3698   25.6304 O   0  0  0  0  0  0  0  0  0  0  0  0
   34.6079   33.7196   23.6023 C   0  0  0  0  0  0  0  0  0  0  0  0
   35.1082   34.8495   23.0899 C   0  0  0  0  0  0  0  0  0  0  0  0
   36.2139   35.3396   23.7314 N   0  0  0  0  0  0  0  0  0  0  0  0
   33.4386   32.9369   23.1422 C   0  0  0  0  0  0  0  0  0  0  0  0
   32.5215   32.3006   22.8407 N   0  0  0  0  0  0  0  0  0  0  0  0
  1  2  1  0  0  0  0
  1  7  1  0  0  0  0
  2  3  1  0  0  0  0
  2  4  2  0  0  0  0
  4  5  1  0  0  0  0
  5  6  2  0  0  0  0
  5 11  1  0  0  0  0
  6  7  1  0  0  0  0
  6  9  1  0  0  0  0
  7  8  2  0  0  0  0
  9 10  2  0  0  0  0
  9 12  1  0  0  0  0
 10 11  1  0  0  0  0
 12 13  3  0  0  0  0
M  END
>  <CHROM.1>
35.68919928,33.25838674,25.03101476,0.46309634,0.62461959,2.42572657

>  <Name>
ligand

>  <RI>
0

>  <Rbt.Current_Directory>
/home/itssahil/PROJECTS/Mol_Feturizer/New_Systems/rnas/3GCA

>  <Rbt.Executable>
rbdock ($Id: //depot/dev/client3/rdock/2013.1/src/exe/rbdock.cxx#4 $)

>  <Rbt.Library>
libRbt.so (2013.1, Build901 2013/11/27)

>  <Rbt.Parameter_File>
/export/apps/rDock/src/rDock_2013.1_src/data/scripts/dock_solv.prm

>  <Rbt.Receptor>
prm/blind_docking_60.prm

>  <SCORE>
-24.0361

>  <SCORE.INTER>
-24.0361

>  <SCORE.INTER.CONST>
1

>  <SCORE.INTER.POLAR>
0

>  <SCORE.INTER.ROT>
0

>  <SCORE.INTER.SOLV>
11.4262

>  <SCORE.INTER.VDW>
-23.4328

>  <SCORE.INTER.norm>
-1.84893

>  <SCORE.INTRA>
0

>  <SCORE.INTRA.DIHEDRAL>
0

>  <SCORE.INTRA.DIHEDRAL.0>
0

>  <SCORE.INTRA.POLAR>
0

>  <SCORE.INTRA.POLAR.0>
0

>  <SCORE.INTRA.REPUL>
0

>  <SCORE.INTRA.REPUL.0>
0

>  <SCORE.INTRA.SOLV>
0

>  <SCORE.INTRA.SOLV.lig_0>
-33.1994

>  <SCORE.INTRA.VDW>
0

>  <SCORE.INTRA.VDW.0>
0

>  <SCORE.INTRA.norm>
0

>  <SCORE.RESTR>
0

>  <SCORE.RESTR.CAVITY>
0

>  <SCORE.RESTR.norm>
0

>  <SCORE.SYSTEM>
0

>  <SCORE.SYSTEM.CONST>
0

>  <SCORE.SYSTEM.DIHEDRAL>
0

>  <SCORE.SYSTEM.SOLV>
0

>  <SCORE.SYSTEM.norm>
0

>  <SCORE.heavy>
13

>  <SCORE.norm>
-1.84893

>  <RMSD>
4.903

$$$$
ligand
 OpenBabel11021811473D
libRbt.so/2013.1/901 2013/11/27
 13 14  0  0  0  0  0  0  0  0999 V2000
   36.4192   32.1150   26.7218 N   0  0  0  0  0  0  0  0  0  0  0  0
   37.5508   33.2185   26.8320 C   0  0  0  0  0  0  0  0  0  0  0  0
   38.4969   33.1125   27.8327 N   0  0  0  0  0  0  0  0  0  0  0  0
   37.4226   34.1194   25.9513 N   0  0  0  0  0  0  0  0  0  0  0  0
   36.5303   34.2676   24.9533 C   0  0  0  0  0  0  0  0  0  0  0  0
   35.5404   33.3696   24.7814 C   0  0  0  0  0  0  0  0  0  0  0  0
   35.4726   32.1582   25.7928 C   0  0  0  0  0  0  0  0  0  0  0  0
   34.5965   31.3714   25.6287 O   0  0  0  0  0  0  0  0  0  0  0  0
   34.6128   33.7246   23.6045 C   0  0  0  0  0  0  0  0  0  0  0  0
   35.1134   34.8554   23.0942 C   0  0  0  0  0  0  0  0  0  0  0  0
   36.2187   35.3444   23.7370 N   0  0  0  0  0  0  0  0  0  0  0  0
   33.4438   32.9426   23.1426 C   0  0  0  0  0  0  0  0  0  0  0  0
   32.5268   32.3068   22.8396 N   0  0  0  0  0  0  0  0  0  0  0  0
  1  2  1  0  0  0  0
  1  7  1  0  0  0  0
  2  3  1  0  0  0  0
  2  4  2  0  0  0  0
  4  5  1  0  0  0  0
  5  6  2  0  0  0  0
  5 11  1  0  0  0  0
  6  7  1  0  0  0  0
  6  9  1  0  0  0  0
  7  8  2  0  0  0  0
  9 10  2  0  0  0  0
  9 12  1  0  0  0  0
 10 11  1  0  0  0  0
 12 13  3  0  0  0  0
M  END
>  <CHROM.1>
35.69350015,33.26102630,25.03295836,0.46345663,0.62499354,2.42716824

>  <Name>
ligand

>  <RI>
0

>  <Rbt.Current_Directory>
/home/itssahil/PROJECTS/Mol_Feturizer/New_Systems/rnas/3GCA

>  <Rbt.Executable>
rbdock ($Id: //depot/dev/client3/rdock/2013.1/src/exe/rbdock.cxx#4 $)

>  <Rbt.Library>
libRbt.so (2013.1, Build901 2013/11/27)

>  <Rbt.Parameter_File>
/export/apps/rDock/src/rDock_2013.1_src/data/scripts/dock_solv.prm

>  <Rbt.Receptor>
prm/blind_docking_60.prm

>  <SCORE>
-24.0393

>  <SCORE.INTER>
-24.0393

>  <SCORE.INTER.CONST>
1

>  <SCORE.INTER.POLAR>
0

>  <SCORE.INTER.ROT>
0

>  <SCORE.INTER.SOLV>
11.4149

>  <SCORE.INTER.VDW>
-23.4312

>  <SCORE.INTER.norm>
-1.84918

>  <SCORE.INTRA>
0

>  <SCORE.INTRA.DIHEDRAL>
0

>  <SCORE.INTRA.DIHEDRAL.0>
0

>  <SCORE.INTRA.POLAR>
0

>  <SCORE.INTRA.POLAR.0>
0

>  <SCORE.INTRA.REPUL>
0

>  <SCORE.INTRA.REPUL.0>
0

>  <SCORE.INTRA.SOLV>
0

>  <SCORE.INTRA.SOLV.lig_0>
-33.1994

>  <SCORE.INTRA.VDW>
0

>  <SCORE.INTRA.VDW.0>
0

>  <SCORE.INTRA.norm>
0

>  <SCORE.RESTR>
0

>  <SCORE.RESTR.CAVITY>
0

>  <SCORE.RESTR.norm>
0

>  <SCORE.SYSTEM>
0

>  <SCORE.SYSTEM.CONST>
0

>  <SCORE.SYSTEM.DIHEDRAL>
0

>  <SCORE.SYSTEM.SOLV>
0

>  <SCORE.SYSTEM.norm>
0

>  <SCORE.heavy>
13

>  <SCORE.norm>
-1.84918

>  <RMSD>
4.903

$$$$
ligand
 OpenBabel11021811473D
libRbt.so/2013.1/901 2013/11/27
 13 14  0  0  0  0  0  0  0  0999 V2000
   36.4555   32.0249   26.7540 N   0  0  0  0  0  0  0  0  0  0  0  0
   37.5877   33.1249   26.8893 C   0  0  0  0  0  0  0  0  0  0  0  0
   38.5314   32.9977   27.8898 N   0  0  0  0  0  0  0  0  0  0  0  0
   37.4623   34.0438   26.0270 N   0  0  0  0  0  0  0  0  0  0  0  0
   36.5724   34.2131   25.0301 C   0  0  0  0  0  0  0  0  0  0  0  0
   35.5822   33.3196   24.8376 C   0  0  0  0  0  0  0  0  0  0  0  0
   35.5111   32.0879   25.8239 C   0  0  0  0  0  0  0  0  0  0  0  0
   34.6347   31.3054   25.6418 O   0  0  0  0  0  0  0  0  0  0  0  0
   34.6576   33.6994   23.6661 C   0  0  0  0  0  0  0  0  0  0  0  0
   35.1603   34.8399   23.1802 C   0  0  0  0  0  0  0  0  0  0  0  0
   36.2646   35.3147   23.8354 N   0  0  0  0  0  0  0  0  0  0  0  0
   33.4890   32.9280   23.1856 C   0  0  0  0  0  0  0  0  0  0  0  0
   32.5722   32.2994   22.8676 N   0  0  0  0  0  0  0  0  0  0  0  0
  1  2  1  0  0  0  0
  1  7  1  0  0  0  0
  2  3  1  0  0  0  0
  2  4  2  0  0  0  0
  4  5  1  0  0  0  0
  5  6  2  0  0  0  0
  5 11  1  0  0  0  0
  6  7  1  0  0  0  0
  6  9  1  0  0  0  0
  7  8  2  0  0  0  0
  9 10  2  0  0  0  0
  9 12  1  0  0  0  0
 10 11  1  0  0  0  0
 12 13  3  0  0  0  0
M  END
>  <CHROM.1>
35.73460529,33.20583154,25.08727329,0.46610783,0.62618560,2.44603259

>  <Name>
ligand

>  <RI>
0

>  <Rbt.Current_Directory>
/home/itssahil/PROJECTS/Mol_Feturizer/New_Systems/rnas/3GCA

>  <Rbt.Executable>
rbdock ($Id: //depot/dev/client3/rdock/2013.1/src/exe/rbdock.cxx#4 $)

>  <Rbt.Library>
libRbt.so (2013.1, Build901 2013/11/27)

>  <Rbt.Parameter_File>
/export/apps/rDock/src/rDock_2013.1_src/data/scripts/dock_solv.prm

>  <Rbt.Receptor>
prm/blind_docking_80.prm

>  <SCORE>
-24.0291

>  <SCORE.INTER>
-24.0291

>  <SCORE.INTER.CONST>
1

>  <SCORE.INTER.POLAR>
0

>  <SCORE.INTER.ROT>
0

>  <SCORE.INTER.SOLV>
11.4142

>  <SCORE.INTER.VDW>
-23.4241

>  <SCORE.INTER.norm>
-1.84839

>  <SCORE.INTRA>
0

>  <SCORE.INTRA.DIHEDRAL>
0

>  <SCORE.INTRA.DIHEDRAL.0>
0

>  <SCORE.INTRA.POLAR>
0

>  <SCORE.INTRA.POLAR.0>
0

>  <SCORE.INTRA.REPUL>
0

>  <SCORE.INTRA.REPUL.0>
0

>  <SCORE.INTRA.SOLV>
0

>  <SCORE.INTRA.SOLV.lig_0>
-33.1994

>  <SCORE.INTRA.VDW>
0

>  <SCORE.INTRA.VDW.0>
0

>  <SCORE.INTRA.norm>
0

>  <SCORE.RESTR>
0

>  <SCORE.RESTR.CAVITY>
0

>  <SCORE.RESTR.norm>
0

>  <SCORE.SYSTEM>
0

>  <SCORE.SYSTEM.CONST>
0

>  <SCORE.SYSTEM.DIHEDRAL>
0

>  <SCORE.SYSTEM.SOLV>
0

>  <SCORE.SYSTEM.norm>
0

>  <SCORE.heavy>
13

>  <SCORE.norm>
-1.84839

>  <RMSD>
4.903

$$$$
ligand
 OpenBabel11021811473D
libRbt.so/2013.1/901 2013/11/27
 13 14  0  0  0  0  0  0  0  0999 V2000
   36.4356   32.1128   26.7055 N   0  0  0  0  0  0  0  0  0  0  0  0
   37.5662   33.2175   26.8131 C   0  0  0  0  0  0  0  0  0  0  0  0
   38.5207   33.1072   27.8052 N   0  0  0  0  0  0  0  0  0  0  0  0
   37.4291   34.1236   25.9390 N   0  0  0  0  0  0  0  0  0  0  0  0
   36.5282   34.2762   24.9493 C   0  0  0  0  0  0  0  0  0  0  0  0
   35.5385   33.3775   24.7802 C   0  0  0  0  0  0  0  0  0  0  0  0
   35.4812   32.1599   25.7848 C   0  0  0  0  0  0  0  0  0  0  0  0
   34.6051   31.3726   25.6232 O   0  0  0  0  0  0  0  0  0  0  0  0
   34.6005   33.7380   23.6132 C   0  0  0  0  0  0  0  0  0  0  0  0
   35.0949   34.8727   23.1057 C   0  0  0  0  0  0  0  0  0  0  0  0
   36.2047   35.3598   23.7422 N   0  0  0  0  0  0  0  0  0  0  0  0
   33.4291   32.9567   23.1563 C   0  0  0  0  0  0  0  0  0  0  0  0
   32.5107   32.3212   22.8571 N   0  0  0  0  0  0  0  0  0  0  0  0
  1  2  1  0  0  0  0
  1  7  1  0  0  0  0
  2  3  1  0  0  0  0
  2  4  2  0  0  0  0
  4  5  1  0  0  0  0
  5  6  2  0  0  0  0
  5 11  1  0  0  0  0
  6  7  1  0  0  0  0
  6  9  1  0  0  0  0
  7  8  2  0  0  0  0
  9 10  2  0  0  0  0
  9 12  1  0  0  0  0
 10 11  1  0  0  0  0
 12 13  3  0  0  0  0
M  END
>  <CHROM.1>
35.69386503,33.26772036,25.02982270,0.45516394,0.61979444,2.43805337

>  <Name>
ligand

>  <RI>
0

>  <Rbt.Current_Directory>
/home/itssahil/PROJECTS/Mol_Feturizer/New_Systems/rnas/3GCA

>  <Rbt.Executable>
rbdock ($Id: //depot/dev/client3/rdock/2013.1/src/exe/rbdock.cxx#4 $)

>  <Rbt.Library>
libRbt.so (2013.1, Build901 2013/11/27)

>  <Rbt.Parameter_File>
/export/apps/rDock/src/rDock_2013.1_src/data/scripts/dock_solv.prm

>  <Rbt.Receptor>
prm/blind_docking_80.prm

>  <SCORE>
-24.0356

>  <SCORE.INTER>
-24.0356

>  <SCORE.INTER.CONST>
1

>  <SCORE.INTER.POLAR>
0

>  <SCORE.INTER.ROT>
0

>  <SCORE.INTER.SOLV>
11.3401

>  <SCORE.INTER.VDW>
-23.4038

>  <SCORE.INTER.norm>
-1.84889

>  <SCORE.INTRA>
0

>  <SCORE.INTRA.DIHEDRAL>
0

>  <SCORE.INTRA.DIHEDRAL.0>
0

>  <SCORE.INTRA.POLAR>
0

>  <SCORE.INTRA.POLAR.0>
0

>  <SCORE.INTRA.REPUL>
0

>  <SCORE.INTRA.REPUL.0>
0

>  <SCORE.INTRA.SOLV>
0

>  <SCORE.INTRA.SOLV.lig_0>
-33.1994

>  <SCORE.INTRA.VDW>
0

>  <SCORE.INTRA.VDW.0>
0

>  <SCORE.INTRA.norm>
0

>  <SCORE.RESTR>
0

>  <SCORE.RESTR.CAVITY>
0

>  <SCORE.RESTR.norm>
0

>  <SCORE.SYSTEM>
0

>  <SCORE.SYSTEM.CONST>
0

>  <SCORE.SYSTEM.DIHEDRAL>
0

>  <SCORE.SYSTEM.SOLV>
0

>  <SCORE.SYSTEM.norm>
0

>  <SCORE.heavy>
13

>  <SCORE.norm>
-1.84889

>  <RMSD>
4.903

$$$$
ligand
 OpenBabel11021811473D
libRbt.so/2013.1/901 2013/11/27
 13 14  0  0  0  0  0  0  0  0999 V2000
   36.4349   32.1125   26.7022 N   0  0  0  0  0  0  0  0  0  0  0  0
   37.5645   33.2185   26.8082 C   0  0  0  0  0  0  0  0  0  0  0  0
   38.5197   33.1099   27.7999 N   0  0  0  0  0  0  0  0  0  0  0  0
   37.4260   34.1237   25.9335 N   0  0  0  0  0  0  0  0  0  0  0  0
   36.5244   34.2746   24.9442 C   0  0  0  0  0  0  0  0  0  0  0  0
   35.5356   33.3748   24.7763 C   0  0  0  0  0  0  0  0  0  0  0  0
   35.4801   32.1580   25.7819 C   0  0  0  0  0  0  0  0  0  0  0  0
   34.6047   31.3696   25.6215 O   0  0  0  0  0  0  0  0  0  0  0  0
   34.5966   33.7335   23.6096 C   0  0  0  0  0  0  0  0  0  0  0  0
   35.0895   34.8683   23.1009 C   0  0  0  0  0  0  0  0  0  0  0  0
   36.1992   35.3569   23.7364 N   0  0  0  0  0  0  0  0  0  0  0  0
   33.4257   32.9506   23.1539 C   0  0  0  0  0  0  0  0  0  0  0  0
   32.5078   32.3139   22.8557 N   0  0  0  0  0  0  0  0  0  0  0  0
  1  2  1  0  0  0  0
  1  7  1  0  0  0  0
  2  3  1  0  0  0  0
  2  4  2  0  0  0  0
  4  5  1  0  0  0  0
  5  6  2  0  0  0  0
  5 11  1  0  0  0  0
  6  7  1  0  0  0  0
  6  9  1  0  0  0  0
  7  8  2  0  0  0  0
  9 10  2  0  0  0  0
  9 12  1  0  0  0  0
 10 11  1  0  0  0  0
 12 13  3  0  0  0  0
M  END
>  <CHROM.1>
35.69116210,33.26537338,25.02596221,0.45379565,0.62004088,2.43805990

>  <Name>
ligand

>  <RI>
0

>  <Rbt.Current_Directory>
/home/itssahil/PROJECTS/Mol_Feturizer/New_Systems/rnas/3GCA

>  <Rbt.Executable>
rbdock ($Id: //depot/dev/client3/rdock/2013.1/src/exe/rbdock.cxx#4 $)

>  <Rbt.Library>
libRbt.so (2013.1, Build901 2013/11/27)

>  <Rbt.Parameter_File>
/export/apps/rDock/src/rDock_2013.1_src/data/scripts/dock_solv.prm

>  <Rbt.Receptor>
prm/blind_docking_80.prm

>  <SCORE>
-24.0312

>  <SCORE.INTER>
-24.0312

>  <SCORE.INTER.CONST>
1

>  <SCORE.INTER.POLAR>
0

>  <SCORE.INTER.ROT>
0

>  <SCORE.INTER.SOLV>
11.3476

>  <SCORE.INTER.VDW>
-23.4033

>  <SCORE.INTER.norm>
-1.84855

>  <SCORE.INTRA>
0

>  <SCORE.INTRA.DIHEDRAL>
0

>  <SCORE.INTRA.DIHEDRAL.0>
0

>  <SCORE.INTRA.POLAR>
0

>  <SCORE.INTRA.POLAR.0>
0

>  <SCORE.INTRA.REPUL>
0

>  <SCORE.INTRA.REPUL.0>
0

>  <SCORE.INTRA.SOLV>
0

>  <SCORE.INTRA.SOLV.lig_0>
-33.1994

>  <SCORE.INTRA.VDW>
0

>  <SCORE.INTRA.VDW.0>
0

>  <SCORE.INTRA.norm>
0

>  <SCORE.RESTR>
0

>  <SCORE.RESTR.CAVITY>
0

>  <SCORE.RESTR.norm>
0

>  <SCORE.SYSTEM>
0

>  <SCORE.SYSTEM.CONST>
0

>  <SCORE.SYSTEM.DIHEDRAL>
0

>  <SCORE.SYSTEM.SOLV>
0

>  <SCORE.SYSTEM.norm>
0

>  <SCORE.heavy>
13

>  <SCORE.norm>
-1.84855

>  <RMSD>
4.903

$$$$
ligand
 OpenBabel11021811473D
libRbt.so/2013.1/901 2013/11/27
 13 14  0  0  0  0  0  0  0  0999 V2000
   36.4333   32.1133   26.7058 N   0  0  0  0  0  0  0  0  0  0  0  0
   37.5630   33.2190   26.8136 C   0  0  0  0  0  0  0  0  0  0  0  0
   38.5178   33.1090   27.8056 N   0  0  0  0  0  0  0  0  0  0  0  0
   37.4250   34.1253   25.9400 N   0  0  0  0  0  0  0  0  0  0  0  0
   36.5239   34.2777   24.9505 C   0  0  0  0  0  0  0  0  0  0  0  0
   35.5349   33.3782   24.7811 C   0  0  0  0  0  0  0  0  0  0  0  0
   35.4788   32.1601   25.7852 C   0  0  0  0  0  0  0  0  0  0  0  0
   34.6033   31.3721   25.6234 O   0  0  0  0  0  0  0  0  0  0  0  0
   34.5965   33.7385   23.6145 C   0  0  0  0  0  0  0  0  0  0  0  0
   35.0898   34.8738   23.1074 C   0  0  0  0  0  0  0  0  0  0  0  0
   36.1993   35.3615   23.7440 N   0  0  0  0  0  0  0  0  0  0  0  0
   33.4256   32.9565   23.1574 C   0  0  0  0  0  0  0  0  0  0  0  0
   32.5077   32.3203   22.8580 N   0  0  0  0  0  0  0  0  0  0  0  0
  1  2  1  0  0  0  0
  1  7  1  0  0  0  0
  2  3  1  0  0  0  0
  2  4  2  0  0  0  0
  4  5  1  0  0  0  0
  5  6  2  0  0  0  0
  5 11  1  0  0  0  0
  6  7  1  0  0  0  0
  6  9  1  0  0  0  0
  7  8  2  0  0  0  0
  9 10  2  0  0  0  0
  9 12  1  0  0  0  0
 10 11  1  0  0  0  0
 12 13  3  0  0  0  0
M  END
>  <CHROM.1>
35.69040801,33.26844544,25.03068391,0.45427313,0.62022871,2.43903672

>  <Name>
ligand

>  <RI>
0

>  <Rbt.Current_Directory>
/home/itssahil/PROJECTS/Mol_Feturizer/New_Systems/rnas/3GCA

>  <Rbt.Executable>
rbdock ($Id: //depot/dev/client3/rdock/2013.1/src/exe/rbdock.cxx#4 $)

>  <Rbt.Library>
libRbt.so (2013.1, Build901 2013/11/27)

>  <Rbt.Parameter_File>
/export/apps/rDock/src/rDock_2013.1_src/data/scripts/dock_solv.prm

>  <Rbt.Receptor>
prm/blind_docking_80.prm

>  <SCORE>
-24.0346

>  <SCORE.INTER>
-24.0346

>  <SCORE.INTER.CONST>
1

>  <SCORE.INTER.POLAR>
0

>  <SCORE.INTER.ROT>
0

>  <SCORE.INTER.SOLV>
11.3506

>  <SCORE.INTER.VDW>
-23.4066

>  <SCORE.INTER.norm>
-1.84881

>  <SCORE.INTRA>
0

>  <SCORE.INTRA.DIHEDRAL>
0

>  <SCORE.INTRA.DIHEDRAL.0>
0

>  <SCORE.INTRA.POLAR>
0

>  <SCORE.INTRA.POLAR.0>
0

>  <SCORE.INTRA.REPUL>
0

>  <SCORE.INTRA.REPUL.0>
0

>  <SCORE.INTRA.SOLV>
0

>  <SCORE.INTRA.SOLV.lig_0>
-33.1994

>  <SCORE.INTRA.VDW>
0

>  <SCORE.INTRA.VDW.0>
0

>  <SCORE.INTRA.norm>
0

>  <SCORE.RESTR>
0

>  <SCORE.RESTR.CAVITY>
0

>  <SCORE.RESTR.norm>
0

>  <SCORE.SYSTEM>
0

>  <SCORE.SYSTEM.CONST>
0

>  <SCORE.SYSTEM.DIHEDRAL>
0

>  <SCORE.SYSTEM.SOLV>
0

>  <SCORE.SYSTEM.norm>
0

>  <SCORE.heavy>
13

>  <SCORE.norm>
-1.84881

>  <RMSD>
4.903

$$$$
ligand
 OpenBabel11021811473D
libRbt.so/2013.1/901 2013/11/27
 13 14  0  0  0  0  0  0  0  0999 V2000
   36.4395   32.1119   26.7094 N   0  0  0  0  0  0  0  0  0  0  0  0
   37.5691   33.2176   26.8171 C   0  0  0  0  0  0  0  0  0  0  0  0
   38.5238   33.1079   27.8091 N   0  0  0  0  0  0  0  0  0  0  0  0
   37.4312   34.1236   25.9431 N   0  0  0  0  0  0  0  0  0  0  0  0
   36.5302   34.2756   24.9534 C   0  0  0  0  0  0  0  0  0  0  0  0
   35.5413   33.3761   24.7842 C   0  0  0  0  0  0  0  0  0  0  0  0
   35.4851   32.1583   25.7886 C   0  0  0  0  0  0  0  0  0  0  0  0
   34.6097   31.3703   25.6270 O   0  0  0  0  0  0  0  0  0  0  0  0
   34.6030   33.7360   23.6173 C   0  0  0  0  0  0  0  0  0  0  0  0
   35.0964   34.8712   23.1099 C   0  0  0  0  0  0  0  0  0  0  0  0
   36.2058   35.3591   23.7465 N   0  0  0  0  0  0  0  0  0  0  0  0
   33.4322   32.9538   23.1603 C   0  0  0  0  0  0  0  0  0  0  0  0
   32.5143   32.3175   22.8610 N   0  0  0  0  0  0  0  0  0  0  0  0
  1  2  1  0  0  0  0
  1  7  1  0  0  0  0
  2  3  1  0  0  0  0
  2  4  2  0  0  0  0
  4  5  1  0  0  0  0
  5  6  2  0  0  0  0
  5 11  1  0  0  0  0
  6  7  1  0  0  0  0
  6  9  1  0  0  0  0
  7  8  2  0  0  0  0
  9 10  2  0  0  0  0
  9 12  1  0  0  0  0
 10 11  1  0  0  0  0
 12 13  3  0  0  0  0
M  END
>  <CHROM.1>
35.69675645,33.26642701,25.03382504,0.45436045,0.62034265,2.43867244

>  <Name>
ligand

>  <RI>
0

>  <Rbt.Current_Directory>
/home/itssahil/PROJECTS/Mol_Feturizer/New_Systems/rnas/3GCA

>  <Rbt.Executable>
rbdock ($Id: //depot/dev/client3/rdock/2013.1/src/exe/rbdock.cxx#4 $)

>  <Rbt.Library>
libRbt.so (2013.1, Build901 2013/11/27)

>  <Rbt.Parameter_File>
/export/apps/rDock/src/rDock_2013.1_src/data/scripts/dock_solv.prm

>  <Rbt.Receptor>
prm/pocket_docking_3.prm

>  <SCORE>
-24.0354

>  <SCORE.INTER>
-24.0354

>  <SCORE.INTER.CONST>
1

>  <SCORE.INTER.POLAR>
0

>  <SCORE.INTER.ROT>
0

>  <SCORE.INTER.SOLV>
11.3309

>  <SCORE.INTER.VDW>
-23.4006

>  <SCORE.INTER.norm>
-1.84888

>  <SCORE.INTRA>
0

>  <SCORE.INTRA.DIHEDRAL>
0

>  <SCORE.INTRA.DIHEDRAL.0>
0

>  <SCORE.INTRA.POLAR>
0

>  <SCORE.INTRA.POLAR.0>
0

>  <SCORE.INTRA.REPUL>
0

>  <SCORE.INTRA.REPUL.0>
0

>  <SCORE.INTRA.SOLV>
0

>  <SCORE.INTRA.SOLV.lig_0>
-33.1994

>  <SCORE.INTRA.VDW>
0

>  <SCORE.INTRA.VDW.0>
0

>  <SCORE.INTRA.norm>
0

>  <SCORE.RESTR>
0

>  <SCORE.RESTR.CAVITY>
0

>  <SCORE.RESTR.norm>
0

>  <SCORE.SYSTEM>
0

>  <SCORE.SYSTEM.CONST>
0

>  <SCORE.SYSTEM.DIHEDRAL>
0

>  <SCORE.SYSTEM.SOLV>
0

>  <SCORE.SYSTEM.norm>
0

>  <SCORE.heavy>
13

>  <SCORE.norm>
-1.84888

>  <RMSD>
4.903

$$$$
ligand
 OpenBabel11021811473D
libRbt.so/2013.1/901 2013/11/27
 13 14  0  0  0  0  0  0  0  0999 V2000
   36.4439   32.1086   26.7053 N   0  0  0  0  0  0  0  0  0  0  0  0
   37.5698   33.2177   26.8178 C   0  0  0  0  0  0  0  0  0  0  0  0
   38.5244   33.1074   27.8099 N   0  0  0  0  0  0  0  0  0  0  0  0
   37.4293   34.1266   25.9472 N   0  0  0  0  0  0  0  0  0  0  0  0
   36.5283   34.2794   24.9577 C   0  0  0  0  0  0  0  0  0  0  0  0
   35.5425   33.3773   24.7846 C   0  0  0  0  0  0  0  0  0  0  0  0
   35.4898   32.1554   25.7843 C   0  0  0  0  0  0  0  0  0  0  0  0
   34.6171   31.3651   25.6192 O   0  0  0  0  0  0  0  0  0  0  0  0
   34.6035   33.7385   23.6186 C   0  0  0  0  0  0  0  0  0  0  0  0
   35.0934   34.8773   23.1158 C   0  0  0  0  0  0  0  0  0  0  0  0
   36.2008   35.3664   23.7548 N   0  0  0  0  0  0  0  0  0  0  0  0
   33.4355   32.9542   23.1580 C   0  0  0  0  0  0  0  0  0  0  0  0
   32.5199   32.3160   22.8559 N   0  0  0  0  0  0  0  0  0  0  0  0
  1  2  1  0  0  0  0
  1  7  1  0  0  0  0
  2  3  1  0  0  0  0
  2  4  2  0  0  0  0
  4  5  1  0  0  0  0
  5  6  2  0  0  0  0
  5 11  1  0  0  0  0
  6  7  1  0  0  0  0
  6  9  1  0  0  0  0
  7  8  2  0  0  0  0
  9 10  2  0  0  0  0
  9 12  1  0  0  0  0
 10 11  1  0  0  0  0
 12 13  3  0  0  0  0
M  END
>  <CHROM.1>
35.69814279,33.26712136,25.03382603,0.45160724,0.62284943,2.44410612

>  <Name>
ligand

>  <RI>
0

>  <Rbt.Current_Directory>
/home/itssahil/PROJECTS/Mol_Feturizer/New_Systems/rnas/3GCA

>  <Rbt.Executable>
rbdock ($Id: //depot/dev/client3/rdock/2013.1/src/exe/rbdock.cxx#4 $)

>  <Rbt.Library>
libRbt.so (2013.1, Build901 2013/11/27)

>  <Rbt.Parameter_File>
/export/apps/rDock/src/rDock_2013.1_src/data/scripts/dock_solv.prm

>  <Rbt.Receptor>
prm/pocket_docking_3.prm

>  <SCORE>
-24.0306

>  <SCORE.INTER>
-24.0306

>  <SCORE.INTER.CONST>
1

>  <SCORE.INTER.POLAR>
0

>  <SCORE.INTER.ROT>
0

>  <SCORE.INTER.SOLV>
11.3322

>  <SCORE.INTER.VDW>
-23.3978

>  <SCORE.INTER.norm>
-1.84851

>  <SCORE.INTRA>
0

>  <SCORE.INTRA.DIHEDRAL>
0

>  <SCORE.INTRA.DIHEDRAL.0>
0

>  <SCORE.INTRA.POLAR>
0

>  <SCORE.INTRA.POLAR.0>
0

>  <SCORE.INTRA.REPUL>
0

>  <SCORE.INTRA.REPUL.0>
0

>  <SCORE.INTRA.SOLV>
0

>  <SCORE.INTRA.SOLV.lig_0>
-33.1994

>  <SCORE.INTRA.VDW>
0

>  <SCORE.INTRA.VDW.0>
0

>  <SCORE.INTRA.norm>
0

>  <SCORE.RESTR>
0

>  <SCORE.RESTR.CAVITY>
0

>  <SCORE.RESTR.norm>
0

>  <SCORE.SYSTEM>
0

>  <SCORE.SYSTEM.CONST>
0

>  <SCORE.SYSTEM.DIHEDRAL>
0

>  <SCORE.SYSTEM.SOLV>
0

>  <SCORE.SYSTEM.norm>
0

>  <SCORE.heavy>
13

>  <SCORE.norm>
-1.84851

>  <RMSD>
4.903

$$$$
ligand
 OpenBabel11021811473D
libRbt.so/2013.1/901 2013/11/27
 13 14  0  0  0  0  0  0  0  0999 V2000
   36.4305   32.0740   26.7824 N   0  0  0  0  0  0  0  0  0  0  0  0
   37.5551   33.1819   26.9171 C   0  0  0  0  0  0  0  0  0  0  0  0
   38.4921   33.0685   27.9255 N   0  0  0  0  0  0  0  0  0  0  0  0
   37.4305   34.0930   26.0464 N   0  0  0  0  0  0  0  0  0  0  0  0
   36.5471   34.2487   25.0416 C   0  0  0  0  0  0  0  0  0  0  0  0
   35.5637   33.3478   24.8492 C   0  0  0  0  0  0  0  0  0  0  0  0
   35.4927   32.1237   25.8449 C   0  0  0  0  0  0  0  0  0  0  0  0
   34.6224   31.3344   25.6627 O   0  0  0  0  0  0  0  0  0  0  0  0
   34.6456   33.7125   23.6678 C   0  0  0  0  0  0  0  0  0  0  0  0
   35.1450   34.8520   23.1763 C   0  0  0  0  0  0  0  0  0  0  0  0
   36.2415   35.3388   23.8357 N   0  0  0  0  0  0  0  0  0  0  0  0
   33.4853   32.9301   23.1850 C   0  0  0  0  0  0  0  0  0  0  0  0
   32.5746   32.2933   22.8654 N   0  0  0  0  0  0  0  0  0  0  0  0
  1  2  1  0  0  0  0
  1  7  1  0  0  0  0
  2  3  1  0  0  0  0
  2  4  2  0  0  0  0
  4  5  1  0  0  0  0
  5  6  2  0  0  0  0
  5 11  1  0  0  0  0
  6  7  1  0  0  0  0
  6  9  1  0  0  0  0
  7  8  2  0  0  0  0
  9 10  2  0  0  0  0
  9 12  1  0  0  0  0
 10 11  1  0  0  0  0
 12 13  3  0  0  0  0
M  END
>  <CHROM.1>
35.71496092,33.23694170,25.10082832,0.46627171,0.63573543,2.43781363

>  <Name>
ligand

>  <RI>
0

>  <Rbt.Current_Directory>
/home/itssahil/PROJECTS/Mol_Feturizer/New_Systems/rnas/3GCA

>  <Rbt.Executable>
rbdock ($Id: //depot/dev/client3/rdock/2013.1/src/exe/rbdock.cxx#4 $)

>  <Rbt.Library>
libRbt.so (2013.1, Build901 2013/11/27)

>  <Rbt.Parameter_File>
/export/apps/rDock/src/rDock_2013.1_src/data/scripts/dock_solv.prm

>  <Rbt.Receptor>
prm/pocket_docking_3.prm

>  <SCORE>
-24.0692

>  <SCORE.INTER>
-24.0692

>  <SCORE.INTER.CONST>
1

>  <SCORE.INTER.POLAR>
0

>  <SCORE.INTER.ROT>
0

>  <SCORE.INTER.SOLV>
11.5713

>  <SCORE.INTER.VDW>
-23.5032

>  <SCORE.INTER.norm>
-1.85147

>  <SCORE.INTRA>
0

>  <SCORE.INTRA.DIHEDRAL>
0

>  <SCORE.INTRA.DIHEDRAL.0>
0

>  <SCORE.INTRA.POLAR>
0

>  <SCORE.INTRA.POLAR.0>
0

>  <SCORE.INTRA.REPUL>
0

>  <SCORE.INTRA.REPUL.0>
0

>  <SCORE.INTRA.SOLV>
0

>  <SCORE.INTRA.SOLV.lig_0>
-33.1994

>  <SCORE.INTRA.VDW>
0

>  <SCORE.INTRA.VDW.0>
0

>  <SCORE.INTRA.norm>
0

>  <SCORE.RESTR>
0

>  <SCORE.RESTR.CAVITY>
0

>  <SCORE.RESTR.norm>
0

>  <SCORE.SYSTEM>
0

>  <SCORE.SYSTEM.CONST>
0

>  <SCORE.SYSTEM.DIHEDRAL>
0

>  <SCORE.SYSTEM.SOLV>
0

>  <SCORE.SYSTEM.norm>
0

>  <SCORE.heavy>
13

>  <SCORE.norm>
-1.85147

>  <RMSD>
4.903

$$$$
ligand
 OpenBabel11021811473D
libRbt.so/2013.1/901 2013/11/27
 13 14  0  0  0  0  0  0  0  0999 V2000
   36.4355   32.1134   26.7112 N   0  0  0  0  0  0  0  0  0  0  0  0
   37.5669   33.2175   26.8173 C   0  0  0  0  0  0  0  0  0  0  0  0
   38.5210   33.1081   27.8099 N   0  0  0  0  0  0  0  0  0  0  0  0
   37.4307   34.1223   25.9417 N   0  0  0  0  0  0  0  0  0  0  0  0
   36.5303   34.2740   24.9515 C   0  0  0  0  0  0  0  0  0  0  0  0
   35.5400   33.3757   24.7835 C   0  0  0  0  0  0  0  0  0  0  0  0
   35.4815   32.1598   25.7900 C   0  0  0  0  0  0  0  0  0  0  0  0
   34.6049   31.3728   25.6295 O   0  0  0  0  0  0  0  0  0  0  0  0
   34.6027   33.7350   23.6156 C   0  0  0  0  0  0  0  0  0  0  0  0
   35.0980   34.8686   23.1064 C   0  0  0  0  0  0  0  0  0  0  0  0
   36.2080   35.3558   23.7426 N   0  0  0  0  0  0  0  0  0  0  0  0
   33.4308   32.9539   23.1596 C   0  0  0  0  0  0  0  0  0  0  0  0
   32.5120   32.3185   22.8611 N   0  0  0  0  0  0  0  0  0  0  0  0
  1  2  1  0  0  0  0
  1  7  1  0  0  0  0
  2  3  1  0  0  0  0
  2  4  2  0  0  0  0
  4  5  1  0  0  0  0
  5  6  2  0  0  0  0
  5 11  1  0  0  0  0
  6  7  1  0  0  0  0
  6  9  1  0  0  0  0
  7  8  2  0  0  0  0
  9 10  2  0  0  0  0
  9 12  1  0  0  0  0
 10 11  1  0  0  0  0
 12 13  3  0  0  0  0
M  END
>  <CHROM.1>
35.69519905,33.26620560,25.03335896,0.45610749,0.61957805,2.43589974

>  <Name>
ligand

>  <RI>
0

>  <Rbt.Current_Directory>
/home/itssahil/PROJECTS/Mol_Feturizer/New_Systems/rnas/3GCA

>  <Rbt.Executable>
rbdock ($Id: //depot/dev/client3/rdock/2013.1/src/exe/rbdock.cxx#4 $)

>  <Rbt.Library>
libRbt.so (2013.1, Build901 2013/11/27)

>  <Rbt.Parameter_File>
/export/apps/rDock/src/rDock_2013.1_src/data/scripts/dock_solv.prm

>  <Rbt.Receptor>
prm/pocket_docking_4.prm

>  <SCORE>
-24.0357

>  <SCORE.INTER>
-24.0357

>  <SCORE.INTER.CONST>
1

>  <SCORE.INTER.POLAR>
0

>  <SCORE.INTER.ROT>
0

>  <SCORE.INTER.SOLV>
11.3378

>  <SCORE.INTER.VDW>
-23.403

>  <SCORE.INTER.norm>
-1.8489

>  <SCORE.INTRA>
0

>  <SCORE.INTRA.DIHEDRAL>
0

>  <SCORE.INTRA.DIHEDRAL.0>
0

>  <SCORE.INTRA.POLAR>
0

>  <SCORE.INTRA.POLAR.0>
0

>  <SCORE.INTRA.REPUL>
0

>  <SCORE.INTRA.REPUL.0>
0

>  <SCORE.INTRA.SOLV>
0

>  <SCORE.INTRA.SOLV.lig_0>
-33.1994

>  <SCORE.INTRA.VDW>
0

>  <SCORE.INTRA.VDW.0>
0

>  <SCORE.INTRA.norm>
0

>  <SCORE.RESTR>
0

>  <SCORE.RESTR.CAVITY>
0

>  <SCORE.RESTR.norm>
0

>  <SCORE.SYSTEM>
0

>  <SCORE.SYSTEM.CONST>
0

>  <SCORE.SYSTEM.DIHEDRAL>
0

>  <SCORE.SYSTEM.SOLV>
0

>  <SCORE.SYSTEM.norm>
0

>  <SCORE.heavy>
13

>  <SCORE.norm>
-1.8489

>  <RMSD>
4.903

$$$$
ligand
 OpenBabel11021811473D
libRbt.so/2013.1/901 2013/11/27
 13 14  0  0  0  0  0  0  0  0999 V2000
   36.4328   32.1124   26.7089 N   0  0  0  0  0  0  0  0  0  0  0  0
   37.5645   33.2162   26.8148 C   0  0  0  0  0  0  0  0  0  0  0  0
   38.5192   33.1061   27.8068 N   0  0  0  0  0  0  0  0  0  0  0  0
   37.4280   34.1213   25.9397 N   0  0  0  0  0  0  0  0  0  0  0  0
   36.5270   34.2736   24.9501 C   0  0  0  0  0  0  0  0  0  0  0  0
   35.5364   33.3757   24.7824 C   0  0  0  0  0  0  0  0  0  0  0  0
   35.4782   32.1593   25.7884 C   0  0  0  0  0  0  0  0  0  0  0  0
   34.6013   31.3727   25.6281 O   0  0  0  0  0  0  0  0  0  0  0  0
   34.5984   33.7357   23.6153 C   0  0  0  0  0  0  0  0  0  0  0  0
   35.0937   34.8694   23.1062 C   0  0  0  0  0  0  0  0  0  0  0  0
   36.2041   35.3561   23.7419 N   0  0  0  0  0  0  0  0  0  0  0  0
   33.4260   32.9550   23.1596 C   0  0  0  0  0  0  0  0  0  0  0  0
   32.5069   32.3200   22.8615 N   0  0  0  0  0  0  0  0  0  0  0  0
  1  2  1  0  0  0  0
  1  7  1  0  0  0  0
  2  3  1  0  0  0  0
  2  4  2  0  0  0  0
  4  5  1  0  0  0  0
  5  6  2  0  0  0  0
  5 11  1  0  0  0  0
  6  7  1  0  0  0  0
  6  9  1  0  0  0  0
  7  8  2  0  0  0  0
  9 10  2  0  0  0  0
  9 12  1  0  0  0  0
 10 11  1  0  0  0  0
 12 13  3  0  0  0  0
M  END
>  <CHROM.1>
35.69168946,33.26605525,25.03209032,0.45582294,0.61895302,2.43649446

>  <Name>
ligand

>  <RI>
0

>  <Rbt.Current_Directory>
/home/itssahil/PROJECTS/Mol_Feturizer/New_Systems/rnas/3GCA

>  <Rbt.Executable>
rbdock ($Id: //depot/dev/client3/rdock/2013.1/src/exe/rbdock.cxx#4 $)

>  <Rbt.Library>
libRbt.so (2013.1, Build901 2013/11/27)

>  <Rbt.Parameter_File>
/export/apps/rDock/src/rDock_2013.1_src/data/scripts/dock_solv.prm

>  <Rbt.Receptor>
prm/pocket_docking_4.prm

>  <SCORE>
-24.0355

>  <SCORE.INTER>
-24.0355

>  <SCORE.INTER.CONST>
1

>  <SCORE.INTER.POLAR>
0

>  <SCORE.INTER.ROT>
0

>  <SCORE.INTER.SOLV>
11.3449

>  <SCORE.INTER.VDW>
-23.4053

>  <SCORE.INTER.norm>
-1.84889

>  <SCORE.INTRA>
0

>  <SCORE.INTRA.DIHEDRAL>
0

>  <SCORE.INTRA.DIHEDRAL.0>
0

>  <SCORE.INTRA.POLAR>
0

>  <SCORE.INTRA.POLAR.0>
0

>  <SCORE.INTRA.REPUL>
0

>  <SCORE.INTRA.REPUL.0>
0

>  <SCORE.INTRA.SOLV>
0

>  <SCORE.INTRA.SOLV.lig_0>
-33.1994

>  <SCORE.INTRA.VDW>
0

>  <SCORE.INTRA.VDW.0>
0

>  <SCORE.INTRA.norm>
0

>  <SCORE.RESTR>
0

>  <SCORE.RESTR.CAVITY>
0

>  <SCORE.RESTR.norm>
0

>  <SCORE.SYSTEM>
0

>  <SCORE.SYSTEM.CONST>
0

>  <SCORE.SYSTEM.DIHEDRAL>
0

>  <SCORE.SYSTEM.SOLV>
0

>  <SCORE.SYSTEM.norm>
0

>  <SCORE.heavy>
13

>  <SCORE.norm>
-1.84889

>  <RMSD>
4.903

$$$$
ligand
 OpenBabel11021811473D
libRbt.so/2013.1/901 2013/11/27
 13 14  0  0  0  0  0  0  0  0999 V2000
   36.4331   32.0408   26.7641 N   0  0  0  0  0  0  0  0  0  0  0  0
   37.5632   33.1434   26.8964 C   0  0  0  0  0  0  0  0  0  0  0  0
   38.5044   33.0233   27.9001 N   0  0  0  0  0  0  0  0  0  0  0  0
   37.4385   34.0573   26.0286 N   0  0  0  0  0  0  0  0  0  0  0  0
   36.5511   34.2197   25.0285 C   0  0  0  0  0  0  0  0  0  0  0  0
   35.5629   33.3235   24.8383 C   0  0  0  0  0  0  0  0  0  0  0  0
   35.4911   32.0971   25.8312 C   0  0  0  0  0  0  0  0  0  0  0  0
   34.6165   31.3122   25.6510 O   0  0  0  0  0  0  0  0  0  0  0  0
   34.6408   33.6954   23.6622 C   0  0  0  0  0  0  0  0  0  0  0  0
   35.1429   34.8340   23.1713 C   0  0  0  0  0  0  0  0  0  0  0  0
   36.2446   35.3142   23.8269 N   0  0  0  0  0  0  0  0  0  0  0  0
   33.4748   32.9194   23.1829 C   0  0  0  0  0  0  0  0  0  0  0  0
   32.5599   32.2875   22.8659 N   0  0  0  0  0  0  0  0  0  0  0  0
  1  2  1  0  0  0  0
  1  7  1  0  0  0  0
  2  3  1  0  0  0  0
  2  4  2  0  0  0  0
  4  5  1  0  0  0  0
  5  6  2  0  0  0  0
  5 11  1  0  0  0  0
  6  7  1  0  0  0  0
  6  9  1  0  0  0  0
  7  8  2  0  0  0  0
  9 10  2  0  0  0  0
  9 12  1  0  0  0  0
 10 11  1  0  0  0  0
 12 13  3  0  0  0  0
M  END
>  <CHROM.1>
35.71478886,33.21137484,25.08896269,0.46667766,0.62930155,2.44019060

>  <Name>
ligand

>  <RI>
0

>  <Rbt.Current_Directory>
/home/itssahil/PROJECTS/Mol_Feturizer/New_Systems/rnas/3GCA

>  <Rbt.Executable>
rbdock ($Id: //depot/dev/client3/rdock/2013.1/src/exe/rbdock.cxx#4 $)

>  <Rbt.Library>
libRbt.so (2013.1, Build901 2013/11/27)

>  <Rbt.Parameter_File>
/export/apps/rDock/src/rDock_2013.1_src/data/scripts/dock_solv.prm

>  <Rbt.Receptor>
prm/pocket_docking_4.prm

>  <SCORE>
-24.0445

>  <SCORE.INTER>
-24.0445

>  <SCORE.INTER.CONST>
1

>  <SCORE.INTER.POLAR>
0

>  <SCORE.INTER.ROT>
0

>  <SCORE.INTER.SOLV>
11.5284

>  <SCORE.INTER.VDW>
-23.4725

>  <SCORE.INTER.norm>
-1.84958

>  <SCORE.INTRA>
0

>  <SCORE.INTRA.DIHEDRAL>
0

>  <SCORE.INTRA.DIHEDRAL.0>
0

>  <SCORE.INTRA.POLAR>
0

>  <SCORE.INTRA.POLAR.0>
0

>  <SCORE.INTRA.REPUL>
0

>  <SCORE.INTRA.REPUL.0>
0

>  <SCORE.INTRA.SOLV>
0

>  <SCORE.INTRA.SOLV.lig_0>
-33.1994

>  <SCORE.INTRA.VDW>
0

>  <SCORE.INTRA.VDW.0>
0

>  <SCORE.INTRA.norm>
0

>  <SCORE.RESTR>
0

>  <SCORE.RESTR.CAVITY>
0

>  <SCORE.RESTR.norm>
0

>  <SCORE.SYSTEM>
0

>  <SCORE.SYSTEM.CONST>
0

>  <SCORE.SYSTEM.DIHEDRAL>
0

>  <SCORE.SYSTEM.SOLV>
0

>  <SCORE.SYSTEM.norm>
0

>  <SCORE.heavy>
13

>  <SCORE.norm>
-1.84958

>  <RMSD>
4.903

$$$$
ligand
 OpenBabel11021811473D
libRbt.so/2013.1/901 2013/11/27
 13 14  0  0  0  0  0  0  0  0999 V2000
   36.4348   32.1137   26.7075 N   0  0  0  0  0  0  0  0  0  0  0  0
   37.5655   33.2185   26.8143 C   0  0  0  0  0  0  0  0  0  0  0  0
   38.5200   33.1087   27.8065 N   0  0  0  0  0  0  0  0  0  0  0  0
   37.4284   34.1239   25.9396 N   0  0  0  0  0  0  0  0  0  0  0  0
   36.5275   34.2760   24.9498 C   0  0  0  0  0  0  0  0  0  0  0  0
   35.5378   33.3772   24.7814 C   0  0  0  0  0  0  0  0  0  0  0  0
   35.4805   32.1603   25.7867 C   0  0  0  0  0  0  0  0  0  0  0  0
   34.6043   31.3729   25.6257 O   0  0  0  0  0  0  0  0  0  0  0  0
   34.5998   33.7370   23.6141 C   0  0  0  0  0  0  0  0  0  0  0  0
   35.0943   34.8714   23.1059 C   0  0  0  0  0  0  0  0  0  0  0  0
   36.2041   35.3588   23.7421 N   0  0  0  0  0  0  0  0  0  0  0  0
   33.4283   32.9555   23.1578 C   0  0  0  0  0  0  0  0  0  0  0  0
   32.5099   32.3198   22.8590 N   0  0  0  0  0  0  0  0  0  0  0  0
  1  2  1  0  0  0  0
  1  7  1  0  0  0  0
  2  3  1  0  0  0  0
  2  4  2  0  0  0  0
  4  5  1  0  0  0  0
  5  6  2  0  0  0  0
  5 11  1  0  0  0  0
  6  7  1  0  0  0  0
  6  9  1  0  0  0  0
  7  8  2  0  0  0  0
  9 10  2  0  0  0  0
  9 12  1  0  0  0  0
 10 11  1  0  0  0  0
 12 13  3  0  0  0  0
M  END
>  <CHROM.1>
35.69315694,33.26757810,25.03103993,0.45520686,0.61975827,2.43737954

>  <Name>
ligand

>  <RI>
0

>  <Rbt.Current_Directory>
/home/itssahil/PROJECTS/Mol_Feturizer/New_Systems/rnas/3GCA

>  <Rbt.Executable>
rbdock ($Id: //depot/dev/client3/rdock/2013.1/src/exe/rbdock.cxx#4 $)

>  <Rbt.Library>
libRbt.so (2013.1, Build901 2013/11/27)

>  <Rbt.Parameter_File>
/export/apps/rDock/src/rDock_2013.1_src/data/scripts/dock_solv.prm

>  <Rbt.Receptor>
prm/pocket_docking_4.prm

>  <SCORE>
-24.0359

>  <SCORE.INTER>
-24.0359

>  <SCORE.INTER.CONST>
1

>  <SCORE.INTER.POLAR>
0

>  <SCORE.INTER.ROT>
0

>  <SCORE.INTER.SOLV>
11.3422

>  <SCORE.INTER.VDW>
-23.4047

>  <SCORE.INTER.norm>
-1.84891

>  <SCORE.INTRA>
0

>  <SCORE.INTRA.DIHEDRAL>
0

>  <SCORE.INTRA.DIHEDRAL.0>
0

>  <SCORE.INTRA.POLAR>
0

>  <SCORE.INTRA.POLAR.0>
0

>  <SCORE.INTRA.REPUL>
0

>  <SCORE.INTRA.REPUL.0>
0

>  <SCORE.INTRA.SOLV>
0

>  <SCORE.INTRA.SOLV.lig_0>
-33.1994

>  <SCORE.INTRA.VDW>
0

>  <SCORE.INTRA.VDW.0>
0

>  <SCORE.INTRA.norm>
0

>  <SCORE.RESTR>
0

>  <SCORE.RESTR.CAVITY>
0

>  <SCORE.RESTR.norm>
0

>  <SCORE.SYSTEM>
0

>  <SCORE.SYSTEM.CONST>
0

>  <SCORE.SYSTEM.DIHEDRAL>
0

>  <SCORE.SYSTEM.SOLV>
0

>  <SCORE.SYSTEM.norm>
0

>  <SCORE.heavy>
13

>  <SCORE.norm>
-1.84891

>  <RMSD>
4.903

$$$$
ligand
 OpenBabel11021811473D
libRbt.so/2013.1/901 2013/11/27
 13 14  0  0  0  0  0  0  0  0999 V2000
   36.4361   32.1145   26.7063 N   0  0  0  0  0  0  0  0  0  0  0  0
   37.5670   33.2192   26.8116 C   0  0  0  0  0  0  0  0  0  0  0  0
   38.5216   33.1107   27.8038 N   0  0  0  0  0  0  0  0  0  0  0  0
   37.4300   34.1236   25.9357 N   0  0  0  0  0  0  0  0  0  0  0  0
   36.5291   34.2744   24.9458 C   0  0  0  0  0  0  0  0  0  0  0  0
   35.5392   33.3756   24.7786 C   0  0  0  0  0  0  0  0  0  0  0  0
   35.4817   32.1600   25.7856 C   0  0  0  0  0  0  0  0  0  0  0  0
   34.6054   31.3726   25.6257 O   0  0  0  0  0  0  0  0  0  0  0  0
   34.6012   33.7340   23.6109 C   0  0  0  0  0  0  0  0  0  0  0  0
   35.0957   34.8676   23.1011 C   0  0  0  0  0  0  0  0  0  0  0  0
   36.2057   35.3557   23.7366 N   0  0  0  0  0  0  0  0  0  0  0  0
   33.4295   32.9521   23.1557 C   0  0  0  0  0  0  0  0  0  0  0  0
   32.5109   32.3162   22.8578 N   0  0  0  0  0  0  0  0  0  0  0  0
  1  2  1  0  0  0  0
  1  7  1  0  0  0  0
  2  3  1  0  0  0  0
  2  4  2  0  0  0  0
  4  5  1  0  0  0  0
  5  6  2  0  0  0  0
  5 11  1  0  0  0  0
  6  7  1  0  0  0  0
  6  9  1  0  0  0  0
  7  8  2  0  0  0  0
  9 10  2  0  0  0  0
  9 12  1  0  0  0  0
 10 11  1  0  0  0  0
 12 13  3  0  0  0  0
M  END
>  <CHROM.1>
35.69451038,33.26629885,25.02837611,0.45530816,0.61958831,2.43598281

>  <Name>
ligand

>  <RI>
0

>  <Rbt.Current_Directory>
/home/itssahil/PROJECTS/Mol_Feturizer/New_Systems/rnas/3GCA

>  <Rbt.Executable>
rbdock ($Id: //depot/dev/client3/rdock/2013.1/src/exe/rbdock.cxx#4 $)

>  <Rbt.Library>
libRbt.so (2013.1, Build901 2013/11/27)

>  <Rbt.Parameter_File>
/export/apps/rDock/src/rDock_2013.1_src/data/scripts/dock_solv.prm

>  <Rbt.Receptor>
prm/pocket_docking_4.prm

>  <SCORE>
-24.0347

>  <SCORE.INTER>
-24.0347

>  <SCORE.INTER.CONST>
1

>  <SCORE.INTER.POLAR>
0

>  <SCORE.INTER.ROT>
0

>  <SCORE.INTER.SOLV>
11.3381

>  <SCORE.INTER.VDW>
-23.4025

>  <SCORE.INTER.norm>
-1.84883

>  <SCORE.INTRA>
0

>  <SCORE.INTRA.DIHEDRAL>
0

>  <SCORE.INTRA.DIHEDRAL.0>
0

>  <SCORE.INTRA.POLAR>
0

>  <SCORE.INTRA.POLAR.0>
0

>  <SCORE.INTRA.REPUL>
0

>  <SCORE.INTRA.REPUL.0>
0

>  <SCORE.INTRA.SOLV>
0

>  <SCORE.INTRA.SOLV.lig_0>
-33.1994

>  <SCORE.INTRA.VDW>
0

>  <SCORE.INTRA.VDW.0>
0

>  <SCORE.INTRA.norm>
0

>  <SCORE.RESTR>
0

>  <SCORE.RESTR.CAVITY>
0

>  <SCORE.RESTR.norm>
0

>  <SCORE.SYSTEM>
0

>  <SCORE.SYSTEM.CONST>
0

>  <SCORE.SYSTEM.DIHEDRAL>
0

>  <SCORE.SYSTEM.SOLV>
0

>  <SCORE.SYSTEM.norm>
0

>  <SCORE.heavy>
13

>  <SCORE.norm>
-1.84883

>  <RMSD>
4.903

$$$$
ligand
 OpenBabel11021811473D
libRbt.so/2013.1/901 2013/11/27
 13 14  0  0  0  0  0  0  0  0999 V2000
   36.4357   32.1114   26.7100 N   0  0  0  0  0  0  0  0  0  0  0  0
   37.5682   33.2145   26.8152 C   0  0  0  0  0  0  0  0  0  0  0  0
   38.5228   33.1044   27.8073 N   0  0  0  0  0  0  0  0  0  0  0  0
   37.4323   34.1192   25.9395 N   0  0  0  0  0  0  0  0  0  0  0  0
   36.5315   34.2715   24.9498 C   0  0  0  0  0  0  0  0  0  0  0  0
   35.5403   33.3742   24.7826 C   0  0  0  0  0  0  0  0  0  0  0  0
   35.4812   32.1585   25.7894 C   0  0  0  0  0  0  0  0  0  0  0  0
   34.6038   31.3723   25.6295 O   0  0  0  0  0  0  0  0  0  0  0  0
   34.6026   33.7341   23.6152 C   0  0  0  0  0  0  0  0  0  0  0  0
   35.0987   34.8671   23.1054 C   0  0  0  0  0  0  0  0  0  0  0  0
   36.2095   35.3534   23.7408 N   0  0  0  0  0  0  0  0  0  0  0  0
   33.4297   32.9539   23.1600 C   0  0  0  0  0  0  0  0  0  0  0  0
   32.5102   32.3194   22.8622 N   0  0  0  0  0  0  0  0  0  0  0  0
  1  2  1  0  0  0  0
  1  7  1  0  0  0  0
  2  3  1  0  0  0  0
  2  4  2  0  0  0  0
  4  5  1  0  0  0  0
  5  6  2  0  0  0  0
  5 11  1  0  0  0  0
  6  7  1  0  0  0  0
  6  9  1  0  0  0  0
  7  8  2  0  0  0  0
  9 10  2  0  0  0  0
  9 12  1  0  0  0  0
 10 11  1  0  0  0  0
 12 13  3  0  0  0  0
M  END
>  <CHROM.1>
35.69548918,33.26456361,25.03233363,0.45650621,0.61853131,2.43546192

>  <Name>
ligand

>  <RI>
0

>  <Rbt.Current_Directory>
/home/itssahil/PROJECTS/Mol_Feturizer/New_Systems/rnas/3GCA

>  <Rbt.Executable>
rbdock ($Id: //depot/dev/client3/rdock/2013.1/src/exe/rbdock.cxx#4 $)

>  <Rbt.Library>
libRbt.so (2013.1, Build901 2013/11/27)

>  <Rbt.Parameter_File>
/export/apps/rDock/src/rDock_2013.1_src/data/scripts/dock_solv.prm

>  <Rbt.Receptor>
prm/pocket_docking_4.prm

>  <SCORE>
-24.0359

>  <SCORE.INTER>
-24.0359

>  <SCORE.INTER.CONST>
1

>  <SCORE.INTER.POLAR>
0

>  <SCORE.INTER.ROT>
0

>  <SCORE.INTER.SOLV>
11.3326

>  <SCORE.INTER.VDW>
-23.4015

>  <SCORE.INTER.norm>
-1.84892

>  <SCORE.INTRA>
0

>  <SCORE.INTRA.DIHEDRAL>
0

>  <SCORE.INTRA.DIHEDRAL.0>
0

>  <SCORE.INTRA.POLAR>
0

>  <SCORE.INTRA.POLAR.0>
0

>  <SCORE.INTRA.REPUL>
0

>  <SCORE.INTRA.REPUL.0>
0

>  <SCORE.INTRA.SOLV>
0

>  <SCORE.INTRA.SOLV.lig_0>
-33.1994

>  <SCORE.INTRA.VDW>
0

>  <SCORE.INTRA.VDW.0>
0

>  <SCORE.INTRA.norm>
0

>  <SCORE.RESTR>
0

>  <SCORE.RESTR.CAVITY>
0

>  <SCORE.RESTR.norm>
0

>  <SCORE.SYSTEM>
0

>  <SCORE.SYSTEM.CONST>
0

>  <SCORE.SYSTEM.DIHEDRAL>
0

>  <SCORE.SYSTEM.SOLV>
0

>  <SCORE.SYSTEM.norm>
0

>  <SCORE.heavy>
13

>  <SCORE.norm>
-1.84892

>  <RMSD>
4.903

$$$$
ligand
 OpenBabel11021811473D
libRbt.so/2013.1/901 2013/11/27
 13 14  0  0  0  0  0  0  0  0999 V2000
   36.4358   32.1131   26.7026 N   0  0  0  0  0  0  0  0  0  0  0  0
   37.5659   33.2184   26.8108 C   0  0  0  0  0  0  0  0  0  0  0  0
   38.5205   33.1079   27.8028 N   0  0  0  0  0  0  0  0  0  0  0  0
   37.4283   34.1249   25.9372 N   0  0  0  0  0  0  0  0  0  0  0  0
   36.5274   34.2777   24.9476 C   0  0  0  0  0  0  0  0  0  0  0  0
   35.5381   33.3786   24.7781 C   0  0  0  0  0  0  0  0  0  0  0  0
   35.4814   32.1604   25.7819 C   0  0  0  0  0  0  0  0  0  0  0  0
   34.6057   31.3728   25.6199 O   0  0  0  0  0  0  0  0  0  0  0  0
   34.5999   33.7394   23.6113 C   0  0  0  0  0  0  0  0  0  0  0  0
   35.0937   34.8746   23.1044 C   0  0  0  0  0  0  0  0  0  0  0  0
   36.2033   35.3618   23.7412 N   0  0  0  0  0  0  0  0  0  0  0  0
   33.4288   32.9578   23.1540 C   0  0  0  0  0  0  0  0  0  0  0  0
   32.5106   32.3220   22.8545 N   0  0  0  0  0  0  0  0  0  0  0  0
  1  2  1  0  0  0  0
  1  7  1  0  0  0  0
  2  3  1  0  0  0  0
  2  4  2  0  0  0  0
  4  5  1  0  0  0  0
  5  6  2  0  0  0  0
  5 11  1  0  0  0  0
  6  7  1  0  0  0  0
  6  9  1  0  0  0  0
  7  8  2  0  0  0  0
  9 10  2  0  0  0  0
  9 12  1  0  0  0  0
 10 11  1  0  0  0  0
 12 13  3  0  0  0  0
M  END
>  <CHROM.1>
35.69348290,33.26873693,25.02760086,0.45470531,0.62007076,2.43891573

>  <Name>
ligand

>  <RI>
0

>  <Rbt.Current_Directory>
/home/itssahil/PROJECTS/Mol_Feturizer/New_Systems/rnas/3GCA

>  <Rbt.Executable>
rbdock ($Id: //depot/dev/client3/rdock/2013.1/src/exe/rbdock.cxx#4 $)

>  <Rbt.Library>
libRbt.so (2013.1, Build901 2013/11/27)

>  <Rbt.Parameter_File>
/export/apps/rDock/src/rDock_2013.1_src/data/scripts/dock_solv.prm

>  <Rbt.Receptor>
prm/pocket_docking_4.prm

>  <SCORE>
-24.0349

>  <SCORE.INTER>
-24.0349

>  <SCORE.INTER.CONST>
1

>  <SCORE.INTER.POLAR>
0

>  <SCORE.INTER.ROT>
0

>  <SCORE.INTER.SOLV>
11.3413

>  <SCORE.INTER.VDW>
-23.4037

>  <SCORE.INTER.norm>
-1.84884

>  <SCORE.INTRA>
0

>  <SCORE.INTRA.DIHEDRAL>
0

>  <SCORE.INTRA.DIHEDRAL.0>
0

>  <SCORE.INTRA.POLAR>
0

>  <SCORE.INTRA.POLAR.0>
0

>  <SCORE.INTRA.REPUL>
0

>  <SCORE.INTRA.REPUL.0>
0

>  <SCORE.INTRA.SOLV>
0

>  <SCORE.INTRA.SOLV.lig_0>
-33.1994

>  <SCORE.INTRA.VDW>
0

>  <SCORE.INTRA.VDW.0>
0

>  <SCORE.INTRA.norm>
0

>  <SCORE.RESTR>
0

>  <SCORE.RESTR.CAVITY>
0

>  <SCORE.RESTR.norm>
0

>  <SCORE.SYSTEM>
0

>  <SCORE.SYSTEM.CONST>
0

>  <SCORE.SYSTEM.DIHEDRAL>
0

>  <SCORE.SYSTEM.SOLV>
0

>  <SCORE.SYSTEM.norm>
0

>  <SCORE.heavy>
13

>  <SCORE.norm>
-1.84884

>  <RMSD>
4.903

$$$$
ligand
 OpenBabel11021811473D
libRbt.so/2013.1/901 2013/11/27
 13 14  0  0  0  0  0  0  0  0999 V2000
   36.4041   32.1631   26.7262 N   0  0  0  0  0  0  0  0  0  0  0  0
   37.5434   33.2603   26.8170 C   0  0  0  0  0  0  0  0  0  0  0  0
   38.4927   33.1617   27.8154 N   0  0  0  0  0  0  0  0  0  0  0  0
   37.4176   34.1501   25.9246 N   0  0  0  0  0  0  0  0  0  0  0  0
   36.5224   34.2905   24.9281 C   0  0  0  0  0  0  0  0  0  0  0  0
   35.5260   33.3969   24.7723 C   0  0  0  0  0  0  0  0  0  0  0  0
   35.4542   32.1999   25.8004 C   0  0  0  0  0  0  0  0  0  0  0  0
   34.5722   31.4168   25.6504 O   0  0  0  0  0  0  0  0  0  0  0  0
   34.5961   33.7420   23.5942 C   0  0  0  0  0  0  0  0  0  0  0  0
   35.1022   34.8624   23.0666 C   0  0  0  0  0  0  0  0  0  0  0  0
   36.2132   35.3527   23.6984 N   0  0  0  0  0  0  0  0  0  0  0  0
   33.4202   32.9616   23.1475 C   0  0  0  0  0  0  0  0  0  0  0  0
   32.4978   32.3279   22.8568 N   0  0  0  0  0  0  0  0  0  0  0  0
  1  2  1  0  0  0  0
  1  7  1  0  0  0  0
  2  3  1  0  0  0  0
  2  4  2  0  0  0  0
  4  5  1  0  0  0  0
  5  6  2  0  0  0  0
  5 11  1  0  0  0  0
  6  7  1  0  0  0  0
  6  9  1  0  0  0  0
  7  8  2  0  0  0  0
  9 10  2  0  0  0  0
  9 12  1  0  0  0  0
 10 11  1  0  0  0  0
 12 13  3  0  0  0  0
M  END
>  <CHROM.1>
35.67932835,33.29077073,25.02469461,0.46642539,0.61767752,2.41178909

>  <Name>
ligand

>  <RI>
0

>  <Rbt.Current_Directory>
/home/itssahil/PROJECTS/Mol_Feturizer/New_Systems/rnas/3GCA

>  <Rbt.Executable>
rbdock ($Id: //depot/dev/client3/rdock/2013.1/src/exe/rbdock.cxx#4 $)

>  <Rbt.Library>
libRbt.so (2013.1, Build901 2013/11/27)

>  <Rbt.Parameter_File>
/export/apps/rDock/src/rDock_2013.1_src/data/scripts/dock_solv.prm

>  <Rbt.Receptor>
prm/pocket_docking_5.prm

>  <SCORE>
-24.0511

>  <SCORE.INTER>
-24.0511

>  <SCORE.INTER.CONST>
1

>  <SCORE.INTER.POLAR>
0

>  <SCORE.INTER.ROT>
0

>  <SCORE.INTER.SOLV>
11.4121

>  <SCORE.INTER.VDW>
-23.4381

>  <SCORE.INTER.norm>
-1.85009

>  <SCORE.INTRA>
0

>  <SCORE.INTRA.DIHEDRAL>
0

>  <SCORE.INTRA.DIHEDRAL.0>
0

>  <SCORE.INTRA.POLAR>
0

>  <SCORE.INTRA.POLAR.0>
0

>  <SCORE.INTRA.REPUL>
0

>  <SCORE.INTRA.REPUL.0>
0

>  <SCORE.INTRA.SOLV>
0

>  <SCORE.INTRA.SOLV.lig_0>
-33.1994

>  <SCORE.INTRA.VDW>
0

>  <SCORE.INTRA.VDW.0>
0

>  <SCORE.INTRA.norm>
0

>  <SCORE.RESTR>
0

>  <SCORE.RESTR.CAVITY>
0

>  <SCORE.RESTR.norm>
0

>  <SCORE.SYSTEM>
0

>  <SCORE.SYSTEM.CONST>
0

>  <SCORE.SYSTEM.DIHEDRAL>
0

>  <SCORE.SYSTEM.SOLV>
0

>  <SCORE.SYSTEM.norm>
0

>  <SCORE.heavy>
13

>  <SCORE.norm>
-1.85009

>  <RMSD>
4.903

$$$$
ligand
 OpenBabel11021811473D
libRbt.so/2013.1/901 2013/11/27
 13 14  0  0  0  0  0  0  0  0999 V2000
   36.4230   32.1244   26.7093 N   0  0  0  0  0  0  0  0  0  0  0  0
   37.5636   33.2201   26.8032 C   0  0  0  0  0  0  0  0  0  0  0  0
   38.5187   33.1119   27.7949 N   0  0  0  0  0  0  0  0  0  0  0  0
   37.4331   34.1179   25.9195 N   0  0  0  0  0  0  0  0  0  0  0  0
   36.5321   34.2679   24.9296 C   0  0  0  0  0  0  0  0  0  0  0  0
   35.5341   33.3763   24.7718 C   0  0  0  0  0  0  0  0  0  0  0  0
   35.4676   32.1701   25.7895 C   0  0  0  0  0  0  0  0  0  0  0  0
   34.5842   31.3890   25.6378 O   0  0  0  0  0  0  0  0  0  0  0  0
   34.5975   33.7326   23.6024 C   0  0  0  0  0  0  0  0  0  0  0  0
   35.1012   34.8573   23.0819 C   0  0  0  0  0  0  0  0  0  0  0  0
   36.2163   35.3412   23.7114 N   0  0  0  0  0  0  0  0  0  0  0  0
   33.4184   32.9570   23.1557 C   0  0  0  0  0  0  0  0  0  0  0  0
   32.4938   32.3265   22.8648 N   0  0  0  0  0  0  0  0  0  0  0  0
  1  2  1  0  0  0  0
  1  7  1  0  0  0  0
  2  3  1  0  0  0  0
  2  4  2  0  0  0  0
  4  5  1  0  0  0  0
  5  6  2  0  0  0  0
  5 11  1  0  0  0  0
  6  7  1  0  0  0  0
  6  9  1  0  0  0  0
  7  8  2  0  0  0  0
  9 10  2  0  0  0  0
  9 12  1  0  0  0  0
 10 11  1  0  0  0  0
 12 13  3  0  0  0  0
M  END
>  <CHROM.1>
35.68887709,33.26780616,25.02231205,0.46221326,0.61277378,2.42320146

>  <Name>
ligand

>  <RI>
0

>  <Rbt.Current_Directory>
/home/itssahil/PROJECTS/Mol_Feturizer/New_Systems/rnas/3GCA

>  <Rbt.Executable>
rbdock ($Id: //depot/dev/client3/rdock/2013.1/src/exe/rbdock.cxx#4 $)

>  <Rbt.Library>
libRbt.so (2013.1, Build901 2013/11/27)

>  <Rbt.Parameter_File>
/export/apps/rDock/src/rDock_2013.1_src/data/scripts/dock_solv.prm

>  <Rbt.Receptor>
prm/pocket_docking_5.prm

>  <SCORE>
-24.0212

>  <SCORE.INTER>
-24.0212

>  <SCORE.INTER.CONST>
1

>  <SCORE.INTER.POLAR>
0

>  <SCORE.INTER.ROT>
0

>  <SCORE.INTER.SOLV>
11.3411

>  <SCORE.INTER.VDW>
-23.3945

>  <SCORE.INTER.norm>
-1.84778

>  <SCORE.INTRA>
0

>  <SCORE.INTRA.DIHEDRAL>
0

>  <SCORE.INTRA.DIHEDRAL.0>
0

>  <SCORE.INTRA.POLAR>
0

>  <SCORE.INTRA.POLAR.0>
0

>  <SCORE.INTRA.REPUL>
0

>  <SCORE.INTRA.REPUL.0>
0

>  <SCORE.INTRA.SOLV>
0

>  <SCORE.INTRA.SOLV.lig_0>
-33.1994

>  <SCORE.INTRA.VDW>
0

>  <SCORE.INTRA.VDW.0>
0

>  <SCORE.INTRA.norm>
0

>  <SCORE.RESTR>
0

>  <SCORE.RESTR.CAVITY>
0

>  <SCORE.RESTR.norm>
0

>  <SCORE.SYSTEM>
0

>  <SCORE.SYSTEM.CONST>
0

>  <SCORE.SYSTEM.DIHEDRAL>
0

>  <SCORE.SYSTEM.SOLV>
0

>  <SCORE.SYSTEM.norm>
0

>  <SCORE.heavy>
13

>  <SCORE.norm>
-1.84778

>  <RMSD>
4.903

$$$$
ligand
 OpenBabel11021811473D
libRbt.so/2013.1/901 2013/11/27
 13 14  0  0  0  0  0  0  0  0999 V2000
   36.4233   32.0852   26.7895 N   0  0  0  0  0  0  0  0  0  0  0  0
   37.5518   33.1897   26.9189 C   0  0  0  0  0  0  0  0  0  0  0  0
   38.4873   33.0789   27.9290 N   0  0  0  0  0  0  0  0  0  0  0  0
   37.4315   34.0961   26.0427 N   0  0  0  0  0  0  0  0  0  0  0  0
   36.5496   34.2493   25.0361 C   0  0  0  0  0  0  0  0  0  0  0  0
   35.5632   33.3508   24.8479 C   0  0  0  0  0  0  0  0  0  0  0  0
   35.4866   32.1329   25.8508 C   0  0  0  0  0  0  0  0  0  0  0  0
   34.6136   31.3457   25.6723 O   0  0  0  0  0  0  0  0  0  0  0  0
   34.6476   33.7119   23.6634 C   0  0  0  0  0  0  0  0  0  0  0  0
   35.1517   34.8467   23.1658 C   0  0  0  0  0  0  0  0  0  0  0  0
   36.2493   35.3333   23.8235 N   0  0  0  0  0  0  0  0  0  0  0  0
   33.4849   32.9310   23.1841 C   0  0  0  0  0  0  0  0  0  0  0  0
   32.5723   32.2957   22.8672 N   0  0  0  0  0  0  0  0  0  0  0  0
  1  2  1  0  0  0  0
  1  7  1  0  0  0  0
  2  3  1  0  0  0  0
  2  4  2  0  0  0  0
  4  5  1  0  0  0  0
  5  6  2  0  0  0  0
  5 11  1  0  0  0  0
  6  7  1  0  0  0  0
  6  9  1  0  0  0  0
  7  8  2  0  0  0  0
  9 10  2  0  0  0  0
  9 12  1  0  0  0  0
 10 11  1  0  0  0  0
 12 13  3  0  0  0  0
M  END
>  <CHROM.1>
35.71372597,33.24089843,25.10041602,0.47059780,0.63413302,2.42936032

>  <Name>
ligand

>  <RI>
0

>  <Rbt.Current_Directory>
/home/itssahil/PROJECTS/Mol_Feturizer/New_Systems/rnas/3GCA

>  <Rbt.Executable>
rbdock ($Id: //depot/dev/client3/rdock/2013.1/src/exe/rbdock.cxx#4 $)

>  <Rbt.Library>
libRbt.so (2013.1, Build901 2013/11/27)

>  <Rbt.Parameter_File>
/export/apps/rDock/src/rDock_2013.1_src/data/scripts/dock_solv.prm

>  <Rbt.Receptor>
prm/pocket_docking_5.prm

>  <SCORE>
-24.0718

>  <SCORE.INTER>
-24.0718

>  <SCORE.INTER.CONST>
1

>  <SCORE.INTER.POLAR>
0

>  <SCORE.INTER.ROT>
0

>  <SCORE.INTER.SOLV>
11.5821

>  <SCORE.INTER.VDW>
-23.5086

>  <SCORE.INTER.norm>
-1.85168

>  <SCORE.INTRA>
0

>  <SCORE.INTRA.DIHEDRAL>
0

>  <SCORE.INTRA.DIHEDRAL.0>
0

>  <SCORE.INTRA.POLAR>
0

>  <SCORE.INTRA.POLAR.0>
0

>  <SCORE.INTRA.REPUL>
0

>  <SCORE.INTRA.REPUL.0>
0

>  <SCORE.INTRA.SOLV>
0

>  <SCORE.INTRA.SOLV.lig_0>
-33.1994

>  <SCORE.INTRA.VDW>
0

>  <SCORE.INTRA.VDW.0>
0

>  <SCORE.INTRA.norm>
0

>  <SCORE.RESTR>
0

>  <SCORE.RESTR.CAVITY>
0

>  <SCORE.RESTR.norm>
0

>  <SCORE.SYSTEM>
0

>  <SCORE.SYSTEM.CONST>
0

>  <SCORE.SYSTEM.DIHEDRAL>
0

>  <SCORE.SYSTEM.SOLV>
0

>  <SCORE.SYSTEM.norm>
0

>  <SCORE.heavy>
13

>  <SCORE.norm>
-1.85168

>  <RMSD>
4.903

$$$$
ligand
 OpenBabel11021811473D
libRbt.so/2013.1/901 2013/11/27
 13 14  0  0  0  0  0  0  0  0999 V2000
   36.4369   32.1123   26.7127 N   0  0  0  0  0  0  0  0  0  0  0  0
   37.5689   33.2157   26.8185 C   0  0  0  0  0  0  0  0  0  0  0  0
   38.5230   33.1060   27.8111 N   0  0  0  0  0  0  0  0  0  0  0  0
   37.4333   34.1202   25.9425 N   0  0  0  0  0  0  0  0  0  0  0  0
   36.5330   34.2721   24.9523 C   0  0  0  0  0  0  0  0  0  0  0  0
   35.5422   33.3745   24.7846 C   0  0  0  0  0  0  0  0  0  0  0  0
   35.4829   32.1589   25.7915 C   0  0  0  0  0  0  0  0  0  0  0  0
   34.6058   31.3725   25.6312 O   0  0  0  0  0  0  0  0  0  0  0  0
   34.6051   33.7340   23.6166 C   0  0  0  0  0  0  0  0  0  0  0  0
   35.1012   34.8670   23.1070 C   0  0  0  0  0  0  0  0  0  0  0  0
   36.2114   35.3538   23.7430 N   0  0  0  0  0  0  0  0  0  0  0  0
   33.4327   32.9534   23.1608 C   0  0  0  0  0  0  0  0  0  0  0  0
   32.5135   32.3185   22.8625 N   0  0  0  0  0  0  0  0  0  0  0  0
  1  2  1  0  0  0  0
  1  7  1  0  0  0  0
  2  3  1  0  0  0  0
  2  4  2  0  0  0  0
  4  5  1  0  0  0  0
  5  6  2  0  0  0  0
  5 11  1  0  0  0  0
  6  7  1  0  0  0  0
  6  9  1  0  0  0  0
  7  8  2  0  0  0  0
  9 10  2  0  0  0  0
  9 12  1  0  0  0  0
 10 11  1  0  0  0  0
 12 13  3  0  0  0  0
M  END
>  <CHROM.1>
35.69728389,33.26494224,25.03446738,0.45671126,0.61917958,2.43520834

>  <Name>
ligand

>  <RI>
0

>  <Rbt.Current_Directory>
/home/itssahil/PROJECTS/Mol_Feturizer/New_Systems/rnas/3GCA

>  <Rbt.Executable>
rbdock ($Id: //depot/dev/client3/rdock/2013.1/src/exe/rbdock.cxx#4 $)

>  <Rbt.Library>
libRbt.so (2013.1, Build901 2013/11/27)

>  <Rbt.Parameter_File>
/export/apps/rDock/src/rDock_2013.1_src/data/scripts/dock_solv.prm

>  <Rbt.Receptor>
prm/pocket_docking_5.prm

>  <SCORE>
-24.0356

>  <SCORE.INTER>
-24.0356

>  <SCORE.INTER.CONST>
1

>  <SCORE.INTER.POLAR>
0

>  <SCORE.INTER.ROT>
0

>  <SCORE.INTER.SOLV>
11.3308

>  <SCORE.INTER.VDW>
-23.4007

>  <SCORE.INTER.norm>
-1.84889

>  <SCORE.INTRA>
0

>  <SCORE.INTRA.DIHEDRAL>
0

>  <SCORE.INTRA.DIHEDRAL.0>
0

>  <SCORE.INTRA.POLAR>
0

>  <SCORE.INTRA.POLAR.0>
0

>  <SCORE.INTRA.REPUL>
0

>  <SCORE.INTRA.REPUL.0>
0

>  <SCORE.INTRA.SOLV>
0

>  <SCORE.INTRA.SOLV.lig_0>
-33.1994

>  <SCORE.INTRA.VDW>
0

>  <SCORE.INTRA.VDW.0>
0

>  <SCORE.INTRA.norm>
0

>  <SCORE.RESTR>
0

>  <SCORE.RESTR.CAVITY>
0

>  <SCORE.RESTR.norm>
0

>  <SCORE.SYSTEM>
0

>  <SCORE.SYSTEM.CONST>
0

>  <SCORE.SYSTEM.DIHEDRAL>
0

>  <SCORE.SYSTEM.SOLV>
0

>  <SCORE.SYSTEM.norm>
0

>  <SCORE.heavy>
13

>  <SCORE.norm>
-1.84889

>  <RMSD>
4.903

$$$$
ligand
 OpenBabel11021811473D
libRbt.so/2013.1/901 2013/11/27
 13 14  0  0  0  0  0  0  0  0999 V2000
   36.4152   32.0990   26.7968 N   0  0  0  0  0  0  0  0  0  0  0  0
   37.5449   33.2024   26.9255 C   0  0  0  0  0  0  0  0  0  0  0  0
   38.4766   33.0946   27.9393 N   0  0  0  0  0  0  0  0  0  0  0  0
   37.4291   34.1051   26.0448 N   0  0  0  0  0  0  0  0  0  0  0  0
   36.5511   34.2551   25.0344 C   0  0  0  0  0  0  0  0  0  0  0  0
   35.5640   33.3573   24.8466 C   0  0  0  0  0  0  0  0  0  0  0  0
   35.4820   32.1439   25.8545 C   0  0  0  0  0  0  0  0  0  0  0  0
   34.6085   31.3573   25.6764 O   0  0  0  0  0  0  0  0  0  0  0  0
   34.6533   33.7146   23.6573 C   0  0  0  0  0  0  0  0  0  0  0  0
   35.1609   34.8464   23.1565 C   0  0  0  0  0  0  0  0  0  0  0  0
   36.2568   35.3343   23.8160 N   0  0  0  0  0  0  0  0  0  0  0  0
   33.4911   32.9333   23.1772 C   0  0  0  0  0  0  0  0  0  0  0  0
   32.5787   32.2980   22.8598 N   0  0  0  0  0  0  0  0  0  0  0  0
  1  2  1  0  0  0  0
  1  7  1  0  0  0  0
  2  3  1  0  0  0  0
  2  4  2  0  0  0  0
  4  5  1  0  0  0  0
  5  6  2  0  0  0  0
  5 11  1  0  0  0  0
  6  7  1  0  0  0  0
  6  9  1  0  0  0  0
  7  8  2  0  0  0  0
  9 10  2  0  0  0  0
  9 12  1  0  0  0  0
 10 11  1  0  0  0  0
 12 13  3  0  0  0  0
M  END
>  <CHROM.1>
35.71350642,33.24831384,25.10012129,0.47492492,0.63587227,2.42239832

>  <Name>
ligand

>  <RI>
0

>  <Rbt.Current_Directory>
/home/itssahil/PROJECTS/Mol_Feturizer/New_Systems/rnas/3GCA

>  <Rbt.Executable>
rbdock ($Id: //depot/dev/client3/rdock/2013.1/src/exe/rbdock.cxx#4 $)

>  <Rbt.Library>
libRbt.so (2013.1, Build901 2013/11/27)

>  <Rbt.Parameter_File>
/export/apps/rDock/src/rDock_2013.1_src/data/scripts/dock_solv.prm

>  <Rbt.Receptor>
prm/pocket_docking_5.prm

>  <SCORE>
-24.067

>  <SCORE.INTER>
-24.067

>  <SCORE.INTER.CONST>
1

>  <SCORE.INTER.POLAR>
0

>  <SCORE.INTER.ROT>
0

>  <SCORE.INTER.SOLV>
11.6292

>  <SCORE.INTER.VDW>
-23.5211

>  <SCORE.INTER.norm>
-1.85131

>  <SCORE.INTRA>
0

>  <SCORE.INTRA.DIHEDRAL>
0

>  <SCORE.INTRA.DIHEDRAL.0>
0

>  <SCORE.INTRA.POLAR>
0

>  <SCORE.INTRA.POLAR.0>
0

>  <SCORE.INTRA.REPUL>
0

>  <SCORE.INTRA.REPUL.0>
0

>  <SCORE.INTRA.SOLV>
0

>  <SCORE.INTRA.SOLV.lig_0>
-33.1994

>  <SCORE.INTRA.VDW>
0

>  <SCORE.INTRA.VDW.0>
0

>  <SCORE.INTRA.norm>
0

>  <SCORE.RESTR>
0

>  <SCORE.RESTR.CAVITY>
0

>  <SCORE.RESTR.norm>
0

>  <SCORE.SYSTEM>
0

>  <SCORE.SYSTEM.CONST>
0

>  <SCORE.SYSTEM.DIHEDRAL>
0

>  <SCORE.SYSTEM.SOLV>
0

>  <SCORE.SYSTEM.norm>
0

>  <SCORE.heavy>
13

>  <SCORE.norm>
-1.85131

>  <RMSD>
4.903

$$$$
ligand
 OpenBabel11021811473D
libRbt.so/2013.1/901 2013/11/27
 13 14  0  0  0  0  0  0  0  0999 V2000
   36.4541   32.1021   26.6781 N   0  0  0  0  0  0  0  0  0  0  0  0
   37.5847   33.2071   26.7831 C   0  0  0  0  0  0  0  0  0  0  0  0
   38.5479   33.0911   27.7662 N   0  0  0  0  0  0  0  0  0  0  0  0
   37.4394   34.1187   25.9161 N   0  0  0  0  0  0  0  0  0  0  0  0
   36.5299   34.2770   24.9352 C   0  0  0  0  0  0  0  0  0  0  0  0
   35.5395   33.3786   24.7688 C   0  0  0  0  0  0  0  0  0  0  0  0
   35.4919   32.1544   25.7659 C   0  0  0  0  0  0  0  0  0  0  0  0
   34.6150   31.3674   25.6068 O   0  0  0  0  0  0  0  0  0  0  0  0
   34.5913   33.7459   23.6123 C   0  0  0  0  0  0  0  0  0  0  0  0
   35.0803   34.8843   23.1079 C   0  0  0  0  0  0  0  0  0  0  0  0
   36.1952   35.3681   23.7380 N   0  0  0  0  0  0  0  0  0  0  0  0
   33.4165   32.9666   23.1604 C   0  0  0  0  0  0  0  0  0  0  0  0
   32.4961   32.3322   22.8650 N   0  0  0  0  0  0  0  0  0  0  0  0
  1  2  1  0  0  0  0
  1  7  1  0  0  0  0
  2  3  1  0  0  0  0
  2  4  2  0  0  0  0
  4  5  1  0  0  0  0
  5  6  2  0  0  0  0
  5 11  1  0  0  0  0
  6  7  1  0  0  0  0
  6  9  1  0  0  0  0
  7  8  2  0  0  0  0
  9 10  2  0  0  0  0
  9 12  1  0  0  0  0
 10 11  1  0  0  0  0
 12 13  3  0  0  0  0
M  END
>  <CHROM.1>
35.69711152,33.26729030,25.01634915,0.44762339,0.61373289,2.44891605

>  <Name>
ligand

>  <RI>
0

>  <Rbt.Current_Directory>
/home/itssahil/PROJECTS/Mol_Feturizer/New_Systems/rnas/3GCA

>  <Rbt.Executable>
rbdock ($Id: //depot/dev/client3/rdock/2013.1/src/exe/rbdock.cxx#4 $)

>  <Rbt.Library>
libRbt.so (2013.1, Build901 2013/11/27)

>  <Rbt.Parameter_File>
/export/apps/rDock/src/rDock_2013.1_src/data/scripts/dock_solv.prm

>  <Rbt.Receptor>
prm/pocket_docking_6.prm

>  <SCORE>
-23.9672

>  <SCORE.INTER>
-23.9672

>  <SCORE.INTER.CONST>
1

>  <SCORE.INTER.POLAR>
0

>  <SCORE.INTER.ROT>
0

>  <SCORE.INTER.SOLV>
11.2649

>  <SCORE.INTER.VDW>
-23.3331

>  <SCORE.INTER.norm>
-1.84363

>  <SCORE.INTRA>
0

>  <SCORE.INTRA.DIHEDRAL>
0

>  <SCORE.INTRA.DIHEDRAL.0>
0

>  <SCORE.INTRA.POLAR>
0

>  <SCORE.INTRA.POLAR.0>
0

>  <SCORE.INTRA.REPUL>
0

>  <SCORE.INTRA.REPUL.0>
0

>  <SCORE.INTRA.SOLV>
0

>  <SCORE.INTRA.SOLV.lig_0>
-33.1994

>  <SCORE.INTRA.VDW>
0

>  <SCORE.INTRA.VDW.0>
0

>  <SCORE.INTRA.norm>
0

>  <SCORE.RESTR>
0

>  <SCORE.RESTR.CAVITY>
0

>  <SCORE.RESTR.norm>
0

>  <SCORE.SYSTEM>
0

>  <SCORE.SYSTEM.CONST>
0

>  <SCORE.SYSTEM.DIHEDRAL>
0

>  <SCORE.SYSTEM.SOLV>
0

>  <SCORE.SYSTEM.norm>
0

>  <SCORE.heavy>
13

>  <SCORE.norm>
-1.84363

>  <RMSD>
4.903

$$$$
ligand
 OpenBabel11021811473D
libRbt.so/2013.1/901 2013/11/27
 13 14  0  0  0  0  0  0  0  0999 V2000
   36.4386   32.1112   26.7042 N   0  0  0  0  0  0  0  0  0  0  0  0
   37.5692   33.2157   26.8135 C   0  0  0  0  0  0  0  0  0  0  0  0
   38.5226   33.1048   27.8067 N   0  0  0  0  0  0  0  0  0  0  0  0
   37.4333   34.1222   25.9396 N   0  0  0  0  0  0  0  0  0  0  0  0
   36.5336   34.2754   24.9490 C   0  0  0  0  0  0  0  0  0  0  0  0
   35.5440   33.3769   24.7783 C   0  0  0  0  0  0  0  0  0  0  0  0
   35.4853   32.1589   25.7823 C   0  0  0  0  0  0  0  0  0  0  0  0
   34.6093   31.3718   25.6194 O   0  0  0  0  0  0  0  0  0  0  0  0
   34.6074   33.7381   23.6104 C   0  0  0  0  0  0  0  0  0  0  0  0
   35.1026   34.8729   23.1039 C   0  0  0  0  0  0  0  0  0  0  0  0
   36.2117   35.3595   23.7420 N   0  0  0  0  0  0  0  0  0  0  0  0
   33.4364   32.9572   23.1518 C   0  0  0  0  0  0  0  0  0  0  0  0
   32.5182   32.3219   22.8513 N   0  0  0  0  0  0  0  0  0  0  0  0
  1  2  1  0  0  0  0
  1  7  1  0  0  0  0
  2  3  1  0  0  0  0
  2  4  2  0  0  0  0
  4  5  1  0  0  0  0
  5  6  2  0  0  0  0
  5 11  1  0  0  0  0
  6  7  1  0  0  0  0
  6  9  1  0  0  0  0
  7  8  2  0  0  0  0
  9 10  2  0  0  0  0
  9 12  1  0  0  0  0
 10 11  1  0  0  0  0
 12 13  3  0  0  0  0
M  END
>  <CHROM.1>
35.69899946,33.26698963,25.02809854,0.45625392,0.62058670,2.43784440

>  <Name>
ligand

>  <RI>
0

>  <Rbt.Current_Directory>
/home/itssahil/PROJECTS/Mol_Feturizer/New_Systems/rnas/3GCA

>  <Rbt.Executable>
rbdock ($Id: //depot/dev/client3/rdock/2013.1/src/exe/rbdock.cxx#4 $)

>  <Rbt.Library>
libRbt.so (2013.1, Build901 2013/11/27)

>  <Rbt.Parameter_File>
/export/apps/rDock/src/rDock_2013.1_src/data/scripts/dock_solv.prm

>  <Rbt.Receptor>
prm/pocket_docking_6.prm

>  <SCORE>
-24.0324

>  <SCORE.INTER>
-24.0324

>  <SCORE.INTER.CONST>
1

>  <SCORE.INTER.POLAR>
0

>  <SCORE.INTER.ROT>
0

>  <SCORE.INTER.SOLV>
11.3324

>  <SCORE.INTER.VDW>
-23.399

>  <SCORE.INTER.norm>
-1.84864

>  <SCORE.INTRA>
0

>  <SCORE.INTRA.DIHEDRAL>
0

>  <SCORE.INTRA.DIHEDRAL.0>
0

>  <SCORE.INTRA.POLAR>
0

>  <SCORE.INTRA.POLAR.0>
0

>  <SCORE.INTRA.REPUL>
0

>  <SCORE.INTRA.REPUL.0>
0

>  <SCORE.INTRA.SOLV>
0

>  <SCORE.INTRA.SOLV.lig_0>
-33.1994

>  <SCORE.INTRA.VDW>
0

>  <SCORE.INTRA.VDW.0>
0

>  <SCORE.INTRA.norm>
0

>  <SCORE.RESTR>
0

>  <SCORE.RESTR.CAVITY>
0

>  <SCORE.RESTR.norm>
0

>  <SCORE.SYSTEM>
0

>  <SCORE.SYSTEM.CONST>
0

>  <SCORE.SYSTEM.DIHEDRAL>
0

>  <SCORE.SYSTEM.SOLV>
0

>  <SCORE.SYSTEM.norm>
0

>  <SCORE.heavy>
13

>  <SCORE.norm>
-1.84864

>  <RMSD>
4.903

$$$$
ligand
 OpenBabel11021811473D
libRbt.so/2013.1/901 2013/11/27
 13 14  0  0  0  0  0  0  0  0999 V2000
   36.4354   32.1125   26.7098 N   0  0  0  0  0  0  0  0  0  0  0  0
   37.5665   33.2168   26.8167 C   0  0  0  0  0  0  0  0  0  0  0  0
   38.5207   33.1068   27.8093 N   0  0  0  0  0  0  0  0  0  0  0  0
   37.4302   34.1222   25.9418 N   0  0  0  0  0  0  0  0  0  0  0  0
   36.5297   34.2744   24.9517 C   0  0  0  0  0  0  0  0  0  0  0  0
   35.5396   33.3761   24.7831 C   0  0  0  0  0  0  0  0  0  0  0  0
   35.4814   32.1594   25.7887 C   0  0  0  0  0  0  0  0  0  0  0  0
   34.6049   31.3724   25.6275 O   0  0  0  0  0  0  0  0  0  0  0  0
   34.6022   33.7361   23.6155 C   0  0  0  0  0  0  0  0  0  0  0  0
   35.0973   34.8701   23.1071 C   0  0  0  0  0  0  0  0  0  0  0  0
   36.2072   35.3571   23.7436 N   0  0  0  0  0  0  0  0  0  0  0  0
   33.4305   32.9550   23.1589 C   0  0  0  0  0  0  0  0  0  0  0  0
   32.5118   32.3196   22.8599 N   0  0  0  0  0  0  0  0  0  0  0  0
  1  2  1  0  0  0  0
  1  7  1  0  0  0  0
  2  3  1  0  0  0  0
  2  4  2  0  0  0  0
  4  5  1  0  0  0  0
  5  6  2  0  0  0  0
  5 11  1  0  0  0  0
  6  7  1  0  0  0  0
  6  9  1  0  0  0  0
  7  8  2  0  0  0  0
  9 10  2  0  0  0  0
  9 12  1  0  0  0  0
 10 11  1  0  0  0  0
 12 13  3  0  0  0  0
M  END
>  <CHROM.1>
35.69482130,33.26641849,25.03283022,0.45590341,0.61971784,2.43676455

>  <Name>
ligand

>  <RI>
0

>  <Rbt.Current_Directory>
/home/itssahil/PROJECTS/Mol_Feturizer/New_Systems/rnas/3GCA

>  <Rbt.Executable>
rbdock ($Id: //depot/dev/client3/rdock/2013.1/src/exe/rbdock.cxx#4 $)

>  <Rbt.Library>
libRbt.so (2013.1, Build901 2013/11/27)

>  <Rbt.Parameter_File>
/export/apps/rDock/src/rDock_2013.1_src/data/scripts/dock_solv.prm

>  <Rbt.Receptor>
prm/pocket_docking_6.prm

>  <SCORE>
-24.0354

>  <SCORE.INTER>
-24.0354

>  <SCORE.INTER.CONST>
1

>  <SCORE.INTER.POLAR>
0

>  <SCORE.INTER.ROT>
0

>  <SCORE.INTER.SOLV>
11.3391

>  <SCORE.INTER.VDW>
-23.4033

>  <SCORE.INTER.norm>
-1.84888

>  <SCORE.INTRA>
0

>  <SCORE.INTRA.DIHEDRAL>
0

>  <SCORE.INTRA.DIHEDRAL.0>
0

>  <SCORE.INTRA.POLAR>
0

>  <SCORE.INTRA.POLAR.0>
0

>  <SCORE.INTRA.REPUL>
0

>  <SCORE.INTRA.REPUL.0>
0

>  <SCORE.INTRA.SOLV>
0

>  <SCORE.INTRA.SOLV.lig_0>
-33.1994

>  <SCORE.INTRA.VDW>
0

>  <SCORE.INTRA.VDW.0>
0

>  <SCORE.INTRA.norm>
0

>  <SCORE.RESTR>
0

>  <SCORE.RESTR.CAVITY>
0

>  <SCORE.RESTR.norm>
0

>  <SCORE.SYSTEM>
0

>  <SCORE.SYSTEM.CONST>
0

>  <SCORE.SYSTEM.DIHEDRAL>
0

>  <SCORE.SYSTEM.SOLV>
0

>  <SCORE.SYSTEM.norm>
0

>  <SCORE.heavy>
13

>  <SCORE.norm>
-1.84888

>  <RMSD>
4.903

$$$$
ligand
 OpenBabel11021811473D
libRbt.so/2013.1/901 2013/11/27
 13 14  0  0  0  0  0  0  0  0999 V2000
   36.4359   32.1140   26.7114 N   0  0  0  0  0  0  0  0  0  0  0  0
   37.5675   33.2179   26.8179 C   0  0  0  0  0  0  0  0  0  0  0  0
   38.5209   33.1087   27.8112 N   0  0  0  0  0  0  0  0  0  0  0  0
   37.4321   34.1224   25.9418 N   0  0  0  0  0  0  0  0  0  0  0  0
   36.5324   34.2739   24.9509 C   0  0  0  0  0  0  0  0  0  0  0  0
   35.5420   33.3758   24.7827 C   0  0  0  0  0  0  0  0  0  0  0  0
   35.4825   32.1603   25.7896 C   0  0  0  0  0  0  0  0  0  0  0  0
   34.6059   31.3734   25.6288 O   0  0  0  0  0  0  0  0  0  0  0  0
   34.6055   33.7349   23.6140 C   0  0  0  0  0  0  0  0  0  0  0  0
   35.1015   34.8681   23.1047 C   0  0  0  0  0  0  0  0  0  0  0  0
   36.2111   35.3553   23.7414 N   0  0  0  0  0  0  0  0  0  0  0  0
   33.4338   32.9538   23.1576 C   0  0  0  0  0  0  0  0  0  0  0  0
   32.5150   32.3185   22.8587 N   0  0  0  0  0  0  0  0  0  0  0  0
  1  2  1  0  0  0  0
  1  7  1  0  0  0  0
  2  3  1  0  0  0  0
  2  4  2  0  0  0  0
  4  5  1  0  0  0  0
  5  6  2  0  0  0  0
  5 11  1  0  0  0  0
  6  7  1  0  0  0  0
  6  9  1  0  0  0  0
  7  8  2  0  0  0  0
  9 10  2  0  0  0  0
  9 12  1  0  0  0  0
 10 11  1  0  0  0  0
 12 13  3  0  0  0  0
M  END
>  <CHROM.1>
35.69698142,33.26634371,25.03266565,0.45685231,0.61993485,2.43507554

>  <Name>
ligand

>  <RI>
0

>  <Rbt.Current_Directory>
/home/itssahil/PROJECTS/Mol_Feturizer/New_Systems/rnas/3GCA

>  <Rbt.Executable>
rbdock ($Id: //depot/dev/client3/rdock/2013.1/src/exe/rbdock.cxx#4 $)

>  <Rbt.Library>
libRbt.so (2013.1, Build901 2013/11/27)

>  <Rbt.Parameter_File>
/export/apps/rDock/src/rDock_2013.1_src/data/scripts/dock_solv.prm

>  <Rbt.Receptor>
prm/pocket_docking_6.prm

>  <SCORE>
-24.035

>  <SCORE.INTER>
-24.035

>  <SCORE.INTER.CONST>
1

>  <SCORE.INTER.POLAR>
0

>  <SCORE.INTER.ROT>
0

>  <SCORE.INTER.SOLV>
11.3368

>  <SCORE.INTER.VDW>
-23.4023

>  <SCORE.INTER.norm>
-1.84885

>  <SCORE.INTRA>
0

>  <SCORE.INTRA.DIHEDRAL>
0

>  <SCORE.INTRA.DIHEDRAL.0>
0

>  <SCORE.INTRA.POLAR>
0

>  <SCORE.INTRA.POLAR.0>
0

>  <SCORE.INTRA.REPUL>
0

>  <SCORE.INTRA.REPUL.0>
0

>  <SCORE.INTRA.SOLV>
0

>  <SCORE.INTRA.SOLV.lig_0>
-33.1994

>  <SCORE.INTRA.VDW>
0

>  <SCORE.INTRA.VDW.0>
0

>  <SCORE.INTRA.norm>
0

>  <SCORE.RESTR>
0

>  <SCORE.RESTR.CAVITY>
0

>  <SCORE.RESTR.norm>
0

>  <SCORE.SYSTEM>
0

>  <SCORE.SYSTEM.CONST>
0

>  <SCORE.SYSTEM.DIHEDRAL>
0

>  <SCORE.SYSTEM.SOLV>
0

>  <SCORE.SYSTEM.norm>
0

>  <SCORE.heavy>
13

>  <SCORE.norm>
-1.84885

>  <RMSD>
4.903

$$$$
ligand
 OpenBabel11021811473D
libRbt.so/2013.1/901 2013/11/27
 13 14  0  0  0  0  0  0  0  0999 V2000
   36.4098   32.1650   26.7250 N   0  0  0  0  0  0  0  0  0  0  0  0
   37.5429   33.2680   26.8227 C   0  0  0  0  0  0  0  0  0  0  0  0
   38.4903   33.1708   27.8230 N   0  0  0  0  0  0  0  0  0  0  0  0
   37.4145   34.1604   25.9333 N   0  0  0  0  0  0  0  0  0  0  0  0
   36.5209   34.2998   24.9351 C   0  0  0  0  0  0  0  0  0  0  0  0
   35.5297   33.4014   24.7736 C   0  0  0  0  0  0  0  0  0  0  0  0
   35.4619   32.2002   25.7971 C   0  0  0  0  0  0  0  0  0  0  0  0
   34.5845   31.4129   25.6420 O   0  0  0  0  0  0  0  0  0  0  0  0
   34.6008   33.7459   23.5946 C   0  0  0  0  0  0  0  0  0  0  0  0
   35.1020   34.8710   23.0724 C   0  0  0  0  0  0  0  0  0  0  0  0
   36.2089   35.3649   23.7087 N   0  0  0  0  0  0  0  0  0  0  0  0
   33.4302   32.9609   23.1421 C   0  0  0  0  0  0  0  0  0  0  0  0
   32.5119   32.3233   22.8468 N   0  0  0  0  0  0  0  0  0  0  0  0
  1  2  1  0  0  0  0
  1  7  1  0  0  0  0
  2  3  1  0  0  0  0
  2  4  2  0  0  0  0
  4  5  1  0  0  0  0
  5  6  2  0  0  0  0
  5 11  1  0  0  0  0
  6  7  1  0  0  0  0
  6  9  1  0  0  0  0
  7  8  2  0  0  0  0
  9 10  2  0  0  0  0
  9 12  1  0  0  0  0
 10 11  1  0  0  0  0
 12 13  3  0  0  0  0
M  END
>  <CHROM.1>
35.68299268,33.29515178,25.02600035,0.46343902,0.62305814,2.41727909

>  <Name>
ligand

>  <RI>
0

>  <Rbt.Current_Directory>
/home/itssahil/PROJECTS/Mol_Feturizer/New_Systems/rnas/3GCA

>  <Rbt.Executable>
rbdock ($Id: //depot/dev/client3/rdock/2013.1/src/exe/rbdock.cxx#4 $)

>  <Rbt.Library>
libRbt.so (2013.1, Build901 2013/11/27)

>  <Rbt.Parameter_File>
/export/apps/rDock/src/rDock_2013.1_src/data/scripts/dock_solv.prm

>  <Rbt.Receptor>
prm/pocket_docking_6.prm

>  <SCORE>
-24.0468

>  <SCORE.INTER>
-24.0468

>  <SCORE.INTER.CONST>
1

>  <SCORE.INTER.POLAR>
0

>  <SCORE.INTER.ROT>
0

>  <SCORE.INTER.SOLV>
11.4196

>  <SCORE.INTER.VDW>
-23.4377

>  <SCORE.INTER.norm>
-1.84975

>  <SCORE.INTRA>
0

>  <SCORE.INTRA.DIHEDRAL>
0

>  <SCORE.INTRA.DIHEDRAL.0>
0

>  <SCORE.INTRA.POLAR>
0

>  <SCORE.INTRA.POLAR.0>
0

>  <SCORE.INTRA.REPUL>
0

>  <SCORE.INTRA.REPUL.0>
0

>  <SCORE.INTRA.SOLV>
0

>  <SCORE.INTRA.SOLV.lig_0>
-33.1994

>  <SCORE.INTRA.VDW>
0

>  <SCORE.INTRA.VDW.0>
0

>  <SCORE.INTRA.norm>
0

>  <SCORE.RESTR>
0

>  <SCORE.RESTR.CAVITY>
0

>  <SCORE.RESTR.norm>
0

>  <SCORE.SYSTEM>
0

>  <SCORE.SYSTEM.CONST>
0

>  <SCORE.SYSTEM.DIHEDRAL>
0

>  <SCORE.SYSTEM.SOLV>
0

>  <SCORE.SYSTEM.norm>
0

>  <SCORE.heavy>
13

>  <SCORE.norm>
-1.84975

>  <RMSD>
4.903

$$$$
ligand
 OpenBabel11021811473D
libRbt.so/2013.1/901 2013/11/27
 13 14  0  0  0  0  0  0  0  0999 V2000
   36.4317   32.1095   26.7071 N   0  0  0  0  0  0  0  0  0  0  0  0
   37.5651   33.2117   26.8126 C   0  0  0  0  0  0  0  0  0  0  0  0
   38.5197   33.1004   27.8046 N   0  0  0  0  0  0  0  0  0  0  0  0
   37.4299   34.1168   25.9372 N   0  0  0  0  0  0  0  0  0  0  0  0
   36.5291   34.2702   24.9476 C   0  0  0  0  0  0  0  0  0  0  0  0
   35.5372   33.3737   24.7802 C   0  0  0  0  0  0  0  0  0  0  0  0
   35.4772   32.1577   25.7866 C   0  0  0  0  0  0  0  0  0  0  0  0
   34.5991   31.3723   25.6265 O   0  0  0  0  0  0  0  0  0  0  0  0
   34.5997   33.7348   23.6130 C   0  0  0  0  0  0  0  0  0  0  0  0
   35.0967   34.8675   23.1036 C   0  0  0  0  0  0  0  0  0  0  0  0
   36.2079   35.3527   23.7390 N   0  0  0  0  0  0  0  0  0  0  0  0
   33.4261   32.9558   23.1576 C   0  0  0  0  0  0  0  0  0  0  0  0
   32.5061   32.3221   22.8596 N   0  0  0  0  0  0  0  0  0  0  0  0
  1  2  1  0  0  0  0
  1  7  1  0  0  0  0
  2  3  1  0  0  0  0
  2  4  2  0  0  0  0
  4  5  1  0  0  0  0
  5  6  2  0  0  0  0
  5 11  1  0  0  0  0
  6  7  1  0  0  0  0
  6  9  1  0  0  0  0
  7  8  2  0  0  0  0
  9 10  2  0  0  0  0
  9 12  1  0  0  0  0
 10 11  1  0  0  0  0
 12 13  3  0  0  0  0
M  END
>  <CHROM.1>
35.69231620,33.26386852,25.02989590,0.45722536,0.61793957,2.43539038

>  <Name>
ligand

>  <RI>
0

>  <Rbt.Current_Directory>
/home/itssahil/PROJECTS/Mol_Feturizer/New_Systems/rnas/3GCA

>  <Rbt.Executable>
rbdock ($Id: //depot/dev/client3/rdock/2013.1/src/exe/rbdock.cxx#4 $)

>  <Rbt.Library>
libRbt.so (2013.1, Build901 2013/11/27)

>  <Rbt.Parameter_File>
/export/apps/rDock/src/rDock_2013.1_src/data/scripts/dock_solv.prm

>  <Rbt.Receptor>
prm/pocket_docking_7.prm

>  <SCORE>
-24.0345

>  <SCORE.INTER>
-24.0345

>  <SCORE.INTER.CONST>
1

>  <SCORE.INTER.POLAR>
0

>  <SCORE.INTER.ROT>
0

>  <SCORE.INTER.SOLV>
11.3428

>  <SCORE.INTER.VDW>
-23.4039

>  <SCORE.INTER.norm>
-1.84881

>  <SCORE.INTRA>
0

>  <SCORE.INTRA.DIHEDRAL>
0

>  <SCORE.INTRA.DIHEDRAL.0>
0

>  <SCORE.INTRA.POLAR>
0

>  <SCORE.INTRA.POLAR.0>
0

>  <SCORE.INTRA.REPUL>
0

>  <SCORE.INTRA.REPUL.0>
0

>  <SCORE.INTRA.SOLV>
0

>  <SCORE.INTRA.SOLV.lig_0>
-33.1994

>  <SCORE.INTRA.VDW>
0

>  <SCORE.INTRA.VDW.0>
0

>  <SCORE.INTRA.norm>
0

>  <SCORE.RESTR>
0

>  <SCORE.RESTR.CAVITY>
0

>  <SCORE.RESTR.norm>
0

>  <SCORE.SYSTEM>
0

>  <SCORE.SYSTEM.CONST>
0

>  <SCORE.SYSTEM.DIHEDRAL>
0

>  <SCORE.SYSTEM.SOLV>
0

>  <SCORE.SYSTEM.norm>
0

>  <SCORE.heavy>
13

>  <SCORE.norm>
-1.84881

>  <RMSD>
4.903

$$$$
ligand
 OpenBabel11021811473D
libRbt.so/2013.1/901 2013/11/27
 13 14  0  0  0  0  0  0  0  0999 V2000
   36.4350   32.1123   26.7042 N   0  0  0  0  0  0  0  0  0  0  0  0
   37.5644   33.2183   26.8118 C   0  0  0  0  0  0  0  0  0  0  0  0
   38.5198   33.1083   27.8031 N   0  0  0  0  0  0  0  0  0  0  0  0
   37.4255   34.1250   25.9386 N   0  0  0  0  0  0  0  0  0  0  0  0
   36.5237   34.2774   24.9497 C   0  0  0  0  0  0  0  0  0  0  0  0
   35.5350   33.3777   24.7806 C   0  0  0  0  0  0  0  0  0  0  0  0
   35.4799   32.1591   25.7842 C   0  0  0  0  0  0  0  0  0  0  0  0
   34.6046   31.3709   25.6227 O   0  0  0  0  0  0  0  0  0  0  0  0
   34.5957   33.7380   23.6147 C   0  0  0  0  0  0  0  0  0  0  0  0
   35.0883   34.8738   23.1077 C   0  0  0  0  0  0  0  0  0  0  0  0
   36.1980   35.3616   23.7438 N   0  0  0  0  0  0  0  0  0  0  0  0
   33.4248   32.9558   23.1580 C   0  0  0  0  0  0  0  0  0  0  0  0
   32.5069   32.3194   22.8589 N   0  0  0  0  0  0  0  0  0  0  0  0
  1  2  1  0  0  0  0
  1  7  1  0  0  0  0
  2  3  1  0  0  0  0
  2  4  2  0  0  0  0
  4  5  1  0  0  0  0
  5  6  2  0  0  0  0
  5 11  1  0  0  0  0
  6  7  1  0  0  0  0
  6  9  1  0  0  0  0
  7  8  2  0  0  0  0
  9 10  2  0  0  0  0
  9 12  1  0  0  0  0
 10 11  1  0  0  0  0
 12 13  3  0  0  0  0
M  END
>  <CHROM.1>
35.69062237,33.26782036,25.03004026,0.45345066,0.61998623,2.43990831

>  <Name>
ligand

>  <RI>
0

>  <Rbt.Current_Directory>
/home/itssahil/PROJECTS/Mol_Feturizer/New_Systems/rnas/3GCA

>  <Rbt.Executable>
rbdock ($Id: //depot/dev/client3/rdock/2013.1/src/exe/rbdock.cxx#4 $)

>  <Rbt.Library>
libRbt.so (2013.1, Build901 2013/11/27)

>  <Rbt.Parameter_File>
/export/apps/rDock/src/rDock_2013.1_src/data/scripts/dock_solv.prm

>  <Rbt.Receptor>
prm/pocket_docking_7.prm

>  <SCORE>
-24.0347

>  <SCORE.INTER>
-24.0347

>  <SCORE.INTER.CONST>
1

>  <SCORE.INTER.POLAR>
0

>  <SCORE.INTER.ROT>
0

>  <SCORE.INTER.SOLV>
11.3458

>  <SCORE.INTER.VDW>
-23.4051

>  <SCORE.INTER.norm>
-1.84882

>  <SCORE.INTRA>
0

>  <SCORE.INTRA.DIHEDRAL>
0

>  <SCORE.INTRA.DIHEDRAL.0>
0

>  <SCORE.INTRA.POLAR>
0

>  <SCORE.INTRA.POLAR.0>
0

>  <SCORE.INTRA.REPUL>
0

>  <SCORE.INTRA.REPUL.0>
0

>  <SCORE.INTRA.SOLV>
0

>  <SCORE.INTRA.SOLV.lig_0>
-33.1994

>  <SCORE.INTRA.VDW>
0

>  <SCORE.INTRA.VDW.0>
0

>  <SCORE.INTRA.norm>
0

>  <SCORE.RESTR>
0

>  <SCORE.RESTR.CAVITY>
0

>  <SCORE.RESTR.norm>
0

>  <SCORE.SYSTEM>
0

>  <SCORE.SYSTEM.CONST>
0

>  <SCORE.SYSTEM.DIHEDRAL>
0

>  <SCORE.SYSTEM.SOLV>
0

>  <SCORE.SYSTEM.norm>
0

>  <SCORE.heavy>
13

>  <SCORE.norm>
-1.84882

>  <RMSD>
4.903

$$$$
ligand
 OpenBabel11021811473D
libRbt.so/2013.1/901 2013/11/27
 13 14  0  0  0  0  0  0  0  0999 V2000
   36.4192   32.1116   26.7178 N   0  0  0  0  0  0  0  0  0  0  0  0
   37.5473   33.2184   26.8299 C   0  0  0  0  0  0  0  0  0  0  0  0
   38.4941   33.1134   27.8300 N   0  0  0  0  0  0  0  0  0  0  0  0
   37.4158   34.1208   25.9512 N   0  0  0  0  0  0  0  0  0  0  0  0
   36.5226   34.2682   24.9538 C   0  0  0  0  0  0  0  0  0  0  0  0
   35.5356   33.3674   24.7804 C   0  0  0  0  0  0  0  0  0  0  0  0
   35.4722   32.1536   25.7893 C   0  0  0  0  0  0  0  0  0  0  0  0
   34.5985   31.3644   25.6239 O   0  0  0  0  0  0  0  0  0  0  0  0
   34.6064   33.7219   23.6046 C   0  0  0  0  0  0  0  0  0  0  0  0
   35.1031   34.8553   23.0965 C   0  0  0  0  0  0  0  0  0  0  0  0
   36.2071   35.3465   23.7399 N   0  0  0  0  0  0  0  0  0  0  0  0
   33.4398   32.9370   23.1415 C   0  0  0  0  0  0  0  0  0  0  0  0
   32.5247   32.2989   22.8375 N   0  0  0  0  0  0  0  0  0  0  0  0
  1  2  1  0  0  0  0
  1  7  1  0  0  0  0
  2  3  1  0  0  0  0
  2  4  2  0  0  0  0
  4  5  1  0  0  0  0
  5  6  2  0  0  0  0
  5 11  1  0  0  0  0
  6  7  1  0  0  0  0
  6  9  1  0  0  0  0
  7  8  2  0  0  0  0
  9 10  2  0  0  0  0
  9 12  1  0  0  0  0
 10 11  1  0  0  0  0
 12 13  3  0  0  0  0
M  END
>  <CHROM.1>
35.68914827,33.25879168,25.03168541,0.46012354,0.62681035,2.43121999

>  <Name>
ligand

>  <RI>
0

>  <Rbt.Current_Directory>
/home/itssahil/PROJECTS/Mol_Feturizer/New_Systems/rnas/3GCA

>  <Rbt.Executable>
rbdock ($Id: //depot/dev/client3/rdock/2013.1/src/exe/rbdock.cxx#4 $)

>  <Rbt.Library>
libRbt.so (2013.1, Build901 2013/11/27)

>  <Rbt.Parameter_File>
/export/apps/rDock/src/rDock_2013.1_src/data/scripts/dock_solv.prm

>  <Rbt.Receptor>
prm/pocket_docking_7.prm

>  <SCORE>
-24.033

>  <SCORE.INTER>
-24.033

>  <SCORE.INTER.CONST>
1

>  <SCORE.INTER.POLAR>
0

>  <SCORE.INTER.ROT>
0

>  <SCORE.INTER.SOLV>
11.4293

>  <SCORE.INTER.VDW>
-23.4318

>  <SCORE.INTER.norm>
-1.84869

>  <SCORE.INTRA>
0

>  <SCORE.INTRA.DIHEDRAL>
0

>  <SCORE.INTRA.DIHEDRAL.0>
0

>  <SCORE.INTRA.POLAR>
0

>  <SCORE.INTRA.POLAR.0>
0

>  <SCORE.INTRA.REPUL>
0

>  <SCORE.INTRA.REPUL.0>
0

>  <SCORE.INTRA.SOLV>
0

>  <SCORE.INTRA.SOLV.lig_0>
-33.1994

>  <SCORE.INTRA.VDW>
0

>  <SCORE.INTRA.VDW.0>
0

>  <SCORE.INTRA.norm>
0

>  <SCORE.RESTR>
0

>  <SCORE.RESTR.CAVITY>
0

>  <SCORE.RESTR.norm>
0

>  <SCORE.SYSTEM>
0

>  <SCORE.SYSTEM.CONST>
0

>  <SCORE.SYSTEM.DIHEDRAL>
0

>  <SCORE.SYSTEM.SOLV>
0

>  <SCORE.SYSTEM.norm>
0

>  <SCORE.heavy>
13

>  <SCORE.norm>
-1.84869

>  <RMSD>
4.903

$$$$
ligand
 OpenBabel11021811473D
libRbt.so/2013.1/901 2013/11/27
 13 14  0  0  0  0  0  0  0  0999 V2000
   36.4366   32.1103   26.7124 N   0  0  0  0  0  0  0  0  0  0  0  0
   37.5710   33.2113   26.8178 C   0  0  0  0  0  0  0  0  0  0  0  0
   38.5241   33.1005   27.8113 N   0  0  0  0  0  0  0  0  0  0  0  0
   37.4381   34.1151   25.9408 N   0  0  0  0  0  0  0  0  0  0  0  0
   36.5389   34.2680   24.9497 C   0  0  0  0  0  0  0  0  0  0  0  0
   35.5462   33.3723   24.7823 C   0  0  0  0  0  0  0  0  0  0  0  0
   35.4834   32.1580   25.7905 C   0  0  0  0  0  0  0  0  0  0  0  0
   34.6047   31.3733   25.6304 O   0  0  0  0  0  0  0  0  0  0  0  0
   34.6108   33.7326   23.6131 C   0  0  0  0  0  0  0  0  0  0  0  0
   35.1098   34.8640   23.1027 C   0  0  0  0  0  0  0  0  0  0  0  0
   36.2206   35.3490   23.7389 N   0  0  0  0  0  0  0  0  0  0  0  0
   33.4370   32.9542   23.1574 C   0  0  0  0  0  0  0  0  0  0  0  0
   32.5166   32.3210   22.8591 N   0  0  0  0  0  0  0  0  0  0  0  0
  1  2  1  0  0  0  0
  1  7  1  0  0  0  0
  2  3  1  0  0  0  0
  2  4  2  0  0  0  0
  4  5  1  0  0  0  0
  5  6  2  0  0  0  0
  5 11  1  0  0  0  0
  6  7  1  0  0  0  0
  6  9  1  0  0  0  0
  7  8  2  0  0  0  0
  9 10  2  0  0  0  0
  9 12  1  0  0  0  0
 10 11  1  0  0  0  0
 12 13  3  0  0  0  0
M  END
>  <CHROM.1>
35.70085656,33.26272682,25.03237789,0.45939803,0.61829951,2.43253469

>  <Name>
ligand

>  <RI>
0

>  <Rbt.Current_Directory>
/home/itssahil/PROJECTS/Mol_Feturizer/New_Systems/rnas/3GCA

>  <Rbt.Executable>
rbdock ($Id: //depot/dev/client3/rdock/2013.1/src/exe/rbdock.cxx#4 $)

>  <Rbt.Library>
libRbt.so (2013.1, Build901 2013/11/27)

>  <Rbt.Parameter_File>
/export/apps/rDock/src/rDock_2013.1_src/data/scripts/dock_solv.prm

>  <Rbt.Receptor>
prm/pocket_docking_7.prm

>  <SCORE>
-24.0335

>  <SCORE.INTER>
-24.0335

>  <SCORE.INTER.CONST>
1

>  <SCORE.INTER.POLAR>
0

>  <SCORE.INTER.ROT>
0

>  <SCORE.INTER.SOLV>
11.3243

>  <SCORE.INTER.VDW>
-23.3971

>  <SCORE.INTER.norm>
-1.84873

>  <SCORE.INTRA>
0

>  <SCORE.INTRA.DIHEDRAL>
0

>  <SCORE.INTRA.DIHEDRAL.0>
0

>  <SCORE.INTRA.POLAR>
0

>  <SCORE.INTRA.POLAR.0>
0

>  <SCORE.INTRA.REPUL>
0

>  <SCORE.INTRA.REPUL.0>
0

>  <SCORE.INTRA.SOLV>
0

>  <SCORE.INTRA.SOLV.lig_0>
-33.1994

>  <SCORE.INTRA.VDW>
0

>  <SCORE.INTRA.VDW.0>
0

>  <SCORE.INTRA.norm>
0

>  <SCORE.RESTR>
0

>  <SCORE.RESTR.CAVITY>
0

>  <SCORE.RESTR.norm>
0

>  <SCORE.SYSTEM>
0

>  <SCORE.SYSTEM.CONST>
0

>  <SCORE.SYSTEM.DIHEDRAL>
0

>  <SCORE.SYSTEM.SOLV>
0

>  <SCORE.SYSTEM.norm>
0

>  <SCORE.heavy>
13

>  <SCORE.norm>
-1.84873

>  <RMSD>
4.903

$$$$
ligand
 OpenBabel11021811473D
libRbt.so/2013.1/901 2013/11/27
 13 14  0  0  0  0  0  0  0  0999 V2000
   36.4363   32.1128   26.7024 N   0  0  0  0  0  0  0  0  0  0  0  0
   37.5680   33.2165   26.8089 C   0  0  0  0  0  0  0  0  0  0  0  0
   38.5212   33.1073   27.8024 N   0  0  0  0  0  0  0  0  0  0  0  0
   37.4329   34.1209   25.9327 N   0  0  0  0  0  0  0  0  0  0  0  0
   36.5334   34.2723   24.9416 C   0  0  0  0  0  0  0  0  0  0  0  0
   35.5430   33.3744   24.7732 C   0  0  0  0  0  0  0  0  0  0  0  0
   35.4831   32.1590   25.7804 C   0  0  0  0  0  0  0  0  0  0  0  0
   34.6063   31.3723   25.6195 O   0  0  0  0  0  0  0  0  0  0  0  0
   34.6068   33.7334   23.6044 C   0  0  0  0  0  0  0  0  0  0  0  0
   35.1030   34.8664   23.0949 C   0  0  0  0  0  0  0  0  0  0  0  0
   36.2126   35.3536   23.7318 N   0  0  0  0  0  0  0  0  0  0  0  0
   33.4350   32.9524   23.1478 C   0  0  0  0  0  0  0  0  0  0  0  0
   32.5162   32.3172   22.8488 N   0  0  0  0  0  0  0  0  0  0  0  0
  1  2  1  0  0  0  0
  1  7  1  0  0  0  0
  2  3  1  0  0  0  0
  2  4  2  0  0  0  0
  4  5  1  0  0  0  0
  5  6  2  0  0  0  0
  5 11  1  0  0  0  0
  6  7  1  0  0  0  0
  6  9  1  0  0  0  0
  7  8  2  0  0  0  0
  9 10  2  0  0  0  0
  9 12  1  0  0  0  0
 10 11  1  0  0  0  0
 12 13  3  0  0  0  0
M  END
>  <CHROM.1>
35.69788322,33.26494513,25.02328621,0.45716342,0.61999199,2.43472537

>  <Name>
ligand

>  <RI>
0

>  <Rbt.Current_Directory>
/home/itssahil/PROJECTS/Mol_Feturizer/New_Systems/rnas/3GCA

>  <Rbt.Executable>
rbdock ($Id: //depot/dev/client3/rdock/2013.1/src/exe/rbdock.cxx#4 $)

>  <Rbt.Library>
libRbt.so (2013.1, Build901 2013/11/27)

>  <Rbt.Parameter_File>
/export/apps/rDock/src/rDock_2013.1_src/data/scripts/dock_solv.prm

>  <Rbt.Receptor>
prm/pocket_docking_8.prm

>  <SCORE>
-24.0287

>  <SCORE.INTER>
-24.0287

>  <SCORE.INTER.CONST>
1

>  <SCORE.INTER.POLAR>
0

>  <SCORE.INTER.ROT>
0

>  <SCORE.INTER.SOLV>
11.3376

>  <SCORE.INTER.VDW>
-23.3983

>  <SCORE.INTER.norm>
-1.84836

>  <SCORE.INTRA>
0

>  <SCORE.INTRA.DIHEDRAL>
0

>  <SCORE.INTRA.DIHEDRAL.0>
0

>  <SCORE.INTRA.POLAR>
0

>  <SCORE.INTRA.POLAR.0>
0

>  <SCORE.INTRA.REPUL>
0

>  <SCORE.INTRA.REPUL.0>
0

>  <SCORE.INTRA.SOLV>
0

>  <SCORE.INTRA.SOLV.lig_0>
-33.1994

>  <SCORE.INTRA.VDW>
0

>  <SCORE.INTRA.VDW.0>
0

>  <SCORE.INTRA.norm>
0

>  <SCORE.RESTR>
0

>  <SCORE.RESTR.CAVITY>
0

>  <SCORE.RESTR.norm>
0

>  <SCORE.SYSTEM>
0

>  <SCORE.SYSTEM.CONST>
0

>  <SCORE.SYSTEM.DIHEDRAL>
0

>  <SCORE.SYSTEM.SOLV>
0

>  <SCORE.SYSTEM.norm>
0

>  <SCORE.heavy>
13

>  <SCORE.norm>
-1.84836

>  <RMSD>
4.903

$$$$
ligand
 OpenBabel11021811473D
libRbt.so/2013.1/901 2013/11/27
 13 14  0  0  0  0  0  0  0  0999 V2000
   36.4328   32.1108   26.7035 N   0  0  0  0  0  0  0  0  0  0  0  0
   37.5637   33.2154   26.8095 C   0  0  0  0  0  0  0  0  0  0  0  0
   38.5195   33.1050   27.8004 N   0  0  0  0  0  0  0  0  0  0  0  0
   37.4256   34.1214   25.9355 N   0  0  0  0  0  0  0  0  0  0  0  0
   36.5235   34.2741   24.9470 C   0  0  0  0  0  0  0  0  0  0  0  0
   35.5334   33.3755   24.7792 C   0  0  0  0  0  0  0  0  0  0  0  0
   35.4772   32.1580   25.7840 C   0  0  0  0  0  0  0  0  0  0  0  0
   34.6008   31.3709   25.6237 O   0  0  0  0  0  0  0  0  0  0  0  0
   34.5940   33.7361   23.6134 C   0  0  0  0  0  0  0  0  0  0  0  0
   35.0879   34.8707   23.1051 C   0  0  0  0  0  0  0  0  0  0  0  0
   36.1987   35.3576   23.7402 N   0  0  0  0  0  0  0  0  0  0  0  0
   33.4218   32.9550   23.1581 C   0  0  0  0  0  0  0  0  0  0  0  0
   32.5029   32.3196   22.8602 N   0  0  0  0  0  0  0  0  0  0  0  0
  1  2  1  0  0  0  0
  1  7  1  0  0  0  0
  2  3  1  0  0  0  0
  2  4  2  0  0  0  0
  4  5  1  0  0  0  0
  5  6  2  0  0  0  0
  5 11  1  0  0  0  0
  6  7  1  0  0  0  0
  6  9  1  0  0  0  0
  7  8  2  0  0  0  0
  9 10  2  0  0  0  0
  9 12  1  0  0  0  0
 10 11  1  0  0  0  0
 12 13  3  0  0  0  0
M  END
>  <CHROM.1>
35.68909652,33.26573780,25.02867115,0.45430904,0.61870007,2.43845253

>  <Name>
ligand

>  <RI>
0

>  <Rbt.Current_Directory>
/home/itssahil/PROJECTS/Mol_Feturizer/New_Systems/rnas/3GCA

>  <Rbt.Executable>
rbdock ($Id: //depot/dev/client3/rdock/2013.1/src/exe/rbdock.cxx#4 $)

>  <Rbt.Library>
libRbt.so (2013.1, Build901 2013/11/27)

>  <Rbt.Parameter_File>
/export/apps/rDock/src/rDock_2013.1_src/data/scripts/dock_solv.prm

>  <Rbt.Receptor>
prm/pocket_docking_8.prm

>  <SCORE>
-24.0343

>  <SCORE.INTER>
-24.0343

>  <SCORE.INTER.CONST>
1

>  <SCORE.INTER.POLAR>
0

>  <SCORE.INTER.ROT>
0

>  <SCORE.INTER.SOLV>
11.3471

>  <SCORE.INTER.VDW>
-23.4053

>  <SCORE.INTER.norm>
-1.84879

>  <SCORE.INTRA>
0

>  <SCORE.INTRA.DIHEDRAL>
0

>  <SCORE.INTRA.DIHEDRAL.0>
0

>  <SCORE.INTRA.POLAR>
0

>  <SCORE.INTRA.POLAR.0>
0

>  <SCORE.INTRA.REPUL>
0

>  <SCORE.INTRA.REPUL.0>
0

>  <SCORE.INTRA.SOLV>
0

>  <SCORE.INTRA.SOLV.lig_0>
-33.1994

>  <SCORE.INTRA.VDW>
0

>  <SCORE.INTRA.VDW.0>
0

>  <SCORE.INTRA.norm>
0

>  <SCORE.RESTR>
0

>  <SCORE.RESTR.CAVITY>
0

>  <SCORE.RESTR.norm>
0

>  <SCORE.SYSTEM>
0

>  <SCORE.SYSTEM.CONST>
0

>  <SCORE.SYSTEM.DIHEDRAL>
0

>  <SCORE.SYSTEM.SOLV>
0

>  <SCORE.SYSTEM.norm>
0

>  <SCORE.heavy>
13

>  <SCORE.norm>
-1.84879

>  <RMSD>
4.903

$$$$
ligand
 OpenBabel11021811473D
libRbt.so/2013.1/901 2013/11/27
 13 14  0  0  0  0  0  0  0  0999 V2000
   36.4391   32.1105   26.7036 N   0  0  0  0  0  0  0  0  0  0  0  0
   37.5678   33.2170   26.8134 C   0  0  0  0  0  0  0  0  0  0  0  0
   38.5225   33.1063   27.8054 N   0  0  0  0  0  0  0  0  0  0  0  0
   37.4292   34.1246   25.9412 N   0  0  0  0  0  0  0  0  0  0  0  0
   36.5281   34.2777   24.9518 C   0  0  0  0  0  0  0  0  0  0  0  0
   35.5399   33.3776   24.7808 C   0  0  0  0  0  0  0  0  0  0  0  0
   35.4847   32.1579   25.7829 C   0  0  0  0  0  0  0  0  0  0  0  0
   34.6100   31.3694   25.6198 O   0  0  0  0  0  0  0  0  0  0  0  0
   34.6014   33.7389   23.6145 C   0  0  0  0  0  0  0  0  0  0  0  0
   35.0938   34.8755   23.1093 C   0  0  0  0  0  0  0  0  0  0  0  0
   36.2028   35.3631   23.7469 N   0  0  0  0  0  0  0  0  0  0  0  0
   33.4313   32.9565   23.1560 C   0  0  0  0  0  0  0  0  0  0  0  0
   32.5140   32.3200   22.8555 N   0  0  0  0  0  0  0  0  0  0  0  0
  1  2  1  0  0  0  0
  1  7  1  0  0  0  0
  2  3  1  0  0  0  0
  2  4  2  0  0  0  0
  4  5  1  0  0  0  0
  5  6  2  0  0  0  0
  5 11  1  0  0  0  0
  6  7  1  0  0  0  0
  6  9  1  0  0  0  0
  7  8  2  0  0  0  0
  9 10  2  0  0  0  0
  9 12  1  0  0  0  0
 10 11  1  0  0  0  0
 12 13  3  0  0  0  0
M  END
>  <CHROM.1>
35.69546268,33.26759099,25.03021693,0.45358203,0.62093332,2.44100092

>  <Name>
ligand

>  <RI>
0

>  <Rbt.Current_Directory>
/home/itssahil/PROJECTS/Mol_Feturizer/New_Systems/rnas/3GCA

>  <Rbt.Executable>
rbdock ($Id: //depot/dev/client3/rdock/2013.1/src/exe/rbdock.cxx#4 $)

>  <Rbt.Library>
libRbt.so (2013.1, Build901 2013/11/27)

>  <Rbt.Parameter_File>
/export/apps/rDock/src/rDock_2013.1_src/data/scripts/dock_solv.prm

>  <Rbt.Receptor>
prm/pocket_docking_8.prm

>  <SCORE>
-24.0336

>  <SCORE.INTER>
-24.0336

>  <SCORE.INTER.CONST>
1

>  <SCORE.INTER.POLAR>
0

>  <SCORE.INTER.ROT>
0

>  <SCORE.INTER.SOLV>
11.3362

>  <SCORE.INTER.VDW>
-23.4011

>  <SCORE.INTER.norm>
-1.84874

>  <SCORE.INTRA>
0

>  <SCORE.INTRA.DIHEDRAL>
0

>  <SCORE.INTRA.DIHEDRAL.0>
0

>  <SCORE.INTRA.POLAR>
0

>  <SCORE.INTRA.POLAR.0>
0

>  <SCORE.INTRA.REPUL>
0

>  <SCORE.INTRA.REPUL.0>
0

>  <SCORE.INTRA.SOLV>
0

>  <SCORE.INTRA.SOLV.lig_0>
-33.1994

>  <SCORE.INTRA.VDW>
0

>  <SCORE.INTRA.VDW.0>
0

>  <SCORE.INTRA.norm>
0

>  <SCORE.RESTR>
0

>  <SCORE.RESTR.CAVITY>
0

>  <SCORE.RESTR.norm>
0

>  <SCORE.SYSTEM>
0

>  <SCORE.SYSTEM.CONST>
0

>  <SCORE.SYSTEM.DIHEDRAL>
0

>  <SCORE.SYSTEM.SOLV>
0

>  <SCORE.SYSTEM.norm>
0

>  <SCORE.heavy>
13

>  <SCORE.norm>
-1.84874

>  <RMSD>
4.903

$$$$
ligand
 OpenBabel11021811473D
libRbt.so/2013.1/901 2013/11/27
 13 14  0  0  0  0  0  0  0  0999 V2000
   36.4553   32.0970   26.7354 N   0  0  0  0  0  0  0  0  0  0  0  0
   37.5814   33.2050   26.8558 C   0  0  0  0  0  0  0  0  0  0  0  0
   38.5282   33.0945   27.8552 N   0  0  0  0  0  0  0  0  0  0  0  0
   37.4483   34.1136   25.9837 N   0  0  0  0  0  0  0  0  0  0  0  0
   36.5549   34.2666   24.9873 C   0  0  0  0  0  0  0  0  0  0  0  0
   35.5696   33.3653   24.8072 C   0  0  0  0  0  0  0  0  0  0  0  0
   35.5082   32.1441   25.8072 C   0  0  0  0  0  0  0  0  0  0  0  0
   34.6361   31.3545   25.6359 O   0  0  0  0  0  0  0  0  0  0  0  0
   34.6398   33.7267   23.6339 C   0  0  0  0  0  0  0  0  0  0  0  0
   35.1345   34.8647   23.1342 C   0  0  0  0  0  0  0  0  0  0  0  0
   36.2375   35.3532   23.7813 N   0  0  0  0  0  0  0  0  0  0  0  0
   33.4746   32.9431   23.1650 C   0  0  0  0  0  0  0  0  0  0  0  0
   32.5608   32.3056   22.8563 N   0  0  0  0  0  0  0  0  0  0  0  0
  1  2  1  0  0  0  0
  1  7  1  0  0  0  0
  2  3  1  0  0  0  0
  2  4  2  0  0  0  0
  4  5  1  0  0  0  0
  5  6  2  0  0  0  0
  5 11  1  0  0  0  0
  6  7  1  0  0  0  0
  6  9  1  0  0  0  0
  7  8  2  0  0  0  0
  9 10  2  0  0  0  0
  9 12  1  0  0  0  0
 10 11  1  0  0  0  0
 12 13  3  0  0  0  0
M  END
>  <CHROM.1>
35.72326488,33.25515755,25.05769397,0.45848094,0.62805431,2.43949912

>  <Name>
ligand

>  <RI>
0

>  <Rbt.Current_Directory>
/home/itssahil/PROJECTS/Mol_Feturizer/New_Systems/rnas/3GCA

>  <Rbt.Executable>
rbdock ($Id: //depot/dev/client3/rdock/2013.1/src/exe/rbdock.cxx#4 $)

>  <Rbt.Library>
libRbt.so (2013.1, Build901 2013/11/27)

>  <Rbt.Parameter_File>
/export/apps/rDock/src/rDock_2013.1_src/data/scripts/dock_solv.prm

>  <Rbt.Receptor>
prm/blind_docking_100.prm

>  <SCORE>
-23.9941

>  <SCORE.INTER>
-23.9941

>  <SCORE.INTER.CONST>
1

>  <SCORE.INTER.POLAR>
0

>  <SCORE.INTER.ROT>
0

>  <SCORE.INTER.SOLV>
11.3234

>  <SCORE.INTER.VDW>
-23.3705

>  <SCORE.INTER.norm>
-1.8457

>  <SCORE.INTRA>
0

>  <SCORE.INTRA.DIHEDRAL>
0

>  <SCORE.INTRA.DIHEDRAL.0>
0

>  <SCORE.INTRA.POLAR>
0

>  <SCORE.INTRA.POLAR.0>
0

>  <SCORE.INTRA.REPUL>
0

>  <SCORE.INTRA.REPUL.0>
0

>  <SCORE.INTRA.SOLV>
0

>  <SCORE.INTRA.SOLV.lig_0>
-33.1994

>  <SCORE.INTRA.VDW>
0

>  <SCORE.INTRA.VDW.0>
0

>  <SCORE.INTRA.norm>
0

>  <SCORE.RESTR>
0

>  <SCORE.RESTR.CAVITY>
0

>  <SCORE.RESTR.norm>
0

>  <SCORE.SYSTEM>
0

>  <SCORE.SYSTEM.CONST>
0

>  <SCORE.SYSTEM.DIHEDRAL>
0

>  <SCORE.SYSTEM.SOLV>
0

>  <SCORE.SYSTEM.norm>
0

>  <SCORE.heavy>
13

>  <SCORE.norm>
-1.8457

>  <RMSD>
4.904

$$$$
ligand
 OpenBabel11021811473D
libRbt.so/2013.1/901 2013/11/27
 13 14  0  0  0  0  0  0  0  0999 V2000
   36.4404   32.1326   26.7183 N   0  0  0  0  0  0  0  0  0  0  0  0
   37.5578   33.2499   26.8344 C   0  0  0  0  0  0  0  0  0  0  0  0
   38.5089   33.1473   27.8307 N   0  0  0  0  0  0  0  0  0  0  0  0
   37.4143   34.1570   25.9625 N   0  0  0  0  0  0  0  0  0  0  0  0
   36.5164   34.3024   24.9691 C   0  0  0  0  0  0  0  0  0  0  0  0
   35.5378   33.3931   24.7927 C   0  0  0  0  0  0  0  0  0  0  0  0
   35.4898   32.1717   25.7932 C   0  0  0  0  0  0  0  0  0  0  0  0
   34.6235   31.3750   25.6252 O   0  0  0  0  0  0  0  0  0  0  0  0
   34.6012   33.7465   23.6224 C   0  0  0  0  0  0  0  0  0  0  0  0
   35.0849   34.8883   23.1207 C   0  0  0  0  0  0  0  0  0  0  0  0
   36.1861   35.3860   23.7639 N   0  0  0  0  0  0  0  0  0  0  0  0
   33.4408   32.9533   23.1577 C   0  0  0  0  0  0  0  0  0  0  0  0
   32.5311   32.3083   22.8523 N   0  0  0  0  0  0  0  0  0  0  0  0
  1  2  1  0  0  0  0
  1  7  1  0  0  0  0
  2  3  1  0  0  0  0
  2  4  2  0  0  0  0
  4  5  1  0  0  0  0
  5  6  2  0  0  0  0
  5 11  1  0  0  0  0
  6  7  1  0  0  0  0
  6  9  1  0  0  0  0
  7  8  2  0  0  0  0
  9 10  2  0  0  0  0
  9 12  1  0  0  0  0
 10 11  1  0  0  0  0
 12 13  3  0  0  0  0
M  END
>  <CHROM.1>
35.69323912,33.28424996,25.04265658,0.44808064,0.63070160,2.44529637

>  <Name>
ligand

>  <RI>
0

>  <Rbt.Current_Directory>
/home/itssahil/PROJECTS/Mol_Feturizer/New_Systems/rnas/3GCA

>  <Rbt.Executable>
rbdock ($Id: //depot/dev/client3/rdock/2013.1/src/exe/rbdock.cxx#4 $)

>  <Rbt.Library>
libRbt.so (2013.1, Build901 2013/11/27)

>  <Rbt.Parameter_File>
/export/apps/rDock/src/rDock_2013.1_src/data/scripts/dock_solv.prm

>  <Rbt.Receptor>
prm/blind_docking_100.prm

>  <SCORE>
-24.0261

>  <SCORE.INTER>
-24.0261

>  <SCORE.INTER.CONST>
1

>  <SCORE.INTER.POLAR>
0

>  <SCORE.INTER.ROT>
0

>  <SCORE.INTER.SOLV>
11.3758

>  <SCORE.INTER.VDW>
-23.4094

>  <SCORE.INTER.norm>
-1.84816

>  <SCORE.INTRA>
0

>  <SCORE.INTRA.DIHEDRAL>
0

>  <SCORE.INTRA.DIHEDRAL.0>
0

>  <SCORE.INTRA.POLAR>
0

>  <SCORE.INTRA.POLAR.0>
0

>  <SCORE.INTRA.REPUL>
0

>  <SCORE.INTRA.REPUL.0>
0

>  <SCORE.INTRA.SOLV>
0

>  <SCORE.INTRA.SOLV.lig_0>
-33.1994

>  <SCORE.INTRA.VDW>
0

>  <SCORE.INTRA.VDW.0>
0

>  <SCORE.INTRA.norm>
0

>  <SCORE.RESTR>
0

>  <SCORE.RESTR.CAVITY>
0

>  <SCORE.RESTR.norm>
0

>  <SCORE.SYSTEM>
0

>  <SCORE.SYSTEM.CONST>
0

>  <SCORE.SYSTEM.DIHEDRAL>
0

>  <SCORE.SYSTEM.SOLV>
0

>  <SCORE.SYSTEM.norm>
0

>  <SCORE.heavy>
13

>  <SCORE.norm>
-1.84816

>  <RMSD>
4.904

$$$$
ligand
 OpenBabel11021811473D
libRbt.so/2013.1/901 2013/11/27
 13 14  0  0  0  0  0  0  0  0999 V2000
   36.4098   32.1635   26.7313 N   0  0  0  0  0  0  0  0  0  0  0  0
   37.5455   33.2643   26.8244 C   0  0  0  0  0  0  0  0  0  0  0  0
   38.4948   33.1670   27.8229 N   0  0  0  0  0  0  0  0  0  0  0  0
   37.4172   34.1552   25.9335 N   0  0  0  0  0  0  0  0  0  0  0  0
   36.5218   34.2945   24.9370 C   0  0  0  0  0  0  0  0  0  0  0  0
   35.5283   33.3980   24.7793 C   0  0  0  0  0  0  0  0  0  0  0  0
   35.4600   32.1989   25.8053 C   0  0  0  0  0  0  0  0  0  0  0  0
   34.5806   31.4133   25.6537 O   0  0  0  0  0  0  0  0  0  0  0  0
   34.5977   33.7422   23.6015 C   0  0  0  0  0  0  0  0  0  0  0  0
   35.1003   34.8650   23.0761 C   0  0  0  0  0  0  0  0  0  0  0  0
   36.2096   35.3578   23.7091 N   0  0  0  0  0  0  0  0  0  0  0  0
   33.4244   32.9587   23.1532 C   0  0  0  0  0  0  0  0  0  0  0  0
   32.5041   32.3226   22.8610 N   0  0  0  0  0  0  0  0  0  0  0  0
  1  2  1  0  0  0  0
  1  7  1  0  0  0  0
  2  3  1  0  0  0  0
  2  4  2  0  0  0  0
  4  5  1  0  0  0  0
  5  6  2  0  0  0  0
  5 11  1  0  0  0  0
  6  7  1  0  0  0  0
  6  9  1  0  0  0  0
  7  8  2  0  0  0  0
  9 10  2  0  0  0  0
  9 12  1  0  0  0  0
 10 11  1  0  0  0  0
 12 13  3  0  0  0  0
M  END
>  <CHROM.1>
35.68189900,33.29187857,25.03159337,0.46373401,0.62003499,2.41509133

>  <Name>
ligand

>  <RI>
0

>  <Rbt.Current_Directory>
/home/itssahil/PROJECTS/Mol_Feturizer/New_Systems/rnas/3GCA

>  <Rbt.Executable>
rbdock ($Id: //depot/dev/client3/rdock/2013.1/src/exe/rbdock.cxx#4 $)

>  <Rbt.Library>
libRbt.so (2013.1, Build901 2013/11/27)

>  <Rbt.Parameter_File>
/export/apps/rDock/src/rDock_2013.1_src/data/scripts/dock_solv.prm

>  <Rbt.Receptor>
prm/blind_docking_100.prm

>  <SCORE>
-24.0541

>  <SCORE.INTER>
-24.0541

>  <SCORE.INTER.CONST>
1

>  <SCORE.INTER.POLAR>
0

>  <SCORE.INTER.ROT>
0

>  <SCORE.INTER.SOLV>
11.4039

>  <SCORE.INTER.VDW>
-23.4374

>  <SCORE.INTER.norm>
-1.85032

>  <SCORE.INTRA>
0

>  <SCORE.INTRA.DIHEDRAL>
0

>  <SCORE.INTRA.DIHEDRAL.0>
0

>  <SCORE.INTRA.POLAR>
0

>  <SCORE.INTRA.POLAR.0>
0

>  <SCORE.INTRA.REPUL>
0

>  <SCORE.INTRA.REPUL.0>
0

>  <SCORE.INTRA.SOLV>
0

>  <SCORE.INTRA.SOLV.lig_0>
-33.1994

>  <SCORE.INTRA.VDW>
0

>  <SCORE.INTRA.VDW.0>
0

>  <SCORE.INTRA.norm>
0

>  <SCORE.RESTR>
0

>  <SCORE.RESTR.CAVITY>
0

>  <SCORE.RESTR.norm>
0

>  <SCORE.SYSTEM>
0

>  <SCORE.SYSTEM.CONST>
0

>  <SCORE.SYSTEM.DIHEDRAL>
0

>  <SCORE.SYSTEM.SOLV>
0

>  <SCORE.SYSTEM.norm>
0

>  <SCORE.heavy>
13

>  <SCORE.norm>
-1.85032

>  <RMSD>
4.904

$$$$
ligand
 OpenBabel11021811473D
libRbt.so/2013.1/901 2013/11/27
 13 14  0  0  0  0  0  0  0  0999 V2000
   36.4470   32.1045   26.7149 N   0  0  0  0  0  0  0  0  0  0  0  0
   37.5707   33.2155   26.8304 C   0  0  0  0  0  0  0  0  0  0  0  0
   38.5239   33.1057   27.8239 N   0  0  0  0  0  0  0  0  0  0  0  0
   37.4299   34.1252   25.9608 N   0  0  0  0  0  0  0  0  0  0  0  0
   36.5301   34.2775   24.9700 C   0  0  0  0  0  0  0  0  0  0  0  0
   35.5462   33.3738   24.7943 C   0  0  0  0  0  0  0  0  0  0  0  0
   35.4942   32.1507   25.7924 C   0  0  0  0  0  0  0  0  0  0  0  0
   34.6232   31.3590   25.6250 O   0  0  0  0  0  0  0  0  0  0  0  0
   34.6084   33.7347   23.6273 C   0  0  0  0  0  0  0  0  0  0  0  0
   35.0970   34.8750   23.1266 C   0  0  0  0  0  0  0  0  0  0  0  0
   36.2026   35.3654   23.7679 N   0  0  0  0  0  0  0  0  0  0  0  0
   33.4426   32.9488   23.1639 C   0  0  0  0  0  0  0  0  0  0  0  0
   32.5286   32.3093   22.8596 N   0  0  0  0  0  0  0  0  0  0  0  0
  1  2  1  0  0  0  0
  1  7  1  0  0  0  0
  2  3  1  0  0  0  0
  2  4  2  0  0  0  0
  4  5  1  0  0  0  0
  5  6  2  0  0  0  0
  5 11  1  0  0  0  0
  6  7  1  0  0  0  0
  6  9  1  0  0  0  0
  7  8  2  0  0  0  0
  9 10  2  0  0  0  0
  9 12  1  0  0  0  0
 10 11  1  0  0  0  0
 12 13  3  0  0  0  0
M  END
>  <CHROM.1>
35.70170199,33.26364342,25.04364548,0.45112035,0.62522317,2.44559153

>  <Name>
ligand

>  <RI>
0

>  <Rbt.Current_Directory>
/home/itssahil/PROJECTS/Mol_Feturizer/New_Systems/rnas/3GCA

>  <Rbt.Executable>
rbdock ($Id: //depot/dev/client3/rdock/2013.1/src/exe/rbdock.cxx#4 $)

>  <Rbt.Library>
libRbt.so (2013.1, Build901 2013/11/27)

>  <Rbt.Parameter_File>
/export/apps/rDock/src/rDock_2013.1_src/data/scripts/dock_solv.prm

>  <Rbt.Receptor>
prm/blind_docking_100.prm

>  <SCORE>
-24.0228

>  <SCORE.INTER>
-24.0228

>  <SCORE.INTER.CONST>
1

>  <SCORE.INTER.POLAR>
0

>  <SCORE.INTER.ROT>
0

>  <SCORE.INTER.SOLV>
11.3336

>  <SCORE.INTER.VDW>
-23.3931

>  <SCORE.INTER.norm>
-1.84791

>  <SCORE.INTRA>
0

>  <SCORE.INTRA.DIHEDRAL>
0

>  <SCORE.INTRA.DIHEDRAL.0>
0

>  <SCORE.INTRA.POLAR>
0

>  <SCORE.INTRA.POLAR.0>
0

>  <SCORE.INTRA.REPUL>
0

>  <SCORE.INTRA.REPUL.0>
0

>  <SCORE.INTRA.SOLV>
0

>  <SCORE.INTRA.SOLV.lig_0>
-33.1994

>  <SCORE.INTRA.VDW>
0

>  <SCORE.INTRA.VDW.0>
0

>  <SCORE.INTRA.norm>
0

>  <SCORE.RESTR>
0

>  <SCORE.RESTR.CAVITY>
0

>  <SCORE.RESTR.norm>
0

>  <SCORE.SYSTEM>
0

>  <SCORE.SYSTEM.CONST>
0

>  <SCORE.SYSTEM.DIHEDRAL>
0

>  <SCORE.SYSTEM.SOLV>
0

>  <SCORE.SYSTEM.norm>
0

>  <SCORE.heavy>
13

>  <SCORE.norm>
-1.84791

>  <RMSD>
4.904

$$$$
ligand
 OpenBabel11021811473D
libRbt.so/2013.1/901 2013/11/27
 13 14  0  0  0  0  0  0  0  0999 V2000
   36.4124   32.1644   26.7244 N   0  0  0  0  0  0  0  0  0  0  0  0
   37.5459   33.2674   26.8183 C   0  0  0  0  0  0  0  0  0  0  0  0
   38.4966   33.1701   27.8154 N   0  0  0  0  0  0  0  0  0  0  0  0
   37.4145   34.1599   25.9294 N   0  0  0  0  0  0  0  0  0  0  0  0
   36.5176   34.2993   24.9343 C   0  0  0  0  0  0  0  0  0  0  0  0
   35.5258   33.4010   24.7760 C   0  0  0  0  0  0  0  0  0  0  0  0
   35.4614   32.1997   25.7996 C   0  0  0  0  0  0  0  0  0  0  0  0
   34.5835   31.4125   25.6475 O   0  0  0  0  0  0  0  0  0  0  0  0
   34.5930   33.7456   23.6001 C   0  0  0  0  0  0  0  0  0  0  0  0
   35.0925   34.8706   23.0763 C   0  0  0  0  0  0  0  0  0  0  0  0
   36.2015   35.3645   23.7090 N   0  0  0  0  0  0  0  0  0  0  0  0
   33.4208   32.9606   23.1516 C   0  0  0  0  0  0  0  0  0  0  0  0
   32.5016   32.3230   22.8593 N   0  0  0  0  0  0  0  0  0  0  0  0
  1  2  1  0  0  0  0
  1  7  1  0  0  0  0
  2  3  1  0  0  0  0
  2  4  2  0  0  0  0
  4  5  1  0  0  0  0
  5  6  2  0  0  0  0
  5 11  1  0  0  0  0
  6  7  1  0  0  0  0
  6  9  1  0  0  0  0
  7  8  2  0  0  0  0
  9 10  2  0  0  0  0
  9 12  1  0  0  0  0
 10 11  1  0  0  0  0
 12 13  3  0  0  0  0
M  END
>  <CHROM.1>
35.67995959,33.29470371,25.02787323,0.46073818,0.62052287,2.41890002

>  <Name>
ligand

>  <RI>
0

>  <Rbt.Current_Directory>
/home/itssahil/PROJECTS/Mol_Feturizer/New_Systems/rnas/3GCA

>  <Rbt.Executable>
rbdock ($Id: //depot/dev/client3/rdock/2013.1/src/exe/rbdock.cxx#4 $)

>  <Rbt.Library>
libRbt.so (2013.1, Build901 2013/11/27)

>  <Rbt.Parameter_File>
/export/apps/rDock/src/rDock_2013.1_src/data/scripts/dock_solv.prm

>  <Rbt.Receptor>
prm/blind_docking_60.prm

>  <SCORE>
-24.0551

>  <SCORE.INTER>
-24.0551

>  <SCORE.INTER.CONST>
1

>  <SCORE.INTER.POLAR>
0

>  <SCORE.INTER.ROT>
0

>  <SCORE.INTER.SOLV>
11.4

>  <SCORE.INTER.VDW>
-23.4368

>  <SCORE.INTER.norm>
-1.8504

>  <SCORE.INTRA>
0

>  <SCORE.INTRA.DIHEDRAL>
0

>  <SCORE.INTRA.DIHEDRAL.0>
0

>  <SCORE.INTRA.POLAR>
0

>  <SCORE.INTRA.POLAR.0>
0

>  <SCORE.INTRA.REPUL>
0

>  <SCORE.INTRA.REPUL.0>
0

>  <SCORE.INTRA.SOLV>
0

>  <SCORE.INTRA.SOLV.lig_0>
-33.1994

>  <SCORE.INTRA.VDW>
0

>  <SCORE.INTRA.VDW.0>
0

>  <SCORE.INTRA.norm>
0

>  <SCORE.RESTR>
0

>  <SCORE.RESTR.CAVITY>
0

>  <SCORE.RESTR.norm>
0

>  <SCORE.SYSTEM>
0

>  <SCORE.SYSTEM.CONST>
0

>  <SCORE.SYSTEM.DIHEDRAL>
0

>  <SCORE.SYSTEM.SOLV>
0

>  <SCORE.SYSTEM.norm>
0

>  <SCORE.heavy>
13

>  <SCORE.norm>
-1.8504

>  <RMSD>
4.904

$$$$
ligand
 OpenBabel11021811473D
libRbt.so/2013.1/901 2013/11/27
 13 14  0  0  0  0  0  0  0  0999 V2000
   36.4351   32.1128   26.7138 N   0  0  0  0  0  0  0  0  0  0  0  0
   37.5682   33.2154   26.8179 C   0  0  0  0  0  0  0  0  0  0  0  0
   38.5225   33.1059   27.8103 N   0  0  0  0  0  0  0  0  0  0  0  0
   37.4330   34.1190   25.9410 N   0  0  0  0  0  0  0  0  0  0  0  0
   36.5325   34.2706   24.9509 C   0  0  0  0  0  0  0  0  0  0  0  0
   35.5408   33.3737   24.7846 C   0  0  0  0  0  0  0  0  0  0  0  0
   35.4808   32.1593   25.7929 C   0  0  0  0  0  0  0  0  0  0  0  0
   34.6029   31.3734   25.6338 O   0  0  0  0  0  0  0  0  0  0  0  0
   34.6036   33.7327   23.6165 C   0  0  0  0  0  0  0  0  0  0  0  0
   35.1005   34.8647   23.1055 C   0  0  0  0  0  0  0  0  0  0  0  0
   36.2114   35.3512   23.7405 N   0  0  0  0  0  0  0  0  0  0  0  0
   33.4304   32.9527   23.1621 C   0  0  0  0  0  0  0  0  0  0  0  0
   32.5105   32.3183   22.8648 N   0  0  0  0  0  0  0  0  0  0  0  0
  1  2  1  0  0  0  0
  1  7  1  0  0  0  0
  2  3  1  0  0  0  0
  2  4  2  0  0  0  0
  4  5  1  0  0  0  0
  5  6  2  0  0  0  0
  5 11  1  0  0  0  0
  6  7  1  0  0  0  0
  6  9  1  0  0  0  0
  7  8  2  0  0  0  0
  9 10  2  0  0  0  0
  9 12  1  0  0  0  0
 10 11  1  0  0  0  0
 12 13  3  0  0  0  0
M  END
>  <CHROM.1>
35.69590221,33.26429218,25.03453680,0.45724822,0.61831572,2.43377601

>  <Name>
ligand

>  <RI>
0

>  <Rbt.Current_Directory>
/home/itssahil/PROJECTS/Mol_Feturizer/New_Systems/rnas/3GCA

>  <Rbt.Executable>
rbdock ($Id: //depot/dev/client3/rdock/2013.1/src/exe/rbdock.cxx#4 $)

>  <Rbt.Library>
libRbt.so (2013.1, Build901 2013/11/27)

>  <Rbt.Parameter_File>
/export/apps/rDock/src/rDock_2013.1_src/data/scripts/dock_solv.prm

>  <Rbt.Receptor>
prm/blind_docking_60.prm

>  <SCORE>
-24.0359

>  <SCORE.INTER>
-24.0359

>  <SCORE.INTER.CONST>
1

>  <SCORE.INTER.POLAR>
0

>  <SCORE.INTER.ROT>
0

>  <SCORE.INTER.SOLV>
11.3325

>  <SCORE.INTER.VDW>
-23.4014

>  <SCORE.INTER.norm>
-1.84892

>  <SCORE.INTRA>
0

>  <SCORE.INTRA.DIHEDRAL>
0

>  <SCORE.INTRA.DIHEDRAL.0>
0

>  <SCORE.INTRA.POLAR>
0

>  <SCORE.INTRA.POLAR.0>
0

>  <SCORE.INTRA.REPUL>
0

>  <SCORE.INTRA.REPUL.0>
0

>  <SCORE.INTRA.SOLV>
0

>  <SCORE.INTRA.SOLV.lig_0>
-33.1994

>  <SCORE.INTRA.VDW>
0

>  <SCORE.INTRA.VDW.0>
0

>  <SCORE.INTRA.norm>
0

>  <SCORE.RESTR>
0

>  <SCORE.RESTR.CAVITY>
0

>  <SCORE.RESTR.norm>
0

>  <SCORE.SYSTEM>
0

>  <SCORE.SYSTEM.CONST>
0

>  <SCORE.SYSTEM.DIHEDRAL>
0

>  <SCORE.SYSTEM.SOLV>
0

>  <SCORE.SYSTEM.norm>
0

>  <SCORE.heavy>
13

>  <SCORE.norm>
-1.84892

>  <RMSD>
4.904

$$$$
ligand
 OpenBabel11021811473D
libRbt.so/2013.1/901 2013/11/27
 13 14  0  0  0  0  0  0  0  0999 V2000
   36.4346   32.1107   26.7221 N   0  0  0  0  0  0  0  0  0  0  0  0
   37.5697   33.2113   26.8250 C   0  0  0  0  0  0  0  0  0  0  0  0
   38.5231   33.1018   27.8183 N   0  0  0  0  0  0  0  0  0  0  0  0
   37.4370   34.1135   25.9463 N   0  0  0  0  0  0  0  0  0  0  0  0
   36.5376   34.2650   24.9552 C   0  0  0  0  0  0  0  0  0  0  0  0
   35.5442   33.3697   24.7898 C   0  0  0  0  0  0  0  0  0  0  0  0
   35.4811   32.1573   25.8004 C   0  0  0  0  0  0  0  0  0  0  0  0
   34.6018   31.3729   25.6421 O   0  0  0  0  0  0  0  0  0  0  0  0
   34.6086   33.7284   23.6204 C   0  0  0  0  0  0  0  0  0  0  0  0
   35.1081   34.8584   23.1076 C   0  0  0  0  0  0  0  0  0  0  0  0
   36.2195   35.3439   23.7425 N   0  0  0  0  0  0  0  0  0  0  0  0
   33.4342   32.9497   23.1665 C   0  0  0  0  0  0  0  0  0  0  0  0
   32.5133   32.3166   22.8697 N   0  0  0  0  0  0  0  0  0  0  0  0
  1  2  1  0  0  0  0
  1  7  1  0  0  0  0
  2  3  1  0  0  0  0
  2  4  2  0  0  0  0
  4  5  1  0  0  0  0
  5  6  2  0  0  0  0
  5 11  1  0  0  0  0
  6  7  1  0  0  0  0
  6  9  1  0  0  0  0
  7  8  2  0  0  0  0
  9 10  2  0  0  0  0
  9 12  1  0  0  0  0
 10 11  1  0  0  0  0
 12 13  3  0  0  0  0
M  END
>  <CHROM.1>
35.69892600,33.26048289,25.04008433,0.45967463,0.61762497,2.43048445

>  <Name>
ligand

>  <RI>
0

>  <Rbt.Current_Directory>
/home/itssahil/PROJECTS/Mol_Feturizer/New_Systems/rnas/3GCA

>  <Rbt.Executable>
rbdock ($Id: //depot/dev/client3/rdock/2013.1/src/exe/rbdock.cxx#4 $)

>  <Rbt.Library>
libRbt.so (2013.1, Build901 2013/11/27)

>  <Rbt.Parameter_File>
/export/apps/rDock/src/rDock_2013.1_src/data/scripts/dock_solv.prm

>  <Rbt.Receptor>
prm/blind_docking_80.prm

>  <SCORE>
-24.0308

>  <SCORE.INTER>
-24.0308

>  <SCORE.INTER.CONST>
1

>  <SCORE.INTER.POLAR>
0

>  <SCORE.INTER.ROT>
0

>  <SCORE.INTER.SOLV>
11.3283

>  <SCORE.INTER.VDW>
-23.3967

>  <SCORE.INTER.norm>
-1.84852

>  <SCORE.INTRA>
0

>  <SCORE.INTRA.DIHEDRAL>
0

>  <SCORE.INTRA.DIHEDRAL.0>
0

>  <SCORE.INTRA.POLAR>
0

>  <SCORE.INTRA.POLAR.0>
0

>  <SCORE.INTRA.REPUL>
0

>  <SCORE.INTRA.REPUL.0>
0

>  <SCORE.INTRA.SOLV>
0

>  <SCORE.INTRA.SOLV.lig_0>
-33.1994

>  <SCORE.INTRA.VDW>
0

>  <SCORE.INTRA.VDW.0>
0

>  <SCORE.INTRA.norm>
0

>  <SCORE.RESTR>
0

>  <SCORE.RESTR.CAVITY>
0

>  <SCORE.RESTR.norm>
0

>  <SCORE.SYSTEM>
0

>  <SCORE.SYSTEM.CONST>
0

>  <SCORE.SYSTEM.DIHEDRAL>
0

>  <SCORE.SYSTEM.SOLV>
0

>  <SCORE.SYSTEM.norm>
0

>  <SCORE.heavy>
13

>  <SCORE.norm>
-1.84852

>  <RMSD>
4.904

$$$$
ligand
 OpenBabel11021811473D
libRbt.so/2013.1/901 2013/11/27
 13 14  0  0  0  0  0  0  0  0999 V2000
   36.4113   32.1638   26.7252 N   0  0  0  0  0  0  0  0  0  0  0  0
   37.5471   33.2646   26.8181 C   0  0  0  0  0  0  0  0  0  0  0  0
   38.4966   33.1673   27.8164 N   0  0  0  0  0  0  0  0  0  0  0  0
   37.4186   34.1555   25.9272 N   0  0  0  0  0  0  0  0  0  0  0  0
   36.5229   34.2948   24.9308 C   0  0  0  0  0  0  0  0  0  0  0  0
   35.5294   33.3982   24.7734 C   0  0  0  0  0  0  0  0  0  0  0  0
   35.4614   32.1992   25.7994 C   0  0  0  0  0  0  0  0  0  0  0  0
   34.5820   31.4136   25.6480 O   0  0  0  0  0  0  0  0  0  0  0  0
   34.5985   33.7425   23.5959 C   0  0  0  0  0  0  0  0  0  0  0  0
   35.1010   34.8653   23.0703 C   0  0  0  0  0  0  0  0  0  0  0  0
   36.2104   35.3581   23.7030 N   0  0  0  0  0  0  0  0  0  0  0  0
   33.4251   32.9590   23.1477 C   0  0  0  0  0  0  0  0  0  0  0  0
   32.5048   32.3228   22.8558 N   0  0  0  0  0  0  0  0  0  0  0  0
  1  2  1  0  0  0  0
  1  7  1  0  0  0  0
  2  3  1  0  0  0  0
  2  4  2  0  0  0  0
  4  5  1  0  0  0  0
  5  6  2  0  0  0  0
  5 11  1  0  0  0  0
  6  7  1  0  0  0  0
  6  9  1  0  0  0  0
  7  8  2  0  0  0  0
  9 10  2  0  0  0  0
  9 12  1  0  0  0  0
 10 11  1  0  0  0  0
 12 13  3  0  0  0  0
M  END
>  <CHROM.1>
35.68306623,33.29216882,25.02565784,0.46354356,0.61987020,2.41521308

>  <Name>
ligand

>  <RI>
0

>  <Rbt.Current_Directory>
/home/itssahil/PROJECTS/Mol_Feturizer/New_Systems/rnas/3GCA

>  <Rbt.Executable>
rbdock ($Id: //depot/dev/client3/rdock/2013.1/src/exe/rbdock.cxx#4 $)

>  <Rbt.Library>
libRbt.so (2013.1, Build901 2013/11/27)

>  <Rbt.Parameter_File>
/export/apps/rDock/src/rDock_2013.1_src/data/scripts/dock_solv.prm

>  <Rbt.Receptor>
prm/blind_docking_80.prm

>  <SCORE>
-24.0535

>  <SCORE.INTER>
-24.0535

>  <SCORE.INTER.CONST>
1

>  <SCORE.INTER.POLAR>
0

>  <SCORE.INTER.ROT>
0

>  <SCORE.INTER.SOLV>
11.398

>  <SCORE.INTER.VDW>
-23.435

>  <SCORE.INTER.norm>
-1.85027

>  <SCORE.INTRA>
0

>  <SCORE.INTRA.DIHEDRAL>
0

>  <SCORE.INTRA.DIHEDRAL.0>
0

>  <SCORE.INTRA.POLAR>
0

>  <SCORE.INTRA.POLAR.0>
0

>  <SCORE.INTRA.REPUL>
0

>  <SCORE.INTRA.REPUL.0>
0

>  <SCORE.INTRA.SOLV>
0

>  <SCORE.INTRA.SOLV.lig_0>
-33.1994

>  <SCORE.INTRA.VDW>
0

>  <SCORE.INTRA.VDW.0>
0

>  <SCORE.INTRA.norm>
0

>  <SCORE.RESTR>
0

>  <SCORE.RESTR.CAVITY>
0

>  <SCORE.RESTR.norm>
0

>  <SCORE.SYSTEM>
0

>  <SCORE.SYSTEM.CONST>
0

>  <SCORE.SYSTEM.DIHEDRAL>
0

>  <SCORE.SYSTEM.SOLV>
0

>  <SCORE.SYSTEM.norm>
0

>  <SCORE.heavy>
13

>  <SCORE.norm>
-1.85027

>  <RMSD>
4.904

$$$$
ligand
 OpenBabel11021811473D
libRbt.so/2013.1/901 2013/11/27
 13 14  0  0  0  0  0  0  0  0999 V2000
   36.4378   32.1144   26.7153 N   0  0  0  0  0  0  0  0  0  0  0  0
   37.5696   33.2182   26.8203 C   0  0  0  0  0  0  0  0  0  0  0  0
   38.5233   33.1097   27.8134 N   0  0  0  0  0  0  0  0  0  0  0  0
   37.4341   34.1218   25.9434 N   0  0  0  0  0  0  0  0  0  0  0  0
   36.5341   34.2725   24.9527 C   0  0  0  0  0  0  0  0  0  0  0  0
   35.5435   33.3744   24.7856 C   0  0  0  0  0  0  0  0  0  0  0  0
   35.4841   32.1599   25.7938 C   0  0  0  0  0  0  0  0  0  0  0  0
   34.6072   31.3731   25.6340 O   0  0  0  0  0  0  0  0  0  0  0  0
   34.6067   33.7325   23.6169 C   0  0  0  0  0  0  0  0  0  0  0  0
   35.1027   34.8651   23.1063 C   0  0  0  0  0  0  0  0  0  0  0  0
   36.2126   35.3528   23.7421 N   0  0  0  0  0  0  0  0  0  0  0  0
   33.4346   32.9512   23.1616 C   0  0  0  0  0  0  0  0  0  0  0  0
   32.5157   32.3159   22.8636 N   0  0  0  0  0  0  0  0  0  0  0  0
  1  2  1  0  0  0  0
  1  7  1  0  0  0  0
  2  3  1  0  0  0  0
  2  4  2  0  0  0  0
  4  5  1  0  0  0  0
  5  6  2  0  0  0  0
  5 11  1  0  0  0  0
  6  7  1  0  0  0  0
  6  9  1  0  0  0  0
  7  8  2  0  0  0  0
  9 10  2  0  0  0  0
  9 12  1  0  0  0  0
 10 11  1  0  0  0  0
 12 13  3  0  0  0  0
M  END
>  <CHROM.1>
35.69850259,33.26519800,25.03565994,0.45678714,0.61956692,2.43412212

>  <Name>
ligand

>  <RI>
0

>  <Rbt.Current_Directory>
/home/itssahil/PROJECTS/Mol_Feturizer/New_Systems/rnas/3GCA

>  <Rbt.Executable>
rbdock ($Id: //depot/dev/client3/rdock/2013.1/src/exe/rbdock.cxx#4 $)

>  <Rbt.Library>
libRbt.so (2013.1, Build901 2013/11/27)

>  <Rbt.Parameter_File>
/export/apps/rDock/src/rDock_2013.1_src/data/scripts/dock_solv.prm

>  <Rbt.Receptor>
prm/blind_docking_80.prm

>  <SCORE>
-24.0352

>  <SCORE.INTER>
-24.0352

>  <SCORE.INTER.CONST>
1

>  <SCORE.INTER.POLAR>
0

>  <SCORE.INTER.ROT>
0

>  <SCORE.INTER.SOLV>
11.3291

>  <SCORE.INTER.VDW>
-23.3999

>  <SCORE.INTER.norm>
-1.84887

>  <SCORE.INTRA>
0

>  <SCORE.INTRA.DIHEDRAL>
0

>  <SCORE.INTRA.DIHEDRAL.0>
0

>  <SCORE.INTRA.POLAR>
0

>  <SCORE.INTRA.POLAR.0>
0

>  <SCORE.INTRA.REPUL>
0

>  <SCORE.INTRA.REPUL.0>
0

>  <SCORE.INTRA.SOLV>
0

>  <SCORE.INTRA.SOLV.lig_0>
-33.1994

>  <SCORE.INTRA.VDW>
0

>  <SCORE.INTRA.VDW.0>
0

>  <SCORE.INTRA.norm>
0

>  <SCORE.RESTR>
0

>  <SCORE.RESTR.CAVITY>
0

>  <SCORE.RESTR.norm>
0

>  <SCORE.SYSTEM>
0

>  <SCORE.SYSTEM.CONST>
0

>  <SCORE.SYSTEM.DIHEDRAL>
0

>  <SCORE.SYSTEM.SOLV>
0

>  <SCORE.SYSTEM.norm>
0

>  <SCORE.heavy>
13

>  <SCORE.norm>
-1.84887

>  <RMSD>
4.904

$$$$
ligand
 OpenBabel11021811473D
libRbt.so/2013.1/901 2013/11/27
 13 14  0  0  0  0  0  0  0  0999 V2000
   36.4103   32.1633   26.7262 N   0  0  0  0  0  0  0  0  0  0  0  0
   37.5467   33.2634   26.8188 C   0  0  0  0  0  0  0  0  0  0  0  0
   38.4965   33.1655   27.8168 N   0  0  0  0  0  0  0  0  0  0  0  0
   37.4184   34.1545   25.9281 N   0  0  0  0  0  0  0  0  0  0  0  0
   36.5225   34.2945   24.9321 C   0  0  0  0  0  0  0  0  0  0  0  0
   35.5284   33.3985   24.7748 C   0  0  0  0  0  0  0  0  0  0  0  0
   35.4601   32.1993   25.8007 C   0  0  0  0  0  0  0  0  0  0  0  0
   34.5802   31.4142   25.6495 O   0  0  0  0  0  0  0  0  0  0  0  0
   34.5974   33.7434   23.5976 C   0  0  0  0  0  0  0  0  0  0  0  0
   35.1003   34.8660   23.0721 C   0  0  0  0  0  0  0  0  0  0  0  0
   36.2102   35.3581   23.7045 N   0  0  0  0  0  0  0  0  0  0  0  0
   33.4234   32.9606   23.1498 C   0  0  0  0  0  0  0  0  0  0  0  0
   32.5026   32.3250   22.8581 N   0  0  0  0  0  0  0  0  0  0  0  0
  1  2  1  0  0  0  0
  1  7  1  0  0  0  0
  2  3  1  0  0  0  0
  2  4  2  0  0  0  0
  4  5  1  0  0  0  0
  5  6  2  0  0  0  0
  5 11  1  0  0  0  0
  6  7  1  0  0  0  0
  6  9  1  0  0  0  0
  7  8  2  0  0  0  0
  9 10  2  0  0  0  0
  9 12  1  0  0  0  0
 10 11  1  0  0  0  0
 12 13  3  0  0  0  0
M  END
>  <CHROM.1>
35.68212352,33.29229642,25.02703275,0.46377396,0.61926206,2.41522080

>  <Name>
ligand

>  <RI>
0

>  <Rbt.Current_Directory>
/home/itssahil/PROJECTS/Mol_Feturizer/New_Systems/rnas/3GCA

>  <Rbt.Executable>
rbdock ($Id: //depot/dev/client3/rdock/2013.1/src/exe/rbdock.cxx#4 $)

>  <Rbt.Library>
libRbt.so (2013.1, Build901 2013/11/27)

>  <Rbt.Parameter_File>
/export/apps/rDock/src/rDock_2013.1_src/data/scripts/dock_solv.prm

>  <Rbt.Receptor>
prm/pocket_docking_3.prm

>  <SCORE>
-24.0545

>  <SCORE.INTER>
-24.0545

>  <SCORE.INTER.CONST>
1

>  <SCORE.INTER.POLAR>
0

>  <SCORE.INTER.ROT>
0

>  <SCORE.INTER.SOLV>
11.3987

>  <SCORE.INTER.VDW>
-23.4359

>  <SCORE.INTER.norm>
-1.85034

>  <SCORE.INTRA>
0

>  <SCORE.INTRA.DIHEDRAL>
0

>  <SCORE.INTRA.DIHEDRAL.0>
0

>  <SCORE.INTRA.POLAR>
0

>  <SCORE.INTRA.POLAR.0>
0

>  <SCORE.INTRA.REPUL>
0

>  <SCORE.INTRA.REPUL.0>
0

>  <SCORE.INTRA.SOLV>
0

>  <SCORE.INTRA.SOLV.lig_0>
-33.1994

>  <SCORE.INTRA.VDW>
0

>  <SCORE.INTRA.VDW.0>
0

>  <SCORE.INTRA.norm>
0

>  <SCORE.RESTR>
0

>  <SCORE.RESTR.CAVITY>
0

>  <SCORE.RESTR.norm>
0

>  <SCORE.SYSTEM>
0

>  <SCORE.SYSTEM.CONST>
0

>  <SCORE.SYSTEM.DIHEDRAL>
0

>  <SCORE.SYSTEM.SOLV>
0

>  <SCORE.SYSTEM.norm>
0

>  <SCORE.heavy>
13

>  <SCORE.norm>
-1.85034

>  <RMSD>
4.904

$$$$
ligand
 OpenBabel11021811473D
libRbt.so/2013.1/901 2013/11/27
 13 14  0  0  0  0  0  0  0  0999 V2000
   36.4085   32.1632   26.7311 N   0  0  0  0  0  0  0  0  0  0  0  0
   37.5462   33.2622   26.8218 C   0  0  0  0  0  0  0  0  0  0  0  0
   38.4960   33.1648   27.8198 N   0  0  0  0  0  0  0  0  0  0  0  0
   37.4188   34.1519   25.9296 N   0  0  0  0  0  0  0  0  0  0  0  0
   36.5230   34.2912   24.9334 C   0  0  0  0  0  0  0  0  0  0  0  0
   35.5279   33.3961   24.7778 C   0  0  0  0  0  0  0  0  0  0  0  0
   35.4582   32.1988   25.8057 C   0  0  0  0  0  0  0  0  0  0  0  0
   34.5774   31.4144   25.6559 O   0  0  0  0  0  0  0  0  0  0  0  0
   34.5971   33.7401   23.6001 C   0  0  0  0  0  0  0  0  0  0  0  0
   35.1013   34.8613   23.0726 C   0  0  0  0  0  0  0  0  0  0  0  0
   36.2118   35.3531   23.7041 N   0  0  0  0  0  0  0  0  0  0  0  0
   33.4222   32.9580   23.1537 C   0  0  0  0  0  0  0  0  0  0  0  0
   32.5007   32.3229   22.8631 N   0  0  0  0  0  0  0  0  0  0  0  0
  1  2  1  0  0  0  0
  1  7  1  0  0  0  0
  2  3  1  0  0  0  0
  2  4  2  0  0  0  0
  4  5  1  0  0  0  0
  5  6  2  0  0  0  0
  5 11  1  0  0  0  0
  6  7  1  0  0  0  0
  6  9  1  0  0  0  0
  7  8  2  0  0  0  0
  9 10  2  0  0  0  0
  9 12  1  0  0  0  0
 10 11  1  0  0  0  0
 12 13  3  0  0  0  0
M  END
>  <CHROM.1>
35.68148325,33.29016168,25.03013524,0.46476998,0.61841976,2.41295801

>  <Name>
ligand

>  <RI>
0

>  <Rbt.Current_Directory>
/home/itssahil/PROJECTS/Mol_Feturizer/New_Systems/rnas/3GCA

>  <Rbt.Executable>
rbdock ($Id: //depot/dev/client3/rdock/2013.1/src/exe/rbdock.cxx#4 $)

>  <Rbt.Library>
libRbt.so (2013.1, Build901 2013/11/27)

>  <Rbt.Parameter_File>
/export/apps/rDock/src/rDock_2013.1_src/data/scripts/dock_solv.prm

>  <Rbt.Receptor>
prm/pocket_docking_3.prm

>  <SCORE>
-24.0539

>  <SCORE.INTER>
-24.0539

>  <SCORE.INTER.CONST>
1

>  <SCORE.INTER.POLAR>
0

>  <SCORE.INTER.ROT>
0

>  <SCORE.INTER.SOLV>
11.4011

>  <SCORE.INTER.VDW>
-23.4363

>  <SCORE.INTER.norm>
-1.8503

>  <SCORE.INTRA>
0

>  <SCORE.INTRA.DIHEDRAL>
0

>  <SCORE.INTRA.DIHEDRAL.0>
0

>  <SCORE.INTRA.POLAR>
0

>  <SCORE.INTRA.POLAR.0>
0

>  <SCORE.INTRA.REPUL>
0

>  <SCORE.INTRA.REPUL.0>
0

>  <SCORE.INTRA.SOLV>
0

>  <SCORE.INTRA.SOLV.lig_0>
-33.1994

>  <SCORE.INTRA.VDW>
0

>  <SCORE.INTRA.VDW.0>
0

>  <SCORE.INTRA.norm>
0

>  <SCORE.RESTR>
0

>  <SCORE.RESTR.CAVITY>
0

>  <SCORE.RESTR.norm>
0

>  <SCORE.SYSTEM>
0

>  <SCORE.SYSTEM.CONST>
0

>  <SCORE.SYSTEM.DIHEDRAL>
0

>  <SCORE.SYSTEM.SOLV>
0

>  <SCORE.SYSTEM.norm>
0

>  <SCORE.heavy>
13

>  <SCORE.norm>
-1.8503

>  <RMSD>
4.904

$$$$
ligand
 OpenBabel11021811473D
libRbt.so/2013.1/901 2013/11/27
 13 14  0  0  0  0  0  0  0  0999 V2000
   36.4415   32.0776   26.7860 N   0  0  0  0  0  0  0  0  0  0  0  0
   37.5664   33.1853   26.9203 C   0  0  0  0  0  0  0  0  0  0  0  0
   38.5019   33.0733   27.9302 N   0  0  0  0  0  0  0  0  0  0  0  0
   37.4433   34.0949   26.0478 N   0  0  0  0  0  0  0  0  0  0  0  0
   36.5613   34.2493   25.0416 C   0  0  0  0  0  0  0  0  0  0  0  0
   35.5779   33.3484   24.8493 C   0  0  0  0  0  0  0  0  0  0  0  0
   35.5049   32.1261   25.8472 C   0  0  0  0  0  0  0  0  0  0  0  0
   34.6346   31.3369   25.6652 O   0  0  0  0  0  0  0  0  0  0  0  0
   34.6615   33.7114   23.6661 C   0  0  0  0  0  0  0  0  0  0  0  0
   35.1621   34.8498   23.1732 C   0  0  0  0  0  0  0  0  0  0  0  0
   36.2579   35.3373   23.8333 N   0  0  0  0  0  0  0  0  0  0  0  0
   33.5015   32.9286   23.1831 C   0  0  0  0  0  0  0  0  0  0  0  0
   32.5910   32.2917   22.8634 N   0  0  0  0  0  0  0  0  0  0  0  0
  1  2  1  0  0  0  0
  1  7  1  0  0  0  0
  2  3  1  0  0  0  0
  2  4  2  0  0  0  0
  4  5  1  0  0  0  0
  5  6  2  0  0  0  0
  5 11  1  0  0  0  0
  6  7  1  0  0  0  0
  6  9  1  0  0  0  0
  7  8  2  0  0  0  0
  9 10  2  0  0  0  0
  9 12  1  0  0  0  0
 10 11  1  0  0  0  0
 12 13  3  0  0  0  0
M  END
>  <CHROM.1>
35.72870323,33.23793210,25.10143000,0.46778945,0.63650071,2.43512792

>  <Name>
ligand

>  <RI>
0

>  <Rbt.Current_Directory>
/home/itssahil/PROJECTS/Mol_Feturizer/New_Systems/rnas/3GCA

>  <Rbt.Executable>
rbdock ($Id: //depot/dev/client3/rdock/2013.1/src/exe/rbdock.cxx#4 $)

>  <Rbt.Library>
libRbt.so (2013.1, Build901 2013/11/27)

>  <Rbt.Parameter_File>
/export/apps/rDock/src/rDock_2013.1_src/data/scripts/dock_solv.prm

>  <Rbt.Receptor>
prm/pocket_docking_3.prm

>  <SCORE>
-24.04

>  <SCORE.INTER>
-24.04

>  <SCORE.INTER.CONST>
1

>  <SCORE.INTER.POLAR>
0

>  <SCORE.INTER.ROT>
0

>  <SCORE.INTER.SOLV>
11.5273

>  <SCORE.INTER.VDW>
-23.4691

>  <SCORE.INTER.norm>
-1.84923

>  <SCORE.INTRA>
0

>  <SCORE.INTRA.DIHEDRAL>
0

>  <SCORE.INTRA.DIHEDRAL.0>
0

>  <SCORE.INTRA.POLAR>
0

>  <SCORE.INTRA.POLAR.0>
0

>  <SCORE.INTRA.REPUL>
0

>  <SCORE.INTRA.REPUL.0>
0

>  <SCORE.INTRA.SOLV>
0

>  <SCORE.INTRA.SOLV.lig_0>
-33.1994

>  <SCORE.INTRA.VDW>
0

>  <SCORE.INTRA.VDW.0>
0

>  <SCORE.INTRA.norm>
0

>  <SCORE.RESTR>
0

>  <SCORE.RESTR.CAVITY>
0

>  <SCORE.RESTR.norm>
0

>  <SCORE.SYSTEM>
0

>  <SCORE.SYSTEM.CONST>
0

>  <SCORE.SYSTEM.DIHEDRAL>
0

>  <SCORE.SYSTEM.SOLV>
0

>  <SCORE.SYSTEM.norm>
0

>  <SCORE.heavy>
13

>  <SCORE.norm>
-1.84923

>  <RMSD>
4.904

$$$$
ligand
 OpenBabel11021811473D
libRbt.so/2013.1/901 2013/11/27
 13 14  0  0  0  0  0  0  0  0999 V2000
   36.4107   32.1631   26.7288 N   0  0  0  0  0  0  0  0  0  0  0  0
   37.5473   33.2630   26.8218 C   0  0  0  0  0  0  0  0  0  0  0  0
   38.4964   33.1651   27.8204 N   0  0  0  0  0  0  0  0  0  0  0  0
   37.4197   34.1538   25.9307 N   0  0  0  0  0  0  0  0  0  0  0  0
   36.5245   34.2936   24.9341 C   0  0  0  0  0  0  0  0  0  0  0  0
   35.5303   33.3978   24.7765 C   0  0  0  0  0  0  0  0  0  0  0  0
   35.4610   32.1990   25.8027 C   0  0  0  0  0  0  0  0  0  0  0  0
   34.5811   31.4140   25.6512 O   0  0  0  0  0  0  0  0  0  0  0  0
   34.6001   33.7425   23.5986 C   0  0  0  0  0  0  0  0  0  0  0  0
   35.1036   34.8649   23.0729 C   0  0  0  0  0  0  0  0  0  0  0  0
   36.2132   35.3569   23.7059 N   0  0  0  0  0  0  0  0  0  0  0  0
   33.4262   32.9599   23.1502 C   0  0  0  0  0  0  0  0  0  0  0  0
   32.5055   32.3244   22.8581 N   0  0  0  0  0  0  0  0  0  0  0  0
  1  2  1  0  0  0  0
  1  7  1  0  0  0  0
  2  3  1  0  0  0  0
  2  4  2  0  0  0  0
  4  5  1  0  0  0  0
  5  6  2  0  0  0  0
  5 11  1  0  0  0  0
  6  7  1  0  0  0  0
  6  9  1  0  0  0  0
  7  8  2  0  0  0  0
  9 10  2  0  0  0  0
  9 12  1  0  0  0  0
 10 11  1  0  0  0  0
 12 13  3  0  0  0  0
M  END
>  <CHROM.1>
35.68382459,33.29166244,25.02879807,0.46450560,0.61960407,2.41446579

>  <Name>
ligand

>  <RI>
0

>  <Rbt.Current_Directory>
/home/itssahil/PROJECTS/Mol_Feturizer/New_Systems/rnas/3GCA

>  <Rbt.Executable>
rbdock ($Id: //depot/dev/client3/rdock/2013.1/src/exe/rbdock.cxx#4 $)

>  <Rbt.Library>
libRbt.so (2013.1, Build901 2013/11/27)

>  <Rbt.Parameter_File>
/export/apps/rDock/src/rDock_2013.1_src/data/scripts/dock_solv.prm

>  <Rbt.Receptor>
prm/pocket_docking_3.prm

>  <SCORE>
-24.0543

>  <SCORE.INTER>
-24.0543

>  <SCORE.INTER.CONST>
1

>  <SCORE.INTER.POLAR>
0

>  <SCORE.INTER.ROT>
0

>  <SCORE.INTER.SOLV>
11.3979

>  <SCORE.INTER.VDW>
-23.4355

>  <SCORE.INTER.norm>
-1.85033

>  <SCORE.INTRA>
0

>  <SCORE.INTRA.DIHEDRAL>
0

>  <SCORE.INTRA.DIHEDRAL.0>
0

>  <SCORE.INTRA.POLAR>
0

>  <SCORE.INTRA.POLAR.0>
0

>  <SCORE.INTRA.REPUL>
0

>  <SCORE.INTRA.REPUL.0>
0

>  <SCORE.INTRA.SOLV>
0

>  <SCORE.INTRA.SOLV.lig_0>
-33.1994

>  <SCORE.INTRA.VDW>
0

>  <SCORE.INTRA.VDW.0>
0

>  <SCORE.INTRA.norm>
0

>  <SCORE.RESTR>
0

>  <SCORE.RESTR.CAVITY>
0

>  <SCORE.RESTR.norm>
0

>  <SCORE.SYSTEM>
0

>  <SCORE.SYSTEM.CONST>
0

>  <SCORE.SYSTEM.DIHEDRAL>
0

>  <SCORE.SYSTEM.SOLV>
0

>  <SCORE.SYSTEM.norm>
0

>  <SCORE.heavy>
13

>  <SCORE.norm>
-1.85033

>  <RMSD>
4.904

$$$$
ligand
 OpenBabel11021811473D
libRbt.so/2013.1/901 2013/11/27
 13 14  0  0  0  0  0  0  0  0999 V2000
   36.4428   32.1059   26.6924 N   0  0  0  0  0  0  0  0  0  0  0  0
   37.5807   33.2041   26.7886 C   0  0  0  0  0  0  0  0  0  0  0  0
   38.5405   33.0921   27.7755 N   0  0  0  0  0  0  0  0  0  0  0  0
   37.4439   34.1074   25.9116 N   0  0  0  0  0  0  0  0  0  0  0  0
   36.5381   34.2614   24.9266 C   0  0  0  0  0  0  0  0  0  0  0  0
   35.5420   33.3681   24.7672 C   0  0  0  0  0  0  0  0  0  0  0  0
   35.4833   32.1550   25.7771 C   0  0  0  0  0  0  0  0  0  0  0  0
   34.6015   31.3724   25.6241 O   0  0  0  0  0  0  0  0  0  0  0  0
   34.5993   33.7294   23.6043 C   0  0  0  0  0  0  0  0  0  0  0  0
   35.0975   34.8590   23.0890 C   0  0  0  0  0  0  0  0  0  0  0  0
   36.2140   35.3419   23.7170 N   0  0  0  0  0  0  0  0  0  0  0  0
   33.4204   32.9534   23.1576 C   0  0  0  0  0  0  0  0  0  0  0  0
   32.4964   32.3223   22.8665 N   0  0  0  0  0  0  0  0  0  0  0  0
  1  2  1  0  0  0  0
  1  7  1  0  0  0  0
  2  3  1  0  0  0  0
  2  4  2  0  0  0  0
  4  5  1  0  0  0  0
  5  6  2  0  0  0  0
  5 11  1  0  0  0  0
  6  7  1  0  0  0  0
  6  9  1  0  0  0  0
  7  8  2  0  0  0  0
  9 10  2  0  0  0  0
  9 12  1  0  0  0  0
 10 11  1  0  0  0  0
 12 13  3  0  0  0  0
M  END
>  <CHROM.1>
35.69815738,33.25835116,25.01630072,0.45611648,0.61133061,2.43334416

>  <Name>
ligand

>  <RI>
0

>  <Rbt.Current_Directory>
/home/itssahil/PROJECTS/Mol_Feturizer/New_Systems/rnas/3GCA

>  <Rbt.Executable>
rbdock ($Id: //depot/dev/client3/rdock/2013.1/src/exe/rbdock.cxx#4 $)

>  <Rbt.Library>
libRbt.so (2013.1, Build901 2013/11/27)

>  <Rbt.Parameter_File>
/export/apps/rDock/src/rDock_2013.1_src/data/scripts/dock_solv.prm

>  <Rbt.Receptor>
prm/pocket_docking_4.prm

>  <SCORE>
-24.0057

>  <SCORE.INTER>
-24.0057

>  <SCORE.INTER.CONST>
1

>  <SCORE.INTER.POLAR>
0

>  <SCORE.INTER.ROT>
0

>  <SCORE.INTER.SOLV>
11.2821

>  <SCORE.INTER.VDW>
-23.3645

>  <SCORE.INTER.norm>
-1.84659

>  <SCORE.INTRA>
0

>  <SCORE.INTRA.DIHEDRAL>
0

>  <SCORE.INTRA.DIHEDRAL.0>
0

>  <SCORE.INTRA.POLAR>
0

>  <SCORE.INTRA.POLAR.0>
0

>  <SCORE.INTRA.REPUL>
0

>  <SCORE.INTRA.REPUL.0>
0

>  <SCORE.INTRA.SOLV>
0

>  <SCORE.INTRA.SOLV.lig_0>
-33.1994

>  <SCORE.INTRA.VDW>
0

>  <SCORE.INTRA.VDW.0>
0

>  <SCORE.INTRA.norm>
0

>  <SCORE.RESTR>
0

>  <SCORE.RESTR.CAVITY>
0

>  <SCORE.RESTR.norm>
0

>  <SCORE.SYSTEM>
0

>  <SCORE.SYSTEM.CONST>
0

>  <SCORE.SYSTEM.DIHEDRAL>
0

>  <SCORE.SYSTEM.SOLV>
0

>  <SCORE.SYSTEM.norm>
0

>  <SCORE.heavy>
13

>  <SCORE.norm>
-1.84659

>  <RMSD>
4.904

$$$$
ligand
 OpenBabel11021811473D
libRbt.so/2013.1/901 2013/11/27
 13 14  0  0  0  0  0  0  0  0999 V2000
   36.4345   32.1134   26.7119 N   0  0  0  0  0  0  0  0  0  0  0  0
   37.5671   33.2165   26.8154 C   0  0  0  0  0  0  0  0  0  0  0  0
   38.5222   33.1074   27.8072 N   0  0  0  0  0  0  0  0  0  0  0  0
   37.4310   34.1202   25.9387 N   0  0  0  0  0  0  0  0  0  0  0  0
   36.5297   34.2715   24.9492 C   0  0  0  0  0  0  0  0  0  0  0  0
   35.5383   33.3740   24.7835 C   0  0  0  0  0  0  0  0  0  0  0  0
   35.4796   32.1595   25.7917 C   0  0  0  0  0  0  0  0  0  0  0  0
   34.6020   31.3733   25.6332 O   0  0  0  0  0  0  0  0  0  0  0  0
   34.6001   33.7327   23.6161 C   0  0  0  0  0  0  0  0  0  0  0  0
   35.0961   34.8650   23.1049 C   0  0  0  0  0  0  0  0  0  0  0  0
   36.2072   35.3520   23.7392 N   0  0  0  0  0  0  0  0  0  0  0  0
   33.4269   32.9522   23.1624 C   0  0  0  0  0  0  0  0  0  0  0  0
   32.5072   32.3173   22.8657 N   0  0  0  0  0  0  0  0  0  0  0  0
  1  2  1  0  0  0  0
  1  7  1  0  0  0  0
  2  3  1  0  0  0  0
  2  4  2  0  0  0  0
  4  5  1  0  0  0  0
  5  6  2  0  0  0  0
  5 11  1  0  0  0  0
  6  7  1  0  0  0  0
  6  9  1  0  0  0  0
  7  8  2  0  0  0  0
  9 10  2  0  0  0  0
  9 12  1  0  0  0  0
 10 11  1  0  0  0  0
 12 13  3  0  0  0  0
M  END
>  <CHROM.1>
35.69360861,33.26470502,25.03333403,0.45624087,0.61811221,2.43446146

>  <Name>
ligand

>  <RI>
0

>  <Rbt.Current_Directory>
/home/itssahil/PROJECTS/Mol_Feturizer/New_Systems/rnas/3GCA

>  <Rbt.Executable>
rbdock ($Id: //depot/dev/client3/rdock/2013.1/src/exe/rbdock.cxx#4 $)

>  <Rbt.Library>
libRbt.so (2013.1, Build901 2013/11/27)

>  <Rbt.Parameter_File>
/export/apps/rDock/src/rDock_2013.1_src/data/scripts/dock_solv.prm

>  <Rbt.Receptor>
prm/pocket_docking_4.prm

>  <SCORE>
-24.0364

>  <SCORE.INTER>
-24.0364

>  <SCORE.INTER.CONST>
1

>  <SCORE.INTER.POLAR>
0

>  <SCORE.INTER.ROT>
0

>  <SCORE.INTER.SOLV>
11.3353

>  <SCORE.INTER.VDW>
-23.4027

>  <SCORE.INTER.norm>
-1.84895

>  <SCORE.INTRA>
0

>  <SCORE.INTRA.DIHEDRAL>
0

>  <SCORE.INTRA.DIHEDRAL.0>
0

>  <SCORE.INTRA.POLAR>
0

>  <SCORE.INTRA.POLAR.0>
0

>  <SCORE.INTRA.REPUL>
0

>  <SCORE.INTRA.REPUL.0>
0

>  <SCORE.INTRA.SOLV>
0

>  <SCORE.INTRA.SOLV.lig_0>
-33.1994

>  <SCORE.INTRA.VDW>
0

>  <SCORE.INTRA.VDW.0>
0

>  <SCORE.INTRA.norm>
0

>  <SCORE.RESTR>
0

>  <SCORE.RESTR.CAVITY>
0

>  <SCORE.RESTR.norm>
0

>  <SCORE.SYSTEM>
0

>  <SCORE.SYSTEM.CONST>
0

>  <SCORE.SYSTEM.DIHEDRAL>
0

>  <SCORE.SYSTEM.SOLV>
0

>  <SCORE.SYSTEM.norm>
0

>  <SCORE.heavy>
13

>  <SCORE.norm>
-1.84895

>  <RMSD>
4.904

$$$$
ligand
 OpenBabel11021811473D
libRbt.so/2013.1/901 2013/11/27
 13 14  0  0  0  0  0  0  0  0999 V2000
   36.4489   32.0565   26.7735 N   0  0  0  0  0  0  0  0  0  0  0  0
   37.5687   33.1687   26.9129 C   0  0  0  0  0  0  0  0  0  0  0  0
   38.5094   33.0523   27.9173 N   0  0  0  0  0  0  0  0  0  0  0  0
   37.4369   34.0857   26.0494 N   0  0  0  0  0  0  0  0  0  0  0  0
   36.5494   34.2448   25.0487 C   0  0  0  0  0  0  0  0  0  0  0  0
   35.5697   33.3407   24.8527 C   0  0  0  0  0  0  0  0  0  0  0  0
   35.5077   32.1088   25.8395 C   0  0  0  0  0  0  0  0  0  0  0  0
   34.6406   31.3168   25.6542 O   0  0  0  0  0  0  0  0  0  0  0  0
   34.6460   33.7098   23.6771 C   0  0  0  0  0  0  0  0  0  0  0  0
   35.1383   34.8554   23.1926 C   0  0  0  0  0  0  0  0  0  0  0  0
   36.2347   35.3424   23.8521 N   0  0  0  0  0  0  0  0  0  0  0  0
   33.4878   32.9256   23.1923 C   0  0  0  0  0  0  0  0  0  0  0  0
   32.5791   32.2869   22.8708 N   0  0  0  0  0  0  0  0  0  0  0  0
  1  2  1  0  0  0  0
  1  7  1  0  0  0  0
  2  3  1  0  0  0  0
  2  4  2  0  0  0  0
  4  5  1  0  0  0  0
  5  6  2  0  0  0  0
  5 11  1  0  0  0  0
  6  7  1  0  0  0  0
  6  9  1  0  0  0  0
  7  8  2  0  0  0  0
  9 10  2  0  0  0  0
  9 12  1  0  0  0  0
 10 11  1  0  0  0  0
 12 13  3  0  0  0  0
M  END
>  <CHROM.1>
35.72227345,33.22866929,25.10306418,0.45913393,0.63627844,2.44956297

>  <Name>
ligand

>  <RI>
0

>  <Rbt.Current_Directory>
/home/itssahil/PROJECTS/Mol_Feturizer/New_Systems/rnas/3GCA

>  <Rbt.Executable>
rbdock ($Id: //depot/dev/client3/rdock/2013.1/src/exe/rbdock.cxx#4 $)

>  <Rbt.Library>
libRbt.so (2013.1, Build901 2013/11/27)

>  <Rbt.Parameter_File>
/export/apps/rDock/src/rDock_2013.1_src/data/scripts/dock_solv.prm

>  <Rbt.Receptor>
prm/pocket_docking_5.prm

>  <SCORE>
-24.0251

>  <SCORE.INTER>
-24.0251

>  <SCORE.INTER.CONST>
1

>  <SCORE.INTER.POLAR>
0

>  <SCORE.INTER.ROT>
0

>  <SCORE.INTER.SOLV>
11.5108

>  <SCORE.INTER.VDW>
-23.4537

>  <SCORE.INTER.norm>
-1.84809

>  <SCORE.INTRA>
0

>  <SCORE.INTRA.DIHEDRAL>
0

>  <SCORE.INTRA.DIHEDRAL.0>
0

>  <SCORE.INTRA.POLAR>
0

>  <SCORE.INTRA.POLAR.0>
0

>  <SCORE.INTRA.REPUL>
0

>  <SCORE.INTRA.REPUL.0>
0

>  <SCORE.INTRA.SOLV>
0

>  <SCORE.INTRA.SOLV.lig_0>
-33.1994

>  <SCORE.INTRA.VDW>
0

>  <SCORE.INTRA.VDW.0>
0

>  <SCORE.INTRA.norm>
0

>  <SCORE.RESTR>
0

>  <SCORE.RESTR.CAVITY>
0

>  <SCORE.RESTR.norm>
0

>  <SCORE.SYSTEM>
0

>  <SCORE.SYSTEM.CONST>
0

>  <SCORE.SYSTEM.DIHEDRAL>
0

>  <SCORE.SYSTEM.SOLV>
0

>  <SCORE.SYSTEM.norm>
0

>  <SCORE.heavy>
13

>  <SCORE.norm>
-1.84809

>  <RMSD>
4.904

$$$$
ligand
 OpenBabel11021811473D
libRbt.so/2013.1/901 2013/11/27
 13 14  0  0  0  0  0  0  0  0999 V2000
   36.4385   32.1317   26.7223 N   0  0  0  0  0  0  0  0  0  0  0  0
   37.5594   33.2459   26.8344 C   0  0  0  0  0  0  0  0  0  0  0  0
   38.5102   33.1441   27.8310 N   0  0  0  0  0  0  0  0  0  0  0  0
   37.4187   34.1503   25.9591 N   0  0  0  0  0  0  0  0  0  0  0  0
   36.5213   34.2948   24.9651 C   0  0  0  0  0  0  0  0  0  0  0  0
   35.5399   33.3878   24.7920 C   0  0  0  0  0  0  0  0  0  0  0  0
   35.4881   32.1704   25.7971 C   0  0  0  0  0  0  0  0  0  0  0  0
   34.6193   31.3757   25.6320 O   0  0  0  0  0  0  0  0  0  0  0  0
   34.6043   33.7398   23.6205 C   0  0  0  0  0  0  0  0  0  0  0  0
   35.0916   34.8783   23.1145 C   0  0  0  0  0  0  0  0  0  0  0  0
   36.1944   35.3749   23.7559 N   0  0  0  0  0  0  0  0  0  0  0  0
   33.4416   32.9485   23.1587 C   0  0  0  0  0  0  0  0  0  0  0  0
   32.5299   32.3052   22.8556 N   0  0  0  0  0  0  0  0  0  0  0  0
  1  2  1  0  0  0  0
  1  7  1  0  0  0  0
  2  3  1  0  0  0  0
  2  4  2  0  0  0  0
  4  5  1  0  0  0  0
  5  6  2  0  0  0  0
  5 11  1  0  0  0  0
  6  7  1  0  0  0  0
  6  9  1  0  0  0  0
  7  8  2  0  0  0  0
  9 10  2  0  0  0  0
  9 12  1  0  0  0  0
 10 11  1  0  0  0  0
 12 13  3  0  0  0  0
M  END
>  <CHROM.1>
35.69496916,33.27946805,25.04242636,0.45103143,0.62871206,2.43985400

>  <Name>
ligand

>  <RI>
0

>  <Rbt.Current_Directory>
/home/itssahil/PROJECTS/Mol_Feturizer/New_Systems/rnas/3GCA

>  <Rbt.Executable>
rbdock ($Id: //depot/dev/client3/rdock/2013.1/src/exe/rbdock.cxx#4 $)

>  <Rbt.Library>
libRbt.so (2013.1, Build901 2013/11/27)

>  <Rbt.Parameter_File>
/export/apps/rDock/src/rDock_2013.1_src/data/scripts/dock_solv.prm

>  <Rbt.Receptor>
prm/pocket_docking_5.prm

>  <SCORE>
-24.0283

>  <SCORE.INTER>
-24.0283

>  <SCORE.INTER.CONST>
1

>  <SCORE.INTER.POLAR>
0

>  <SCORE.INTER.ROT>
0

>  <SCORE.INTER.SOLV>
11.3699

>  <SCORE.INTER.VDW>
-23.4088

>  <SCORE.INTER.norm>
-1.84833

>  <SCORE.INTRA>
0

>  <SCORE.INTRA.DIHEDRAL>
0

>  <SCORE.INTRA.DIHEDRAL.0>
0

>  <SCORE.INTRA.POLAR>
0

>  <SCORE.INTRA.POLAR.0>
0

>  <SCORE.INTRA.REPUL>
0

>  <SCORE.INTRA.REPUL.0>
0

>  <SCORE.INTRA.SOLV>
0

>  <SCORE.INTRA.SOLV.lig_0>
-33.1994

>  <SCORE.INTRA.VDW>
0

>  <SCORE.INTRA.VDW.0>
0

>  <SCORE.INTRA.norm>
0

>  <SCORE.RESTR>
0

>  <SCORE.RESTR.CAVITY>
0

>  <SCORE.RESTR.norm>
0

>  <SCORE.SYSTEM>
0

>  <SCORE.SYSTEM.CONST>
0

>  <SCORE.SYSTEM.DIHEDRAL>
0

>  <SCORE.SYSTEM.SOLV>
0

>  <SCORE.SYSTEM.norm>
0

>  <SCORE.heavy>
13

>  <SCORE.norm>
-1.84833

>  <RMSD>
4.904

$$$$
ligand
 OpenBabel11021811473D
libRbt.so/2013.1/901 2013/11/27
 13 14  0  0  0  0  0  0  0  0999 V2000
   36.4114   32.1630   26.7260 N   0  0  0  0  0  0  0  0  0  0  0  0
   37.5469   33.2640   26.8191 C   0  0  0  0  0  0  0  0  0  0  0  0
   38.4968   33.1663   27.8171 N   0  0  0  0  0  0  0  0  0  0  0  0
   37.4179   34.1554   25.9289 N   0  0  0  0  0  0  0  0  0  0  0  0
   36.5219   34.2952   24.9329 C   0  0  0  0  0  0  0  0  0  0  0  0
   35.5286   33.3985   24.7752 C   0  0  0  0  0  0  0  0  0  0  0  0
   35.4611   32.1988   25.8005 C   0  0  0  0  0  0  0  0  0  0  0  0
   34.5819   31.4130   25.6488 O   0  0  0  0  0  0  0  0  0  0  0  0
   34.5972   33.7432   23.5982 C   0  0  0  0  0  0  0  0  0  0  0  0
   35.0992   34.8665   23.0731 C   0  0  0  0  0  0  0  0  0  0  0  0
   36.2087   35.3592   23.7059 N   0  0  0  0  0  0  0  0  0  0  0  0
   33.4239   32.9597   23.1499 C   0  0  0  0  0  0  0  0  0  0  0  0
   32.5036   32.3235   22.8578 N   0  0  0  0  0  0  0  0  0  0  0  0
  1  2  1  0  0  0  0
  1  7  1  0  0  0  0
  2  3  1  0  0  0  0
  2  4  2  0  0  0  0
  4  5  1  0  0  0  0
  5  6  2  0  0  0  0
  5 11  1  0  0  0  0
  6  7  1  0  0  0  0
  6  9  1  0  0  0  0
  7  8  2  0  0  0  0
  9 10  2  0  0  0  0
  9 12  1  0  0  0  0
 10 11  1  0  0  0  0
 12 13  3  0  0  0  0
M  END
>  <CHROM.1>
35.68232576,33.29226776,25.02733580,0.46305751,0.61980665,2.41613626

>  <Name>
ligand

>  <RI>
0

>  <Rbt.Current_Directory>
/home/itssahil/PROJECTS/Mol_Feturizer/New_Systems/rnas/3GCA

>  <Rbt.Executable>
rbdock ($Id: //depot/dev/client3/rdock/2013.1/src/exe/rbdock.cxx#4 $)

>  <Rbt.Library>
libRbt.so (2013.1, Build901 2013/11/27)

>  <Rbt.Parameter_File>
/export/apps/rDock/src/rDock_2013.1_src/data/scripts/dock_solv.prm

>  <Rbt.Receptor>
prm/pocket_docking_6.prm

>  <SCORE>
-24.0543

>  <SCORE.INTER>
-24.0543

>  <SCORE.INTER.CONST>
1

>  <SCORE.INTER.POLAR>
0

>  <SCORE.INTER.ROT>
0

>  <SCORE.INTER.SOLV>
11.3982

>  <SCORE.INTER.VDW>
-23.4356

>  <SCORE.INTER.norm>
-1.85033

>  <SCORE.INTRA>
0

>  <SCORE.INTRA.DIHEDRAL>
0

>  <SCORE.INTRA.DIHEDRAL.0>
0

>  <SCORE.INTRA.POLAR>
0

>  <SCORE.INTRA.POLAR.0>
0

>  <SCORE.INTRA.REPUL>
0

>  <SCORE.INTRA.REPUL.0>
0

>  <SCORE.INTRA.SOLV>
0

>  <SCORE.INTRA.SOLV.lig_0>
-33.1994

>  <SCORE.INTRA.VDW>
0

>  <SCORE.INTRA.VDW.0>
0

>  <SCORE.INTRA.norm>
0

>  <SCORE.RESTR>
0

>  <SCORE.RESTR.CAVITY>
0

>  <SCORE.RESTR.norm>
0

>  <SCORE.SYSTEM>
0

>  <SCORE.SYSTEM.CONST>
0

>  <SCORE.SYSTEM.DIHEDRAL>
0

>  <SCORE.SYSTEM.SOLV>
0

>  <SCORE.SYSTEM.norm>
0

>  <SCORE.heavy>
13

>  <SCORE.norm>
-1.85033

>  <RMSD>
4.904

$$$$
ligand
 OpenBabel11021811473D
libRbt.so/2013.1/901 2013/11/27
 13 14  0  0  0  0  0  0  0  0999 V2000
   36.4220   32.1567   26.7191 N   0  0  0  0  0  0  0  0  0  0  0  0
   37.5479   33.2667   26.8217 C   0  0  0  0  0  0  0  0  0  0  0  0
   38.4982   33.1691   27.8192 N   0  0  0  0  0  0  0  0  0  0  0  0
   37.4114   34.1642   25.9387 N   0  0  0  0  0  0  0  0  0  0  0  0
   36.5145   34.3043   24.9435 C   0  0  0  0  0  0  0  0  0  0  0  0
   35.5291   33.4003   24.7781 C   0  0  0  0  0  0  0  0  0  0  0  0
   35.4717   32.1917   25.7936 C   0  0  0  0  0  0  0  0  0  0  0  0
   34.5994   31.3996   25.6352 O   0  0  0  0  0  0  0  0  0  0  0  0
   34.5951   33.7465   23.6036 C   0  0  0  0  0  0  0  0  0  0  0  0
   35.0876   34.8784   23.0879 C   0  0  0  0  0  0  0  0  0  0  0  0
   36.1925   35.3755   23.7251 N   0  0  0  0  0  0  0  0  0  0  0  0
   33.4288   32.9566   23.1485 C   0  0  0  0  0  0  0  0  0  0  0  0
   32.5142   32.3148   22.8509 N   0  0  0  0  0  0  0  0  0  0  0  0
  1  2  1  0  0  0  0
  1  7  1  0  0  0  0
  2  3  1  0  0  0  0
  2  4  2  0  0  0  0
  4  5  1  0  0  0  0
  5  6  2  0  0  0  0
  5 11  1  0  0  0  0
  6  7  1  0  0  0  0
  6  9  1  0  0  0  0
  7  8  2  0  0  0  0
  9 10  2  0  0  0  0
  9 12  1  0  0  0  0
 10 11  1  0  0  0  0
 12 13  3  0  0  0  0
M  END
>  <CHROM.1>
35.68366631,33.29338901,25.02945845,0.45530157,0.62578817,2.42880047

>  <Name>
ligand

>  <RI>
0

>  <Rbt.Current_Directory>
/home/itssahil/PROJECTS/Mol_Feturizer/New_Systems/rnas/3GCA

>  <Rbt.Executable>
rbdock ($Id: //depot/dev/client3/rdock/2013.1/src/exe/rbdock.cxx#4 $)

>  <Rbt.Library>
libRbt.so (2013.1, Build901 2013/11/27)

>  <Rbt.Parameter_File>
/export/apps/rDock/src/rDock_2013.1_src/data/scripts/dock_solv.prm

>  <Rbt.Receptor>
prm/pocket_docking_7.prm

>  <SCORE>
-24.0192

>  <SCORE.INTER>
-24.0192

>  <SCORE.INTER.CONST>
1

>  <SCORE.INTER.POLAR>
0

>  <SCORE.INTER.ROT>
0

>  <SCORE.INTER.SOLV>
11.3987

>  <SCORE.INTER.VDW>
-23.4124

>  <SCORE.INTER.norm>
-1.84763

>  <SCORE.INTRA>
0

>  <SCORE.INTRA.DIHEDRAL>
0

>  <SCORE.INTRA.DIHEDRAL.0>
0

>  <SCORE.INTRA.POLAR>
0

>  <SCORE.INTRA.POLAR.0>
0

>  <SCORE.INTRA.REPUL>
0

>  <SCORE.INTRA.REPUL.0>
0

>  <SCORE.INTRA.SOLV>
0

>  <SCORE.INTRA.SOLV.lig_0>
-33.1994

>  <SCORE.INTRA.VDW>
0

>  <SCORE.INTRA.VDW.0>
0

>  <SCORE.INTRA.norm>
0

>  <SCORE.RESTR>
0

>  <SCORE.RESTR.CAVITY>
0

>  <SCORE.RESTR.norm>
0

>  <SCORE.SYSTEM>
0

>  <SCORE.SYSTEM.CONST>
0

>  <SCORE.SYSTEM.DIHEDRAL>
0

>  <SCORE.SYSTEM.SOLV>
0

>  <SCORE.SYSTEM.norm>
0

>  <SCORE.heavy>
13

>  <SCORE.norm>
-1.84763

>  <RMSD>
4.904

$$$$
ligand
 OpenBabel11021811473D
libRbt.so/2013.1/901 2013/11/27
 13 14  0  0  0  0  0  0  0  0999 V2000
   36.4111   32.1663   26.7225 N   0  0  0  0  0  0  0  0  0  0  0  0
   37.5458   33.2681   26.8159 C   0  0  0  0  0  0  0  0  0  0  0  0
   38.4947   33.1719   27.8148 N   0  0  0  0  0  0  0  0  0  0  0  0
   37.4170   34.1588   25.9248 N   0  0  0  0  0  0  0  0  0  0  0  0
   36.5219   34.2971   24.9279 C   0  0  0  0  0  0  0  0  0  0  0  0
   35.5293   33.3996   24.7699 C   0  0  0  0  0  0  0  0  0  0  0  0
   35.4617   32.2007   25.7961 C   0  0  0  0  0  0  0  0  0  0  0  0
   34.5831   31.4142   25.6443 O   0  0  0  0  0  0  0  0  0  0  0  0
   34.5988   33.7428   23.5917 C   0  0  0  0  0  0  0  0  0  0  0  0
   35.1006   34.8660   23.0663 C   0  0  0  0  0  0  0  0  0  0  0  0
   36.2092   35.3599   23.6997 N   0  0  0  0  0  0  0  0  0  0  0  0
   33.4264   32.9582   23.1430 C   0  0  0  0  0  0  0  0  0  0  0  0
   32.5068   32.3212   22.8506 N   0  0  0  0  0  0  0  0  0  0  0  0
  1  2  1  0  0  0  0
  1  7  1  0  0  0  0
  2  3  1  0  0  0  0
  2  4  2  0  0  0  0
  4  5  1  0  0  0  0
  5  6  2  0  0  0  0
  5 11  1  0  0  0  0
  6  7  1  0  0  0  0
  6  9  1  0  0  0  0
  7  8  2  0  0  0  0
  9 10  2  0  0  0  0
  9 12  1  0  0  0  0
 10 11  1  0  0  0  0
 12 13  3  0  0  0  0
M  END
>  <CHROM.1>
35.68285431,33.29373325,25.02230847,0.46322084,0.62094665,2.41523463

>  <Name>
ligand

>  <RI>
0

>  <Rbt.Current_Directory>
/home/itssahil/PROJECTS/Mol_Feturizer/New_Systems/rnas/3GCA

>  <Rbt.Executable>
rbdock ($Id: //depot/dev/client3/rdock/2013.1/src/exe/rbdock.cxx#4 $)

>  <Rbt.Library>
libRbt.so (2013.1, Build901 2013/11/27)

>  <Rbt.Parameter_File>
/export/apps/rDock/src/rDock_2013.1_src/data/scripts/dock_solv.prm

>  <Rbt.Receptor>
prm/pocket_docking_7.prm

>  <SCORE>
-24.05

>  <SCORE.INTER>
-24.05

>  <SCORE.INTER.CONST>
1

>  <SCORE.INTER.POLAR>
0

>  <SCORE.INTER.ROT>
0

>  <SCORE.INTER.SOLV>
11.4052

>  <SCORE.INTER.VDW>
-23.4351

>  <SCORE.INTER.norm>
-1.85

>  <SCORE.INTRA>
0

>  <SCORE.INTRA.DIHEDRAL>
0

>  <SCORE.INTRA.DIHEDRAL.0>
0

>  <SCORE.INTRA.POLAR>
0

>  <SCORE.INTRA.POLAR.0>
0

>  <SCORE.INTRA.REPUL>
0

>  <SCORE.INTRA.REPUL.0>
0

>  <SCORE.INTRA.SOLV>
0

>  <SCORE.INTRA.SOLV.lig_0>
-33.1994

>  <SCORE.INTRA.VDW>
0

>  <SCORE.INTRA.VDW.0>
0

>  <SCORE.INTRA.norm>
0

>  <SCORE.RESTR>
0

>  <SCORE.RESTR.CAVITY>
0

>  <SCORE.RESTR.norm>
0

>  <SCORE.SYSTEM>
0

>  <SCORE.SYSTEM.CONST>
0

>  <SCORE.SYSTEM.DIHEDRAL>
0

>  <SCORE.SYSTEM.SOLV>
0

>  <SCORE.SYSTEM.norm>
0

>  <SCORE.heavy>
13

>  <SCORE.norm>
-1.85

>  <RMSD>
4.904

$$$$
ligand
 OpenBabel11021811473D
libRbt.so/2013.1/901 2013/11/27
 13 14  0  0  0  0  0  0  0  0999 V2000
   36.4352   32.1130   26.7096 N   0  0  0  0  0  0  0  0  0  0  0  0
   37.5679   33.2160   26.8132 C   0  0  0  0  0  0  0  0  0  0  0  0
   38.5225   33.1071   27.8054 N   0  0  0  0  0  0  0  0  0  0  0  0
   37.4322   34.1194   25.9361 N   0  0  0  0  0  0  0  0  0  0  0  0
   36.5313   34.2705   24.9462 C   0  0  0  0  0  0  0  0  0  0  0  0
   35.5399   33.3731   24.7804 C   0  0  0  0  0  0  0  0  0  0  0  0
   35.4806   32.1589   25.7890 C   0  0  0  0  0  0  0  0  0  0  0  0
   34.6030   31.3727   25.6303 O   0  0  0  0  0  0  0  0  0  0  0  0
   34.6022   33.7315   23.6125 C   0  0  0  0  0  0  0  0  0  0  0  0
   35.0985   34.8636   23.1011 C   0  0  0  0  0  0  0  0  0  0  0  0
   36.2095   35.3507   23.7357 N   0  0  0  0  0  0  0  0  0  0  0  0
   33.4292   32.9509   23.1585 C   0  0  0  0  0  0  0  0  0  0  0  0
   32.5095   32.3161   22.8617 N   0  0  0  0  0  0  0  0  0  0  0  0
  1  2  1  0  0  0  0
  1  7  1  0  0  0  0
  2  3  1  0  0  0  0
  2  4  2  0  0  0  0
  4  5  1  0  0  0  0
  5  6  2  0  0  0  0
  5 11  1  0  0  0  0
  6  7  1  0  0  0  0
  6  9  1  0  0  0  0
  7  8  2  0  0  0  0
  9 10  2  0  0  0  0
  9 12  1  0  0  0  0
 10 11  1  0  0  0  0
 12 13  3  0  0  0  0
M  END
>  <CHROM.1>
35.69510054,33.26381041,25.03032092,0.45667288,0.61836115,2.43389327

>  <Name>
ligand

>  <RI>
0

>  <Rbt.Current_Directory>
/home/itssahil/PROJECTS/Mol_Feturizer/New_Systems/rnas/3GCA

>  <Rbt.Executable>
rbdock ($Id: //depot/dev/client3/rdock/2013.1/src/exe/rbdock.cxx#4 $)

>  <Rbt.Library>
libRbt.so (2013.1, Build901 2013/11/27)

>  <Rbt.Parameter_File>
/export/apps/rDock/src/rDock_2013.1_src/data/scripts/dock_solv.prm

>  <Rbt.Receptor>
prm/pocket_docking_7.prm

>  <SCORE>
-24.0348

>  <SCORE.INTER>
-24.0348

>  <SCORE.INTER.CONST>
1

>  <SCORE.INTER.POLAR>
0

>  <SCORE.INTER.ROT>
0

>  <SCORE.INTER.SOLV>
11.3342

>  <SCORE.INTER.VDW>
-23.4013

>  <SCORE.INTER.norm>
-1.84883

>  <SCORE.INTRA>
0

>  <SCORE.INTRA.DIHEDRAL>
0

>  <SCORE.INTRA.DIHEDRAL.0>
0

>  <SCORE.INTRA.POLAR>
0

>  <SCORE.INTRA.POLAR.0>
0

>  <SCORE.INTRA.REPUL>
0

>  <SCORE.INTRA.REPUL.0>
0

>  <SCORE.INTRA.SOLV>
0

>  <SCORE.INTRA.SOLV.lig_0>
-33.1994

>  <SCORE.INTRA.VDW>
0

>  <SCORE.INTRA.VDW.0>
0

>  <SCORE.INTRA.norm>
0

>  <SCORE.RESTR>
0

>  <SCORE.RESTR.CAVITY>
0

>  <SCORE.RESTR.norm>
0

>  <SCORE.SYSTEM>
0

>  <SCORE.SYSTEM.CONST>
0

>  <SCORE.SYSTEM.DIHEDRAL>
0

>  <SCORE.SYSTEM.SOLV>
0

>  <SCORE.SYSTEM.norm>
0

>  <SCORE.heavy>
13

>  <SCORE.norm>
-1.84883

>  <RMSD>
4.904

$$$$
ligand
 OpenBabel11021811473D
libRbt.so/2013.1/901 2013/11/27
 13 14  0  0  0  0  0  0  0  0999 V2000
   36.4361   32.1314   26.7180 N   0  0  0  0  0  0  0  0  0  0  0  0
   37.5553   33.2471   26.8324 C   0  0  0  0  0  0  0  0  0  0  0  0
   38.5064   33.1446   27.8287 N   0  0  0  0  0  0  0  0  0  0  0  0
   37.4132   34.1531   25.9590 N   0  0  0  0  0  0  0  0  0  0  0  0
   36.5154   34.2984   24.9655 C   0  0  0  0  0  0  0  0  0  0  0  0
   35.5354   33.3903   24.7905 C   0  0  0  0  0  0  0  0  0  0  0  0
   35.4856   32.1706   25.7930 C   0  0  0  0  0  0  0  0  0  0  0  0
   34.6180   31.3750   25.6262 O   0  0  0  0  0  0  0  0  0  0  0  0
   34.5993   33.7434   23.6198 C   0  0  0  0  0  0  0  0  0  0  0  0
   35.0847   34.8837   23.1162 C   0  0  0  0  0  0  0  0  0  0  0  0
   36.1868   35.3806   23.7586 N   0  0  0  0  0  0  0  0  0  0  0  0
   33.4376   32.9513   23.1564 C   0  0  0  0  0  0  0  0  0  0  0  0
   32.5269   32.3072   22.8520 N   0  0  0  0  0  0  0  0  0  0  0  0
  1  2  1  0  0  0  0
  1  7  1  0  0  0  0
  2  3  1  0  0  0  0
  2  4  2  0  0  0  0
  4  5  1  0  0  0  0
  5  6  2  0  0  0  0
  5 11  1  0  0  0  0
  6  7  1  0  0  0  0
  6  9  1  0  0  0  0
  7  8  2  0  0  0  0
  9 10  2  0  0  0  0
  9 12  1  0  0  0  0
 10 11  1  0  0  0  0
 12 13  3  0  0  0  0
M  END
>  <CHROM.1>
35.69071041,33.28164440,25.04066286,0.44951732,0.62962535,2.44289708

>  <Name>
ligand

>  <RI>
0

>  <Rbt.Current_Directory>
/home/itssahil/PROJECTS/Mol_Feturizer/New_Systems/rnas/3GCA

>  <Rbt.Executable>
rbdock ($Id: //depot/dev/client3/rdock/2013.1/src/exe/rbdock.cxx#4 $)

>  <Rbt.Library>
libRbt.so (2013.1, Build901 2013/11/27)

>  <Rbt.Parameter_File>
/export/apps/rDock/src/rDock_2013.1_src/data/scripts/dock_solv.prm

>  <Rbt.Receptor>
prm/pocket_docking_7.prm

>  <SCORE>
-24.0256

>  <SCORE.INTER>
-24.0256

>  <SCORE.INTER.CONST>
1

>  <SCORE.INTER.POLAR>
0

>  <SCORE.INTER.ROT>
0

>  <SCORE.INTER.SOLV>
11.3841

>  <SCORE.INTER.VDW>
-23.4117

>  <SCORE.INTER.norm>
-1.84812

>  <SCORE.INTRA>
0

>  <SCORE.INTRA.DIHEDRAL>
0

>  <SCORE.INTRA.DIHEDRAL.0>
0

>  <SCORE.INTRA.POLAR>
0

>  <SCORE.INTRA.POLAR.0>
0

>  <SCORE.INTRA.REPUL>
0

>  <SCORE.INTRA.REPUL.0>
0

>  <SCORE.INTRA.SOLV>
0

>  <SCORE.INTRA.SOLV.lig_0>
-33.1994

>  <SCORE.INTRA.VDW>
0

>  <SCORE.INTRA.VDW.0>
0

>  <SCORE.INTRA.norm>
0

>  <SCORE.RESTR>
0

>  <SCORE.RESTR.CAVITY>
0

>  <SCORE.RESTR.norm>
0

>  <SCORE.SYSTEM>
0

>  <SCORE.SYSTEM.CONST>
0

>  <SCORE.SYSTEM.DIHEDRAL>
0

>  <SCORE.SYSTEM.SOLV>
0

>  <SCORE.SYSTEM.norm>
0

>  <SCORE.heavy>
13

>  <SCORE.norm>
-1.84812

>  <RMSD>
4.904

$$$$
ligand
 OpenBabel11021811473D
libRbt.so/2013.1/901 2013/11/27
 13 14  0  0  0  0  0  0  0  0999 V2000
   36.4393   32.0943   26.7524 N   0  0  0  0  0  0  0  0  0  0  0  0
   37.5660   33.2016   26.8735 C   0  0  0  0  0  0  0  0  0  0  0  0
   38.5108   33.0915   27.8749 N   0  0  0  0  0  0  0  0  0  0  0  0
   37.4353   34.1091   26.0000 N   0  0  0  0  0  0  0  0  0  0  0  0
   36.5440   34.2616   25.0017 C   0  0  0  0  0  0  0  0  0  0  0  0
   35.5583   33.3608   24.8208 C   0  0  0  0  0  0  0  0  0  0  0  0
   35.4941   32.1410   25.8223 C   0  0  0  0  0  0  0  0  0  0  0  0
   34.6216   31.3518   25.6503 O   0  0  0  0  0  0  0  0  0  0  0  0
   34.6312   33.7215   23.6453 C   0  0  0  0  0  0  0  0  0  0  0  0
   35.1277   34.8585   23.1451 C   0  0  0  0  0  0  0  0  0  0  0  0
   36.2299   35.3469   23.7937 N   0  0  0  0  0  0  0  0  0  0  0  0
   33.4663   32.9382   23.1751 C   0  0  0  0  0  0  0  0  0  0  0  0
   32.5525   32.3010   22.8654 N   0  0  0  0  0  0  0  0  0  0  0  0
  1  2  1  0  0  0  0
  1  7  1  0  0  0  0
  2  3  1  0  0  0  0
  2  4  2  0  0  0  0
  4  5  1  0  0  0  0
  5  6  2  0  0  0  0
  5 11  1  0  0  0  0
  6  7  1  0  0  0  0
  6  9  1  0  0  0  0
  7  8  2  0  0  0  0
  9 10  2  0  0  0  0
  9 12  1  0  0  0  0
 10 11  1  0  0  0  0
 12 13  3  0  0  0  0
M  END
>  <CHROM.1>
35.71144764,33.25088152,25.07175626,0.46079669,0.62903169,2.43685715

>  <Name>
ligand

>  <RI>
0

>  <Rbt.Current_Directory>
/home/itssahil/PROJECTS/Mol_Feturizer/New_Systems/rnas/3GCA

>  <Rbt.Executable>
rbdock ($Id: //depot/dev/client3/rdock/2013.1/src/exe/rbdock.cxx#4 $)

>  <Rbt.Library>
libRbt.so (2013.1, Build901 2013/11/27)

>  <Rbt.Parameter_File>
/export/apps/rDock/src/rDock_2013.1_src/data/scripts/dock_solv.prm

>  <Rbt.Receptor>
prm/pocket_docking_7.prm

>  <SCORE>
-24.0212

>  <SCORE.INTER>
-24.0212

>  <SCORE.INTER.CONST>
1

>  <SCORE.INTER.POLAR>
0

>  <SCORE.INTER.ROT>
0

>  <SCORE.INTER.SOLV>
11.4227

>  <SCORE.INTER.VDW>
-23.4217

>  <SCORE.INTER.norm>
-1.84779

>  <SCORE.INTRA>
0

>  <SCORE.INTRA.DIHEDRAL>
0

>  <SCORE.INTRA.DIHEDRAL.0>
0

>  <SCORE.INTRA.POLAR>
0

>  <SCORE.INTRA.POLAR.0>
0

>  <SCORE.INTRA.REPUL>
0

>  <SCORE.INTRA.REPUL.0>
0

>  <SCORE.INTRA.SOLV>
0

>  <SCORE.INTRA.SOLV.lig_0>
-33.1994

>  <SCORE.INTRA.VDW>
0

>  <SCORE.INTRA.VDW.0>
0

>  <SCORE.INTRA.norm>
0

>  <SCORE.RESTR>
0

>  <SCORE.RESTR.CAVITY>
0

>  <SCORE.RESTR.norm>
0

>  <SCORE.SYSTEM>
0

>  <SCORE.SYSTEM.CONST>
0

>  <SCORE.SYSTEM.DIHEDRAL>
0

>  <SCORE.SYSTEM.SOLV>
0

>  <SCORE.SYSTEM.norm>
0

>  <SCORE.heavy>
13

>  <SCORE.norm>
-1.84779

>  <RMSD>
4.904

$$$$
ligand
 OpenBabel11021811473D
libRbt.so/2013.1/901 2013/11/27
 13 14  0  0  0  0  0  0  0  0999 V2000
   36.4416   32.1103   26.7066 N   0  0  0  0  0  0  0  0  0  0  0  0
   37.5701   33.2171   26.8151 C   0  0  0  0  0  0  0  0  0  0  0  0
   38.5233   33.1091   27.8087 N   0  0  0  0  0  0  0  0  0  0  0  0
   37.4327   34.1222   25.9401 N   0  0  0  0  0  0  0  0  0  0  0  0
   36.5331   34.2726   24.9489 C   0  0  0  0  0  0  0  0  0  0  0  0
   35.5452   33.3721   24.7790 C   0  0  0  0  0  0  0  0  0  0  0  0
   35.4885   32.1551   25.7844 C   0  0  0  0  0  0  0  0  0  0  0  0
   34.6141   31.3661   25.6221 O   0  0  0  0  0  0  0  0  0  0  0  0
   34.6084   33.7301   23.6103 C   0  0  0  0  0  0  0  0  0  0  0  0
   35.1016   34.8653   23.1027 C   0  0  0  0  0  0  0  0  0  0  0  0
   36.2096   35.3547   23.7405 N   0  0  0  0  0  0  0  0  0  0  0  0
   33.4390   32.9464   23.1522 C   0  0  0  0  0  0  0  0  0  0  0  0
   32.5222   32.3091   22.8521 N   0  0  0  0  0  0  0  0  0  0  0  0
  1  2  1  0  0  0  0
  1  7  1  0  0  0  0
  2  3  1  0  0  0  0
  2  4  2  0  0  0  0
  4  5  1  0  0  0  0
  5  6  2  0  0  0  0
  5 11  1  0  0  0  0
  6  7  1  0  0  0  0
  6  9  1  0  0  0  0
  7  8  2  0  0  0  0
  9 10  2  0  0  0  0
  9 12  1  0  0  0  0
 10 11  1  0  0  0  0
 12 13  3  0  0  0  0
M  END
>  <CHROM.1>
35.70040399,33.26270752,25.02893078,0.45475378,0.62207604,2.43755263

>  <Name>
ligand

>  <RI>
0

>  <Rbt.Current_Directory>
/home/itssahil/PROJECTS/Mol_Feturizer/New_Systems/rnas/3GCA

>  <Rbt.Executable>
rbdock ($Id: //depot/dev/client3/rdock/2013.1/src/exe/rbdock.cxx#4 $)

>  <Rbt.Library>
libRbt.so (2013.1, Build901 2013/11/27)

>  <Rbt.Parameter_File>
/export/apps/rDock/src/rDock_2013.1_src/data/scripts/dock_solv.prm

>  <Rbt.Receptor>
prm/pocket_docking_7.prm

>  <SCORE>
-24.0257

>  <SCORE.INTER>
-24.0257

>  <SCORE.INTER.CONST>
1

>  <SCORE.INTER.POLAR>
0

>  <SCORE.INTER.ROT>
0

>  <SCORE.INTER.SOLV>
11.3339

>  <SCORE.INTER.VDW>
-23.3951

>  <SCORE.INTER.norm>
-1.84813

>  <SCORE.INTRA>
0

>  <SCORE.INTRA.DIHEDRAL>
0

>  <SCORE.INTRA.DIHEDRAL.0>
0

>  <SCORE.INTRA.POLAR>
0

>  <SCORE.INTRA.POLAR.0>
0

>  <SCORE.INTRA.REPUL>
0

>  <SCORE.INTRA.REPUL.0>
0

>  <SCORE.INTRA.SOLV>
0

>  <SCORE.INTRA.SOLV.lig_0>
-33.1994

>  <SCORE.INTRA.VDW>
0

>  <SCORE.INTRA.VDW.0>
0

>  <SCORE.INTRA.norm>
0

>  <SCORE.RESTR>
0

>  <SCORE.RESTR.CAVITY>
0

>  <SCORE.RESTR.norm>
0

>  <SCORE.SYSTEM>
0

>  <SCORE.SYSTEM.CONST>
0

>  <SCORE.SYSTEM.DIHEDRAL>
0

>  <SCORE.SYSTEM.SOLV>
0

>  <SCORE.SYSTEM.norm>
0

>  <SCORE.heavy>
13

>  <SCORE.norm>
-1.84813

>  <RMSD>
4.904

$$$$
ligand
 OpenBabel11021811473D
libRbt.so/2013.1/901 2013/11/27
 13 14  0  0  0  0  0  0  0  0999 V2000
   36.4398   32.1283   26.7237 N   0  0  0  0  0  0  0  0  0  0  0  0
   37.5624   33.2407   26.8367 C   0  0  0  0  0  0  0  0  0  0  0  0
   38.5126   33.1370   27.8337 N   0  0  0  0  0  0  0  0  0  0  0  0
   37.4237   34.1455   25.9616 N   0  0  0  0  0  0  0  0  0  0  0  0
   36.5269   34.2918   24.9673 C   0  0  0  0  0  0  0  0  0  0  0  0
   35.5441   33.3864   24.7934 C   0  0  0  0  0  0  0  0  0  0  0  0
   35.4899   32.1687   25.7981 C   0  0  0  0  0  0  0  0  0  0  0  0
   34.6200   31.3755   25.6323 O   0  0  0  0  0  0  0  0  0  0  0  0
   34.6097   33.7402   23.6215 C   0  0  0  0  0  0  0  0  0  0  0  0
   35.0991   34.8781   23.1161 C   0  0  0  0  0  0  0  0  0  0  0  0
   36.2023   35.3728   23.7582 N   0  0  0  0  0  0  0  0  0  0  0  0
   33.4459   32.9510   23.1589 C   0  0  0  0  0  0  0  0  0  0  0  0
   32.5333   32.3092   22.8552 N   0  0  0  0  0  0  0  0  0  0  0  0
  1  2  1  0  0  0  0
  1  7  1  0  0  0  0
  2  3  1  0  0  0  0
  2  4  2  0  0  0  0
  4  5  1  0  0  0  0
  5  6  2  0  0  0  0
  5 11  1  0  0  0  0
  6  7  1  0  0  0  0
  6  9  1  0  0  0  0
  7  8  2  0  0  0  0
  9 10  2  0  0  0  0
  9 12  1  0  0  0  0
 10 11  1  0  0  0  0
 12 13  3  0  0  0  0
M  END
>  <CHROM.1>
35.69895396,33.27772286,25.04385255,0.45291964,0.62804882,2.43905021

>  <Name>
ligand

>  <RI>
0

>  <Rbt.Current_Directory>
/home/itssahil/PROJECTS/Mol_Feturizer/New_Systems/rnas/3GCA

>  <Rbt.Executable>
rbdock ($Id: //depot/dev/client3/rdock/2013.1/src/exe/rbdock.cxx#4 $)

>  <Rbt.Library>
libRbt.so (2013.1, Build901 2013/11/27)

>  <Rbt.Parameter_File>
/export/apps/rDock/src/rDock_2013.1_src/data/scripts/dock_solv.prm

>  <Rbt.Receptor>
prm/pocket_docking_8.prm

>  <SCORE>
-24.0284

>  <SCORE.INTER>
-24.0284

>  <SCORE.INTER.CONST>
1

>  <SCORE.INTER.POLAR>
0

>  <SCORE.INTER.ROT>
0

>  <SCORE.INTER.SOLV>
11.3609

>  <SCORE.INTER.VDW>
-23.4059

>  <SCORE.INTER.norm>
-1.84834

>  <SCORE.INTRA>
0

>  <SCORE.INTRA.DIHEDRAL>
0

>  <SCORE.INTRA.DIHEDRAL.0>
0

>  <SCORE.INTRA.POLAR>
0

>  <SCORE.INTRA.POLAR.0>
0

>  <SCORE.INTRA.REPUL>
0

>  <SCORE.INTRA.REPUL.0>
0

>  <SCORE.INTRA.SOLV>
0

>  <SCORE.INTRA.SOLV.lig_0>
-33.1994

>  <SCORE.INTRA.VDW>
0

>  <SCORE.INTRA.VDW.0>
0

>  <SCORE.INTRA.norm>
0

>  <SCORE.RESTR>
0

>  <SCORE.RESTR.CAVITY>
0

>  <SCORE.RESTR.norm>
0

>  <SCORE.SYSTEM>
0

>  <SCORE.SYSTEM.CONST>
0

>  <SCORE.SYSTEM.DIHEDRAL>
0

>  <SCORE.SYSTEM.SOLV>
0

>  <SCORE.SYSTEM.norm>
0

>  <SCORE.heavy>
13

>  <SCORE.norm>
-1.84834

>  <RMSD>
4.904

$$$$
ligand
 OpenBabel11021811473D
libRbt.so/2013.1/901 2013/11/27
 13 14  0  0  0  0  0  0  0  0999 V2000
   36.4091   32.1652   26.7289 N   0  0  0  0  0  0  0  0  0  0  0  0
   37.5445   33.2664   26.8205 C   0  0  0  0  0  0  0  0  0  0  0  0
   38.4945   33.1700   27.8185 N   0  0  0  0  0  0  0  0  0  0  0  0
   37.4152   34.1567   25.9293 N   0  0  0  0  0  0  0  0  0  0  0  0
   36.5191   34.2952   24.9332 C   0  0  0  0  0  0  0  0  0  0  0  0
   35.5259   33.3982   24.7767 C   0  0  0  0  0  0  0  0  0  0  0  0
   35.4587   32.1997   25.8035 C   0  0  0  0  0  0  0  0  0  0  0  0
   34.5795   31.4136   25.6529 O   0  0  0  0  0  0  0  0  0  0  0  0
   34.5943   33.7414   23.5994 C   0  0  0  0  0  0  0  0  0  0  0  0
   35.0961   34.8641   23.0730 C   0  0  0  0  0  0  0  0  0  0  0  0
   36.2057   35.3577   23.7049 N   0  0  0  0  0  0  0  0  0  0  0  0
   33.4210   32.9573   23.1523 C   0  0  0  0  0  0  0  0  0  0  0  0
   32.5008   32.3206   22.8611 N   0  0  0  0  0  0  0  0  0  0  0  0
  1  2  1  0  0  0  0
  1  7  1  0  0  0  0
  2  3  1  0  0  0  0
  2  4  2  0  0  0  0
  4  5  1  0  0  0  0
  5  6  2  0  0  0  0
  5 11  1  0  0  0  0
  6  7  1  0  0  0  0
  6  9  1  0  0  0  0
  7  8  2  0  0  0  0
  9 10  2  0  0  0  0
  9 12  1  0  0  0  0
 10 11  1  0  0  0  0
 12 13  3  0  0  0  0
M  END
>  <CHROM.1>
35.67967016,33.29230899,25.02898175,0.46283223,0.61977313,2.41506111

>  <Name>
ligand

>  <RI>
0

>  <Rbt.Current_Directory>
/home/itssahil/PROJECTS/Mol_Feturizer/New_Systems/rnas/3GCA

>  <Rbt.Executable>
rbdock ($Id: //depot/dev/client3/rdock/2013.1/src/exe/rbdock.cxx#4 $)

>  <Rbt.Library>
libRbt.so (2013.1, Build901 2013/11/27)

>  <Rbt.Parameter_File>
/export/apps/rDock/src/rDock_2013.1_src/data/scripts/dock_solv.prm

>  <Rbt.Receptor>
prm/pocket_docking_8.prm

>  <SCORE>
-24.0531

>  <SCORE.INTER>
-24.0531

>  <SCORE.INTER.CONST>
1

>  <SCORE.INTER.POLAR>
0

>  <SCORE.INTER.ROT>
0

>  <SCORE.INTER.SOLV>
11.4077

>  <SCORE.INTER.VDW>
-23.438

>  <SCORE.INTER.norm>
-1.85024

>  <SCORE.INTRA>
0

>  <SCORE.INTRA.DIHEDRAL>
0

>  <SCORE.INTRA.DIHEDRAL.0>
0

>  <SCORE.INTRA.POLAR>
0

>  <SCORE.INTRA.POLAR.0>
0

>  <SCORE.INTRA.REPUL>
0

>  <SCORE.INTRA.REPUL.0>
0

>  <SCORE.INTRA.SOLV>
0

>  <SCORE.INTRA.SOLV.lig_0>
-33.1994

>  <SCORE.INTRA.VDW>
0

>  <SCORE.INTRA.VDW.0>
0

>  <SCORE.INTRA.norm>
0

>  <SCORE.RESTR>
0

>  <SCORE.RESTR.CAVITY>
0

>  <SCORE.RESTR.norm>
0

>  <SCORE.SYSTEM>
0

>  <SCORE.SYSTEM.CONST>
0

>  <SCORE.SYSTEM.DIHEDRAL>
0

>  <SCORE.SYSTEM.SOLV>
0

>  <SCORE.SYSTEM.norm>
0

>  <SCORE.heavy>
13

>  <SCORE.norm>
-1.85024

>  <RMSD>
4.904

$$$$
ligand
 OpenBabel11021811473D
libRbt.so/2013.1/901 2013/11/27
 13 14  0  0  0  0  0  0  0  0999 V2000
   36.4321   32.0869   26.7910 N   0  0  0  0  0  0  0  0  0  0  0  0
   37.5580   33.1941   26.9209 C   0  0  0  0  0  0  0  0  0  0  0  0
   38.4941   33.0848   27.9304 N   0  0  0  0  0  0  0  0  0  0  0  0
   37.4350   34.1010   26.0455 N   0  0  0  0  0  0  0  0  0  0  0  0
   36.5523   34.2527   25.0394 C   0  0  0  0  0  0  0  0  0  0  0  0
   35.5680   33.3519   24.8509 C   0  0  0  0  0  0  0  0  0  0  0  0
   35.4950   32.1330   25.8527 C   0  0  0  0  0  0  0  0  0  0  0  0
   34.6239   31.3438   25.6740 O   0  0  0  0  0  0  0  0  0  0  0  0
   34.6510   33.7117   23.6671 C   0  0  0  0  0  0  0  0  0  0  0  0
   35.1521   34.8482   23.1702 C   0  0  0  0  0  0  0  0  0  0  0  0
   36.2487   35.3370   23.8278 N   0  0  0  0  0  0  0  0  0  0  0  0
   33.4901   32.9283   23.1876 C   0  0  0  0  0  0  0  0  0  0  0  0
   32.5789   32.2910   22.8706 N   0  0  0  0  0  0  0  0  0  0  0  0
  1  2  1  0  0  0  0
  1  7  1  0  0  0  0
  2  3  1  0  0  0  0
  2  4  2  0  0  0  0
  4  5  1  0  0  0  0
  5  6  2  0  0  0  0
  5 11  1  0  0  0  0
  6  7  1  0  0  0  0
  6  9  1  0  0  0  0
  7  8  2  0  0  0  0
  9 10  2  0  0  0  0
  9 12  1  0  0  0  0
 10 11  1  0  0  0  0
 12 13  3  0  0  0  0
M  END
>  <CHROM.1>
35.71896812,33.24219637,25.10319691,0.46787081,0.63544855,2.43182064

>  <Name>
ligand

>  <RI>
0

>  <Rbt.Current_Directory>
/home/itssahil/PROJECTS/Mol_Feturizer/New_Systems/rnas/3GCA

>  <Rbt.Executable>
rbdock ($Id: //depot/dev/client3/rdock/2013.1/src/exe/rbdock.cxx#4 $)

>  <Rbt.Library>
libRbt.so (2013.1, Build901 2013/11/27)

>  <Rbt.Parameter_File>
/export/apps/rDock/src/rDock_2013.1_src/data/scripts/dock_solv.prm

>  <Rbt.Receptor>
prm/pocket_docking_8.prm

>  <SCORE>
-24.0707

>  <SCORE.INTER>
-24.0707

>  <SCORE.INTER.CONST>
1

>  <SCORE.INTER.POLAR>
0

>  <SCORE.INTER.ROT>
0

>  <SCORE.INTER.SOLV>
11.5537

>  <SCORE.INTER.VDW>
-23.4984

>  <SCORE.INTER.norm>
-1.85159

>  <SCORE.INTRA>
0

>  <SCORE.INTRA.DIHEDRAL>
0

>  <SCORE.INTRA.DIHEDRAL.0>
0

>  <SCORE.INTRA.POLAR>
0

>  <SCORE.INTRA.POLAR.0>
0

>  <SCORE.INTRA.REPUL>
0

>  <SCORE.INTRA.REPUL.0>
0

>  <SCORE.INTRA.SOLV>
0

>  <SCORE.INTRA.SOLV.lig_0>
-33.1994

>  <SCORE.INTRA.VDW>
0

>  <SCORE.INTRA.VDW.0>
0

>  <SCORE.INTRA.norm>
0

>  <SCORE.RESTR>
0

>  <SCORE.RESTR.CAVITY>
0

>  <SCORE.RESTR.norm>
0

>  <SCORE.SYSTEM>
0

>  <SCORE.SYSTEM.CONST>
0

>  <SCORE.SYSTEM.DIHEDRAL>
0

>  <SCORE.SYSTEM.SOLV>
0

>  <SCORE.SYSTEM.norm>
0

>  <SCORE.heavy>
13

>  <SCORE.norm>
-1.85159

>  <RMSD>
4.904

$$$$
ligand
 OpenBabel11021811473D
libRbt.so/2013.1/901 2013/11/27
 13 14  0  0  0  0  0  0  0  0999 V2000
   36.4331   32.0521   26.7693 N   0  0  0  0  0  0  0  0  0  0  0  0
   37.5535   33.1638   26.9074 C   0  0  0  0  0  0  0  0  0  0  0  0
   38.4923   33.0497   27.9140 N   0  0  0  0  0  0  0  0  0  0  0  0
   37.4241   34.0782   26.0408 N   0  0  0  0  0  0  0  0  0  0  0  0
   36.5386   34.2349   25.0380 C   0  0  0  0  0  0  0  0  0  0  0  0
   35.5586   33.3310   24.8429 C   0  0  0  0  0  0  0  0  0  0  0  0
   35.4937   32.1022   25.8334 C   0  0  0  0  0  0  0  0  0  0  0  0
   34.6263   31.3103   25.6489 O   0  0  0  0  0  0  0  0  0  0  0  0
   34.6374   33.6972   23.6644 C   0  0  0  0  0  0  0  0  0  0  0  0
   35.1316   34.8408   23.1772 C   0  0  0  0  0  0  0  0  0  0  0  0
   36.2271   35.3290   23.8373 N   0  0  0  0  0  0  0  0  0  0  0  0
   33.4795   32.9124   23.1798 C   0  0  0  0  0  0  0  0  0  0  0  0
   32.5709   32.2735   22.8586 N   0  0  0  0  0  0  0  0  0  0  0  0
  1  2  1  0  0  0  0
  1  7  1  0  0  0  0
  2  3  1  0  0  0  0
  2  4  2  0  0  0  0
  4  5  1  0  0  0  0
  5  6  2  0  0  0  0
  5 11  1  0  0  0  0
  6  7  1  0  0  0  0
  6  9  1  0  0  0  0
  7  8  2  0  0  0  0
  9 10  2  0  0  0  0
  9 12  1  0  0  0  0
 10 11  1  0  0  0  0
 12 13  3  0  0  0  0
M  END
>  <CHROM.1>
35.71059732,33.21960119,25.09389517,0.46143475,0.63721194,2.44507418

>  <Name>
ligand

>  <RI>
0

>  <Rbt.Current_Directory>
/home/itssahil/PROJECTS/Mol_Feturizer/New_Systems/rnas/3GCA

>  <Rbt.Executable>
rbdock ($Id: //depot/dev/client3/rdock/2013.1/src/exe/rbdock.cxx#4 $)

>  <Rbt.Library>
libRbt.so (2013.1, Build901 2013/11/27)

>  <Rbt.Parameter_File>
/export/apps/rDock/src/rDock_2013.1_src/data/scripts/dock_solv.prm

>  <Rbt.Receptor>
prm/pocket_docking_8.prm

>  <SCORE>
-24.0319

>  <SCORE.INTER>
-24.0319

>  <SCORE.INTER.CONST>
1

>  <SCORE.INTER.POLAR>
0

>  <SCORE.INTER.ROT>
0

>  <SCORE.INTER.SOLV>
11.5872

>  <SCORE.INTER.VDW>
-23.4836

>  <SCORE.INTER.norm>
-1.8486

>  <SCORE.INTRA>
0

>  <SCORE.INTRA.DIHEDRAL>
0

>  <SCORE.INTRA.DIHEDRAL.0>
0

>  <SCORE.INTRA.POLAR>
0

>  <SCORE.INTRA.POLAR.0>
0

>  <SCORE.INTRA.REPUL>
0

>  <SCORE.INTRA.REPUL.0>
0

>  <SCORE.INTRA.SOLV>
0

>  <SCORE.INTRA.SOLV.lig_0>
-33.1994

>  <SCORE.INTRA.VDW>
0

>  <SCORE.INTRA.VDW.0>
0

>  <SCORE.INTRA.norm>
0

>  <SCORE.RESTR>
0

>  <SCORE.RESTR.CAVITY>
0

>  <SCORE.RESTR.norm>
0

>  <SCORE.SYSTEM>
0

>  <SCORE.SYSTEM.CONST>
0

>  <SCORE.SYSTEM.DIHEDRAL>
0

>  <SCORE.SYSTEM.SOLV>
0

>  <SCORE.SYSTEM.norm>
0

>  <SCORE.heavy>
13

>  <SCORE.norm>
-1.8486

>  <RMSD>
4.904

$$$$
ligand
 OpenBabel11021811473D
libRbt.so/2013.1/901 2013/11/27
 13 14  0  0  0  0  0  0  0  0999 V2000
   36.4196   32.1577   26.7199 N   0  0  0  0  0  0  0  0  0  0  0  0
   37.5476   33.2657   26.8209 C   0  0  0  0  0  0  0  0  0  0  0  0
   38.4979   33.1676   27.8184 N   0  0  0  0  0  0  0  0  0  0  0  0
   37.4127   34.1623   25.9368 N   0  0  0  0  0  0  0  0  0  0  0  0
   36.5161   34.3028   24.9416 C   0  0  0  0  0  0  0  0  0  0  0  0
   35.5289   33.4005   24.7774 C   0  0  0  0  0  0  0  0  0  0  0  0
   35.4694   32.1933   25.7944 C   0  0  0  0  0  0  0  0  0  0  0  0
   34.5955   31.4027   25.6372 O   0  0  0  0  0  0  0  0  0  0  0  0
   34.5955   33.7470   23.6025 C   0  0  0  0  0  0  0  0  0  0  0  0
   35.0899   34.8773   23.0854 C   0  0  0  0  0  0  0  0  0  0  0  0
   36.1959   35.3731   23.7218 N   0  0  0  0  0  0  0  0  0  0  0  0
   33.4276   32.9587   23.1486 C   0  0  0  0  0  0  0  0  0  0  0  0
   32.5117   32.3182   22.8519 N   0  0  0  0  0  0  0  0  0  0  0  0
  1  2  1  0  0  0  0
  1  7  1  0  0  0  0
  2  3  1  0  0  0  0
  2  4  2  0  0  0  0
  4  5  1  0  0  0  0
  5  6  2  0  0  0  0
  5 11  1  0  0  0  0
  6  7  1  0  0  0  0
  6  9  1  0  0  0  0
  7  8  2  0  0  0  0
  9 10  2  0  0  0  0
  9 12  1  0  0  0  0
 10 11  1  0  0  0  0
 12 13  3  0  0  0  0
M  END
>  <CHROM.1>
35.68329009,33.29362034,25.02887767,0.45697005,0.62446919,2.42655429

>  <Name>
ligand

>  <RI>
0

>  <Rbt.Current_Directory>
/home/itssahil/PROJECTS/Mol_Feturizer/New_Systems/rnas/3GCA

>  <Rbt.Executable>
rbdock ($Id: //depot/dev/client3/rdock/2013.1/src/exe/rbdock.cxx#4 $)

>  <Rbt.Library>
libRbt.so (2013.1, Build901 2013/11/27)

>  <Rbt.Parameter_File>
/export/apps/rDock/src/rDock_2013.1_src/data/scripts/dock_solv.prm

>  <Rbt.Receptor>
prm/pocket_docking_8.prm

>  <SCORE>
-24.0214

>  <SCORE.INTER>
-24.0214

>  <SCORE.INTER.CONST>
1

>  <SCORE.INTER.POLAR>
0

>  <SCORE.INTER.ROT>
0

>  <SCORE.INTER.SOLV>
11.3979

>  <SCORE.INTER.VDW>
-23.4136

>  <SCORE.INTER.norm>
-1.8478

>  <SCORE.INTRA>
0

>  <SCORE.INTRA.DIHEDRAL>
0

>  <SCORE.INTRA.DIHEDRAL.0>
0

>  <SCORE.INTRA.POLAR>
0

>  <SCORE.INTRA.POLAR.0>
0

>  <SCORE.INTRA.REPUL>
0

>  <SCORE.INTRA.REPUL.0>
0

>  <SCORE.INTRA.SOLV>
0

>  <SCORE.INTRA.SOLV.lig_0>
-33.1994

>  <SCORE.INTRA.VDW>
0

>  <SCORE.INTRA.VDW.0>
0

>  <SCORE.INTRA.norm>
0

>  <SCORE.RESTR>
0

>  <SCORE.RESTR.CAVITY>
0

>  <SCORE.RESTR.norm>
0

>  <SCORE.SYSTEM>
0

>  <SCORE.SYSTEM.CONST>
0

>  <SCORE.SYSTEM.DIHEDRAL>
0

>  <SCORE.SYSTEM.SOLV>
0

>  <SCORE.SYSTEM.norm>
0

>  <SCORE.heavy>
13

>  <SCORE.norm>
-1.8478

>  <RMSD>
4.904

$$$$
ligand
 OpenBabel11021811473D
libRbt.so/2013.1/901 2013/11/27
 13 14  0  0  0  0  0  0  0  0999 V2000
   36.4118   32.1633   26.7313 N   0  0  0  0  0  0  0  0  0  0  0  0
   37.5468   33.2651   26.8226 C   0  0  0  0  0  0  0  0  0  0  0  0
   38.4973   33.1690   27.8201 N   0  0  0  0  0  0  0  0  0  0  0  0
   37.4167   34.1554   25.9314 N   0  0  0  0  0  0  0  0  0  0  0  0
   36.5201   34.2936   24.9358 C   0  0  0  0  0  0  0  0  0  0  0  0
   35.5272   33.3961   24.7797 C   0  0  0  0  0  0  0  0  0  0  0  0
   35.4610   32.1975   25.8063 C   0  0  0  0  0  0  0  0  0  0  0  0
   34.5821   31.4111   25.6561 O   0  0  0  0  0  0  0  0  0  0  0  0
   34.5950   33.7390   23.6028 C   0  0  0  0  0  0  0  0  0  0  0  0
   35.0961   34.8620   23.0762 C   0  0  0  0  0  0  0  0  0  0  0  0
   36.2056   35.3560   23.7078 N   0  0  0  0  0  0  0  0  0  0  0  0
   33.4218   32.9544   23.1561 C   0  0  0  0  0  0  0  0  0  0  0  0
   32.5018   32.3173   22.8652 N   0  0  0  0  0  0  0  0  0  0  0  0
  1  2  1  0  0  0  0
  1  7  1  0  0  0  0
  2  3  1  0  0  0  0
  2  4  2  0  0  0  0
  4  5  1  0  0  0  0
  5  6  2  0  0  0  0
  5 11  1  0  0  0  0
  6  7  1  0  0  0  0
  6  9  1  0  0  0  0
  7  8  2  0  0  0  0
  9 10  2  0  0  0  0
  9 12  1  0  0  0  0
 10 11  1  0  0  0  0
 12 13  3  0  0  0  0
M  END
>  <CHROM.1>
35.68115254,33.29027638,25.03183221,0.46207005,0.61975321,2.41559445

>  <Name>
ligand

>  <RI>
0

>  <Rbt.Current_Directory>
/home/itssahil/PROJECTS/Mol_Feturizer/New_Systems/rnas/3GCA

>  <Rbt.Executable>
rbdock ($Id: //depot/dev/client3/rdock/2013.1/src/exe/rbdock.cxx#4 $)

>  <Rbt.Library>
libRbt.so (2013.1, Build901 2013/11/27)

>  <Rbt.Parameter_File>
/export/apps/rDock/src/rDock_2013.1_src/data/scripts/dock_solv.prm

>  <Rbt.Receptor>
prm/blind_docking_100.prm

>  <SCORE>
-24.0536

>  <SCORE.INTER>
-24.0536

>  <SCORE.INTER.CONST>
1

>  <SCORE.INTER.POLAR>
0

>  <SCORE.INTER.ROT>
0

>  <SCORE.INTER.SOLV>
11.3985

>  <SCORE.INTER.VDW>
-23.4352

>  <SCORE.INTER.norm>
-1.85028

>  <SCORE.INTRA>
0

>  <SCORE.INTRA.DIHEDRAL>
0

>  <SCORE.INTRA.DIHEDRAL.0>
0

>  <SCORE.INTRA.POLAR>
0

>  <SCORE.INTRA.POLAR.0>
0

>  <SCORE.INTRA.REPUL>
0

>  <SCORE.INTRA.REPUL.0>
0

>  <SCORE.INTRA.SOLV>
0

>  <SCORE.INTRA.SOLV.lig_0>
-33.1994

>  <SCORE.INTRA.VDW>
0

>  <SCORE.INTRA.VDW.0>
0

>  <SCORE.INTRA.norm>
0

>  <SCORE.RESTR>
0

>  <SCORE.RESTR.CAVITY>
0

>  <SCORE.RESTR.norm>
0

>  <SCORE.SYSTEM>
0

>  <SCORE.SYSTEM.CONST>
0

>  <SCORE.SYSTEM.DIHEDRAL>
0

>  <SCORE.SYSTEM.SOLV>
0

>  <SCORE.SYSTEM.norm>
0

>  <SCORE.heavy>
13

>  <SCORE.norm>
-1.85028

>  <RMSD>
4.905

$$$$
ligand
 OpenBabel11021811473D
libRbt.so/2013.1/901 2013/11/27
 13 14  0  0  0  0  0  0  0  0999 V2000
   36.4082   32.1666   26.7316 N   0  0  0  0  0  0  0  0  0  0  0  0
   37.5469   33.2647   26.8192 C   0  0  0  0  0  0  0  0  0  0  0  0
   38.4974   33.1684   27.8166 N   0  0  0  0  0  0  0  0  0  0  0  0
   37.4196   34.1528   25.9254 N   0  0  0  0  0  0  0  0  0  0  0  0
   36.5231   34.2910   24.9297 C   0  0  0  0  0  0  0  0  0  0  0  0
   35.5270   33.3965   24.7766 C   0  0  0  0  0  0  0  0  0  0  0  0
   35.4571   32.2012   25.8069 C   0  0  0  0  0  0  0  0  0  0  0  0
   34.5755   31.4174   25.6593 O   0  0  0  0  0  0  0  0  0  0  0  0
   34.5956   33.7391   23.5990 C   0  0  0  0  0  0  0  0  0  0  0  0
   35.1003   34.8588   23.0689 C   0  0  0  0  0  0  0  0  0  0  0  0
   36.2119   35.3508   23.6986 N   0  0  0  0  0  0  0  0  0  0  0  0
   33.4196   32.9572   23.1551 C   0  0  0  0  0  0  0  0  0  0  0  0
   32.4972   32.3224   22.8665 N   0  0  0  0  0  0  0  0  0  0  0  0
  1  2  1  0  0  0  0
  1  7  1  0  0  0  0
  2  3  1  0  0  0  0
  2  4  2  0  0  0  0
  4  5  1  0  0  0  0
  5  6  2  0  0  0  0
  5 11  1  0  0  0  0
  6  7  1  0  0  0  0
  6  9  1  0  0  0  0
  7  8  2  0  0  0  0
  9 10  2  0  0  0  0
  9 12  1  0  0  0  0
 10 11  1  0  0  0  0
 12 13  3  0  0  0  0
M  END
>  <CHROM.1>
35.68073359,33.29092082,25.02903111,0.46492770,0.61719139,2.41092653

>  <Name>
ligand

>  <RI>
0

>  <Rbt.Current_Directory>
/home/itssahil/PROJECTS/Mol_Feturizer/New_Systems/rnas/3GCA

>  <Rbt.Executable>
rbdock ($Id: //depot/dev/client3/rdock/2013.1/src/exe/rbdock.cxx#4 $)

>  <Rbt.Library>
libRbt.so (2013.1, Build901 2013/11/27)

>  <Rbt.Parameter_File>
/export/apps/rDock/src/rDock_2013.1_src/data/scripts/dock_solv.prm

>  <Rbt.Receptor>
prm/blind_docking_60.prm

>  <SCORE>
-24.0551

>  <SCORE.INTER>
-24.0551

>  <SCORE.INTER.CONST>
1

>  <SCORE.INTER.POLAR>
0

>  <SCORE.INTER.ROT>
0

>  <SCORE.INTER.SOLV>
11.3973

>  <SCORE.INTER.VDW>
-23.4358

>  <SCORE.INTER.norm>
-1.85039

>  <SCORE.INTRA>
0

>  <SCORE.INTRA.DIHEDRAL>
0

>  <SCORE.INTRA.DIHEDRAL.0>
0

>  <SCORE.INTRA.POLAR>
0

>  <SCORE.INTRA.POLAR.0>
0

>  <SCORE.INTRA.REPUL>
0

>  <SCORE.INTRA.REPUL.0>
0

>  <SCORE.INTRA.SOLV>
0

>  <SCORE.INTRA.SOLV.lig_0>
-33.1994

>  <SCORE.INTRA.VDW>
0

>  <SCORE.INTRA.VDW.0>
0

>  <SCORE.INTRA.norm>
0

>  <SCORE.RESTR>
0

>  <SCORE.RESTR.CAVITY>
0

>  <SCORE.RESTR.norm>
0

>  <SCORE.SYSTEM>
0

>  <SCORE.SYSTEM.CONST>
0

>  <SCORE.SYSTEM.DIHEDRAL>
0

>  <SCORE.SYSTEM.SOLV>
0

>  <SCORE.SYSTEM.norm>
0

>  <SCORE.heavy>
13

>  <SCORE.norm>
-1.85039

>  <RMSD>
4.905

$$$$
ligand
 OpenBabel11021811473D
libRbt.so/2013.1/901 2013/11/27
 13 14  0  0  0  0  0  0  0  0999 V2000
   36.4371   32.1360   26.7196 N   0  0  0  0  0  0  0  0  0  0  0  0
   37.5554   33.2529   26.8314 C   0  0  0  0  0  0  0  0  0  0  0  0
   38.5066   33.1534   27.8278 N   0  0  0  0  0  0  0  0  0  0  0  0
   37.4124   34.1568   25.9560 N   0  0  0  0  0  0  0  0  0  0  0  0
   36.5144   34.2991   24.9623 C   0  0  0  0  0  0  0  0  0  0  0  0
   35.5351   33.3898   24.7895 C   0  0  0  0  0  0  0  0  0  0  0  0
   35.4864   32.1723   25.7947 C   0  0  0  0  0  0  0  0  0  0  0  0
   34.6195   31.3756   25.6298 O   0  0  0  0  0  0  0  0  0  0  0  0
   34.5985   33.7395   23.6181 C   0  0  0  0  0  0  0  0  0  0  0  0
   35.0830   34.8791   23.1119 C   0  0  0  0  0  0  0  0  0  0  0  0
   36.1847   35.3784   23.7530 N   0  0  0  0  0  0  0  0  0  0  0  0
   33.4375   32.9454   23.1566 C   0  0  0  0  0  0  0  0  0  0  0  0
   32.5273   32.2999   22.8538 N   0  0  0  0  0  0  0  0  0  0  0  0
  1  2  1  0  0  0  0
  1  7  1  0  0  0  0
  2  3  1  0  0  0  0
  2  4  2  0  0  0  0
  4  5  1  0  0  0  0
  5  6  2  0  0  0  0
  5 11  1  0  0  0  0
  6  7  1  0  0  0  0
  6  9  1  0  0  0  0
  7  8  2  0  0  0  0
  9 10  2  0  0  0  0
  9 12  1  0  0  0  0
 10 11  1  0  0  0  0
 12 13  3  0  0  0  0
M  END
>  <CHROM.1>
35.69052380,33.28184600,25.03983347,0.44862456,0.63006913,2.44118788

>  <Name>
ligand

>  <RI>
0

>  <Rbt.Current_Directory>
/home/itssahil/PROJECTS/Mol_Feturizer/New_Systems/rnas/3GCA

>  <Rbt.Executable>
rbdock ($Id: //depot/dev/client3/rdock/2013.1/src/exe/rbdock.cxx#4 $)

>  <Rbt.Library>
libRbt.so (2013.1, Build901 2013/11/27)

>  <Rbt.Parameter_File>
/export/apps/rDock/src/rDock_2013.1_src/data/scripts/dock_solv.prm

>  <Rbt.Receptor>
prm/pocket_docking_3.prm

>  <SCORE>
-24.0256

>  <SCORE.INTER>
-24.0256

>  <SCORE.INTER.CONST>
1

>  <SCORE.INTER.POLAR>
0

>  <SCORE.INTER.ROT>
0

>  <SCORE.INTER.SOLV>
11.3838

>  <SCORE.INTER.VDW>
-23.4116

>  <SCORE.INTER.norm>
-1.84812

>  <SCORE.INTRA>
0

>  <SCORE.INTRA.DIHEDRAL>
0

>  <SCORE.INTRA.DIHEDRAL.0>
0

>  <SCORE.INTRA.POLAR>
0

>  <SCORE.INTRA.POLAR.0>
0

>  <SCORE.INTRA.REPUL>
0

>  <SCORE.INTRA.REPUL.0>
0

>  <SCORE.INTRA.SOLV>
0

>  <SCORE.INTRA.SOLV.lig_0>
-33.1994

>  <SCORE.INTRA.VDW>
0

>  <SCORE.INTRA.VDW.0>
0

>  <SCORE.INTRA.norm>
0

>  <SCORE.RESTR>
0

>  <SCORE.RESTR.CAVITY>
0

>  <SCORE.RESTR.norm>
0

>  <SCORE.SYSTEM>
0

>  <SCORE.SYSTEM.CONST>
0

>  <SCORE.SYSTEM.DIHEDRAL>
0

>  <SCORE.SYSTEM.SOLV>
0

>  <SCORE.SYSTEM.norm>
0

>  <SCORE.heavy>
13

>  <SCORE.norm>
-1.84812

>  <RMSD>
4.905

$$$$
ligand
 OpenBabel11021811473D
libRbt.so/2013.1/901 2013/11/27
 13 14  0  0  0  0  0  0  0  0999 V2000
   36.4165   32.1597   26.7275 N   0  0  0  0  0  0  0  0  0  0  0  0
   37.5471   33.2656   26.8236 C   0  0  0  0  0  0  0  0  0  0  0  0
   38.4981   33.1688   27.8206 N   0  0  0  0  0  0  0  0  0  0  0  0
   37.4133   34.1594   25.9365 N   0  0  0  0  0  0  0  0  0  0  0  0
   36.5160   34.2984   24.9416 C   0  0  0  0  0  0  0  0  0  0  0  0
   35.5266   33.3977   24.7816 C   0  0  0  0  0  0  0  0  0  0  0  0
   35.4654   32.1943   25.8029 C   0  0  0  0  0  0  0  0  0  0  0  0
   34.5896   31.4050   25.6492 O   0  0  0  0  0  0  0  0  0  0  0  0
   34.5929   33.7422   23.6064 C   0  0  0  0  0  0  0  0  0  0  0  0
   35.0894   34.8696   23.0848 C   0  0  0  0  0  0  0  0  0  0  0  0
   36.1972   35.3651   23.7184 N   0  0  0  0  0  0  0  0  0  0  0  0
   33.4228   32.9550   23.1563 C   0  0  0  0  0  0  0  0  0  0  0  0
   32.5052   32.3155   22.8628 N   0  0  0  0  0  0  0  0  0  0  0  0
  1  2  1  0  0  0  0
  1  7  1  0  0  0  0
  2  3  1  0  0  0  0
  2  4  2  0  0  0  0
  4  5  1  0  0  0  0
  5  6  2  0  0  0  0
  5 11  1  0  0  0  0
  6  7  1  0  0  0  0
  6  9  1  0  0  0  0
  7  8  2  0  0  0  0
  9 10  2  0  0  0  0
  9 12  1  0  0  0  0
 10 11  1  0  0  0  0
 12 13  3  0  0  0  0
M  END
>  <CHROM.1>
35.68107578,33.29139509,25.03325756,0.45828580,0.62226568,2.42228096

>  <Name>
ligand

>  <RI>
0

>  <Rbt.Current_Directory>
/home/itssahil/PROJECTS/Mol_Feturizer/New_Systems/rnas/3GCA

>  <Rbt.Executable>
rbdock ($Id: //depot/dev/client3/rdock/2013.1/src/exe/rbdock.cxx#4 $)

>  <Rbt.Library>
libRbt.so (2013.1, Build901 2013/11/27)

>  <Rbt.Parameter_File>
/export/apps/rDock/src/rDock_2013.1_src/data/scripts/dock_solv.prm

>  <Rbt.Receptor>
prm/pocket_docking_3.prm

>  <SCORE>
-24.0237

>  <SCORE.INTER>
-24.0237

>  <SCORE.INTER.CONST>
1

>  <SCORE.INTER.POLAR>
0

>  <SCORE.INTER.ROT>
0

>  <SCORE.INTER.SOLV>
11.3981

>  <SCORE.INTER.VDW>
-23.4152

>  <SCORE.INTER.norm>
-1.84798

>  <SCORE.INTRA>
0

>  <SCORE.INTRA.DIHEDRAL>
0

>  <SCORE.INTRA.DIHEDRAL.0>
0

>  <SCORE.INTRA.POLAR>
0

>  <SCORE.INTRA.POLAR.0>
0

>  <SCORE.INTRA.REPUL>
0

>  <SCORE.INTRA.REPUL.0>
0

>  <SCORE.INTRA.SOLV>
0

>  <SCORE.INTRA.SOLV.lig_0>
-33.1994

>  <SCORE.INTRA.VDW>
0

>  <SCORE.INTRA.VDW.0>
0

>  <SCORE.INTRA.norm>
0

>  <SCORE.RESTR>
0

>  <SCORE.RESTR.CAVITY>
0

>  <SCORE.RESTR.norm>
0

>  <SCORE.SYSTEM>
0

>  <SCORE.SYSTEM.CONST>
0

>  <SCORE.SYSTEM.DIHEDRAL>
0

>  <SCORE.SYSTEM.SOLV>
0

>  <SCORE.SYSTEM.norm>
0

>  <SCORE.heavy>
13

>  <SCORE.norm>
-1.84798

>  <RMSD>
4.905

$$$$
ligand
 OpenBabel11021811473D
libRbt.so/2013.1/901 2013/11/27
 13 14  0  0  0  0  0  0  0  0999 V2000
   36.4360   32.1158   26.7142 N   0  0  0  0  0  0  0  0  0  0  0  0
   37.5693   33.2185   26.8146 C   0  0  0  0  0  0  0  0  0  0  0  0
   38.5238   33.1120   27.8072 N   0  0  0  0  0  0  0  0  0  0  0  0
   37.4341   34.1194   25.9350 N   0  0  0  0  0  0  0  0  0  0  0  0
   36.5334   34.2681   24.9446 C   0  0  0  0  0  0  0  0  0  0  0  0
   35.5415   33.3707   24.7813 C   0  0  0  0  0  0  0  0  0  0  0  0
   35.4816   32.1595   25.7934 C   0  0  0  0  0  0  0  0  0  0  0  0
   34.6036   31.3733   25.6369 O   0  0  0  0  0  0  0  0  0  0  0  0
   34.6041   33.7262   23.6123 C   0  0  0  0  0  0  0  0  0  0  0  0
   35.1011   34.8566   23.0976 C   0  0  0  0  0  0  0  0  0  0  0  0
   36.2122   35.3449   23.7309 N   0  0  0  0  0  0  0  0  0  0  0  0
   33.4307   32.9449   23.1605 C   0  0  0  0  0  0  0  0  0  0  0  0
   32.5107   32.3097   22.8655 N   0  0  0  0  0  0  0  0  0  0  0  0
  1  2  1  0  0  0  0
  1  7  1  0  0  0  0
  2  3  1  0  0  0  0
  2  4  2  0  0  0  0
  4  5  1  0  0  0  0
  5  6  2  0  0  0  0
  5 11  1  0  0  0  0
  6  7  1  0  0  0  0
  6  9  1  0  0  0  0
  7  8  2  0  0  0  0
  9 10  2  0  0  0  0
  9 12  1  0  0  0  0
 10 11  1  0  0  0  0
 12 13  3  0  0  0  0
M  END
>  <CHROM.1>
35.69665394,33.26209137,25.03153594,0.45720563,0.61807376,2.43067575

>  <Name>
ligand

>  <RI>
0

>  <Rbt.Current_Directory>
/home/itssahil/PROJECTS/Mol_Feturizer/New_Systems/rnas/3GCA

>  <Rbt.Executable>
rbdock ($Id: //depot/dev/client3/rdock/2013.1/src/exe/rbdock.cxx#4 $)

>  <Rbt.Library>
libRbt.so (2013.1, Build901 2013/11/27)

>  <Rbt.Parameter_File>
/export/apps/rDock/src/rDock_2013.1_src/data/scripts/dock_solv.prm

>  <Rbt.Receptor>
prm/pocket_docking_5.prm

>  <SCORE>
-24.0323

>  <SCORE.INTER>
-24.0323

>  <SCORE.INTER.CONST>
1

>  <SCORE.INTER.POLAR>
0

>  <SCORE.INTER.ROT>
0

>  <SCORE.INTER.SOLV>
11.33

>  <SCORE.INTER.VDW>
-23.3982

>  <SCORE.INTER.norm>
-1.84864

>  <SCORE.INTRA>
0

>  <SCORE.INTRA.DIHEDRAL>
0

>  <SCORE.INTRA.DIHEDRAL.0>
0

>  <SCORE.INTRA.POLAR>
0

>  <SCORE.INTRA.POLAR.0>
0

>  <SCORE.INTRA.REPUL>
0

>  <SCORE.INTRA.REPUL.0>
0

>  <SCORE.INTRA.SOLV>
0

>  <SCORE.INTRA.SOLV.lig_0>
-33.1994

>  <SCORE.INTRA.VDW>
0

>  <SCORE.INTRA.VDW.0>
0

>  <SCORE.INTRA.norm>
0

>  <SCORE.RESTR>
0

>  <SCORE.RESTR.CAVITY>
0

>  <SCORE.RESTR.norm>
0

>  <SCORE.SYSTEM>
0

>  <SCORE.SYSTEM.CONST>
0

>  <SCORE.SYSTEM.DIHEDRAL>
0

>  <SCORE.SYSTEM.SOLV>
0

>  <SCORE.SYSTEM.norm>
0

>  <SCORE.heavy>
13

>  <SCORE.norm>
-1.84864

>  <RMSD>
4.905

$$$$
ligand
 OpenBabel11021811473D
libRbt.so/2013.1/901 2013/11/27
 13 14  0  0  0  0  0  0  0  0999 V2000
   36.4384   32.1331   26.7219 N   0  0  0  0  0  0  0  0  0  0  0  0
   37.5591   33.2476   26.8332 C   0  0  0  0  0  0  0  0  0  0  0  0
   38.5095   33.1470   27.8302 N   0  0  0  0  0  0  0  0  0  0  0  0
   37.4186   34.1510   25.9568 N   0  0  0  0  0  0  0  0  0  0  0  0
   36.5215   34.2943   24.9624 C   0  0  0  0  0  0  0  0  0  0  0  0
   35.5403   33.3870   24.7899 C   0  0  0  0  0  0  0  0  0  0  0  0
   35.4883   32.1706   25.7963 C   0  0  0  0  0  0  0  0  0  0  0  0
   34.6197   31.3756   25.6317 O   0  0  0  0  0  0  0  0  0  0  0  0
   34.6051   33.7376   23.6177 C   0  0  0  0  0  0  0  0  0  0  0  0
   35.0924   34.8756   23.1107 C   0  0  0  0  0  0  0  0  0  0  0  0
   36.1949   35.3731   23.7519 N   0  0  0  0  0  0  0  0  0  0  0  0
   33.4426   32.9456   23.1563 C   0  0  0  0  0  0  0  0  0  0  0  0
   32.5311   32.3018   22.8536 N   0  0  0  0  0  0  0  0  0  0  0  0
  1  2  1  0  0  0  0
  1  7  1  0  0  0  0
  2  3  1  0  0  0  0
  2  4  2  0  0  0  0
  4  5  1  0  0  0  0
  5  6  2  0  0  0  0
  5 11  1  0  0  0  0
  6  7  1  0  0  0  0
  6  9  1  0  0  0  0
  7  8  2  0  0  0  0
  9 10  2  0  0  0  0
  9 12  1  0  0  0  0
 10 11  1  0  0  0  0
 12 13  3  0  0  0  0
M  END
>  <CHROM.1>
35.69531274,33.27891177,25.04051080,0.45118609,0.62908091,2.43869244

>  <Name>
ligand

>  <RI>
0

>  <Rbt.Current_Directory>
/home/itssahil/PROJECTS/Mol_Feturizer/New_Systems/rnas/3GCA

>  <Rbt.Executable>
rbdock ($Id: //depot/dev/client3/rdock/2013.1/src/exe/rbdock.cxx#4 $)

>  <Rbt.Library>
libRbt.so (2013.1, Build901 2013/11/27)

>  <Rbt.Parameter_File>
/export/apps/rDock/src/rDock_2013.1_src/data/scripts/dock_solv.prm

>  <Rbt.Receptor>
prm/pocket_docking_6.prm

>  <SCORE>
-24.0271

>  <SCORE.INTER>
-24.0271

>  <SCORE.INTER.CONST>
1

>  <SCORE.INTER.POLAR>
0

>  <SCORE.INTER.ROT>
0

>  <SCORE.INTER.SOLV>
11.3718

>  <SCORE.INTER.VDW>
-23.4087

>  <SCORE.INTER.norm>
-1.84824

>  <SCORE.INTRA>
0

>  <SCORE.INTRA.DIHEDRAL>
0

>  <SCORE.INTRA.DIHEDRAL.0>
0

>  <SCORE.INTRA.POLAR>
0

>  <SCORE.INTRA.POLAR.0>
0

>  <SCORE.INTRA.REPUL>
0

>  <SCORE.INTRA.REPUL.0>
0

>  <SCORE.INTRA.SOLV>
0

>  <SCORE.INTRA.SOLV.lig_0>
-33.1994

>  <SCORE.INTRA.VDW>
0

>  <SCORE.INTRA.VDW.0>
0

>  <SCORE.INTRA.norm>
0

>  <SCORE.RESTR>
0

>  <SCORE.RESTR.CAVITY>
0

>  <SCORE.RESTR.norm>
0

>  <SCORE.SYSTEM>
0

>  <SCORE.SYSTEM.CONST>
0

>  <SCORE.SYSTEM.DIHEDRAL>
0

>  <SCORE.SYSTEM.SOLV>
0

>  <SCORE.SYSTEM.norm>
0

>  <SCORE.heavy>
13

>  <SCORE.norm>
-1.84824

>  <RMSD>
4.905

$$$$
ligand
 OpenBabel11021811473D
libRbt.so/2013.1/901 2013/11/27
 13 14  0  0  0  0  0  0  0  0999 V2000
   36.4073   32.1650   26.7326 N   0  0  0  0  0  0  0  0  0  0  0  0
   37.5467   33.2625   26.8201 C   0  0  0  0  0  0  0  0  0  0  0  0
   38.4968   33.1661   27.8179 N   0  0  0  0  0  0  0  0  0  0  0  0
   37.4202   34.1502   25.9258 N   0  0  0  0  0  0  0  0  0  0  0  0
   36.5241   34.2885   24.9297 C   0  0  0  0  0  0  0  0  0  0  0  0
   35.5276   33.3945   24.7767 C   0  0  0  0  0  0  0  0  0  0  0  0
   35.4566   32.1998   25.8075 C   0  0  0  0  0  0  0  0  0  0  0  0
   34.5746   31.4163   25.6600 O   0  0  0  0  0  0  0  0  0  0  0  0
   34.5968   33.7370   23.5986 C   0  0  0  0  0  0  0  0  0  0  0  0
   35.1023   34.8562   23.0681 C   0  0  0  0  0  0  0  0  0  0  0  0
   36.2139   35.3479   23.6979 N   0  0  0  0  0  0  0  0  0  0  0  0
   33.4204   32.9556   23.1546 C   0  0  0  0  0  0  0  0  0  0  0  0
   32.4978   32.3212   22.8660 N   0  0  0  0  0  0  0  0  0  0  0  0
  1  2  1  0  0  0  0
  1  7  1  0  0  0  0
  2  3  1  0  0  0  0
  2  4  2  0  0  0  0
  4  5  1  0  0  0  0
  5  6  2  0  0  0  0
  5 11  1  0  0  0  0
  6  7  1  0  0  0  0
  6  9  1  0  0  0  0
  7  8  2  0  0  0  0
  9 10  2  0  0  0  0
  9 12  1  0  0  0  0
 10 11  1  0  0  0  0
 12 13  3  0  0  0  0
M  END
>  <CHROM.1>
35.68113823,33.28893314,25.02921162,0.46575179,0.61706246,2.40997045

>  <Name>
ligand

>  <RI>
0

>  <Rbt.Current_Directory>
/home/itssahil/PROJECTS/Mol_Feturizer/New_Systems/rnas/3GCA

>  <Rbt.Executable>
rbdock ($Id: //depot/dev/client3/rdock/2013.1/src/exe/rbdock.cxx#4 $)

>  <Rbt.Library>
libRbt.so (2013.1, Build901 2013/11/27)

>  <Rbt.Parameter_File>
/export/apps/rDock/src/rDock_2013.1_src/data/scripts/dock_solv.prm

>  <Rbt.Receptor>
prm/pocket_docking_6.prm

>  <SCORE>
-24.0532

>  <SCORE.INTER>
-24.0532

>  <SCORE.INTER.CONST>
1

>  <SCORE.INTER.POLAR>
0

>  <SCORE.INTER.ROT>
0

>  <SCORE.INTER.SOLV>
11.3993

>  <SCORE.INTER.VDW>
-23.4352

>  <SCORE.INTER.norm>
-1.85025

>  <SCORE.INTRA>
0

>  <SCORE.INTRA.DIHEDRAL>
0

>  <SCORE.INTRA.DIHEDRAL.0>
0

>  <SCORE.INTRA.POLAR>
0

>  <SCORE.INTRA.POLAR.0>
0

>  <SCORE.INTRA.REPUL>
0

>  <SCORE.INTRA.REPUL.0>
0

>  <SCORE.INTRA.SOLV>
0

>  <SCORE.INTRA.SOLV.lig_0>
-33.1994

>  <SCORE.INTRA.VDW>
0

>  <SCORE.INTRA.VDW.0>
0

>  <SCORE.INTRA.norm>
0

>  <SCORE.RESTR>
0

>  <SCORE.RESTR.CAVITY>
0

>  <SCORE.RESTR.norm>
0

>  <SCORE.SYSTEM>
0

>  <SCORE.SYSTEM.CONST>
0

>  <SCORE.SYSTEM.DIHEDRAL>
0

>  <SCORE.SYSTEM.SOLV>
0

>  <SCORE.SYSTEM.norm>
0

>  <SCORE.heavy>
13

>  <SCORE.norm>
-1.85025

>  <RMSD>
4.905

$$$$
ligand
 OpenBabel11021811473D
libRbt.so/2013.1/901 2013/11/27
 13 14  0  0  0  0  0  0  0  0999 V2000
   36.4415   32.1355   26.7188 N   0  0  0  0  0  0  0  0  0  0  0  0
   37.5577   33.2544   26.8306 C   0  0  0  0  0  0  0  0  0  0  0  0
   38.5096   33.1561   27.8265 N   0  0  0  0  0  0  0  0  0  0  0  0
   37.4126   34.1586   25.9559 N   0  0  0  0  0  0  0  0  0  0  0  0
   36.5139   34.2998   24.9627 C   0  0  0  0  0  0  0  0  0  0  0  0
   35.5362   33.3887   24.7898 C   0  0  0  0  0  0  0  0  0  0  0  0
   35.4903   32.1706   25.7942 C   0  0  0  0  0  0  0  0  0  0  0  0
   34.6248   31.3723   25.6293 O   0  0  0  0  0  0  0  0  0  0  0  0
   34.5984   33.7374   23.6190 C   0  0  0  0  0  0  0  0  0  0  0  0
   35.0804   34.8782   23.1133 C   0  0  0  0  0  0  0  0  0  0  0  0
   36.1815   35.3791   23.7542 N   0  0  0  0  0  0  0  0  0  0  0  0
   33.4387   32.9414   23.1576 C   0  0  0  0  0  0  0  0  0  0  0  0
   32.5295   32.2943   22.8549 N   0  0  0  0  0  0  0  0  0  0  0  0
  1  2  1  0  0  0  0
  1  7  1  0  0  0  0
  2  3  1  0  0  0  0
  2  4  2  0  0  0  0
  4  5  1  0  0  0  0
  5  6  2  0  0  0  0
  5 11  1  0  0  0  0
  6  7  1  0  0  0  0
  6  9  1  0  0  0  0
  7  8  2  0  0  0  0
  9 10  2  0  0  0  0
  9 12  1  0  0  0  0
 10 11  1  0  0  0  0
 12 13  3  0  0  0  0
M  END
>  <CHROM.1>
35.69194804,33.28091795,25.03999775,0.44645094,0.63092942,2.44307305

>  <Name>
ligand

>  <RI>
0

>  <Rbt.Current_Directory>
/home/itssahil/PROJECTS/Mol_Feturizer/New_Systems/rnas/3GCA

>  <Rbt.Executable>
rbdock ($Id: //depot/dev/client3/rdock/2013.1/src/exe/rbdock.cxx#4 $)

>  <Rbt.Library>
libRbt.so (2013.1, Build901 2013/11/27)

>  <Rbt.Parameter_File>
/export/apps/rDock/src/rDock_2013.1_src/data/scripts/dock_solv.prm

>  <Rbt.Receptor>
prm/pocket_docking_6.prm

>  <SCORE>
-24.0228

>  <SCORE.INTER>
-24.0228

>  <SCORE.INTER.CONST>
1

>  <SCORE.INTER.POLAR>
0

>  <SCORE.INTER.ROT>
0

>  <SCORE.INTER.SOLV>
11.3773

>  <SCORE.INTER.VDW>
-23.4076

>  <SCORE.INTER.norm>
-1.8479

>  <SCORE.INTRA>
0

>  <SCORE.INTRA.DIHEDRAL>
0

>  <SCORE.INTRA.DIHEDRAL.0>
0

>  <SCORE.INTRA.POLAR>
0

>  <SCORE.INTRA.POLAR.0>
0

>  <SCORE.INTRA.REPUL>
0

>  <SCORE.INTRA.REPUL.0>
0

>  <SCORE.INTRA.SOLV>
0

>  <SCORE.INTRA.SOLV.lig_0>
-33.1994

>  <SCORE.INTRA.VDW>
0

>  <SCORE.INTRA.VDW.0>
0

>  <SCORE.INTRA.norm>
0

>  <SCORE.RESTR>
0

>  <SCORE.RESTR.CAVITY>
0

>  <SCORE.RESTR.norm>
0

>  <SCORE.SYSTEM>
0

>  <SCORE.SYSTEM.CONST>
0

>  <SCORE.SYSTEM.DIHEDRAL>
0

>  <SCORE.SYSTEM.SOLV>
0

>  <SCORE.SYSTEM.norm>
0

>  <SCORE.heavy>
13

>  <SCORE.norm>
-1.8479

>  <RMSD>
4.905

$$$$
ligand
 OpenBabel11021811473D
libRbt.so/2013.1/901 2013/11/27
 13 14  0  0  0  0  0  0  0  0999 V2000
   36.4437   32.1151   26.6890 N   0  0  0  0  0  0  0  0  0  0  0  0
   37.5784   33.2170   26.7816 C   0  0  0  0  0  0  0  0  0  0  0  0
   38.5385   33.1109   27.7688 N   0  0  0  0  0  0  0  0  0  0  0  0
   37.4388   34.1171   25.9017 N   0  0  0  0  0  0  0  0  0  0  0  0
   36.5325   34.2653   24.9164 C   0  0  0  0  0  0  0  0  0  0  0  0
   35.5390   33.3686   24.7599 C   0  0  0  0  0  0  0  0  0  0  0  0
   35.4839   32.1586   25.7737 C   0  0  0  0  0  0  0  0  0  0  0  0
   34.6044   31.3729   25.6232 O   0  0  0  0  0  0  0  0  0  0  0  0
   34.5952   33.7235   23.5959 C   0  0  0  0  0  0  0  0  0  0  0  0
   35.0900   34.8529   23.0771 C   0  0  0  0  0  0  0  0  0  0  0  0
   36.2052   35.3410   23.7033 N   0  0  0  0  0  0  0  0  0  0  0  0
   33.4185   32.9427   23.1518 C   0  0  0  0  0  0  0  0  0  0  0  0
   32.4963   32.3079   22.8628 N   0  0  0  0  0  0  0  0  0  0  0  0
  1  2  1  0  0  0  0
  1  7  1  0  0  0  0
  2  3  1  0  0  0  0
  2  4  2  0  0  0  0
  4  5  1  0  0  0  0
  5  6  2  0  0  0  0
  5 11  1  0  0  0  0
  6  7  1  0  0  0  0
  6  9  1  0  0  0  0
  7  8  2  0  0  0  0
  9 10  2  0  0  0  0
  9 12  1  0  0  0  0
 10 11  1  0  0  0  0
 12 13  3  0  0  0  0
M  END
>  <CHROM.1>
35.69551548,33.26013322,25.00933209,0.45334308,0.61316480,2.43176724

>  <Name>
ligand

>  <RI>
0

>  <Rbt.Current_Directory>
/home/itssahil/PROJECTS/Mol_Feturizer/New_Systems/rnas/3GCA

>  <Rbt.Executable>
rbdock ($Id: //depot/dev/client3/rdock/2013.1/src/exe/rbdock.cxx#4 $)

>  <Rbt.Library>
libRbt.so (2013.1, Build901 2013/11/27)

>  <Rbt.Parameter_File>
/export/apps/rDock/src/rDock_2013.1_src/data/scripts/dock_solv.prm

>  <Rbt.Receptor>
prm/pocket_docking_6.prm

>  <SCORE>
-23.9997

>  <SCORE.INTER>
-23.9997

>  <SCORE.INTER.CONST>
1

>  <SCORE.INTER.POLAR>
0

>  <SCORE.INTER.ROT>
0

>  <SCORE.INTER.SOLV>
11.292

>  <SCORE.INTER.VDW>
-23.3638

>  <SCORE.INTER.norm>
-1.84613

>  <SCORE.INTRA>
0

>  <SCORE.INTRA.DIHEDRAL>
0

>  <SCORE.INTRA.DIHEDRAL.0>
0

>  <SCORE.INTRA.POLAR>
0

>  <SCORE.INTRA.POLAR.0>
0

>  <SCORE.INTRA.REPUL>
0

>  <SCORE.INTRA.REPUL.0>
0

>  <SCORE.INTRA.SOLV>
0

>  <SCORE.INTRA.SOLV.lig_0>
-33.1994

>  <SCORE.INTRA.VDW>
0

>  <SCORE.INTRA.VDW.0>
0

>  <SCORE.INTRA.norm>
0

>  <SCORE.RESTR>
0

>  <SCORE.RESTR.CAVITY>
0

>  <SCORE.RESTR.norm>
0

>  <SCORE.SYSTEM>
0

>  <SCORE.SYSTEM.CONST>
0

>  <SCORE.SYSTEM.DIHEDRAL>
0

>  <SCORE.SYSTEM.SOLV>
0

>  <SCORE.SYSTEM.norm>
0

>  <SCORE.heavy>
13

>  <SCORE.norm>
-1.84613

>  <RMSD>
4.905

$$$$
ligand
 OpenBabel11021811473D
libRbt.so/2013.1/901 2013/11/27
 13 14  0  0  0  0  0  0  0  0999 V2000
   36.4117   32.1616   26.7338 N   0  0  0  0  0  0  0  0  0  0  0  0
   37.5478   33.2622   26.8243 C   0  0  0  0  0  0  0  0  0  0  0  0
   38.4968   33.1672   27.8234 N   0  0  0  0  0  0  0  0  0  0  0  0
   37.4201   34.1507   25.9310 N   0  0  0  0  0  0  0  0  0  0  0  0
   36.5250   34.2877   24.9338 C   0  0  0  0  0  0  0  0  0  0  0  0
   35.5313   33.3911   24.7783 C   0  0  0  0  0  0  0  0  0  0  0  0
   35.4623   32.1949   25.8074 C   0  0  0  0  0  0  0  0  0  0  0  0
   34.5826   31.4091   25.6577 O   0  0  0  0  0  0  0  0  0  0  0  0
   34.6011   33.7325   23.5993 C   0  0  0  0  0  0  0  0  0  0  0  0
   35.1043   34.8538   23.0710 C   0  0  0  0  0  0  0  0  0  0  0  0
   36.2136   35.3479   23.7030 N   0  0  0  0  0  0  0  0  0  0  0  0
   33.4277   32.9483   23.1527 C   0  0  0  0  0  0  0  0  0  0  0  0
   32.5073   32.3117   22.8619 N   0  0  0  0  0  0  0  0  0  0  0  0
  1  2  1  0  0  0  0
  1  7  1  0  0  0  0
  2  3  1  0  0  0  0
  2  4  2  0  0  0  0
  4  5  1  0  0  0  0
  5  6  2  0  0  0  0
  5 11  1  0  0  0  0
  6  7  1  0  0  0  0
  6  9  1  0  0  0  0
  7  8  2  0  0  0  0
  9 10  2  0  0  0  0
  9 12  1  0  0  0  0
 10 11  1  0  0  0  0
 12 13  3  0  0  0  0
M  END
>  <CHROM.1>
35.68475798,33.28566923,25.03087753,0.46430558,0.62002234,2.41211225

>  <Name>
ligand

>  <RI>
0

>  <Rbt.Current_Directory>
/home/itssahil/PROJECTS/Mol_Feturizer/New_Systems/rnas/3GCA

>  <Rbt.Executable>
rbdock ($Id: //depot/dev/client3/rdock/2013.1/src/exe/rbdock.cxx#4 $)

>  <Rbt.Library>
libRbt.so (2013.1, Build901 2013/11/27)

>  <Rbt.Parameter_File>
/export/apps/rDock/src/rDock_2013.1_src/data/scripts/dock_solv.prm

>  <Rbt.Receptor>
prm/pocket_docking_6.prm

>  <SCORE>
-24.0485

>  <SCORE.INTER>
-24.0485

>  <SCORE.INTER.CONST>
1

>  <SCORE.INTER.POLAR>
0

>  <SCORE.INTER.ROT>
0

>  <SCORE.INTER.SOLV>
11.3984

>  <SCORE.INTER.VDW>
-23.4318

>  <SCORE.INTER.norm>
-1.84988

>  <SCORE.INTRA>
0

>  <SCORE.INTRA.DIHEDRAL>
0

>  <SCORE.INTRA.DIHEDRAL.0>
0

>  <SCORE.INTRA.POLAR>
0

>  <SCORE.INTRA.POLAR.0>
0

>  <SCORE.INTRA.REPUL>
0

>  <SCORE.INTRA.REPUL.0>
0

>  <SCORE.INTRA.SOLV>
0

>  <SCORE.INTRA.SOLV.lig_0>
-33.1994

>  <SCORE.INTRA.VDW>
0

>  <SCORE.INTRA.VDW.0>
0

>  <SCORE.INTRA.norm>
0

>  <SCORE.RESTR>
0

>  <SCORE.RESTR.CAVITY>
0

>  <SCORE.RESTR.norm>
0

>  <SCORE.SYSTEM>
0

>  <SCORE.SYSTEM.CONST>
0

>  <SCORE.SYSTEM.DIHEDRAL>
0

>  <SCORE.SYSTEM.SOLV>
0

>  <SCORE.SYSTEM.norm>
0

>  <SCORE.heavy>
13

>  <SCORE.norm>
-1.84988

>  <RMSD>
4.905

$$$$
ligand
 OpenBabel11021811473D
libRbt.so/2013.1/901 2013/11/27
 13 14  0  0  0  0  0  0  0  0999 V2000
   36.4401   32.1351   26.7173 N   0  0  0  0  0  0  0  0  0  0  0  0
   37.5578   33.2523   26.8302 C   0  0  0  0  0  0  0  0  0  0  0  0
   38.5084   33.1529   27.8272 N   0  0  0  0  0  0  0  0  0  0  0  0
   37.4152   34.1564   25.9550 N   0  0  0  0  0  0  0  0  0  0  0  0
   36.5178   34.2987   24.9606 C   0  0  0  0  0  0  0  0  0  0  0  0
   35.5389   33.3891   24.7869 C   0  0  0  0  0  0  0  0  0  0  0  0
   35.4900   32.1713   25.7917 C   0  0  0  0  0  0  0  0  0  0  0  0
   34.6235   31.3743   25.6260 O   0  0  0  0  0  0  0  0  0  0  0  0
   34.6030   33.7387   23.6150 C   0  0  0  0  0  0  0  0  0  0  0  0
   35.0874   34.8786   23.1095 C   0  0  0  0  0  0  0  0  0  0  0  0
   36.1885   35.3782   23.7515 N   0  0  0  0  0  0  0  0  0  0  0  0
   33.4426   32.9444   23.1524 C   0  0  0  0  0  0  0  0  0  0  0  0
   32.5328   32.2986   22.8488 N   0  0  0  0  0  0  0  0  0  0  0  0
  1  2  1  0  0  0  0
  1  7  1  0  0  0  0
  2  3  1  0  0  0  0
  2  4  2  0  0  0  0
  4  5  1  0  0  0  0
  5  6  2  0  0  0  0
  5 11  1  0  0  0  0
  6  7  1  0  0  0  0
  6  9  1  0  0  0  0
  7  8  2  0  0  0  0
  9 10  2  0  0  0  0
  9 12  1  0  0  0  0
 10 11  1  0  0  0  0
 12 13  3  0  0  0  0
M  END
>  <CHROM.1>
35.69421920,33.28108659,25.03735312,0.44882643,0.63084276,2.44135403

>  <Name>
ligand

>  <RI>
0

>  <Rbt.Current_Directory>
/home/itssahil/PROJECTS/Mol_Feturizer/New_Systems/rnas/3GCA

>  <Rbt.Executable>
rbdock ($Id: //depot/dev/client3/rdock/2013.1/src/exe/rbdock.cxx#4 $)

>  <Rbt.Library>
libRbt.so (2013.1, Build901 2013/11/27)

>  <Rbt.Parameter_File>
/export/apps/rDock/src/rDock_2013.1_src/data/scripts/dock_solv.prm

>  <Rbt.Receptor>
prm/pocket_docking_8.prm

>  <SCORE>
-24.0241

>  <SCORE.INTER>
-24.0241

>  <SCORE.INTER.CONST>
1

>  <SCORE.INTER.POLAR>
0

>  <SCORE.INTER.ROT>
0

>  <SCORE.INTER.SOLV>
11.3776

>  <SCORE.INTER.VDW>
-23.4086

>  <SCORE.INTER.norm>
-1.84801

>  <SCORE.INTRA>
0

>  <SCORE.INTRA.DIHEDRAL>
0

>  <SCORE.INTRA.DIHEDRAL.0>
0

>  <SCORE.INTRA.POLAR>
0

>  <SCORE.INTRA.POLAR.0>
0

>  <SCORE.INTRA.REPUL>
0

>  <SCORE.INTRA.REPUL.0>
0

>  <SCORE.INTRA.SOLV>
0

>  <SCORE.INTRA.SOLV.lig_0>
-33.1994

>  <SCORE.INTRA.VDW>
0

>  <SCORE.INTRA.VDW.0>
0

>  <SCORE.INTRA.norm>
0

>  <SCORE.RESTR>
0

>  <SCORE.RESTR.CAVITY>
0

>  <SCORE.RESTR.norm>
0

>  <SCORE.SYSTEM>
0

>  <SCORE.SYSTEM.CONST>
0

>  <SCORE.SYSTEM.DIHEDRAL>
0

>  <SCORE.SYSTEM.SOLV>
0

>  <SCORE.SYSTEM.norm>
0

>  <SCORE.heavy>
13

>  <SCORE.norm>
-1.84801

>  <RMSD>
4.905

$$$$
ligand
 OpenBabel11021811473D
libRbt.so/2013.1/901 2013/11/27
 13 14  0  0  0  0  0  0  0  0999 V2000
   36.4085   32.1602   26.7350 N   0  0  0  0  0  0  0  0  0  0  0  0
   37.5474   33.2580   26.8249 C   0  0  0  0  0  0  0  0  0  0  0  0
   38.4960   33.1613   27.8241 N   0  0  0  0  0  0  0  0  0  0  0  0
   37.4220   34.1462   25.9309 N   0  0  0  0  0  0  0  0  0  0  0  0
   36.5274   34.2848   24.9335 C   0  0  0  0  0  0  0  0  0  0  0  0
   35.5314   33.3906   24.7785 C   0  0  0  0  0  0  0  0  0  0  0  0
   35.4593   32.1952   25.8085 C   0  0  0  0  0  0  0  0  0  0  0  0
   34.5777   31.4116   25.6592 O   0  0  0  0  0  0  0  0  0  0  0  0
   34.6023   33.7335   23.5992 C   0  0  0  0  0  0  0  0  0  0  0  0
   35.1083   34.8531   23.0701 C   0  0  0  0  0  0  0  0  0  0  0  0
   36.2188   35.3448   23.7019 N   0  0  0  0  0  0  0  0  0  0  0  0
   33.4269   32.9519   23.1530 C   0  0  0  0  0  0  0  0  0  0  0  0
   32.5049   32.3174   22.8626 N   0  0  0  0  0  0  0  0  0  0  0  0
  1  2  1  0  0  0  0
  1  7  1  0  0  0  0
  2  3  1  0  0  0  0
  2  4  2  0  0  0  0
  4  5  1  0  0  0  0
  5  6  2  0  0  0  0
  5 11  1  0  0  0  0
  6  7  1  0  0  0  0
  6  9  1  0  0  0  0
  7  8  2  0  0  0  0
  9 10  2  0  0  0  0
  9 12  1  0  0  0  0
 10 11  1  0  0  0  0
 12 13  3  0  0  0  0
M  END
>  <CHROM.1>
35.68460795,33.28488316,25.03118159,0.46670222,0.61841889,2.40999938

>  <Name>
ligand

>  <RI>
0

>  <Rbt.Current_Directory>
/home/itssahil/PROJECTS/Mol_Feturizer/New_Systems/rnas/3GCA

>  <Rbt.Executable>
rbdock ($Id: //depot/dev/client3/rdock/2013.1/src/exe/rbdock.cxx#4 $)

>  <Rbt.Library>
libRbt.so (2013.1, Build901 2013/11/27)

>  <Rbt.Parameter_File>
/export/apps/rDock/src/rDock_2013.1_src/data/scripts/dock_solv.prm

>  <Rbt.Receptor>
prm/pocket_docking_8.prm

>  <SCORE>
-24.0486

>  <SCORE.INTER>
-24.0486

>  <SCORE.INTER.CONST>
1

>  <SCORE.INTER.POLAR>
0

>  <SCORE.INTER.ROT>
0

>  <SCORE.INTER.SOLV>
11.4002

>  <SCORE.INTER.VDW>
-23.4324

>  <SCORE.INTER.norm>
-1.84989

>  <SCORE.INTRA>
0

>  <SCORE.INTRA.DIHEDRAL>
0

>  <SCORE.INTRA.DIHEDRAL.0>
0

>  <SCORE.INTRA.POLAR>
0

>  <SCORE.INTRA.POLAR.0>
0

>  <SCORE.INTRA.REPUL>
0

>  <SCORE.INTRA.REPUL.0>
0

>  <SCORE.INTRA.SOLV>
0

>  <SCORE.INTRA.SOLV.lig_0>
-33.1994

>  <SCORE.INTRA.VDW>
0

>  <SCORE.INTRA.VDW.0>
0

>  <SCORE.INTRA.norm>
0

>  <SCORE.RESTR>
0

>  <SCORE.RESTR.CAVITY>
0

>  <SCORE.RESTR.norm>
0

>  <SCORE.SYSTEM>
0

>  <SCORE.SYSTEM.CONST>
0

>  <SCORE.SYSTEM.DIHEDRAL>
0

>  <SCORE.SYSTEM.SOLV>
0

>  <SCORE.SYSTEM.norm>
0

>  <SCORE.heavy>
13

>  <SCORE.norm>
-1.84989

>  <RMSD>
4.905

$$$$
ligand
 OpenBabel11021811473D
libRbt.so/2013.1/901 2013/11/27
 13 14  0  0  0  0  0  0  0  0999 V2000
   36.4489   32.0515   26.7800 N   0  0  0  0  0  0  0  0  0  0  0  0
   37.5850   33.1495   26.8990 C   0  0  0  0  0  0  0  0  0  0  0  0
   38.5335   33.0290   27.8957 N   0  0  0  0  0  0  0  0  0  0  0  0
   37.4576   34.0605   26.0286 N   0  0  0  0  0  0  0  0  0  0  0  0
   36.5630   34.2229   25.0348 C   0  0  0  0  0  0  0  0  0  0  0  0
   35.5693   33.3306   24.8560 C   0  0  0  0  0  0  0  0  0  0  0  0
   35.4999   32.1084   25.8543 C   0  0  0  0  0  0  0  0  0  0  0  0
   34.6203   31.3268   25.6842 O   0  0  0  0  0  0  0  0  0  0  0  0
   34.6397   33.7019   23.6857 C   0  0  0  0  0  0  0  0  0  0  0  0
   35.1430   34.8363   23.1864 C   0  0  0  0  0  0  0  0  0  0  0  0
   36.2520   35.3141   23.8313 N   0  0  0  0  0  0  0  0  0  0  0  0
   33.4664   32.9294   23.2187 C   0  0  0  0  0  0  0  0  0  0  0  0
   32.5462   32.3004   22.9114 N   0  0  0  0  0  0  0  0  0  0  0  0
  1  2  1  0  0  0  0
  1  7  1  0  0  0  0
  2  3  1  0  0  0  0
  2  4  2  0  0  0  0
  4  5  1  0  0  0  0
  5  6  2  0  0  0  0
  5 11  1  0  0  0  0
  6  7  1  0  0  0  0
  6  9  1  0  0  0  0
  7  8  2  0  0  0  0
  9 10  2  0  0  0  0
  9 12  1  0  0  0  0
 10 11  1  0  0  0  0
 12 13  3  0  0  0  0
M  END
>  <CHROM.1>
35.72268598,33.21870094,25.10591051,0.46465290,0.62036106,2.43741408

>  <Name>
ligand

>  <RI>
0

>  <Rbt.Current_Directory>
/home/itssahil/PROJECTS/Mol_Feturizer/New_Systems/rnas/3GCA

>  <Rbt.Executable>
rbdock ($Id: //depot/dev/client3/rdock/2013.1/src/exe/rbdock.cxx#4 $)

>  <Rbt.Library>
libRbt.so (2013.1, Build901 2013/11/27)

>  <Rbt.Parameter_File>
/export/apps/rDock/src/rDock_2013.1_src/data/scripts/dock_solv.prm

>  <Rbt.Receptor>
prm/blind_docking_60.prm

>  <SCORE>
-24.0423

>  <SCORE.INTER>
-24.0423

>  <SCORE.INTER.CONST>
1

>  <SCORE.INTER.POLAR>
0

>  <SCORE.INTER.ROT>
0

>  <SCORE.INTER.SOLV>
11.3941

>  <SCORE.INTER.VDW>
-23.4262

>  <SCORE.INTER.norm>
-1.84941

>  <SCORE.INTRA>
0

>  <SCORE.INTRA.DIHEDRAL>
0

>  <SCORE.INTRA.DIHEDRAL.0>
0

>  <SCORE.INTRA.POLAR>
0

>  <SCORE.INTRA.POLAR.0>
0

>  <SCORE.INTRA.REPUL>
0

>  <SCORE.INTRA.REPUL.0>
0

>  <SCORE.INTRA.SOLV>
0

>  <SCORE.INTRA.SOLV.lig_0>
-33.1994

>  <SCORE.INTRA.VDW>
0

>  <SCORE.INTRA.VDW.0>
0

>  <SCORE.INTRA.norm>
0

>  <SCORE.RESTR>
0

>  <SCORE.RESTR.CAVITY>
0

>  <SCORE.RESTR.norm>
0

>  <SCORE.SYSTEM>
0

>  <SCORE.SYSTEM.CONST>
0

>  <SCORE.SYSTEM.DIHEDRAL>
0

>  <SCORE.SYSTEM.SOLV>
0

>  <SCORE.SYSTEM.norm>
0

>  <SCORE.heavy>
13

>  <SCORE.norm>
-1.84941

>  <RMSD>
4.906

$$$$
ligand
 OpenBabel11021811473D
libRbt.so/2013.1/901 2013/11/27
 13 14  0  0  0  0  0  0  0  0999 V2000
   36.4334   32.1366   26.7217 N   0  0  0  0  0  0  0  0  0  0  0  0
   37.5540   33.2516   26.8283 C   0  0  0  0  0  0  0  0  0  0  0  0
   38.5052   33.1546   27.8249 N   0  0  0  0  0  0  0  0  0  0  0  0
   37.4127   34.1520   25.9489 N   0  0  0  0  0  0  0  0  0  0  0  0
   36.5147   34.2917   24.9547 C   0  0  0  0  0  0  0  0  0  0  0  0
   35.5336   33.3836   24.7862 C   0  0  0  0  0  0  0  0  0  0  0  0
   35.4826   32.1707   25.7968 C   0  0  0  0  0  0  0  0  0  0  0  0
   34.6140   31.3750   25.6356 O   0  0  0  0  0  0  0  0  0  0  0  0
   34.5974   33.7300   23.6134 C   0  0  0  0  0  0  0  0  0  0  0  0
   35.0841   34.8664   23.1021 C   0  0  0  0  0  0  0  0  0  0  0  0
   36.1869   35.3663   23.7408 N   0  0  0  0  0  0  0  0  0  0  0  0
   33.4347   32.9363   23.1557 C   0  0  0  0  0  0  0  0  0  0  0  0
   32.5231   32.2913   22.8560 N   0  0  0  0  0  0  0  0  0  0  0  0
  1  2  1  0  0  0  0
  1  7  1  0  0  0  0
  2  3  1  0  0  0  0
  2  4  2  0  0  0  0
  4  5  1  0  0  0  0
  5  6  2  0  0  0  0
  5 11  1  0  0  0  0
  6  7  1  0  0  0  0
  6  9  1  0  0  0  0
  7  8  2  0  0  0  0
  9 10  2  0  0  0  0
  9 12  1  0  0  0  0
 10 11  1  0  0  0  0
 12 13  3  0  0  0  0
M  END
>  <CHROM.1>
35.68879755,33.27646745,25.03698770,0.45037166,0.62859875,2.43573352

>  <Name>
ligand

>  <RI>
0

>  <Rbt.Current_Directory>
/home/itssahil/PROJECTS/Mol_Feturizer/New_Systems/rnas/3GCA

>  <Rbt.Executable>
rbdock ($Id: //depot/dev/client3/rdock/2013.1/src/exe/rbdock.cxx#4 $)

>  <Rbt.Library>
libRbt.so (2013.1, Build901 2013/11/27)

>  <Rbt.Parameter_File>
/export/apps/rDock/src/rDock_2013.1_src/data/scripts/dock_solv.prm

>  <Rbt.Receptor>
prm/pocket_docking_7.prm

>  <SCORE>
-24.0217

>  <SCORE.INTER>
-24.0217

>  <SCORE.INTER.CONST>
1

>  <SCORE.INTER.POLAR>
0

>  <SCORE.INTER.ROT>
0

>  <SCORE.INTER.SOLV>
11.3901

>  <SCORE.INTER.VDW>
-23.4111

>  <SCORE.INTER.norm>
-1.84782

>  <SCORE.INTRA>
0

>  <SCORE.INTRA.DIHEDRAL>
0

>  <SCORE.INTRA.DIHEDRAL.0>
0

>  <SCORE.INTRA.POLAR>
0

>  <SCORE.INTRA.POLAR.0>
0

>  <SCORE.INTRA.REPUL>
0

>  <SCORE.INTRA.REPUL.0>
0

>  <SCORE.INTRA.SOLV>
0

>  <SCORE.INTRA.SOLV.lig_0>
-33.1994

>  <SCORE.INTRA.VDW>
0

>  <SCORE.INTRA.VDW.0>
0

>  <SCORE.INTRA.norm>
0

>  <SCORE.RESTR>
0

>  <SCORE.RESTR.CAVITY>
0

>  <SCORE.RESTR.norm>
0

>  <SCORE.SYSTEM>
0

>  <SCORE.SYSTEM.CONST>
0

>  <SCORE.SYSTEM.DIHEDRAL>
0

>  <SCORE.SYSTEM.SOLV>
0

>  <SCORE.SYSTEM.norm>
0

>  <SCORE.heavy>
13

>  <SCORE.norm>
-1.84782

>  <RMSD>
4.906

$$$$
ligand
 OpenBabel11021811473D
libRbt.so/2013.1/901 2013/11/27
 13 14  0  0  0  0  0  0  0  0999 V2000
   36.5147   32.0071   26.7507 N   0  0  0  0  0  0  0  0  0  0  0  0
   37.6148   33.1363   26.9091 C   0  0  0  0  0  0  0  0  0  0  0  0
   38.5652   33.0131   27.9036 N   0  0  0  0  0  0  0  0  0  0  0  0
   37.4594   34.0714   26.0692 N   0  0  0  0  0  0  0  0  0  0  0  0
   36.5615   34.2381   25.0792 C   0  0  0  0  0  0  0  0  0  0  0  0
   35.5972   33.3209   24.8682 C   0  0  0  0  0  0  0  0  0  0  0  0
   35.5656   32.0645   25.8251 C   0  0  0  0  0  0  0  0  0  0  0  0
   34.7118   31.2612   25.6268 O   0  0  0  0  0  0  0  0  0  0  0  0
   34.6578   33.7012   23.7087 C   0  0  0  0  0  0  0  0  0  0  0  0
   35.1252   34.8671   23.2487 C   0  0  0  0  0  0  0  0  0  0  0  0
   36.2174   35.3584   23.9119 N   0  0  0  0  0  0  0  0  0  0  0  0
   33.5106   32.9075   23.2133 C   0  0  0  0  0  0  0  0  0  0  0  0
   32.6114   32.2599   22.8830 N   0  0  0  0  0  0  0  0  0  0  0  0
  1  2  1  0  0  0  0
  1  7  1  0  0  0  0
  2  3  1  0  0  0  0
  2  4  2  0  0  0  0
  4  5  1  0  0  0  0
  5  6  2  0  0  0  0
  5 11  1  0  0  0  0
  6  7  1  0  0  0  0
  6  9  1  0  0  0  0
  7  8  2  0  0  0  0
  9 10  2  0  0  0  0
  9 12  1  0  0  0  0
 10 11  1  0  0  0  0
 12 13  3  0  0  0  0
M  END
>  <CHROM.1>
35.75372193,33.20569482,25.11467364,0.43525354,0.64199892,2.48813640

>  <Name>
ligand

>  <RI>
0

>  <Rbt.Current_Directory>
/home/itssahil/PROJECTS/Mol_Feturizer/New_Systems/rnas/3GCA

>  <Rbt.Executable>
rbdock ($Id: //depot/dev/client3/rdock/2013.1/src/exe/rbdock.cxx#4 $)

>  <Rbt.Library>
libRbt.so (2013.1, Build901 2013/11/27)

>  <Rbt.Parameter_File>
/export/apps/rDock/src/rDock_2013.1_src/data/scripts/dock_solv.prm

>  <Rbt.Receptor>
prm/blind_docking_60.prm

>  <SCORE>
-23.9545

>  <SCORE.INTER>
-23.9545

>  <SCORE.INTER.CONST>
1

>  <SCORE.INTER.POLAR>
0

>  <SCORE.INTER.ROT>
0

>  <SCORE.INTER.SOLV>
11.3421

>  <SCORE.INTER.VDW>
-23.3504

>  <SCORE.INTER.norm>
-1.84266

>  <SCORE.INTRA>
0

>  <SCORE.INTRA.DIHEDRAL>
0

>  <SCORE.INTRA.DIHEDRAL.0>
0

>  <SCORE.INTRA.POLAR>
0

>  <SCORE.INTRA.POLAR.0>
0

>  <SCORE.INTRA.REPUL>
0

>  <SCORE.INTRA.REPUL.0>
0

>  <SCORE.INTRA.SOLV>
0

>  <SCORE.INTRA.SOLV.lig_0>
-33.1994

>  <SCORE.INTRA.VDW>
0

>  <SCORE.INTRA.VDW.0>
0

>  <SCORE.INTRA.norm>
0

>  <SCORE.RESTR>
0

>  <SCORE.RESTR.CAVITY>
0

>  <SCORE.RESTR.norm>
0

>  <SCORE.SYSTEM>
0

>  <SCORE.SYSTEM.CONST>
0

>  <SCORE.SYSTEM.DIHEDRAL>
0

>  <SCORE.SYSTEM.SOLV>
0

>  <SCORE.SYSTEM.norm>
0

>  <SCORE.heavy>
13

>  <SCORE.norm>
-1.84266

>  <RMSD>
4.907

$$$$
ligand
 OpenBabel11021811473D
libRbt.so/2013.1/901 2013/11/27
 13 14  0  0  0  0  0  0  0  0999 V2000
   36.5016   32.0746   26.6834 N   0  0  0  0  0  0  0  0  0  0  0  0
   37.6218   33.1893   26.7973 C   0  0  0  0  0  0  0  0  0  0  0  0
   38.5866   33.0739   27.7788 N   0  0  0  0  0  0  0  0  0  0  0  0
   37.4672   34.1069   25.9383 N   0  0  0  0  0  0  0  0  0  0  0  0
   36.5556   34.2651   24.9594 C   0  0  0  0  0  0  0  0  0  0  0  0
   35.5736   33.3588   24.7858 C   0  0  0  0  0  0  0  0  0  0  0  0
   35.5382   32.1257   25.7723 C   0  0  0  0  0  0  0  0  0  0  0  0
   34.6687   31.3319   25.6069 O   0  0  0  0  0  0  0  0  0  0  0  0
   34.6211   33.7271   23.6331 C   0  0  0  0  0  0  0  0  0  0  0  0
   35.0991   34.8744   23.1382 C   0  0  0  0  0  0  0  0  0  0  0  0
   36.2098   35.3633   23.7719 N   0  0  0  0  0  0  0  0  0  0  0  0
   33.4535   32.9407   23.1752 C   0  0  0  0  0  0  0  0  0  0  0  0
   32.5389   32.3003   22.8748 N   0  0  0  0  0  0  0  0  0  0  0  0
  1  2  1  0  0  0  0
  1  7  1  0  0  0  0
  2  3  1  0  0  0  0
  2  4  2  0  0  0  0
  4  5  1  0  0  0  0
  5  6  2  0  0  0  0
  5 11  1  0  0  0  0
  6  7  1  0  0  0  0
  6  9  1  0  0  0  0
  7  8  2  0  0  0  0
  9 10  2  0  0  0  0
  9 12  1  0  0  0  0
 10 11  1  0  0  0  0
 12 13  3  0  0  0  0
M  END
>  <CHROM.1>
35.73242874,33.24689557,25.03226170,0.43815945,0.61921238,2.46303588

>  <Name>
ligand

>  <RI>
0

>  <Rbt.Current_Directory>
/home/itssahil/PROJECTS/Mol_Feturizer/New_Systems/rnas/3GCA

>  <Rbt.Executable>
rbdock ($Id: //depot/dev/client3/rdock/2013.1/src/exe/rbdock.cxx#4 $)

>  <Rbt.Library>
libRbt.so (2013.1, Build901 2013/11/27)

>  <Rbt.Parameter_File>
/export/apps/rDock/src/rDock_2013.1_src/data/scripts/dock_solv.prm

>  <Rbt.Receptor>
prm/pocket_docking_5.prm

>  <SCORE>
-23.9928

>  <SCORE.INTER>
-23.9928

>  <SCORE.INTER.CONST>
1

>  <SCORE.INTER.POLAR>
0

>  <SCORE.INTER.ROT>
0

>  <SCORE.INTER.SOLV>
11.1531

>  <SCORE.INTER.VDW>
-23.3129

>  <SCORE.INTER.norm>
-1.8456

>  <SCORE.INTRA>
0

>  <SCORE.INTRA.DIHEDRAL>
0

>  <SCORE.INTRA.DIHEDRAL.0>
0

>  <SCORE.INTRA.POLAR>
0

>  <SCORE.INTRA.POLAR.0>
0

>  <SCORE.INTRA.REPUL>
0

>  <SCORE.INTRA.REPUL.0>
0

>  <SCORE.INTRA.SOLV>
0

>  <SCORE.INTRA.SOLV.lig_0>
-33.1994

>  <SCORE.INTRA.VDW>
0

>  <SCORE.INTRA.VDW.0>
0

>  <SCORE.INTRA.norm>
0

>  <SCORE.RESTR>
0

>  <SCORE.RESTR.CAVITY>
0

>  <SCORE.RESTR.norm>
0

>  <SCORE.SYSTEM>
0

>  <SCORE.SYSTEM.CONST>
0

>  <SCORE.SYSTEM.DIHEDRAL>
0

>  <SCORE.SYSTEM.SOLV>
0

>  <SCORE.SYSTEM.norm>
0

>  <SCORE.heavy>
13

>  <SCORE.norm>
-1.8456

>  <RMSD>
4.907

$$$$
ligand
 OpenBabel11021811473D
libRbt.so/2013.1/901 2013/11/27
 13 14  0  0  0  0  0  0  0  0999 V2000
   36.4230   32.1154   26.7265 N   0  0  0  0  0  0  0  0  0  0  0  0
   37.5639   33.2117   26.8100 C   0  0  0  0  0  0  0  0  0  0  0  0
   38.5194   33.1123   27.8023 N   0  0  0  0  0  0  0  0  0  0  0  0
   37.4331   34.1016   25.9185 N   0  0  0  0  0  0  0  0  0  0  0  0
   36.5316   34.2429   24.9278 C   0  0  0  0  0  0  0  0  0  0  0  0
   35.5334   33.3502   24.7784 C   0  0  0  0  0  0  0  0  0  0  0  0
   35.4672   32.1531   25.8068 C   0  0  0  0  0  0  0  0  0  0  0  0
   34.5837   31.3708   25.6625 O   0  0  0  0  0  0  0  0  0  0  0  0
   34.5963   33.6962   23.6063 C   0  0  0  0  0  0  0  0  0  0  0  0
   35.0998   34.8161   23.0756 C   0  0  0  0  0  0  0  0  0  0  0  0
   36.2154   35.3054   23.7002 N   0  0  0  0  0  0  0  0  0  0  0  0
   33.4168   32.9168   23.1672 C   0  0  0  0  0  0  0  0  0  0  0  0
   32.4920   32.2838   22.8824 N   0  0  0  0  0  0  0  0  0  0  0  0
  1  2  1  0  0  0  0
  1  7  1  0  0  0  0
  2  3  1  0  0  0  0
  2  4  2  0  0  0  0
  4  5  1  0  0  0  0
  5  6  2  0  0  0  0
  5 11  1  0  0  0  0
  6  7  1  0  0  0  0
  6  9  1  0  0  0  0
  7  8  2  0  0  0  0
  9 10  2  0  0  0  0
  9 12  1  0  0  0  0
 10 11  1  0  0  0  0
 12 13  3  0  0  0  0
M  END
>  <CHROM.1>
35.68828402,33.24388997,25.02979264,0.46194356,0.61230056,2.41444675

>  <Name>
ligand

>  <RI>
0

>  <Rbt.Current_Directory>
/home/itssahil/PROJECTS/Mol_Feturizer/New_Systems/rnas/3GCA

>  <Rbt.Executable>
rbdock ($Id: //depot/dev/client3/rdock/2013.1/src/exe/rbdock.cxx#4 $)

>  <Rbt.Library>
libRbt.so (2013.1, Build901 2013/11/27)

>  <Rbt.Parameter_File>
/export/apps/rDock/src/rDock_2013.1_src/data/scripts/dock_solv.prm

>  <Rbt.Receptor>
prm/pocket_docking_6.prm

>  <SCORE>
-23.9853

>  <SCORE.INTER>
-23.9853

>  <SCORE.INTER.CONST>
1

>  <SCORE.INTER.POLAR>
0

>  <SCORE.INTER.ROT>
0

>  <SCORE.INTER.SOLV>
11.3514

>  <SCORE.INTER.VDW>
-23.374

>  <SCORE.INTER.norm>
-1.84502

>  <SCORE.INTRA>
0

>  <SCORE.INTRA.DIHEDRAL>
0

>  <SCORE.INTRA.DIHEDRAL.0>
0

>  <SCORE.INTRA.POLAR>
0

>  <SCORE.INTRA.POLAR.0>
0

>  <SCORE.INTRA.REPUL>
0

>  <SCORE.INTRA.REPUL.0>
0

>  <SCORE.INTRA.SOLV>
0

>  <SCORE.INTRA.SOLV.lig_0>
-33.1994

>  <SCORE.INTRA.VDW>
0

>  <SCORE.INTRA.VDW.0>
0

>  <SCORE.INTRA.norm>
0

>  <SCORE.RESTR>
0

>  <SCORE.RESTR.CAVITY>
0

>  <SCORE.RESTR.norm>
0

>  <SCORE.SYSTEM>
0

>  <SCORE.SYSTEM.CONST>
0

>  <SCORE.SYSTEM.DIHEDRAL>
0

>  <SCORE.SYSTEM.SOLV>
0

>  <SCORE.SYSTEM.norm>
0

>  <SCORE.heavy>
13

>  <SCORE.norm>
-1.84502

>  <RMSD>
4.908

$$$$
ligand
 OpenBabel11021811473D
libRbt.so/2013.1/901 2013/11/27
 13 14  0  0  0  0  0  0  0  0999 V2000
   36.4781   32.0720   26.6979 N   0  0  0  0  0  0  0  0  0  0  0  0
   37.6087   33.1779   26.7926 C   0  0  0  0  0  0  0  0  0  0  0  0
   38.5773   33.0660   27.7708 N   0  0  0  0  0  0  0  0  0  0  0  0
   37.4581   34.0863   25.9232 N   0  0  0  0  0  0  0  0  0  0  0  0
   36.5431   34.2405   24.9468 C   0  0  0  0  0  0  0  0  0  0  0  0
   35.5522   33.3411   24.7891 C   0  0  0  0  0  0  0  0  0  0  0  0
   35.5107   32.1205   25.7909 C   0  0  0  0  0  0  0  0  0  0  0  0
   34.6334   31.3325   25.6395 O   0  0  0  0  0  0  0  0  0  0  0  0
   34.5974   33.7037   23.6366 C   0  0  0  0  0  0  0  0  0  0  0  0
   35.0831   34.8405   23.1254 C   0  0  0  0  0  0  0  0  0  0  0  0
   36.2012   35.3271   23.7475 N   0  0  0  0  0  0  0  0  0  0  0  0
   33.4205   32.9222   23.1941 C   0  0  0  0  0  0  0  0  0  0  0  0
   32.4988   32.2863   22.9061 N   0  0  0  0  0  0  0  0  0  0  0  0
  1  2  1  0  0  0  0
  1  7  1  0  0  0  0
  2  3  1  0  0  0  0
  2  4  2  0  0  0  0
  4  5  1  0  0  0  0
  5  6  2  0  0  0  0
  5 11  1  0  0  0  0
  6  7  1  0  0  0  0
  6  9  1  0  0  0  0
  7  8  2  0  0  0  0
  9 10  2  0  0  0  0
  9 12  1  0  0  0  0
 10 11  1  0  0  0  0
 12 13  3  0  0  0  0
M  END
>  <CHROM.1>
35.71124274,33.23075277,25.03622542,0.44282240,0.60978009,2.44804017

>  <Name>
ligand

>  <RI>
0

>  <Rbt.Current_Directory>
/home/itssahil/PROJECTS/Mol_Feturizer/New_Systems/rnas/3GCA

>  <Rbt.Executable>
rbdock ($Id: //depot/dev/client3/rdock/2013.1/src/exe/rbdock.cxx#4 $)

>  <Rbt.Library>
libRbt.so (2013.1, Build901 2013/11/27)

>  <Rbt.Parameter_File>
/export/apps/rDock/src/rDock_2013.1_src/data/scripts/dock_solv.prm

>  <Rbt.Receptor>
prm/pocket_docking_6.prm

>  <SCORE>
-23.9934

>  <SCORE.INTER>
-23.9934

>  <SCORE.INTER.CONST>
1

>  <SCORE.INTER.POLAR>
0

>  <SCORE.INTER.ROT>
0

>  <SCORE.INTER.SOLV>
11.1868

>  <SCORE.INTER.VDW>
-23.3245

>  <SCORE.INTER.norm>
-1.84565

>  <SCORE.INTRA>
0

>  <SCORE.INTRA.DIHEDRAL>
0

>  <SCORE.INTRA.DIHEDRAL.0>
0

>  <SCORE.INTRA.POLAR>
0

>  <SCORE.INTRA.POLAR.0>
0

>  <SCORE.INTRA.REPUL>
0

>  <SCORE.INTRA.REPUL.0>
0

>  <SCORE.INTRA.SOLV>
0

>  <SCORE.INTRA.SOLV.lig_0>
-33.1994

>  <SCORE.INTRA.VDW>
0

>  <SCORE.INTRA.VDW.0>
0

>  <SCORE.INTRA.norm>
0

>  <SCORE.RESTR>
0

>  <SCORE.RESTR.CAVITY>
0

>  <SCORE.RESTR.norm>
0

>  <SCORE.SYSTEM>
0

>  <SCORE.SYSTEM.CONST>
0

>  <SCORE.SYSTEM.DIHEDRAL>
0

>  <SCORE.SYSTEM.SOLV>
0

>  <SCORE.SYSTEM.norm>
0

>  <SCORE.heavy>
13

>  <SCORE.norm>
-1.84565

>  <RMSD>
4.909

$$$$
ligand
 OpenBabel11021811473D
libRbt.so/2013.1/901 2013/11/27
 13 14  0  0  0  0  0  0  0  0999 V2000
   36.8879   32.7866   26.6329 N   0  0  0  0  0  0  0  0  0  0  0  0
   37.9458   33.9516   26.4487 C   0  0  0  0  0  0  0  0  0  0  0  0
   38.9994   34.0485   27.3364 N   0  0  0  0  0  0  0  0  0  0  0  0
   37.6612   34.7003   25.4677 N   0  0  0  0  0  0  0  0  0  0  0  0
   36.6582   34.6482   24.5701 C   0  0  0  0  0  0  0  0  0  0  0  0
   35.7201   33.6840   24.6474 C   0  0  0  0  0  0  0  0  0  0  0  0
   35.8459   32.6385   25.8248 C   0  0  0  0  0  0  0  0  0  0  0  0
   35.0137   31.7912   25.8803 O   0  0  0  0  0  0  0  0  0  0  0  0
   34.6486   33.8071   23.5482 C   0  0  0  0  0  0  0  0  0  0  0  0
   35.0117   34.8717   22.8242 C   0  0  0  0  0  0  0  0  0  0  0  0
   36.1435   35.5098   23.2554 N   0  0  0  0  0  0  0  0  0  0  0  0
   33.4934   32.9039   23.3447 C   0  0  0  0  0  0  0  0  0  0  0  0
   32.5952   32.1824   23.2467 N   0  0  0  0  0  0  0  0  0  0  0  0
  1  2  1  0  0  0  0
  1  7  1  0  0  0  0
  2  3  1  0  0  0  0
  2  4  2  0  0  0  0
  4  5  1  0  0  0  0
  5  6  2  0  0  0  0
  5 11  1  0  0  0  0
  6  7  1  0  0  0  0
  6  9  1  0  0  0  0
  7  8  2  0  0  0  0
  9 10  2  0  0  0  0
  9 12  1  0  0  0  0
 10 11  1  0  0  0  0
 12 13  3  0  0  0  0
M  END
>  <CHROM.1>
35.90659404,33.62309091,24.89240108,0.31557865,0.58338316,2.36157895

>  <Name>
ligand

>  <RI>
0

>  <Rbt.Current_Directory>
/home/itssahil/PROJECTS/Mol_Feturizer/New_Systems/rnas/3GCA

>  <Rbt.Executable>
rbdock ($Id: //depot/dev/client3/rdock/2013.1/src/exe/rbdock.cxx#4 $)

>  <Rbt.Library>
libRbt.so (2013.1, Build901 2013/11/27)

>  <Rbt.Parameter_File>
/export/apps/rDock/src/rDock_2013.1_src/data/scripts/dock_solv.prm

>  <Rbt.Receptor>
prm/pocket_docking_2.prm

>  <SCORE>
-21.5522

>  <SCORE.INTER>
-22.5475

>  <SCORE.INTER.CONST>
1

>  <SCORE.INTER.POLAR>
0

>  <SCORE.INTER.ROT>
0

>  <SCORE.INTER.SOLV>
9.42244

>  <SCORE.INTER.VDW>
-21.7724

>  <SCORE.INTER.norm>
-1.73442

>  <SCORE.INTRA>
0

>  <SCORE.INTRA.DIHEDRAL>
0

>  <SCORE.INTRA.DIHEDRAL.0>
0

>  <SCORE.INTRA.POLAR>
0

>  <SCORE.INTRA.POLAR.0>
0

>  <SCORE.INTRA.REPUL>
0

>  <SCORE.INTRA.REPUL.0>
0

>  <SCORE.INTRA.SOLV>
0

>  <SCORE.INTRA.SOLV.lig_0>
-33.1994

>  <SCORE.INTRA.VDW>
0

>  <SCORE.INTRA.VDW.0>
0

>  <SCORE.INTRA.norm>
0

>  <SCORE.RESTR>
0.995212

>  <SCORE.RESTR.CAVITY>
0.995212

>  <SCORE.RESTR.norm>
0.0765548

>  <SCORE.SYSTEM>
0

>  <SCORE.SYSTEM.CONST>
0

>  <SCORE.SYSTEM.DIHEDRAL>
0

>  <SCORE.SYSTEM.SOLV>
0

>  <SCORE.SYSTEM.norm>
0

>  <SCORE.heavy>
13

>  <SCORE.norm>
-1.65786

>  <RMSD>
4.986

$$$$
ligand
 OpenBabel11021811473D
libRbt.so/2013.1/901 2013/11/27
 13 14  0  0  0  0  0  0  0  0999 V2000
   37.0298   32.6861   26.7081 N   0  0  0  0  0  0  0  0  0  0  0  0
   38.0422   33.8995   26.5942 C   0  0  0  0  0  0  0  0  0  0  0  0
   39.0892   33.9870   27.4906 N   0  0  0  0  0  0  0  0  0  0  0  0
   37.7310   34.6906   25.6555 N   0  0  0  0  0  0  0  0  0  0  0  0
   36.7328   34.6504   24.7520 C   0  0  0  0  0  0  0  0  0  0  0  0
   35.8326   33.6479   24.7710 C   0  0  0  0  0  0  0  0  0  0  0  0
   35.9961   32.5436   25.8884 C   0  0  0  0  0  0  0  0  0  0  0  0
   35.1973   31.6630   25.8927 O   0  0  0  0  0  0  0  0  0  0  0  0
   34.7595   33.7911   23.6757 C   0  0  0  0  0  0  0  0  0  0  0  0
   35.0827   34.9080   23.0141 C   0  0  0  0  0  0  0  0  0  0  0  0
   36.1880   35.5640   23.4854 N   0  0  0  0  0  0  0  0  0  0  0  0
   33.6407   32.8569   23.4168 C   0  0  0  0  0  0  0  0  0  0  0  0
   32.7714   32.1080   23.2745 N   0  0  0  0  0  0  0  0  0  0  0  0
  1  2  1  0  0  0  0
  1  7  1  0  0  0  0
  2  3  1  0  0  0  0
  2  4  2  0  0  0  0
  4  5  1  0  0  0  0
  5  6  2  0  0  0  0
  5 11  1  0  0  0  0
  6  7  1  0  0  0  0
  6  9  1  0  0  0  0
  7  8  2  0  0  0  0
  9 10  2  0  0  0  0
  9 12  1  0  0  0  0
 10 11  1  0  0  0  0
 12 13  3  0  0  0  0
M  END
>  <CHROM.1>
36.02071815,33.58057898,25.01296905,0.28382321,0.61201065,2.43563187

>  <Name>
ligand

>  <RI>
0

>  <Rbt.Current_Directory>
/home/itssahil/PROJECTS/Mol_Feturizer/New_Systems/rnas/3GCA

>  <Rbt.Executable>
rbdock ($Id: //depot/dev/client3/rdock/2013.1/src/exe/rbdock.cxx#4 $)

>  <Rbt.Library>
libRbt.so (2013.1, Build901 2013/11/27)

>  <Rbt.Parameter_File>
/export/apps/rDock/src/rDock_2013.1_src/data/scripts/dock_solv.prm

>  <Rbt.Receptor>
prm/pocket_docking_3.prm

>  <SCORE>
-22.8985

>  <SCORE.INTER>
-22.8985

>  <SCORE.INTER.CONST>
1

>  <SCORE.INTER.POLAR>
0

>  <SCORE.INTER.ROT>
0

>  <SCORE.INTER.SOLV>
9.24664

>  <SCORE.INTER.VDW>
-21.9479

>  <SCORE.INTER.norm>
-1.76142

>  <SCORE.INTRA>
0

>  <SCORE.INTRA.DIHEDRAL>
0

>  <SCORE.INTRA.DIHEDRAL.0>
0

>  <SCORE.INTRA.POLAR>
0

>  <SCORE.INTRA.POLAR.0>
0

>  <SCORE.INTRA.REPUL>
0

>  <SCORE.INTRA.REPUL.0>
0

>  <SCORE.INTRA.SOLV>
0

>  <SCORE.INTRA.SOLV.lig_0>
-33.1994

>  <SCORE.INTRA.VDW>
0

>  <SCORE.INTRA.VDW.0>
0

>  <SCORE.INTRA.norm>
0

>  <SCORE.RESTR>
0

>  <SCORE.RESTR.CAVITY>
0

>  <SCORE.RESTR.norm>
0

>  <SCORE.SYSTEM>
0

>  <SCORE.SYSTEM.CONST>
0

>  <SCORE.SYSTEM.DIHEDRAL>
0

>  <SCORE.SYSTEM.SOLV>
0

>  <SCORE.SYSTEM.norm>
0

>  <SCORE.heavy>
13

>  <SCORE.norm>
-1.76142

>  <RMSD>
4.996

$$$$
ligand
 OpenBabel11021811473D
libRbt.so/2013.1/901 2013/11/27
 13 14  0  0  0  0  0  0  0  0999 V2000
   35.3517   32.2064   37.5631 N   0  0  0  0  0  0  0  0  0  0  0  0
   35.8418   31.7864   36.1162 C   0  0  0  0  0  0  0  0  0  0  0  0
   36.4880   30.5770   35.9508 N   0  0  0  0  0  0  0  0  0  0  0  0
   35.5825   32.6741   35.2510 N   0  0  0  0  0  0  0  0  0  0  0  0
   34.9521   33.8599   35.3542 C   0  0  0  0  0  0  0  0  0  0  0  0
   34.4943   34.2902   36.5463 C   0  0  0  0  0  0  0  0  0  0  0  0
   34.7337   33.3569   37.7980 C   0  0  0  0  0  0  0  0  0  0  0  0
   34.3226   33.7464   38.8434 O   0  0  0  0  0  0  0  0  0  0  0  0
   33.8249   35.6745   36.4621 C   0  0  0  0  0  0  0  0  0  0  0  0
   33.9013   36.0214   35.1724 C   0  0  0  0  0  0  0  0  0  0  0  0
   34.5280   35.1135   34.3619 N   0  0  0  0  0  0  0  0  0  0  0  0
   33.2095   36.4205   37.5829 C   0  0  0  0  0  0  0  0  0  0  0  0
   32.7652   36.9703   38.4980 N   0  0  0  0  0  0  0  0  0  0  0  0
  1  2  1  0  0  0  0
  1  7  1  0  0  0  0
  2  3  1  0  0  0  0
  2  4  2  0  0  0  0
  4  5  1  0  0  0  0
  5  6  2  0  0  0  0
  5 11  1  0  0  0  0
  6  7  1  0  0  0  0
  6  9  1  0  0  0  0
  7  8  2  0  0  0  0
  9 10  2  0  0  0  0
  9 12  1  0  0  0  0
 10 11  1  0  0  0  0
 12 13  3  0  0  0  0
M  END
>  <CHROM.1>
34.62742795,34.01444541,36.61531038,0.11324601,-1.07418411,1.94656634

>  <Name>
ligand

>  <RI>
0

>  <Rbt.Current_Directory>
/home/itssahil/PROJECTS/Mol_Feturizer/New_Systems/rnas/3GCA

>  <Rbt.Executable>
rbdock ($Id: //depot/dev/client3/rdock/2013.1/src/exe/rbdock.cxx#4 $)

>  <Rbt.Library>
libRbt.so (2013.1, Build901 2013/11/27)

>  <Rbt.Parameter_File>
/export/apps/rDock/src/rDock_2013.1_src/data/scripts/dock_solv.prm

>  <Rbt.Receptor>
prm/blind_docking_100.prm

>  <SCORE>
-12.1679

>  <SCORE.INTER>
-12.1679

>  <SCORE.INTER.CONST>
1

>  <SCORE.INTER.POLAR>
0

>  <SCORE.INTER.ROT>
0

>  <SCORE.INTER.SOLV>
12.291

>  <SCORE.INTER.VDW>
-15.8089

>  <SCORE.INTER.norm>
-0.935993

>  <SCORE.INTRA>
0

>  <SCORE.INTRA.DIHEDRAL>
0

>  <SCORE.INTRA.DIHEDRAL.0>
0

>  <SCORE.INTRA.POLAR>
0

>  <SCORE.INTRA.POLAR.0>
0

>  <SCORE.INTRA.REPUL>
0

>  <SCORE.INTRA.REPUL.0>
0

>  <SCORE.INTRA.SOLV>
0

>  <SCORE.INTRA.SOLV.lig_0>
-33.1994

>  <SCORE.INTRA.VDW>
0

>  <SCORE.INTRA.VDW.0>
0

>  <SCORE.INTRA.norm>
0

>  <SCORE.RESTR>
0

>  <SCORE.RESTR.CAVITY>
0

>  <SCORE.RESTR.norm>
0

>  <SCORE.SYSTEM>
0

>  <SCORE.SYSTEM.CONST>
0

>  <SCORE.SYSTEM.DIHEDRAL>
0

>  <SCORE.SYSTEM.SOLV>
0

>  <SCORE.SYSTEM.norm>
0

>  <SCORE.heavy>
13

>  <SCORE.norm>
-0.935993

>  <RMSD>
12.436

$$$$
ligand
 OpenBabel11021811473D
libRbt.so/2013.1/901 2013/11/27
 13 14  0  0  0  0  0  0  0  0999 V2000
   35.3441   32.2218   37.5674 N   0  0  0  0  0  0  0  0  0  0  0  0
   35.8337   31.7971   36.1216 C   0  0  0  0  0  0  0  0  0  0  0  0
   36.4815   30.5881   35.9602 N   0  0  0  0  0  0  0  0  0  0  0  0
   35.5724   32.6813   35.2534 N   0  0  0  0  0  0  0  0  0  0  0  0
   34.9404   33.8666   35.3527 C   0  0  0  0  0  0  0  0  0  0  0  0
   34.4830   34.3006   36.5435 C   0  0  0  0  0  0  0  0  0  0  0  0
   34.7246   33.3723   37.7985 C   0  0  0  0  0  0  0  0  0  0  0  0
   34.3138   33.7652   38.8427 O   0  0  0  0  0  0  0  0  0  0  0  0
   33.8115   35.6837   36.4547 C   0  0  0  0  0  0  0  0  0  0  0  0
   33.8863   36.0258   35.1637 C   0  0  0  0  0  0  0  0  0  0  0  0
   34.5137   35.1158   34.3560 N   0  0  0  0  0  0  0  0  0  0  0  0
   33.1959   36.4329   37.5733 C   0  0  0  0  0  0  0  0  0  0  0  0
   32.7515   36.9855   38.4866 N   0  0  0  0  0  0  0  0  0  0  0  0
  1  2  1  0  0  0  0
  1  7  1  0  0  0  0
  2  3  1  0  0  0  0
  2  4  2  0  0  0  0
  4  5  1  0  0  0  0
  5  6  2  0  0  0  0
  5 11  1  0  0  0  0
  6  7  1  0  0  0  0
  6  9  1  0  0  0  0
  7  8  2  0  0  0  0
  9 10  2  0  0  0  0
  9 12  1  0  0  0  0
 10 11  1  0  0  0  0
 12 13  3  0  0  0  0
M  END
>  <CHROM.1>
34.61651450,34.02531804,36.61343678,0.11059653,-1.07313457,1.94051838

>  <Name>
ligand

>  <RI>
0

>  <Rbt.Current_Directory>
/home/itssahil/PROJECTS/Mol_Feturizer/New_Systems/rnas/3GCA

>  <Rbt.Executable>
rbdock ($Id: //depot/dev/client3/rdock/2013.1/src/exe/rbdock.cxx#4 $)

>  <Rbt.Library>
libRbt.so (2013.1, Build901 2013/11/27)

>  <Rbt.Parameter_File>
/export/apps/rDock/src/rDock_2013.1_src/data/scripts/dock_solv.prm

>  <Rbt.Receptor>
prm/blind_docking_80.prm

>  <SCORE>
-12.2016

>  <SCORE.INTER>
-12.2016

>  <SCORE.INTER.CONST>
1

>  <SCORE.INTER.POLAR>
0

>  <SCORE.INTER.ROT>
0

>  <SCORE.INTER.SOLV>
12.241

>  <SCORE.INTER.VDW>
-15.8148

>  <SCORE.INTER.norm>
-0.938586

>  <SCORE.INTRA>
0

>  <SCORE.INTRA.DIHEDRAL>
0

>  <SCORE.INTRA.DIHEDRAL.0>
0

>  <SCORE.INTRA.POLAR>
0

>  <SCORE.INTRA.POLAR.0>
0

>  <SCORE.INTRA.REPUL>
0

>  <SCORE.INTRA.REPUL.0>
0

>  <SCORE.INTRA.SOLV>
0

>  <SCORE.INTRA.SOLV.lig_0>
-33.1994

>  <SCORE.INTRA.VDW>
0

>  <SCORE.INTRA.VDW.0>
0

>  <SCORE.INTRA.norm>
0

>  <SCORE.RESTR>
0

>  <SCORE.RESTR.CAVITY>
0

>  <SCORE.RESTR.norm>
0

>  <SCORE.SYSTEM>
0

>  <SCORE.SYSTEM.CONST>
0

>  <SCORE.SYSTEM.DIHEDRAL>
0

>  <SCORE.SYSTEM.SOLV>
0

>  <SCORE.SYSTEM.norm>
0

>  <SCORE.heavy>
13

>  <SCORE.norm>
-0.938586

>  <RMSD>
12.436

$$$$
ligand
 OpenBabel11021811473D
libRbt.so/2013.1/901 2013/11/27
 13 14  0  0  0  0  0  0  0  0999 V2000
   35.3847   32.2507   37.5766 N   0  0  0  0  0  0  0  0  0  0  0  0
   35.8622   31.8222   36.1279 C   0  0  0  0  0  0  0  0  0  0  0  0
   36.5138   30.6153   35.9652 N   0  0  0  0  0  0  0  0  0  0  0  0
   35.5887   32.7015   35.2586 N   0  0  0  0  0  0  0  0  0  0  0  0
   34.9523   33.8844   35.3591 C   0  0  0  0  0  0  0  0  0  0  0  0
   34.5045   34.3214   36.5525 C   0  0  0  0  0  0  0  0  0  0  0  0
   34.7624   33.3994   37.8089 C   0  0  0  0  0  0  0  0  0  0  0  0
   34.3599   33.7948   38.8554 O   0  0  0  0  0  0  0  0  0  0  0  0
   33.8261   35.7011   36.4645 C   0  0  0  0  0  0  0  0  0  0  0  0
   33.8869   36.0382   35.1714 C   0  0  0  0  0  0  0  0  0  0  0  0
   34.5105   35.1276   34.3615 N   0  0  0  0  0  0  0  0  0  0  0  0
   33.2179   36.4522   37.5858 C   0  0  0  0  0  0  0  0  0  0  0  0
   32.7799   37.0066   38.5011 N   0  0  0  0  0  0  0  0  0  0  0  0
  1  2  1  0  0  0  0
  1  7  1  0  0  0  0
  2  3  1  0  0  0  0
  2  4  2  0  0  0  0
  4  5  1  0  0  0  0
  5  6  2  0  0  0  0
  5 11  1  0  0  0  0
  6  7  1  0  0  0  0
  6  9  1  0  0  0  0
  7  8  2  0  0  0  0
  9 10  2  0  0  0  0
  9 12  1  0  0  0  0
 10 11  1  0  0  0  0
 12 13  3  0  0  0  0
M  END
>  <CHROM.1>
34.63992337,34.04698435,36.62228255,0.08843560,-1.07236526,1.91691147

>  <Name>
ligand

>  <RI>
0

>  <Rbt.Current_Directory>
/home/itssahil/PROJECTS/Mol_Feturizer/New_Systems/rnas/3GCA

>  <Rbt.Executable>
rbdock ($Id: //depot/dev/client3/rdock/2013.1/src/exe/rbdock.cxx#4 $)

>  <Rbt.Library>
libRbt.so (2013.1, Build901 2013/11/27)

>  <Rbt.Parameter_File>
/export/apps/rDock/src/rDock_2013.1_src/data/scripts/dock_solv.prm

>  <Rbt.Receptor>
prm/blind_docking_80.prm

>  <SCORE>
-12.1223

>  <SCORE.INTER>
-12.1223

>  <SCORE.INTER.CONST>
1

>  <SCORE.INTER.POLAR>
0

>  <SCORE.INTER.ROT>
0

>  <SCORE.INTER.SOLV>
12.2718

>  <SCORE.INTER.VDW>
-15.7721

>  <SCORE.INTER.norm>
-0.932486

>  <SCORE.INTRA>
0

>  <SCORE.INTRA.DIHEDRAL>
0

>  <SCORE.INTRA.DIHEDRAL.0>
0

>  <SCORE.INTRA.POLAR>
0

>  <SCORE.INTRA.POLAR.0>
0

>  <SCORE.INTRA.REPUL>
0

>  <SCORE.INTRA.REPUL.0>
0

>  <SCORE.INTRA.SOLV>
0

>  <SCORE.INTRA.SOLV.lig_0>
-33.1994

>  <SCORE.INTRA.VDW>
0

>  <SCORE.INTRA.VDW.0>
0

>  <SCORE.INTRA.norm>
0

>  <SCORE.RESTR>
0

>  <SCORE.RESTR.CAVITY>
0

>  <SCORE.RESTR.norm>
0

>  <SCORE.SYSTEM>
0

>  <SCORE.SYSTEM.CONST>
0

>  <SCORE.SYSTEM.DIHEDRAL>
0

>  <SCORE.SYSTEM.SOLV>
0

>  <SCORE.SYSTEM.norm>
0

>  <SCORE.heavy>
13

>  <SCORE.norm>
-0.932486

>  <RMSD>
12.444

$$$$
