@<TRIPOS>MOLECULE
3GCA_rdock.pdb
 702 786 0 0 0
SMALL
GASTEIGER

@<TRIPOS>ATOM
      1  C5'       31.0440   50.7620   22.7030 C.3     1  C1          0.2141
      2  O5'       30.3640   49.5930   22.2500 O.3     1  C1         -0.2176
      3  C4'       31.3270   50.9430   24.1850 C.3     1  C1          0.1802
      4  O4'       30.1270   50.7070   24.9650 O.3     1  C1         -0.3306
      5  C3'       32.3120   50.0130   24.8610 C.3     1  C1          0.1861
      6  O3'       33.6430   50.3810   24.6070 O.3     1  C1         -0.3112
      7  C2'       32.0080   50.2660   26.3280 C.3     1  C1          0.2309
      8  O2'       32.5560   51.4790   26.7980 O.3     1  C1         -0.2156
      9  C1'       30.4910   50.3830   26.2980 C.3     1  C1          0.2420
     10  N1        29.8530   49.1200   26.6870 N.ar    1  C1         -0.2535
     11  C2        29.8080   48.8050   28.0290 C.ar    1  C1          0.3532
     12  O2        30.3380   49.5890   28.8320 O.2     1  C1         -0.2443
     13  N3        29.1960   47.6600   28.4290 N.ar    1  C1         -0.1739
     14  C4        28.6510   46.8490   27.5240 C.ar    1  C1          0.1759
     15  N4        28.0430   45.7370   27.9590 N.pl3   1  C1         -0.1070
     16  C5        28.7030   47.1400   26.1360 C.ar    1  C1          0.0566
     17  C6        29.3100   48.2750   25.7640 C.ar    1  C1          0.0850
     18  P         34.7920   49.2870   24.7760 P.3     2  U2          0.2141
     19  C5'       35.2200   50.0350   27.2370 C.3     2  U2          0.1812
     20  O5'       34.8170   49.0070   26.3400 O.3     2  U2         -0.3114
     21  C4'       35.1060   49.5720   28.6620 C.3     2  U2          0.1773
     22  O4'       33.7150   49.3140   28.9740 O.3     2  U2         -0.3307
     23  C3'       35.7850   48.2660   29.0190 C.3     2  U2          0.1860
     24  O3'       37.1810   48.4520   29.2240 O.3     2  U2         -0.3112
     25  C2'       35.0780   47.9360   30.3260 C.3     2  U2          0.2309
     26  O2'       35.5460   48.7250   31.4010 O.3     2  U2         -0.2156
     27  C1'       33.6410   48.3380   30.0010 C.3     2  U2          0.2420
     28  N1        32.8660   47.1920   29.5080 N.ar    2  U2         -0.2534
     29  C2        32.4160   46.2850   30.4440 C.ar    2  U2          0.3546
     30  O2        32.6590   46.3880   31.6320 O.2     2  U2         -0.2443
     31  N3        31.6770   45.2470   29.9440 N.ar    2  U2         -0.1530
     32  C4        31.3580   45.0190   28.6350 C.ar    2  U2          0.2846
     33  O4        30.7270   44.0030   28.3350 O.2     2  U2         -0.2650
     34  C5        31.8710   45.9900   27.7220 C.ar    2  U2          0.0814
     35  C6        32.5930   47.0200   28.1770 C.ar    2  U2          0.0870
     36  OP1       36.0750   49.9510   24.4140 O.3     2  U2         -0.4373
     37  OP2       34.3570   48.0440   24.0690 O.co2   2  U2         -0.5172
     38  P         38.1820   47.1900   29.1470 P.3     3  G3          0.2141
     39  C5'       38.0270   46.9760   31.7780 C.3     3  G3          0.1812
     40  O5'       37.9070   46.3690   30.4890 O.3     3  G3         -0.3114
     41  C4'       37.6400   45.9820   32.8470 C.3     3  G3          0.1773
     42  O4'       36.2120   45.7530   32.8340 O.3     3  G3         -0.3307
     43  C3'       38.2000   44.6030   32.5980 C.3     3  G3          0.1860
     44  O3'       39.5050   44.5140   33.0950 O.3     3  G3         -0.3112
     45  C2'       37.2700   43.6990   33.3850 C.3     3  G3          0.2309
     46  O2'       37.5700   43.6400   34.7600 O.3     3  G3         -0.2156
     47  C1'       35.9440   44.4110   33.1950 C.3     3  G3          0.2408
     48  N1        32.6920   40.7620   32.0350 N.ar    3  G3         -0.1709
     49  C2        33.2590   41.0680   33.2390 C.ar    3  G3          0.2606
     50  N2        32.8680   40.2910   34.2960 N.pl3   3  G3         -0.0859
     51  N3        34.1290   42.0520   33.4040 N.ar    3  G3         -0.1918
     52  C4        34.3690   42.7060   32.2680 C.ar    3  G3          0.1723
     53  C5        33.8560   42.4810   31.0100 C.ar    3  G3          0.1748
     54  C6        32.9370   41.4270   30.8460 C.ar    3  G3          0.3023
     55  O6        32.3710   41.0640   29.8170 O.2     3  G3         -0.2633
     56  N7        34.3590   43.3770   30.0990 N.ar    3  G3         -0.2173
     57  C8        35.1530   44.1410   30.8050 C.ar    3  G3          0.1817
     58  N9        35.1860   43.7820   32.1130 N.ar    3  G3         -0.2693
     59  OP1       39.5370   47.8070   29.2010 O.3     3  G3         -0.4373
     60  OP2       37.8130   46.2870   28.0140 O.co2   3  G3         -0.5172
     61  P         40.4600   43.3810   32.5280 P.3     4  G4          0.2141
     62  C5'       40.0500   40.8700   32.9230 C.3     4  G4          0.1812
     63  O5'       40.1610   42.1490   33.4680 O.3     4  G4         -0.3114
     64  C4'       39.0140   40.1220   33.6760 C.3     4  G4          0.1773
     65  O4'       37.7200   40.7170   33.4570 O.3     4  G4         -0.3307
     66  C3'       38.8530   38.6910   33.2430 C.3     4  G4          0.1860
     67  O3'       39.8370   37.9470   33.9240 O.3     4  G4         -0.3112
     68  C2'       37.4350   38.3680   33.6920 C.3     4  G4          0.2309
     69  O2'       37.3180   38.0360   35.0590 O.3     4  G4         -0.2156
     70  C1'       36.7350   39.6960   33.4110 C.3     4  G4          0.2408
     71  N1        33.3870   37.5830   30.2690 N.ar    4  G4         -0.1709
     72  C2        33.6600   37.2840   31.5750 C.ar    4  G4          0.2606
     73  N2        32.9290   36.2820   32.1180 N.pl3   4  G4         -0.0859
     74  N3        34.5740   37.9030   32.3000 N.ar    4  G4         -0.1918
     75  C4        35.1870   38.8770   31.6020 C.ar    4  G4          0.1723
     76  C5        34.9810   39.2460   30.3030 C.ar    4  G4          0.1748
     77  C6        34.0380   38.5600   29.5250 C.ar    4  G4          0.3023
     78  O6        33.7720   38.7080   28.3280 O.2     4  G4         -0.2633
     79  N7        35.8050   40.3170   29.9720 N.ar    4  G4         -0.2173
     80  C8        36.4830   40.5470   31.0540 C.ar    4  G4          0.1817
     81  N9        36.1570   39.7030   32.0880 N.ar    4  G4         -0.2693
     82  OP1       41.8480   43.8330   32.7600 O.3     4  G4         -0.4373
     83  OP2       39.9960   43.0220   31.1530 O.co2   4  G4         -0.5172
     84  P         40.6520   36.8180   33.1410 P.3     5  G5          0.2141
     85  C5'       38.9890   35.0520   34.0920 C.3     5  G5          0.1812
     86  O5'       39.5800   35.6590   32.9600 O.3     5  G5         -0.3114
     87  C4'       37.8010   34.2260   33.6700 C.3     5  G5          0.1773
     88  O4'       36.8300   35.0920   33.0330 O.3     5  G5         -0.3307
     89  C3'       38.0500   33.1510   32.6220 C.3     5  G5          0.1860
     90  O3'       38.5110   31.9500   33.2270 O.3     5  G5         -0.3112
     91  C2'       36.6580   32.9360   32.0370 C.3     5  G5          0.2309
     92  O2'       35.8590   32.0910   32.8490 O.3     5  G5         -0.2156
     93  C1'       36.0960   34.3540   32.0680 C.3     5  G5          0.2408
     94  N1        33.8590   34.8560   27.5560 N.ar    5  G5         -0.1709
     95  C2        33.6340   33.9430   28.5620 C.ar    5  G5          0.2606
     96  N2        32.6220   33.0680   28.3600 N.pl3   5  G5         -0.0859
     97  N3        34.3390   33.8850   29.6800 N.ar    5  G5         -0.1918
     98  C4        35.3010   34.8210   29.7240 C.ar    5  G5          0.1723
     99  C5        35.6300   35.7730   28.7780 C.ar    5  G5          0.1748
    100  C6        34.8530   35.8340   27.5680 C.ar    5  G5          0.3023
    101  O6        34.9700   36.6140   26.6000 O.2     5  G5         -0.2633
    102  N7        36.7020   36.5390   29.2070 N.ar    5  G5         -0.2173
    103  C8        36.9820   36.0670   30.3980 C.ar    5  G5          0.1817
    104  N9        36.1470   35.0490   30.7800 N.ar    5  G5         -0.2693
    105  OP1       41.7240   36.3250   34.0500 O.3     5  G5         -0.4373
    106  OP2       41.0080   37.4020   31.8220 O.co2   5  G5         -0.5172
    107  P         39.3980   30.9180   32.3730 P.3     6  U6          0.2141
    108  C5'       38.5130   28.8250   33.6530 C.3     6  U6          0.1812
    109  O5'       38.5720   29.5570   32.4370 O.3     6  U6         -0.3114
    110  C4'       37.4160   27.7970   33.6020 C.3     6  U6          0.1773
    111  O4'       36.1450   28.4550   33.4130 O.3     6  U6         -0.3307
    112  C3'       37.4900   26.8200   32.4490 C.3     6  U6          0.1860
    113  O3'       38.3860   25.7770   32.7680 O.3     6  U6         -0.3112
    114  C2'       36.0470   26.3450   32.3380 C.3     6  U6          0.2309
    115  O2'       35.6490   25.4000   33.3070 O.3     6  U6         -0.2156
    116  C1'       35.3050   27.6430   32.6150 C.3     6  U6          0.2420
    117  N1        35.0960   28.3390   31.3550 N.ar    6  U6         -0.2534
    118  C2        34.0490   27.9210   30.5770 C.ar    6  U6          0.3546
    119  O2        33.2980   27.0170   30.9070 O.2     6  U6         -0.2443
    120  N3        33.9090   28.5990   29.4030 N.ar    6  U6         -0.1530
    121  C4        34.6970   29.6290   28.9550 C.ar    6  U6          0.2846
    122  O4        34.4350   30.1540   27.8780 O.2     6  U6         -0.2650
    123  C5        35.7660   30.0000   29.8350 C.ar    6  U6          0.0814
    124  C6        35.9210   29.3530   30.9760 C.ar    6  U6          0.0870
    125  OP1       40.6620   30.6950   33.1250 O.3     6  U6         -0.4373
    126  OP2       39.4560   31.4440   30.9850 O.co2   6  U6         -0.5172
    127  P         39.5410   25.3920   31.7310 P.3     7  C7          0.2141
    128  C5'       37.7400   23.8410   30.6690 C.3     7  C7          0.1812
    129  O5'       38.7240   24.8430   30.4850 O.3     7  C7         -0.3114
    130  C4'       36.7250   23.9060   29.5570 C.3     7  C7          0.1773
    131  O4'       36.1620   25.2430   29.5320 O.3     7  C7         -0.3307
    132  C3'       37.2680   23.7380   28.1460 C.3     7  C7          0.1860
    133  O3'       37.4040   22.3680   27.8180 O.3     7  C7         -0.3112
    134  C2'       36.1830   24.4020   27.3130 C.3     7  C7          0.2309
    135  O2'       35.0270   23.6150   27.1400 O.3     7  C7         -0.2156
    136  C1'       35.8330   25.5900   28.1990 C.3     7  C7          0.2420
    137  N1        36.6150   26.7470   27.7920 N.ar    7  C7         -0.2535
    138  C2        36.2710   27.3500   26.6140 C.ar    7  C7          0.3532
    139  O2        35.3140   26.8820   25.9720 O.2     7  C7         -0.2443
    140  N3        36.9720   28.4220   26.1850 N.ar    7  C7         -0.1739
    141  C4        37.9890   28.8830   26.9070 C.ar    7  C7          0.1759
    142  N4        38.6460   29.9540   26.4390 N.pl3   7  C7         -0.1070
    143  C5        38.3710   28.2740   28.1320 C.ar    7  C7          0.0566
    144  C6        37.6590   27.2190   28.5360 C.ar    7  C7          0.0850
    145  OP1       40.3310   24.2540   32.3050 O.3     7  C7         -0.4373
    146  OP2       40.2260   26.6570   31.3380 O.co2   7  C7         -0.5172
    147  P         38.8030   21.8160   27.2640 P.3     8  G8          0.2141
    148  C5'       40.2720   23.1640   25.6190 C.3     8  G8          0.1812
    149  O5'       39.6110   23.1220   26.8610 O.3     8  G8         -0.3114
    150  C4'       39.2500   23.1410   24.5080 C.3     8  G8          0.1773
    151  O4'       38.3770   24.2840   24.6380 O.3     8  G8         -0.3307
    152  C3'       39.7860   23.2500   23.1090 C.3     8  G8          0.1860
    153  O3'       39.9790   22.1360   22.3070 O.3     8  G8         -0.3112
    154  C2'       39.6820   24.6800   22.6470 C.3     8  G8          0.2309
    155  O2'       39.1290   24.7000   21.3490 O.3     8  G8         -0.2156
    156  C1'       38.7220   25.2810   23.6790 C.3     8  G8          0.2408
    157  N1        40.9990   29.8280   23.6220 N.ar    8  G8         -0.1709
    158  C2        40.1470   29.2910   22.7000 C.ar    8  G8          0.2606
    159  N2        39.8980   30.0620   21.6220 N.pl3   8  G8         -0.0859
    160  N3        39.5800   28.1020   22.8240 N.ar    8  G8         -0.1918
    161  C4        39.9240   27.5010   23.9870 C.ar    8  G8          0.1723
    162  C5        40.7540   27.9720   24.9820 C.ar    8  G8          0.1748
    163  C6        41.3790   29.2240   24.8180 C.ar    8  G8          0.3023
    164  O6        42.1860   29.7920   25.5700 O.2     8  G8         -0.2633
    165  N7        40.8230   27.0640   26.0320 N.ar    8  G8         -0.2173
    166  C8        40.0700   26.0760   25.6490 C.ar    8  G8          0.1817
    167  N9        39.5150   26.2590   24.4030 N.ar    8  G8         -0.2693
    168  OP1       38.5210   21.0380   26.0190 O.2     8  G8         -0.5172
    169  OP2       39.5020   21.1640   28.4050 O.co2   8  G8         -0.4373
    170  P         41.3850   21.4100   22.3890 P.3     9  C9          0.2141
    171  C5'       43.7560   22.4240   22.4110 C.3     9  C9          0.1812
    172  O5'       42.4040   22.5750   22.0530 O.3     9  C9         -0.3114
    173  C4'       44.6060   23.2140   21.4740 C.3     9  C9          0.1773
    174  O4'       44.3410   22.7740   20.1190 O.3     9  C9         -0.3307
    175  C3'       44.2230   24.6770   21.4090 C.3     9  C9          0.1860
    176  O3'       44.7850   25.3910   22.4830 O.3     9  C9         -0.3112
    177  C2'       44.8180   25.0950   20.0790 C.3     9  C9          0.2309
    178  O2'       46.2210   25.2510   20.1310 O.3     9  C9         -0.2156
    179  C1'       44.5040   23.8680   19.2340 C.3     9  C9          0.2420
    180  N1        43.2780   24.0300   18.4440 N.ar    9  C9         -0.2535
    181  C2        43.2670   25.0150   17.4530 C.ar    9  C9          0.3532
    182  O2        44.2320   25.7830   17.3760 O.2     9  C9         -0.2443
    183  N3        42.2070   25.1140   16.6260 N.ar    9  C9         -0.1739
    184  C4        41.1700   24.2970   16.7880 C.ar    9  C9          0.1759
    185  N4        40.1630   24.4090   15.9360 N.pl3   9  C9         -0.1070
    186  C5        41.1240   23.3220   17.8360 C.ar    9  C9          0.0566
    187  C6        42.1920   23.2250   18.6360 C.ar    9  C9          0.0850
    188  OP1       41.4520   20.3520   21.3500 O.2     9  C9         -0.5172
    189  OP2       41.6230   21.0660   23.8190 O.co2   9  C9         -0.4373
    190  P         43.8730   26.4170   23.3060 P.3    10  A10         0.2141
    191  C5'       44.7560   28.3220   21.7760 C.3    10  A10         0.1812
    192  O5'       43.6460   27.6200   22.2920 O.3    10  A10        -0.3114
    193  C4'       44.3870   28.9530   20.4680 C.3    10  A10         0.1773
    194  O4'       43.8670   27.9170   19.6010 O.3    10  A10        -0.3307
    195  C3'       43.2700   29.9770   20.5420 C.3    10  A10         0.1860
    196  O3'       43.8060   31.2570   20.8660 O.3    10  A10        -0.3112
    197  C2'       42.6740   29.9260   19.1340 C.3    10  A10         0.2309
    198  O2'       43.3670   30.7040   18.1730 O.3    10  A10        -0.2156
    199  C1'       42.8300   28.4440   18.7920 C.3    10  A10         0.2408
    200  N1        38.1890   27.2100   16.9020 N.ar   10  A10        -0.2040
    201  C2        39.1300   28.0870   16.5200 C.ar   10  A10         0.2016
    202  N3        40.3170   28.3660   17.0680 N.ar   10  A10        -0.2048
    203  C4        40.5200   27.6220   18.1620 C.ar   10  A10         0.1692
    204  C5        39.6550   26.6790   18.6930 C.ar   10  A10         0.1518
    205  C6        38.4210   26.4670   18.0040 C.ar   10  A10         0.1919
    206  N6        37.4910   25.5810   18.3810 N.pl3  10  A10        -0.1054
    207  N7        40.2000   26.1170   19.8420 N.ar   10  A10        -0.2193
    208  C8        41.3620   26.7160   19.9690 C.ar   10  A10         0.1816
    209  N9        41.6270   27.6310   18.9810 N.ar   10  A10        -0.2693
    210  OP1       44.7090   26.9220   24.4210 O.3    10  A10        -0.4373
    211  OP2       42.6060   25.7040   23.5990 O.co2  10  A10        -0.5172
    212  P         43.2500   32.0550   22.1510 P.3    11  G11         0.2141
    213  C5'       42.0080   33.8600   20.7680 C.3    11  G11         0.1812
    214  O5'       41.9210   32.7390   21.6300 O.3    11  G11        -0.3114
    215  C4'       40.7510   34.6610   20.8590 C.3    11  G11         0.1773
    216  O4'       39.6780   33.7170   20.6870 O.3    11  G11        -0.3307
    217  C3'       40.4800   35.3040   22.2120 C.3    11  G11         0.1860
    218  O3'       40.9370   36.6550   22.2710 O.3    11  G11        -0.3112
    219  C2'       38.9530   35.3580   22.2490 C.3    11  G11         0.2309
    220  O2'       38.3820   36.4770   21.5940 O.3    11  G11        -0.2156
    221  C1'       38.5770   34.0990   21.4760 C.3    11  G11         0.2408
    222  N1        35.2500   30.4070   22.0860 N.ar   11  G11        -0.1709
    223  C2        35.3100   31.3960   21.1300 C.ar   11  G11         0.2606
    224  N2        34.3580   31.3690   20.1710 N.pl3  11  G11        -0.0859
    225  N3        36.2360   32.3310   21.1070 N.ar   11  G11        -0.1918
    226  C4        37.1330   32.1790   22.1010 C.ar   11  G11         0.1723
    227  C5        37.1760   31.2290   23.0930 C.ar   11  G11         0.1748
    228  C6        36.1560   30.2450   23.1350 C.ar   11  G11         0.3023
    229  O6        35.9960   29.3280   23.9540 O.2    11  G11        -0.2633
    230  N7        38.2740   31.4310   23.9150 N.ar   11  G11        -0.2173
    231  C8        38.8600   32.4790   23.4070 C.ar   11  G11         0.1817
    232  N9        38.2130   32.9690   22.3050 N.ar   11  G11        -0.2693
    233  OP1       44.1860   33.1710   22.4820 O.2    11  G11        -0.5172
    234  OP2       42.8960   31.0550   23.1850 O.co2  11  G11        -0.4373
    235  P         42.3200   37.0920   21.5730 P.3    12  U12         0.2141
    236  C5'       40.9200   39.3250   21.6140 C.3    12  U12         0.1812
    237  O5'       42.1940   38.6800   21.5000 O.3    12  U12        -0.3114
    238  C4'       40.7760   40.3800   20.5450 C.3    12  U12         0.1773
    239  O4'       42.0410   41.0580   20.4740 O.3    12  U12        -0.3307
    240  C3'       40.5210   39.8870   19.1260 C.3    12  U12         0.1860
    241  O3'       39.1110   39.7880   18.8800 O.3    12  U12        -0.3112
    242  C2'       41.2200   40.9050   18.2260 C.3    12  U12         0.2309
    243  O2'       40.4110   41.9450   17.7250 O.3    12  U12        -0.2156
    244  C1'       42.2880   41.4820   19.1530 C.3    12  U12         0.2420
    245  N1        43.6760   41.1470   18.8170 N.ar   12  U12        -0.2534
    246  C2        44.3390   42.0180   17.9760 C.ar   12  U12         0.3546
    247  O2        43.7910   42.9910   17.4720 O.2    12  U12        -0.2443
    248  N3        45.6590   41.7070   17.7470 N.ar   12  U12        -0.1530
    249  C4        46.3570   40.6230   18.2550 C.ar   12  U12         0.2846
    250  O4        47.5480   40.4850   17.9700 O.2    12  U12        -0.2650
    251  C5        45.5840   39.7500   19.0940 C.ar   12  U12         0.0814
    252  C6        44.3000   40.0340   19.3370 C.ar   12  U12         0.0870
    253  OP1       42.4000   36.6160   20.1560 O.2    12  U12        -0.5172
    254  OP2       43.3890   36.7240   22.5410 O.co2  12  U12        -0.4373
    255  P         38.1050   40.9760   19.3500 P.3    13  A13         0.2141
    256  C5'       37.7250   41.9680   16.9560 C.3    13  A13         0.1812
    257  O5'       37.2000   41.2760   18.0760 O.3    13  A13        -0.3114
    258  C4'       37.2680   41.2990   15.6840 C.3    13  A13         0.1773
    259  O4'       38.1270   40.1950   15.3090 O.3    13  A13        -0.3307
    260  C3'       35.9060   40.6640   15.8110 C.3    13  A13         0.1860
    261  O3'       34.9400   41.6720   15.6940 O.3    13  A13        -0.3112
    262  C2'       35.8860   39.6480   14.6790 C.3    13  A13         0.2309
    263  O2'       35.4770   40.1990   13.4450 O.3    13  A13        -0.2156
    264  C1'       37.3550   39.2060   14.6420 C.3    13  A13         0.2408
    265  N1        36.2360   34.2000   14.8060 N.ar   13  A13        -0.2040
    266  C2        35.8020   35.1940   14.0160 C.ar   13  A13         0.2016
    267  N3        36.1360   36.4800   14.0240 N.ar   13  A13        -0.2048
    268  C4        37.0440   36.7220   14.9850 C.ar   13  A13         0.1692
    269  C5        37.5890   35.8070   15.8680 C.ar   13  A13         0.1518
    270  C6        37.1440   34.4830   15.7650 C.ar   13  A13         0.1919
    271  N6        37.5600   33.4950   16.5610 N.pl3  13  A13        -0.1054
    272  N7        38.4990   36.4240   16.7170 N.ar   13  A13        -0.2193
    273  C8        38.4790   37.6780   16.3400 C.ar   13  A13         0.1816
    274  N9        37.6160   37.9270   15.2960 N.ar   13  A13        -0.2693
    275  OP1       38.8530   42.2230   19.6820 O.2    13  A13        -0.5172
    276  OP2       37.1860   40.3760   20.3640 O.co2  13  A13        -0.4373
    277  P         33.9730   41.9520   16.9270 P.3    14  A14         0.2141
    278  C5'       32.3730   40.9480   15.1590 C.3    14  A14         0.1812
    279  O5'       32.7050   41.0930   16.5250 O.3    14  A14        -0.3114
    280  C4'       32.0790   39.5150   14.8540 C.3    14  A14         0.1773
    281  O4'       33.2960   38.7410   14.8110 O.3    14  A14        -0.3307
    282  C3'       31.3060   38.8130   15.9400 C.3    14  A14         0.1860
    283  O3'       29.9480   39.1520   15.8870 O.3    14  A14        -0.3112
    284  C2'       31.5370   37.3570   15.6000 C.3    14  A14         0.2309
    285  O2'       30.6920   36.9350   14.5530 O.3    14  A14        -0.2156
    286  C1'       32.9980   37.3970   15.1530 C.3    14  A14         0.2408
    287  N1        34.4770   33.5230   18.1740 N.ar   14  A14        -0.2040
    288  C2        33.5420   33.6220   17.2250 C.ar   14  A14         0.2016
    289  N3        33.2020   34.6680   16.4820 N.ar   14  A14        -0.2048
    290  C4        33.9590   35.7350   16.7880 C.ar   14  A14         0.1692
    291  C5        34.9580   35.7910   17.7370 C.ar   14  A14         0.1518
    292  C6        35.2170   34.6130   18.4670 C.ar   14  A14         0.1919
    293  N6        36.1390   34.5160   19.4260 N.pl3  14  A14        -0.1054
    294  N7        35.5200   37.0610   17.7750 N.ar   14  A14        -0.2193
    295  C8        34.8510   37.7290   16.8680 C.ar   14  A14         0.1816
    296  N9        33.8990   36.9850   16.2230 N.ar   14  A14        -0.2693
    297  OP1       33.6350   43.4020   16.9330 O.2    14  A14        -0.5172
    298  OP2       34.6070   41.3360   18.1230 O.co2  14  A14        -0.4373
    299  P         29.2250   39.6000   17.2300 P.3    15  C15         0.2141
    300  C5'       28.1470   37.2380   17.2250 C.3    15  C15         0.1812
    301  O5'       28.8870   38.2170   17.9240 O.3    15  C15        -0.3114
    302  C4'       28.3630   35.9040   17.8620 C.3    15  C15         0.1773
    303  O4'       29.7350   35.4900   17.6620 O.3    15  C15        -0.3307
    304  C3'       28.2430   35.9230   19.3650 C.3    15  C15         0.1860
    305  O3'       26.9000   35.8970   19.7740 O.3    15  C15        -0.3112
    306  C2'       28.9870   34.6610   19.7470 C.3    15  C15         0.2309
    307  O2'       28.2240   33.5010   19.4940 O.3    15  C15        -0.2156
    308  C1'       30.1680   34.7390   18.7860 C.3    15  C15         0.2420
    309  N1        31.3150   35.4220   19.3900 N.ar   15  C15        -0.2535
    310  C2        32.0990   34.7080   20.2860 C.ar   15  C15         0.3532
    311  O2        31.7710   33.5490   20.5590 O.2    15  C15        -0.2443
    312  N3        33.1850   35.2860   20.8350 N.ar   15  C15        -0.1739
    313  C4        33.4900   36.5480   20.5280 C.ar   15  C15         0.1759
    314  N4        34.5910   37.0860   21.0940 N.pl3  15  C15        -0.1070
    315  C5        32.6890   37.3180   19.6260 C.ar   15  C15         0.0566
    316  C6        31.6210   36.7200   19.0850 C.ar   15  C15         0.0850
    317  OP1       27.9470   40.2860   16.8910 O.2    15  C15        -0.5172
    318  OP2       30.2720   40.2960   18.0360 O.co2  15  C15        -0.4373
    319  P         26.5130   36.5420   21.1790 P.3    16  C16         0.2141
    320  C5'       26.4700   34.0450   21.9500 C.3    16  C16         0.1812
    321  O5'       26.8840   35.3850   22.2040 O.3    16  C16        -0.3114
    322  C4'       27.0140   33.1250   23.0130 C.3    16  C16         0.1773
    323  O4'       28.4480   32.9400   22.8440 O.3    16  C16        -0.3307
    324  C3'       26.9370   33.6980   24.4050 C.3    16  C16         0.1860
    325  O3'       25.6670   33.5770   24.9600 O.3    16  C16        -0.3112
    326  C2'       27.9430   32.8500   25.1510 C.3    16  C16         0.2309
    327  O2'       27.4220   31.5610   25.4110 O.3    16  C16        -0.2156
    328  C1'       29.0680   32.8010   24.1230 C.3    16  C16         0.2420
    329  N1        30.0490   33.8910   24.3010 N.ar   16  C16        -0.2535
    330  C2        30.9930   33.7790   25.3220 C.ar   16  C16         0.3532
    331  O2        30.9320   32.8040   26.0890 O.2    16  C16        -0.2443
    332  N3        31.9530   34.7380   25.4470 N.ar   16  C16        -0.1739
    333  C4        31.9660   35.7830   24.6140 C.ar   16  C16         0.1759
    334  N4        32.9400   36.6990   24.7540 N.pl3  16  C16        -0.1070
    335  C5        30.9890   35.9400   23.5960 C.ar   16  C16         0.0566
    336  C6        30.0560   34.9830   23.4780 C.ar   16  C16         0.0850
    337  OP1       25.0380   36.7300   21.2070 O.2    16  C16        -0.5172
    338  OP2       27.4260   37.7080   21.3640 O.co2  16  C16        -0.4373
    339  P         25.2760   34.5510   26.1410 P.3    17  C17         0.2141
    340  C5'       26.0620   32.8060   27.9230 C.3    17  C17         0.1812
    341  O5'       26.2260   34.0850   27.3270 O.3    17  C17        -0.3114
    342  C4'       26.8910   32.7080   29.1830 C.3    17  C17         0.1773
    343  O4'       28.3020   32.6960   28.8380 O.3    17  C17        -0.3307
    344  C3'       26.7780   33.8820   30.1320 C.3    17  C17         0.1860
    345  O3'       25.6610   33.7640   30.9750 O.3    17  C17        -0.3112
    346  C2'       28.0600   33.7540   30.9300 C.3    17  C17         0.2309
    347  O2'       27.9590   32.7020   31.8720 O.3    17  C17        -0.2156
    348  C1'       29.0410   33.4100   29.8150 C.3    17  C17         0.2420
    349  N1        29.5750   34.6210   29.1750 N.ar   17  C17        -0.2535
    350  C2        30.6360   35.2840   29.7860 C.ar   17  C17         0.3532
    351  O2        31.0490   34.8690   30.8680 O.2    17  C17        -0.2443
    352  N3        31.1790   36.3650   29.1850 N.ar   17  C17        -0.1739
    353  C4        30.6850   36.7970   28.0250 C.ar   17  C17         0.1759
    354  N4        31.2620   37.8530   27.4570 N.pl3  17  C17        -0.1070
    355  C5        29.5750   36.1600   27.3920 C.ar   17  C17         0.0566
    356  C6        29.0550   35.0870   27.9980 C.ar   17  C17         0.0850
    357  OP1       23.8630   34.2810   26.4960 O.3    17  C17        -0.4373
    358  OP2       25.7090   35.9070   25.7020 O.co2  17  C17        -0.5172
    359  P         25.0610   35.0820   31.6470 P.3    18  C18         0.2141
    360  C5'       26.3840   34.6740   33.8700 C.3    18  C18         0.1812
    361  O5'       26.1520   35.4920   32.7290 O.3    18  C18        -0.3114
    362  C4'       27.4810   35.2660   34.7040 C.3    18  C18         0.1773
    363  O4'       28.6910   35.2850   33.9100 O.3    18  C18        -0.3307
    364  C3'       27.3140   36.7300   35.0440 C.3    18  C18         0.1860
    365  O3'       26.4800   36.9380   36.1450 O.3    18  C18        -0.3112
    366  C2'       28.7300   37.1270   35.3850 C.3    18  C18         0.2309
    367  O2'       29.1420   36.6520   36.6410 O.3    18  C18        -0.2156
    368  C1'       29.4870   36.3960   34.2890 C.3    18  C18         0.2420
    369  N1        29.6330   37.2740   33.1360 N.ar   18  C18        -0.2535
    370  C2        30.6000   38.2650   33.1870 C.ar   18  C18         0.3532
    371  O2        31.2460   38.4220   34.2390 O.2    18  C18        -0.2443
    372  N3        30.7990   39.0430   32.1050 N.ar   18  C18        -0.1739
    373  C4        30.0440   38.8790   31.0220 C.ar   18  C18         0.1759
    374  N4        30.2730   39.6730   29.9830 N.pl3  18  C18        -0.1070
    375  C5        29.0200   37.8970   30.9600 C.ar   18  C18         0.0566
    376  C6        28.8510   37.1210   32.0290 C.ar   18  C18         0.0850
    377  OP1       23.8220   34.6530   32.3460 O.3    18  C18        -0.4373
    378  OP2       25.0170   36.1640   30.6220 O.co2  18  C18        -0.5172
    379  P         25.5480   38.2240   36.1600 P.3    19  A19         0.2141
    380  C5'       27.1760   39.3670   37.8140 C.3    19  A19         0.1812
    381  O5'       26.5260   39.4040   36.5660 O.3    19  A19        -0.3114
    382  C4'       28.3750   40.2630   37.7940 C.3    19  A19         0.1773
    383  O4'       29.1980   39.8850   36.6670 O.3    19  A19        -0.3307
    384  C3'       28.1020   41.7280   37.5300 C.3    19  A19         0.1860
    385  O3'       27.7780   42.4040   38.7240 O.3    19  A19        -0.3112
    386  C2'       29.4520   42.2100   37.0270 C.3    19  A19         0.2309
    387  O2'       30.3790   42.4090   38.0680 O.3    19  A19        -0.2156
    388  C1'       29.8970   41.0200   36.1860 C.3    19  A19         0.2408
    389  N1        31.0070   43.7190   31.9830 N.ar   19  A19        -0.2040
    390  C2        31.4170   43.8070   33.2550 C.ar   19  A19         0.2016
    391  N3        31.0540   43.0800   34.3110 N.ar   19  A19        -0.2048
    392  C4        30.1480   42.1520   33.9590 C.ar   19  A19         0.1692
    393  C5        29.6210   41.9430   32.7000 C.ar   19  A19         0.1518
    394  C6        30.0900   42.7750   31.6630 C.ar   19  A19         0.1919
    395  N6        29.6830   42.6800   30.3940 N.pl3  19  A19        -0.1054
    396  N7        28.7010   40.9020   32.7260 N.ar   19  A19        -0.2193
    397  C8        28.7020   40.5140   33.9800 C.ar   19  A19         0.1816
    398  N9        29.5760   41.2100   34.7740 N.ar   19  A19        -0.2693
    399  OP1       24.5590   37.9940   37.2410 O.3    19  A19        -0.4373
    400  OP2       25.1030   38.4250   34.7600 O.co2  19  A19        -0.5172
    401  P         27.0660   43.8320   38.6520 P.3    20  G20         0.2141
    402  C5'       29.1710   45.3440   39.1120 C.3    20  G20         0.1812
    403  O5'       28.2070   44.8490   38.1920 O.3    20  G20        -0.3114
    404  C4'       29.9990   46.4140   38.4610 C.3    20  G20         0.1773
    405  O4'       30.2410   45.9750   37.1010 O.3    20  G20        -0.3307
    406  C3'       29.1970   47.7120   38.3450 C.3    20  G20         0.1860
    407  O3'       29.8560   48.9490   38.6070 O.3    20  G20        -0.3112
    408  C2'       28.6380   47.7510   36.9360 C.3    20  G20         0.2309
    409  O2'       28.8760   49.0250   36.3970 O.3    20  G20        -0.2156
    410  C1'       29.6000   46.8470   36.1920 C.3    20  G20         0.2408
    411  N1        29.3720   47.1430   31.1630 N.ar   20  G20        -0.1709
    412  C2        29.9320   47.9990   32.0770 C.ar   20  G20         0.2606
    413  N2        30.5240   49.1180   31.5670 N.pl3  20  G20        -0.0859
    414  N3        29.9130   47.7920   33.3820 N.ar   20  G20        -0.1918
    415  C4        29.2730   46.6550   33.7100 C.ar   20  G20         0.1723
    416  C5        28.6650   45.7440   32.8820 C.ar   20  G20         0.1748
    417  C6        28.6990   45.9650   31.4760 C.ar   20  G20         0.3023
    418  O6        28.2200   45.2560   30.5660 O.2    20  G20        -0.2633
    419  N7        28.0980   44.7150   33.6190 N.ar   20  G20        -0.2173
    420  C8        28.3830   45.0050   34.8650 C.ar   20  G20         0.1817
    421  N9        29.0980   46.1710   34.9880 N.ar   20  G20        -0.2693
    422  OP1       26.6850   44.1780   40.0490 O.3    20  G20        -0.4373
    423  OP2       26.0200   43.6950   37.5960 O.co2  20  G20        -0.5172
    424  P         30.8500   49.0890   39.8320 P.3    21  U21         0.2141
    425  C5'       33.4050   48.5570   39.8950 C.3    21  U21         0.1812
    426  O5'       32.2810   48.9950   39.1510 O.3    21  U21        -0.3114
    427  C4'       34.5910   49.3430   39.4660 C.3    21  U21         0.1773
    428  O4'       34.6490   49.2300   38.0320 O.3    21  U21        -0.3307
    429  C3'       34.4320   50.8210   39.7610 C.3    21  U21         0.1860
    430  O3'       34.9950   51.1090   41.0460 O.3    21  U21        -0.3112
    431  C2'       35.0350   51.5420   38.5530 C.3    21  U21         0.2309
    432  O2'       36.3520   52.0240   38.6590 O.3    21  U21        -0.2156
    433  C1'       34.9650   50.4780   37.4610 C.3    21  U21         0.2420
    434  N1        34.0000   50.7420   36.3950 N.ar   21  U21        -0.2534
    435  C2        34.3940   51.5490   35.3480 C.ar   21  U21         0.3546
    436  O2        35.4630   52.1320   35.3150 O.2    21  U21        -0.2443
    437  N3        33.4810   51.6560   34.3360 N.ar   21  U21        -0.1530
    438  C4        32.2410   51.0700   34.2720 C.ar   21  U21         0.2846
    439  O4        31.5870   51.1660   33.2350 O.2    21  U21        -0.2650
    440  C5        31.8860   50.3020   35.4180 C.ar   21  U21         0.0814
    441  C6        32.7570   50.1680   36.4180 C.ar   21  U21         0.0870
    442  OP1       30.6350   47.8870   40.6610 O.3    21  U21        -0.4373
    443  OP2       30.6660   50.4450   40.4180 O.co2  21  U21        -0.5172
    444  P         36.5710   50.8620   41.3330 P.3    22  U22         0.2141
    445  C5'       37.4220   48.4710   41.9950 C.3    22  U22         0.1812
    446  O5'       36.6040   49.5980   42.2990 O.3    22  U22        -0.3114
    447  C4'       36.8830   47.2650   42.7090 C.3    22  U22         0.1773
    448  O4'       36.9020   47.5610   44.1160 O.3    22  U22        -0.3307
    449  C3'       35.4420   46.9650   42.3520 C.3    22  U22         0.1860
    450  O3'       35.4430   45.9700   41.3380 O.3    22  U22        -0.3112
    451  C2'       34.7390   46.6140   43.6650 C.3    22  U22         0.2309
    452  O2'       34.5870   45.2350   43.9280 O.3    22  U22        -0.2156
    453  C1'       35.6670   47.2390   44.7060 C.3    22  U22         0.2420
    454  N1        35.2320   48.4000   45.4990 N.ar   22  U22        -0.2534
    455  C2        34.6640   48.1380   46.7100 C.ar   22  U22         0.3546
    456  O2        34.3800   47.0170   47.0520 O.2    22  U22        -0.2443
    457  N3        34.4400   49.2380   47.5060 N.ar   22  U22        -0.1530
    458  C4        34.7040   50.5640   47.1950 C.ar   22  U22         0.2846
    459  O4        34.5920   51.4310   48.0680 O.2    22  U22        -0.2650
    460  C5        35.2160   50.7630   45.8760 C.ar   22  U22         0.0814
    461  C6        35.4500   49.6990   45.0890 C.ar   22  U22         0.0870
    462  OP1       37.0710   52.0420   42.0870 O.3    22  U22        -0.4373
    463  OP2       37.2830   50.4290   40.1110 O.co2  22  U22        -0.5172
    464  P         36.3190   44.6220   41.5080 P.3    23  A23         0.2141
    465  C5'       34.1690   43.4630   40.6180 C.3    23  A23         0.1812
    466  O5'       35.5790   43.6230   40.5240 O.3    23  A23        -0.3114
    467  C4'       33.4940   43.7050   39.2830 C.3    23  A23         0.1773
    468  O4'       33.6430   45.0680   38.8390 O.3    23  A23        -0.3307
    469  C3'       34.0010   42.8840   38.1230 C.3    23  A23         0.1860
    470  O3'       33.3340   41.6320   38.1880 O.3    23  A23        -0.3112
    471  C2'       33.4810   43.6590   36.9240 C.3    23  A23         0.2309
    472  O2'       32.1600   43.2400   36.6740 O.3    23  A23        -0.2156
    473  C1'       33.5030   45.1040   37.4360 C.3    23  A23         0.2408
    474  N1        34.7600   48.5130   33.8330 N.ar   23  A23        -0.2040
    475  C2        33.6280   47.8590   34.0940 C.ar   23  A23         0.2016
    476  N3        33.3680   46.9850   35.0480 N.ar   23  A23        -0.2048
    477  C4        34.4510   46.7850   35.8080 C.ar   23  A23         0.1692
    478  C5        35.6870   47.3860   35.6680 C.ar   23  A23         0.1518
    479  C6        35.8270   48.3010   34.6220 C.ar   23  A23         0.1919
    480  N6        36.9440   48.9770   34.3690 N.pl3  23  A23        -0.1054
    481  N7        36.5640   46.9380   36.6400 N.ar   23  A23        -0.2193
    482  C8        35.8520   46.0820   37.3360 C.ar   23  A23         0.1816
    483  N9        34.5650   45.9470   36.8900 N.ar   23  A23        -0.2693
    484  OP1       36.2430   44.0630   42.8810 O.3    23  A23        -0.4373
    485  OP2       37.6350   44.8770   40.8940 O.co2  23  A23        -0.5172
    486  P         34.1890   40.2770   38.1550 P.3    24  A24         0.2141
    487  C5'       34.1370   39.8170   40.7390 C.3    24  A24         0.1812
    488  O5'       33.7020   39.4610   39.4330 O.3    24  A24        -0.3114
    489  C4'       33.5400   38.8720   41.7460 C.3    24  A24         0.1773
    490  O4'       32.1030   39.0320   41.7920 O.3    24  A24        -0.3307
    491  C3'       33.6920   37.4140   41.3890 C.3    24  A24         0.1860
    492  O3'       34.9810   36.9690   41.7360 O.3    24  A24        -0.3112
    493  C2'       32.6180   36.7700   42.2430 C.3    24  A24         0.2309
    494  O2'       32.9810   36.7030   43.6000 O.3    24  A24        -0.2156
    495  C1'       31.5000   37.7940   42.1100 C.3    24  A24         0.2408
    496  N1        27.3420   35.0460   40.9540 N.ar   24  A24        -0.2040
    497  C2        28.0710   35.1700   42.0700 C.ar   24  A24         0.2016
    498  N3        29.1530   35.9090   42.2970 N.ar   24  A24        -0.2048
    499  C4        29.4940   36.5990   41.2000 C.ar   24  A24         0.1692
    500  C5        28.8540   36.5790   39.9780 C.ar   24  A24         0.1518
    501  C6        27.7140   35.7440   39.8620 C.ar   24  A24         0.1919
    502  N6        26.9920   35.5950   38.7440 N.pl3  24  A24        -0.1054
    503  N7        29.5070   37.4110   39.0780 N.ar   24  A24        -0.2193
    504  C8        30.5000   37.9070   39.7730 C.ar   24  A24         0.1816
    505  N9        30.5490   37.4570   41.0640 N.ar   24  A24        -0.2693
    506  OP1       35.6170   40.6670   38.3360 O.3    24  A24        -0.4373
    507  OP2       33.7670   39.5260   36.9390 O.co2  24  A24        -0.5172
    508  P         35.6430   35.7800   40.8950 P.3    25  C25         0.2141
    509  C5'       34.6980   34.1560   42.6680 C.3    25  C25         0.1812
    510  O5'       34.7840   34.5120   41.3090 O.3    25  C25        -0.3114
    511  C4'       33.7070   33.0570   42.8510 C.3    25  C25         0.1773
    512  O4'       32.3730   33.5540   42.5990 O.3    25  C25        -0.3307
    513  C3'       33.8280   31.9530   41.8320 C.3    25  C25         0.1860
    514  O3'       34.9030   31.0970   42.1600 O.3    25  C25        -0.3112
    515  C2'       32.4700   31.2750   41.9560 C.3    25  C25         0.2309
    516  O2'       32.3520   30.4290   43.0820 O.3    25  C25        -0.2156
    517  C1'       31.5560   32.4870   42.1340 C.3    25  C25         0.2420
    518  N1        30.9350   32.8810   40.8620 N.ar   25  C25        -0.2535
    519  C2        29.8000   32.1830   40.4220 C.ar   25  C25         0.3532
    520  O2        29.3450   31.2640   41.1280 O.2    25  C25        -0.2443
    521  N3        29.2240   32.5280   39.2430 N.ar   25  C25        -0.1739
    522  C4        29.7350   33.5270   38.5170 C.ar   25  C25         0.1759
    523  N4        29.1230   33.8370   37.3640 N.pl3  25  C25        -0.1070
    524  C5        30.8910   34.2550   38.9420 C.ar   25  C25         0.0566
    525  C6        31.4510   33.9020   40.1100 C.ar   25  C25         0.0850
    526  OP1       37.0290   35.5840   41.3810 O.3    25  C25        -0.4373
    527  OP2       35.3940   36.0650   39.4590 O.co2  25  C25        -0.5172
    528  P         35.5290   30.1590   41.0280 P.3    26  A26         0.2141
    529  C5'       34.0800   28.7230   39.3640 C.3    26  A26         0.1812
    530  O5'       34.3380   29.1550   40.6940 O.3    26  A26        -0.3114
    531  C4'       32.5900   28.5990   39.1500 C.3    26  A26         0.1773
    532  O4'       32.0040   29.9200   39.0500 O.3    26  A26        -0.3307
    533  C3'       32.1620   27.9140   37.8710 C.3    26  A26         0.1860
    534  O3'       32.1120   26.5310   38.1240 O.3    26  A26        -0.3112
    535  C2'       30.7630   28.4650   37.6530 C.3    26  A26         0.2309
    536  O2'       29.7910   27.8420   38.4670 O.3    26  A26        -0.2156
    537  C1'       30.9470   29.9060   38.1060 C.3    26  A26         0.2408
    538  N1        29.6000   31.9710   33.5990 N.ar   26  A26        -0.2040
    539  C2        29.0520   31.0080   34.3350 C.ar   26  A26         0.2016
    540  N3        29.4690   30.4820   35.4770 N.ar   26  A26        -0.2048
    541  C4        30.6120   31.0530   35.8710 C.ar   26  A26         0.1692
    542  C5        31.3100   32.0450   35.2160 C.ar   26  A26         0.1518
    543  C6        30.7550   32.5280   34.0250 C.ar   26  A26         0.1919
    544  N6        31.3050   33.5140   33.3040 N.pl3  26  A26        -0.1054
    545  N7        32.4620   32.3760   35.9080 N.ar   26  A26        -0.2193
    546  C8        32.4260   31.6030   36.9620 C.ar   26  A26         0.1816
    547  N9        31.3190   30.8030   37.0180 N.ar   26  A26        -0.2693
    548  OP1       36.6600   29.3880   41.6140 O.3    26  A26        -0.4373
    549  OP2       35.7700   31.0570   39.8760 O.co2  26  A26        -0.5172
    550  P         32.7970   25.5240   37.0970 P.3    27  A27         0.2141
    551  C5'       30.4040   25.3900   36.0940 C.3    27  A27         0.1812
    552  O5'       31.7940   25.5520   35.8710 O.3    27  A27        -0.3114
    553  C4'       29.6480   25.8480   34.8910 C.3    27  A27         0.1773
    554  O4'       29.7160   27.2880   34.7960 O.3    27  A27        -0.3307
    555  C3'       30.2570   25.3920   33.5870 C.3    27  A27         0.1860
    556  O3'       29.8380   24.0890   33.2800 O.3    27  A27        -0.3112
    557  C2'       29.6720   26.3860   32.6040 C.3    27  A27         0.2309
    558  O2'       28.3430   26.0630   32.2570 O.3    27  A27        -0.2156
    559  C1'       29.6860   27.6630   33.4350 C.3    27  A27         0.2408
    560  N1        31.6100   31.2370   30.3880 N.ar   27  A27        -0.2040
    561  C2        30.4630   30.5380   30.3690 C.ar   27  A27         0.2016
    562  N3        30.0430   29.5840   31.1890 N.ar   27  A27        -0.2048
    563  C4        30.9600   29.3510   32.1310 C.ar   27  A27         0.1692
    564  C5        32.1810   29.9710   32.2820 C.ar   27  A27         0.1518
    565  C6        32.5040   30.9730   31.3560 C.ar   27  A27         0.1919
    566  N6        33.6360   31.6800   31.3920 N.pl3  27  A27        -0.1054
    567  N7        32.8580   29.4550   33.3730 N.ar   27  A27        -0.2193
    568  C8        32.0370   28.5590   33.8550 C.ar   27  A27         0.1816
    569  N9        30.8620   28.4710   33.1660 N.ar   27  A27        -0.2693
    570  OP1       32.7380   24.1730   37.7270 O.3    27  A27        -0.4373
    571  OP2       34.1060   26.1150   36.6790 O.co2  27  A27        -0.5172
    572  P         30.7820   23.1550   32.3960 P.3    28  A28         0.2141
    573  C5'       28.9140   22.6000   30.6510 C.3    28  A28         0.1812
    574  O5'       30.1520   23.2470   30.9370 O.3    28  A28        -0.3114
    575  C4'       28.3680   23.0880   29.3400 C.3    28  A28         0.1773
    576  O4'       28.2620   24.5290   29.3930 O.3    28  A28        -0.3307
    577  C3'       29.2450   22.8520   28.1260 C.3    28  A28         0.1860
    578  O3'       28.9890   21.5860   27.5710 O.3    28  A28        -0.3112
    579  C2'       28.7270   23.8980   27.1560 C.3    28  A28         0.2309
    580  O2'       27.5170   23.5230   26.5410 O.3    28  A28        -0.2156
    581  C1'       28.4460   25.0560   28.0970 C.3    28  A28         0.2408
    582  N1        30.0650   29.6080   26.6720 N.ar   28  A28        -0.2040
    583  C2        28.9210   28.9510   26.4860 C.ar   28  A28         0.2016
    584  N3        28.5830   27.7380   26.8810 N.ar   28  A28        -0.2048
    585  C4        29.5930   27.1660   27.5570 C.ar   28  A28         0.1692
    586  C5        30.8190   27.7030   27.8240 C.ar   28  A28         0.1518
    587  C6        31.0580   28.9920   27.3520 C.ar   28  A28         0.1919
    588  N6        32.1990   29.6400   27.5330 N.pl3  28  A28        -0.1054
    589  N7        31.5970   26.8020   28.5440 N.ar   28  A28        -0.2193
    590  C8        30.8180   25.7680   28.6880 C.ar   28  A28         0.1816
    591  N9        29.5860   25.9350   28.1250 N.ar   28  A28        -0.2693
    592  OP1       30.5520   21.7790   32.9090 O.3    28  A28        -0.4373
    593  OP2       32.1560   23.7340   32.3910 O.co2  28  A28        -0.5172
    594  P         29.7830   21.1400   26.2610 P.3    29  A29         0.2141
    595  C5'       28.3120   22.0740   24.3050 C.3    29  A29         0.1812
    596  O5'       29.4340   22.2430   25.1610 O.3    29  A29        -0.3114
    597  C4'       28.1720   23.2520   23.3680 C.3    29  A29         0.1773
    598  O4'       28.1790   24.4760   24.1420 O.3    29  A29        -0.3307
    599  C3'       29.2590   23.5180   22.3440 C.3    29  A29         0.1860
    600  O3'       29.1300   22.7300   21.1820 O.3    29  A29        -0.3112
    601  C2'       28.9560   24.9530   21.9610 C.3    29  A29         0.2309
    602  O2'       27.8770   25.0290   21.0570 O.3    29  A29        -0.2156
    603  C1'       28.5780   25.5470   23.3150 C.3    29  A29         0.2408
    604  N1        31.2500   29.8350   23.5060 N.ar   29  A29        -0.2040
    605  C2        30.1040   29.4960   22.9070 C.ar   29  A29         0.2016
    606  N3        29.4600   28.3390   22.9250 N.ar   29  A29        -0.2048
    607  C4        30.1210   27.4480   23.6700 C.ar   29  A29         0.1692
    608  C5        31.3050   27.6380   24.3510 C.ar   29  A29         0.1518
    609  C6        31.8870   28.9100   24.2480 C.ar   29  A29         0.1919
    610  N6        33.0260   29.2490   24.8400 N.pl3  29  A29        -0.1054
    611  N7        31.6810   26.4830   25.0180 N.ar   29  A29        -0.2193
    612  C8        30.7300   25.6300   24.7250 C.ar   29  A29         0.1816
    613  N9        29.7630   26.1550   23.9040 N.ar   29  A29        -0.2693
    614  OP1       29.1920   19.8270   25.8660 O.2    29  A29        -0.5172
    615  OP2       31.2330   21.2490   26.5660 O.co2  29  A29        -0.4373
    616  P         30.3170   22.7340   20.1030 P.3    30  C30         0.2141
    617  C5'       29.3380   24.6660   18.6760 C.3    30  C30         0.1812
    618  O5'       30.3560   24.2130   19.5380 O.3    30  C30        -0.3114
    619  C4'       29.5760   26.0990   18.3610 C.3    30  C30         0.1773
    620  O4'       29.7860   26.7660   19.6240 O.3    30  C30        -0.3307
    621  C3'       30.8670   26.3570   17.6160 C.3    30  C30         0.1860
    622  O3'       30.6570   26.2040   16.2270 O.3    30  C30        -0.3112
    623  C2'       31.1500   27.7990   17.9940 C.3    30  C30         0.2309
    624  O2'       30.3260   28.7120   17.2970 O.3    30  C30        -0.2156
    625  C1'       30.7380   27.7930   19.4630 C.3    30  C30         0.2420
    626  N1        31.8540   27.5340   20.3790 N.ar   30  C30        -0.2535
    627  C2        32.7240   28.5760   20.6420 C.ar   30  C30         0.3532
    628  O2        32.5420   29.6490   20.0570 O.2    30  C30        -0.2443
    629  N3        33.7380   28.3920   21.5170 N.ar   30  C30        -0.1739
    630  C4        33.8970   27.2090   22.1090 C.ar   30  C30         0.1759
    631  N4        34.8990   27.0750   22.9720 N.pl3  30  C30        -0.1070
    632  C5        33.0300   26.1100   21.8410 C.ar   30  C30         0.0566
    633  C6        32.0300   26.3140   20.9730 C.ar   30  C30         0.0850
    634  OP1       29.9170   21.8640   18.9810 O.2    30  C30        -0.5172
    635  OP2       31.5960   22.4920   20.8120 O.co2  30  C30        -0.4373
    636  P         31.9030   26.2660   15.2250 P.3    31  A31         0.2141
    637  C5'       31.8890   28.8300   14.7690 C.3    31  A31         0.1812
    638  O5'       32.4780   27.7280   15.4300 O.3    31  A31        -0.3114
    639  C4'       32.8850   29.9380   14.7160 C.3    31  A31         0.1773
    640  O4'       33.2430   30.2490   16.0790 O.3    31  A31        -0.3307
    641  C3'       34.1980   29.5430   14.0580 C.3    31  A31         0.1860
    642  O3'       34.1170   29.8160   12.6710 O.3    31  A31        -0.3112
    643  C2'       35.2100   30.4450   14.7510 C.3    31  A31         0.2309
    644  O2'       35.2290   31.7580   14.2220 O.3    31  A31        -0.2156
    645  C1'       34.6340   30.4990   16.1630 C.3    31  A31         0.2408
    646  N1        38.3310   29.8280   19.6180 N.ar   31  A31        -0.2040
    647  C2        38.1480   30.7440   18.6560 C.ar   31  A31         0.2016
    648  N3        37.1930   30.8240   17.7390 N.ar   31  A31        -0.2048
    649  C4        36.3400   29.7970   17.8660 C.ar   31  A31         0.1692
    650  C5        36.4020   28.7710   18.7930 C.ar   31  A31         0.1518
    651  C6        37.4510   28.8140   19.7210 C.ar   31  A31         0.1919
    652  N6        37.6190   27.9210   20.7020 N.pl3  31  A31        -0.1054
    653  N7        35.3610   27.8750   18.6060 N.ar   31  A31        -0.2193
    654  C8        34.6910   28.3820   17.6030 C.ar   31  A31         0.1816
    655  N9        35.2000   29.5740   17.1430 N.ar   31  A31        -0.2693
    656  OP1       31.3410   26.2080   13.8490 O.2    31  A31        -0.5172
    657  OP2       32.9290   25.2770   15.6610 O.co2  31  A31        -0.4373
    658  P         35.1340   29.1130   11.6550 P.3    32  A32         0.2141
    659  C5'       34.9210   31.4040   10.3780 C.3    32  A32         0.1812
    660  O5'       35.7510   30.3510   10.8670 O.3    32  A32        -0.3114
    661  C4'       35.7410   32.6650   10.2340 C.3    32  A32         0.1773
    662  O4'       36.0760   33.1770   11.5520 O.3    32  A32        -0.3307
    663  C3'       37.0820   32.4510    9.5510 C.3    32  A32         0.1860
    664  O3'       36.9610   32.5190    8.1300 O.3    32  A32        -0.3112
    665  C2'       37.9470   33.5560   10.1490 C.3    32  A32         0.2309
    666  O2'       37.6820   34.8090    9.5530 O.3    32  A32        -0.2156
    667  C1'       37.4370   33.5770   11.5900 C.3    32  A32         0.2408
    668  N1        41.0410   33.1670   15.2670 N.ar   32  A32        -0.2040
    669  C2        40.6760   34.1830   14.4730 C.ar   32  A32         0.2016
    670  N3        39.7470   34.2190   13.5180 N.ar   32  A32        -0.2048
    671  C4        39.1440   33.0280   13.3930 C.ar   32  A32         0.1692
    672  C5        39.4080   31.8830   14.1300 C.ar   32  A32         0.1518
    673  C6        40.4100   31.9810   15.1290 C.ar   32  A32         0.1919
    674  N6        40.7580   30.9750   15.9490 N.pl3  32  A32        -0.1054
    675  N7        38.5980   30.8370   13.7140 N.ar   32  A32        -0.2193
    676  C8        37.8660   31.3610   12.7610 C.ar   32  A32         0.1816
    677  N9        38.1290   32.6880   12.5300 N.ar   32  A32        -0.2693
    678  OP1       34.2980   28.3290   10.7190 O.2    32  A32        -0.5172
    679  OP2       36.2030   28.4350   12.4380 O.co2  32  A32        -0.4373
    680  P         37.5910   31.3450    7.2140 P.3    33  G33         0.2141
    681  C5'       39.4530   30.8540    8.9260 C.3    33  G33         0.1813
    682  O5'       39.1230   31.3000    7.6390 O.3    33  G33        -0.3114
    683  C4'       40.7970   31.3660    9.3360 C.3    33  G33         0.1801
    684  O4'       40.7770   31.5100   10.7710 O.3    33  G33        -0.3306
    685  C3'       41.9150   30.3960    8.9980 C.3    33  G33         0.2161
    686  O3'       42.5550   30.8380    7.7950 O.3    33  G33        -0.2175
    687  C2'       42.7690   30.3620   10.2680 C.3    33  G33         0.2337
    688  O2'       43.8020   31.3270   10.3300 O.3    33  G33        -0.2155
    689  C1'       41.7280   30.6490   11.3520 C.3    33  G33         0.2409
    690  N1        41.7520   26.7450   14.5760 N.ar   33  G33        -0.1709
    691  C2        42.6900   27.7300   14.3830 C.ar   33  G33         0.2606
    692  N2        43.7700   27.6750   15.1820 N.pl3  33  G33        -0.0859
    693  N3        42.5750   28.6980   13.4890 N.ar   33  G33        -0.1918
    694  C4        41.4180   28.6180   12.8150 C.ar   33  G33         0.1723
    695  C5        40.4090   27.6880   12.9420 C.ar   33  G33         0.1748
    696  C6        40.5500   26.6470   13.8850 C.ar   33  G33         0.3023
    697  O6        39.7670   25.7290   14.1350 O.2    33  G33        -0.2633
    698  N7        39.3760   27.9630   12.0590 N.ar   33  G33        -0.2173
    699  C8        39.7720   29.0340   11.4310 C.ar   33  G33         0.1817
    700  N9        41.0060   29.4810   11.8450 N.ar   33  G33        -0.2693
    701  OP1       37.4910   31.7540    5.7790 O.2    33  G33        -0.5172
    702  OP2       37.0050   30.0480    7.6640 O.co2  33  G33        -0.4373
@<TRIPOS>BOND
     1   701   680    2
     2   680   682    1
     3   680   702    1
     4   680   664    1
     5   682   681    1
     6   686   685    1
     7   664   663    1
     8   681   683    1
     9   685   683    1
    10   685   687    1
    11   683   684    1
    12   663   665    1
    13   663   661    1
    14   666   665    1
    15   665   667    1
    16   661   659    1
    17   661   662    1
    18   687   688    1
    19   687   689    1
    20   659   660    1
    21   678   658    2
    22   684   689    1
    23   660   658    1
    24   689   700    1
    25   699   700   ar
    26   699   698   ar
    27   662   667    1
    28   667   677    1
    29   658   679    1
    30   658   642    1
    31   700   694   ar
    32   698   695   ar
    33   677   676   ar
    34   677   671   ar
    35   642   641    1
    36   676   675   ar
    37   694   695   ar
    38   694   693   ar
    39   695   696   ar
    40   671   670   ar
    41   671   672   ar
    42   263   262    1
    43   693   691   ar
    44   670   669   ar
    45   675   672   ar
    46   656   636    2
    47   696   697    2
    48   696   690   ar
    49   266   267   ar
    50   266   265   ar
    51   267   268   ar
    52   641   639    1
    53   641   643    1
    54   672   673   ar
    55   644   643    1
    56   691   690   ar
    57   691   692    1
    58   669   668   ar
    59   285   284    1
    60   264   262    1
    61   264   274    1
    62   264   259    1
    63   262   260    1
    64   639   637    1
    65   639   640    1
    66   643   645    1
    67   637   638    1
    68   265   270   ar
    69   281   280    1
    70   281   286    1
    71   280   278    1
    72   280   282    1
    73   268   274   ar
    74   268   269   ar
    75   673   668   ar
    76   673   674    1
    77   286   284    1
    78   286   296    1
    79   278   279    1
    80   636   638    1
    81   636   657    1
    82   636   622    1
    83   274   273   ar
    84   259   258    1
    85   284   282    1
    86   258   260    1
    87   258   256    1
    88   261   260    1
    89   261   277    1
    90   270   269   ar
    91   270   271    1
    92   269   272   ar
    93   283   282    1
    94   283   299    1
    95   185   184    1
    96   640   645    1
    97   645   655    1
    98   296   290   ar
    99   296   295   ar
   100   622   621    1
   101   273   272   ar
   102   289   290   ar
   103   289   288   ar
   104   201   200   ar
   105   201   202   ar
   106   279   277    1
   107   183   184   ar
   108   183   181   ar
   109   290   291   ar
   110   184   186   ar
   111   295   294   ar
   112   317   299    2
   113   200   205   ar
   114   277   297    2
   115   277   298    1
   116   256   257    1
   117   202   203   ar
   118   655   654   ar
   119   655   649   ar
   120   300   302    1
   121   300   301    1
   122   288   287   ar
   123   299   301    1
   124   299   318    1
   125   624   623    1
   126   182   181    2
   127   181   180   ar
   128   247   246    2
   129   654   653   ar
   130   621   623    1
   131   621   619    1
   132   303   302    1
   133   303   308    1
   134   243   242    1
   135   291   294   ar
   136   291   292   ar
   137   648   649   ar
   138   648   647   ar
   139   248   246   ar
   140   248   249   ar
   141   186   187   ar
   142   302   304    1
   143   649   650   ar
   144   250   249    2
   145   246   245   ar
   146   623   625    1
   147   205   206    1
   148   205   204   ar
   149   257   255    1
   150   203   204   ar
   151   203   209   ar
   152   198   197    1
   153   287   292   ar
   154   242   240    1
   155   242   244    1
   156   249   251   ar
   157   619   617    1
   158   619   620    1
   159   180   187   ar
   160   180   179    1
   161   292   293    1
   162   653   650   ar
   163   647   646   ar
   164   617   618    1
   165   204   207   ar
   166   308   309    1
   167   308   306    1
   168   199   209    1
   169   199   197    1
   170   199   194    1
   171   650   651   ar
   172   245   244    1
   173   245   252   ar
   174   241   240    1
   175   241   255    1
   176   209   208   ar
   177   634   616    2
   178   316   309   ar
   179   316   315   ar
   180   251   252   ar
   181   240   238    1
   182   197   195    1
   183   244   239    1
   184   179   177    1
   185   179   174    1
   186   255   275    2
   187   255   276    1
   188   304   306    1
   189   304   305    1
   190   309   310   ar
   191   625   620    1
   192   625   626    1
   193   307   306    1
   194   618   616    1
   195   194   193    1
   196   646   651   ar
   197   315   313   ar
   198   651   652    1
   199   305   319    1
   200   207   208   ar
   201   628   627    2
   202   177   178    1
   203   177   175    1
   204   616   635    1
   205   616   600    1
   206   174   173    1
   207   253   235    2
   208   224   223    1
   209   310   311    2
   210   310   312   ar
   211   626   627   ar
   212   626   633   ar
   213   193   195    1
   214   193   191    1
   215   239   238    1
   216   313   312   ar
   217   313   314    1
   218   195   196    1
   219   238   236    1
   220   627   629   ar
   221   216   215    1
   222   216   221    1
   223   213   215    1
   224   213   214    1
   225   215   217    1
   226   196   212    1
   227   633   632   ar
   228   602   601    1
   229   225   223   ar
   230   225   226   ar
   231   223   222   ar
   232   319   337    2
   233   319   338    1
   234   319   321    1
   235   600   599    1
   236   155   154    1
   237   188   170    2
   238   175   173    1
   239   175   176    1
   240   173   171    1
   241   221   219    1
   242   221   232    1
   243   237   235    1
   244   237   236    1
   245   629   630   ar
   246   235   218    1
   247   235   254    1
   248   220   219    1
   249   159   158    1
   250   214   212    1
   251   191   192    1
   252   632   630   ar
   253   320   321    1
   254   320   322    1
   255   601   599    1
   256   601   603    1
   257   172   170    1
   258   172   171    1
   259   222   228   ar
   260   226   232   ar
   261   226   227   ar
   262   630   631    1
   263   212   233    2
   264   212   234    1
   265   217   219    1
   266   217   218    1
   267     2     1    1
   268   192   190    1
   269   232   231   ar
   270   153   170    1
   271   153   152    1
   272   599   597    1
   273   170   189    1
   274   176   190    1
   275   154   152    1
   276   154   156    1
   277   158   160   ar
   278   158   157   ar
   279     1     3    1
   280   160   161   ar
   281   323   322    1
   282   323   328    1
   283   605   606   ar
   284   605   604   ar
   285   606   607   ar
   286   322   324    1
   287   227   228   ar
   288   227   230   ar
   289   152   150    1
   290   228   229    2
   291   190   211    2
   292   190   210    1
   293   603   613    1
   294   603   598    1
   295   597   598    1
   296   597   595    1
   297   231   230   ar
   298   336   335   ar
   299   336   329   ar
   300   604   609   ar
   301   335   333   ar
   302   157   163   ar
   303   607   613   ar
   304   607   608   ar
   305   156   167    1
   306   156   151    1
   307   613   612   ar
   308   161   167   ar
   309   161   162   ar
   310    37    18    2
   311   328   329    1
   312   328   326    1
   313     3     5    1
   314     3     4    1
   315   609   608   ar
   316   609   610    1
   317   329   330   ar
   318   595   596    1
   319   608   611   ar
   320   167   166   ar
   321   324   325    1
   322   324   326    1
   323    36    18    1
   324   150   151    1
   325   150   148    1
   326     6    18    1
   327     6     5    1
   328   333   334    1
   329   333   332   ar
   330   612   611   ar
   331    18    20    1
   332   163   162   ar
   333   163   164    2
   334     5     7    1
   335   325   339    1
   336     4     9    1
   337   162   165   ar
   338   326   327    1
   339   596   594    1
   340   330   332   ar
   341   330   331    2
   342   148   149    1
   343   166   165   ar
   344   358   339    2
   345    17    16   ar
   346    17    10   ar
   347   614   594    2
   348   139   138    2
   349   168   147    2
   350    16    14   ar
   351   339   357    1
   352   339   341    1
   353   140   138   ar
   354   140   141   ar
   355   594   615    1
   356   594   578    1
   357     9     7    1
   358     9    10    1
   359     7     8    1
   360    20    19    1
   361   142   141    1
   362   583   582   ar
   363   583   584   ar
   364   580   579    1
   365   101   100    2
   366   138   137   ar
   367   582   587   ar
   368    10    11   ar
   369   149   147    1
   370   584   585   ar
   371   141   143   ar
   372   135   134    1
   373   579   581    1
   374   579   577    1
   375    19    21    1
   376   147   133    1
   377   147   169    1
   378   134   132    1
   379   134   136    1
   380   341   340    1
   381   587   588    1
   382   587   586   ar
   383   355   356   ar
   384   355   353   ar
   385   354   353    1
   386    14    15    1
   387    14    13   ar
   388    94   100   ar
   389    94    95   ar
   390   585   586   ar
   391   585   591   ar
   392   100    99   ar
   393   578   577    1
   394    34    35   ar
   395    34    32   ar
   396   137   136    1
   397   137   144   ar
   398   133   132    1
   399   586   589   ar
   400   122   121    2
   401   340   342    1
   402   356   349   ar
   403    60    38    2
   404   353   352   ar
   405    11    13   ar
   406    11    12    2
   407   581   591    1
   408   581   576    1
   409   591   590   ar
   410   577   575    1
   411   143   144   ar
   412   132   130    1
   413    35    28   ar
   414   136   131    1
   415    78    77    2
   416    33    32    2
   417    96    95    1
   418   589   590   ar
   419    95    97   ar
   420    32    31   ar
   421    21    22    1
   422    21    23    1
   423    99   102   ar
   424    99    98   ar
   425   343   342    1
   426   343   348    1
   427   121   120   ar
   428   121   123   ar
   429    22    27    1
   430    23    24    1
   431    23    25    1
   432    38    59    1
   433    38    24    1
   434    38    40    1
   435   349   350   ar
   436   349   348    1
   437   342   344    1
   438   352   350   ar
   439   102   103   ar
   440   575   576    1
   441   575   573    1
   442   120   118   ar
   443    28    27    1
   444    28    29   ar
   445    77    71   ar
   446    77    76   ar
   447   131   130    1
   448   130   128    1
   449    97    98   ar
   450    98   104   ar
   451   350   351    2
   452   348   346    1
   453    55    54    2
   454   123   124   ar
   455    31    29   ar
   456    79    76   ar
   457    79    80   ar
   458   374   373    1
   459    27    25    1
   460    56    57   ar
   461    56    53   ar
   462   344   346    1
   463   344   345    1
   464    71    72   ar
   465    76    75   ar
   466    25    26    1
   467   561   560   ar
   468   561   562   ar
   469   560   565   ar
   470   395   394    1
   471   103   104   ar
   472    29    30    2
   473   129   128    1
   474   129   127    1
   475    40    39    1
   476   418   417    2
   477   118   119    2
   478   118   117   ar
   479   378   359    2
   480   573   574    1
   481   104    93    1
   482    57    58   ar
   483    54    53   ar
   484    54    48   ar
   485   346   347    1
   486   574   572    1
   487   375   373   ar
   488   375   376   ar
   489   345   359    1
   490   124   117   ar
   491   126   107    2
   492    53    52   ar
   493   373   372   ar
   494    80    81   ar
   495    83    61    2
   496   411   417   ar
   497   411   412   ar
   498   562   563   ar
   499   146   127    2
   500   117   116    1
   501   565   566    1
   502   565   564   ar
   503   417   416   ar
   504   413   412    1
   505    72    73    1
   506    72    74   ar
   507    75    81   ar
   508    75    74   ar
   509   359   377    1
   510   359   361    1
   511   394   389   ar
   512   394   393   ar
   513   127   145    1
   514   127   113    1
   515    39    41    1
   516   106    84    2
   517   389   390   ar
   518   376   369   ar
   519    48    49   ar
   520    91    93    1
   521    91    89    1
   522    91    92    1
   523    93    88    1
   524   412   414   ar
   525    81    70    1
   526   372   370   ar
   527    58    52   ar
   528    58    47    1
   529   563   564   ar
   530   563   569   ar
   531   558   557    1
   532    52    51   ar
   533   564   567   ar
   534   114   112    1
   535   114   116    1
   536   114   115    1
   537   107   109    1
   538   107   125    1
   539   107    90    1
   540   593   572    2
   541   572   592    1
   542   572   556    1
   543   109   108    1
   544   112   113    1
   545   112   110    1
   546    61    82    1
   547    61    44    1
   548    61    63    1
   549    43    41    1
   550    43    44    1
   551    43    45    1
   552   557   559    1
   553   557   555    1
   554   116   111    1
   555    89    90    1
   556    89    87    1
   557   393   396   ar
   558   393   392   ar
   559   396   397   ar
   560   361   360    1
   561    42    41    1
   562    42    47    1
   563   416   419   ar
   564   416   415   ar
   565    62    63    1
   566    62    64    1
   567    86    84    1
   568    86    85    1
   569    88    87    1
   570   369   370   ar
   571   369   368    1
   572    84    67    1
   573    84   105    1
   574   569   559    1
   575   569   568   ar
   576   370   371    2
   577    47    45    1
   578   439   438    2
   579    49    51   ar
   580    49    50    1
   581    66    64    1
   582    66    68    1
   583    66    67    1
   584   390   391   ar
   585   556   555    1
   586   544   543    1
   587   567   568   ar
   588   414   415   ar
   589    45    46    1
   590    70    65    1
   591    70    68    1
   592   111   110    1
   593   559   554    1
   594    65    64    1
   595   555   553    1
   596   538   543   ar
   597   538   539   ar
   598   110   108    1
   599   419   420   ar
   600    87    85    1
   601    68    69    1
   602   415   421   ar
   603   474   475   ar
   604   474   479   ar
   605   360   362    1
   606   363   368    1
   607   363   362    1
   608   392   391   ar
   609   392   398   ar
   610   397   398   ar
   611   543   542   ar
   612   475   476   ar
   613   438   437   ar
   614   438   440   ar
   615   368   366    1
   616   539   540   ar
   617   437   435   ar
   618   480   479    1
   619   479   478   ar
   620   362   364    1
   621   400   379    2
   622   398   388    1
   623   554   553    1
   624   420   421   ar
   625   553   551    1
   626   421   410    1
   627   364   366    1
   628   364   365    1
   629   476   477   ar
   630   542   541   ar
   631   542   545   ar
   632   436   435    2
   633   435   434   ar
   634   366   367    1
   635   440   441   ar
   636   540   541   ar
   637   478   477   ar
   638   478   481   ar
   639   477   483   ar
   640   552   551    1
   641   552   550    1
   642   541   547   ar
   643   545   546   ar
   644   365   379    1
   645   379   381    1
   646   379   399    1
   647   388   383    1
   648   388   386    1
   649   410   408    1
   650   410   405    1
   651   434   441   ar
   652   434   433    1
   653   409   408    1
   654   381   380    1
   655   481   482   ar
   656   383   382    1
   657   472   471    1
   658   571   550    2
   659   483   482   ar
   660   483   473    1
   661   471   473    1
   662   471   469    1
   663   408   406    1
   664   507   486    2
   665   546   547   ar
   666   547   537    1
   667   386   384    1
   668   386   387    1
   669   550   570    1
   670   550   534    1
   671   405   404    1
   672   523   522    1
   673   473   468    1
   674   433   428    1
   675   433   431    1
   676   384   382    1
   677   384   385    1
   678   423   401    2
   679   535   533    1
   680   535   537    1
   681   535   536    1
   682   382   380    1
   683   533   534    1
   684   533   531    1
   685   428   427    1
   686   537   532    1
   687   469   470    1
   688   469   467    1
   689   486   470    1
   690   486   506    1
   691   486   488    1
   692   403   401    1
   693   403   402    1
   694   406   404    1
   695   406   407    1
   696   404   402    1
   697   522   524   ar
   698   522   521   ar
   699   431   432    1
   700   431   429    1
   701   407   424    1
   702   401   385    1
   703   401   422    1
   704   502   501    1
   705   468   467    1
   706   524   525   ar
   707   532   531    1
   708   503   504   ar
   709   503   500   ar
   710   531   529    1
   711   426   424    1
   712   426   425    1
   713   521   519   ar
   714   467   465    1
   715   529   530    1
   716   488   487    1
   717   527   508    2
   718   427   429    1
   719   427   425    1
   720   429   430    1
   721   504   505   ar
   722   424   443    2
   723   424   442    1
   724   501   500   ar
   725   501   496   ar
   726   549   528    2
   727   500   499   ar
   728   525   518   ar
   729   463   444    2
   730   519   518   ar
   731   519   520    2
   732   466   465    1
   733   466   464    1
   734   530   528    1
   735   487   489    1
   736   518   517    1
   737   485   464    2
   738   508   510    1
   739   508   526    1
   740   508   492    1
   741   496   497   ar
   742   528   548    1
   743   528   514    1
   744   430   444    1
   745   505   499   ar
   746   505   495    1
   747   499   498   ar
   748   510   509    1
   749   444   462    1
   750   444   446    1
   751   450   464    1
   752   450   449    1
   753   491   492    1
   754   491   489    1
   755   491   493    1
   756   464   484    1
   757   489   490    1
   758   490   495    1
   759   513   515    1
   760   513   514    1
   761   513   511    1
   762   515   517    1
   763   515   516    1
   764   445   446    1
   765   445   447    1
   766   497   498   ar
   767   495   493    1
   768   517   512    1
   769   493   494    1
   770   449   447    1
   771   449   451    1
   772   512   511    1
   773   509   511    1
   774   447   448    1
   775   451   452    1
   776   451   453    1
   777   448   453    1
   778   453   454    1
   779   461   454   ar
   780   461   460   ar
   781   454   455   ar
   782   460   458   ar
   783   455   456    2
   784   455   457   ar
   785   458   457   ar
   786   458   459    2
