ligand
  PyMOL2.2          3D                             0

 10 11  0  0  0  0  0  0  0  0999 V2000
   53.4940  -13.5210    9.2940 N   0  0  0  0  0  0  0  0  0  0  0  0
   53.8870  -14.8120    9.5040 C   0  0  0  0  0  0  0  0  0  0  0  0
   54.2980  -15.6110    8.4850 N   0  0  0  0  0  0  0  0  0  0  0  0
   54.2780  -14.9830    7.2740 C   0  0  0  0  0  0  0  0  0  0  0  0
   53.8950  -13.6890    7.0100 C   0  0  0  0  0  0  0  0  0  0  0  0
   53.4640  -12.8630    8.0520 C   0  0  0  0  0  0  0  0  0  0  0  0
   53.0880  -11.7100    8.0170 O   0  0  0  0  0  0  0  0  0  0  0  0
   54.0270  -13.4600    5.6670 N   0  0  0  0  0  0  0  0  0  0  0  0
   54.4790  -14.5870    5.1270 C   0  0  0  0  0  0  0  0  0  0  0  0
   54.6490  -15.5660    6.0880 N   0  0  0  0  0  0  0  0  0  0  0  0
  1  2  4  0  0  0  0
  1  6  4  0  0  0  0
  2  3  4  0  0  0  0
  3  4  4  0  0  0  0
  4  5  4  0  0  0  0
  4 10  4  0  0  0  0
  5  6  4  0  0  0  0
  5  8  4  0  0  0  0
  6  7  2  0  0  0  0
  8  9  4  0  0  0  0
  9 10  4  0  0  0  0
M  END
$$$$
