ligand
 OpenBabel11021811423D
libRbt.so/2013.1/901 2013/11/27
 10 11  0  0  0  0  0  0  0  0999 V2000
   53.5272  -13.5790    9.1945 N   0  0  0  0  0  0  0  0  0  0  0  0
   53.7264  -14.9224    9.3389 C   0  0  0  0  0  0  0  0  0  0  0  0
   54.0190  -15.7216    8.2800 N   0  0  0  0  0  0  0  0  0  0  0  0
   54.0947  -15.0384    7.1015 C   0  0  0  0  0  0  0  0  0  0  0  0
   53.9061  -13.6908    6.9033 C   0  0  0  0  0  0  0  0  0  0  0  0
   53.5976  -12.8631    7.9866 C   0  0  0  0  0  0  0  0  0  0  0  0
   53.3946  -11.6672    8.0102 O   0  0  0  0  0  0  0  0  0  0  0  0
   54.0742  -13.4175    5.5727 N   0  0  0  0  0  0  0  0  0  0  0  0
   54.3579  -14.5704    4.9758 C   0  0  0  0  0  0  0  0  0  0  0  0
   54.3799  -15.6101    5.8866 N   0  0  0  0  0  0  0  0  0  0  0  0
  1  2  1  0  0  0  0
  1  6  1  0  0  0  0
  2  3  2  0  0  0  0
  3  4  1  0  0  0  0
  4  5  2  0  0  0  0
  4 10  1  0  0  0  0
  5  6  1  0  0  0  0
  5  8  1  0  0  0  0
  6  7  2  0  0  0  0
  8  9  1  0  0  0  0
  9 10  2  0  0  0  0
M  END
>  <CHROM.1>
53.89782445,-14.06300214,7.34017488,-2.86116876,1.34635705,-0.80446590

>  <Name>
ligand

>  <RI>
0

>  <Rbt.Current_Directory>
/home/itssahil/PROJECTS/Mol_Feturizer/New_Systems/rnas/2EEV

>  <Rbt.Executable>
rbdock ($Id: //depot/dev/client3/rdock/2013.1/src/exe/rbdock.cxx#4 $)

>  <Rbt.Library>
libRbt.so (2013.1, Build901 2013/11/27)

>  <Rbt.Parameter_File>
/export/apps/rDock/src/rDock_2013.1_src/data/scripts/dock_solv.prm

>  <Rbt.Receptor>
prm/pocket_docking_5.prm

>  <SCORE>
-19.5125

>  <SCORE.INTER>
-19.5125

>  <SCORE.INTER.CONST>
1

>  <SCORE.INTER.POLAR>
0

>  <SCORE.INTER.ROT>
0

>  <SCORE.INTER.SOLV>
4.36571

>  <SCORE.INTER.VDW>
-18.0636

>  <SCORE.INTER.norm>
-1.95125

>  <SCORE.INTRA>
0

>  <SCORE.INTRA.DIHEDRAL>
0

>  <SCORE.INTRA.DIHEDRAL.0>
0

>  <SCORE.INTRA.POLAR>
0

>  <SCORE.INTRA.POLAR.0>
0

>  <SCORE.INTRA.REPUL>
0

>  <SCORE.INTRA.REPUL.0>
0

>  <SCORE.INTRA.SOLV>
0

>  <SCORE.INTRA.SOLV.lig_0>
-4.25352

>  <SCORE.INTRA.VDW>
0

>  <SCORE.INTRA.VDW.0>
0

>  <SCORE.INTRA.norm>
0

>  <SCORE.RESTR>
0

>  <SCORE.RESTR.CAVITY>
0

>  <SCORE.RESTR.norm>
0

>  <SCORE.SYSTEM>
0

>  <SCORE.SYSTEM.CONST>
0

>  <SCORE.SYSTEM.DIHEDRAL>
0

>  <SCORE.SYSTEM.SOLV>
0

>  <SCORE.SYSTEM.norm>
0

>  <SCORE.heavy>
10

>  <SCORE.norm>
-1.95125

>  <RMSD>
0.239

$$$$
ligand
 OpenBabel11021811423D
libRbt.so/2013.1/901 2013/11/27
 10 11  0  0  0  0  0  0  0  0999 V2000
   53.5140  -13.5332    9.1846 N   0  0  0  0  0  0  0  0  0  0  0  0
   53.6906  -14.8779    9.3457 C   0  0  0  0  0  0  0  0  0  0  0  0
   53.9714  -15.6948    8.2971 N   0  0  0  0  0  0  0  0  0  0  0  0
   54.0602  -15.0273    7.1105 C   0  0  0  0  0  0  0  0  0  0  0  0
   53.8943  -13.6794    6.8955 C   0  0  0  0  0  0  0  0  0  0  0  0
   53.5980  -12.8335    7.9681 C   0  0  0  0  0  0  0  0  0  0  0  0
   53.4148  -11.6341    7.9767 O   0  0  0  0  0  0  0  0  0  0  0  0
   54.0688  -13.4252    5.5619 N   0  0  0  0  0  0  0  0  0  0  0  0
   54.3342  -14.5899    4.9797 C   0  0  0  0  0  0  0  0  0  0  0  0
   54.3376  -15.6185    5.9031 N   0  0  0  0  0  0  0  0  0  0  0  0
  1  2  1  0  0  0  0
  1  6  1  0  0  0  0
  2  3  2  0  0  0  0
  3  4  1  0  0  0  0
  4  5  2  0  0  0  0
  4 10  1  0  0  0  0
  5  6  1  0  0  0  0
  5  8  1  0  0  0  0
  6  7  2  0  0  0  0
  8  9  1  0  0  0  0
  9 10  2  0  0  0  0
M  END
>  <CHROM.1>
53.87921895,-14.04597801,7.33688847,-2.92044261,1.35695065,-0.75884389

>  <Name>
ligand

>  <RI>
0

>  <Rbt.Current_Directory>
/home/itssahil/PROJECTS/Mol_Feturizer/New_Systems/rnas/2EEV

>  <Rbt.Executable>
rbdock ($Id: //depot/dev/client3/rdock/2013.1/src/exe/rbdock.cxx#4 $)

>  <Rbt.Library>
libRbt.so (2013.1, Build901 2013/11/27)

>  <Rbt.Parameter_File>
/export/apps/rDock/src/rDock_2013.1_src/data/scripts/dock_solv.prm

>  <Rbt.Receptor>
prm/pocket_docking_6.prm

>  <SCORE>
-19.4501

>  <SCORE.INTER>
-19.4501

>  <SCORE.INTER.CONST>
1

>  <SCORE.INTER.POLAR>
0

>  <SCORE.INTER.ROT>
0

>  <SCORE.INTER.SOLV>
4.40881

>  <SCORE.INTER.VDW>
-18.0364

>  <SCORE.INTER.norm>
-1.94501

>  <SCORE.INTRA>
0

>  <SCORE.INTRA.DIHEDRAL>
0

>  <SCORE.INTRA.DIHEDRAL.0>
0

>  <SCORE.INTRA.POLAR>
0

>  <SCORE.INTRA.POLAR.0>
0

>  <SCORE.INTRA.REPUL>
0

>  <SCORE.INTRA.REPUL.0>
0

>  <SCORE.INTRA.SOLV>
0

>  <SCORE.INTRA.SOLV.lig_0>
-4.25352

>  <SCORE.INTRA.VDW>
0

>  <SCORE.INTRA.VDW.0>
0

>  <SCORE.INTRA.norm>
0

>  <SCORE.RESTR>
0

>  <SCORE.RESTR.CAVITY>
0

>  <SCORE.RESTR.norm>
0

>  <SCORE.SYSTEM>
0

>  <SCORE.SYSTEM.CONST>
0

>  <SCORE.SYSTEM.DIHEDRAL>
0

>  <SCORE.SYSTEM.SOLV>
0

>  <SCORE.SYSTEM.norm>
0

>  <SCORE.heavy>
10

>  <SCORE.norm>
-1.94501

>  <RMSD>
0.255

$$$$
ligand
 OpenBabel11021811423D
libRbt.so/2013.1/901 2013/11/27
 10 11  0  0  0  0  0  0  0  0999 V2000
   53.5828  -13.6754    9.2058 N   0  0  0  0  0  0  0  0  0  0  0  0
   53.8027  -15.0200    9.3001 C   0  0  0  0  0  0  0  0  0  0  0  0
   54.0737  -15.7805    8.2074 N   0  0  0  0  0  0  0  0  0  0  0  0
   54.1061  -15.0583    7.0503 C   0  0  0  0  0  0  0  0  0  0  0  0
   53.8951  -13.7077    6.9021 C   0  0  0  0  0  0  0  0  0  0  0  0
   53.6086  -12.9198    8.0206 C   0  0  0  0  0  0  0  0  0  0  0  0
   53.3916  -11.7281    8.0893 O   0  0  0  0  0  0  0  0  0  0  0  0
   54.0204  -13.3891    5.5768 N   0  0  0  0  0  0  0  0  0  0  0  0
   54.3005  -14.5181    4.9344 C   0  0  0  0  0  0  0  0  0  0  0  0
   54.3623  -15.5864    5.8095 N   0  0  0  0  0  0  0  0  0  0  0  0
  1  2  1  0  0  0  0
  1  6  1  0  0  0  0
  2  3  2  0  0  0  0
  3  4  1  0  0  0  0
  4  5  2  0  0  0  0
  4 10  1  0  0  0  0
  5  6  1  0  0  0  0
  5  8  1  0  0  0  0
  6  7  2  0  0  0  0
  8  9  1  0  0  0  0
  9 10  2  0  0  0  0
M  END
>  <CHROM.1>
53.90435249,-14.09392832,7.32652966,-2.72059007,1.35592279,-0.90898951

>  <Name>
ligand

>  <RI>
0

>  <Rbt.Current_Directory>
/home/itssahil/PROJECTS/Mol_Feturizer/New_Systems/rnas/2EEV

>  <Rbt.Executable>
rbdock ($Id: //depot/dev/client3/rdock/2013.1/src/exe/rbdock.cxx#4 $)

>  <Rbt.Library>
libRbt.so (2013.1, Build901 2013/11/27)

>  <Rbt.Parameter_File>
/export/apps/rDock/src/rDock_2013.1_src/data/scripts/dock_solv.prm

>  <Rbt.Receptor>
prm/pocket_docking_5.prm

>  <SCORE>
-19.4892

>  <SCORE.INTER>
-19.4892

>  <SCORE.INTER.CONST>
1

>  <SCORE.INTER.POLAR>
0

>  <SCORE.INTER.ROT>
0

>  <SCORE.INTER.SOLV>
4.36087

>  <SCORE.INTER.VDW>
-18.0464

>  <SCORE.INTER.norm>
-1.94892

>  <SCORE.INTRA>
0

>  <SCORE.INTRA.DIHEDRAL>
0

>  <SCORE.INTRA.DIHEDRAL.0>
0

>  <SCORE.INTRA.POLAR>
0

>  <SCORE.INTRA.POLAR.0>
0

>  <SCORE.INTRA.REPUL>
0

>  <SCORE.INTRA.REPUL.0>
0

>  <SCORE.INTRA.SOLV>
0

>  <SCORE.INTRA.SOLV.lig_0>
-4.25352

>  <SCORE.INTRA.VDW>
0

>  <SCORE.INTRA.VDW.0>
0

>  <SCORE.INTRA.norm>
0

>  <SCORE.RESTR>
0

>  <SCORE.RESTR.CAVITY>
0

>  <SCORE.RESTR.norm>
0

>  <SCORE.SYSTEM>
0

>  <SCORE.SYSTEM.CONST>
0

>  <SCORE.SYSTEM.DIHEDRAL>
0

>  <SCORE.SYSTEM.SOLV>
0

>  <SCORE.SYSTEM.norm>
0

>  <SCORE.heavy>
10

>  <SCORE.norm>
-1.94892

>  <RMSD>
0.275

$$$$
ligand
 OpenBabel11021811423D
libRbt.so/2013.1/901 2013/11/27
 10 11  0  0  0  0  0  0  0  0999 V2000
   53.4887  -13.5623    9.0954 N   0  0  0  0  0  0  0  0  0  0  0  0
   53.7198  -14.8964    9.2746 C   0  0  0  0  0  0  0  0  0  0  0  0
   54.0266  -15.7166    8.2359 N   0  0  0  0  0  0  0  0  0  0  0  0
   54.0814  -15.0636    7.0393 C   0  0  0  0  0  0  0  0  0  0  0  0
   53.8604  -13.7266    6.8061 C   0  0  0  0  0  0  0  0  0  0  0  0
   53.5371  -12.8776    7.8685 C   0  0  0  0  0  0  0  0  0  0  0  0
   53.3062  -11.6865    7.8611 O   0  0  0  0  0  0  0  0  0  0  0  0
   54.0164  -13.4852    5.4679 N   0  0  0  0  0  0  0  0  0  0  0  0
   54.3246  -14.6467    4.9006 C   0  0  0  0  0  0  0  0  0  0  0  0
   54.3747  -15.6608    5.8387 N   0  0  0  0  0  0  0  0  0  0  0  0
  1  2  1  0  0  0  0
  1  6  1  0  0  0  0
  2  3  2  0  0  0  0
  3  4  1  0  0  0  0
  4  5  2  0  0  0  0
  4 10  1  0  0  0  0
  5  6  1  0  0  0  0
  5  8  1  0  0  0  0
  6  7  2  0  0  0  0
  8  9  1  0  0  0  0
  9 10  2  0  0  0  0
M  END
>  <CHROM.1>
53.86267802,-14.08701862,7.25280674,-2.77962065,1.33161191,-0.91058117

>  <Name>
ligand

>  <RI>
0

>  <Rbt.Current_Directory>
/home/itssahil/PROJECTS/Mol_Feturizer/New_Systems/rnas/2EEV

>  <Rbt.Executable>
rbdock ($Id: //depot/dev/client3/rdock/2013.1/src/exe/rbdock.cxx#4 $)

>  <Rbt.Library>
libRbt.so (2013.1, Build901 2013/11/27)

>  <Rbt.Parameter_File>
/export/apps/rDock/src/rDock_2013.1_src/data/scripts/dock_solv.prm

>  <Rbt.Receptor>
prm/pocket_docking_6.prm

>  <SCORE>
-19.6538

>  <SCORE.INTER>
-19.6538

>  <SCORE.INTER.CONST>
1

>  <SCORE.INTER.POLAR>
0

>  <SCORE.INTER.ROT>
0

>  <SCORE.INTER.SOLV>
4.30755

>  <SCORE.INTER.VDW>
-18.1384

>  <SCORE.INTER.norm>
-1.96538

>  <SCORE.INTRA>
0

>  <SCORE.INTRA.DIHEDRAL>
0

>  <SCORE.INTRA.DIHEDRAL.0>
0

>  <SCORE.INTRA.POLAR>
0

>  <SCORE.INTRA.POLAR.0>
0

>  <SCORE.INTRA.REPUL>
0

>  <SCORE.INTRA.REPUL.0>
0

>  <SCORE.INTRA.SOLV>
0

>  <SCORE.INTRA.SOLV.lig_0>
-4.25352

>  <SCORE.INTRA.VDW>
0

>  <SCORE.INTRA.VDW.0>
0

>  <SCORE.INTRA.norm>
0

>  <SCORE.RESTR>
0

>  <SCORE.RESTR.CAVITY>
0

>  <SCORE.RESTR.norm>
0

>  <SCORE.SYSTEM>
0

>  <SCORE.SYSTEM.CONST>
0

>  <SCORE.SYSTEM.DIHEDRAL>
0

>  <SCORE.SYSTEM.SOLV>
0

>  <SCORE.SYSTEM.norm>
0

>  <SCORE.heavy>
10

>  <SCORE.norm>
-1.96538

>  <RMSD>
0.282

$$$$
ligand
 OpenBabel11021811423D
libRbt.so/2013.1/901 2013/11/27
 10 11  0  0  0  0  0  0  0  0999 V2000
   53.4538  -13.4360    9.0563 N   0  0  0  0  0  0  0  0  0  0  0  0
   53.7043  -14.7601    9.2783 C   0  0  0  0  0  0  0  0  0  0  0  0
   54.0273  -15.6080    8.2671 N   0  0  0  0  0  0  0  0  0  0  0  0
   54.0767  -14.9923    7.0507 C   0  0  0  0  0  0  0  0  0  0  0  0
   53.8365  -13.6668    6.7746 C   0  0  0  0  0  0  0  0  0  0  0  0
   53.4966  -12.7897    7.8085 C   0  0  0  0  0  0  0  0  0  0  0  0
   53.2478  -11.6031    7.7627 O   0  0  0  0  0  0  0  0  0  0  0  0
   53.9939  -13.4654    5.4299 N   0  0  0  0  0  0  0  0  0  0  0  0
   54.3217  -14.6395    4.9007 C   0  0  0  0  0  0  0  0  0  0  0  0
   54.3835  -15.6226    5.8705 N   0  0  0  0  0  0  0  0  0  0  0  0
  1  2  1  0  0  0  0
  1  6  1  0  0  0  0
  2  3  2  0  0  0  0
  3  4  1  0  0  0  0
  4  5  2  0  0  0  0
  4 10  1  0  0  0  0
  5  6  1  0  0  0  0
  5  8  1  0  0  0  0
  6  7  2  0  0  0  0
  8  9  1  0  0  0  0
  9 10  2  0  0  0  0
M  END
>  <CHROM.1>
53.84257286,-14.01289520,7.23246454,-2.75472392,1.31736320,-0.96632460

>  <Name>
ligand

>  <RI>
0

>  <Rbt.Current_Directory>
/home/itssahil/PROJECTS/Mol_Feturizer/New_Systems/rnas/2EEV

>  <Rbt.Executable>
rbdock ($Id: //depot/dev/client3/rdock/2013.1/src/exe/rbdock.cxx#4 $)

>  <Rbt.Library>
libRbt.so (2013.1, Build901 2013/11/27)

>  <Rbt.Parameter_File>
/export/apps/rDock/src/rDock_2013.1_src/data/scripts/dock_solv.prm

>  <Rbt.Receptor>
prm/blind_docking_60.prm

>  <SCORE>
-19.6023

>  <SCORE.INTER>
-19.6023

>  <SCORE.INTER.CONST>
1

>  <SCORE.INTER.POLAR>
0

>  <SCORE.INTER.ROT>
0

>  <SCORE.INTER.SOLV>
4.24541

>  <SCORE.INTER.VDW>
-18.0833

>  <SCORE.INTER.norm>
-1.96023

>  <SCORE.INTRA>
0

>  <SCORE.INTRA.DIHEDRAL>
0

>  <SCORE.INTRA.DIHEDRAL.0>
0

>  <SCORE.INTRA.POLAR>
0

>  <SCORE.INTRA.POLAR.0>
0

>  <SCORE.INTRA.REPUL>
0

>  <SCORE.INTRA.REPUL.0>
0

>  <SCORE.INTRA.SOLV>
0

>  <SCORE.INTRA.SOLV.lig_0>
-4.25352

>  <SCORE.INTRA.VDW>
0

>  <SCORE.INTRA.VDW.0>
0

>  <SCORE.INTRA.norm>
0

>  <SCORE.RESTR>
0

>  <SCORE.RESTR.CAVITY>
0

>  <SCORE.RESTR.norm>
0

>  <SCORE.SYSTEM>
0

>  <SCORE.SYSTEM.CONST>
0

>  <SCORE.SYSTEM.DIHEDRAL>
0

>  <SCORE.SYSTEM.SOLV>
0

>  <SCORE.SYSTEM.norm>
0

>  <SCORE.heavy>
10

>  <SCORE.norm>
-1.96023

>  <RMSD>
0.291

$$$$
ligand
 OpenBabel11021811423D
libRbt.so/2013.1/901 2013/11/27
 10 11  0  0  0  0  0  0  0  0999 V2000
   53.6226  -13.6803    9.2526 N   0  0  0  0  0  0  0  0  0  0  0  0
   53.7869  -15.0337    9.3338 C   0  0  0  0  0  0  0  0  0  0  0  0
   54.0185  -15.7951    8.2327 N   0  0  0  0  0  0  0  0  0  0  0  0
   54.0730  -15.0647    7.0816 C   0  0  0  0  0  0  0  0  0  0  0  0
   53.9174  -13.7052    6.9465 C   0  0  0  0  0  0  0  0  0  0  0  0
   53.6716  -12.9160    8.0736 C   0  0  0  0  0  0  0  0  0  0  0  0
   53.5049  -11.7170    8.1541 O   0  0  0  0  0  0  0  0  0  0  0  0
   54.0467  -13.3804    5.6231 N   0  0  0  0  0  0  0  0  0  0  0  0
   54.2752  -14.5145    4.9690 C   0  0  0  0  0  0  0  0  0  0  0  0
   54.2984  -15.5921    5.8345 N   0  0  0  0  0  0  0  0  0  0  0  0
  1  2  1  0  0  0  0
  1  6  1  0  0  0  0
  2  3  2  0  0  0  0
  3  4  1  0  0  0  0
  4  5  2  0  0  0  0
  4 10  1  0  0  0  0
  5  6  1  0  0  0  0
  5  8  1  0  0  0  0
  6  7  2  0  0  0  0
  8  9  1  0  0  0  0
  9 10  2  0  0  0  0
M  END
>  <CHROM.1>
53.91346902,-14.09525643,7.36752072,-2.83406637,1.39187446,-0.78902036

>  <Name>
ligand

>  <RI>
0

>  <Rbt.Current_Directory>
/home/itssahil/PROJECTS/Mol_Feturizer/New_Systems/rnas/2EEV

>  <Rbt.Executable>
rbdock ($Id: //depot/dev/client3/rdock/2013.1/src/exe/rbdock.cxx#4 $)

>  <Rbt.Library>
libRbt.so (2013.1, Build901 2013/11/27)

>  <Rbt.Parameter_File>
/export/apps/rDock/src/rDock_2013.1_src/data/scripts/dock_solv.prm

>  <Rbt.Receptor>
prm/blind_docking_80.prm

>  <SCORE>
-19.4381

>  <SCORE.INTER>
-19.4381

>  <SCORE.INTER.CONST>
1

>  <SCORE.INTER.POLAR>
0

>  <SCORE.INTER.ROT>
0

>  <SCORE.INTER.SOLV>
4.49235

>  <SCORE.INTER.VDW>
-18.0562

>  <SCORE.INTER.norm>
-1.94381

>  <SCORE.INTRA>
0

>  <SCORE.INTRA.DIHEDRAL>
0

>  <SCORE.INTRA.DIHEDRAL.0>
0

>  <SCORE.INTRA.POLAR>
0

>  <SCORE.INTRA.POLAR.0>
0

>  <SCORE.INTRA.REPUL>
0

>  <SCORE.INTRA.REPUL.0>
0

>  <SCORE.INTRA.SOLV>
0

>  <SCORE.INTRA.SOLV.lig_0>
-4.25352

>  <SCORE.INTRA.VDW>
0

>  <SCORE.INTRA.VDW.0>
0

>  <SCORE.INTRA.norm>
0

>  <SCORE.RESTR>
0

>  <SCORE.RESTR.CAVITY>
0

>  <SCORE.RESTR.norm>
0

>  <SCORE.SYSTEM>
0

>  <SCORE.SYSTEM.CONST>
0

>  <SCORE.SYSTEM.DIHEDRAL>
0

>  <SCORE.SYSTEM.SOLV>
0

>  <SCORE.SYSTEM.norm>
0

>  <SCORE.heavy>
10

>  <SCORE.norm>
-1.94381

>  <RMSD>
0.301

$$$$
ligand
 OpenBabel11021811423D
libRbt.so/2013.1/901 2013/11/27
 10 11  0  0  0  0  0  0  0  0999 V2000
   53.5296  -13.5966    9.1280 N   0  0  0  0  0  0  0  0  0  0  0  0
   53.7241  -14.9414    9.2656 C   0  0  0  0  0  0  0  0  0  0  0  0
   53.9950  -15.7393    8.2000 N   0  0  0  0  0  0  0  0  0  0  0  0
   54.0549  -15.0534    7.0222 C   0  0  0  0  0  0  0  0  0  0  0  0
   53.8700  -13.7044    6.8305 C   0  0  0  0  0  0  0  0  0  0  0  0
   53.5837  -12.8780    7.9209 C   0  0  0  0  0  0  0  0  0  0  0  0
   53.3873  -11.6811    7.9508 O   0  0  0  0  0  0  0  0  0  0  0  0
   54.0175  -13.4285    5.4980 N   0  0  0  0  0  0  0  0  0  0  0  0
   54.2854  -14.5813    4.8936 C   0  0  0  0  0  0  0  0  0  0  0  0
   54.3170  -15.6234    5.8013 N   0  0  0  0  0  0  0  0  0  0  0  0
  1  2  1  0  0  0  0
  1  6  1  0  0  0  0
  2  3  2  0  0  0  0
  3  4  1  0  0  0  0
  4  5  2  0  0  0  0
  4 10  1  0  0  0  0
  5  6  1  0  0  0  0
  5  8  1  0  0  0  0
  6  7  2  0  0  0  0
  8  9  1  0  0  0  0
  9 10  2  0  0  0  0
M  END
>  <CHROM.1>
53.86702684,-14.07767378,7.26651700,-2.82128943,1.36137491,-0.84084584

>  <Name>
ligand

>  <RI>
0

>  <Rbt.Current_Directory>
/home/itssahil/PROJECTS/Mol_Feturizer/New_Systems/rnas/2EEV

>  <Rbt.Executable>
rbdock ($Id: //depot/dev/client3/rdock/2013.1/src/exe/rbdock.cxx#4 $)

>  <Rbt.Library>
libRbt.so (2013.1, Build901 2013/11/27)

>  <Rbt.Parameter_File>
/export/apps/rDock/src/rDock_2013.1_src/data/scripts/dock_solv.prm

>  <Rbt.Receptor>
prm/pocket_docking_5.prm

>  <SCORE>
-19.6396

>  <SCORE.INTER>
-19.6396

>  <SCORE.INTER.CONST>
1

>  <SCORE.INTER.POLAR>
0

>  <SCORE.INTER.ROT>
0

>  <SCORE.INTER.SOLV>
4.38576

>  <SCORE.INTER.VDW>
-18.155

>  <SCORE.INTER.norm>
-1.96396

>  <SCORE.INTRA>
0

>  <SCORE.INTRA.DIHEDRAL>
0

>  <SCORE.INTRA.DIHEDRAL.0>
0

>  <SCORE.INTRA.POLAR>
0

>  <SCORE.INTRA.POLAR.0>
0

>  <SCORE.INTRA.REPUL>
0

>  <SCORE.INTRA.REPUL.0>
0

>  <SCORE.INTRA.SOLV>
0

>  <SCORE.INTRA.SOLV.lig_0>
-4.25352

>  <SCORE.INTRA.VDW>
0

>  <SCORE.INTRA.VDW.0>
0

>  <SCORE.INTRA.norm>
0

>  <SCORE.RESTR>
0

>  <SCORE.RESTR.CAVITY>
0

>  <SCORE.RESTR.norm>
0

>  <SCORE.SYSTEM>
0

>  <SCORE.SYSTEM.CONST>
0

>  <SCORE.SYSTEM.DIHEDRAL>
0

>  <SCORE.SYSTEM.SOLV>
0

>  <SCORE.SYSTEM.norm>
0

>  <SCORE.heavy>
10

>  <SCORE.norm>
-1.96396

>  <RMSD>
0.303

$$$$
ligand
 OpenBabel11021811423D
libRbt.so/2013.1/901 2013/11/27
 10 11  0  0  0  0  0  0  0  0999 V2000
   53.6232  -13.6590    9.1877 N   0  0  0  0  0  0  0  0  0  0  0  0
   53.8174  -15.0081    9.2738 C   0  0  0  0  0  0  0  0  0  0  0  0
   54.0635  -15.7684    8.1751 N   0  0  0  0  0  0  0  0  0  0  0  0
   54.0996  -15.0416    7.0212 C   0  0  0  0  0  0  0  0  0  0  0  0
   53.9139  -13.6863    6.8811 C   0  0  0  0  0  0  0  0  0  0  0  0
   53.6530  -12.8984    8.0057 C   0  0  0  0  0  0  0  0  0  0  0  0
   53.4601  -11.7030    8.0819 O   0  0  0  0  0  0  0  0  0  0  0  0
   54.0334  -13.3639    5.5562 N   0  0  0  0  0  0  0  0  0  0  0  0
   54.2854  -14.4952    4.9060 C   0  0  0  0  0  0  0  0  0  0  0  0
   54.3341  -15.5686    5.7756 N   0  0  0  0  0  0  0  0  0  0  0  0
  1  2  1  0  0  0  0
  1  6  1  0  0  0  0
  2  3  2  0  0  0  0
  3  4  1  0  0  0  0
  4  5  2  0  0  0  0
  4 10  1  0  0  0  0
  5  6  1  0  0  0  0
  5  8  1  0  0  0  0
  6  7  2  0  0  0  0
  8  9  1  0  0  0  0
  9 10  2  0  0  0  0
M  END
>  <CHROM.1>
53.91937686,-14.07473753,7.30364824,-2.74620712,1.37692903,-0.87921744

>  <Name>
ligand

>  <RI>
0

>  <Rbt.Current_Directory>
/home/itssahil/PROJECTS/Mol_Feturizer/New_Systems/rnas/2EEV

>  <Rbt.Executable>
rbdock ($Id: //depot/dev/client3/rdock/2013.1/src/exe/rbdock.cxx#4 $)

>  <Rbt.Library>
libRbt.so (2013.1, Build901 2013/11/27)

>  <Rbt.Parameter_File>
/export/apps/rDock/src/rDock_2013.1_src/data/scripts/dock_solv.prm

>  <Rbt.Receptor>
prm/blind_docking_80.prm

>  <SCORE>
-19.5168

>  <SCORE.INTER>
-19.5168

>  <SCORE.INTER.CONST>
1

>  <SCORE.INTER.POLAR>
0

>  <SCORE.INTER.ROT>
0

>  <SCORE.INTER.SOLV>
4.39025

>  <SCORE.INTER.VDW>
-18.0746

>  <SCORE.INTER.norm>
-1.95168

>  <SCORE.INTRA>
0

>  <SCORE.INTRA.DIHEDRAL>
0

>  <SCORE.INTRA.DIHEDRAL.0>
0

>  <SCORE.INTRA.POLAR>
0

>  <SCORE.INTRA.POLAR.0>
0

>  <SCORE.INTRA.REPUL>
0

>  <SCORE.INTRA.REPUL.0>
0

>  <SCORE.INTRA.SOLV>
0

>  <SCORE.INTRA.SOLV.lig_0>
-4.25352

>  <SCORE.INTRA.VDW>
0

>  <SCORE.INTRA.VDW.0>
0

>  <SCORE.INTRA.norm>
0

>  <SCORE.RESTR>
0

>  <SCORE.RESTR.CAVITY>
0

>  <SCORE.RESTR.norm>
0

>  <SCORE.SYSTEM>
0

>  <SCORE.SYSTEM.CONST>
0

>  <SCORE.SYSTEM.DIHEDRAL>
0

>  <SCORE.SYSTEM.SOLV>
0

>  <SCORE.SYSTEM.norm>
0

>  <SCORE.heavy>
10

>  <SCORE.norm>
-1.95168

>  <RMSD>
0.305

$$$$
ligand
 OpenBabel11021811423D
libRbt.so/2013.1/901 2013/11/27
 10 11  0  0  0  0  0  0  0  0999 V2000
   53.6236  -13.6839    9.2690 N   0  0  0  0  0  0  0  0  0  0  0  0
   53.7685  -15.0400    9.3417 C   0  0  0  0  0  0  0  0  0  0  0  0
   53.9899  -15.7976    8.2359 N   0  0  0  0  0  0  0  0  0  0  0  0
   54.0556  -15.0608    7.0895 C   0  0  0  0  0  0  0  0  0  0  0  0
   53.9195  -13.6984    6.9629 C   0  0  0  0  0  0  0  0  0  0  0  0
   53.6843  -12.9129    8.0949 C   0  0  0  0  0  0  0  0  0  0  0  0
   53.5346  -11.7121    8.1829 O   0  0  0  0  0  0  0  0  0  0  0  0
   54.0543  -13.3671    5.6417 N   0  0  0  0  0  0  0  0  0  0  0  0
   54.2670  -14.5001    4.9806 C   0  0  0  0  0  0  0  0  0  0  0  0
   54.2742  -15.5834    5.8392 N   0  0  0  0  0  0  0  0  0  0  0  0
  1  2  1  0  0  0  0
  1  6  1  0  0  0  0
  2  3  2  0  0  0  0
  3  4  1  0  0  0  0
  4  5  2  0  0  0  0
  4 10  1  0  0  0  0
  5  6  1  0  0  0  0
  5  8  1  0  0  0  0
  6  7  2  0  0  0  0
  8  9  1  0  0  0  0
  9 10  2  0  0  0  0
M  END
>  <CHROM.1>
53.90972792,-14.09100329,7.38146440,-2.89648119,1.40122980,-0.72119567

>  <Name>
ligand

>  <RI>
0

>  <Rbt.Current_Directory>
/home/itssahil/PROJECTS/Mol_Feturizer/New_Systems/rnas/2EEV

>  <Rbt.Executable>
rbdock ($Id: //depot/dev/client3/rdock/2013.1/src/exe/rbdock.cxx#4 $)

>  <Rbt.Library>
libRbt.so (2013.1, Build901 2013/11/27)

>  <Rbt.Parameter_File>
/export/apps/rDock/src/rDock_2013.1_src/data/scripts/dock_solv.prm

>  <Rbt.Receptor>
prm/pocket_docking_5.prm

>  <SCORE>
-19.4361

>  <SCORE.INTER>
-19.4361

>  <SCORE.INTER.CONST>
1

>  <SCORE.INTER.POLAR>
0

>  <SCORE.INTER.ROT>
0

>  <SCORE.INTER.SOLV>
4.54446

>  <SCORE.INTER.VDW>
-18.0722

>  <SCORE.INTER.norm>
-1.94361

>  <SCORE.INTRA>
0

>  <SCORE.INTRA.DIHEDRAL>
0

>  <SCORE.INTRA.DIHEDRAL.0>
0

>  <SCORE.INTRA.POLAR>
0

>  <SCORE.INTRA.POLAR.0>
0

>  <SCORE.INTRA.REPUL>
0

>  <SCORE.INTRA.REPUL.0>
0

>  <SCORE.INTRA.SOLV>
0

>  <SCORE.INTRA.SOLV.lig_0>
-4.25352

>  <SCORE.INTRA.VDW>
0

>  <SCORE.INTRA.VDW.0>
0

>  <SCORE.INTRA.norm>
0

>  <SCORE.RESTR>
0

>  <SCORE.RESTR.CAVITY>
0

>  <SCORE.RESTR.norm>
0

>  <SCORE.SYSTEM>
0

>  <SCORE.SYSTEM.CONST>
0

>  <SCORE.SYSTEM.DIHEDRAL>
0

>  <SCORE.SYSTEM.SOLV>
0

>  <SCORE.SYSTEM.norm>
0

>  <SCORE.heavy>
10

>  <SCORE.norm>
-1.94361

>  <RMSD>
0.314

$$$$
ligand
 OpenBabel11021811423D
libRbt.so/2013.1/901 2013/11/27
 10 11  0  0  0  0  0  0  0  0999 V2000
   53.5489  -13.6057    9.1082 N   0  0  0  0  0  0  0  0  0  0  0  0
   53.7396  -14.9515    9.2410 C   0  0  0  0  0  0  0  0  0  0  0  0
   54.0111  -15.7460    8.1729 N   0  0  0  0  0  0  0  0  0  0  0  0
   54.0757  -15.0556    6.9979 C   0  0  0  0  0  0  0  0  0  0  0  0
   53.8948  -13.7053    6.8112 C   0  0  0  0  0  0  0  0  0  0  0  0
   53.6079  -12.8824    7.9041 C   0  0  0  0  0  0  0  0  0  0  0  0
   53.4146  -11.6852    7.9382 O   0  0  0  0  0  0  0  0  0  0  0  0
   54.0464  -13.4245    5.4801 N   0  0  0  0  0  0  0  0  0  0  0  0
   54.3128  -14.5756    4.8718 C   0  0  0  0  0  0  0  0  0  0  0  0
   54.3394  -15.6214    5.7755 N   0  0  0  0  0  0  0  0  0  0  0  0
  1  2  1  0  0  0  0
  1  6  1  0  0  0  0
  2  3  2  0  0  0  0
  3  4  1  0  0  0  0
  4  5  2  0  0  0  0
  4 10  1  0  0  0  0
  5  6  1  0  0  0  0
  5  8  1  0  0  0  0
  6  7  2  0  0  0  0
  8  9  1  0  0  0  0
  9 10  2  0  0  0  0
M  END
>  <CHROM.1>
53.88976636,-14.08028087,7.24566881,-2.83865676,1.36161226,-0.81989780

>  <Name>
ligand

>  <RI>
0

>  <Rbt.Current_Directory>
/home/itssahil/PROJECTS/Mol_Feturizer/New_Systems/rnas/2EEV

>  <Rbt.Executable>
rbdock ($Id: //depot/dev/client3/rdock/2013.1/src/exe/rbdock.cxx#4 $)

>  <Rbt.Library>
libRbt.so (2013.1, Build901 2013/11/27)

>  <Rbt.Parameter_File>
/export/apps/rDock/src/rDock_2013.1_src/data/scripts/dock_solv.prm

>  <Rbt.Receptor>
prm/pocket_docking_7.prm

>  <SCORE>
-19.6367

>  <SCORE.INTER>
-19.6367

>  <SCORE.INTER.CONST>
1

>  <SCORE.INTER.POLAR>
0

>  <SCORE.INTER.ROT>
0

>  <SCORE.INTER.SOLV>
4.36388

>  <SCORE.INTER.VDW>
-18.1458

>  <SCORE.INTER.norm>
-1.96367

>  <SCORE.INTRA>
0

>  <SCORE.INTRA.DIHEDRAL>
0

>  <SCORE.INTRA.DIHEDRAL.0>
0

>  <SCORE.INTRA.POLAR>
0

>  <SCORE.INTRA.POLAR.0>
0

>  <SCORE.INTRA.REPUL>
0

>  <SCORE.INTRA.REPUL.0>
0

>  <SCORE.INTRA.SOLV>
0

>  <SCORE.INTRA.SOLV.lig_0>
-4.25352

>  <SCORE.INTRA.VDW>
0

>  <SCORE.INTRA.VDW.0>
0

>  <SCORE.INTRA.norm>
0

>  <SCORE.RESTR>
0

>  <SCORE.RESTR.CAVITY>
0

>  <SCORE.RESTR.norm>
0

>  <SCORE.SYSTEM>
0

>  <SCORE.SYSTEM.CONST>
0

>  <SCORE.SYSTEM.DIHEDRAL>
0

>  <SCORE.SYSTEM.SOLV>
0

>  <SCORE.SYSTEM.norm>
0

>  <SCORE.heavy>
10

>  <SCORE.norm>
-1.96367

>  <RMSD>
0.316

$$$$
ligand
 OpenBabel11021811423D
libRbt.so/2013.1/901 2013/11/27
 10 11  0  0  0  0  0  0  0  0999 V2000
   53.5754  -13.6206    9.1249 N   0  0  0  0  0  0  0  0  0  0  0  0
   53.7595  -14.9673    9.2587 C   0  0  0  0  0  0  0  0  0  0  0  0
   54.0117  -15.7661    8.1892 N   0  0  0  0  0  0  0  0  0  0  0  0
   54.0646  -15.0791    7.0116 C   0  0  0  0  0  0  0  0  0  0  0  0
   53.8896  -13.7282    6.8238 C   0  0  0  0  0  0  0  0  0  0  0  0
   53.6226  -12.9008    7.9183 C   0  0  0  0  0  0  0  0  0  0  0  0
   53.4371  -11.7023    7.9519 O   0  0  0  0  0  0  0  0  0  0  0  0
   54.0249  -13.4518    5.4901 N   0  0  0  0  0  0  0  0  0  0  0  0
   54.2760  -14.6061    4.8813 C   0  0  0  0  0  0  0  0  0  0  0  0
   54.3083  -15.6497    5.7872 N   0  0  0  0  0  0  0  0  0  0  0  0
  1  2  1  0  0  0  0
  1  6  1  0  0  0  0
  2  3  2  0  0  0  0
  3  4  1  0  0  0  0
  4  5  2  0  0  0  0
  4 10  1  0  0  0  0
  5  6  1  0  0  0  0
  5  8  1  0  0  0  0
  6  7  2  0  0  0  0
  8  9  1  0  0  0  0
  9 10  2  0  0  0  0
M  END
>  <CHROM.1>
53.88809818,-14.10205076,7.25928697,-2.80955285,1.37524872,-0.85101059

>  <Name>
ligand

>  <RI>
0

>  <Rbt.Current_Directory>
/home/itssahil/PROJECTS/Mol_Feturizer/New_Systems/rnas/2EEV

>  <Rbt.Executable>
rbdock ($Id: //depot/dev/client3/rdock/2013.1/src/exe/rbdock.cxx#4 $)

>  <Rbt.Library>
libRbt.so (2013.1, Build901 2013/11/27)

>  <Rbt.Parameter_File>
/export/apps/rDock/src/rDock_2013.1_src/data/scripts/dock_solv.prm

>  <Rbt.Receptor>
prm/pocket_docking_3.prm

>  <SCORE>
-19.6703

>  <SCORE.INTER>
-19.6703

>  <SCORE.INTER.CONST>
1

>  <SCORE.INTER.POLAR>
0

>  <SCORE.INTER.ROT>
0

>  <SCORE.INTER.SOLV>
4.39458

>  <SCORE.INTER.VDW>
-18.1784

>  <SCORE.INTER.norm>
-1.96703

>  <SCORE.INTRA>
0

>  <SCORE.INTRA.DIHEDRAL>
0

>  <SCORE.INTRA.DIHEDRAL.0>
0

>  <SCORE.INTRA.POLAR>
0

>  <SCORE.INTRA.POLAR.0>
0

>  <SCORE.INTRA.REPUL>
0

>  <SCORE.INTRA.REPUL.0>
0

>  <SCORE.INTRA.SOLV>
0

>  <SCORE.INTRA.SOLV.lig_0>
-4.25352

>  <SCORE.INTRA.VDW>
0

>  <SCORE.INTRA.VDW.0>
0

>  <SCORE.INTRA.norm>
0

>  <SCORE.RESTR>
0

>  <SCORE.RESTR.CAVITY>
0

>  <SCORE.RESTR.norm>
0

>  <SCORE.SYSTEM>
0

>  <SCORE.SYSTEM.CONST>
0

>  <SCORE.SYSTEM.DIHEDRAL>
0

>  <SCORE.SYSTEM.SOLV>
0

>  <SCORE.SYSTEM.norm>
0

>  <SCORE.heavy>
10

>  <SCORE.norm>
-1.96703

>  <RMSD>
0.319

$$$$
ligand
 OpenBabel11021811423D
libRbt.so/2013.1/901 2013/11/27
 10 11  0  0  0  0  0  0  0  0999 V2000
   53.6221  -13.7026    9.2623 N   0  0  0  0  0  0  0  0  0  0  0  0
   53.7654  -15.0592    9.3290 C   0  0  0  0  0  0  0  0  0  0  0  0
   53.9857  -15.8122    8.2199 N   0  0  0  0  0  0  0  0  0  0  0  0
   54.0520  -15.0705    7.0767 C   0  0  0  0  0  0  0  0  0  0  0  0
   53.9175  -13.7073    6.9562 C   0  0  0  0  0  0  0  0  0  0  0  0
   53.6835  -12.9266    8.0917 C   0  0  0  0  0  0  0  0  0  0  0  0
   53.5354  -11.7260    8.1850 O   0  0  0  0  0  0  0  0  0  0  0  0
   54.0524  -13.3704    5.6364 N   0  0  0  0  0  0  0  0  0  0  0  0
   54.2636  -14.5007    4.9702 C   0  0  0  0  0  0  0  0  0  0  0  0
   54.2697  -15.5878    5.8241 N   0  0  0  0  0  0  0  0  0  0  0  0
  1  2  1  0  0  0  0
  1  6  1  0  0  0  0
  2  3  2  0  0  0  0
  3  4  1  0  0  0  0
  4  5  2  0  0  0  0
  4 10  1  0  0  0  0
  5  6  1  0  0  0  0
  5  8  1  0  0  0  0
  6  7  2  0  0  0  0
  8  9  1  0  0  0  0
  9 10  2  0  0  0  0
M  END
>  <CHROM.1>
53.90736760,-14.10175854,7.37299428,-2.90113540,1.40220632,-0.71220589

>  <Name>
ligand

>  <RI>
0

>  <Rbt.Current_Directory>
/home/itssahil/PROJECTS/Mol_Feturizer/New_Systems/rnas/2EEV

>  <Rbt.Executable>
rbdock ($Id: //depot/dev/client3/rdock/2013.1/src/exe/rbdock.cxx#4 $)

>  <Rbt.Library>
libRbt.so (2013.1, Build901 2013/11/27)

>  <Rbt.Parameter_File>
/export/apps/rDock/src/rDock_2013.1_src/data/scripts/dock_solv.prm

>  <Rbt.Receptor>
prm/blind_docking_100.prm

>  <SCORE>
-19.4278

>  <SCORE.INTER>
-19.4278

>  <SCORE.INTER.CONST>
1

>  <SCORE.INTER.POLAR>
0

>  <SCORE.INTER.ROT>
0

>  <SCORE.INTER.SOLV>
4.54788

>  <SCORE.INTER.VDW>
-18.0678

>  <SCORE.INTER.norm>
-1.94278

>  <SCORE.INTRA>
0

>  <SCORE.INTRA.DIHEDRAL>
0

>  <SCORE.INTRA.DIHEDRAL.0>
0

>  <SCORE.INTRA.POLAR>
0

>  <SCORE.INTRA.POLAR.0>
0

>  <SCORE.INTRA.REPUL>
0

>  <SCORE.INTRA.REPUL.0>
0

>  <SCORE.INTRA.SOLV>
0

>  <SCORE.INTRA.SOLV.lig_0>
-4.25352

>  <SCORE.INTRA.VDW>
0

>  <SCORE.INTRA.VDW.0>
0

>  <SCORE.INTRA.norm>
0

>  <SCORE.RESTR>
0

>  <SCORE.RESTR.CAVITY>
0

>  <SCORE.RESTR.norm>
0

>  <SCORE.SYSTEM>
0

>  <SCORE.SYSTEM.CONST>
0

>  <SCORE.SYSTEM.DIHEDRAL>
0

>  <SCORE.SYSTEM.SOLV>
0

>  <SCORE.SYSTEM.norm>
0

>  <SCORE.heavy>
10

>  <SCORE.norm>
-1.94278

>  <RMSD>
0.324

$$$$
ligand
 OpenBabel11021811423D
libRbt.so/2013.1/901 2013/11/27
 10 11  0  0  0  0  0  0  0  0999 V2000
   53.5754  -13.6547    9.1222 N   0  0  0  0  0  0  0  0  0  0  0  0
   53.7817  -14.9997    9.2384 C   0  0  0  0  0  0  0  0  0  0  0  0
   54.0365  -15.7819    8.1572 N   0  0  0  0  0  0  0  0  0  0  0  0
   54.0679  -15.0805    6.9875 C   0  0  0  0  0  0  0  0  0  0  0  0
   53.8701  -13.7304    6.8172 C   0  0  0  0  0  0  0  0  0  0  0  0
   53.6003  -12.9201    7.9237 C   0  0  0  0  0  0  0  0  0  0  0  0
   53.3964  -11.7251    7.9732 O   0  0  0  0  0  0  0  0  0  0  0  0
   53.9888  -13.4363    5.4857 N   0  0  0  0  0  0  0  0  0  0  0  0
   54.2522  -14.5794    4.8611 C   0  0  0  0  0  0  0  0  0  0  0  0
   54.3092  -15.6328    5.7543 N   0  0  0  0  0  0  0  0  0  0  0  0
  1  2  1  0  0  0  0
  1  6  1  0  0  0  0
  2  3  2  0  0  0  0
  3  4  1  0  0  0  0
  4  5  2  0  0  0  0
  4 10  1  0  0  0  0
  5  6  1  0  0  0  0
  5  8  1  0  0  0  0
  6  7  2  0  0  0  0
  8  9  1  0  0  0  0
  9 10  2  0  0  0  0
M  END
>  <CHROM.1>
53.87842156,-14.10929174,7.24825375,-2.72369134,1.36886523,-0.92343233

>  <Name>
ligand

>  <RI>
0

>  <Rbt.Current_Directory>
/home/itssahil/PROJECTS/Mol_Feturizer/New_Systems/rnas/2EEV

>  <Rbt.Executable>
rbdock ($Id: //depot/dev/client3/rdock/2013.1/src/exe/rbdock.cxx#4 $)

>  <Rbt.Library>
libRbt.so (2013.1, Build901 2013/11/27)

>  <Rbt.Parameter_File>
/export/apps/rDock/src/rDock_2013.1_src/data/scripts/dock_solv.prm

>  <Rbt.Receptor>
prm/pocket_docking_6.prm

>  <SCORE>
-19.6606

>  <SCORE.INTER>
-19.6606

>  <SCORE.INTER.CONST>
1

>  <SCORE.INTER.POLAR>
0

>  <SCORE.INTER.ROT>
0

>  <SCORE.INTER.SOLV>
4.37497

>  <SCORE.INTER.VDW>
-18.1654

>  <SCORE.INTER.norm>
-1.96606

>  <SCORE.INTRA>
0

>  <SCORE.INTRA.DIHEDRAL>
0

>  <SCORE.INTRA.DIHEDRAL.0>
0

>  <SCORE.INTRA.POLAR>
0

>  <SCORE.INTRA.POLAR.0>
0

>  <SCORE.INTRA.REPUL>
0

>  <SCORE.INTRA.REPUL.0>
0

>  <SCORE.INTRA.SOLV>
0

>  <SCORE.INTRA.SOLV.lig_0>
-4.25352

>  <SCORE.INTRA.VDW>
0

>  <SCORE.INTRA.VDW.0>
0

>  <SCORE.INTRA.norm>
0

>  <SCORE.RESTR>
0

>  <SCORE.RESTR.CAVITY>
0

>  <SCORE.RESTR.norm>
0

>  <SCORE.SYSTEM>
0

>  <SCORE.SYSTEM.CONST>
0

>  <SCORE.SYSTEM.DIHEDRAL>
0

>  <SCORE.SYSTEM.SOLV>
0

>  <SCORE.SYSTEM.norm>
0

>  <SCORE.heavy>
10

>  <SCORE.norm>
-1.96606

>  <RMSD>
0.328

$$$$
ligand
 OpenBabel11021811423D
libRbt.so/2013.1/901 2013/11/27
 10 11  0  0  0  0  0  0  0  0999 V2000
   53.6526  -13.6573    9.1455 N   0  0  0  0  0  0  0  0  0  0  0  0
   53.8467  -15.0051    9.2503 C   0  0  0  0  0  0  0  0  0  0  0  0
   54.0761  -15.7831    8.1605 N   0  0  0  0  0  0  0  0  0  0  0  0
   54.0964  -15.0748    6.9947 C   0  0  0  0  0  0  0  0  0  0  0  0
   53.9100  -13.7217    6.8357 C   0  0  0  0  0  0  0  0  0  0  0  0
   53.6663  -12.9156    7.9513 C   0  0  0  0  0  0  0  0  0  0  0  0
   53.4757  -11.7189    8.0112 O   0  0  0  0  0  0  0  0  0  0  0  0
   54.0108  -13.4206    5.5043 N   0  0  0  0  0  0  0  0  0  0  0  0
   54.2522  -14.5624    4.8686 C   0  0  0  0  0  0  0  0  0  0  0  0
   54.3123  -15.6219    5.7544 N   0  0  0  0  0  0  0  0  0  0  0  0
  1  2  1  0  0  0  0
  1  6  1  0  0  0  0
  2  3  2  0  0  0  0
  3  4  1  0  0  0  0
  4  5  2  0  0  0  0
  4 10  1  0  0  0  0
  5  6  1  0  0  0  0
  5  8  1  0  0  0  0
  6  7  2  0  0  0  0
  8  9  1  0  0  0  0
  9 10  2  0  0  0  0
M  END
>  <CHROM.1>
53.92121726,-14.10333454,7.26428119,-2.68922737,1.38664657,-0.95110399

>  <Name>
ligand

>  <RI>
0

>  <Rbt.Current_Directory>
/home/itssahil/PROJECTS/Mol_Feturizer/New_Systems/rnas/2EEV

>  <Rbt.Executable>
rbdock ($Id: //depot/dev/client3/rdock/2013.1/src/exe/rbdock.cxx#4 $)

>  <Rbt.Library>
libRbt.so (2013.1, Build901 2013/11/27)

>  <Rbt.Parameter_File>
/export/apps/rDock/src/rDock_2013.1_src/data/scripts/dock_solv.prm

>  <Rbt.Receptor>
prm/pocket_docking_6.prm

>  <SCORE>
-19.5769

>  <SCORE.INTER>
-19.5769

>  <SCORE.INTER.CONST>
1

>  <SCORE.INTER.POLAR>
0

>  <SCORE.INTER.ROT>
0

>  <SCORE.INTER.SOLV>
4.38026

>  <SCORE.INTER.VDW>
-18.1114

>  <SCORE.INTER.norm>
-1.95769

>  <SCORE.INTRA>
0

>  <SCORE.INTRA.DIHEDRAL>
0

>  <SCORE.INTRA.DIHEDRAL.0>
0

>  <SCORE.INTRA.POLAR>
0

>  <SCORE.INTRA.POLAR.0>
0

>  <SCORE.INTRA.REPUL>
0

>  <SCORE.INTRA.REPUL.0>
0

>  <SCORE.INTRA.SOLV>
0

>  <SCORE.INTRA.SOLV.lig_0>
-4.25352

>  <SCORE.INTRA.VDW>
0

>  <SCORE.INTRA.VDW.0>
0

>  <SCORE.INTRA.norm>
0

>  <SCORE.RESTR>
0

>  <SCORE.RESTR.CAVITY>
0

>  <SCORE.RESTR.norm>
0

>  <SCORE.SYSTEM>
0

>  <SCORE.SYSTEM.CONST>
0

>  <SCORE.SYSTEM.DIHEDRAL>
0

>  <SCORE.SYSTEM.SOLV>
0

>  <SCORE.SYSTEM.norm>
0

>  <SCORE.heavy>
10

>  <SCORE.norm>
-1.95769

>  <RMSD>
0.329

$$$$
ligand
 OpenBabel11021811423D
libRbt.so/2013.1/901 2013/11/27
 10 11  0  0  0  0  0  0  0  0999 V2000
   53.6106  -13.6776    9.1496 N   0  0  0  0  0  0  0  0  0  0  0  0
   53.7821  -15.0298    9.2350 C   0  0  0  0  0  0  0  0  0  0  0  0
   54.0406  -15.7903    8.1393 N   0  0  0  0  0  0  0  0  0  0  0  0
   54.1133  -15.0603    6.9890 C   0  0  0  0  0  0  0  0  0  0  0  0
   53.9515  -13.7019    6.8498 C   0  0  0  0  0  0  0  0  0  0  0  0
   53.6781  -12.9137    7.9713 C   0  0  0  0  0  0  0  0  0  0  0  0
   53.5020  -11.7157    8.0475 O   0  0  0  0  0  0  0  0  0  0  0  0
   54.1051  -13.3771    5.5290 N   0  0  0  0  0  0  0  0  0  0  0  0
   54.3540  -14.5100    4.8805 C   0  0  0  0  0  0  0  0  0  0  0  0
   54.3670  -15.5869    5.7471 N   0  0  0  0  0  0  0  0  0  0  0  0
  1  2  1  0  0  0  0
  1  6  1  0  0  0  0
  2  3  2  0  0  0  0
  3  4  1  0  0  0  0
  4  5  2  0  0  0  0
  4 10  1  0  0  0  0
  5  6  1  0  0  0  0
  5  8  1  0  0  0  0
  6  7  2  0  0  0  0
  8  9  1  0  0  0  0
  9 10  2  0  0  0  0
M  END
>  <CHROM.1>
53.94173698,-14.09173932,7.27098031,-2.88284024,1.37295300,-0.74175333

>  <Name>
ligand

>  <RI>
0

>  <Rbt.Current_Directory>
/home/itssahil/PROJECTS/Mol_Feturizer/New_Systems/rnas/2EEV

>  <Rbt.Executable>
rbdock ($Id: //depot/dev/client3/rdock/2013.1/src/exe/rbdock.cxx#4 $)

>  <Rbt.Library>
libRbt.so (2013.1, Build901 2013/11/27)

>  <Rbt.Parameter_File>
/export/apps/rDock/src/rDock_2013.1_src/data/scripts/dock_solv.prm

>  <Rbt.Receptor>
prm/pocket_docking_5.prm

>  <SCORE>
-19.5334

>  <SCORE.INTER>
-19.5334

>  <SCORE.INTER.CONST>
1

>  <SCORE.INTER.POLAR>
0

>  <SCORE.INTER.ROT>
0

>  <SCORE.INTER.SOLV>
4.38418

>  <SCORE.INTER.VDW>
-18.0836

>  <SCORE.INTER.norm>
-1.95334

>  <SCORE.INTRA>
0

>  <SCORE.INTRA.DIHEDRAL>
0

>  <SCORE.INTRA.DIHEDRAL.0>
0

>  <SCORE.INTRA.POLAR>
0

>  <SCORE.INTRA.POLAR.0>
0

>  <SCORE.INTRA.REPUL>
0

>  <SCORE.INTRA.REPUL.0>
0

>  <SCORE.INTRA.SOLV>
0

>  <SCORE.INTRA.SOLV.lig_0>
-4.25352

>  <SCORE.INTRA.VDW>
0

>  <SCORE.INTRA.VDW.0>
0

>  <SCORE.INTRA.norm>
0

>  <SCORE.RESTR>
0

>  <SCORE.RESTR.CAVITY>
0

>  <SCORE.RESTR.norm>
0

>  <SCORE.SYSTEM>
0

>  <SCORE.SYSTEM.CONST>
0

>  <SCORE.SYSTEM.DIHEDRAL>
0

>  <SCORE.SYSTEM.SOLV>
0

>  <SCORE.SYSTEM.norm>
0

>  <SCORE.heavy>
10

>  <SCORE.norm>
-1.95334

>  <RMSD>
0.330

$$$$
ligand
 OpenBabel11021811423D
libRbt.so/2013.1/901 2013/11/27
 10 11  0  0  0  0  0  0  0  0999 V2000
   53.5778  -13.6531    9.1100 N   0  0  0  0  0  0  0  0  0  0  0  0
   53.7695  -15.0001    9.2286 C   0  0  0  0  0  0  0  0  0  0  0  0
   54.0310  -15.7846    8.1507 N   0  0  0  0  0  0  0  0  0  0  0  0
   54.0849  -15.0834    6.9817 C   0  0  0  0  0  0  0  0  0  0  0  0
   53.9024  -13.7315    6.8091 C   0  0  0  0  0  0  0  0  0  0  0  0
   53.6258  -12.9187    7.9122 C   0  0  0  0  0  0  0  0  0  0  0  0
   53.4329  -11.7218    7.9592 O   0  0  0  0  0  0  0  0  0  0  0  0
   54.0417  -13.4384    5.4794 N   0  0  0  0  0  0  0  0  0  0  0  0
   54.3023  -14.5838    4.8580 C   0  0  0  0  0  0  0  0  0  0  0  0
   54.3371  -15.6379    5.7516 N   0  0  0  0  0  0  0  0  0  0  0  0
  1  2  1  0  0  0  0
  1  6  1  0  0  0  0
  2  3  2  0  0  0  0
  3  4  1  0  0  0  0
  4  5  2  0  0  0  0
  4 10  1  0  0  0  0
  5  6  1  0  0  0  0
  5  8  1  0  0  0  0
  6  7  2  0  0  0  0
  8  9  1  0  0  0  0
  9 10  2  0  0  0  0
M  END
>  <CHROM.1>
53.90135729,-14.11044941,7.24013418,-2.80556455,1.36791300,-0.84303719

>  <Name>
ligand

>  <RI>
0

>  <Rbt.Current_Directory>
/home/itssahil/PROJECTS/Mol_Feturizer/New_Systems/rnas/2EEV

>  <Rbt.Executable>
rbdock ($Id: //depot/dev/client3/rdock/2013.1/src/exe/rbdock.cxx#4 $)

>  <Rbt.Library>
libRbt.so (2013.1, Build901 2013/11/27)

>  <Rbt.Parameter_File>
/export/apps/rDock/src/rDock_2013.1_src/data/scripts/dock_solv.prm

>  <Rbt.Receptor>
prm/pocket_docking_6.prm

>  <SCORE>
-19.6313

>  <SCORE.INTER>
-19.6313

>  <SCORE.INTER.CONST>
1

>  <SCORE.INTER.POLAR>
0

>  <SCORE.INTER.ROT>
0

>  <SCORE.INTER.SOLV>
4.36661

>  <SCORE.INTER.VDW>
-18.1431

>  <SCORE.INTER.norm>
-1.96313

>  <SCORE.INTRA>
0

>  <SCORE.INTRA.DIHEDRAL>
0

>  <SCORE.INTRA.DIHEDRAL.0>
0

>  <SCORE.INTRA.POLAR>
0

>  <SCORE.INTRA.POLAR.0>
0

>  <SCORE.INTRA.REPUL>
0

>  <SCORE.INTRA.REPUL.0>
0

>  <SCORE.INTRA.SOLV>
0

>  <SCORE.INTRA.SOLV.lig_0>
-4.25352

>  <SCORE.INTRA.VDW>
0

>  <SCORE.INTRA.VDW.0>
0

>  <SCORE.INTRA.norm>
0

>  <SCORE.RESTR>
0

>  <SCORE.RESTR.CAVITY>
0

>  <SCORE.RESTR.norm>
0

>  <SCORE.SYSTEM>
0

>  <SCORE.SYSTEM.CONST>
0

>  <SCORE.SYSTEM.DIHEDRAL>
0

>  <SCORE.SYSTEM.SOLV>
0

>  <SCORE.SYSTEM.norm>
0

>  <SCORE.heavy>
10

>  <SCORE.norm>
-1.96313

>  <RMSD>
0.331

$$$$
ligand
 OpenBabel11021811423D
libRbt.so/2013.1/901 2013/11/27
 10 11  0  0  0  0  0  0  0  0999 V2000
   53.4839  -13.3724    9.0052 N   0  0  0  0  0  0  0  0  0  0  0  0
   53.7086  -14.6963    9.2541 C   0  0  0  0  0  0  0  0  0  0  0  0
   54.0204  -15.5696    8.2612 N   0  0  0  0  0  0  0  0  0  0  0  0
   54.0870  -14.9787    7.0333 C   0  0  0  0  0  0  0  0  0  0  0  0
   53.8730  -13.6546    6.7304 C   0  0  0  0  0  0  0  0  0  0  0  0
   53.5446  -12.7514    7.7453 C   0  0  0  0  0  0  0  0  0  0  0  0
   53.3183  -11.5615    7.6753 O   0  0  0  0  0  0  0  0  0  0  0  0
   54.0404  -13.4825    5.3829 N   0  0  0  0  0  0  0  0  0  0  0  0
   54.3486  -14.6725    4.8781 C   0  0  0  0  0  0  0  0  0  0  0  0
   54.3875  -15.6375    5.8672 N   0  0  0  0  0  0  0  0  0  0  0  0
  1  2  1  0  0  0  0
  1  6  1  0  0  0  0
  2  3  2  0  0  0  0
  3  4  1  0  0  0  0
  4  5  2  0  0  0  0
  4 10  1  0  0  0  0
  5  6  1  0  0  0  0
  5  8  1  0  0  0  0
  6  7  2  0  0  0  0
  8  9  1  0  0  0  0
  9 10  2  0  0  0  0
M  END
>  <CHROM.1>
53.87039603,-13.99179764,7.19486852,-2.81547712,1.32965929,-0.92685381

>  <Name>
ligand

>  <RI>
0

>  <Rbt.Current_Directory>
/home/itssahil/PROJECTS/Mol_Feturizer/New_Systems/rnas/2EEV

>  <Rbt.Executable>
rbdock ($Id: //depot/dev/client3/rdock/2013.1/src/exe/rbdock.cxx#4 $)

>  <Rbt.Library>
libRbt.so (2013.1, Build901 2013/11/27)

>  <Rbt.Parameter_File>
/export/apps/rDock/src/rDock_2013.1_src/data/scripts/dock_solv.prm

>  <Rbt.Receptor>
prm/blind_docking_100.prm

>  <SCORE>
-19.6226

>  <SCORE.INTER>
-19.6226

>  <SCORE.INTER.CONST>
1

>  <SCORE.INTER.POLAR>
0

>  <SCORE.INTER.ROT>
0

>  <SCORE.INTER.SOLV>
4.23658

>  <SCORE.INTER.VDW>
-18.094

>  <SCORE.INTER.norm>
-1.96226

>  <SCORE.INTRA>
0

>  <SCORE.INTRA.DIHEDRAL>
0

>  <SCORE.INTRA.DIHEDRAL.0>
0

>  <SCORE.INTRA.POLAR>
0

>  <SCORE.INTRA.POLAR.0>
0

>  <SCORE.INTRA.REPUL>
0

>  <SCORE.INTRA.REPUL.0>
0

>  <SCORE.INTRA.SOLV>
0

>  <SCORE.INTRA.SOLV.lig_0>
-4.25352

>  <SCORE.INTRA.VDW>
0

>  <SCORE.INTRA.VDW.0>
0

>  <SCORE.INTRA.norm>
0

>  <SCORE.RESTR>
0

>  <SCORE.RESTR.CAVITY>
0

>  <SCORE.RESTR.norm>
0

>  <SCORE.SYSTEM>
0

>  <SCORE.SYSTEM.CONST>
0

>  <SCORE.SYSTEM.DIHEDRAL>
0

>  <SCORE.SYSTEM.SOLV>
0

>  <SCORE.SYSTEM.norm>
0

>  <SCORE.heavy>
10

>  <SCORE.norm>
-1.96226

>  <RMSD>
0.333

$$$$
ligand
 OpenBabel11021811423D
libRbt.so/2013.1/901 2013/11/27
 10 11  0  0  0  0  0  0  0  0999 V2000
   53.4810  -13.3176    9.0186 N   0  0  0  0  0  0  0  0  0  0  0  0
   53.6743  -14.6423    9.2886 C   0  0  0  0  0  0  0  0  0  0  0  0
   53.9795  -15.5359    8.3119 N   0  0  0  0  0  0  0  0  0  0  0  0
   54.0738  -14.9640    7.0768 C   0  0  0  0  0  0  0  0  0  0  0  0
   53.8918  -13.6401    6.7530 C   0  0  0  0  0  0  0  0  0  0  0  0
   53.5704  -12.7158    7.7512 C   0  0  0  0  0  0  0  0  0  0  0  0
   53.3705  -11.5225    7.6618 O   0  0  0  0  0  0  0  0  0  0  0  0
   54.0794  -13.4905    5.4054 N   0  0  0  0  0  0  0  0  0  0  0  0
   54.3682  -14.6938    4.9211 C   0  0  0  0  0  0  0  0  0  0  0  0
   54.3744  -15.6454    5.9238 N   0  0  0  0  0  0  0  0  0  0  0  0
  1  2  1  0  0  0  0
  1  6  1  0  0  0  0
  2  3  2  0  0  0  0
  3  4  1  0  0  0  0
  4  5  2  0  0  0  0
  4 10  1  0  0  0  0
  5  6  1  0  0  0  0
  5  8  1  0  0  0  0
  6  7  2  0  0  0  0
  8  9  1  0  0  0  0
  9 10  2  0  0  0  0
M  END
>  <CHROM.1>
53.87632736,-13.97050293,7.22202215,-2.91379791,1.33832915,-0.84523418

>  <Name>
ligand

>  <RI>
0

>  <Rbt.Current_Directory>
/home/itssahil/PROJECTS/Mol_Feturizer/New_Systems/rnas/2EEV

>  <Rbt.Executable>
rbdock ($Id: //depot/dev/client3/rdock/2013.1/src/exe/rbdock.cxx#4 $)

>  <Rbt.Library>
libRbt.so (2013.1, Build901 2013/11/27)

>  <Rbt.Parameter_File>
/export/apps/rDock/src/rDock_2013.1_src/data/scripts/dock_solv.prm

>  <Rbt.Receptor>
prm/pocket_docking_4.prm

>  <SCORE>
-19.6908

>  <SCORE.INTER>
-19.6908

>  <SCORE.INTER.CONST>
1

>  <SCORE.INTER.POLAR>
0

>  <SCORE.INTER.ROT>
0

>  <SCORE.INTER.SOLV>
4.2821

>  <SCORE.INTER.VDW>
-18.1546

>  <SCORE.INTER.norm>
-1.96908

>  <SCORE.INTRA>
0

>  <SCORE.INTRA.DIHEDRAL>
0

>  <SCORE.INTRA.DIHEDRAL.0>
0

>  <SCORE.INTRA.POLAR>
0

>  <SCORE.INTRA.POLAR.0>
0

>  <SCORE.INTRA.REPUL>
0

>  <SCORE.INTRA.REPUL.0>
0

>  <SCORE.INTRA.SOLV>
0

>  <SCORE.INTRA.SOLV.lig_0>
-4.25352

>  <SCORE.INTRA.VDW>
0

>  <SCORE.INTRA.VDW.0>
0

>  <SCORE.INTRA.norm>
0

>  <SCORE.RESTR>
0

>  <SCORE.RESTR.CAVITY>
0

>  <SCORE.RESTR.norm>
0

>  <SCORE.SYSTEM>
0

>  <SCORE.SYSTEM.CONST>
0

>  <SCORE.SYSTEM.DIHEDRAL>
0

>  <SCORE.SYSTEM.SOLV>
0

>  <SCORE.SYSTEM.norm>
0

>  <SCORE.heavy>
10

>  <SCORE.norm>
-1.96908

>  <RMSD>
0.337

$$$$
ligand
 OpenBabel11021811423D
libRbt.so/2013.1/901 2013/11/27
 10 11  0  0  0  0  0  0  0  0999 V2000
   53.5155  -13.3970    8.9936 N   0  0  0  0  0  0  0  0  0  0  0  0
   53.7540  -14.7216    9.2254 C   0  0  0  0  0  0  0  0  0  0  0  0
   54.0634  -15.5810    8.2196 N   0  0  0  0  0  0  0  0  0  0  0  0
   54.1127  -14.9758    6.9978 C   0  0  0  0  0  0  0  0  0  0  0  0
   53.8842  -13.6503    6.7121 C   0  0  0  0  0  0  0  0  0  0  0  0
   53.5582  -12.7614    7.7404 C   0  0  0  0  0  0  0  0  0  0  0  0
   53.3210  -11.5728    7.6860 O   0  0  0  0  0  0  0  0  0  0  0  0
   54.0367  -13.4616    5.3650 N   0  0  0  0  0  0  0  0  0  0  0  0
   54.3500  -14.6432    4.8438 C   0  0  0  0  0  0  0  0  0  0  0  0
   54.4072  -15.6188    5.8214 N   0  0  0  0  0  0  0  0  0  0  0  0
  1  2  1  0  0  0  0
  1  6  1  0  0  0  0
  2  3  2  0  0  0  0
  3  4  1  0  0  0  0
  4  5  2  0  0  0  0
  4 10  1  0  0  0  0
  5  6  1  0  0  0  0
  5  8  1  0  0  0  0
  6  7  2  0  0  0  0
  8  9  1  0  0  0  0
  9 10  2  0  0  0  0
M  END
>  <CHROM.1>
53.88916970,-13.99269265,7.17272822,-2.76051153,1.32841663,-0.96894980

>  <Name>
ligand

>  <RI>
0

>  <Rbt.Current_Directory>
/home/itssahil/PROJECTS/Mol_Feturizer/New_Systems/rnas/2EEV

>  <Rbt.Executable>
rbdock ($Id: //depot/dev/client3/rdock/2013.1/src/exe/rbdock.cxx#4 $)

>  <Rbt.Library>
libRbt.so (2013.1, Build901 2013/11/27)

>  <Rbt.Parameter_File>
/export/apps/rDock/src/rDock_2013.1_src/data/scripts/dock_solv.prm

>  <Rbt.Receptor>
prm/blind_docking_100.prm

>  <SCORE>
-19.6951

>  <SCORE.INTER>
-19.6951

>  <SCORE.INTER.CONST>
1

>  <SCORE.INTER.POLAR>
0

>  <SCORE.INTER.ROT>
0

>  <SCORE.INTER.SOLV>
4.20422

>  <SCORE.INTER.VDW>
-18.1315

>  <SCORE.INTER.norm>
-1.96951

>  <SCORE.INTRA>
0

>  <SCORE.INTRA.DIHEDRAL>
0

>  <SCORE.INTRA.DIHEDRAL.0>
0

>  <SCORE.INTRA.POLAR>
0

>  <SCORE.INTRA.POLAR.0>
0

>  <SCORE.INTRA.REPUL>
0

>  <SCORE.INTRA.REPUL.0>
0

>  <SCORE.INTRA.SOLV>
0

>  <SCORE.INTRA.SOLV.lig_0>
-4.25352

>  <SCORE.INTRA.VDW>
0

>  <SCORE.INTRA.VDW.0>
0

>  <SCORE.INTRA.norm>
0

>  <SCORE.RESTR>
0

>  <SCORE.RESTR.CAVITY>
0

>  <SCORE.RESTR.norm>
0

>  <SCORE.SYSTEM>
0

>  <SCORE.SYSTEM.CONST>
0

>  <SCORE.SYSTEM.DIHEDRAL>
0

>  <SCORE.SYSTEM.SOLV>
0

>  <SCORE.SYSTEM.norm>
0

>  <SCORE.heavy>
10

>  <SCORE.norm>
-1.96951

>  <RMSD>
0.339

$$$$
ligand
 OpenBabel11021811423D
libRbt.so/2013.1/901 2013/11/27
 10 11  0  0  0  0  0  0  0  0999 V2000
   53.4856  -13.2947    9.0473 N   0  0  0  0  0  0  0  0  0  0  0  0
   53.6558  -14.6233    9.3137 C   0  0  0  0  0  0  0  0  0  0  0  0
   53.9409  -15.5201    8.3339 N   0  0  0  0  0  0  0  0  0  0  0  0
   54.0406  -14.9473    7.0997 C   0  0  0  0  0  0  0  0  0  0  0  0
   53.8814  -13.6196    6.7794 C   0  0  0  0  0  0  0  0  0  0  0  0
   53.5808  -12.6919    7.7808 C   0  0  0  0  0  0  0  0  0  0  0  0
   53.4022  -11.4949    7.6947 O   0  0  0  0  0  0  0  0  0  0  0  0
   54.0663  -13.4705    5.4314 N   0  0  0  0  0  0  0  0  0  0  0  0
   54.3313  -14.6779    4.9434 C   0  0  0  0  0  0  0  0  0  0  0  0
   54.3242  -15.6315    5.9441 N   0  0  0  0  0  0  0  0  0  0  0  0
  1  2  1  0  0  0  0
  1  6  1  0  0  0  0
  2  3  2  0  0  0  0
  3  4  1  0  0  0  0
  4  5  2  0  0  0  0
  4 10  1  0  0  0  0
  5  6  1  0  0  0  0
  5  8  1  0  0  0  0
  6  7  2  0  0  0  0
  8  9  1  0  0  0  0
  9 10  2  0  0  0  0
M  END
>  <CHROM.1>
53.86179520,-13.95074400,7.24779021,-2.95599539,1.35434840,-0.80195654

>  <Name>
ligand

>  <RI>
0

>  <Rbt.Current_Directory>
/home/itssahil/PROJECTS/Mol_Feturizer/New_Systems/rnas/2EEV

>  <Rbt.Executable>
rbdock ($Id: //depot/dev/client3/rdock/2013.1/src/exe/rbdock.cxx#4 $)

>  <Rbt.Library>
libRbt.so (2013.1, Build901 2013/11/27)

>  <Rbt.Parameter_File>
/export/apps/rDock/src/rDock_2013.1_src/data/scripts/dock_solv.prm

>  <Rbt.Receptor>
prm/pocket_docking_4.prm

>  <SCORE>
-19.618

>  <SCORE.INTER>
-19.618

>  <SCORE.INTER.CONST>
1

>  <SCORE.INTER.POLAR>
0

>  <SCORE.INTER.ROT>
0

>  <SCORE.INTER.SOLV>
4.3459

>  <SCORE.INTER.VDW>
-18.1273

>  <SCORE.INTER.norm>
-1.9618

>  <SCORE.INTRA>
0

>  <SCORE.INTRA.DIHEDRAL>
0

>  <SCORE.INTRA.DIHEDRAL.0>
0

>  <SCORE.INTRA.POLAR>
0

>  <SCORE.INTRA.POLAR.0>
0

>  <SCORE.INTRA.REPUL>
0

>  <SCORE.INTRA.REPUL.0>
0

>  <SCORE.INTRA.SOLV>
0

>  <SCORE.INTRA.SOLV.lig_0>
-4.25352

>  <SCORE.INTRA.VDW>
0

>  <SCORE.INTRA.VDW.0>
0

>  <SCORE.INTRA.norm>
0

>  <SCORE.RESTR>
0

>  <SCORE.RESTR.CAVITY>
0

>  <SCORE.RESTR.norm>
0

>  <SCORE.SYSTEM>
0

>  <SCORE.SYSTEM.CONST>
0

>  <SCORE.SYSTEM.DIHEDRAL>
0

>  <SCORE.SYSTEM.SOLV>
0

>  <SCORE.SYSTEM.norm>
0

>  <SCORE.heavy>
10

>  <SCORE.norm>
-1.9618

>  <RMSD>
0.340

$$$$
ligand
 OpenBabel11021811423D
libRbt.so/2013.1/901 2013/11/27
 10 11  0  0  0  0  0  0  0  0999 V2000
   53.4877  -13.3203    9.0045 N   0  0  0  0  0  0  0  0  0  0  0  0
   53.7036  -14.6411    9.2766 C   0  0  0  0  0  0  0  0  0  0  0  0
   54.0108  -15.5334    8.2993 N   0  0  0  0  0  0  0  0  0  0  0  0
   54.0824  -14.9644    7.0614 C   0  0  0  0  0  0  0  0  0  0  0  0
   53.8772  -13.6444    6.7354 C   0  0  0  0  0  0  0  0  0  0  0  0
   53.5536  -12.7216    7.7342 C   0  0  0  0  0  0  0  0  0  0  0  0
   53.3351  -11.5317    7.6433 O   0  0  0  0  0  0  0  0  0  0  0  0
   54.0471  -13.4966    5.3853 N   0  0  0  0  0  0  0  0  0  0  0  0
   54.3481  -14.6972    4.9016 C   0  0  0  0  0  0  0  0  0  0  0  0
   54.3799  -15.6452    5.9072 N   0  0  0  0  0  0  0  0  0  0  0  0
  1  2  1  0  0  0  0
  1  6  1  0  0  0  0
  2  3  2  0  0  0  0
  3  4  1  0  0  0  0
  4  5  2  0  0  0  0
  4 10  1  0  0  0  0
  5  6  1  0  0  0  0
  5  8  1  0  0  0  0
  6  7  2  0  0  0  0
  8  9  1  0  0  0  0
  9 10  2  0  0  0  0
M  END
>  <CHROM.1>
53.87198680,-13.97343133,7.20564688,-2.83533024,1.33414934,-0.92486850

>  <Name>
ligand

>  <RI>
0

>  <Rbt.Current_Directory>
/home/itssahil/PROJECTS/Mol_Feturizer/New_Systems/rnas/2EEV

>  <Rbt.Executable>
rbdock ($Id: //depot/dev/client3/rdock/2013.1/src/exe/rbdock.cxx#4 $)

>  <Rbt.Library>
libRbt.so (2013.1, Build901 2013/11/27)

>  <Rbt.Parameter_File>
/export/apps/rDock/src/rDock_2013.1_src/data/scripts/dock_solv.prm

>  <Rbt.Receptor>
prm/pocket_docking_6.prm

>  <SCORE>
-19.6735

>  <SCORE.INTER>
-19.6735

>  <SCORE.INTER.CONST>
1

>  <SCORE.INTER.POLAR>
0

>  <SCORE.INTER.ROT>
0

>  <SCORE.INTER.SOLV>
4.24915

>  <SCORE.INTER.VDW>
-18.1321

>  <SCORE.INTER.norm>
-1.96735

>  <SCORE.INTRA>
0

>  <SCORE.INTRA.DIHEDRAL>
0

>  <SCORE.INTRA.DIHEDRAL.0>
0

>  <SCORE.INTRA.POLAR>
0

>  <SCORE.INTRA.POLAR.0>
0

>  <SCORE.INTRA.REPUL>
0

>  <SCORE.INTRA.REPUL.0>
0

>  <SCORE.INTRA.SOLV>
0

>  <SCORE.INTRA.SOLV.lig_0>
-4.25352

>  <SCORE.INTRA.VDW>
0

>  <SCORE.INTRA.VDW.0>
0

>  <SCORE.INTRA.norm>
0

>  <SCORE.RESTR>
0

>  <SCORE.RESTR.CAVITY>
0

>  <SCORE.RESTR.norm>
0

>  <SCORE.SYSTEM>
0

>  <SCORE.SYSTEM.CONST>
0

>  <SCORE.SYSTEM.DIHEDRAL>
0

>  <SCORE.SYSTEM.SOLV>
0

>  <SCORE.SYSTEM.norm>
0

>  <SCORE.heavy>
10

>  <SCORE.norm>
-1.96735

>  <RMSD>
0.340

$$$$
ligand
 OpenBabel11021811423D
libRbt.so/2013.1/901 2013/11/27
 10 11  0  0  0  0  0  0  0  0999 V2000
   53.5329  -13.3948    8.9963 N   0  0  0  0  0  0  0  0  0  0  0  0
   53.7603  -14.7215    9.2272 C   0  0  0  0  0  0  0  0  0  0  0  0
   54.0621  -15.5829    8.2209 N   0  0  0  0  0  0  0  0  0  0  0  0
   54.1160  -14.9775    6.9994 C   0  0  0  0  0  0  0  0  0  0  0  0
   53.8987  -13.6500    6.7144 C   0  0  0  0  0  0  0  0  0  0  0  0
   53.5806  -12.7589    7.7434 C   0  0  0  0  0  0  0  0  0  0  0  0
   53.3534  -11.5683    7.6897 O   0  0  0  0  0  0  0  0  0  0  0  0
   54.0523  -13.4617    5.3674 N   0  0  0  0  0  0  0  0  0  0  0  0
   54.3554  -14.6457    4.8455 C   0  0  0  0  0  0  0  0  0  0  0  0
   54.4047  -15.6223    5.8225 N   0  0  0  0  0  0  0  0  0  0  0  0
  1  2  1  0  0  0  0
  1  6  1  0  0  0  0
  2  3  2  0  0  0  0
  3  4  1  0  0  0  0
  4  5  2  0  0  0  0
  4 10  1  0  0  0  0
  5  6  1  0  0  0  0
  5  8  1  0  0  0  0
  6  7  2  0  0  0  0
  8  9  1  0  0  0  0
  9 10  2  0  0  0  0
M  END
>  <CHROM.1>
53.90090186,-13.99259666,7.17490826,-2.77980965,1.33553487,-0.94965288

>  <Name>
ligand

>  <RI>
0

>  <Rbt.Current_Directory>
/home/itssahil/PROJECTS/Mol_Feturizer/New_Systems/rnas/2EEV

>  <Rbt.Executable>
rbdock ($Id: //depot/dev/client3/rdock/2013.1/src/exe/rbdock.cxx#4 $)

>  <Rbt.Library>
libRbt.so (2013.1, Build901 2013/11/27)

>  <Rbt.Parameter_File>
/export/apps/rDock/src/rDock_2013.1_src/data/scripts/dock_solv.prm

>  <Rbt.Receptor>
prm/blind_docking_100.prm

>  <SCORE>
-19.7179

>  <SCORE.INTER>
-19.7179

>  <SCORE.INTER.CONST>
1

>  <SCORE.INTER.POLAR>
0

>  <SCORE.INTER.ROT>
0

>  <SCORE.INTER.SOLV>
4.21961

>  <SCORE.INTER.VDW>
-18.1518

>  <SCORE.INTER.norm>
-1.97179

>  <SCORE.INTRA>
0

>  <SCORE.INTRA.DIHEDRAL>
0

>  <SCORE.INTRA.DIHEDRAL.0>
0

>  <SCORE.INTRA.POLAR>
0

>  <SCORE.INTRA.POLAR.0>
0

>  <SCORE.INTRA.REPUL>
0

>  <SCORE.INTRA.REPUL.0>
0

>  <SCORE.INTRA.SOLV>
0

>  <SCORE.INTRA.SOLV.lig_0>
-4.25352

>  <SCORE.INTRA.VDW>
0

>  <SCORE.INTRA.VDW.0>
0

>  <SCORE.INTRA.norm>
0

>  <SCORE.RESTR>
0

>  <SCORE.RESTR.CAVITY>
0

>  <SCORE.RESTR.norm>
0

>  <SCORE.SYSTEM>
0

>  <SCORE.SYSTEM.CONST>
0

>  <SCORE.SYSTEM.DIHEDRAL>
0

>  <SCORE.SYSTEM.SOLV>
0

>  <SCORE.SYSTEM.norm>
0

>  <SCORE.heavy>
10

>  <SCORE.norm>
-1.97179

>  <RMSD>
0.341

$$$$
ligand
 OpenBabel11021811423D
libRbt.so/2013.1/901 2013/11/27
 10 11  0  0  0  0  0  0  0  0999 V2000
   53.5340  -13.3469    8.9927 N   0  0  0  0  0  0  0  0  0  0  0  0
   53.7727  -14.6684    9.2415 C   0  0  0  0  0  0  0  0  0  0  0  0
   54.0787  -15.5413    8.2465 N   0  0  0  0  0  0  0  0  0  0  0  0
   54.1246  -14.9527    7.0166 C   0  0  0  0  0  0  0  0  0  0  0  0
   53.8958  -13.6311    6.7137 C   0  0  0  0  0  0  0  0  0  0  0  0
   53.5733  -12.7283    7.7309 C   0  0  0  0  0  0  0  0  0  0  0  0
   53.3363  -11.5404    7.6613 O   0  0  0  0  0  0  0  0  0  0  0  0
   54.0444  -13.4605    5.3638 N   0  0  0  0  0  0  0  0  0  0  0  0
   54.3557  -14.6491    4.8576 C   0  0  0  0  0  0  0  0  0  0  0  0
   54.4154  -15.6116    5.8481 N   0  0  0  0  0  0  0  0  0  0  0  0
  1  2  1  0  0  0  0
  1  6  1  0  0  0  0
  2  3  2  0  0  0  0
  3  4  1  0  0  0  0
  4  5  2  0  0  0  0
  4 10  1  0  0  0  0
  5  6  1  0  0  0  0
  5  8  1  0  0  0  0
  6  7  2  0  0  0  0
  8  9  1  0  0  0  0
  9 10  2  0  0  0  0
M  END
>  <CHROM.1>
53.90202252,-13.96719840,7.17889417,-2.75121214,1.33041209,-0.99142468

>  <Name>
ligand

>  <RI>
0

>  <Rbt.Current_Directory>
/home/itssahil/PROJECTS/Mol_Feturizer/New_Systems/rnas/2EEV

>  <Rbt.Executable>
rbdock ($Id: //depot/dev/client3/rdock/2013.1/src/exe/rbdock.cxx#4 $)

>  <Rbt.Library>
libRbt.so (2013.1, Build901 2013/11/27)

>  <Rbt.Parameter_File>
/export/apps/rDock/src/rDock_2013.1_src/data/scripts/dock_solv.prm

>  <Rbt.Receptor>
prm/pocket_docking_3.prm

>  <SCORE>
-19.7039

>  <SCORE.INTER>
-19.7039

>  <SCORE.INTER.CONST>
1

>  <SCORE.INTER.POLAR>
0

>  <SCORE.INTER.ROT>
0

>  <SCORE.INTER.SOLV>
4.19659

>  <SCORE.INTER.VDW>
-18.1348

>  <SCORE.INTER.norm>
-1.97039

>  <SCORE.INTRA>
0

>  <SCORE.INTRA.DIHEDRAL>
0

>  <SCORE.INTRA.DIHEDRAL.0>
0

>  <SCORE.INTRA.POLAR>
0

>  <SCORE.INTRA.POLAR.0>
0

>  <SCORE.INTRA.REPUL>
0

>  <SCORE.INTRA.REPUL.0>
0

>  <SCORE.INTRA.SOLV>
0

>  <SCORE.INTRA.SOLV.lig_0>
-4.25352

>  <SCORE.INTRA.VDW>
0

>  <SCORE.INTRA.VDW.0>
0

>  <SCORE.INTRA.norm>
0

>  <SCORE.RESTR>
0

>  <SCORE.RESTR.CAVITY>
0

>  <SCORE.RESTR.norm>
0

>  <SCORE.SYSTEM>
0

>  <SCORE.SYSTEM.CONST>
0

>  <SCORE.SYSTEM.DIHEDRAL>
0

>  <SCORE.SYSTEM.SOLV>
0

>  <SCORE.SYSTEM.norm>
0

>  <SCORE.heavy>
10

>  <SCORE.norm>
-1.97039

>  <RMSD>
0.341

$$$$
ligand
 OpenBabel11021811423D
libRbt.so/2013.1/901 2013/11/27
 10 11  0  0  0  0  0  0  0  0999 V2000
   53.5333  -13.4136    9.0004 N   0  0  0  0  0  0  0  0  0  0  0  0
   53.7419  -14.7442    9.2270 C   0  0  0  0  0  0  0  0  0  0  0  0
   54.0404  -15.6048    8.2192 N   0  0  0  0  0  0  0  0  0  0  0  0
   54.1117  -14.9948    7.0009 C   0  0  0  0  0  0  0  0  0  0  0  0
   53.9136  -13.6633    6.7203 C   0  0  0  0  0  0  0  0  0  0  0  0
   53.5989  -12.7728    7.7508 C   0  0  0  0  0  0  0  0  0  0  0  0
   53.3874  -11.5792    7.7008 O   0  0  0  0  0  0  0  0  0  0  0  0
   54.0801  -13.4711    5.3754 N   0  0  0  0  0  0  0  0  0  0  0  0
   54.3721  -14.6565    4.8505 C   0  0  0  0  0  0  0  0  0  0  0  0
   54.4012  -15.6380    5.8234 N   0  0  0  0  0  0  0  0  0  0  0  0
  1  2  1  0  0  0  0
  1  6  1  0  0  0  0
  2  3  2  0  0  0  0
  3  4  1  0  0  0  0
  4  5  2  0  0  0  0
  4 10  1  0  0  0  0
  5  6  1  0  0  0  0
  5  8  1  0  0  0  0
  6  7  2  0  0  0  0
  8  9  1  0  0  0  0
  9 10  2  0  0  0  0
M  END
>  <CHROM.1>
53.90781797,-14.00800617,7.17923795,-2.84051937,1.34100894,-0.88608722

>  <Name>
ligand

>  <RI>
0

>  <Rbt.Current_Directory>
/home/itssahil/PROJECTS/Mol_Feturizer/New_Systems/rnas/2EEV

>  <Rbt.Executable>
rbdock ($Id: //depot/dev/client3/rdock/2013.1/src/exe/rbdock.cxx#4 $)

>  <Rbt.Library>
libRbt.so (2013.1, Build901 2013/11/27)

>  <Rbt.Parameter_File>
/export/apps/rDock/src/rDock_2013.1_src/data/scripts/dock_solv.prm

>  <Rbt.Receptor>
prm/blind_docking_60.prm

>  <SCORE>
-19.7013

>  <SCORE.INTER>
-19.7013

>  <SCORE.INTER.CONST>
1

>  <SCORE.INTER.POLAR>
0

>  <SCORE.INTER.ROT>
0

>  <SCORE.INTER.SOLV>
4.25077

>  <SCORE.INTER.VDW>
-18.1511

>  <SCORE.INTER.norm>
-1.97013

>  <SCORE.INTRA>
0

>  <SCORE.INTRA.DIHEDRAL>
0

>  <SCORE.INTRA.DIHEDRAL.0>
0

>  <SCORE.INTRA.POLAR>
0

>  <SCORE.INTRA.POLAR.0>
0

>  <SCORE.INTRA.REPUL>
0

>  <SCORE.INTRA.REPUL.0>
0

>  <SCORE.INTRA.SOLV>
0

>  <SCORE.INTRA.SOLV.lig_0>
-4.25352

>  <SCORE.INTRA.VDW>
0

>  <SCORE.INTRA.VDW.0>
0

>  <SCORE.INTRA.norm>
0

>  <SCORE.RESTR>
0

>  <SCORE.RESTR.CAVITY>
0

>  <SCORE.RESTR.norm>
0

>  <SCORE.SYSTEM>
0

>  <SCORE.SYSTEM.CONST>
0

>  <SCORE.SYSTEM.DIHEDRAL>
0

>  <SCORE.SYSTEM.SOLV>
0

>  <SCORE.SYSTEM.norm>
0

>  <SCORE.heavy>
10

>  <SCORE.norm>
-1.97013

>  <RMSD>
0.342

$$$$
ligand
 OpenBabel11021811423D
libRbt.so/2013.1/901 2013/11/27
 10 11  0  0  0  0  0  0  0  0999 V2000
   53.5413  -13.4161    8.9822 N   0  0  0  0  0  0  0  0  0  0  0  0
   53.7763  -14.7407    9.2174 C   0  0  0  0  0  0  0  0  0  0  0  0
   54.0901  -15.6022    8.2148 N   0  0  0  0  0  0  0  0  0  0  0  0
   54.1475  -14.9991    6.9924 C   0  0  0  0  0  0  0  0  0  0  0  0
   53.9229  -13.6736    6.7032 C   0  0  0  0  0  0  0  0  0  0  0  0
   53.5924  -12.7826    7.7282 C   0  0  0  0  0  0  0  0  0  0  0  0
   53.3575  -11.5937    7.6706 O   0  0  0  0  0  0  0  0  0  0  0  0
   54.0835  -13.4873    5.3568 N   0  0  0  0  0  0  0  0  0  0  0  0
   54.3979  -14.6703    4.8393 C   0  0  0  0  0  0  0  0  0  0  0  0
   54.4477  -15.6444    5.8188 N   0  0  0  0  0  0  0  0  0  0  0  0
  1  2  1  0  0  0  0
  1  6  1  0  0  0  0
  2  3  2  0  0  0  0
  3  4  1  0  0  0  0
  4  5  2  0  0  0  0
  4 10  1  0  0  0  0
  5  6  1  0  0  0  0
  5  8  1  0  0  0  0
  6  7  2  0  0  0  0
  8  9  1  0  0  0  0
  9 10  2  0  0  0  0
M  END
>  <CHROM.1>
53.92459197,-14.01528501,7.16445006,-2.78427351,1.32643882,-0.94747576

>  <Name>
ligand

>  <RI>
0

>  <Rbt.Current_Directory>
/home/itssahil/PROJECTS/Mol_Feturizer/New_Systems/rnas/2EEV

>  <Rbt.Executable>
rbdock ($Id: //depot/dev/client3/rdock/2013.1/src/exe/rbdock.cxx#4 $)

>  <Rbt.Library>
libRbt.so (2013.1, Build901 2013/11/27)

>  <Rbt.Parameter_File>
/export/apps/rDock/src/rDock_2013.1_src/data/scripts/dock_solv.prm

>  <Rbt.Receptor>
prm/blind_docking_80.prm

>  <SCORE>
-19.6772

>  <SCORE.INTER>
-19.6772

>  <SCORE.INTER.CONST>
1

>  <SCORE.INTER.POLAR>
0

>  <SCORE.INTER.ROT>
0

>  <SCORE.INTER.SOLV>
4.18799

>  <SCORE.INTER.VDW>
-18.1142

>  <SCORE.INTER.norm>
-1.96772

>  <SCORE.INTRA>
0

>  <SCORE.INTRA.DIHEDRAL>
0

>  <SCORE.INTRA.DIHEDRAL.0>
0

>  <SCORE.INTRA.POLAR>
0

>  <SCORE.INTRA.POLAR.0>
0

>  <SCORE.INTRA.REPUL>
0

>  <SCORE.INTRA.REPUL.0>
0

>  <SCORE.INTRA.SOLV>
0

>  <SCORE.INTRA.SOLV.lig_0>
-4.25352

>  <SCORE.INTRA.VDW>
0

>  <SCORE.INTRA.VDW.0>
0

>  <SCORE.INTRA.norm>
0

>  <SCORE.RESTR>
0

>  <SCORE.RESTR.CAVITY>
0

>  <SCORE.RESTR.norm>
0

>  <SCORE.SYSTEM>
0

>  <SCORE.SYSTEM.CONST>
0

>  <SCORE.SYSTEM.DIHEDRAL>
0

>  <SCORE.SYSTEM.SOLV>
0

>  <SCORE.SYSTEM.norm>
0

>  <SCORE.heavy>
10

>  <SCORE.norm>
-1.96772

>  <RMSD>
0.342

$$$$
ligand
 OpenBabel11021811423D
libRbt.so/2013.1/901 2013/11/27
 10 11  0  0  0  0  0  0  0  0999 V2000
   53.5134  -13.2721    9.0084 N   0  0  0  0  0  0  0  0  0  0  0  0
   53.7259  -14.5875    9.3080 C   0  0  0  0  0  0  0  0  0  0  0  0
   54.0282  -15.5013    8.3492 N   0  0  0  0  0  0  0  0  0  0  0  0
   54.0990  -14.9589    7.0994 C   0  0  0  0  0  0  0  0  0  0  0  0
   53.8971  -13.6455    6.7458 C   0  0  0  0  0  0  0  0  0  0  0  0
   53.5785  -12.7007    7.7255 C   0  0  0  0  0  0  0  0  0  0  0  0
   53.3634  -11.5123    7.6098 O   0  0  0  0  0  0  0  0  0  0  0  0
   54.0645  -13.5269    5.3926 N   0  0  0  0  0  0  0  0  0  0  0  0
   54.3608  -14.7384    4.9338 C   0  0  0  0  0  0  0  0  0  0  0  0
   54.3918  -15.6649    5.9593 N   0  0  0  0  0  0  0  0  0  0  0  0
  1  2  1  0  0  0  0
  1  6  1  0  0  0  0
  2  3  2  0  0  0  0
  3  4  1  0  0  0  0
  4  5  2  0  0  0  0
  4 10  1  0  0  0  0
  5  6  1  0  0  0  0
  5  8  1  0  0  0  0
  6  7  2  0  0  0  0
  8  9  1  0  0  0  0
  9 10  2  0  0  0  0
M  END
>  <CHROM.1>
53.89186879,-13.96443156,7.22299243,-2.83587668,1.33789777,-0.94556533

>  <Name>
ligand

>  <RI>
0

>  <Rbt.Current_Directory>
/home/itssahil/PROJECTS/Mol_Feturizer/New_Systems/rnas/2EEV

>  <Rbt.Executable>
rbdock ($Id: //depot/dev/client3/rdock/2013.1/src/exe/rbdock.cxx#4 $)

>  <Rbt.Library>
libRbt.so (2013.1, Build901 2013/11/27)

>  <Rbt.Parameter_File>
/export/apps/rDock/src/rDock_2013.1_src/data/scripts/dock_solv.prm

>  <Rbt.Receptor>
prm/pocket_docking_6.prm

>  <SCORE>
-19.6572

>  <SCORE.INTER>
-19.6572

>  <SCORE.INTER.CONST>
1

>  <SCORE.INTER.POLAR>
0

>  <SCORE.INTER.ROT>
0

>  <SCORE.INTER.SOLV>
4.24464

>  <SCORE.INTER.VDW>
-18.1197

>  <SCORE.INTER.norm>
-1.96572

>  <SCORE.INTRA>
0

>  <SCORE.INTRA.DIHEDRAL>
0

>  <SCORE.INTRA.DIHEDRAL.0>
0

>  <SCORE.INTRA.POLAR>
0

>  <SCORE.INTRA.POLAR.0>
0

>  <SCORE.INTRA.REPUL>
0

>  <SCORE.INTRA.REPUL.0>
0

>  <SCORE.INTRA.SOLV>
0

>  <SCORE.INTRA.SOLV.lig_0>
-4.25352

>  <SCORE.INTRA.VDW>
0

>  <SCORE.INTRA.VDW.0>
0

>  <SCORE.INTRA.norm>
0

>  <SCORE.RESTR>
0

>  <SCORE.RESTR.CAVITY>
0

>  <SCORE.RESTR.norm>
0

>  <SCORE.SYSTEM>
0

>  <SCORE.SYSTEM.CONST>
0

>  <SCORE.SYSTEM.DIHEDRAL>
0

>  <SCORE.SYSTEM.SOLV>
0

>  <SCORE.SYSTEM.norm>
0

>  <SCORE.heavy>
10

>  <SCORE.norm>
-1.96572

>  <RMSD>
0.342

$$$$
ligand
 OpenBabel11021811423D
libRbt.so/2013.1/901 2013/11/27
 10 11  0  0  0  0  0  0  0  0999 V2000
   53.5323  -13.3910    8.9944 N   0  0  0  0  0  0  0  0  0  0  0  0
   53.7619  -14.7171    9.2264 C   0  0  0  0  0  0  0  0  0  0  0  0
   54.0641  -15.5790    8.2207 N   0  0  0  0  0  0  0  0  0  0  0  0
   54.1161  -14.9748    6.9986 C   0  0  0  0  0  0  0  0  0  0  0  0
   53.8965  -13.6479    6.7125 C   0  0  0  0  0  0  0  0  0  0  0  0
   53.5780  -12.7563    7.7408 C   0  0  0  0  0  0  0  0  0  0  0  0
   53.3490  -11.5661    7.6861 O   0  0  0  0  0  0  0  0  0  0  0  0
   54.0488  -13.4608    5.3651 N   0  0  0  0  0  0  0  0  0  0  0  0
   54.3533  -14.6448    4.8441 C   0  0  0  0  0  0  0  0  0  0  0  0
   54.4048  -15.6204    5.8221 N   0  0  0  0  0  0  0  0  0  0  0  0
  1  2  1  0  0  0  0
  1  6  1  0  0  0  0
  2  3  2  0  0  0  0
  3  4  1  0  0  0  0
  4  5  2  0  0  0  0
  4 10  1  0  0  0  0
  5  6  1  0  0  0  0
  5  8  1  0  0  0  0
  6  7  2  0  0  0  0
  8  9  1  0  0  0  0
  9 10  2  0  0  0  0
M  END
>  <CHROM.1>
53.89967543,-13.99006576,7.17328043,-2.77326266,1.33481216,-0.95702400

>  <Name>
ligand

>  <RI>
0

>  <Rbt.Current_Directory>
/home/itssahil/PROJECTS/Mol_Feturizer/New_Systems/rnas/2EEV

>  <Rbt.Executable>
rbdock ($Id: //depot/dev/client3/rdock/2013.1/src/exe/rbdock.cxx#4 $)

>  <Rbt.Library>
libRbt.so (2013.1, Build901 2013/11/27)

>  <Rbt.Parameter_File>
/export/apps/rDock/src/rDock_2013.1_src/data/scripts/dock_solv.prm

>  <Rbt.Receptor>
prm/pocket_docking_6.prm

>  <SCORE>
-19.7183

>  <SCORE.INTER>
-19.7183

>  <SCORE.INTER.CONST>
1

>  <SCORE.INTER.POLAR>
0

>  <SCORE.INTER.ROT>
0

>  <SCORE.INTER.SOLV>
4.21643

>  <SCORE.INTER.VDW>
-18.151

>  <SCORE.INTER.norm>
-1.97183

>  <SCORE.INTRA>
0

>  <SCORE.INTRA.DIHEDRAL>
0

>  <SCORE.INTRA.DIHEDRAL.0>
0

>  <SCORE.INTRA.POLAR>
0

>  <SCORE.INTRA.POLAR.0>
0

>  <SCORE.INTRA.REPUL>
0

>  <SCORE.INTRA.REPUL.0>
0

>  <SCORE.INTRA.SOLV>
0

>  <SCORE.INTRA.SOLV.lig_0>
-4.25352

>  <SCORE.INTRA.VDW>
0

>  <SCORE.INTRA.VDW.0>
0

>  <SCORE.INTRA.norm>
0

>  <SCORE.RESTR>
0

>  <SCORE.RESTR.CAVITY>
0

>  <SCORE.RESTR.norm>
0

>  <SCORE.SYSTEM>
0

>  <SCORE.SYSTEM.CONST>
0

>  <SCORE.SYSTEM.DIHEDRAL>
0

>  <SCORE.SYSTEM.SOLV>
0

>  <SCORE.SYSTEM.norm>
0

>  <SCORE.heavy>
10

>  <SCORE.norm>
-1.97183

>  <RMSD>
0.342

$$$$
ligand
 OpenBabel11021811423D
libRbt.so/2013.1/901 2013/11/27
 10 11  0  0  0  0  0  0  0  0999 V2000
   53.5470  -13.3668    8.9829 N   0  0  0  0  0  0  0  0  0  0  0  0
   53.7925  -14.6872    9.2307 C   0  0  0  0  0  0  0  0  0  0  0  0
   54.1041  -15.5576    8.2352 N   0  0  0  0  0  0  0  0  0  0  0  0
   54.1480  -14.9677    7.0058 C   0  0  0  0  0  0  0  0  0  0  0  0
   53.9124  -13.6470    6.7039 C   0  0  0  0  0  0  0  0  0  0  0  0
   53.5842  -12.7468    7.7216 C   0  0  0  0  0  0  0  0  0  0  0  0
   53.3410  -11.5602    7.6528 O   0  0  0  0  0  0  0  0  0  0  0  0
   54.0613  -13.4745    5.3542 N   0  0  0  0  0  0  0  0  0  0  0  0
   54.3794  -14.6610    4.8473 C   0  0  0  0  0  0  0  0  0  0  0  0
   54.4433  -15.6240    5.8370 N   0  0  0  0  0  0  0  0  0  0  0  0
  1  2  1  0  0  0  0
  1  6  1  0  0  0  0
  2  3  2  0  0  0  0
  3  4  1  0  0  0  0
  4  5  2  0  0  0  0
  4 10  1  0  0  0  0
  5  6  1  0  0  0  0
  5  8  1  0  0  0  0
  6  7  2  0  0  0  0
  8  9  1  0  0  0  0
  9 10  2  0  0  0  0
M  END
>  <CHROM.1>
53.92000644,-13.98350893,7.16880667,-2.74234708,1.32546117,-0.99915638

>  <Name>
ligand

>  <RI>
0

>  <Rbt.Current_Directory>
/home/itssahil/PROJECTS/Mol_Feturizer/New_Systems/rnas/2EEV

>  <Rbt.Executable>
rbdock ($Id: //depot/dev/client3/rdock/2013.1/src/exe/rbdock.cxx#4 $)

>  <Rbt.Library>
libRbt.so (2013.1, Build901 2013/11/27)

>  <Rbt.Parameter_File>
/export/apps/rDock/src/rDock_2013.1_src/data/scripts/dock_solv.prm

>  <Rbt.Receptor>
prm/pocket_docking_7.prm

>  <SCORE>
-19.6954

>  <SCORE.INTER>
-19.6954

>  <SCORE.INTER.CONST>
1

>  <SCORE.INTER.POLAR>
0

>  <SCORE.INTER.ROT>
0

>  <SCORE.INTER.SOLV>
4.17525

>  <SCORE.INTER.VDW>
-18.122

>  <SCORE.INTER.norm>
-1.96954

>  <SCORE.INTRA>
0

>  <SCORE.INTRA.DIHEDRAL>
0

>  <SCORE.INTRA.DIHEDRAL.0>
0

>  <SCORE.INTRA.POLAR>
0

>  <SCORE.INTRA.POLAR.0>
0

>  <SCORE.INTRA.REPUL>
0

>  <SCORE.INTRA.REPUL.0>
0

>  <SCORE.INTRA.SOLV>
0

>  <SCORE.INTRA.SOLV.lig_0>
-4.25352

>  <SCORE.INTRA.VDW>
0

>  <SCORE.INTRA.VDW.0>
0

>  <SCORE.INTRA.norm>
0

>  <SCORE.RESTR>
0

>  <SCORE.RESTR.CAVITY>
0

>  <SCORE.RESTR.norm>
0

>  <SCORE.SYSTEM>
0

>  <SCORE.SYSTEM.CONST>
0

>  <SCORE.SYSTEM.DIHEDRAL>
0

>  <SCORE.SYSTEM.SOLV>
0

>  <SCORE.SYSTEM.norm>
0

>  <SCORE.heavy>
10

>  <SCORE.norm>
-1.96954

>  <RMSD>
0.342

$$$$
ligand
 OpenBabel11021811423D
libRbt.so/2013.1/901 2013/11/27
 10 11  0  0  0  0  0  0  0  0999 V2000
   53.5236  -13.3922    8.9921 N   0  0  0  0  0  0  0  0  0  0  0  0
   53.7528  -14.7184    9.2247 C   0  0  0  0  0  0  0  0  0  0  0  0
   54.0591  -15.5799    8.2199 N   0  0  0  0  0  0  0  0  0  0  0  0
   54.1155  -14.9754    6.9981 C   0  0  0  0  0  0  0  0  0  0  0  0
   53.8966  -13.6484    6.7115 C   0  0  0  0  0  0  0  0  0  0  0  0
   53.5738  -12.7572    7.7388 C   0  0  0  0  0  0  0  0  0  0  0  0
   53.3446  -11.5671    7.6836 O   0  0  0  0  0  0  0  0  0  0  0  0
   54.0538  -13.4610    5.3648 N   0  0  0  0  0  0  0  0  0  0  0  0
   54.3607  -14.6447    4.8447 C   0  0  0  0  0  0  0  0  0  0  0  0
   54.4088  -15.6205    5.8226 N   0  0  0  0  0  0  0  0  0  0  0  0
  1  2  1  0  0  0  0
  1  6  1  0  0  0  0
  2  3  2  0  0  0  0
  3  4  1  0  0  0  0
  4  5  2  0  0  0  0
  4 10  1  0  0  0  0
  5  6  1  0  0  0  0
  5  8  1  0  0  0  0
  6  7  2  0  0  0  0
  8  9  1  0  0  0  0
  9 10  2  0  0  0  0
M  END
>  <CHROM.1>
53.89807889,-13.99074305,7.17225117,-2.78546922,1.33232812,-0.94490045

>  <Name>
ligand

>  <RI>
0

>  <Rbt.Current_Directory>
/home/itssahil/PROJECTS/Mol_Feturizer/New_Systems/rnas/2EEV

>  <Rbt.Executable>
rbdock ($Id: //depot/dev/client3/rdock/2013.1/src/exe/rbdock.cxx#4 $)

>  <Rbt.Library>
libRbt.so (2013.1, Build901 2013/11/27)

>  <Rbt.Parameter_File>
/export/apps/rDock/src/rDock_2013.1_src/data/scripts/dock_solv.prm

>  <Rbt.Receptor>
prm/pocket_docking_3.prm

>  <SCORE>
-19.7214

>  <SCORE.INTER>
-19.7214

>  <SCORE.INTER.CONST>
1

>  <SCORE.INTER.POLAR>
0

>  <SCORE.INTER.ROT>
0

>  <SCORE.INTER.SOLV>
4.2138

>  <SCORE.INTER.VDW>
-18.1522

>  <SCORE.INTER.norm>
-1.97214

>  <SCORE.INTRA>
0

>  <SCORE.INTRA.DIHEDRAL>
0

>  <SCORE.INTRA.DIHEDRAL.0>
0

>  <SCORE.INTRA.POLAR>
0

>  <SCORE.INTRA.POLAR.0>
0

>  <SCORE.INTRA.REPUL>
0

>  <SCORE.INTRA.REPUL.0>
0

>  <SCORE.INTRA.SOLV>
0

>  <SCORE.INTRA.SOLV.lig_0>
-4.25352

>  <SCORE.INTRA.VDW>
0

>  <SCORE.INTRA.VDW.0>
0

>  <SCORE.INTRA.norm>
0

>  <SCORE.RESTR>
0

>  <SCORE.RESTR.CAVITY>
0

>  <SCORE.RESTR.norm>
0

>  <SCORE.SYSTEM>
0

>  <SCORE.SYSTEM.CONST>
0

>  <SCORE.SYSTEM.DIHEDRAL>
0

>  <SCORE.SYSTEM.SOLV>
0

>  <SCORE.SYSTEM.norm>
0

>  <SCORE.heavy>
10

>  <SCORE.norm>
-1.97214

>  <RMSD>
0.343

$$$$
ligand
 OpenBabel11021811423D
libRbt.so/2013.1/901 2013/11/27
 10 11  0  0  0  0  0  0  0  0999 V2000
   53.5000  -13.3215    8.9904 N   0  0  0  0  0  0  0  0  0  0  0  0
   53.7362  -14.6406    9.2539 C   0  0  0  0  0  0  0  0  0  0  0  0
   54.0515  -15.5228    8.2700 N   0  0  0  0  0  0  0  0  0  0  0  0
   54.1089  -14.9458    7.0351 C   0  0  0  0  0  0  0  0  0  0  0  0
   53.8831  -13.6271    6.7176 C   0  0  0  0  0  0  0  0  0  0  0  0
   53.5511  -12.7147    7.7233 C   0  0  0  0  0  0  0  0  0  0  0  0
   53.3150  -11.5276    7.6402 O   0  0  0  0  0  0  0  0  0  0  0  0
   54.0442  -13.4692    5.3676 N   0  0  0  0  0  0  0  0  0  0  0  0
   54.3602  -14.6626    4.8756 C   0  0  0  0  0  0  0  0  0  0  0  0
   54.4105  -15.6157    5.8756 N   0  0  0  0  0  0  0  0  0  0  0  0
  1  2  1  0  0  0  0
  1  6  1  0  0  0  0
  2  3  2  0  0  0  0
  3  4  1  0  0  0  0
  4  5  2  0  0  0  0
  4 10  1  0  0  0  0
  5  6  1  0  0  0  0
  5  8  1  0  0  0  0
  6  7  2  0  0  0  0
  8  9  1  0  0  0  0
  9 10  2  0  0  0  0
M  END
>  <CHROM.1>
53.88489424,-13.95880440,7.18602479,-2.78356355,1.32525821,-0.96945171

>  <Name>
ligand

>  <RI>
0

>  <Rbt.Current_Directory>
/home/itssahil/PROJECTS/Mol_Feturizer/New_Systems/rnas/2EEV

>  <Rbt.Executable>
rbdock ($Id: //depot/dev/client3/rdock/2013.1/src/exe/rbdock.cxx#4 $)

>  <Rbt.Library>
libRbt.so (2013.1, Build901 2013/11/27)

>  <Rbt.Parameter_File>
/export/apps/rDock/src/rDock_2013.1_src/data/scripts/dock_solv.prm

>  <Rbt.Receptor>
prm/pocket_docking_3.prm

>  <SCORE>
-19.6804

>  <SCORE.INTER>
-19.6804

>  <SCORE.INTER.CONST>
1

>  <SCORE.INTER.POLAR>
0

>  <SCORE.INTER.ROT>
0

>  <SCORE.INTER.SOLV>
4.19976

>  <SCORE.INTER.VDW>
-18.1202

>  <SCORE.INTER.norm>
-1.96804

>  <SCORE.INTRA>
0

>  <SCORE.INTRA.DIHEDRAL>
0

>  <SCORE.INTRA.DIHEDRAL.0>
0

>  <SCORE.INTRA.POLAR>
0

>  <SCORE.INTRA.POLAR.0>
0

>  <SCORE.INTRA.REPUL>
0

>  <SCORE.INTRA.REPUL.0>
0

>  <SCORE.INTRA.SOLV>
0

>  <SCORE.INTRA.SOLV.lig_0>
-4.25352

>  <SCORE.INTRA.VDW>
0

>  <SCORE.INTRA.VDW.0>
0

>  <SCORE.INTRA.norm>
0

>  <SCORE.RESTR>
0

>  <SCORE.RESTR.CAVITY>
0

>  <SCORE.RESTR.norm>
0

>  <SCORE.SYSTEM>
0

>  <SCORE.SYSTEM.CONST>
0

>  <SCORE.SYSTEM.DIHEDRAL>
0

>  <SCORE.SYSTEM.SOLV>
0

>  <SCORE.SYSTEM.norm>
0

>  <SCORE.heavy>
10

>  <SCORE.norm>
-1.96804

>  <RMSD>
0.343

$$$$
ligand
 OpenBabel11021811423D
libRbt.so/2013.1/901 2013/11/27
 10 11  0  0  0  0  0  0  0  0999 V2000
   53.5260  -13.3921    8.9945 N   0  0  0  0  0  0  0  0  0  0  0  0
   53.7530  -14.7187    9.2263 C   0  0  0  0  0  0  0  0  0  0  0  0
   54.0556  -15.5806    8.2207 N   0  0  0  0  0  0  0  0  0  0  0  0
   54.1110  -14.9758    6.9991 C   0  0  0  0  0  0  0  0  0  0  0  0
   53.8941  -13.6484    6.7132 C   0  0  0  0  0  0  0  0  0  0  0  0
   53.5752  -12.7568    7.7414 C   0  0  0  0  0  0  0  0  0  0  0  0
   53.3482  -11.5662    7.6869 O   0  0  0  0  0  0  0  0  0  0  0  0
   54.0492  -13.4609    5.3662 N   0  0  0  0  0  0  0  0  0  0  0  0
   54.3527  -14.6451    4.8452 C   0  0  0  0  0  0  0  0  0  0  0  0
   54.4007  -15.6213    5.8228 N   0  0  0  0  0  0  0  0  0  0  0  0
  1  2  1  0  0  0  0
  1  6  1  0  0  0  0
  2  3  2  0  0  0  0
  3  4  1  0  0  0  0
  4  5  2  0  0  0  0
  4 10  1  0  0  0  0
  5  6  1  0  0  0  0
  5  8  1  0  0  0  0
  6  7  2  0  0  0  0
  8  9  1  0  0  0  0
  9 10  2  0  0  0  0
M  END
>  <CHROM.1>
53.89584021,-13.99082549,7.17384215,-2.78392206,1.33508294,-0.94614430

>  <Name>
ligand

>  <RI>
0

>  <Rbt.Current_Directory>
/home/itssahil/PROJECTS/Mol_Feturizer/New_Systems/rnas/2EEV

>  <Rbt.Executable>
rbdock ($Id: //depot/dev/client3/rdock/2013.1/src/exe/rbdock.cxx#4 $)

>  <Rbt.Library>
libRbt.so (2013.1, Build901 2013/11/27)

>  <Rbt.Parameter_File>
/export/apps/rDock/src/rDock_2013.1_src/data/scripts/dock_solv.prm

>  <Rbt.Receptor>
prm/pocket_docking_6.prm

>  <SCORE>
-19.7216

>  <SCORE.INTER>
-19.7216

>  <SCORE.INTER.CONST>
1

>  <SCORE.INTER.POLAR>
0

>  <SCORE.INTER.ROT>
0

>  <SCORE.INTER.SOLV>
4.22202

>  <SCORE.INTER.VDW>
-18.1551

>  <SCORE.INTER.norm>
-1.97216

>  <SCORE.INTRA>
0

>  <SCORE.INTRA.DIHEDRAL>
0

>  <SCORE.INTRA.DIHEDRAL.0>
0

>  <SCORE.INTRA.POLAR>
0

>  <SCORE.INTRA.POLAR.0>
0

>  <SCORE.INTRA.REPUL>
0

>  <SCORE.INTRA.REPUL.0>
0

>  <SCORE.INTRA.SOLV>
0

>  <SCORE.INTRA.SOLV.lig_0>
-4.25352

>  <SCORE.INTRA.VDW>
0

>  <SCORE.INTRA.VDW.0>
0

>  <SCORE.INTRA.norm>
0

>  <SCORE.RESTR>
0

>  <SCORE.RESTR.CAVITY>
0

>  <SCORE.RESTR.norm>
0

>  <SCORE.SYSTEM>
0

>  <SCORE.SYSTEM.CONST>
0

>  <SCORE.SYSTEM.DIHEDRAL>
0

>  <SCORE.SYSTEM.SOLV>
0

>  <SCORE.SYSTEM.norm>
0

>  <SCORE.heavy>
10

>  <SCORE.norm>
-1.97216

>  <RMSD>
0.343

$$$$
ligand
 OpenBabel11021811423D
libRbt.so/2013.1/901 2013/11/27
 10 11  0  0  0  0  0  0  0  0999 V2000
   53.5328  -13.3899    8.9959 N   0  0  0  0  0  0  0  0  0  0  0  0
   53.7552  -14.7171    9.2291 C   0  0  0  0  0  0  0  0  0  0  0  0
   54.0550  -15.5811    8.2245 N   0  0  0  0  0  0  0  0  0  0  0  0
   54.1126  -14.9778    7.0022 C   0  0  0  0  0  0  0  0  0  0  0  0
   53.9004  -13.6499    6.7149 C   0  0  0  0  0  0  0  0  0  0  0  0
   53.5843  -12.7561    7.7421 C   0  0  0  0  0  0  0  0  0  0  0  0
   53.3615  -11.5648    7.6864 O   0  0  0  0  0  0  0  0  0  0  0  0
   54.0563  -13.4643    5.3678 N   0  0  0  0  0  0  0  0  0  0  0  0
   54.3558  -14.6501    4.8480 C   0  0  0  0  0  0  0  0  0  0  0  0
   54.4003  -15.6254    5.8266 N   0  0  0  0  0  0  0  0  0  0  0  0
  1  2  1  0  0  0  0
  1  6  1  0  0  0  0
  2  3  2  0  0  0  0
  3  4  1  0  0  0  0
  4  5  2  0  0  0  0
  4 10  1  0  0  0  0
  5  6  1  0  0  0  0
  5  8  1  0  0  0  0
  6  7  2  0  0  0  0
  8  9  1  0  0  0  0
  9 10  2  0  0  0  0
M  END
>  <CHROM.1>
53.90084128,-13.99182249,7.17591506,-2.79314974,1.33777459,-0.93820771

>  <Name>
ligand

>  <RI>
0

>  <Rbt.Current_Directory>
/home/itssahil/PROJECTS/Mol_Feturizer/New_Systems/rnas/2EEV

>  <Rbt.Executable>
rbdock ($Id: //depot/dev/client3/rdock/2013.1/src/exe/rbdock.cxx#4 $)

>  <Rbt.Library>
libRbt.so (2013.1, Build901 2013/11/27)

>  <Rbt.Parameter_File>
/export/apps/rDock/src/rDock_2013.1_src/data/scripts/dock_solv.prm

>  <Rbt.Receptor>
prm/pocket_docking_6.prm

>  <SCORE>
-19.717

>  <SCORE.INTER>
-19.717

>  <SCORE.INTER.CONST>
1

>  <SCORE.INTER.POLAR>
0

>  <SCORE.INTER.ROT>
0

>  <SCORE.INTER.SOLV>
4.22912

>  <SCORE.INTER.VDW>
-18.1544

>  <SCORE.INTER.norm>
-1.9717

>  <SCORE.INTRA>
0

>  <SCORE.INTRA.DIHEDRAL>
0

>  <SCORE.INTRA.DIHEDRAL.0>
0

>  <SCORE.INTRA.POLAR>
0

>  <SCORE.INTRA.POLAR.0>
0

>  <SCORE.INTRA.REPUL>
0

>  <SCORE.INTRA.REPUL.0>
0

>  <SCORE.INTRA.SOLV>
0

>  <SCORE.INTRA.SOLV.lig_0>
-4.25352

>  <SCORE.INTRA.VDW>
0

>  <SCORE.INTRA.VDW.0>
0

>  <SCORE.INTRA.norm>
0

>  <SCORE.RESTR>
0

>  <SCORE.RESTR.CAVITY>
0

>  <SCORE.RESTR.norm>
0

>  <SCORE.SYSTEM>
0

>  <SCORE.SYSTEM.CONST>
0

>  <SCORE.SYSTEM.DIHEDRAL>
0

>  <SCORE.SYSTEM.SOLV>
0

>  <SCORE.SYSTEM.norm>
0

>  <SCORE.heavy>
10

>  <SCORE.norm>
-1.9717

>  <RMSD>
0.343

$$$$
ligand
 OpenBabel11021811423D
libRbt.so/2013.1/901 2013/11/27
 10 11  0  0  0  0  0  0  0  0999 V2000
   53.5265  -13.3937    8.9947 N   0  0  0  0  0  0  0  0  0  0  0  0
   53.7507  -14.7209    9.2256 C   0  0  0  0  0  0  0  0  0  0  0  0
   54.0529  -15.5825    8.2197 N   0  0  0  0  0  0  0  0  0  0  0  0
   54.1107  -14.9769    6.9986 C   0  0  0  0  0  0  0  0  0  0  0  0
   53.8966  -13.6488    6.7136 C   0  0  0  0  0  0  0  0  0  0  0  0
   53.5781  -12.7575    7.7421 C   0  0  0  0  0  0  0  0  0  0  0  0
   53.3534  -11.5664    7.6884 O   0  0  0  0  0  0  0  0  0  0  0  0
   54.0535  -13.4605    5.3669 N   0  0  0  0  0  0  0  0  0  0  0  0
   54.3554  -14.6449    4.8453 C   0  0  0  0  0  0  0  0  0  0  0  0
   54.4005  -15.6219    5.8221 N   0  0  0  0  0  0  0  0  0  0  0  0
  1  2  1  0  0  0  0
  1  6  1  0  0  0  0
  2  3  2  0  0  0  0
  3  4  1  0  0  0  0
  4  5  2  0  0  0  0
  4 10  1  0  0  0  0
  5  6  1  0  0  0  0
  5  8  1  0  0  0  0
  6  7  2  0  0  0  0
  8  9  1  0  0  0  0
  9 10  2  0  0  0  0
M  END
>  <CHROM.1>
53.89715583,-13.99161466,7.17391617,-2.79238033,1.33591599,-0.93709800

>  <Name>
ligand

>  <RI>
0

>  <Rbt.Current_Directory>
/home/itssahil/PROJECTS/Mol_Feturizer/New_Systems/rnas/2EEV

>  <Rbt.Executable>
rbdock ($Id: //depot/dev/client3/rdock/2013.1/src/exe/rbdock.cxx#4 $)

>  <Rbt.Library>
libRbt.so (2013.1, Build901 2013/11/27)

>  <Rbt.Parameter_File>
/export/apps/rDock/src/rDock_2013.1_src/data/scripts/dock_solv.prm

>  <Rbt.Receptor>
prm/pocket_docking_8.prm

>  <SCORE>
-19.7208

>  <SCORE.INTER>
-19.7208

>  <SCORE.INTER.CONST>
1

>  <SCORE.INTER.POLAR>
0

>  <SCORE.INTER.ROT>
0

>  <SCORE.INTER.SOLV>
4.22569

>  <SCORE.INTER.VDW>
-18.1558

>  <SCORE.INTER.norm>
-1.97208

>  <SCORE.INTRA>
0

>  <SCORE.INTRA.DIHEDRAL>
0

>  <SCORE.INTRA.DIHEDRAL.0>
0

>  <SCORE.INTRA.POLAR>
0

>  <SCORE.INTRA.POLAR.0>
0

>  <SCORE.INTRA.REPUL>
0

>  <SCORE.INTRA.REPUL.0>
0

>  <SCORE.INTRA.SOLV>
0

>  <SCORE.INTRA.SOLV.lig_0>
-4.25352

>  <SCORE.INTRA.VDW>
0

>  <SCORE.INTRA.VDW.0>
0

>  <SCORE.INTRA.norm>
0

>  <SCORE.RESTR>
0

>  <SCORE.RESTR.CAVITY>
0

>  <SCORE.RESTR.norm>
0

>  <SCORE.SYSTEM>
0

>  <SCORE.SYSTEM.CONST>
0

>  <SCORE.SYSTEM.DIHEDRAL>
0

>  <SCORE.SYSTEM.SOLV>
0

>  <SCORE.SYSTEM.norm>
0

>  <SCORE.heavy>
10

>  <SCORE.norm>
-1.97208

>  <RMSD>
0.343

$$$$
ligand
 OpenBabel11021811423D
libRbt.so/2013.1/901 2013/11/27
 10 11  0  0  0  0  0  0  0  0999 V2000
   53.5307  -13.4132    9.0003 N   0  0  0  0  0  0  0  0  0  0  0  0
   53.7451  -14.7414    9.2348 C   0  0  0  0  0  0  0  0  0  0  0  0
   54.0370  -15.6087    8.2307 N   0  0  0  0  0  0  0  0  0  0  0  0
   54.0956  -15.0075    7.0074 C   0  0  0  0  0  0  0  0  0  0  0  0
   53.8912  -13.6787    6.7188 C   0  0  0  0  0  0  0  0  0  0  0  0
   53.5832  -12.7815    7.7455 C   0  0  0  0  0  0  0  0  0  0  0  0
   53.3679  -11.5888    7.6886 O   0  0  0  0  0  0  0  0  0  0  0  0
   54.0450  -13.4960    5.3710 N   0  0  0  0  0  0  0  0  0  0  0  0
   54.3357  -14.6844    4.8523 C   0  0  0  0  0  0  0  0  0  0  0  0
   54.3764  -15.6586    5.8321 N   0  0  0  0  0  0  0  0  0  0  0  0
  1  2  1  0  0  0  0
  1  6  1  0  0  0  0
  2  3  2  0  0  0  0
  3  4  1  0  0  0  0
  4  5  2  0  0  0  0
  4 10  1  0  0  0  0
  5  6  1  0  0  0  0
  5  8  1  0  0  0  0
  6  7  2  0  0  0  0
  8  9  1  0  0  0  0
  9 10  2  0  0  0  0
M  END
>  <CHROM.1>
53.89051444,-14.01997795,7.18027412,-2.80147404,1.34431530,-0.93150297

>  <Name>
ligand

>  <RI>
0

>  <Rbt.Current_Directory>
/home/itssahil/PROJECTS/Mol_Feturizer/New_Systems/rnas/2EEV

>  <Rbt.Executable>
rbdock ($Id: //depot/dev/client3/rdock/2013.1/src/exe/rbdock.cxx#4 $)

>  <Rbt.Library>
libRbt.so (2013.1, Build901 2013/11/27)

>  <Rbt.Parameter_File>
/export/apps/rDock/src/rDock_2013.1_src/data/scripts/dock_solv.prm

>  <Rbt.Receptor>
prm/pocket_docking_8.prm

>  <SCORE>
-19.7125

>  <SCORE.INTER>
-19.7125

>  <SCORE.INTER.CONST>
1

>  <SCORE.INTER.POLAR>
0

>  <SCORE.INTER.ROT>
0

>  <SCORE.INTER.SOLV>
4.25709

>  <SCORE.INTER.VDW>
-18.1607

>  <SCORE.INTER.norm>
-1.97125

>  <SCORE.INTRA>
0

>  <SCORE.INTRA.DIHEDRAL>
0

>  <SCORE.INTRA.DIHEDRAL.0>
0

>  <SCORE.INTRA.POLAR>
0

>  <SCORE.INTRA.POLAR.0>
0

>  <SCORE.INTRA.REPUL>
0

>  <SCORE.INTRA.REPUL.0>
0

>  <SCORE.INTRA.SOLV>
0

>  <SCORE.INTRA.SOLV.lig_0>
-4.25352

>  <SCORE.INTRA.VDW>
0

>  <SCORE.INTRA.VDW.0>
0

>  <SCORE.INTRA.norm>
0

>  <SCORE.RESTR>
0

>  <SCORE.RESTR.CAVITY>
0

>  <SCORE.RESTR.norm>
0

>  <SCORE.SYSTEM>
0

>  <SCORE.SYSTEM.CONST>
0

>  <SCORE.SYSTEM.DIHEDRAL>
0

>  <SCORE.SYSTEM.SOLV>
0

>  <SCORE.SYSTEM.norm>
0

>  <SCORE.heavy>
10

>  <SCORE.norm>
-1.97125

>  <RMSD>
0.343

$$$$
ligand
 OpenBabel11021811423D
libRbt.so/2013.1/901 2013/11/27
 10 11  0  0  0  0  0  0  0  0999 V2000
   53.5194  -13.3259    8.9919 N   0  0  0  0  0  0  0  0  0  0  0  0
   53.7537  -14.6457    9.2534 C   0  0  0  0  0  0  0  0  0  0  0  0
   54.0605  -15.5284    8.2673 N   0  0  0  0  0  0  0  0  0  0  0  0
   54.1118  -14.9511    7.0322 C   0  0  0  0  0  0  0  0  0  0  0  0
   53.8876  -13.6316    6.7166 C   0  0  0  0  0  0  0  0  0  0  0  0
   53.5643  -12.7188    7.7246 C   0  0  0  0  0  0  0  0  0  0  0  0
   53.3309  -11.5310    7.6435 O   0  0  0  0  0  0  0  0  0  0  0  0
   54.0409  -13.4737    5.3657 N   0  0  0  0  0  0  0  0  0  0  0  0
   54.3506  -14.6678    4.8713 C   0  0  0  0  0  0  0  0  0  0  0  0
   54.4045  -15.6213    5.8706 N   0  0  0  0  0  0  0  0  0  0  0  0
  1  2  1  0  0  0  0
  1  6  1  0  0  0  0
  2  3  2  0  0  0  0
  3  4  1  0  0  0  0
  4  5  2  0  0  0  0
  4 10  1  0  0  0  0
  5  6  1  0  0  0  0
  5  8  1  0  0  0  0
  6  7  2  0  0  0  0
  8  9  1  0  0  0  0
  9 10  2  0  0  0  0
M  END
>  <CHROM.1>
53.89141932,-13.96355386,7.18488231,-2.76862893,1.33094853,-0.98357460

>  <Name>
ligand

>  <RI>
0

>  <Rbt.Current_Directory>
/home/itssahil/PROJECTS/Mol_Feturizer/New_Systems/rnas/2EEV

>  <Rbt.Executable>
rbdock ($Id: //depot/dev/client3/rdock/2013.1/src/exe/rbdock.cxx#4 $)

>  <Rbt.Library>
libRbt.so (2013.1, Build901 2013/11/27)

>  <Rbt.Parameter_File>
/export/apps/rDock/src/rDock_2013.1_src/data/scripts/dock_solv.prm

>  <Rbt.Receptor>
prm/blind_docking_60.prm

>  <SCORE>
-19.6758

>  <SCORE.INTER>
-19.6758

>  <SCORE.INTER.CONST>
1

>  <SCORE.INTER.POLAR>
0

>  <SCORE.INTER.ROT>
0

>  <SCORE.INTER.SOLV>
4.20607

>  <SCORE.INTER.VDW>
-18.1192

>  <SCORE.INTER.norm>
-1.96758

>  <SCORE.INTRA>
0

>  <SCORE.INTRA.DIHEDRAL>
0

>  <SCORE.INTRA.DIHEDRAL.0>
0

>  <SCORE.INTRA.POLAR>
0

>  <SCORE.INTRA.POLAR.0>
0

>  <SCORE.INTRA.REPUL>
0

>  <SCORE.INTRA.REPUL.0>
0

>  <SCORE.INTRA.SOLV>
0

>  <SCORE.INTRA.SOLV.lig_0>
-4.25352

>  <SCORE.INTRA.VDW>
0

>  <SCORE.INTRA.VDW.0>
0

>  <SCORE.INTRA.norm>
0

>  <SCORE.RESTR>
0

>  <SCORE.RESTR.CAVITY>
0

>  <SCORE.RESTR.norm>
0

>  <SCORE.SYSTEM>
0

>  <SCORE.SYSTEM.CONST>
0

>  <SCORE.SYSTEM.DIHEDRAL>
0

>  <SCORE.SYSTEM.SOLV>
0

>  <SCORE.SYSTEM.norm>
0

>  <SCORE.heavy>
10

>  <SCORE.norm>
-1.96758

>  <RMSD>
0.344

$$$$
ligand
 OpenBabel11021811423D
libRbt.so/2013.1/901 2013/11/27
 10 11  0  0  0  0  0  0  0  0999 V2000
   53.4098  -13.1902    9.0554 N   0  0  0  0  0  0  0  0  0  0  0  0
   53.6358  -14.5056    9.3448 C   0  0  0  0  0  0  0  0  0  0  0  0
   53.9783  -15.4025    8.3835 N   0  0  0  0  0  0  0  0  0  0  0  0
   54.0730  -14.8436    7.1426 C   0  0  0  0  0  0  0  0  0  0  0  0
   53.8589  -13.5293    6.7995 C   0  0  0  0  0  0  0  0  0  0  0  0
   53.4992  -12.6020    7.7816 C   0  0  0  0  0  0  0  0  0  0  0  0
   53.2677  -11.4159    7.6745 O   0  0  0  0  0  0  0  0  0  0  0  0
   54.0600  -13.3913    5.4527 N   0  0  0  0  0  0  0  0  0  0  0  0
   54.3881  -14.5922    4.9875 C   0  0  0  0  0  0  0  0  0  0  0  0
   54.4074  -15.5307    6.0023 N   0  0  0  0  0  0  0  0  0  0  0  0
  1  2  1  0  0  0  0
  1  6  1  0  0  0  0
  2  3  2  0  0  0  0
  3  4  1  0  0  0  0
  4  5  2  0  0  0  0
  4 10  1  0  0  0  0
  5  6  1  0  0  0  0
  5  8  1  0  0  0  0
  6  7  2  0  0  0  0
  8  9  1  0  0  0  0
  9 10  2  0  0  0  0
M  END
>  <CHROM.1>
53.84641451,-13.85420912,7.27251487,-2.88120721,1.30890364,-0.88944772

>  <Name>
ligand

>  <RI>
0

>  <Rbt.Current_Directory>
/home/itssahil/PROJECTS/Mol_Feturizer/New_Systems/rnas/2EEV

>  <Rbt.Executable>
rbdock ($Id: //depot/dev/client3/rdock/2013.1/src/exe/rbdock.cxx#4 $)

>  <Rbt.Library>
libRbt.so (2013.1, Build901 2013/11/27)

>  <Rbt.Parameter_File>
/export/apps/rDock/src/rDock_2013.1_src/data/scripts/dock_solv.prm

>  <Rbt.Receptor>
prm/pocket_docking_3.prm

>  <SCORE>
-19.6385

>  <SCORE.INTER>
-19.6385

>  <SCORE.INTER.CONST>
1

>  <SCORE.INTER.POLAR>
0

>  <SCORE.INTER.ROT>
0

>  <SCORE.INTER.SOLV>
4.20364

>  <SCORE.INTER.VDW>
-18.0936

>  <SCORE.INTER.norm>
-1.96385

>  <SCORE.INTRA>
0

>  <SCORE.INTRA.DIHEDRAL>
0

>  <SCORE.INTRA.DIHEDRAL.0>
0

>  <SCORE.INTRA.POLAR>
0

>  <SCORE.INTRA.POLAR.0>
0

>  <SCORE.INTRA.REPUL>
0

>  <SCORE.INTRA.REPUL.0>
0

>  <SCORE.INTRA.SOLV>
0

>  <SCORE.INTRA.SOLV.lig_0>
-4.25352

>  <SCORE.INTRA.VDW>
0

>  <SCORE.INTRA.VDW.0>
0

>  <SCORE.INTRA.norm>
0

>  <SCORE.RESTR>
0

>  <SCORE.RESTR.CAVITY>
0

>  <SCORE.RESTR.norm>
0

>  <SCORE.SYSTEM>
0

>  <SCORE.SYSTEM.CONST>
0

>  <SCORE.SYSTEM.DIHEDRAL>
0

>  <SCORE.SYSTEM.SOLV>
0

>  <SCORE.SYSTEM.norm>
0

>  <SCORE.heavy>
10

>  <SCORE.norm>
-1.96385

>  <RMSD>
0.344

$$$$
ligand
 OpenBabel11021811423D
libRbt.so/2013.1/901 2013/11/27
 10 11  0  0  0  0  0  0  0  0999 V2000
   53.4917  -13.4029    8.9925 N   0  0  0  0  0  0  0  0  0  0  0  0
   53.7063  -14.7306    9.2296 C   0  0  0  0  0  0  0  0  0  0  0  0
   54.0173  -15.5963    8.2299 N   0  0  0  0  0  0  0  0  0  0  0  0
   54.0941  -14.9941    7.0081 C   0  0  0  0  0  0  0  0  0  0  0  0
   53.8905  -13.6657    6.7170 C   0  0  0  0  0  0  0  0  0  0  0  0
   53.5630  -12.7701    7.7391 C   0  0  0  0  0  0  0  0  0  0  0  0
   53.3450  -11.5781    7.6794 O   0  0  0  0  0  0  0  0  0  0  0  0
   54.0659  -13.4816    5.3721 N   0  0  0  0  0  0  0  0  0  0  0  0
   54.3687  -14.6688    4.8574 C   0  0  0  0  0  0  0  0  0  0  0  0
   54.3961  -15.6435    5.8372 N   0  0  0  0  0  0  0  0  0  0  0  0
  1  2  1  0  0  0  0
  1  6  1  0  0  0  0
  2  3  2  0  0  0  0
  3  4  1  0  0  0  0
  4  5  2  0  0  0  0
  4 10  1  0  0  0  0
  5  6  1  0  0  0  0
  5  8  1  0  0  0  0
  6  7  2  0  0  0  0
  8  9  1  0  0  0  0
  9 10  2  0  0  0  0
M  END
>  <CHROM.1>
53.88326325,-14.00731298,7.17820040,-2.84954836,1.33182228,-0.88404912

>  <Name>
ligand

>  <RI>
0

>  <Rbt.Current_Directory>
/home/itssahil/PROJECTS/Mol_Feturizer/New_Systems/rnas/2EEV

>  <Rbt.Executable>
rbdock ($Id: //depot/dev/client3/rdock/2013.1/src/exe/rbdock.cxx#4 $)

>  <Rbt.Library>
libRbt.so (2013.1, Build901 2013/11/27)

>  <Rbt.Parameter_File>
/export/apps/rDock/src/rDock_2013.1_src/data/scripts/dock_solv.prm

>  <Rbt.Receptor>
prm/pocket_docking_4.prm

>  <SCORE>
-19.7196

>  <SCORE.INTER>
-19.7196

>  <SCORE.INTER.CONST>
1

>  <SCORE.INTER.POLAR>
0

>  <SCORE.INTER.ROT>
0

>  <SCORE.INTER.SOLV>
4.24379

>  <SCORE.INTER.VDW>
-18.161

>  <SCORE.INTER.norm>
-1.97196

>  <SCORE.INTRA>
0

>  <SCORE.INTRA.DIHEDRAL>
0

>  <SCORE.INTRA.DIHEDRAL.0>
0

>  <SCORE.INTRA.POLAR>
0

>  <SCORE.INTRA.POLAR.0>
0

>  <SCORE.INTRA.REPUL>
0

>  <SCORE.INTRA.REPUL.0>
0

>  <SCORE.INTRA.SOLV>
0

>  <SCORE.INTRA.SOLV.lig_0>
-4.25352

>  <SCORE.INTRA.VDW>
0

>  <SCORE.INTRA.VDW.0>
0

>  <SCORE.INTRA.norm>
0

>  <SCORE.RESTR>
0

>  <SCORE.RESTR.CAVITY>
0

>  <SCORE.RESTR.norm>
0

>  <SCORE.SYSTEM>
0

>  <SCORE.SYSTEM.CONST>
0

>  <SCORE.SYSTEM.DIHEDRAL>
0

>  <SCORE.SYSTEM.SOLV>
0

>  <SCORE.SYSTEM.norm>
0

>  <SCORE.heavy>
10

>  <SCORE.norm>
-1.97196

>  <RMSD>
0.344

$$$$
ligand
 OpenBabel11021811423D
libRbt.so/2013.1/901 2013/11/27
 10 11  0  0  0  0  0  0  0  0999 V2000
   53.5232  -13.3898    8.9917 N   0  0  0  0  0  0  0  0  0  0  0  0
   53.7518  -14.7163    9.2231 C   0  0  0  0  0  0  0  0  0  0  0  0
   54.0570  -15.5772    8.2175 N   0  0  0  0  0  0  0  0  0  0  0  0
   54.1130  -14.9717    6.9962 C   0  0  0  0  0  0  0  0  0  0  0  0
   53.8946  -13.6445    6.7107 C   0  0  0  0  0  0  0  0  0  0  0  0
   53.5730  -12.7539    7.7389 C   0  0  0  0  0  0  0  0  0  0  0  0
   53.3444  -11.5636    7.6848 O   0  0  0  0  0  0  0  0  0  0  0  0
   54.0511  -13.4561    5.3640 N   0  0  0  0  0  0  0  0  0  0  0  0
   54.3570  -14.6396    4.8428 C   0  0  0  0  0  0  0  0  0  0  0  0
   54.4053  -15.6162    5.8200 N   0  0  0  0  0  0  0  0  0  0  0  0
  1  2  1  0  0  0  0
  1  6  1  0  0  0  0
  2  3  2  0  0  0  0
  3  4  1  0  0  0  0
  4  5  2  0  0  0  0
  4 10  1  0  0  0  0
  5  6  1  0  0  0  0
  5  8  1  0  0  0  0
  6  7  2  0  0  0  0
  8  9  1  0  0  0  0
  9 10  2  0  0  0  0
M  END
>  <CHROM.1>
53.89623017,-13.98713518,7.17117576,-2.78466979,1.33313508,-0.94491435

>  <Name>
ligand

>  <RI>
0

>  <Rbt.Current_Directory>
/home/itssahil/PROJECTS/Mol_Feturizer/New_Systems/rnas/2EEV

>  <Rbt.Executable>
rbdock ($Id: //depot/dev/client3/rdock/2013.1/src/exe/rbdock.cxx#4 $)

>  <Rbt.Library>
libRbt.so (2013.1, Build901 2013/11/27)

>  <Rbt.Parameter_File>
/export/apps/rDock/src/rDock_2013.1_src/data/scripts/dock_solv.prm

>  <Rbt.Receptor>
prm/pocket_docking_8.prm

>  <SCORE>
-19.7213

>  <SCORE.INTER>
-19.7213

>  <SCORE.INTER.CONST>
1

>  <SCORE.INTER.POLAR>
0

>  <SCORE.INTER.ROT>
0

>  <SCORE.INTER.SOLV>
4.21606

>  <SCORE.INTER.VDW>
-18.1529

>  <SCORE.INTER.norm>
-1.97213

>  <SCORE.INTRA>
0

>  <SCORE.INTRA.DIHEDRAL>
0

>  <SCORE.INTRA.DIHEDRAL.0>
0

>  <SCORE.INTRA.POLAR>
0

>  <SCORE.INTRA.POLAR.0>
0

>  <SCORE.INTRA.REPUL>
0

>  <SCORE.INTRA.REPUL.0>
0

>  <SCORE.INTRA.SOLV>
0

>  <SCORE.INTRA.SOLV.lig_0>
-4.25352

>  <SCORE.INTRA.VDW>
0

>  <SCORE.INTRA.VDW.0>
0

>  <SCORE.INTRA.norm>
0

>  <SCORE.RESTR>
0

>  <SCORE.RESTR.CAVITY>
0

>  <SCORE.RESTR.norm>
0

>  <SCORE.SYSTEM>
0

>  <SCORE.SYSTEM.CONST>
0

>  <SCORE.SYSTEM.DIHEDRAL>
0

>  <SCORE.SYSTEM.SOLV>
0

>  <SCORE.SYSTEM.norm>
0

>  <SCORE.heavy>
10

>  <SCORE.norm>
-1.97213

>  <RMSD>
0.344

$$$$
ligand
 OpenBabel11021811423D
libRbt.so/2013.1/901 2013/11/27
 10 11  0  0  0  0  0  0  0  0999 V2000
   53.5174  -13.3901    8.9861 N   0  0  0  0  0  0  0  0  0  0  0  0
   53.7510  -14.7150    9.2215 C   0  0  0  0  0  0  0  0  0  0  0  0
   54.0617  -15.5773    8.2187 N   0  0  0  0  0  0  0  0  0  0  0  0
   54.1174  -14.9749    6.9959 C   0  0  0  0  0  0  0  0  0  0  0  0
   53.8940  -13.6493    6.7065 C   0  0  0  0  0  0  0  0  0  0  0  0
   53.5668  -12.7573    7.7317 C   0  0  0  0  0  0  0  0  0  0  0  0
   53.3333  -11.5681    7.6740 O   0  0  0  0  0  0  0  0  0  0  0  0
   54.0522  -13.4638    5.3596 N   0  0  0  0  0  0  0  0  0  0  0  0
   54.3639  -14.6474    4.8421 C   0  0  0  0  0  0  0  0  0  0  0  0
   54.4144  -15.6212    5.8220 N   0  0  0  0  0  0  0  0  0  0  0  0
  1  2  1  0  0  0  0
  1  6  1  0  0  0  0
  2  3  2  0  0  0  0
  3  4  1  0  0  0  0
  4  5  2  0  0  0  0
  4 10  1  0  0  0  0
  5  6  1  0  0  0  0
  5  8  1  0  0  0  0
  6  7  2  0  0  0  0
  8  9  1  0  0  0  0
  9 10  2  0  0  0  0
M  END
>  <CHROM.1>
53.89618507,-13.99071367,7.16789493,-2.78070921,1.32869957,-0.95141751

>  <Name>
ligand

>  <RI>
0

>  <Rbt.Current_Directory>
/home/itssahil/PROJECTS/Mol_Feturizer/New_Systems/rnas/2EEV

>  <Rbt.Executable>
rbdock ($Id: //depot/dev/client3/rdock/2013.1/src/exe/rbdock.cxx#4 $)

>  <Rbt.Library>
libRbt.so (2013.1, Build901 2013/11/27)

>  <Rbt.Parameter_File>
/export/apps/rDock/src/rDock_2013.1_src/data/scripts/dock_solv.prm

>  <Rbt.Receptor>
prm/blind_docking_80.prm

>  <SCORE>
-19.7237

>  <SCORE.INTER>
-19.7237

>  <SCORE.INTER.CONST>
1

>  <SCORE.INTER.POLAR>
0

>  <SCORE.INTER.ROT>
0

>  <SCORE.INTER.SOLV>
4.20387

>  <SCORE.INTER.VDW>
-18.1504

>  <SCORE.INTER.norm>
-1.97237

>  <SCORE.INTRA>
0

>  <SCORE.INTRA.DIHEDRAL>
0

>  <SCORE.INTRA.DIHEDRAL.0>
0

>  <SCORE.INTRA.POLAR>
0

>  <SCORE.INTRA.POLAR.0>
0

>  <SCORE.INTRA.REPUL>
0

>  <SCORE.INTRA.REPUL.0>
0

>  <SCORE.INTRA.SOLV>
0

>  <SCORE.INTRA.SOLV.lig_0>
-4.25352

>  <SCORE.INTRA.VDW>
0

>  <SCORE.INTRA.VDW.0>
0

>  <SCORE.INTRA.norm>
0

>  <SCORE.RESTR>
0

>  <SCORE.RESTR.CAVITY>
0

>  <SCORE.RESTR.norm>
0

>  <SCORE.SYSTEM>
0

>  <SCORE.SYSTEM.CONST>
0

>  <SCORE.SYSTEM.DIHEDRAL>
0

>  <SCORE.SYSTEM.SOLV>
0

>  <SCORE.SYSTEM.norm>
0

>  <SCORE.heavy>
10

>  <SCORE.norm>
-1.97237

>  <RMSD>
0.345

$$$$
ligand
 OpenBabel11021811423D
libRbt.so/2013.1/901 2013/11/27
 10 11  0  0  0  0  0  0  0  0999 V2000
   53.5235  -13.4019    8.9899 N   0  0  0  0  0  0  0  0  0  0  0  0
   53.7497  -14.7289    9.2202 C   0  0  0  0  0  0  0  0  0  0  0  0
   54.0553  -15.5892    8.2141 N   0  0  0  0  0  0  0  0  0  0  0  0
   54.1143  -14.9824    6.9936 C   0  0  0  0  0  0  0  0  0  0  0  0
   53.8984  -13.6545    6.7093 C   0  0  0  0  0  0  0  0  0  0  0  0
   53.5764  -12.7646    7.7380 C   0  0  0  0  0  0  0  0  0  0  0  0
   53.3498  -11.5738    7.6848 O   0  0  0  0  0  0  0  0  0  0  0  0
   54.0575  -13.4647    5.3631 N   0  0  0  0  0  0  0  0  0  0  0  0
   54.3625  -14.6481    4.8410 C   0  0  0  0  0  0  0  0  0  0  0  0
   54.4075  -15.6259    5.8171 N   0  0  0  0  0  0  0  0  0  0  0  0
  1  2  1  0  0  0  0
  1  6  1  0  0  0  0
  2  3  2  0  0  0  0
  3  4  1  0  0  0  0
  4  5  2  0  0  0  0
  4 10  1  0  0  0  0
  5  6  1  0  0  0  0
  5  8  1  0  0  0  0
  6  7  2  0  0  0  0
  8  9  1  0  0  0  0
  9 10  2  0  0  0  0
M  END
>  <CHROM.1>
53.89873219,-13.99766351,7.16935298,-2.79441974,1.33338328,-0.93427831

>  <Name>
ligand

>  <RI>
0

>  <Rbt.Current_Directory>
/home/itssahil/PROJECTS/Mol_Feturizer/New_Systems/rnas/2EEV

>  <Rbt.Executable>
rbdock ($Id: //depot/dev/client3/rdock/2013.1/src/exe/rbdock.cxx#4 $)

>  <Rbt.Library>
libRbt.so (2013.1, Build901 2013/11/27)

>  <Rbt.Parameter_File>
/export/apps/rDock/src/rDock_2013.1_src/data/scripts/dock_solv.prm

>  <Rbt.Receptor>
prm/pocket_docking_4.prm

>  <SCORE>
-19.7219

>  <SCORE.INTER>
-19.7219

>  <SCORE.INTER.CONST>
1

>  <SCORE.INTER.POLAR>
0

>  <SCORE.INTER.ROT>
0

>  <SCORE.INTER.SOLV>
4.21918

>  <SCORE.INTER.VDW>
-18.1543

>  <SCORE.INTER.norm>
-1.97219

>  <SCORE.INTRA>
0

>  <SCORE.INTRA.DIHEDRAL>
0

>  <SCORE.INTRA.DIHEDRAL.0>
0

>  <SCORE.INTRA.POLAR>
0

>  <SCORE.INTRA.POLAR.0>
0

>  <SCORE.INTRA.REPUL>
0

>  <SCORE.INTRA.REPUL.0>
0

>  <SCORE.INTRA.SOLV>
0

>  <SCORE.INTRA.SOLV.lig_0>
-4.25352

>  <SCORE.INTRA.VDW>
0

>  <SCORE.INTRA.VDW.0>
0

>  <SCORE.INTRA.norm>
0

>  <SCORE.RESTR>
0

>  <SCORE.RESTR.CAVITY>
0

>  <SCORE.RESTR.norm>
0

>  <SCORE.SYSTEM>
0

>  <SCORE.SYSTEM.CONST>
0

>  <SCORE.SYSTEM.DIHEDRAL>
0

>  <SCORE.SYSTEM.SOLV>
0

>  <SCORE.SYSTEM.norm>
0

>  <SCORE.heavy>
10

>  <SCORE.norm>
-1.97219

>  <RMSD>
0.345

$$$$
ligand
 OpenBabel11021811423D
libRbt.so/2013.1/901 2013/11/27
 10 11  0  0  0  0  0  0  0  0999 V2000
   53.5237  -13.3923    8.9888 N   0  0  0  0  0  0  0  0  0  0  0  0
   53.7503  -14.7182    9.2247 C   0  0  0  0  0  0  0  0  0  0  0  0
   54.0567  -15.5826    8.2223 N   0  0  0  0  0  0  0  0  0  0  0  0
   54.1159  -14.9809    6.9993 C   0  0  0  0  0  0  0  0  0  0  0  0
   53.8996  -13.6542    6.7094 C   0  0  0  0  0  0  0  0  0  0  0  0
   53.5768  -12.7601    7.7342 C   0  0  0  0  0  0  0  0  0  0  0  0
   53.3496  -11.5698    7.6760 O   0  0  0  0  0  0  0  0  0  0  0  0
   54.0591  -13.4701    5.3625 N   0  0  0  0  0  0  0  0  0  0  0  0
   54.3648  -14.6555    4.8455 C   0  0  0  0  0  0  0  0  0  0  0  0
   54.4099  -15.6292    5.8257 N   0  0  0  0  0  0  0  0  0  0  0  0
  1  2  1  0  0  0  0
  1  6  1  0  0  0  0
  2  3  2  0  0  0  0
  3  4  1  0  0  0  0
  4  5  2  0  0  0  0
  4 10  1  0  0  0  0
  5  6  1  0  0  0  0
  5  8  1  0  0  0  0
  6  7  2  0  0  0  0
  8  9  1  0  0  0  0
  9 10  2  0  0  0  0
M  END
>  <CHROM.1>
53.89984441,-13.99548645,7.17088366,-2.79470657,1.33279925,-0.93818417

>  <Name>
ligand

>  <RI>
0

>  <Rbt.Current_Directory>
/home/itssahil/PROJECTS/Mol_Feturizer/New_Systems/rnas/2EEV

>  <Rbt.Executable>
rbdock ($Id: //depot/dev/client3/rdock/2013.1/src/exe/rbdock.cxx#4 $)

>  <Rbt.Library>
libRbt.so (2013.1, Build901 2013/11/27)

>  <Rbt.Parameter_File>
/export/apps/rDock/src/rDock_2013.1_src/data/scripts/dock_solv.prm

>  <Rbt.Receptor>
prm/pocket_docking_6.prm

>  <SCORE>
-19.7209

>  <SCORE.INTER>
-19.7209

>  <SCORE.INTER.CONST>
1

>  <SCORE.INTER.POLAR>
0

>  <SCORE.INTER.ROT>
0

>  <SCORE.INTER.SOLV>
4.21753

>  <SCORE.INTER.VDW>
-18.1531

>  <SCORE.INTER.norm>
-1.97209

>  <SCORE.INTRA>
0

>  <SCORE.INTRA.DIHEDRAL>
0

>  <SCORE.INTRA.DIHEDRAL.0>
0

>  <SCORE.INTRA.POLAR>
0

>  <SCORE.INTRA.POLAR.0>
0

>  <SCORE.INTRA.REPUL>
0

>  <SCORE.INTRA.REPUL.0>
0

>  <SCORE.INTRA.SOLV>
0

>  <SCORE.INTRA.SOLV.lig_0>
-4.25352

>  <SCORE.INTRA.VDW>
0

>  <SCORE.INTRA.VDW.0>
0

>  <SCORE.INTRA.norm>
0

>  <SCORE.RESTR>
0

>  <SCORE.RESTR.CAVITY>
0

>  <SCORE.RESTR.norm>
0

>  <SCORE.SYSTEM>
0

>  <SCORE.SYSTEM.CONST>
0

>  <SCORE.SYSTEM.DIHEDRAL>
0

>  <SCORE.SYSTEM.SOLV>
0

>  <SCORE.SYSTEM.norm>
0

>  <SCORE.heavy>
10

>  <SCORE.norm>
-1.97209

>  <RMSD>
0.345

$$$$
ligand
 OpenBabel11021811423D
libRbt.so/2013.1/901 2013/11/27
 10 11  0  0  0  0  0  0  0  0999 V2000
   53.5196  -13.4153    8.9921 N   0  0  0  0  0  0  0  0  0  0  0  0
   53.7392  -14.7445    9.2163 C   0  0  0  0  0  0  0  0  0  0  0  0
   54.0460  -15.6006    8.2070 N   0  0  0  0  0  0  0  0  0  0  0  0
   54.1132  -14.9875    6.9901 C   0  0  0  0  0  0  0  0  0  0  0  0
   53.9041  -13.6572    6.7119 C   0  0  0  0  0  0  0  0  0  0  0  0
   53.5809  -12.7715    7.7439 C   0  0  0  0  0  0  0  0  0  0  0  0
   53.3594  -11.5795    7.6961 O   0  0  0  0  0  0  0  0  0  0  0  0
   54.0702  -13.4609    5.3675 N   0  0  0  0  0  0  0  0  0  0  0  0
   54.3727  -14.6427    4.8405 C   0  0  0  0  0  0  0  0  0  0  0  0
   54.4092  -15.6259    5.8115 N   0  0  0  0  0  0  0  0  0  0  0  0
  1  2  1  0  0  0  0
  1  6  1  0  0  0  0
  2  3  2  0  0  0  0
  3  4  1  0  0  0  0
  4  5  2  0  0  0  0
  4 10  1  0  0  0  0
  5  6  1  0  0  0  0
  5  8  1  0  0  0  0
  6  7  2  0  0  0  0
  8  9  1  0  0  0  0
  9 10  2  0  0  0  0
M  END
>  <CHROM.1>
53.90081385,-14.00281086,7.17013415,-2.82072968,1.33383910,-0.90332759

>  <Name>
ligand

>  <RI>
0

>  <Rbt.Current_Directory>
/home/itssahil/PROJECTS/Mol_Feturizer/New_Systems/rnas/2EEV

>  <Rbt.Executable>
rbdock ($Id: //depot/dev/client3/rdock/2013.1/src/exe/rbdock.cxx#4 $)

>  <Rbt.Library>
libRbt.so (2013.1, Build901 2013/11/27)

>  <Rbt.Parameter_File>
/export/apps/rDock/src/rDock_2013.1_src/data/scripts/dock_solv.prm

>  <Rbt.Receptor>
prm/pocket_docking_7.prm

>  <SCORE>
-19.6885

>  <SCORE.INTER>
-19.6885

>  <SCORE.INTER.CONST>
1

>  <SCORE.INTER.POLAR>
0

>  <SCORE.INTER.ROT>
0

>  <SCORE.INTER.SOLV>
4.22665

>  <SCORE.INTER.VDW>
-18.1345

>  <SCORE.INTER.norm>
-1.96885

>  <SCORE.INTRA>
0

>  <SCORE.INTRA.DIHEDRAL>
0

>  <SCORE.INTRA.DIHEDRAL.0>
0

>  <SCORE.INTRA.POLAR>
0

>  <SCORE.INTRA.POLAR.0>
0

>  <SCORE.INTRA.REPUL>
0

>  <SCORE.INTRA.REPUL.0>
0

>  <SCORE.INTRA.SOLV>
0

>  <SCORE.INTRA.SOLV.lig_0>
-4.25352

>  <SCORE.INTRA.VDW>
0

>  <SCORE.INTRA.VDW.0>
0

>  <SCORE.INTRA.norm>
0

>  <SCORE.RESTR>
0

>  <SCORE.RESTR.CAVITY>
0

>  <SCORE.RESTR.norm>
0

>  <SCORE.SYSTEM>
0

>  <SCORE.SYSTEM.CONST>
0

>  <SCORE.SYSTEM.DIHEDRAL>
0

>  <SCORE.SYSTEM.SOLV>
0

>  <SCORE.SYSTEM.norm>
0

>  <SCORE.heavy>
10

>  <SCORE.norm>
-1.96885

>  <RMSD>
0.345

$$$$
ligand
 OpenBabel11021811423D
libRbt.so/2013.1/901 2013/11/27
 10 11  0  0  0  0  0  0  0  0999 V2000
   53.4950  -13.4044    8.9917 N   0  0  0  0  0  0  0  0  0  0  0  0
   53.7087  -14.7325    9.2277 C   0  0  0  0  0  0  0  0  0  0  0  0
   54.0188  -15.5975    8.2270 N   0  0  0  0  0  0  0  0  0  0  0  0
   54.0955  -14.9943    7.0057 C   0  0  0  0  0  0  0  0  0  0  0  0
   53.8926  -13.6655    6.7159 C   0  0  0  0  0  0  0  0  0  0  0  0
   53.5662  -12.7706    7.7388 C   0  0  0  0  0  0  0  0  0  0  0  0
   53.3489  -11.5784    7.6803 O   0  0  0  0  0  0  0  0  0  0  0  0
   54.0676  -13.4804    5.3711 N   0  0  0  0  0  0  0  0  0  0  0  0
   54.3694  -14.6673    4.8552 C   0  0  0  0  0  0  0  0  0  0  0  0
   54.3966  -15.6429    5.8341 N   0  0  0  0  0  0  0  0  0  0  0  0
  1  2  1  0  0  0  0
  1  6  1  0  0  0  0
  2  3  2  0  0  0  0
  3  4  1  0  0  0  0
  4  5  2  0  0  0  0
  4 10  1  0  0  0  0
  5  6  1  0  0  0  0
  5  8  1  0  0  0  0
  6  7  2  0  0  0  0
  8  9  1  0  0  0  0
  9 10  2  0  0  0  0
M  END
>  <CHROM.1>
53.88536912,-14.00753326,7.17677678,-2.84999785,1.33260102,-0.88274473

>  <Name>
ligand

>  <RI>
0

>  <Rbt.Current_Directory>
/home/itssahil/PROJECTS/Mol_Feturizer/New_Systems/rnas/2EEV

>  <Rbt.Executable>
rbdock ($Id: //depot/dev/client3/rdock/2013.1/src/exe/rbdock.cxx#4 $)

>  <Rbt.Library>
libRbt.so (2013.1, Build901 2013/11/27)

>  <Rbt.Parameter_File>
/export/apps/rDock/src/rDock_2013.1_src/data/scripts/dock_solv.prm

>  <Rbt.Receptor>
prm/pocket_docking_8.prm

>  <SCORE>
-19.719

>  <SCORE.INTER>
-19.719

>  <SCORE.INTER.CONST>
1

>  <SCORE.INTER.POLAR>
0

>  <SCORE.INTER.ROT>
0

>  <SCORE.INTER.SOLV>
4.24413

>  <SCORE.INTER.VDW>
-18.1607

>  <SCORE.INTER.norm>
-1.9719

>  <SCORE.INTRA>
0

>  <SCORE.INTRA.DIHEDRAL>
0

>  <SCORE.INTRA.DIHEDRAL.0>
0

>  <SCORE.INTRA.POLAR>
0

>  <SCORE.INTRA.POLAR.0>
0

>  <SCORE.INTRA.REPUL>
0

>  <SCORE.INTRA.REPUL.0>
0

>  <SCORE.INTRA.SOLV>
0

>  <SCORE.INTRA.SOLV.lig_0>
-4.25352

>  <SCORE.INTRA.VDW>
0

>  <SCORE.INTRA.VDW.0>
0

>  <SCORE.INTRA.norm>
0

>  <SCORE.RESTR>
0

>  <SCORE.RESTR.CAVITY>
0

>  <SCORE.RESTR.norm>
0

>  <SCORE.SYSTEM>
0

>  <SCORE.SYSTEM.CONST>
0

>  <SCORE.SYSTEM.DIHEDRAL>
0

>  <SCORE.SYSTEM.SOLV>
0

>  <SCORE.SYSTEM.norm>
0

>  <SCORE.heavy>
10

>  <SCORE.norm>
-1.9719

>  <RMSD>
0.345

$$$$
ligand
 OpenBabel11021811423D
libRbt.so/2013.1/901 2013/11/27
 10 11  0  0  0  0  0  0  0  0999 V2000
   53.5091  -13.3264    8.9896 N   0  0  0  0  0  0  0  0  0  0  0  0
   53.7446  -14.6467    9.2479 C   0  0  0  0  0  0  0  0  0  0  0  0
   54.0555  -15.5261    8.2602 N   0  0  0  0  0  0  0  0  0  0  0  0
   54.1095  -14.9451    7.0269 C   0  0  0  0  0  0  0  0  0  0  0  0
   53.8842  -13.6251    6.7146 C   0  0  0  0  0  0  0  0  0  0  0  0
   53.5568  -12.7156    7.7243 C   0  0  0  0  0  0  0  0  0  0  0  0
   53.3218  -11.5279    7.6459 O   0  0  0  0  0  0  0  0  0  0  0  0
   54.0411  -13.4630    5.3645 N   0  0  0  0  0  0  0  0  0  0  0  0
   54.3539  -14.6551    4.8675 C   0  0  0  0  0  0  0  0  0  0  0  0
   54.4064  -15.6115    5.8643 N   0  0  0  0  0  0  0  0  0  0  0  0
  1  2  1  0  0  0  0
  1  6  1  0  0  0  0
  2  3  2  0  0  0  0
  3  4  1  0  0  0  0
  4  5  2  0  0  0  0
  4 10  1  0  0  0  0
  5  6  1  0  0  0  0
  5  8  1  0  0  0  0
  6  7  2  0  0  0  0
  8  9  1  0  0  0  0
  9 10  2  0  0  0  0
M  END
>  <CHROM.1>
53.88720836,-13.95833251,7.18184914,-2.77501525,1.32815648,-0.97447198

>  <Name>
ligand

>  <RI>
0

>  <Rbt.Current_Directory>
/home/itssahil/PROJECTS/Mol_Feturizer/New_Systems/rnas/2EEV

>  <Rbt.Executable>
rbdock ($Id: //depot/dev/client3/rdock/2013.1/src/exe/rbdock.cxx#4 $)

>  <Rbt.Library>
libRbt.so (2013.1, Build901 2013/11/27)

>  <Rbt.Parameter_File>
/export/apps/rDock/src/rDock_2013.1_src/data/scripts/dock_solv.prm

>  <Rbt.Receptor>
prm/blind_docking_60.prm

>  <SCORE>
-19.6784

>  <SCORE.INTER>
-19.6784

>  <SCORE.INTER.CONST>
1

>  <SCORE.INTER.POLAR>
0

>  <SCORE.INTER.ROT>
0

>  <SCORE.INTER.SOLV>
4.20324

>  <SCORE.INTER.VDW>
-18.12

>  <SCORE.INTER.norm>
-1.96784

>  <SCORE.INTRA>
0

>  <SCORE.INTRA.DIHEDRAL>
0

>  <SCORE.INTRA.DIHEDRAL.0>
0

>  <SCORE.INTRA.POLAR>
0

>  <SCORE.INTRA.POLAR.0>
0

>  <SCORE.INTRA.REPUL>
0

>  <SCORE.INTRA.REPUL.0>
0

>  <SCORE.INTRA.SOLV>
0

>  <SCORE.INTRA.SOLV.lig_0>
-4.25352

>  <SCORE.INTRA.VDW>
0

>  <SCORE.INTRA.VDW.0>
0

>  <SCORE.INTRA.norm>
0

>  <SCORE.RESTR>
0

>  <SCORE.RESTR.CAVITY>
0

>  <SCORE.RESTR.norm>
0

>  <SCORE.SYSTEM>
0

>  <SCORE.SYSTEM.CONST>
0

>  <SCORE.SYSTEM.DIHEDRAL>
0

>  <SCORE.SYSTEM.SOLV>
0

>  <SCORE.SYSTEM.norm>
0

>  <SCORE.heavy>
10

>  <SCORE.norm>
-1.96784

>  <RMSD>
0.346

$$$$
ligand
 OpenBabel11021811423D
libRbt.so/2013.1/901 2013/11/27
 10 11  0  0  0  0  0  0  0  0999 V2000
   53.5253  -13.4095    8.9899 N   0  0  0  0  0  0  0  0  0  0  0  0
   53.7477  -14.7376    9.2175 C   0  0  0  0  0  0  0  0  0  0  0  0
   54.0529  -15.5964    8.2100 N   0  0  0  0  0  0  0  0  0  0  0  0
   54.1157  -14.9869    6.9910 C   0  0  0  0  0  0  0  0  0  0  0  0
   53.9036  -13.6578    6.7094 C   0  0  0  0  0  0  0  0  0  0  0  0
   53.5820  -12.7694    7.7395 C   0  0  0  0  0  0  0  0  0  0  0  0
   53.3585  -11.5780    7.6887 O   0  0  0  0  0  0  0  0  0  0  0  0
   54.0656  -13.4654    5.3639 N   0  0  0  0  0  0  0  0  0  0  0  0
   54.3685  -14.6484    4.8397 C   0  0  0  0  0  0  0  0  0  0  0  0
   54.4093  -15.6285    5.8136 N   0  0  0  0  0  0  0  0  0  0  0  0
  1  2  1  0  0  0  0
  1  6  1  0  0  0  0
  2  3  2  0  0  0  0
  3  4  1  0  0  0  0
  4  5  2  0  0  0  0
  4 10  1  0  0  0  0
  5  6  1  0  0  0  0
  5  8  1  0  0  0  0
  6  7  2  0  0  0  0
  8  9  1  0  0  0  0
  9 10  2  0  0  0  0
M  END
>  <CHROM.1>
53.90223354,-14.00205807,7.16864723,-2.80689073,1.33433153,-0.91987644

>  <Name>
ligand

>  <RI>
0

>  <Rbt.Current_Directory>
/home/itssahil/PROJECTS/Mol_Feturizer/New_Systems/rnas/2EEV

>  <Rbt.Executable>
rbdock ($Id: //depot/dev/client3/rdock/2013.1/src/exe/rbdock.cxx#4 $)

>  <Rbt.Library>
libRbt.so (2013.1, Build901 2013/11/27)

>  <Rbt.Parameter_File>
/export/apps/rDock/src/rDock_2013.1_src/data/scripts/dock_solv.prm

>  <Rbt.Receptor>
prm/pocket_docking_3.prm

>  <SCORE>
-19.718

>  <SCORE.INTER>
-19.718

>  <SCORE.INTER.CONST>
1

>  <SCORE.INTER.POLAR>
0

>  <SCORE.INTER.ROT>
0

>  <SCORE.INTER.SOLV>
4.22353

>  <SCORE.INTER.VDW>
-18.1531

>  <SCORE.INTER.norm>
-1.9718

>  <SCORE.INTRA>
0

>  <SCORE.INTRA.DIHEDRAL>
0

>  <SCORE.INTRA.DIHEDRAL.0>
0

>  <SCORE.INTRA.POLAR>
0

>  <SCORE.INTRA.POLAR.0>
0

>  <SCORE.INTRA.REPUL>
0

>  <SCORE.INTRA.REPUL.0>
0

>  <SCORE.INTRA.SOLV>
0

>  <SCORE.INTRA.SOLV.lig_0>
-4.25352

>  <SCORE.INTRA.VDW>
0

>  <SCORE.INTRA.VDW.0>
0

>  <SCORE.INTRA.norm>
0

>  <SCORE.RESTR>
0

>  <SCORE.RESTR.CAVITY>
0

>  <SCORE.RESTR.norm>
0

>  <SCORE.SYSTEM>
0

>  <SCORE.SYSTEM.CONST>
0

>  <SCORE.SYSTEM.DIHEDRAL>
0

>  <SCORE.SYSTEM.SOLV>
0

>  <SCORE.SYSTEM.norm>
0

>  <SCORE.heavy>
10

>  <SCORE.norm>
-1.9718

>  <RMSD>
0.346

$$$$
ligand
 OpenBabel11021811423D
libRbt.so/2013.1/901 2013/11/27
 10 11  0  0  0  0  0  0  0  0999 V2000
   53.5090  -13.3925    8.9883 N   0  0  0  0  0  0  0  0  0  0  0  0
   53.7314  -14.7197    9.2211 C   0  0  0  0  0  0  0  0  0  0  0  0
   54.0419  -15.5814    8.2177 N   0  0  0  0  0  0  0  0  0  0  0  0
   54.1096  -14.9758    6.9971 C   0  0  0  0  0  0  0  0  0  0  0  0
   53.8978  -13.6478    6.7103 C   0  0  0  0  0  0  0  0  0  0  0  0
   53.5708  -12.7564    7.7361 C   0  0  0  0  0  0  0  0  0  0  0  0
   53.3465  -11.5653    7.6805 O   0  0  0  0  0  0  0  0  0  0  0  0
   54.0657  -13.4595    5.3649 N   0  0  0  0  0  0  0  0  0  0  0  0
   54.3719  -14.6439    4.8458 C   0  0  0  0  0  0  0  0  0  0  0  0
   54.4091  -15.6209    5.8231 N   0  0  0  0  0  0  0  0  0  0  0  0
  1  2  1  0  0  0  0
  1  6  1  0  0  0  0
  2  3  2  0  0  0  0
  3  4  1  0  0  0  0
  4  5  2  0  0  0  0
  4 10  1  0  0  0  0
  5  6  1  0  0  0  0
  5  8  1  0  0  0  0
  6  7  2  0  0  0  0
  8  9  1  0  0  0  0
  9 10  2  0  0  0  0
M  END
>  <CHROM.1>
53.89460467,-13.99052597,7.17063151,-2.81995255,1.33093540,-0.91036358

>  <Name>
ligand

>  <RI>
0

>  <Rbt.Current_Directory>
/home/itssahil/PROJECTS/Mol_Feturizer/New_Systems/rnas/2EEV

>  <Rbt.Executable>
rbdock ($Id: //depot/dev/client3/rdock/2013.1/src/exe/rbdock.cxx#4 $)

>  <Rbt.Library>
libRbt.so (2013.1, Build901 2013/11/27)

>  <Rbt.Parameter_File>
/export/apps/rDock/src/rDock_2013.1_src/data/scripts/dock_solv.prm

>  <Rbt.Receptor>
prm/pocket_docking_6.prm

>  <SCORE>
-19.6865

>  <SCORE.INTER>
-19.6865

>  <SCORE.INTER.CONST>
1

>  <SCORE.INTER.POLAR>
0

>  <SCORE.INTER.ROT>
0

>  <SCORE.INTER.SOLV>
4.22191

>  <SCORE.INTER.VDW>
-18.1316

>  <SCORE.INTER.norm>
-1.96865

>  <SCORE.INTRA>
0

>  <SCORE.INTRA.DIHEDRAL>
0

>  <SCORE.INTRA.DIHEDRAL.0>
0

>  <SCORE.INTRA.POLAR>
0

>  <SCORE.INTRA.POLAR.0>
0

>  <SCORE.INTRA.REPUL>
0

>  <SCORE.INTRA.REPUL.0>
0

>  <SCORE.INTRA.SOLV>
0

>  <SCORE.INTRA.SOLV.lig_0>
-4.25352

>  <SCORE.INTRA.VDW>
0

>  <SCORE.INTRA.VDW.0>
0

>  <SCORE.INTRA.norm>
0

>  <SCORE.RESTR>
0

>  <SCORE.RESTR.CAVITY>
0

>  <SCORE.RESTR.norm>
0

>  <SCORE.SYSTEM>
0

>  <SCORE.SYSTEM.CONST>
0

>  <SCORE.SYSTEM.DIHEDRAL>
0

>  <SCORE.SYSTEM.SOLV>
0

>  <SCORE.SYSTEM.norm>
0

>  <SCORE.heavy>
10

>  <SCORE.norm>
-1.96865

>  <RMSD>
0.346

$$$$
ligand
 OpenBabel11021811423D
libRbt.so/2013.1/901 2013/11/27
 10 11  0  0  0  0  0  0  0  0999 V2000
   53.4813  -13.3795    8.9921 N   0  0  0  0  0  0  0  0  0  0  0  0
   53.6923  -14.7068    9.2351 C   0  0  0  0  0  0  0  0  0  0  0  0
   54.0029  -15.5774    8.2395 N   0  0  0  0  0  0  0  0  0  0  0  0
   54.0833  -14.9804    7.0154 C   0  0  0  0  0  0  0  0  0  0  0  0
   53.8833  -13.6528    6.7184 C   0  0  0  0  0  0  0  0  0  0  0  0
   53.5562  -12.7522    7.7362 C   0  0  0  0  0  0  0  0  0  0  0  0
   53.3412  -11.5599    7.6713 O   0  0  0  0  0  0  0  0  0  0  0  0
   54.0615  -13.4746    5.3731 N   0  0  0  0  0  0  0  0  0  0  0  0
   54.3623  -14.6647    4.8638 C   0  0  0  0  0  0  0  0  0  0  0  0
   54.3858  -15.6354    5.8477 N   0  0  0  0  0  0  0  0  0  0  0  0
  1  2  1  0  0  0  0
  1  6  1  0  0  0  0
  2  3  2  0  0  0  0
  3  4  1  0  0  0  0
  4  5  2  0  0  0  0
  4 10  1  0  0  0  0
  5  6  1  0  0  0  0
  5  8  1  0  0  0  0
  6  7  2  0  0  0  0
  8  9  1  0  0  0  0
  9 10  2  0  0  0  0
M  END
>  <CHROM.1>
53.87450270,-13.99244211,7.18101684,-2.86161330,1.33256738,-0.87647198

>  <Name>
ligand

>  <RI>
0

>  <Rbt.Current_Directory>
/home/itssahil/PROJECTS/Mol_Feturizer/New_Systems/rnas/2EEV

>  <Rbt.Executable>
rbdock ($Id: //depot/dev/client3/rdock/2013.1/src/exe/rbdock.cxx#4 $)

>  <Rbt.Library>
libRbt.so (2013.1, Build901 2013/11/27)

>  <Rbt.Parameter_File>
/export/apps/rDock/src/rDock_2013.1_src/data/scripts/dock_solv.prm

>  <Rbt.Receptor>
prm/blind_docking_100.prm

>  <SCORE>
-19.7108

>  <SCORE.INTER>
-19.7108

>  <SCORE.INTER.CONST>
1

>  <SCORE.INTER.POLAR>
0

>  <SCORE.INTER.ROT>
0

>  <SCORE.INTER.SOLV>
4.25507

>  <SCORE.INTER.VDW>
-18.1589

>  <SCORE.INTER.norm>
-1.97108

>  <SCORE.INTRA>
0

>  <SCORE.INTRA.DIHEDRAL>
0

>  <SCORE.INTRA.DIHEDRAL.0>
0

>  <SCORE.INTRA.POLAR>
0

>  <SCORE.INTRA.POLAR.0>
0

>  <SCORE.INTRA.REPUL>
0

>  <SCORE.INTRA.REPUL.0>
0

>  <SCORE.INTRA.SOLV>
0

>  <SCORE.INTRA.SOLV.lig_0>
-4.25352

>  <SCORE.INTRA.VDW>
0

>  <SCORE.INTRA.VDW.0>
0

>  <SCORE.INTRA.norm>
0

>  <SCORE.RESTR>
0

>  <SCORE.RESTR.CAVITY>
0

>  <SCORE.RESTR.norm>
0

>  <SCORE.SYSTEM>
0

>  <SCORE.SYSTEM.CONST>
0

>  <SCORE.SYSTEM.DIHEDRAL>
0

>  <SCORE.SYSTEM.SOLV>
0

>  <SCORE.SYSTEM.norm>
0

>  <SCORE.heavy>
10

>  <SCORE.norm>
-1.97108

>  <RMSD>
0.347

$$$$
ligand
 OpenBabel11021811423D
libRbt.so/2013.1/901 2013/11/27
 10 11  0  0  0  0  0  0  0  0999 V2000
   53.4871  -13.3278    8.9973 N   0  0  0  0  0  0  0  0  0  0  0  0
   53.6983  -14.6507    9.2626 C   0  0  0  0  0  0  0  0  0  0  0  0
   54.0041  -15.5388    8.2811 N   0  0  0  0  0  0  0  0  0  0  0  0
   54.0796  -14.9634    7.0464 C   0  0  0  0  0  0  0  0  0  0  0  0
   53.8792  -13.6410    6.7271 C   0  0  0  0  0  0  0  0  0  0  0  0
   53.5570  -12.7225    7.7304 C   0  0  0  0  0  0  0  0  0  0  0  0
   53.3425  -11.5314    7.6455 O   0  0  0  0  0  0  0  0  0  0  0  0
   54.0517  -13.4866    5.3781 N   0  0  0  0  0  0  0  0  0  0  0  0
   54.3495  -14.6855    4.8884 C   0  0  0  0  0  0  0  0  0  0  0  0
   54.3766  -15.6389    5.8890 N   0  0  0  0  0  0  0  0  0  0  0  0
  1  2  1  0  0  0  0
  1  6  1  0  0  0  0
  2  3  2  0  0  0  0
  3  4  1  0  0  0  0
  4  5  2  0  0  0  0
  4 10  1  0  0  0  0
  5  6  1  0  0  0  0
  5  8  1  0  0  0  0
  6  7  2  0  0  0  0
  8  9  1  0  0  0  0
  9 10  2  0  0  0  0
M  END
>  <CHROM.1>
53.87214124,-13.97252917,7.19558845,-2.84911006,1.33578328,-0.90611574

>  <Name>
ligand

>  <RI>
0

>  <Rbt.Current_Directory>
/home/itssahil/PROJECTS/Mol_Feturizer/New_Systems/rnas/2EEV

>  <Rbt.Executable>
rbdock ($Id: //depot/dev/client3/rdock/2013.1/src/exe/rbdock.cxx#4 $)

>  <Rbt.Library>
libRbt.so (2013.1, Build901 2013/11/27)

>  <Rbt.Parameter_File>
/export/apps/rDock/src/rDock_2013.1_src/data/scripts/dock_solv.prm

>  <Rbt.Receptor>
prm/blind_docking_100.prm

>  <SCORE>
-19.6766

>  <SCORE.INTER>
-19.6766

>  <SCORE.INTER.CONST>
1

>  <SCORE.INTER.POLAR>
0

>  <SCORE.INTER.ROT>
0

>  <SCORE.INTER.SOLV>
4.25777

>  <SCORE.INTER.VDW>
-18.137

>  <SCORE.INTER.norm>
-1.96766

>  <SCORE.INTRA>
0

>  <SCORE.INTRA.DIHEDRAL>
0

>  <SCORE.INTRA.DIHEDRAL.0>
0

>  <SCORE.INTRA.POLAR>
0

>  <SCORE.INTRA.POLAR.0>
0

>  <SCORE.INTRA.REPUL>
0

>  <SCORE.INTRA.REPUL.0>
0

>  <SCORE.INTRA.SOLV>
0

>  <SCORE.INTRA.SOLV.lig_0>
-4.25352

>  <SCORE.INTRA.VDW>
0

>  <SCORE.INTRA.VDW.0>
0

>  <SCORE.INTRA.norm>
0

>  <SCORE.RESTR>
0

>  <SCORE.RESTR.CAVITY>
0

>  <SCORE.RESTR.norm>
0

>  <SCORE.SYSTEM>
0

>  <SCORE.SYSTEM.CONST>
0

>  <SCORE.SYSTEM.DIHEDRAL>
0

>  <SCORE.SYSTEM.SOLV>
0

>  <SCORE.SYSTEM.norm>
0

>  <SCORE.heavy>
10

>  <SCORE.norm>
-1.96766

>  <RMSD>
0.347

$$$$
ligand
 OpenBabel11021811423D
libRbt.so/2013.1/901 2013/11/27
 10 11  0  0  0  0  0  0  0  0999 V2000
   53.5216  -13.3927    8.9862 N   0  0  0  0  0  0  0  0  0  0  0  0
   53.7502  -14.7186    9.2205 C   0  0  0  0  0  0  0  0  0  0  0  0
   54.0573  -15.5813    8.2169 N   0  0  0  0  0  0  0  0  0  0  0  0
   54.1152  -14.9781    6.9946 C   0  0  0  0  0  0  0  0  0  0  0  0
   53.8969  -13.6514    6.7063 C   0  0  0  0  0  0  0  0  0  0  0  0
   53.5733  -12.7590    7.7323 C   0  0  0  0  0  0  0  0  0  0  0  0
   53.3444  -11.5689    7.6756 O   0  0  0  0  0  0  0  0  0  0  0  0
   54.0556  -13.4654    5.3596 N   0  0  0  0  0  0  0  0  0  0  0  0
   54.3627  -14.6498    4.8410 C   0  0  0  0  0  0  0  0  0  0  0  0
   54.4096  -15.6246    5.8201 N   0  0  0  0  0  0  0  0  0  0  0  0
  1  2  1  0  0  0  0
  1  6  1  0  0  0  0
  2  3  2  0  0  0  0
  3  4  1  0  0  0  0
  4  5  2  0  0  0  0
  4 10  1  0  0  0  0
  5  6  1  0  0  0  0
  5  8  1  0  0  0  0
  6  7  2  0  0  0  0
  8  9  1  0  0  0  0
  9 10  2  0  0  0  0
M  END
>  <CHROM.1>
53.89782019,-13.99321243,7.16742830,-2.78968929,1.33190493,-0.94187551

>  <Name>
ligand

>  <RI>
0

>  <Rbt.Current_Directory>
/home/itssahil/PROJECTS/Mol_Feturizer/New_Systems/rnas/2EEV

>  <Rbt.Executable>
rbdock ($Id: //depot/dev/client3/rdock/2013.1/src/exe/rbdock.cxx#4 $)

>  <Rbt.Library>
libRbt.so (2013.1, Build901 2013/11/27)

>  <Rbt.Parameter_File>
/export/apps/rDock/src/rDock_2013.1_src/data/scripts/dock_solv.prm

>  <Rbt.Receptor>
prm/pocket_docking_5.prm

>  <SCORE>
-19.7229

>  <SCORE.INTER>
-19.7229

>  <SCORE.INTER.CONST>
1

>  <SCORE.INTER.POLAR>
0

>  <SCORE.INTER.ROT>
0

>  <SCORE.INTER.SOLV>
4.21418

>  <SCORE.INTER.VDW>
-18.1533

>  <SCORE.INTER.norm>
-1.97229

>  <SCORE.INTRA>
0

>  <SCORE.INTRA.DIHEDRAL>
0

>  <SCORE.INTRA.DIHEDRAL.0>
0

>  <SCORE.INTRA.POLAR>
0

>  <SCORE.INTRA.POLAR.0>
0

>  <SCORE.INTRA.REPUL>
0

>  <SCORE.INTRA.REPUL.0>
0

>  <SCORE.INTRA.SOLV>
0

>  <SCORE.INTRA.SOLV.lig_0>
-4.25352

>  <SCORE.INTRA.VDW>
0

>  <SCORE.INTRA.VDW.0>
0

>  <SCORE.INTRA.norm>
0

>  <SCORE.RESTR>
0

>  <SCORE.RESTR.CAVITY>
0

>  <SCORE.RESTR.norm>
0

>  <SCORE.SYSTEM>
0

>  <SCORE.SYSTEM.CONST>
0

>  <SCORE.SYSTEM.DIHEDRAL>
0

>  <SCORE.SYSTEM.SOLV>
0

>  <SCORE.SYSTEM.norm>
0

>  <SCORE.heavy>
10

>  <SCORE.norm>
-1.97229

>  <RMSD>
0.347

$$$$
ligand
 OpenBabel11021811423D
libRbt.so/2013.1/901 2013/11/27
 10 11  0  0  0  0  0  0  0  0999 V2000
   53.5242  -13.3943    8.9882 N   0  0  0  0  0  0  0  0  0  0  0  0
   53.7492  -14.7212    9.2205 C   0  0  0  0  0  0  0  0  0  0  0  0
   54.0544  -15.5832    8.2158 N   0  0  0  0  0  0  0  0  0  0  0  0
   54.1143  -14.9783    6.9944 C   0  0  0  0  0  0  0  0  0  0  0  0
   53.8995  -13.6507    6.7080 C   0  0  0  0  0  0  0  0  0  0  0  0
   53.5780  -12.7589    7.7352 C   0  0  0  0  0  0  0  0  0  0  0  0
   53.3523  -11.5681    7.6802 O   0  0  0  0  0  0  0  0  0  0  0  0
   54.0592  -13.4631    5.3616 N   0  0  0  0  0  0  0  0  0  0  0  0
   54.3633  -14.6476    4.8414 C   0  0  0  0  0  0  0  0  0  0  0  0
   54.4073  -15.6239    5.8190 N   0  0  0  0  0  0  0  0  0  0  0  0
  1  2  1  0  0  0  0
  1  6  1  0  0  0  0
  2  3  2  0  0  0  0
  3  4  1  0  0  0  0
  4  5  2  0  0  0  0
  4 10  1  0  0  0  0
  5  6  1  0  0  0  0
  5  8  1  0  0  0  0
  6  7  2  0  0  0  0
  8  9  1  0  0  0  0
  9 10  2  0  0  0  0
M  END
>  <CHROM.1>
53.89943735,-13.99315662,7.16862354,-2.79739778,1.33386272,-0.93291729

>  <Name>
ligand

>  <RI>
0

>  <Rbt.Current_Directory>
/home/itssahil/PROJECTS/Mol_Feturizer/New_Systems/rnas/2EEV

>  <Rbt.Executable>
rbdock ($Id: //depot/dev/client3/rdock/2013.1/src/exe/rbdock.cxx#4 $)

>  <Rbt.Library>
libRbt.so (2013.1, Build901 2013/11/27)

>  <Rbt.Parameter_File>
/export/apps/rDock/src/rDock_2013.1_src/data/scripts/dock_solv.prm

>  <Rbt.Receptor>
prm/pocket_docking_6.prm

>  <SCORE>
-19.7209

>  <SCORE.INTER>
-19.7209

>  <SCORE.INTER.CONST>
1

>  <SCORE.INTER.POLAR>
0

>  <SCORE.INTER.ROT>
0

>  <SCORE.INTER.SOLV>
4.22051

>  <SCORE.INTER.VDW>
-18.1541

>  <SCORE.INTER.norm>
-1.97209

>  <SCORE.INTRA>
0

>  <SCORE.INTRA.DIHEDRAL>
0

>  <SCORE.INTRA.DIHEDRAL.0>
0

>  <SCORE.INTRA.POLAR>
0

>  <SCORE.INTRA.POLAR.0>
0

>  <SCORE.INTRA.REPUL>
0

>  <SCORE.INTRA.REPUL.0>
0

>  <SCORE.INTRA.SOLV>
0

>  <SCORE.INTRA.SOLV.lig_0>
-4.25352

>  <SCORE.INTRA.VDW>
0

>  <SCORE.INTRA.VDW.0>
0

>  <SCORE.INTRA.norm>
0

>  <SCORE.RESTR>
0

>  <SCORE.RESTR.CAVITY>
0

>  <SCORE.RESTR.norm>
0

>  <SCORE.SYSTEM>
0

>  <SCORE.SYSTEM.CONST>
0

>  <SCORE.SYSTEM.DIHEDRAL>
0

>  <SCORE.SYSTEM.SOLV>
0

>  <SCORE.SYSTEM.norm>
0

>  <SCORE.heavy>
10

>  <SCORE.norm>
-1.97209

>  <RMSD>
0.347

$$$$
ligand
 OpenBabel11021811423D
libRbt.so/2013.1/901 2013/11/27
 10 11  0  0  0  0  0  0  0  0999 V2000
   53.4615  -13.2707    9.0062 N   0  0  0  0  0  0  0  0  0  0  0  0
   53.6690  -14.5896    9.2939 C   0  0  0  0  0  0  0  0  0  0  0  0
   53.9852  -15.4926    8.3294 N   0  0  0  0  0  0  0  0  0  0  0  0
   54.0746  -14.9360    7.0870 C   0  0  0  0  0  0  0  0  0  0  0  0
   53.8784  -13.6186    6.7455 C   0  0  0  0  0  0  0  0  0  0  0  0
   53.5457  -12.6849    7.7310 C   0  0  0  0  0  0  0  0  0  0  0  0
   53.3327  -11.4951    7.6257 O   0  0  0  0  0  0  0  0  0  0  0  0
   54.0659  -13.4847    5.3962 N   0  0  0  0  0  0  0  0  0  0  0  0
   54.3685  -14.6911    4.9282 C   0  0  0  0  0  0  0  0  0  0  0  0
   54.3840  -15.6292    5.9434 N   0  0  0  0  0  0  0  0  0  0  0  0
  1  2  1  0  0  0  0
  1  6  1  0  0  0  0
  2  3  2  0  0  0  0
  3  4  1  0  0  0  0
  4  5  2  0  0  0  0
  4 10  1  0  0  0  0
  5  6  1  0  0  0  0
  5  8  1  0  0  0  0
  6  7  2  0  0  0  0
  8  9  1  0  0  0  0
  9 10  2  0  0  0  0
M  END
>  <CHROM.1>
53.86604194,-13.94296026,7.21882848,-2.88679841,1.32922941,-0.88469678

>  <Name>
ligand

>  <RI>
0

>  <Rbt.Current_Directory>
/home/itssahil/PROJECTS/Mol_Feturizer/New_Systems/rnas/2EEV

>  <Rbt.Executable>
rbdock ($Id: //depot/dev/client3/rdock/2013.1/src/exe/rbdock.cxx#4 $)

>  <Rbt.Library>
libRbt.so (2013.1, Build901 2013/11/27)

>  <Rbt.Parameter_File>
/export/apps/rDock/src/rDock_2013.1_src/data/scripts/dock_solv.prm

>  <Rbt.Receptor>
prm/blind_docking_100.prm

>  <SCORE>
-19.6632

>  <SCORE.INTER>
-19.6632

>  <SCORE.INTER.CONST>
1

>  <SCORE.INTER.POLAR>
0

>  <SCORE.INTER.ROT>
0

>  <SCORE.INTER.SOLV>
4.25235

>  <SCORE.INTER.VDW>
-18.1263

>  <SCORE.INTER.norm>
-1.96632

>  <SCORE.INTRA>
0

>  <SCORE.INTRA.DIHEDRAL>
0

>  <SCORE.INTRA.DIHEDRAL.0>
0

>  <SCORE.INTRA.POLAR>
0

>  <SCORE.INTRA.POLAR.0>
0

>  <SCORE.INTRA.REPUL>
0

>  <SCORE.INTRA.REPUL.0>
0

>  <SCORE.INTRA.SOLV>
0

>  <SCORE.INTRA.SOLV.lig_0>
-4.25352

>  <SCORE.INTRA.VDW>
0

>  <SCORE.INTRA.VDW.0>
0

>  <SCORE.INTRA.norm>
0

>  <SCORE.RESTR>
0

>  <SCORE.RESTR.CAVITY>
0

>  <SCORE.RESTR.norm>
0

>  <SCORE.SYSTEM>
0

>  <SCORE.SYSTEM.CONST>
0

>  <SCORE.SYSTEM.DIHEDRAL>
0

>  <SCORE.SYSTEM.SOLV>
0

>  <SCORE.SYSTEM.norm>
0

>  <SCORE.heavy>
10

>  <SCORE.norm>
-1.96632

>  <RMSD>
0.348

$$$$
ligand
 OpenBabel11021811423D
libRbt.so/2013.1/901 2013/11/27
 10 11  0  0  0  0  0  0  0  0999 V2000
   53.4624  -13.3008    9.0024 N   0  0  0  0  0  0  0  0  0  0  0  0
   53.6732  -14.6220    9.2770 C   0  0  0  0  0  0  0  0  0  0  0  0
   53.9853  -15.5157    8.3026 N   0  0  0  0  0  0  0  0  0  0  0  0
   54.0673  -14.9478    7.0649 C   0  0  0  0  0  0  0  0  0  0  0  0
   53.8675  -13.6276    6.7364 C   0  0  0  0  0  0  0  0  0  0  0  0
   53.5389  -12.7033    7.7321 C   0  0  0  0  0  0  0  0  0  0  0  0
   53.3238  -11.5129    7.6388 O   0  0  0  0  0  0  0  0  0  0  0  0
   54.0475  -13.4813    5.3874 N   0  0  0  0  0  0  0  0  0  0  0  0
   54.3491  -14.6830    4.9068 C   0  0  0  0  0  0  0  0  0  0  0  0
   54.3714  -15.6302    5.9133 N   0  0  0  0  0  0  0  0  0  0  0  0
  1  2  1  0  0  0  0
  1  6  1  0  0  0  0
  2  3  2  0  0  0  0
  3  4  1  0  0  0  0
  4  5  2  0  0  0  0
  4 10  1  0  0  0  0
  5  6  1  0  0  0  0
  5  8  1  0  0  0  0
  6  7  2  0  0  0  0
  8  9  1  0  0  0  0
  9 10  2  0  0  0  0
M  END
>  <CHROM.1>
53.85809699,-13.95626743,7.20683728,-2.86560443,1.33158876,-0.89621613

>  <Name>
ligand

>  <RI>
0

>  <Rbt.Current_Directory>
/home/itssahil/PROJECTS/Mol_Feturizer/New_Systems/rnas/2EEV

>  <Rbt.Executable>
rbdock ($Id: //depot/dev/client3/rdock/2013.1/src/exe/rbdock.cxx#4 $)

>  <Rbt.Library>
libRbt.so (2013.1, Build901 2013/11/27)

>  <Rbt.Parameter_File>
/export/apps/rDock/src/rDock_2013.1_src/data/scripts/dock_solv.prm

>  <Rbt.Receptor>
prm/pocket_docking_3.prm

>  <SCORE>
-19.6822

>  <SCORE.INTER>
-19.6822

>  <SCORE.INTER.CONST>
1

>  <SCORE.INTER.POLAR>
0

>  <SCORE.INTER.ROT>
0

>  <SCORE.INTER.SOLV>
4.25961

>  <SCORE.INTER.VDW>
-18.1414

>  <SCORE.INTER.norm>
-1.96822

>  <SCORE.INTRA>
0

>  <SCORE.INTRA.DIHEDRAL>
0

>  <SCORE.INTRA.DIHEDRAL.0>
0

>  <SCORE.INTRA.POLAR>
0

>  <SCORE.INTRA.POLAR.0>
0

>  <SCORE.INTRA.REPUL>
0

>  <SCORE.INTRA.REPUL.0>
0

>  <SCORE.INTRA.SOLV>
0

>  <SCORE.INTRA.SOLV.lig_0>
-4.25352

>  <SCORE.INTRA.VDW>
0

>  <SCORE.INTRA.VDW.0>
0

>  <SCORE.INTRA.norm>
0

>  <SCORE.RESTR>
0

>  <SCORE.RESTR.CAVITY>
0

>  <SCORE.RESTR.norm>
0

>  <SCORE.SYSTEM>
0

>  <SCORE.SYSTEM.CONST>
0

>  <SCORE.SYSTEM.DIHEDRAL>
0

>  <SCORE.SYSTEM.SOLV>
0

>  <SCORE.SYSTEM.norm>
0

>  <SCORE.heavy>
10

>  <SCORE.norm>
-1.96822

>  <RMSD>
0.348

$$$$
ligand
 OpenBabel11021811423D
libRbt.so/2013.1/901 2013/11/27
 10 11  0  0  0  0  0  0  0  0999 V2000
   53.5395  -13.3767    8.9874 N   0  0  0  0  0  0  0  0  0  0  0  0
   53.7642  -14.7025    9.2259 C   0  0  0  0  0  0  0  0  0  0  0  0
   54.0651  -15.5700    8.2246 N   0  0  0  0  0  0  0  0  0  0  0  0
   54.1212  -14.9716    6.9999 C   0  0  0  0  0  0  0  0  0  0  0  0
   53.9066  -13.6452    6.7073 C   0  0  0  0  0  0  0  0  0  0  0  0
   53.5894  -12.7479    7.7310 C   0  0  0  0  0  0  0  0  0  0  0  0
   53.3646  -11.5572    7.6706 O   0  0  0  0  0  0  0  0  0  0  0  0
   54.0616  -13.4649    5.3594 N   0  0  0  0  0  0  0  0  0  0  0  0
   54.3629  -14.6523    4.8443 C   0  0  0  0  0  0  0  0  0  0  0  0
   54.4095  -15.6235    5.8268 N   0  0  0  0  0  0  0  0  0  0  0  0
  1  2  1  0  0  0  0
  1  6  1  0  0  0  0
  2  3  2  0  0  0  0
  3  4  1  0  0  0  0
  4  5  2  0  0  0  0
  4 10  1  0  0  0  0
  5  6  1  0  0  0  0
  5  8  1  0  0  0  0
  6  7  2  0  0  0  0
  8  9  1  0  0  0  0
  9 10  2  0  0  0  0
M  END
>  <CHROM.1>
53.90779474,-13.98532493,7.16968202,-2.78740353,1.33665189,-0.94784210

>  <Name>
ligand

>  <RI>
0

>  <Rbt.Current_Directory>
/home/itssahil/PROJECTS/Mol_Feturizer/New_Systems/rnas/2EEV

>  <Rbt.Executable>
rbdock ($Id: //depot/dev/client3/rdock/2013.1/src/exe/rbdock.cxx#4 $)

>  <Rbt.Library>
libRbt.so (2013.1, Build901 2013/11/27)

>  <Rbt.Parameter_File>
/export/apps/rDock/src/rDock_2013.1_src/data/scripts/dock_solv.prm

>  <Rbt.Receptor>
prm/pocket_docking_4.prm

>  <SCORE>
-19.7474

>  <SCORE.INTER>
-19.7474

>  <SCORE.INTER.CONST>
1

>  <SCORE.INTER.POLAR>
0

>  <SCORE.INTER.ROT>
0

>  <SCORE.INTER.SOLV>
4.22056

>  <SCORE.INTER.VDW>
-18.1718

>  <SCORE.INTER.norm>
-1.97474

>  <SCORE.INTRA>
0

>  <SCORE.INTRA.DIHEDRAL>
0

>  <SCORE.INTRA.DIHEDRAL.0>
0

>  <SCORE.INTRA.POLAR>
0

>  <SCORE.INTRA.POLAR.0>
0

>  <SCORE.INTRA.REPUL>
0

>  <SCORE.INTRA.REPUL.0>
0

>  <SCORE.INTRA.SOLV>
0

>  <SCORE.INTRA.SOLV.lig_0>
-4.25352

>  <SCORE.INTRA.VDW>
0

>  <SCORE.INTRA.VDW.0>
0

>  <SCORE.INTRA.norm>
0

>  <SCORE.RESTR>
0

>  <SCORE.RESTR.CAVITY>
0

>  <SCORE.RESTR.norm>
0

>  <SCORE.SYSTEM>
0

>  <SCORE.SYSTEM.CONST>
0

>  <SCORE.SYSTEM.DIHEDRAL>
0

>  <SCORE.SYSTEM.SOLV>
0

>  <SCORE.SYSTEM.norm>
0

>  <SCORE.heavy>
10

>  <SCORE.norm>
-1.97474

>  <RMSD>
0.348

$$$$
ligand
 OpenBabel11021811423D
libRbt.so/2013.1/901 2013/11/27
 10 11  0  0  0  0  0  0  0  0999 V2000
   53.4390  -13.2517    9.0171 N   0  0  0  0  0  0  0  0  0  0  0  0
   53.6578  -14.5686    9.3055 C   0  0  0  0  0  0  0  0  0  0  0  0
   53.9783  -15.4700    8.3409 N   0  0  0  0  0  0  0  0  0  0  0  0
   54.0596  -14.9140    7.0977 C   0  0  0  0  0  0  0  0  0  0  0  0
   53.8519  -13.5985    6.7555 C   0  0  0  0  0  0  0  0  0  0  0  0
   53.5147  -12.6665    7.7411 C   0  0  0  0  0  0  0  0  0  0  0  0
   53.2920  -11.4785    7.6353 O   0  0  0  0  0  0  0  0  0  0  0  0
   54.0343  -13.4645    5.4056 N   0  0  0  0  0  0  0  0  0  0  0  0
   54.3451  -14.6689    4.9378 C   0  0  0  0  0  0  0  0  0  0  0  0
   54.3711  -15.6058    5.9538 N   0  0  0  0  0  0  0  0  0  0  0  0
  1  2  1  0  0  0  0
  1  6  1  0  0  0  0
  2  3  2  0  0  0  0
  3  4  1  0  0  0  0
  4  5  2  0  0  0  0
  4 10  1  0  0  0  0
  5  6  1  0  0  0  0
  5  8  1  0  0  0  0
  6  7  2  0  0  0  0
  8  9  1  0  0  0  0
  9 10  2  0  0  0  0
M  END
>  <CHROM.1>
53.84351230,-13.92248256,7.22918672,-2.85674353,1.32486146,-0.91483250

>  <Name>
ligand

>  <RI>
0

>  <Rbt.Current_Directory>
/home/itssahil/PROJECTS/Mol_Feturizer/New_Systems/rnas/2EEV

>  <Rbt.Executable>
rbdock ($Id: //depot/dev/client3/rdock/2013.1/src/exe/rbdock.cxx#4 $)

>  <Rbt.Library>
libRbt.so (2013.1, Build901 2013/11/27)

>  <Rbt.Parameter_File>
/export/apps/rDock/src/rDock_2013.1_src/data/scripts/dock_solv.prm

>  <Rbt.Receptor>
prm/pocket_docking_5.prm

>  <SCORE>
-19.6521

>  <SCORE.INTER>
-19.6521

>  <SCORE.INTER.CONST>
1

>  <SCORE.INTER.POLAR>
0

>  <SCORE.INTER.ROT>
0

>  <SCORE.INTER.SOLV>
4.24568

>  <SCORE.INTER.VDW>
-18.1166

>  <SCORE.INTER.norm>
-1.96521

>  <SCORE.INTRA>
0

>  <SCORE.INTRA.DIHEDRAL>
0

>  <SCORE.INTRA.DIHEDRAL.0>
0

>  <SCORE.INTRA.POLAR>
0

>  <SCORE.INTRA.POLAR.0>
0

>  <SCORE.INTRA.REPUL>
0

>  <SCORE.INTRA.REPUL.0>
0

>  <SCORE.INTRA.SOLV>
0

>  <SCORE.INTRA.SOLV.lig_0>
-4.25352

>  <SCORE.INTRA.VDW>
0

>  <SCORE.INTRA.VDW.0>
0

>  <SCORE.INTRA.norm>
0

>  <SCORE.RESTR>
0

>  <SCORE.RESTR.CAVITY>
0

>  <SCORE.RESTR.norm>
0

>  <SCORE.SYSTEM>
0

>  <SCORE.SYSTEM.CONST>
0

>  <SCORE.SYSTEM.DIHEDRAL>
0

>  <SCORE.SYSTEM.SOLV>
0

>  <SCORE.SYSTEM.norm>
0

>  <SCORE.heavy>
10

>  <SCORE.norm>
-1.96521

>  <RMSD>
0.348

$$$$
ligand
 OpenBabel11021811423D
libRbt.so/2013.1/901 2013/11/27
 10 11  0  0  0  0  0  0  0  0999 V2000
   53.5033  -13.3872    8.9829 N   0  0  0  0  0  0  0  0  0  0  0  0
   53.7322  -14.7120    9.2227 C   0  0  0  0  0  0  0  0  0  0  0  0
   54.0454  -15.5777    8.2235 N   0  0  0  0  0  0  0  0  0  0  0  0
   54.1086  -14.9784    6.9995 C   0  0  0  0  0  0  0  0  0  0  0  0
   53.8901  -13.6530    6.7058 C   0  0  0  0  0  0  0  0  0  0  0  0
   53.5604  -12.7576    7.7272 C   0  0  0  0  0  0  0  0  0  0  0  0
   53.3305  -11.5679    7.6655 O   0  0  0  0  0  0  0  0  0  0  0  0
   54.0553  -13.4712    5.3592 N   0  0  0  0  0  0  0  0  0  0  0  0
   54.3663  -14.6570    4.8461 C   0  0  0  0  0  0  0  0  0  0  0  0
   54.4095  -15.6284    5.8286 N   0  0  0  0  0  0  0  0  0  0  0  0
  1  2  1  0  0  0  0
  1  6  1  0  0  0  0
  2  3  2  0  0  0  0
  3  4  1  0  0  0  0
  4  5  2  0  0  0  0
  4 10  1  0  0  0  0
  5  6  1  0  0  0  0
  5  8  1  0  0  0  0
  6  7  2  0  0  0  0
  8  9  1  0  0  0  0
  9 10  2  0  0  0  0
M  END
>  <CHROM.1>
53.88919000,-13.99324187,7.16801758,-2.80348041,1.32804557,-0.93177789

>  <Name>
ligand

>  <RI>
0

>  <Rbt.Current_Directory>
/home/itssahil/PROJECTS/Mol_Feturizer/New_Systems/rnas/2EEV

>  <Rbt.Executable>
rbdock ($Id: //depot/dev/client3/rdock/2013.1/src/exe/rbdock.cxx#4 $)

>  <Rbt.Library>
libRbt.so (2013.1, Build901 2013/11/27)

>  <Rbt.Parameter_File>
/export/apps/rDock/src/rDock_2013.1_src/data/scripts/dock_solv.prm

>  <Rbt.Receptor>
prm/pocket_docking_6.prm

>  <SCORE>
-19.6926

>  <SCORE.INTER>
-19.6926

>  <SCORE.INTER.CONST>
1

>  <SCORE.INTER.POLAR>
0

>  <SCORE.INTER.ROT>
0

>  <SCORE.INTER.SOLV>
4.21368

>  <SCORE.INTER.VDW>
-18.1329

>  <SCORE.INTER.norm>
-1.96926

>  <SCORE.INTRA>
0

>  <SCORE.INTRA.DIHEDRAL>
0

>  <SCORE.INTRA.DIHEDRAL.0>
0

>  <SCORE.INTRA.POLAR>
0

>  <SCORE.INTRA.POLAR.0>
0

>  <SCORE.INTRA.REPUL>
0

>  <SCORE.INTRA.REPUL.0>
0

>  <SCORE.INTRA.SOLV>
0

>  <SCORE.INTRA.SOLV.lig_0>
-4.25352

>  <SCORE.INTRA.VDW>
0

>  <SCORE.INTRA.VDW.0>
0

>  <SCORE.INTRA.norm>
0

>  <SCORE.RESTR>
0

>  <SCORE.RESTR.CAVITY>
0

>  <SCORE.RESTR.norm>
0

>  <SCORE.SYSTEM>
0

>  <SCORE.SYSTEM.CONST>
0

>  <SCORE.SYSTEM.DIHEDRAL>
0

>  <SCORE.SYSTEM.SOLV>
0

>  <SCORE.SYSTEM.norm>
0

>  <SCORE.heavy>
10

>  <SCORE.norm>
-1.96926

>  <RMSD>
0.348

$$$$
ligand
 OpenBabel11021811423D
libRbt.so/2013.1/901 2013/11/27
 10 11  0  0  0  0  0  0  0  0999 V2000
   53.4886  -13.3879    8.9942 N   0  0  0  0  0  0  0  0  0  0  0  0
   53.6973  -14.7164    9.2322 C   0  0  0  0  0  0  0  0  0  0  0  0
   54.0038  -15.5842    8.2329 N   0  0  0  0  0  0  0  0  0  0  0  0
   54.0826  -14.9832    7.0107 C   0  0  0  0  0  0  0  0  0  0  0  0
   53.8848  -13.6541    6.7187 C   0  0  0  0  0  0  0  0  0  0  0  0
   53.5620  -12.7564    7.7403 C   0  0  0  0  0  0  0  0  0  0  0  0
   53.3494  -11.5634    7.6799 O   0  0  0  0  0  0  0  0  0  0  0  0
   54.0603  -13.4718    5.3736 N   0  0  0  0  0  0  0  0  0  0  0  0
   54.3574  -14.6607    4.8595 C   0  0  0  0  0  0  0  0  0  0  0  0
   54.3810  -15.6349    5.8400 N   0  0  0  0  0  0  0  0  0  0  0  0
  1  2  1  0  0  0  0
  1  6  1  0  0  0  0
  2  3  2  0  0  0  0
  3  4  1  0  0  0  0
  4  5  2  0  0  0  0
  4 10  1  0  0  0  0
  5  6  1  0  0  0  0
  5  8  1  0  0  0  0
  6  7  2  0  0  0  0
  8  9  1  0  0  0  0
  9 10  2  0  0  0  0
M  END
>  <CHROM.1>
53.87633462,-13.99539867,7.18015272,-2.85994599,1.33567742,-0.87466592

>  <Name>
ligand

>  <RI>
0

>  <Rbt.Current_Directory>
/home/itssahil/PROJECTS/Mol_Feturizer/New_Systems/rnas/2EEV

>  <Rbt.Executable>
rbdock ($Id: //depot/dev/client3/rdock/2013.1/src/exe/rbdock.cxx#4 $)

>  <Rbt.Library>
libRbt.so (2013.1, Build901 2013/11/27)

>  <Rbt.Parameter_File>
/export/apps/rDock/src/rDock_2013.1_src/data/scripts/dock_solv.prm

>  <Rbt.Receptor>
prm/pocket_docking_8.prm

>  <SCORE>
-19.7105

>  <SCORE.INTER>
-19.7105

>  <SCORE.INTER.CONST>
1

>  <SCORE.INTER.POLAR>
0

>  <SCORE.INTER.ROT>
0

>  <SCORE.INTER.SOLV>
4.26051

>  <SCORE.INTER.VDW>
-18.1605

>  <SCORE.INTER.norm>
-1.97105

>  <SCORE.INTRA>
0

>  <SCORE.INTRA.DIHEDRAL>
0

>  <SCORE.INTRA.DIHEDRAL.0>
0

>  <SCORE.INTRA.POLAR>
0

>  <SCORE.INTRA.POLAR.0>
0

>  <SCORE.INTRA.REPUL>
0

>  <SCORE.INTRA.REPUL.0>
0

>  <SCORE.INTRA.SOLV>
0

>  <SCORE.INTRA.SOLV.lig_0>
-4.25352

>  <SCORE.INTRA.VDW>
0

>  <SCORE.INTRA.VDW.0>
0

>  <SCORE.INTRA.norm>
0

>  <SCORE.RESTR>
0

>  <SCORE.RESTR.CAVITY>
0

>  <SCORE.RESTR.norm>
0

>  <SCORE.SYSTEM>
0

>  <SCORE.SYSTEM.CONST>
0

>  <SCORE.SYSTEM.DIHEDRAL>
0

>  <SCORE.SYSTEM.SOLV>
0

>  <SCORE.SYSTEM.norm>
0

>  <SCORE.heavy>
10

>  <SCORE.norm>
-1.97105

>  <RMSD>
0.348

$$$$
ligand
 OpenBabel11021811423D
libRbt.so/2013.1/901 2013/11/27
 10 11  0  0  0  0  0  0  0  0999 V2000
   53.5403  -13.3770    8.9872 N   0  0  0  0  0  0  0  0  0  0  0  0
   53.7660  -14.7029    9.2249 C   0  0  0  0  0  0  0  0  0  0  0  0
   54.0668  -15.5697    8.2230 N   0  0  0  0  0  0  0  0  0  0  0  0
   54.1216  -14.9706    6.9985 C   0  0  0  0  0  0  0  0  0  0  0  0
   53.9060  -13.6443    6.7068 C   0  0  0  0  0  0  0  0  0  0  0  0
   53.5889  -12.7476    7.7311 C   0  0  0  0  0  0  0  0  0  0  0  0
   53.3633  -11.5570    7.6714 O   0  0  0  0  0  0  0  0  0  0  0  0
   54.0599  -13.4632    5.3588 N   0  0  0  0  0  0  0  0  0  0  0  0
   54.3616  -14.6501    4.8429 C   0  0  0  0  0  0  0  0  0  0  0  0
   54.4095  -15.6218    5.8250 N   0  0  0  0  0  0  0  0  0  0  0  0
  1  2  1  0  0  0  0
  1  6  1  0  0  0  0
  2  3  2  0  0  0  0
  3  4  1  0  0  0  0
  4  5  2  0  0  0  0
  4 10  1  0  0  0  0
  5  6  1  0  0  0  0
  5  8  1  0  0  0  0
  6  7  2  0  0  0  0
  8  9  1  0  0  0  0
  9 10  2  0  0  0  0
M  END
>  <CHROM.1>
53.90771845,-13.98459244,7.16896759,-2.78339488,1.33653443,-0.95126362

>  <Name>
ligand

>  <RI>
0

>  <Rbt.Current_Directory>
/home/itssahil/PROJECTS/Mol_Feturizer/New_Systems/rnas/2EEV

>  <Rbt.Executable>
rbdock ($Id: //depot/dev/client3/rdock/2013.1/src/exe/rbdock.cxx#4 $)

>  <Rbt.Library>
libRbt.so (2013.1, Build901 2013/11/27)

>  <Rbt.Parameter_File>
/export/apps/rDock/src/rDock_2013.1_src/data/scripts/dock_solv.prm

>  <Rbt.Receptor>
prm/blind_docking_100.prm

>  <SCORE>
-19.7474

>  <SCORE.INTER>
-19.7474

>  <SCORE.INTER.CONST>
1

>  <SCORE.INTER.POLAR>
0

>  <SCORE.INTER.ROT>
0

>  <SCORE.INTER.SOLV>
4.21918

>  <SCORE.INTER.VDW>
-18.1713

>  <SCORE.INTER.norm>
-1.97474

>  <SCORE.INTRA>
0

>  <SCORE.INTRA.DIHEDRAL>
0

>  <SCORE.INTRA.DIHEDRAL.0>
0

>  <SCORE.INTRA.POLAR>
0

>  <SCORE.INTRA.POLAR.0>
0

>  <SCORE.INTRA.REPUL>
0

>  <SCORE.INTRA.REPUL.0>
0

>  <SCORE.INTRA.SOLV>
0

>  <SCORE.INTRA.SOLV.lig_0>
-4.25352

>  <SCORE.INTRA.VDW>
0

>  <SCORE.INTRA.VDW.0>
0

>  <SCORE.INTRA.norm>
0

>  <SCORE.RESTR>
0

>  <SCORE.RESTR.CAVITY>
0

>  <SCORE.RESTR.norm>
0

>  <SCORE.SYSTEM>
0

>  <SCORE.SYSTEM.CONST>
0

>  <SCORE.SYSTEM.DIHEDRAL>
0

>  <SCORE.SYSTEM.SOLV>
0

>  <SCORE.SYSTEM.norm>
0

>  <SCORE.heavy>
10

>  <SCORE.norm>
-1.97474

>  <RMSD>
0.349

$$$$
ligand
 OpenBabel11021811423D
libRbt.so/2013.1/901 2013/11/27
 10 11  0  0  0  0  0  0  0  0999 V2000
   53.5223  -13.3917    8.9860 N   0  0  0  0  0  0  0  0  0  0  0  0
   53.7500  -14.7178    9.2200 C   0  0  0  0  0  0  0  0  0  0  0  0
   54.0537  -15.5811    8.2160 N   0  0  0  0  0  0  0  0  0  0  0  0
   54.1093  -14.9783    6.9934 C   0  0  0  0  0  0  0  0  0  0  0  0
   53.8918  -13.6515    6.7052 C   0  0  0  0  0  0  0  0  0  0  0  0
   53.5717  -12.7584    7.7318 C   0  0  0  0  0  0  0  0  0  0  0  0
   53.3441  -11.5680    7.6753 O   0  0  0  0  0  0  0  0  0  0  0  0
   54.0474  -13.4661    5.3581 N   0  0  0  0  0  0  0  0  0  0  0  0
   54.3519  -14.6510    4.8391 C   0  0  0  0  0  0  0  0  0  0  0  0
   54.4001  -15.6255    5.8183 N   0  0  0  0  0  0  0  0  0  0  0  0
  1  2  1  0  0  0  0
  1  6  1  0  0  0  0
  2  3  2  0  0  0  0
  3  4  1  0  0  0  0
  4  5  2  0  0  0  0
  4 10  1  0  0  0  0
  5  6  1  0  0  0  0
  5  8  1  0  0  0  0
  6  7  2  0  0  0  0
  8  9  1  0  0  0  0
  9 10  2  0  0  0  0
M  END
>  <CHROM.1>
53.89345126,-13.99315380,7.16643561,-2.78413819,1.33427192,-0.94755979

>  <Name>
ligand

>  <RI>
0

>  <Rbt.Current_Directory>
/home/itssahil/PROJECTS/Mol_Feturizer/New_Systems/rnas/2EEV

>  <Rbt.Executable>
rbdock ($Id: //depot/dev/client3/rdock/2013.1/src/exe/rbdock.cxx#4 $)

>  <Rbt.Library>
libRbt.so (2013.1, Build901 2013/11/27)

>  <Rbt.Parameter_File>
/export/apps/rDock/src/rDock_2013.1_src/data/scripts/dock_solv.prm

>  <Rbt.Receptor>
prm/pocket_docking_5.prm

>  <SCORE>
-19.6875

>  <SCORE.INTER>
-19.6875

>  <SCORE.INTER.CONST>
1

>  <SCORE.INTER.POLAR>
0

>  <SCORE.INTER.ROT>
0

>  <SCORE.INTER.SOLV>
4.22113

>  <SCORE.INTER.VDW>
-18.132

>  <SCORE.INTER.norm>
-1.96875

>  <SCORE.INTRA>
0

>  <SCORE.INTRA.DIHEDRAL>
0

>  <SCORE.INTRA.DIHEDRAL.0>
0

>  <SCORE.INTRA.POLAR>
0

>  <SCORE.INTRA.POLAR.0>
0

>  <SCORE.INTRA.REPUL>
0

>  <SCORE.INTRA.REPUL.0>
0

>  <SCORE.INTRA.SOLV>
0

>  <SCORE.INTRA.SOLV.lig_0>
-4.25352

>  <SCORE.INTRA.VDW>
0

>  <SCORE.INTRA.VDW.0>
0

>  <SCORE.INTRA.norm>
0

>  <SCORE.RESTR>
0

>  <SCORE.RESTR.CAVITY>
0

>  <SCORE.RESTR.norm>
0

>  <SCORE.SYSTEM>
0

>  <SCORE.SYSTEM.CONST>
0

>  <SCORE.SYSTEM.DIHEDRAL>
0

>  <SCORE.SYSTEM.SOLV>
0

>  <SCORE.SYSTEM.norm>
0

>  <SCORE.heavy>
10

>  <SCORE.norm>
-1.96875

>  <RMSD>
0.349

$$$$
ligand
 OpenBabel11021811423D
libRbt.so/2013.1/901 2013/11/27
 10 11  0  0  0  0  0  0  0  0999 V2000
   53.5166  -13.3749    8.9807 N   0  0  0  0  0  0  0  0  0  0  0  0
   53.7588  -14.6967    9.2240 C   0  0  0  0  0  0  0  0  0  0  0  0
   54.0676  -15.5647    8.2255 N   0  0  0  0  0  0  0  0  0  0  0  0
   54.1123  -14.9708    6.9981 C   0  0  0  0  0  0  0  0  0  0  0  0
   53.8800  -13.6485    6.7006 C   0  0  0  0  0  0  0  0  0  0  0  0
   53.5546  -12.7509    7.7214 C   0  0  0  0  0  0  0  0  0  0  0  0
   53.3145  -11.5634    7.6566 O   0  0  0  0  0  0  0  0  0  0  0  0
   54.0286  -13.4720    5.3514 N   0  0  0  0  0  0  0  0  0  0  0  0
   54.3434  -14.6577    4.8405 C   0  0  0  0  0  0  0  0  0  0  0  0
   54.4053  -15.6240    5.8269 N   0  0  0  0  0  0  0  0  0  0  0  0
  1  2  1  0  0  0  0
  1  6  1  0  0  0  0
  2  3  2  0  0  0  0
  3  4  1  0  0  0  0
  4  5  2  0  0  0  0
  4 10  1  0  0  0  0
  5  6  1  0  0  0  0
  5  8  1  0  0  0  0
  6  7  2  0  0  0  0
  8  9  1  0  0  0  0
  9 10  2  0  0  0  0
M  END
>  <CHROM.1>
53.88697050,-13.98659817,7.16439444,-2.74631615,1.32793791,-0.99202868

>  <Name>
ligand

>  <RI>
0

>  <Rbt.Current_Directory>
/home/itssahil/PROJECTS/Mol_Feturizer/New_Systems/rnas/2EEV

>  <Rbt.Executable>
rbdock ($Id: //depot/dev/client3/rdock/2013.1/src/exe/rbdock.cxx#4 $)

>  <Rbt.Library>
libRbt.so (2013.1, Build901 2013/11/27)

>  <Rbt.Parameter_File>
/export/apps/rDock/src/rDock_2013.1_src/data/scripts/dock_solv.prm

>  <Rbt.Receptor>
prm/pocket_docking_7.prm

>  <SCORE>
-19.6856

>  <SCORE.INTER>
-19.6856

>  <SCORE.INTER.CONST>
1

>  <SCORE.INTER.POLAR>
0

>  <SCORE.INTER.ROT>
0

>  <SCORE.INTER.SOLV>
4.19752

>  <SCORE.INTER.VDW>
-18.1229

>  <SCORE.INTER.norm>
-1.96856

>  <SCORE.INTRA>
0

>  <SCORE.INTRA.DIHEDRAL>
0

>  <SCORE.INTRA.DIHEDRAL.0>
0

>  <SCORE.INTRA.POLAR>
0

>  <SCORE.INTRA.POLAR.0>
0

>  <SCORE.INTRA.REPUL>
0

>  <SCORE.INTRA.REPUL.0>
0

>  <SCORE.INTRA.SOLV>
0

>  <SCORE.INTRA.SOLV.lig_0>
-4.25352

>  <SCORE.INTRA.VDW>
0

>  <SCORE.INTRA.VDW.0>
0

>  <SCORE.INTRA.norm>
0

>  <SCORE.RESTR>
0

>  <SCORE.RESTR.CAVITY>
0

>  <SCORE.RESTR.norm>
0

>  <SCORE.SYSTEM>
0

>  <SCORE.SYSTEM.CONST>
0

>  <SCORE.SYSTEM.DIHEDRAL>
0

>  <SCORE.SYSTEM.SOLV>
0

>  <SCORE.SYSTEM.norm>
0

>  <SCORE.heavy>
10

>  <SCORE.norm>
-1.96856

>  <RMSD>
0.349

$$$$
ligand
 OpenBabel11021811423D
libRbt.so/2013.1/901 2013/11/27
 10 11  0  0  0  0  0  0  0  0999 V2000
   53.4653  -13.3108    9.0004 N   0  0  0  0  0  0  0  0  0  0  0  0
   53.6756  -14.6326    9.2722 C   0  0  0  0  0  0  0  0  0  0  0  0
   53.9848  -15.5249    8.2955 N   0  0  0  0  0  0  0  0  0  0  0  0
   54.0645  -14.9549    7.0586 C   0  0  0  0  0  0  0  0  0  0  0  0
   53.8651  -13.6339    6.7329 C   0  0  0  0  0  0  0  0  0  0  0  0
   53.5395  -12.7111    7.7310 C   0  0  0  0  0  0  0  0  0  0  0  0
   53.3252  -11.5204    7.6402 O   0  0  0  0  0  0  0  0  0  0  0  0
   54.0423  -13.4853    5.3838 N   0  0  0  0  0  0  0  0  0  0  0  0
   54.3419  -14.6864    4.9004 C   0  0  0  0  0  0  0  0  0  0  0  0
   54.3656  -15.6355    5.9052 N   0  0  0  0  0  0  0  0  0  0  0  0
  1  2  1  0  0  0  0
  1  6  1  0  0  0  0
  2  3  2  0  0  0  0
  3  4  1  0  0  0  0
  4  5  2  0  0  0  0
  4 10  1  0  0  0  0
  5  6  1  0  0  0  0
  5  8  1  0  0  0  0
  6  7  2  0  0  0  0
  8  9  1  0  0  0  0
  9 10  2  0  0  0  0
M  END
>  <CHROM.1>
53.85652185,-13.96340358,7.20279316,-2.86053170,1.33362092,-0.89936594

>  <Name>
ligand

>  <RI>
0

>  <Rbt.Current_Directory>
/home/itssahil/PROJECTS/Mol_Feturizer/New_Systems/rnas/2EEV

>  <Rbt.Executable>
rbdock ($Id: //depot/dev/client3/rdock/2013.1/src/exe/rbdock.cxx#4 $)

>  <Rbt.Library>
libRbt.so (2013.1, Build901 2013/11/27)

>  <Rbt.Parameter_File>
/export/apps/rDock/src/rDock_2013.1_src/data/scripts/dock_solv.prm

>  <Rbt.Receptor>
prm/blind_docking_100.prm

>  <SCORE>
-19.7117

>  <SCORE.INTER>
-19.7117

>  <SCORE.INTER.CONST>
1

>  <SCORE.INTER.POLAR>
0

>  <SCORE.INTER.ROT>
0

>  <SCORE.INTER.SOLV>
4.26541

>  <SCORE.INTER.VDW>
-18.163

>  <SCORE.INTER.norm>
-1.97117

>  <SCORE.INTRA>
0

>  <SCORE.INTRA.DIHEDRAL>
0

>  <SCORE.INTRA.DIHEDRAL.0>
0

>  <SCORE.INTRA.POLAR>
0

>  <SCORE.INTRA.POLAR.0>
0

>  <SCORE.INTRA.REPUL>
0

>  <SCORE.INTRA.REPUL.0>
0

>  <SCORE.INTRA.SOLV>
0

>  <SCORE.INTRA.SOLV.lig_0>
-4.25352

>  <SCORE.INTRA.VDW>
0

>  <SCORE.INTRA.VDW.0>
0

>  <SCORE.INTRA.norm>
0

>  <SCORE.RESTR>
0

>  <SCORE.RESTR.CAVITY>
0

>  <SCORE.RESTR.norm>
0

>  <SCORE.SYSTEM>
0

>  <SCORE.SYSTEM.CONST>
0

>  <SCORE.SYSTEM.DIHEDRAL>
0

>  <SCORE.SYSTEM.SOLV>
0

>  <SCORE.SYSTEM.norm>
0

>  <SCORE.heavy>
10

>  <SCORE.norm>
-1.97117

>  <RMSD>
0.350

$$$$
ligand
 OpenBabel11021811423D
libRbt.so/2013.1/901 2013/11/27
 10 11  0  0  0  0  0  0  0  0999 V2000
   53.4841  -13.3325    8.9963 N   0  0  0  0  0  0  0  0  0  0  0  0
   53.6924  -14.6569    9.2567 C   0  0  0  0  0  0  0  0  0  0  0  0
   53.9976  -15.5417    8.2720 N   0  0  0  0  0  0  0  0  0  0  0  0
   54.0755  -14.9616    7.0396 C   0  0  0  0  0  0  0  0  0  0  0  0
   53.8779  -13.6376    6.7253 C   0  0  0  0  0  0  0  0  0  0  0  0
   53.5565  -12.7224    7.7318 C   0  0  0  0  0  0  0  0  0  0  0  0
   53.3444  -11.5306    7.6513 O   0  0  0  0  0  0  0  0  0  0  0  0
   54.0522  -13.4783    5.3771 N   0  0  0  0  0  0  0  0  0  0  0  0
   54.3483  -14.6759    4.8831 C   0  0  0  0  0  0  0  0  0  0  0  0
   54.3724  -15.6332    5.8800 N   0  0  0  0  0  0  0  0  0  0  0  0
  1  2  1  0  0  0  0
  1  6  1  0  0  0  0
  2  3  2  0  0  0  0
  3  4  1  0  0  0  0
  4  5  2  0  0  0  0
  4 10  1  0  0  0  0
  5  6  1  0  0  0  0
  5  8  1  0  0  0  0
  6  7  2  0  0  0  0
  8  9  1  0  0  0  0
  9 10  2  0  0  0  0
M  END
>  <CHROM.1>
53.86976956,-13.97094620,7.19250092,-2.85792535,1.33664057,-0.89364696

>  <Name>
ligand

>  <RI>
0

>  <Rbt.Current_Directory>
/home/itssahil/PROJECTS/Mol_Feturizer/New_Systems/rnas/2EEV

>  <Rbt.Executable>
rbdock ($Id: //depot/dev/client3/rdock/2013.1/src/exe/rbdock.cxx#4 $)

>  <Rbt.Library>
libRbt.so (2013.1, Build901 2013/11/27)

>  <Rbt.Parameter_File>
/export/apps/rDock/src/rDock_2013.1_src/data/scripts/dock_solv.prm

>  <Rbt.Receptor>
prm/blind_docking_60.prm

>  <SCORE>
-19.702

>  <SCORE.INTER>
-19.702

>  <SCORE.INTER.CONST>
1

>  <SCORE.INTER.POLAR>
0

>  <SCORE.INTER.ROT>
0

>  <SCORE.INTER.SOLV>
4.26459

>  <SCORE.INTER.VDW>
-18.1562

>  <SCORE.INTER.norm>
-1.9702

>  <SCORE.INTRA>
0

>  <SCORE.INTRA.DIHEDRAL>
0

>  <SCORE.INTRA.DIHEDRAL.0>
0

>  <SCORE.INTRA.POLAR>
0

>  <SCORE.INTRA.POLAR.0>
0

>  <SCORE.INTRA.REPUL>
0

>  <SCORE.INTRA.REPUL.0>
0

>  <SCORE.INTRA.SOLV>
0

>  <SCORE.INTRA.SOLV.lig_0>
-4.25352

>  <SCORE.INTRA.VDW>
0

>  <SCORE.INTRA.VDW.0>
0

>  <SCORE.INTRA.norm>
0

>  <SCORE.RESTR>
0

>  <SCORE.RESTR.CAVITY>
0

>  <SCORE.RESTR.norm>
0

>  <SCORE.SYSTEM>
0

>  <SCORE.SYSTEM.CONST>
0

>  <SCORE.SYSTEM.DIHEDRAL>
0

>  <SCORE.SYSTEM.SOLV>
0

>  <SCORE.SYSTEM.norm>
0

>  <SCORE.heavy>
10

>  <SCORE.norm>
-1.9702

>  <RMSD>
0.350

$$$$
ligand
 OpenBabel11021811423D
libRbt.so/2013.1/901 2013/11/27
 10 11  0  0  0  0  0  0  0  0999 V2000
   53.4324  -13.2510    9.0065 N   0  0  0  0  0  0  0  0  0  0  0  0
   53.6498  -14.5669    9.3001 C   0  0  0  0  0  0  0  0  0  0  0  0
   53.9792  -15.4706    8.3407 N   0  0  0  0  0  0  0  0  0  0  0  0
   54.0707  -14.9178    7.0968 C   0  0  0  0  0  0  0  0  0  0  0  0
   53.8649  -13.6033    6.7494 C   0  0  0  0  0  0  0  0  0  0  0  0
   53.5186  -12.6690    7.7296 C   0  0  0  0  0  0  0  0  0  0  0  0
   53.2959  -11.4815    7.6188 O   0  0  0  0  0  0  0  0  0  0  0  0
   54.0587  -13.4727    5.4007 N   0  0  0  0  0  0  0  0  0  0  0  0
   54.3745  -14.6781    4.9388 C   0  0  0  0  0  0  0  0  0  0  0  0
   54.3925  -15.6124    5.9574 N   0  0  0  0  0  0  0  0  0  0  0  0
  1  2  1  0  0  0  0
  1  6  1  0  0  0  0
  2  3  2  0  0  0  0
  3  4  1  0  0  0  0
  4  5  2  0  0  0  0
  4 10  1  0  0  0  0
  5  6  1  0  0  0  0
  5  8  1  0  0  0  0
  6  7  2  0  0  0  0
  8  9  1  0  0  0  0
  9 10  2  0  0  0  0
M  END
>  <CHROM.1>
53.85271550,-13.92609555,7.22383351,-2.88204282,1.31895021,-0.89293840

>  <Name>
ligand

>  <RI>
0

>  <Rbt.Current_Directory>
/home/itssahil/PROJECTS/Mol_Feturizer/New_Systems/rnas/2EEV

>  <Rbt.Executable>
rbdock ($Id: //depot/dev/client3/rdock/2013.1/src/exe/rbdock.cxx#4 $)

>  <Rbt.Library>
libRbt.so (2013.1, Build901 2013/11/27)

>  <Rbt.Parameter_File>
/export/apps/rDock/src/rDock_2013.1_src/data/scripts/dock_solv.prm

>  <Rbt.Receptor>
prm/pocket_docking_3.prm

>  <SCORE>
-19.6555

>  <SCORE.INTER>
-19.6555

>  <SCORE.INTER.CONST>
1

>  <SCORE.INTER.POLAR>
0

>  <SCORE.INTER.ROT>
0

>  <SCORE.INTER.SOLV>
4.2321

>  <SCORE.INTER.VDW>
-18.1143

>  <SCORE.INTER.norm>
-1.96555

>  <SCORE.INTRA>
0

>  <SCORE.INTRA.DIHEDRAL>
0

>  <SCORE.INTRA.DIHEDRAL.0>
0

>  <SCORE.INTRA.POLAR>
0

>  <SCORE.INTRA.POLAR.0>
0

>  <SCORE.INTRA.REPUL>
0

>  <SCORE.INTRA.REPUL.0>
0

>  <SCORE.INTRA.SOLV>
0

>  <SCORE.INTRA.SOLV.lig_0>
-4.25352

>  <SCORE.INTRA.VDW>
0

>  <SCORE.INTRA.VDW.0>
0

>  <SCORE.INTRA.norm>
0

>  <SCORE.RESTR>
0

>  <SCORE.RESTR.CAVITY>
0

>  <SCORE.RESTR.norm>
0

>  <SCORE.SYSTEM>
0

>  <SCORE.SYSTEM.CONST>
0

>  <SCORE.SYSTEM.DIHEDRAL>
0

>  <SCORE.SYSTEM.SOLV>
0

>  <SCORE.SYSTEM.norm>
0

>  <SCORE.heavy>
10

>  <SCORE.norm>
-1.96555

>  <RMSD>
0.350

$$$$
ligand
 OpenBabel11021811423D
libRbt.so/2013.1/901 2013/11/27
 10 11  0  0  0  0  0  0  0  0999 V2000
   53.4996  -13.3829    8.9837 N   0  0  0  0  0  0  0  0  0  0  0  0
   53.7242  -14.7089    9.2216 C   0  0  0  0  0  0  0  0  0  0  0  0
   54.0358  -15.5739    8.2214 N   0  0  0  0  0  0  0  0  0  0  0  0
   54.1022  -14.9729    6.9984 C   0  0  0  0  0  0  0  0  0  0  0  0
   53.8882  -13.6463    6.7066 C   0  0  0  0  0  0  0  0  0  0  0  0
   53.5601  -12.7515    7.7291 C   0  0  0  0  0  0  0  0  0  0  0  0
   53.3338  -11.5611    7.6690 O   0  0  0  0  0  0  0  0  0  0  0  0
   54.0554  -13.4629    5.3605 N   0  0  0  0  0  0  0  0  0  0  0  0
   54.3634  -14.6488    4.8459 C   0  0  0  0  0  0  0  0  0  0  0  0
   54.4025  -15.6219    5.8268 N   0  0  0  0  0  0  0  0  0  0  0  0
  1  2  1  0  0  0  0
  1  6  1  0  0  0  0
  2  3  2  0  0  0  0
  3  4  1  0  0  0  0
  4  5  2  0  0  0  0
  4 10  1  0  0  0  0
  5  6  1  0  0  0  0
  5  8  1  0  0  0  0
  6  7  2  0  0  0  0
  8  9  1  0  0  0  0
  9 10  2  0  0  0  0
M  END
>  <CHROM.1>
53.88568167,-13.98731111,7.16826493,-2.81493546,1.32982392,-0.91905310

>  <Name>
ligand

>  <RI>
0

>  <Rbt.Current_Directory>
/home/itssahil/PROJECTS/Mol_Feturizer/New_Systems/rnas/2EEV

>  <Rbt.Executable>
rbdock ($Id: //depot/dev/client3/rdock/2013.1/src/exe/rbdock.cxx#4 $)

>  <Rbt.Library>
libRbt.so (2013.1, Build901 2013/11/27)

>  <Rbt.Parameter_File>
/export/apps/rDock/src/rDock_2013.1_src/data/scripts/dock_solv.prm

>  <Rbt.Receptor>
prm/pocket_docking_3.prm

>  <SCORE>
-19.6921

>  <SCORE.INTER>
-19.6921

>  <SCORE.INTER.CONST>
1

>  <SCORE.INTER.POLAR>
0

>  <SCORE.INTER.ROT>
0

>  <SCORE.INTER.SOLV>
4.22363

>  <SCORE.INTER.VDW>
-18.136

>  <SCORE.INTER.norm>
-1.96921

>  <SCORE.INTRA>
0

>  <SCORE.INTRA.DIHEDRAL>
0

>  <SCORE.INTRA.DIHEDRAL.0>
0

>  <SCORE.INTRA.POLAR>
0

>  <SCORE.INTRA.POLAR.0>
0

>  <SCORE.INTRA.REPUL>
0

>  <SCORE.INTRA.REPUL.0>
0

>  <SCORE.INTRA.SOLV>
0

>  <SCORE.INTRA.SOLV.lig_0>
-4.25352

>  <SCORE.INTRA.VDW>
0

>  <SCORE.INTRA.VDW.0>
0

>  <SCORE.INTRA.norm>
0

>  <SCORE.RESTR>
0

>  <SCORE.RESTR.CAVITY>
0

>  <SCORE.RESTR.norm>
0

>  <SCORE.SYSTEM>
0

>  <SCORE.SYSTEM.CONST>
0

>  <SCORE.SYSTEM.DIHEDRAL>
0

>  <SCORE.SYSTEM.SOLV>
0

>  <SCORE.SYSTEM.norm>
0

>  <SCORE.heavy>
10

>  <SCORE.norm>
-1.96921

>  <RMSD>
0.350

$$$$
ligand
 OpenBabel11021811423D
libRbt.so/2013.1/901 2013/11/27
 10 11  0  0  0  0  0  0  0  0999 V2000
   53.5283  -13.3742    8.9820 N   0  0  0  0  0  0  0  0  0  0  0  0
   53.7575  -14.6989    9.2223 C   0  0  0  0  0  0  0  0  0  0  0  0
   54.0652  -15.5660    8.2228 N   0  0  0  0  0  0  0  0  0  0  0  0
   54.1230  -14.9684    6.9977 C   0  0  0  0  0  0  0  0  0  0  0  0
   53.9041  -13.6431    6.7034 C   0  0  0  0  0  0  0  0  0  0  0  0
   53.5799  -12.7462    7.7253 C   0  0  0  0  0  0  0  0  0  0  0  0
   53.3505  -11.5564    7.6631 O   0  0  0  0  0  0  0  0  0  0  0  0
   54.0629  -13.4632    5.3558 N   0  0  0  0  0  0  0  0  0  0  0  0
   54.3706  -14.6498    4.8427 C   0  0  0  0  0  0  0  0  0  0  0  0
   54.4178  -15.6201    5.8262 N   0  0  0  0  0  0  0  0  0  0  0  0
  1  2  1  0  0  0  0
  1  6  1  0  0  0  0
  2  3  2  0  0  0  0
  3  4  1  0  0  0  0
  4  5  2  0  0  0  0
  4 10  1  0  0  0  0
  5  6  1  0  0  0  0
  5  8  1  0  0  0  0
  6  7  2  0  0  0  0
  8  9  1  0  0  0  0
  9 10  2  0  0  0  0
M  END
>  <CHROM.1>
53.90510869,-13.98282124,7.16605669,-2.78899779,1.33145409,-0.94710696

>  <Name>
ligand

>  <RI>
0

>  <Rbt.Current_Directory>
/home/itssahil/PROJECTS/Mol_Feturizer/New_Systems/rnas/2EEV

>  <Rbt.Executable>
rbdock ($Id: //depot/dev/client3/rdock/2013.1/src/exe/rbdock.cxx#4 $)

>  <Rbt.Library>
libRbt.so (2013.1, Build901 2013/11/27)

>  <Rbt.Parameter_File>
/export/apps/rDock/src/rDock_2013.1_src/data/scripts/dock_solv.prm

>  <Rbt.Receptor>
prm/pocket_docking_4.prm

>  <SCORE>
-19.7516

>  <SCORE.INTER>
-19.7516

>  <SCORE.INTER.CONST>
1

>  <SCORE.INTER.POLAR>
0

>  <SCORE.INTER.ROT>
0

>  <SCORE.INTER.SOLV>
4.2089

>  <SCORE.INTER.VDW>
-18.1707

>  <SCORE.INTER.norm>
-1.97516

>  <SCORE.INTRA>
0

>  <SCORE.INTRA.DIHEDRAL>
0

>  <SCORE.INTRA.DIHEDRAL.0>
0

>  <SCORE.INTRA.POLAR>
0

>  <SCORE.INTRA.POLAR.0>
0

>  <SCORE.INTRA.REPUL>
0

>  <SCORE.INTRA.REPUL.0>
0

>  <SCORE.INTRA.SOLV>
0

>  <SCORE.INTRA.SOLV.lig_0>
-4.25352

>  <SCORE.INTRA.VDW>
0

>  <SCORE.INTRA.VDW.0>
0

>  <SCORE.INTRA.norm>
0

>  <SCORE.RESTR>
0

>  <SCORE.RESTR.CAVITY>
0

>  <SCORE.RESTR.norm>
0

>  <SCORE.SYSTEM>
0

>  <SCORE.SYSTEM.CONST>
0

>  <SCORE.SYSTEM.DIHEDRAL>
0

>  <SCORE.SYSTEM.SOLV>
0

>  <SCORE.SYSTEM.norm>
0

>  <SCORE.heavy>
10

>  <SCORE.norm>
-1.97516

>  <RMSD>
0.350

$$$$
ligand
 OpenBabel11021811423D
libRbt.so/2013.1/901 2013/11/27
 10 11  0  0  0  0  0  0  0  0999 V2000
   53.5386  -13.3796    8.9856 N   0  0  0  0  0  0  0  0  0  0  0  0
   53.7625  -14.7059    9.2224 C   0  0  0  0  0  0  0  0  0  0  0  0
   54.0640  -15.5721    8.2203 N   0  0  0  0  0  0  0  0  0  0  0  0
   54.1216  -14.9720    6.9964 C   0  0  0  0  0  0  0  0  0  0  0  0
   53.9078  -13.6452    6.7055 C   0  0  0  0  0  0  0  0  0  0  0  0
   53.5900  -12.7491    7.7301 C   0  0  0  0  0  0  0  0  0  0  0  0
   53.3656  -11.5582    7.6711 O   0  0  0  0  0  0  0  0  0  0  0  0
   54.0642  -13.4630    5.3579 N   0  0  0  0  0  0  0  0  0  0  0  0
   54.3656  -14.6498    4.8415 C   0  0  0  0  0  0  0  0  0  0  0  0
   54.4108  -15.6224    5.8228 N   0  0  0  0  0  0  0  0  0  0  0  0
  1  2  1  0  0  0  0
  1  6  1  0  0  0  0
  2  3  2  0  0  0  0
  3  4  1  0  0  0  0
  4  5  2  0  0  0  0
  4 10  1  0  0  0  0
  5  6  1  0  0  0  0
  5  8  1  0  0  0  0
  6  7  2  0  0  0  0
  8  9  1  0  0  0  0
  9 10  2  0  0  0  0
M  END
>  <CHROM.1>
53.90841741,-13.98590592,7.16736885,-2.79189806,1.33638148,-0.94208938

>  <Name>
ligand

>  <RI>
0

>  <Rbt.Current_Directory>
/home/itssahil/PROJECTS/Mol_Feturizer/New_Systems/rnas/2EEV

>  <Rbt.Executable>
rbdock ($Id: //depot/dev/client3/rdock/2013.1/src/exe/rbdock.cxx#4 $)

>  <Rbt.Library>
libRbt.so (2013.1, Build901 2013/11/27)

>  <Rbt.Parameter_File>
/export/apps/rDock/src/rDock_2013.1_src/data/scripts/dock_solv.prm

>  <Rbt.Receptor>
prm/pocket_docking_7.prm

>  <SCORE>
-19.7473

>  <SCORE.INTER>
-19.7473

>  <SCORE.INTER.CONST>
1

>  <SCORE.INTER.POLAR>
0

>  <SCORE.INTER.ROT>
0

>  <SCORE.INTER.SOLV>
4.22074

>  <SCORE.INTER.VDW>
-18.1717

>  <SCORE.INTER.norm>
-1.97473

>  <SCORE.INTRA>
0

>  <SCORE.INTRA.DIHEDRAL>
0

>  <SCORE.INTRA.DIHEDRAL.0>
0

>  <SCORE.INTRA.POLAR>
0

>  <SCORE.INTRA.POLAR.0>
0

>  <SCORE.INTRA.REPUL>
0

>  <SCORE.INTRA.REPUL.0>
0

>  <SCORE.INTRA.SOLV>
0

>  <SCORE.INTRA.SOLV.lig_0>
-4.25352

>  <SCORE.INTRA.VDW>
0

>  <SCORE.INTRA.VDW.0>
0

>  <SCORE.INTRA.norm>
0

>  <SCORE.RESTR>
0

>  <SCORE.RESTR.CAVITY>
0

>  <SCORE.RESTR.norm>
0

>  <SCORE.SYSTEM>
0

>  <SCORE.SYSTEM.CONST>
0

>  <SCORE.SYSTEM.DIHEDRAL>
0

>  <SCORE.SYSTEM.SOLV>
0

>  <SCORE.SYSTEM.norm>
0

>  <SCORE.heavy>
10

>  <SCORE.norm>
-1.97473

>  <RMSD>
0.350

$$$$
ligand
 OpenBabel11021811423D
libRbt.so/2013.1/901 2013/11/27
 10 11  0  0  0  0  0  0  0  0999 V2000
   53.5492  -13.3469    8.9912 N   0  0  0  0  0  0  0  0  0  0  0  0
   53.7797  -14.6713    9.2318 C   0  0  0  0  0  0  0  0  0  0  0  0
   54.0762  -15.5407    8.2308 N   0  0  0  0  0  0  0  0  0  0  0  0
   54.1217  -14.9456    7.0040 C   0  0  0  0  0  0  0  0  0  0  0  0
   53.9008  -13.6207    6.7093 C   0  0  0  0  0  0  0  0  0  0  0  0
   53.5882  -12.7215    7.7327 C   0  0  0  0  0  0  0  0  0  0  0  0
   53.3591  -11.5317    7.6705 O   0  0  0  0  0  0  0  0  0  0  0  0
   54.0457  -13.4437    5.3598 N   0  0  0  0  0  0  0  0  0  0  0  0
   54.3470  -14.6316    4.8459 C   0  0  0  0  0  0  0  0  0  0  0  0
   54.4037  -15.5999    5.8308 N   0  0  0  0  0  0  0  0  0  0  0  0
  1  2  1  0  0  0  0
  1  6  1  0  0  0  0
  2  3  2  0  0  0  0
  3  4  1  0  0  0  0
  4  5  2  0  0  0  0
  4 10  1  0  0  0  0
  5  6  1  0  0  0  0
  5  8  1  0  0  0  0
  6  7  2  0  0  0  0
  8  9  1  0  0  0  0
  9 10  2  0  0  0  0
M  END
>  <CHROM.1>
53.90641879,-13.95951357,7.17260945,-2.75435054,1.33812923,-0.98280929

>  <Name>
ligand

>  <RI>
0

>  <Rbt.Current_Directory>
/home/itssahil/PROJECTS/Mol_Feturizer/New_Systems/rnas/2EEV

>  <Rbt.Executable>
rbdock ($Id: //depot/dev/client3/rdock/2013.1/src/exe/rbdock.cxx#4 $)

>  <Rbt.Library>
libRbt.so (2013.1, Build901 2013/11/27)

>  <Rbt.Parameter_File>
/export/apps/rDock/src/rDock_2013.1_src/data/scripts/dock_solv.prm

>  <Rbt.Receptor>
prm/pocket_docking_7.prm

>  <SCORE>
-19.7283

>  <SCORE.INTER>
-19.7283

>  <SCORE.INTER.CONST>
1

>  <SCORE.INTER.POLAR>
0

>  <SCORE.INTER.ROT>
0

>  <SCORE.INTER.SOLV>
4.21486

>  <SCORE.INTER.VDW>
-18.1571

>  <SCORE.INTER.norm>
-1.97283

>  <SCORE.INTRA>
0

>  <SCORE.INTRA.DIHEDRAL>
0

>  <SCORE.INTRA.DIHEDRAL.0>
0

>  <SCORE.INTRA.POLAR>
0

>  <SCORE.INTRA.POLAR.0>
0

>  <SCORE.INTRA.REPUL>
0

>  <SCORE.INTRA.REPUL.0>
0

>  <SCORE.INTRA.SOLV>
0

>  <SCORE.INTRA.SOLV.lig_0>
-4.25352

>  <SCORE.INTRA.VDW>
0

>  <SCORE.INTRA.VDW.0>
0

>  <SCORE.INTRA.norm>
0

>  <SCORE.RESTR>
0

>  <SCORE.RESTR.CAVITY>
0

>  <SCORE.RESTR.norm>
0

>  <SCORE.SYSTEM>
0

>  <SCORE.SYSTEM.CONST>
0

>  <SCORE.SYSTEM.DIHEDRAL>
0

>  <SCORE.SYSTEM.SOLV>
0

>  <SCORE.SYSTEM.norm>
0

>  <SCORE.heavy>
10

>  <SCORE.norm>
-1.97283

>  <RMSD>
0.350

$$$$
ligand
 OpenBabel11021811423D
libRbt.so/2013.1/901 2013/11/27
 10 11  0  0  0  0  0  0  0  0999 V2000
   53.5339  -13.3995    8.9837 N   0  0  0  0  0  0  0  0  0  0  0  0
   53.7647  -14.7244    9.2214 C   0  0  0  0  0  0  0  0  0  0  0  0
   54.0633  -15.5912    8.2188 N   0  0  0  0  0  0  0  0  0  0  0  0
   54.1107  -14.9929    6.9935 C   0  0  0  0  0  0  0  0  0  0  0  0
   53.8897  -13.6675    6.7017 C   0  0  0  0  0  0  0  0  0  0  0  0
   53.5747  -12.7709    7.7268 C   0  0  0  0  0  0  0  0  0  0  0  0
   53.3452  -11.5811    7.6672 O   0  0  0  0  0  0  0  0  0  0  0  0
   54.0368  -13.4870    5.3529 N   0  0  0  0  0  0  0  0  0  0  0  0
   54.3397  -14.6735    4.8366 C   0  0  0  0  0  0  0  0  0  0  0  0
   54.3951  -15.6442    5.8192 N   0  0  0  0  0  0  0  0  0  0  0  0
  1  2  1  0  0  0  0
  1  6  1  0  0  0  0
  2  3  2  0  0  0  0
  3  4  1  0  0  0  0
  4  5  2  0  0  0  0
  4 10  1  0  0  0  0
  5  6  1  0  0  0  0
  5  8  1  0  0  0  0
  6  7  2  0  0  0  0
  8  9  1  0  0  0  0
  9 10  2  0  0  0  0
M  END
>  <CHROM.1>
53.89459877,-14.00739967,7.16419334,-2.75942620,1.33671899,-0.97539084

>  <Name>
ligand

>  <RI>
0

>  <Rbt.Current_Directory>
/home/itssahil/PROJECTS/Mol_Feturizer/New_Systems/rnas/2EEV

>  <Rbt.Executable>
rbdock ($Id: //depot/dev/client3/rdock/2013.1/src/exe/rbdock.cxx#4 $)

>  <Rbt.Library>
libRbt.so (2013.1, Build901 2013/11/27)

>  <Rbt.Parameter_File>
/export/apps/rDock/src/rDock_2013.1_src/data/scripts/dock_solv.prm

>  <Rbt.Receptor>
prm/blind_docking_100.prm

>  <SCORE>
-19.6828

>  <SCORE.INTER>
-19.6828

>  <SCORE.INTER.CONST>
1

>  <SCORE.INTER.POLAR>
0

>  <SCORE.INTER.ROT>
0

>  <SCORE.INTER.SOLV>
4.22252

>  <SCORE.INTER.VDW>
-18.1294

>  <SCORE.INTER.norm>
-1.96828

>  <SCORE.INTRA>
0

>  <SCORE.INTRA.DIHEDRAL>
0

>  <SCORE.INTRA.DIHEDRAL.0>
0

>  <SCORE.INTRA.POLAR>
0

>  <SCORE.INTRA.POLAR.0>
0

>  <SCORE.INTRA.REPUL>
0

>  <SCORE.INTRA.REPUL.0>
0

>  <SCORE.INTRA.SOLV>
0

>  <SCORE.INTRA.SOLV.lig_0>
-4.25352

>  <SCORE.INTRA.VDW>
0

>  <SCORE.INTRA.VDW.0>
0

>  <SCORE.INTRA.norm>
0

>  <SCORE.RESTR>
0

>  <SCORE.RESTR.CAVITY>
0

>  <SCORE.RESTR.norm>
0

>  <SCORE.SYSTEM>
0

>  <SCORE.SYSTEM.CONST>
0

>  <SCORE.SYSTEM.DIHEDRAL>
0

>  <SCORE.SYSTEM.SOLV>
0

>  <SCORE.SYSTEM.norm>
0

>  <SCORE.heavy>
10

>  <SCORE.norm>
-1.96828

>  <RMSD>
0.351

$$$$
ligand
 OpenBabel11021811423D
libRbt.so/2013.1/901 2013/11/27
 10 11  0  0  0  0  0  0  0  0999 V2000
   53.5355  -13.3764    8.9811 N   0  0  0  0  0  0  0  0  0  0  0  0
   53.7660  -14.7011    9.2207 C   0  0  0  0  0  0  0  0  0  0  0  0
   54.0714  -15.5680    8.2203 N   0  0  0  0  0  0  0  0  0  0  0  0
   54.1255  -14.9702    6.9951 C   0  0  0  0  0  0  0  0  0  0  0  0
   53.9052  -13.6450    6.7015 C   0  0  0  0  0  0  0  0  0  0  0  0
   53.5834  -12.7483    7.7243 C   0  0  0  0  0  0  0  0  0  0  0  0
   53.3532  -11.5587    7.6629 O   0  0  0  0  0  0  0  0  0  0  0  0
   54.0603  -13.4649    5.3535 N   0  0  0  0  0  0  0  0  0  0  0  0
   54.3672  -14.6513    4.8395 C   0  0  0  0  0  0  0  0  0  0  0  0
   54.4175  -15.6217    5.8227 N   0  0  0  0  0  0  0  0  0  0  0  0
  1  2  1  0  0  0  0
  1  6  1  0  0  0  0
  2  3  2  0  0  0  0
  3  4  1  0  0  0  0
  4  5  2  0  0  0  0
  4 10  1  0  0  0  0
  5  6  1  0  0  0  0
  5  8  1  0  0  0  0
  6  7  2  0  0  0  0
  8  9  1  0  0  0  0
  9 10  2  0  0  0  0
M  END
>  <CHROM.1>
53.90764224,-13.98476574,7.16408813,-2.77853189,1.33263860,-0.95718925

>  <Name>
ligand

>  <RI>
0

>  <Rbt.Current_Directory>
/home/itssahil/PROJECTS/Mol_Feturizer/New_Systems/rnas/2EEV

>  <Rbt.Executable>
rbdock ($Id: //depot/dev/client3/rdock/2013.1/src/exe/rbdock.cxx#4 $)

>  <Rbt.Library>
libRbt.so (2013.1, Build901 2013/11/27)

>  <Rbt.Parameter_File>
/export/apps/rDock/src/rDock_2013.1_src/data/scripts/dock_solv.prm

>  <Rbt.Receptor>
prm/blind_docking_60.prm

>  <SCORE>
-19.7493

>  <SCORE.INTER>
-19.7493

>  <SCORE.INTER.CONST>
1

>  <SCORE.INTER.POLAR>
0

>  <SCORE.INTER.ROT>
0

>  <SCORE.INTER.SOLV>
4.20812

>  <SCORE.INTER.VDW>
-18.1689

>  <SCORE.INTER.norm>
-1.97493

>  <SCORE.INTRA>
0

>  <SCORE.INTRA.DIHEDRAL>
0

>  <SCORE.INTRA.DIHEDRAL.0>
0

>  <SCORE.INTRA.POLAR>
0

>  <SCORE.INTRA.POLAR.0>
0

>  <SCORE.INTRA.REPUL>
0

>  <SCORE.INTRA.REPUL.0>
0

>  <SCORE.INTRA.SOLV>
0

>  <SCORE.INTRA.SOLV.lig_0>
-4.25352

>  <SCORE.INTRA.VDW>
0

>  <SCORE.INTRA.VDW.0>
0

>  <SCORE.INTRA.norm>
0

>  <SCORE.RESTR>
0

>  <SCORE.RESTR.CAVITY>
0

>  <SCORE.RESTR.norm>
0

>  <SCORE.SYSTEM>
0

>  <SCORE.SYSTEM.CONST>
0

>  <SCORE.SYSTEM.DIHEDRAL>
0

>  <SCORE.SYSTEM.SOLV>
0

>  <SCORE.SYSTEM.norm>
0

>  <SCORE.heavy>
10

>  <SCORE.norm>
-1.97493

>  <RMSD>
0.351

$$$$
ligand
 OpenBabel11021811423D
libRbt.so/2013.1/901 2013/11/27
 10 11  0  0  0  0  0  0  0  0999 V2000
   53.5493  -13.3847    8.9901 N   0  0  0  0  0  0  0  0  0  0  0  0
   53.7681  -14.7127    9.2217 C   0  0  0  0  0  0  0  0  0  0  0  0
   54.0626  -15.5769    8.2156 N   0  0  0  0  0  0  0  0  0  0  0  0
   54.1189  -14.9728    6.9936 C   0  0  0  0  0  0  0  0  0  0  0  0
   53.9101  -13.6440    6.7079 C   0  0  0  0  0  0  0  0  0  0  0  0
   53.5995  -12.7501    7.7366 C   0  0  0  0  0  0  0  0  0  0  0  0
   53.3803  -11.5580    7.6824 O   0  0  0  0  0  0  0  0  0  0  0  0
   54.0631  -13.4579    5.3606 N   0  0  0  0  0  0  0  0  0  0  0  0
   54.3575  -14.6442    4.8391 C   0  0  0  0  0  0  0  0  0  0  0  0
   54.4015  -15.6204    5.8168 N   0  0  0  0  0  0  0  0  0  0  0  0
  1  2  1  0  0  0  0
  1  6  1  0  0  0  0
  2  3  2  0  0  0  0
  3  4  1  0  0  0  0
  4  5  2  0  0  0  0
  4 10  1  0  0  0  0
  5  6  1  0  0  0  0
  5  8  1  0  0  0  0
  6  7  2  0  0  0  0
  8  9  1  0  0  0  0
  9 10  2  0  0  0  0
M  END
>  <CHROM.1>
53.91068771,-13.98632906,7.16866713,-2.79203297,1.34184010,-0.93851352

>  <Name>
ligand

>  <RI>
0

>  <Rbt.Current_Directory>
/home/itssahil/PROJECTS/Mol_Feturizer/New_Systems/rnas/2EEV

>  <Rbt.Executable>
rbdock ($Id: //depot/dev/client3/rdock/2013.1/src/exe/rbdock.cxx#4 $)

>  <Rbt.Library>
libRbt.so (2013.1, Build901 2013/11/27)

>  <Rbt.Parameter_File>
/export/apps/rDock/src/rDock_2013.1_src/data/scripts/dock_solv.prm

>  <Rbt.Receptor>
prm/blind_docking_60.prm

>  <SCORE>
-19.7406

>  <SCORE.INTER>
-19.7406

>  <SCORE.INTER.CONST>
1

>  <SCORE.INTER.POLAR>
0

>  <SCORE.INTER.ROT>
0

>  <SCORE.INTER.SOLV>
4.23358

>  <SCORE.INTER.VDW>
-18.1716

>  <SCORE.INTER.norm>
-1.97406

>  <SCORE.INTRA>
0

>  <SCORE.INTRA.DIHEDRAL>
0

>  <SCORE.INTRA.DIHEDRAL.0>
0

>  <SCORE.INTRA.POLAR>
0

>  <SCORE.INTRA.POLAR.0>
0

>  <SCORE.INTRA.REPUL>
0

>  <SCORE.INTRA.REPUL.0>
0

>  <SCORE.INTRA.SOLV>
0

>  <SCORE.INTRA.SOLV.lig_0>
-4.25352

>  <SCORE.INTRA.VDW>
0

>  <SCORE.INTRA.VDW.0>
0

>  <SCORE.INTRA.norm>
0

>  <SCORE.RESTR>
0

>  <SCORE.RESTR.CAVITY>
0

>  <SCORE.RESTR.norm>
0

>  <SCORE.SYSTEM>
0

>  <SCORE.SYSTEM.CONST>
0

>  <SCORE.SYSTEM.DIHEDRAL>
0

>  <SCORE.SYSTEM.SOLV>
0

>  <SCORE.SYSTEM.norm>
0

>  <SCORE.heavy>
10

>  <SCORE.norm>
-1.97406

>  <RMSD>
0.351

$$$$
ligand
 OpenBabel11021811423D
libRbt.so/2013.1/901 2013/11/27
 10 11  0  0  0  0  0  0  0  0999 V2000
   53.5594  -13.3961    8.9913 N   0  0  0  0  0  0  0  0  0  0  0  0
   53.7694  -14.7258    9.2214 C   0  0  0  0  0  0  0  0  0  0  0  0
   54.0613  -15.5901    8.2147 N   0  0  0  0  0  0  0  0  0  0  0  0
   54.1246  -14.9845    6.9939 C   0  0  0  0  0  0  0  0  0  0  0  0
   53.9248  -13.6540    6.7097 C   0  0  0  0  0  0  0  0  0  0  0  0
   53.6170  -12.7598    7.7390 C   0  0  0  0  0  0  0  0  0  0  0  0
   53.4052  -11.5663    7.6861 O   0  0  0  0  0  0  0  0  0  0  0  0
   54.0826  -13.4667    5.3631 N   0  0  0  0  0  0  0  0  0  0  0  0
   54.3711  -14.6540    4.8405 C   0  0  0  0  0  0  0  0  0  0  0  0
   54.4064  -15.6320    5.8168 N   0  0  0  0  0  0  0  0  0  0  0  0
  1  2  1  0  0  0  0
  1  6  1  0  0  0  0
  2  3  2  0  0  0  0
  3  4  1  0  0  0  0
  4  5  2  0  0  0  0
  4 10  1  0  0  0  0
  5  6  1  0  0  0  0
  5  8  1  0  0  0  0
  6  7  2  0  0  0  0
  8  9  1  0  0  0  0
  9 10  2  0  0  0  0
M  END
>  <CHROM.1>
53.92202827,-13.99705088,7.16991828,-2.81817072,1.34514334,-0.91145778

>  <Name>
ligand

>  <RI>
0

>  <Rbt.Current_Directory>
/home/itssahil/PROJECTS/Mol_Feturizer/New_Systems/rnas/2EEV

>  <Rbt.Executable>
rbdock ($Id: //depot/dev/client3/rdock/2013.1/src/exe/rbdock.cxx#4 $)

>  <Rbt.Library>
libRbt.so (2013.1, Build901 2013/11/27)

>  <Rbt.Parameter_File>
/export/apps/rDock/src/rDock_2013.1_src/data/scripts/dock_solv.prm

>  <Rbt.Receptor>
prm/blind_docking_80.prm

>  <SCORE>
-19.718

>  <SCORE.INTER>
-19.718

>  <SCORE.INTER.CONST>
1

>  <SCORE.INTER.POLAR>
0

>  <SCORE.INTER.ROT>
0

>  <SCORE.INTER.SOLV>
4.25066

>  <SCORE.INTER.VDW>
-18.1622

>  <SCORE.INTER.norm>
-1.9718

>  <SCORE.INTRA>
0

>  <SCORE.INTRA.DIHEDRAL>
0

>  <SCORE.INTRA.DIHEDRAL.0>
0

>  <SCORE.INTRA.POLAR>
0

>  <SCORE.INTRA.POLAR.0>
0

>  <SCORE.INTRA.REPUL>
0

>  <SCORE.INTRA.REPUL.0>
0

>  <SCORE.INTRA.SOLV>
0

>  <SCORE.INTRA.SOLV.lig_0>
-4.25352

>  <SCORE.INTRA.VDW>
0

>  <SCORE.INTRA.VDW.0>
0

>  <SCORE.INTRA.norm>
0

>  <SCORE.RESTR>
0

>  <SCORE.RESTR.CAVITY>
0

>  <SCORE.RESTR.norm>
0

>  <SCORE.SYSTEM>
0

>  <SCORE.SYSTEM.CONST>
0

>  <SCORE.SYSTEM.DIHEDRAL>
0

>  <SCORE.SYSTEM.SOLV>
0

>  <SCORE.SYSTEM.norm>
0

>  <SCORE.heavy>
10

>  <SCORE.norm>
-1.9718

>  <RMSD>
0.351

$$$$
ligand
 OpenBabel11021811423D
libRbt.so/2013.1/901 2013/11/27
 10 11  0  0  0  0  0  0  0  0999 V2000
   53.4983  -13.3896    8.9823 N   0  0  0  0  0  0  0  0  0  0  0  0
   53.7229  -14.7161    9.2169 C   0  0  0  0  0  0  0  0  0  0  0  0
   54.0351  -15.5785    8.2147 N   0  0  0  0  0  0  0  0  0  0  0  0
   54.1020  -14.9744    6.9933 C   0  0  0  0  0  0  0  0  0  0  0  0
   53.8880  -13.6471    6.7047 C   0  0  0  0  0  0  0  0  0  0  0  0
   53.5593  -12.7550    7.7293 C   0  0  0  0  0  0  0  0  0  0  0  0
   53.3330  -11.5644    7.6721 O   0  0  0  0  0  0  0  0  0  0  0  0
   54.0558  -13.4603    5.3592 N   0  0  0  0  0  0  0  0  0  0  0  0
   54.3642  -14.6448    4.8417 C   0  0  0  0  0  0  0  0  0  0  0  0
   54.4029  -15.6205    5.8202 N   0  0  0  0  0  0  0  0  0  0  0  0
  1  2  1  0  0  0  0
  1  6  1  0  0  0  0
  2  3  2  0  0  0  0
  3  4  1  0  0  0  0
  4  5  2  0  0  0  0
  4 10  1  0  0  0  0
  5  6  1  0  0  0  0
  5  8  1  0  0  0  0
  6  7  2  0  0  0  0
  8  9  1  0  0  0  0
  9 10  2  0  0  0  0
M  END
>  <CHROM.1>
53.88529974,-13.98929771,7.16552064,-2.81626341,1.32944941,-0.91523745

>  <Name>
ligand

>  <RI>
0

>  <Rbt.Current_Directory>
/home/itssahil/PROJECTS/Mol_Feturizer/New_Systems/rnas/2EEV

>  <Rbt.Executable>
rbdock ($Id: //depot/dev/client3/rdock/2013.1/src/exe/rbdock.cxx#4 $)

>  <Rbt.Library>
libRbt.so (2013.1, Build901 2013/11/27)

>  <Rbt.Parameter_File>
/export/apps/rDock/src/rDock_2013.1_src/data/scripts/dock_solv.prm

>  <Rbt.Receptor>
prm/pocket_docking_3.prm

>  <SCORE>
-19.6917

>  <SCORE.INTER>
-19.6917

>  <SCORE.INTER.CONST>
1

>  <SCORE.INTER.POLAR>
0

>  <SCORE.INTER.ROT>
0

>  <SCORE.INTER.SOLV>
4.22314

>  <SCORE.INTER.VDW>
-18.1355

>  <SCORE.INTER.norm>
-1.96917

>  <SCORE.INTRA>
0

>  <SCORE.INTRA.DIHEDRAL>
0

>  <SCORE.INTRA.DIHEDRAL.0>
0

>  <SCORE.INTRA.POLAR>
0

>  <SCORE.INTRA.POLAR.0>
0

>  <SCORE.INTRA.REPUL>
0

>  <SCORE.INTRA.REPUL.0>
0

>  <SCORE.INTRA.SOLV>
0

>  <SCORE.INTRA.SOLV.lig_0>
-4.25352

>  <SCORE.INTRA.VDW>
0

>  <SCORE.INTRA.VDW.0>
0

>  <SCORE.INTRA.norm>
0

>  <SCORE.RESTR>
0

>  <SCORE.RESTR.CAVITY>
0

>  <SCORE.RESTR.norm>
0

>  <SCORE.SYSTEM>
0

>  <SCORE.SYSTEM.CONST>
0

>  <SCORE.SYSTEM.DIHEDRAL>
0

>  <SCORE.SYSTEM.SOLV>
0

>  <SCORE.SYSTEM.norm>
0

>  <SCORE.heavy>
10

>  <SCORE.norm>
-1.96917

>  <RMSD>
0.351

$$$$
ligand
 OpenBabel11021811423D
libRbt.so/2013.1/901 2013/11/27
 10 11  0  0  0  0  0  0  0  0999 V2000
   53.5552  -13.3968    8.9889 N   0  0  0  0  0  0  0  0  0  0  0  0
   53.7655  -14.7263    9.2197 C   0  0  0  0  0  0  0  0  0  0  0  0
   54.0612  -15.5905    8.2140 N   0  0  0  0  0  0  0  0  0  0  0  0
   54.1277  -14.9849    6.9933 C   0  0  0  0  0  0  0  0  0  0  0  0
   53.9277  -13.6546    6.7085 C   0  0  0  0  0  0  0  0  0  0  0  0
   53.6160  -12.7605    7.7367 C   0  0  0  0  0  0  0  0  0  0  0  0
   53.4035  -11.5672    7.6831 O   0  0  0  0  0  0  0  0  0  0  0  0
   54.0894  -13.4672    5.3623 N   0  0  0  0  0  0  0  0  0  0  0  0
   54.3804  -14.6543    4.8407 C   0  0  0  0  0  0  0  0  0  0  0  0
   54.4136  -15.6322    5.8171 N   0  0  0  0  0  0  0  0  0  0  0  0
  1  2  1  0  0  0  0
  1  6  1  0  0  0  0
  2  3  2  0  0  0  0
  3  4  1  0  0  0  0
  4  5  2  0  0  0  0
  4 10  1  0  0  0  0
  5  6  1  0  0  0  0
  5  8  1  0  0  0  0
  6  7  2  0  0  0  0
  8  9  1  0  0  0  0
  9 10  2  0  0  0  0
M  END
>  <CHROM.1>
53.92379102,-13.99756594,7.16864411,-2.82659183,1.34264379,-0.90331643

>  <Name>
ligand

>  <RI>
0

>  <Rbt.Current_Directory>
/home/itssahil/PROJECTS/Mol_Feturizer/New_Systems/rnas/2EEV

>  <Rbt.Executable>
rbdock ($Id: //depot/dev/client3/rdock/2013.1/src/exe/rbdock.cxx#4 $)

>  <Rbt.Library>
libRbt.so (2013.1, Build901 2013/11/27)

>  <Rbt.Parameter_File>
/export/apps/rDock/src/rDock_2013.1_src/data/scripts/dock_solv.prm

>  <Rbt.Receptor>
prm/pocket_docking_3.prm

>  <SCORE>
-19.7147

>  <SCORE.INTER>
-19.7147

>  <SCORE.INTER.CONST>
1

>  <SCORE.INTER.POLAR>
0

>  <SCORE.INTER.ROT>
0

>  <SCORE.INTER.SOLV>
4.24609

>  <SCORE.INTER.VDW>
-18.1585

>  <SCORE.INTER.norm>
-1.97147

>  <SCORE.INTRA>
0

>  <SCORE.INTRA.DIHEDRAL>
0

>  <SCORE.INTRA.DIHEDRAL.0>
0

>  <SCORE.INTRA.POLAR>
0

>  <SCORE.INTRA.POLAR.0>
0

>  <SCORE.INTRA.REPUL>
0

>  <SCORE.INTRA.REPUL.0>
0

>  <SCORE.INTRA.SOLV>
0

>  <SCORE.INTRA.SOLV.lig_0>
-4.25352

>  <SCORE.INTRA.VDW>
0

>  <SCORE.INTRA.VDW.0>
0

>  <SCORE.INTRA.norm>
0

>  <SCORE.RESTR>
0

>  <SCORE.RESTR.CAVITY>
0

>  <SCORE.RESTR.norm>
0

>  <SCORE.SYSTEM>
0

>  <SCORE.SYSTEM.CONST>
0

>  <SCORE.SYSTEM.DIHEDRAL>
0

>  <SCORE.SYSTEM.SOLV>
0

>  <SCORE.SYSTEM.norm>
0

>  <SCORE.heavy>
10

>  <SCORE.norm>
-1.97147

>  <RMSD>
0.351

$$$$
ligand
 OpenBabel11021811423D
libRbt.so/2013.1/901 2013/11/27
 10 11  0  0  0  0  0  0  0  0999 V2000
   53.5422  -13.3844    8.9898 N   0  0  0  0  0  0  0  0  0  0  0  0
   53.7560  -14.7132    9.2217 C   0  0  0  0  0  0  0  0  0  0  0  0
   54.0521  -15.5777    8.2164 N   0  0  0  0  0  0  0  0  0  0  0  0
   54.1154  -14.9732    6.9950 C   0  0  0  0  0  0  0  0  0  0  0  0
   53.9119  -13.6437    6.7091 C   0  0  0  0  0  0  0  0  0  0  0  0
   53.5997  -12.7493    7.7369 C   0  0  0  0  0  0  0  0  0  0  0  0
   53.3843  -11.5565    7.6824 O   0  0  0  0  0  0  0  0  0  0  0  0
   54.0711  -13.4573    5.3625 N   0  0  0  0  0  0  0  0  0  0  0  0
   54.3641  -14.6443    4.8416 C   0  0  0  0  0  0  0  0  0  0  0  0
   54.4010  -15.6211    5.8190 N   0  0  0  0  0  0  0  0  0  0  0  0
  1  2  1  0  0  0  0
  1  6  1  0  0  0  0
  2  3  2  0  0  0  0
  3  4  1  0  0  0  0
  4  5  2  0  0  0  0
  4 10  1  0  0  0  0
  5  6  1  0  0  0  0
  5  8  1  0  0  0  0
  6  7  2  0  0  0  0
  8  9  1  0  0  0  0
  9 10  2  0  0  0  0
M  END
>  <CHROM.1>
53.90948325,-13.98619902,7.16963710,-2.81507458,1.34174681,-0.91555509

>  <Name>
ligand

>  <RI>
0

>  <Rbt.Current_Directory>
/home/itssahil/PROJECTS/Mol_Feturizer/New_Systems/rnas/2EEV

>  <Rbt.Executable>
rbdock ($Id: //depot/dev/client3/rdock/2013.1/src/exe/rbdock.cxx#4 $)

>  <Rbt.Library>
libRbt.so (2013.1, Build901 2013/11/27)

>  <Rbt.Parameter_File>
/export/apps/rDock/src/rDock_2013.1_src/data/scripts/dock_solv.prm

>  <Rbt.Receptor>
prm/pocket_docking_5.prm

>  <SCORE>
-19.7403

>  <SCORE.INTER>
-19.7403

>  <SCORE.INTER.CONST>
1

>  <SCORE.INTER.POLAR>
0

>  <SCORE.INTER.ROT>
0

>  <SCORE.INTER.SOLV>
4.24062

>  <SCORE.INTER.VDW>
-18.1738

>  <SCORE.INTER.norm>
-1.97403

>  <SCORE.INTRA>
0

>  <SCORE.INTRA.DIHEDRAL>
0

>  <SCORE.INTRA.DIHEDRAL.0>
0

>  <SCORE.INTRA.POLAR>
0

>  <SCORE.INTRA.POLAR.0>
0

>  <SCORE.INTRA.REPUL>
0

>  <SCORE.INTRA.REPUL.0>
0

>  <SCORE.INTRA.SOLV>
0

>  <SCORE.INTRA.SOLV.lig_0>
-4.25352

>  <SCORE.INTRA.VDW>
0

>  <SCORE.INTRA.VDW.0>
0

>  <SCORE.INTRA.norm>
0

>  <SCORE.RESTR>
0

>  <SCORE.RESTR.CAVITY>
0

>  <SCORE.RESTR.norm>
0

>  <SCORE.SYSTEM>
0

>  <SCORE.SYSTEM.CONST>
0

>  <SCORE.SYSTEM.DIHEDRAL>
0

>  <SCORE.SYSTEM.SOLV>
0

>  <SCORE.SYSTEM.norm>
0

>  <SCORE.heavy>
10

>  <SCORE.norm>
-1.97403

>  <RMSD>
0.351

$$$$
ligand
 OpenBabel11021811423D
libRbt.so/2013.1/901 2013/11/27
 10 11  0  0  0  0  0  0  0  0999 V2000
   53.4902  -13.3953    8.9869 N   0  0  0  0  0  0  0  0  0  0  0  0
   53.6964  -14.7245    9.2238 C   0  0  0  0  0  0  0  0  0  0  0  0
   54.0060  -15.5912    8.2245 N   0  0  0  0  0  0  0  0  0  0  0  0
   54.0906  -14.9885    7.0035 C   0  0  0  0  0  0  0  0  0  0  0  0
   53.8955  -13.6588    6.7127 C   0  0  0  0  0  0  0  0  0  0  0  0
   53.5695  -12.7621    7.7342 C   0  0  0  0  0  0  0  0  0  0  0  0
   53.3586  -11.5688    7.6747 O   0  0  0  0  0  0  0  0  0  0  0  0
   54.0768  -13.4747    5.3685 N   0  0  0  0  0  0  0  0  0  0  0  0
   54.3746  -14.6632    4.8540 C   0  0  0  0  0  0  0  0  0  0  0  0
   54.3931  -15.6388    5.8332 N   0  0  0  0  0  0  0  0  0  0  0  0
  1  2  1  0  0  0  0
  1  6  1  0  0  0  0
  2  3  2  0  0  0  0
  3  4  1  0  0  0  0
  4  5  2  0  0  0  0
  4 10  1  0  0  0  0
  5  6  1  0  0  0  0
  5  8  1  0  0  0  0
  6  7  2  0  0  0  0
  8  9  1  0  0  0  0
  9 10  2  0  0  0  0
M  END
>  <CHROM.1>
53.88476690,-14.00068359,7.17357945,-2.87663275,1.33388628,-0.85699349

>  <Name>
ligand

>  <RI>
0

>  <Rbt.Current_Directory>
/home/itssahil/PROJECTS/Mol_Feturizer/New_Systems/rnas/2EEV

>  <Rbt.Executable>
rbdock ($Id: //depot/dev/client3/rdock/2013.1/src/exe/rbdock.cxx#4 $)

>  <Rbt.Library>
libRbt.so (2013.1, Build901 2013/11/27)

>  <Rbt.Parameter_File>
/export/apps/rDock/src/rDock_2013.1_src/data/scripts/dock_solv.prm

>  <Rbt.Receptor>
prm/pocket_docking_8.prm

>  <SCORE>
-19.7377

>  <SCORE.INTER>
-19.7377

>  <SCORE.INTER.CONST>
1

>  <SCORE.INTER.POLAR>
0

>  <SCORE.INTER.ROT>
0

>  <SCORE.INTER.SOLV>
4.25631

>  <SCORE.INTER.VDW>
-18.1772

>  <SCORE.INTER.norm>
-1.97377

>  <SCORE.INTRA>
0

>  <SCORE.INTRA.DIHEDRAL>
0

>  <SCORE.INTRA.DIHEDRAL.0>
0

>  <SCORE.INTRA.POLAR>
0

>  <SCORE.INTRA.POLAR.0>
0

>  <SCORE.INTRA.REPUL>
0

>  <SCORE.INTRA.REPUL.0>
0

>  <SCORE.INTRA.SOLV>
0

>  <SCORE.INTRA.SOLV.lig_0>
-4.25352

>  <SCORE.INTRA.VDW>
0

>  <SCORE.INTRA.VDW.0>
0

>  <SCORE.INTRA.norm>
0

>  <SCORE.RESTR>
0

>  <SCORE.RESTR.CAVITY>
0

>  <SCORE.RESTR.norm>
0

>  <SCORE.SYSTEM>
0

>  <SCORE.SYSTEM.CONST>
0

>  <SCORE.SYSTEM.DIHEDRAL>
0

>  <SCORE.SYSTEM.SOLV>
0

>  <SCORE.SYSTEM.norm>
0

>  <SCORE.heavy>
10

>  <SCORE.norm>
-1.97377

>  <RMSD>
0.351

$$$$
ligand
 OpenBabel11021811423D
libRbt.so/2013.1/901 2013/11/27
 10 11  0  0  0  0  0  0  0  0999 V2000
   53.5239  -13.3746    8.9811 N   0  0  0  0  0  0  0  0  0  0  0  0
   53.7585  -14.6974    9.2266 C   0  0  0  0  0  0  0  0  0  0  0  0
   54.0626  -15.5687    8.2295 N   0  0  0  0  0  0  0  0  0  0  0  0
   54.1111  -14.9770    7.0012 C   0  0  0  0  0  0  0  0  0  0  0  0
   53.8864  -13.6539    6.7016 C   0  0  0  0  0  0  0  0  0  0  0  0
   53.5659  -12.7528    7.7209 C   0  0  0  0  0  0  0  0  0  0  0  0
   53.3326  -11.5640    7.6542 O   0  0  0  0  0  0  0  0  0  0  0  0
   54.0364  -13.4803    5.3522 N   0  0  0  0  0  0  0  0  0  0  0  0
   54.3445  -14.6685    4.8431 C   0  0  0  0  0  0  0  0  0  0  0  0
   54.4006  -15.6337    5.8311 N   0  0  0  0  0  0  0  0  0  0  0  0
  1  2  1  0  0  0  0
  1  6  1  0  0  0  0
  2  3  2  0  0  0  0
  3  4  1  0  0  0  0
  4  5  2  0  0  0  0
  4 10  1  0  0  0  0
  5  6  1  0  0  0  0
  5  8  1  0  0  0  0
  6  7  2  0  0  0  0
  8  9  1  0  0  0  0
  9 10  2  0  0  0  0
M  END
>  <CHROM.1>
53.89131099,-13.99124954,7.16587595,-2.76056278,1.33255282,-0.97974148

>  <Name>
ligand

>  <RI>
0

>  <Rbt.Current_Directory>
/home/itssahil/PROJECTS/Mol_Feturizer/New_Systems/rnas/2EEV

>  <Rbt.Executable>
rbdock ($Id: //depot/dev/client3/rdock/2013.1/src/exe/rbdock.cxx#4 $)

>  <Rbt.Library>
libRbt.so (2013.1, Build901 2013/11/27)

>  <Rbt.Parameter_File>
/export/apps/rDock/src/rDock_2013.1_src/data/scripts/dock_solv.prm

>  <Rbt.Receptor>
prm/pocket_docking_8.prm

>  <SCORE>
-19.6863

>  <SCORE.INTER>
-19.6863

>  <SCORE.INTER.CONST>
1

>  <SCORE.INTER.POLAR>
0

>  <SCORE.INTER.ROT>
0

>  <SCORE.INTER.SOLV>
4.21178

>  <SCORE.INTER.VDW>
-18.1281

>  <SCORE.INTER.norm>
-1.96863

>  <SCORE.INTRA>
0

>  <SCORE.INTRA.DIHEDRAL>
0

>  <SCORE.INTRA.DIHEDRAL.0>
0

>  <SCORE.INTRA.POLAR>
0

>  <SCORE.INTRA.POLAR.0>
0

>  <SCORE.INTRA.REPUL>
0

>  <SCORE.INTRA.REPUL.0>
0

>  <SCORE.INTRA.SOLV>
0

>  <SCORE.INTRA.SOLV.lig_0>
-4.25352

>  <SCORE.INTRA.VDW>
0

>  <SCORE.INTRA.VDW.0>
0

>  <SCORE.INTRA.norm>
0

>  <SCORE.RESTR>
0

>  <SCORE.RESTR.CAVITY>
0

>  <SCORE.RESTR.norm>
0

>  <SCORE.SYSTEM>
0

>  <SCORE.SYSTEM.CONST>
0

>  <SCORE.SYSTEM.DIHEDRAL>
0

>  <SCORE.SYSTEM.SOLV>
0

>  <SCORE.SYSTEM.norm>
0

>  <SCORE.heavy>
10

>  <SCORE.norm>
-1.96863

>  <RMSD>
0.351

$$$$
ligand
 OpenBabel11021811423D
libRbt.so/2013.1/901 2013/11/27
 10 11  0  0  0  0  0  0  0  0999 V2000
   53.5383  -13.3775    8.9862 N   0  0  0  0  0  0  0  0  0  0  0  0
   53.7578  -14.7043    9.2243 C   0  0  0  0  0  0  0  0  0  0  0  0
   54.0574  -15.5723    8.2231 N   0  0  0  0  0  0  0  0  0  0  0  0
   54.1180  -14.9734    6.9988 C   0  0  0  0  0  0  0  0  0  0  0  0
   53.9088  -13.6461    6.7066 C   0  0  0  0  0  0  0  0  0  0  0  0
   53.5929  -12.7482    7.7302 C   0  0  0  0  0  0  0  0  0  0  0  0
   53.3725  -11.5566    7.6701 O   0  0  0  0  0  0  0  0  0  0  0  0
   54.0670  -13.4655    5.3591 N   0  0  0  0  0  0  0  0  0  0  0  0
   54.3650  -14.6537    4.8439 C   0  0  0  0  0  0  0  0  0  0  0  0
   54.4062  -15.6257    5.8260 N   0  0  0  0  0  0  0  0  0  0  0  0
  1  2  1  0  0  0  0
  1  6  1  0  0  0  0
  2  3  2  0  0  0  0
  3  4  1  0  0  0  0
  4  5  2  0  0  0  0
  4 10  1  0  0  0  0
  5  6  1  0  0  0  0
  5  8  1  0  0  0  0
  6  7  2  0  0  0  0
  8  9  1  0  0  0  0
  9 10  2  0  0  0  0
M  END
>  <CHROM.1>
53.90789002,-13.98644488,7.16881037,-2.80330362,1.33843360,-0.93179190

>  <Name>
ligand

>  <RI>
0

>  <Rbt.Current_Directory>
/home/itssahil/PROJECTS/Mol_Feturizer/New_Systems/rnas/2EEV

>  <Rbt.Executable>
rbdock ($Id: //depot/dev/client3/rdock/2013.1/src/exe/rbdock.cxx#4 $)

>  <Rbt.Library>
libRbt.so (2013.1, Build901 2013/11/27)

>  <Rbt.Parameter_File>
/export/apps/rDock/src/rDock_2013.1_src/data/scripts/dock_solv.prm

>  <Rbt.Receptor>
prm/pocket_docking_8.prm

>  <SCORE>
-19.7464

>  <SCORE.INTER>
-19.7464

>  <SCORE.INTER.CONST>
1

>  <SCORE.INTER.POLAR>
0

>  <SCORE.INTER.ROT>
0

>  <SCORE.INTER.SOLV>
4.22915

>  <SCORE.INTER.VDW>
-18.174

>  <SCORE.INTER.norm>
-1.97464

>  <SCORE.INTRA>
0

>  <SCORE.INTRA.DIHEDRAL>
0

>  <SCORE.INTRA.DIHEDRAL.0>
0

>  <SCORE.INTRA.POLAR>
0

>  <SCORE.INTRA.POLAR.0>
0

>  <SCORE.INTRA.REPUL>
0

>  <SCORE.INTRA.REPUL.0>
0

>  <SCORE.INTRA.SOLV>
0

>  <SCORE.INTRA.SOLV.lig_0>
-4.25352

>  <SCORE.INTRA.VDW>
0

>  <SCORE.INTRA.VDW.0>
0

>  <SCORE.INTRA.norm>
0

>  <SCORE.RESTR>
0

>  <SCORE.RESTR.CAVITY>
0

>  <SCORE.RESTR.norm>
0

>  <SCORE.SYSTEM>
0

>  <SCORE.SYSTEM.CONST>
0

>  <SCORE.SYSTEM.DIHEDRAL>
0

>  <SCORE.SYSTEM.SOLV>
0

>  <SCORE.SYSTEM.norm>
0

>  <SCORE.heavy>
10

>  <SCORE.norm>
-1.97464

>  <RMSD>
0.351

$$$$
ligand
 OpenBabel11021811423D
libRbt.so/2013.1/901 2013/11/27
 10 11  0  0  0  0  0  0  0  0999 V2000
   53.4755  -13.3351    8.9866 N   0  0  0  0  0  0  0  0  0  0  0  0
   53.6811  -14.6588    9.2529 C   0  0  0  0  0  0  0  0  0  0  0  0
   53.9945  -15.5467    8.2736 N   0  0  0  0  0  0  0  0  0  0  0  0
   54.0832  -14.9704    7.0401 C   0  0  0  0  0  0  0  0  0  0  0  0
   53.8888  -13.6473    6.7201 C   0  0  0  0  0  0  0  0  0  0  0  0
   53.5590  -12.7290    7.7209 C   0  0  0  0  0  0  0  0  0  0  0  0
   53.3479  -11.5373    7.6350 O   0  0  0  0  0  0  0  0  0  0  0  0
   54.0748  -13.4922    5.3729 N   0  0  0  0  0  0  0  0  0  0  0  0
   54.3747  -14.6914    4.8851 C   0  0  0  0  0  0  0  0  0  0  0  0
   54.3900  -15.6457    5.8851 N   0  0  0  0  0  0  0  0  0  0  0  0
  1  2  1  0  0  0  0
  1  6  1  0  0  0  0
  2  3  2  0  0  0  0
  3  4  1  0  0  0  0
  4  5  2  0  0  0  0
  4 10  1  0  0  0  0
  5  6  1  0  0  0  0
  5  8  1  0  0  0  0
  6  7  2  0  0  0  0
  8  9  1  0  0  0  0
  9 10  2  0  0  0  0
M  END
>  <CHROM.1>
53.87651120,-13.97923306,7.18817206,-2.88713685,1.33137754,-0.86832161

>  <Name>
ligand

>  <RI>
0

>  <Rbt.Current_Directory>
/home/itssahil/PROJECTS/Mol_Feturizer/New_Systems/rnas/2EEV

>  <Rbt.Executable>
rbdock ($Id: //depot/dev/client3/rdock/2013.1/src/exe/rbdock.cxx#4 $)

>  <Rbt.Library>
libRbt.so (2013.1, Build901 2013/11/27)

>  <Rbt.Parameter_File>
/export/apps/rDock/src/rDock_2013.1_src/data/scripts/dock_solv.prm

>  <Rbt.Receptor>
prm/blind_docking_60.prm

>  <SCORE>
-19.694

>  <SCORE.INTER>
-19.694

>  <SCORE.INTER.CONST>
1

>  <SCORE.INTER.POLAR>
0

>  <SCORE.INTER.ROT>
0

>  <SCORE.INTER.SOLV>
4.25772

>  <SCORE.INTER.VDW>
-18.1486

>  <SCORE.INTER.norm>
-1.9694

>  <SCORE.INTRA>
0

>  <SCORE.INTRA.DIHEDRAL>
0

>  <SCORE.INTRA.DIHEDRAL.0>
0

>  <SCORE.INTRA.POLAR>
0

>  <SCORE.INTRA.POLAR.0>
0

>  <SCORE.INTRA.REPUL>
0

>  <SCORE.INTRA.REPUL.0>
0

>  <SCORE.INTRA.SOLV>
0

>  <SCORE.INTRA.SOLV.lig_0>
-4.25352

>  <SCORE.INTRA.VDW>
0

>  <SCORE.INTRA.VDW.0>
0

>  <SCORE.INTRA.norm>
0

>  <SCORE.RESTR>
0

>  <SCORE.RESTR.CAVITY>
0

>  <SCORE.RESTR.norm>
0

>  <SCORE.SYSTEM>
0

>  <SCORE.SYSTEM.CONST>
0

>  <SCORE.SYSTEM.DIHEDRAL>
0

>  <SCORE.SYSTEM.SOLV>
0

>  <SCORE.SYSTEM.norm>
0

>  <SCORE.heavy>
10

>  <SCORE.norm>
-1.9694

>  <RMSD>
0.352

$$$$
ligand
 OpenBabel11021811423D
libRbt.so/2013.1/901 2013/11/27
 10 11  0  0  0  0  0  0  0  0999 V2000
   53.5405  -13.3577    8.9794 N   0  0  0  0  0  0  0  0  0  0  0  0
   53.7786  -14.6808    9.2198 C   0  0  0  0  0  0  0  0  0  0  0  0
   54.0863  -15.5471    8.2195 N   0  0  0  0  0  0  0  0  0  0  0  0
   54.1342  -14.9503    6.9936 C   0  0  0  0  0  0  0  0  0  0  0  0
   53.9061  -13.6267    6.6991 C   0  0  0  0  0  0  0  0  0  0  0  0
   53.5819  -12.7307    7.7218 C   0  0  0  0  0  0  0  0  0  0  0  0
   53.3453  -11.5423    7.6597 O   0  0  0  0  0  0  0  0  0  0  0  0
   54.0569  -13.4471    5.3506 N   0  0  0  0  0  0  0  0  0  0  0  0
   54.3689  -14.6324    4.8370 C   0  0  0  0  0  0  0  0  0  0  0  0
   54.4269  -15.6014    5.8211 N   0  0  0  0  0  0  0  0  0  0  0  0
  1  2  1  0  0  0  0
  1  6  1  0  0  0  0
  2  3  2  0  0  0  0
  3  4  1  0  0  0  0
  4  5  2  0  0  0  0
  4 10  1  0  0  0  0
  5  6  1  0  0  0  0
  5  8  1  0  0  0  0
  6  7  2  0  0  0  0
  8  9  1  0  0  0  0
  9 10  2  0  0  0  0
M  END
>  <CHROM.1>
53.91147576,-13.96590059,7.16206481,-2.75726294,1.32959856,-0.97888442

>  <Name>
ligand

>  <RI>
0

>  <Rbt.Current_Directory>
/home/itssahil/PROJECTS/Mol_Feturizer/New_Systems/rnas/2EEV

>  <Rbt.Executable>
rbdock ($Id: //depot/dev/client3/rdock/2013.1/src/exe/rbdock.cxx#4 $)

>  <Rbt.Library>
libRbt.so (2013.1, Build901 2013/11/27)

>  <Rbt.Parameter_File>
/export/apps/rDock/src/rDock_2013.1_src/data/scripts/dock_solv.prm

>  <Rbt.Receptor>
prm/pocket_docking_3.prm

>  <SCORE>
-19.734

>  <SCORE.INTER>
-19.734

>  <SCORE.INTER.CONST>
1

>  <SCORE.INTER.POLAR>
0

>  <SCORE.INTER.ROT>
0

>  <SCORE.INTER.SOLV>
4.19143

>  <SCORE.INTER.VDW>
-18.1531

>  <SCORE.INTER.norm>
-1.9734

>  <SCORE.INTRA>
0

>  <SCORE.INTRA.DIHEDRAL>
0

>  <SCORE.INTRA.DIHEDRAL.0>
0

>  <SCORE.INTRA.POLAR>
0

>  <SCORE.INTRA.POLAR.0>
0

>  <SCORE.INTRA.REPUL>
0

>  <SCORE.INTRA.REPUL.0>
0

>  <SCORE.INTRA.SOLV>
0

>  <SCORE.INTRA.SOLV.lig_0>
-4.25352

>  <SCORE.INTRA.VDW>
0

>  <SCORE.INTRA.VDW.0>
0

>  <SCORE.INTRA.norm>
0

>  <SCORE.RESTR>
0

>  <SCORE.RESTR.CAVITY>
0

>  <SCORE.RESTR.norm>
0

>  <SCORE.SYSTEM>
0

>  <SCORE.SYSTEM.CONST>
0

>  <SCORE.SYSTEM.DIHEDRAL>
0

>  <SCORE.SYSTEM.SOLV>
0

>  <SCORE.SYSTEM.norm>
0

>  <SCORE.heavy>
10

>  <SCORE.norm>
-1.9734

>  <RMSD>
0.352

$$$$
ligand
 OpenBabel11021811423D
libRbt.so/2013.1/901 2013/11/27
 10 11  0  0  0  0  0  0  0  0999 V2000
   53.5352  -13.3800    8.9826 N   0  0  0  0  0  0  0  0  0  0  0  0
   53.7591  -14.7063    9.2192 C   0  0  0  0  0  0  0  0  0  0  0  0
   54.0613  -15.5722    8.2170 N   0  0  0  0  0  0  0  0  0  0  0  0
   54.1195  -14.9718    6.9933 C   0  0  0  0  0  0  0  0  0  0  0  0
   53.9057  -13.6449    6.7026 C   0  0  0  0  0  0  0  0  0  0  0  0
   53.5872  -12.7491    7.7273 C   0  0  0  0  0  0  0  0  0  0  0  0
   53.3628  -11.5582    7.6685 O   0  0  0  0  0  0  0  0  0  0  0  0
   54.0629  -13.4623    5.3552 N   0  0  0  0  0  0  0  0  0  0  0  0
   54.3647  -14.6490    4.8387 C   0  0  0  0  0  0  0  0  0  0  0  0
   54.4095  -15.6218    5.8197 N   0  0  0  0  0  0  0  0  0  0  0  0
  1  2  1  0  0  0  0
  1  6  1  0  0  0  0
  2  3  2  0  0  0  0
  3  4  1  0  0  0  0
  4  5  2  0  0  0  0
  4 10  1  0  0  0  0
  5  6  1  0  0  0  0
  5  8  1  0  0  0  0
  6  7  2  0  0  0  0
  8  9  1  0  0  0  0
  9 10  2  0  0  0  0
M  END
>  <CHROM.1>
53.90614366,-13.98572920,7.16444186,-2.79359081,1.33594695,-0.94017130

>  <Name>
ligand

>  <RI>
0

>  <Rbt.Current_Directory>
/home/itssahil/PROJECTS/Mol_Feturizer/New_Systems/rnas/2EEV

>  <Rbt.Executable>
rbdock ($Id: //depot/dev/client3/rdock/2013.1/src/exe/rbdock.cxx#4 $)

>  <Rbt.Library>
libRbt.so (2013.1, Build901 2013/11/27)

>  <Rbt.Parameter_File>
/export/apps/rDock/src/rDock_2013.1_src/data/scripts/dock_solv.prm

>  <Rbt.Receptor>
prm/pocket_docking_5.prm

>  <SCORE>
-19.7503

>  <SCORE.INTER>
-19.7503

>  <SCORE.INTER.CONST>
1

>  <SCORE.INTER.POLAR>
0

>  <SCORE.INTER.ROT>
0

>  <SCORE.INTER.SOLV>
4.22095

>  <SCORE.INTER.VDW>
-18.1739

>  <SCORE.INTER.norm>
-1.97503

>  <SCORE.INTRA>
0

>  <SCORE.INTRA.DIHEDRAL>
0

>  <SCORE.INTRA.DIHEDRAL.0>
0

>  <SCORE.INTRA.POLAR>
0

>  <SCORE.INTRA.POLAR.0>
0

>  <SCORE.INTRA.REPUL>
0

>  <SCORE.INTRA.REPUL.0>
0

>  <SCORE.INTRA.SOLV>
0

>  <SCORE.INTRA.SOLV.lig_0>
-4.25352

>  <SCORE.INTRA.VDW>
0

>  <SCORE.INTRA.VDW.0>
0

>  <SCORE.INTRA.norm>
0

>  <SCORE.RESTR>
0

>  <SCORE.RESTR.CAVITY>
0

>  <SCORE.RESTR.norm>
0

>  <SCORE.SYSTEM>
0

>  <SCORE.SYSTEM.CONST>
0

>  <SCORE.SYSTEM.DIHEDRAL>
0

>  <SCORE.SYSTEM.SOLV>
0

>  <SCORE.SYSTEM.norm>
0

>  <SCORE.heavy>
10

>  <SCORE.norm>
-1.97503

>  <RMSD>
0.352

$$$$
ligand
 OpenBabel11021811423D
libRbt.so/2013.1/901 2013/11/27
 10 11  0  0  0  0  0  0  0  0999 V2000
   53.5350  -13.3787    8.9814 N   0  0  0  0  0  0  0  0  0  0  0  0
   53.7590  -14.7045    9.2206 C   0  0  0  0  0  0  0  0  0  0  0  0
   54.0629  -15.5721    8.2203 N   0  0  0  0  0  0  0  0  0  0  0  0
   54.1226  -14.9737    6.9957 C   0  0  0  0  0  0  0  0  0  0  0  0
   53.9088  -13.6474    6.7024 C   0  0  0  0  0  0  0  0  0  0  0  0
   53.5885  -12.7500    7.7251 C   0  0  0  0  0  0  0  0  0  0  0  0
   53.3638  -11.5593    7.6639 O   0  0  0  0  0  0  0  0  0  0  0  0
   54.0678  -13.4671    5.3549 N   0  0  0  0  0  0  0  0  0  0  0  0
   54.3706  -14.6545    4.8408 C   0  0  0  0  0  0  0  0  0  0  0  0
   54.4144  -15.6257    5.8236 N   0  0  0  0  0  0  0  0  0  0  0  0
  1  2  1  0  0  0  0
  1  6  1  0  0  0  0
  2  3  2  0  0  0  0
  3  4  1  0  0  0  0
  4  5  2  0  0  0  0
  4 10  1  0  0  0  0
  5  6  1  0  0  0  0
  5  8  1  0  0  0  0
  6  7  2  0  0  0  0
  8  9  1  0  0  0  0
  9 10  2  0  0  0  0
M  END
>  <CHROM.1>
53.90863701,-13.98746809,7.16482529,-2.79753484,1.33486857,-0.93804899

>  <Name>
ligand

>  <RI>
0

>  <Rbt.Current_Directory>
/home/itssahil/PROJECTS/Mol_Feturizer/New_Systems/rnas/2EEV

>  <Rbt.Executable>
rbdock ($Id: //depot/dev/client3/rdock/2013.1/src/exe/rbdock.cxx#4 $)

>  <Rbt.Library>
libRbt.so (2013.1, Build901 2013/11/27)

>  <Rbt.Parameter_File>
/export/apps/rDock/src/rDock_2013.1_src/data/scripts/dock_solv.prm

>  <Rbt.Receptor>
prm/pocket_docking_7.prm

>  <SCORE>
-19.748

>  <SCORE.INTER>
-19.748

>  <SCORE.INTER.CONST>
1

>  <SCORE.INTER.POLAR>
0

>  <SCORE.INTER.ROT>
0

>  <SCORE.INTER.SOLV>
4.21845

>  <SCORE.INTER.VDW>
-18.1715

>  <SCORE.INTER.norm>
-1.9748

>  <SCORE.INTRA>
0

>  <SCORE.INTRA.DIHEDRAL>
0

>  <SCORE.INTRA.DIHEDRAL.0>
0

>  <SCORE.INTRA.POLAR>
0

>  <SCORE.INTRA.POLAR.0>
0

>  <SCORE.INTRA.REPUL>
0

>  <SCORE.INTRA.REPUL.0>
0

>  <SCORE.INTRA.SOLV>
0

>  <SCORE.INTRA.SOLV.lig_0>
-4.25352

>  <SCORE.INTRA.VDW>
0

>  <SCORE.INTRA.VDW.0>
0

>  <SCORE.INTRA.norm>
0

>  <SCORE.RESTR>
0

>  <SCORE.RESTR.CAVITY>
0

>  <SCORE.RESTR.norm>
0

>  <SCORE.SYSTEM>
0

>  <SCORE.SYSTEM.CONST>
0

>  <SCORE.SYSTEM.DIHEDRAL>
0

>  <SCORE.SYSTEM.SOLV>
0

>  <SCORE.SYSTEM.norm>
0

>  <SCORE.heavy>
10

>  <SCORE.norm>
-1.9748

>  <RMSD>
0.352

$$$$
ligand
 OpenBabel11021811423D
libRbt.so/2013.1/901 2013/11/27
 10 11  0  0  0  0  0  0  0  0999 V2000
   53.5096  -13.3606    8.9845 N   0  0  0  0  0  0  0  0  0  0  0  0
   53.7308  -14.6856    9.2312 C   0  0  0  0  0  0  0  0  0  0  0  0
   54.0369  -15.5586    8.2364 N   0  0  0  0  0  0  0  0  0  0  0  0
   54.1018  -14.9666    7.0090 C   0  0  0  0  0  0  0  0  0  0  0  0
   53.8910  -13.6414    6.7082 C   0  0  0  0  0  0  0  0  0  0  0  0
   53.5685  -12.7384    7.7252 C   0  0  0  0  0  0  0  0  0  0  0  0
   53.3457  -11.5477    7.6572 O   0  0  0  0  0  0  0  0  0  0  0  0
   54.0550  -13.4682    5.3604 N   0  0  0  0  0  0  0  0  0  0  0  0
   54.3580  -14.6587    4.8534 C   0  0  0  0  0  0  0  0  0  0  0  0
   54.3968  -15.6249    5.8412 N   0  0  0  0  0  0  0  0  0  0  0  0
  1  2  1  0  0  0  0
  1  6  1  0  0  0  0
  2  3  2  0  0  0  0
  3  4  1  0  0  0  0
  4  5  2  0  0  0  0
  4 10  1  0  0  0  0
  5  6  1  0  0  0  0
  5  8  1  0  0  0  0
  6  7  2  0  0  0  0
  8  9  1  0  0  0  0
  9 10  2  0  0  0  0
M  END
>  <CHROM.1>
53.88873591,-13.97914260,7.17234350,-2.81337741,1.33394348,-0.92771902

>  <Name>
ligand

>  <RI>
0

>  <Rbt.Current_Directory>
/home/itssahil/PROJECTS/Mol_Feturizer/New_Systems/rnas/2EEV

>  <Rbt.Executable>
rbdock ($Id: //depot/dev/client3/rdock/2013.1/src/exe/rbdock.cxx#4 $)

>  <Rbt.Library>
libRbt.so (2013.1, Build901 2013/11/27)

>  <Rbt.Parameter_File>
/export/apps/rDock/src/rDock_2013.1_src/data/scripts/dock_solv.prm

>  <Rbt.Receptor>
prm/pocket_docking_7.prm

>  <SCORE>
-19.6917

>  <SCORE.INTER>
-19.6917

>  <SCORE.INTER.CONST>
1

>  <SCORE.INTER.POLAR>
0

>  <SCORE.INTER.ROT>
0

>  <SCORE.INTER.SOLV>
4.23052

>  <SCORE.INTER.VDW>
-18.138

>  <SCORE.INTER.norm>
-1.96917

>  <SCORE.INTRA>
0

>  <SCORE.INTRA.DIHEDRAL>
0

>  <SCORE.INTRA.DIHEDRAL.0>
0

>  <SCORE.INTRA.POLAR>
0

>  <SCORE.INTRA.POLAR.0>
0

>  <SCORE.INTRA.REPUL>
0

>  <SCORE.INTRA.REPUL.0>
0

>  <SCORE.INTRA.SOLV>
0

>  <SCORE.INTRA.SOLV.lig_0>
-4.25352

>  <SCORE.INTRA.VDW>
0

>  <SCORE.INTRA.VDW.0>
0

>  <SCORE.INTRA.norm>
0

>  <SCORE.RESTR>
0

>  <SCORE.RESTR.CAVITY>
0

>  <SCORE.RESTR.norm>
0

>  <SCORE.SYSTEM>
0

>  <SCORE.SYSTEM.CONST>
0

>  <SCORE.SYSTEM.DIHEDRAL>
0

>  <SCORE.SYSTEM.SOLV>
0

>  <SCORE.SYSTEM.norm>
0

>  <SCORE.heavy>
10

>  <SCORE.norm>
-1.96917

>  <RMSD>
0.352

$$$$
ligand
 OpenBabel11021811423D
libRbt.so/2013.1/901 2013/11/27
 10 11  0  0  0  0  0  0  0  0999 V2000
   53.5298  -13.3791    8.9819 N   0  0  0  0  0  0  0  0  0  0  0  0
   53.7538  -14.7055    9.2175 C   0  0  0  0  0  0  0  0  0  0  0  0
   54.0578  -15.5704    8.2148 N   0  0  0  0  0  0  0  0  0  0  0  0
   54.1175  -14.9686    6.9919 C   0  0  0  0  0  0  0  0  0  0  0  0
   53.9037  -13.6415    6.7022 C   0  0  0  0  0  0  0  0  0  0  0  0
   53.5834  -12.7469    7.7274 C   0  0  0  0  0  0  0  0  0  0  0  0
   53.3587  -11.5560    7.6695 O   0  0  0  0  0  0  0  0  0  0  0  0
   54.0627  -13.4575    5.3553 N   0  0  0  0  0  0  0  0  0  0  0  0
   54.3656  -14.6435    4.8379 C   0  0  0  0  0  0  0  0  0  0  0  0
   54.4093  -15.6174    5.8180 N   0  0  0  0  0  0  0  0  0  0  0  0
  1  2  1  0  0  0  0
  1  6  1  0  0  0  0
  2  3  2  0  0  0  0
  3  4  1  0  0  0  0
  4  5  2  0  0  0  0
  4 10  1  0  0  0  0
  5  6  1  0  0  0  0
  5  8  1  0  0  0  0
  6  7  2  0  0  0  0
  8  9  1  0  0  0  0
  9 10  2  0  0  0  0
M  END
>  <CHROM.1>
53.90354724,-13.98282863,7.16370191,-2.79770037,1.33485691,-0.93514702

>  <Name>
ligand

>  <RI>
0

>  <Rbt.Current_Directory>
/home/itssahil/PROJECTS/Mol_Feturizer/New_Systems/rnas/2EEV

>  <Rbt.Executable>
rbdock ($Id: //depot/dev/client3/rdock/2013.1/src/exe/rbdock.cxx#4 $)

>  <Rbt.Library>
libRbt.so (2013.1, Build901 2013/11/27)

>  <Rbt.Parameter_File>
/export/apps/rDock/src/rDock_2013.1_src/data/scripts/dock_solv.prm

>  <Rbt.Receptor>
prm/blind_docking_100.prm

>  <SCORE>
-19.7522

>  <SCORE.INTER>
-19.7522

>  <SCORE.INTER.CONST>
1

>  <SCORE.INTER.POLAR>
0

>  <SCORE.INTER.ROT>
0

>  <SCORE.INTER.SOLV>
4.22014

>  <SCORE.INTER.VDW>
-18.1748

>  <SCORE.INTER.norm>
-1.97522

>  <SCORE.INTRA>
0

>  <SCORE.INTRA.DIHEDRAL>
0

>  <SCORE.INTRA.DIHEDRAL.0>
0

>  <SCORE.INTRA.POLAR>
0

>  <SCORE.INTRA.POLAR.0>
0

>  <SCORE.INTRA.REPUL>
0

>  <SCORE.INTRA.REPUL.0>
0

>  <SCORE.INTRA.SOLV>
0

>  <SCORE.INTRA.SOLV.lig_0>
-4.25352

>  <SCORE.INTRA.VDW>
0

>  <SCORE.INTRA.VDW.0>
0

>  <SCORE.INTRA.norm>
0

>  <SCORE.RESTR>
0

>  <SCORE.RESTR.CAVITY>
0

>  <SCORE.RESTR.norm>
0

>  <SCORE.SYSTEM>
0

>  <SCORE.SYSTEM.CONST>
0

>  <SCORE.SYSTEM.DIHEDRAL>
0

>  <SCORE.SYSTEM.SOLV>
0

>  <SCORE.SYSTEM.norm>
0

>  <SCORE.heavy>
10

>  <SCORE.norm>
-1.97522

>  <RMSD>
0.353

$$$$
ligand
 OpenBabel11021811423D
libRbt.so/2013.1/901 2013/11/27
 10 11  0  0  0  0  0  0  0  0999 V2000
   53.5363  -13.3775    8.9848 N   0  0  0  0  0  0  0  0  0  0  0  0
   53.7564  -14.7045    9.2209 C   0  0  0  0  0  0  0  0  0  0  0  0
   54.0562  -15.5709    8.2183 N   0  0  0  0  0  0  0  0  0  0  0  0
   54.1160  -14.9701    6.9949 C   0  0  0  0  0  0  0  0  0  0  0  0
   53.9061  -13.6425    6.7048 C   0  0  0  0  0  0  0  0  0  0  0  0
   53.5901  -12.7463    7.7298 C   0  0  0  0  0  0  0  0  0  0  0  0
   53.3691  -11.5547    7.6715 O   0  0  0  0  0  0  0  0  0  0  0  0
   54.0638  -13.4598    5.3574 N   0  0  0  0  0  0  0  0  0  0  0  0
   54.3622  -14.6471    4.8404 C   0  0  0  0  0  0  0  0  0  0  0  0
   54.4042  -15.6205    5.8210 N   0  0  0  0  0  0  0  0  0  0  0  0
  1  2  1  0  0  0  0
  1  6  1  0  0  0  0
  2  3  2  0  0  0  0
  3  4  1  0  0  0  0
  4  5  2  0  0  0  0
  4 10  1  0  0  0  0
  5  6  1  0  0  0  0
  5  8  1  0  0  0  0
  6  7  2  0  0  0  0
  8  9  1  0  0  0  0
  9 10  2  0  0  0  0
M  END
>  <CHROM.1>
53.90549818,-13.98355028,7.16642463,-2.80090795,1.33825435,-0.93262832

>  <Name>
ligand

>  <RI>
0

>  <Rbt.Current_Directory>
/home/itssahil/PROJECTS/Mol_Feturizer/New_Systems/rnas/2EEV

>  <Rbt.Executable>
rbdock ($Id: //depot/dev/client3/rdock/2013.1/src/exe/rbdock.cxx#4 $)

>  <Rbt.Library>
libRbt.so (2013.1, Build901 2013/11/27)

>  <Rbt.Parameter_File>
/export/apps/rDock/src/rDock_2013.1_src/data/scripts/dock_solv.prm

>  <Rbt.Receptor>
prm/blind_docking_60.prm

>  <SCORE>
-19.7487

>  <SCORE.INTER>
-19.7487

>  <SCORE.INTER.CONST>
1

>  <SCORE.INTER.POLAR>
0

>  <SCORE.INTER.ROT>
0

>  <SCORE.INTER.SOLV>
4.22868

>  <SCORE.INTER.VDW>
-18.1754

>  <SCORE.INTER.norm>
-1.97487

>  <SCORE.INTRA>
0

>  <SCORE.INTRA.DIHEDRAL>
0

>  <SCORE.INTRA.DIHEDRAL.0>
0

>  <SCORE.INTRA.POLAR>
0

>  <SCORE.INTRA.POLAR.0>
0

>  <SCORE.INTRA.REPUL>
0

>  <SCORE.INTRA.REPUL.0>
0

>  <SCORE.INTRA.SOLV>
0

>  <SCORE.INTRA.SOLV.lig_0>
-4.25352

>  <SCORE.INTRA.VDW>
0

>  <SCORE.INTRA.VDW.0>
0

>  <SCORE.INTRA.norm>
0

>  <SCORE.RESTR>
0

>  <SCORE.RESTR.CAVITY>
0

>  <SCORE.RESTR.norm>
0

>  <SCORE.SYSTEM>
0

>  <SCORE.SYSTEM.CONST>
0

>  <SCORE.SYSTEM.DIHEDRAL>
0

>  <SCORE.SYSTEM.SOLV>
0

>  <SCORE.SYSTEM.norm>
0

>  <SCORE.heavy>
10

>  <SCORE.norm>
-1.97487

>  <RMSD>
0.353

$$$$
ligand
 OpenBabel11021811423D
libRbt.so/2013.1/901 2013/11/27
 10 11  0  0  0  0  0  0  0  0999 V2000
   53.5294  -13.3754    8.9826 N   0  0  0  0  0  0  0  0  0  0  0  0
   53.7558  -14.7013    9.2193 C   0  0  0  0  0  0  0  0  0  0  0  0
   54.0592  -15.5668    8.2171 N   0  0  0  0  0  0  0  0  0  0  0  0
   54.1158  -14.9664    6.9933 C   0  0  0  0  0  0  0  0  0  0  0  0
   53.8996  -13.6400    6.7025 C   0  0  0  0  0  0  0  0  0  0  0  0
   53.5798  -12.7447    7.7272 C   0  0  0  0  0  0  0  0  0  0  0  0
   53.3532  -11.5542    7.6683 O   0  0  0  0  0  0  0  0  0  0  0  0
   54.0559  -13.4573    5.3551 N   0  0  0  0  0  0  0  0  0  0  0  0
   54.3596  -14.6434    4.8385 C   0  0  0  0  0  0  0  0  0  0  0  0
   54.4065  -15.6161    5.8196 N   0  0  0  0  0  0  0  0  0  0  0  0
  1  2  1  0  0  0  0
  1  6  1  0  0  0  0
  2  3  2  0  0  0  0
  3  4  1  0  0  0  0
  4  5  2  0  0  0  0
  4 10  1  0  0  0  0
  5  6  1  0  0  0  0
  5  8  1  0  0  0  0
  6  7  2  0  0  0  0
  8  9  1  0  0  0  0
  9 10  2  0  0  0  0
M  END
>  <CHROM.1>
53.90074888,-13.98076154,7.16438032,-2.78766279,1.33472254,-0.94605952

>  <Name>
ligand

>  <RI>
0

>  <Rbt.Current_Directory>
/home/itssahil/PROJECTS/Mol_Feturizer/New_Systems/rnas/2EEV

>  <Rbt.Executable>
rbdock ($Id: //depot/dev/client3/rdock/2013.1/src/exe/rbdock.cxx#4 $)

>  <Rbt.Library>
libRbt.so (2013.1, Build901 2013/11/27)

>  <Rbt.Parameter_File>
/export/apps/rDock/src/rDock_2013.1_src/data/scripts/dock_solv.prm

>  <Rbt.Receptor>
prm/blind_docking_80.prm

>  <SCORE>
-19.7541

>  <SCORE.INTER>
-19.7541

>  <SCORE.INTER.CONST>
1

>  <SCORE.INTER.POLAR>
0

>  <SCORE.INTER.ROT>
0

>  <SCORE.INTER.SOLV>
4.21822

>  <SCORE.INTER.VDW>
-18.1755

>  <SCORE.INTER.norm>
-1.97541

>  <SCORE.INTRA>
0

>  <SCORE.INTRA.DIHEDRAL>
0

>  <SCORE.INTRA.DIHEDRAL.0>
0

>  <SCORE.INTRA.POLAR>
0

>  <SCORE.INTRA.POLAR.0>
0

>  <SCORE.INTRA.REPUL>
0

>  <SCORE.INTRA.REPUL.0>
0

>  <SCORE.INTRA.SOLV>
0

>  <SCORE.INTRA.SOLV.lig_0>
-4.25352

>  <SCORE.INTRA.VDW>
0

>  <SCORE.INTRA.VDW.0>
0

>  <SCORE.INTRA.norm>
0

>  <SCORE.RESTR>
0

>  <SCORE.RESTR.CAVITY>
0

>  <SCORE.RESTR.norm>
0

>  <SCORE.SYSTEM>
0

>  <SCORE.SYSTEM.CONST>
0

>  <SCORE.SYSTEM.DIHEDRAL>
0

>  <SCORE.SYSTEM.SOLV>
0

>  <SCORE.SYSTEM.norm>
0

>  <SCORE.heavy>
10

>  <SCORE.norm>
-1.97541

>  <RMSD>
0.353

$$$$
ligand
 OpenBabel11021811423D
libRbt.so/2013.1/901 2013/11/27
 10 11  0  0  0  0  0  0  0  0999 V2000
   53.5298  -13.3779    8.9809 N   0  0  0  0  0  0  0  0  0  0  0  0
   53.7555  -14.7037    9.2187 C   0  0  0  0  0  0  0  0  0  0  0  0
   54.0604  -15.5698    8.2174 N   0  0  0  0  0  0  0  0  0  0  0  0
   54.1193  -14.9701    6.9934 C   0  0  0  0  0  0  0  0  0  0  0  0
   53.9038  -13.6437    6.7016 C   0  0  0  0  0  0  0  0  0  0  0  0
   53.5825  -12.7478    7.7253 C   0  0  0  0  0  0  0  0  0  0  0  0
   53.3563  -11.5573    7.6654 O   0  0  0  0  0  0  0  0  0  0  0  0
   54.0625  -13.4617    5.3543 N   0  0  0  0  0  0  0  0  0  0  0  0
   54.3668  -14.6482    4.8389 C   0  0  0  0  0  0  0  0  0  0  0  0
   54.4118  -15.6204    5.8206 N   0  0  0  0  0  0  0  0  0  0  0  0
  1  2  1  0  0  0  0
  1  6  1  0  0  0  0
  2  3  2  0  0  0  0
  3  4  1  0  0  0  0
  4  5  2  0  0  0  0
  4 10  1  0  0  0  0
  5  6  1  0  0  0  0
  5  8  1  0  0  0  0
  6  7  2  0  0  0  0
  8  9  1  0  0  0  0
  9 10  2  0  0  0  0
M  END
>  <CHROM.1>
53.90410846,-13.98422774,7.16362769,-2.79425253,1.33389237,-0.94017628

>  <Name>
ligand

>  <RI>
0

>  <Rbt.Current_Directory>
/home/itssahil/PROJECTS/Mol_Feturizer/New_Systems/rnas/2EEV

>  <Rbt.Executable>
rbdock ($Id: //depot/dev/client3/rdock/2013.1/src/exe/rbdock.cxx#4 $)

>  <Rbt.Library>
libRbt.so (2013.1, Build901 2013/11/27)

>  <Rbt.Parameter_File>
/export/apps/rDock/src/rDock_2013.1_src/data/scripts/dock_solv.prm

>  <Rbt.Receptor>
prm/blind_docking_80.prm

>  <SCORE>
-19.7528

>  <SCORE.INTER>
-19.7528

>  <SCORE.INTER.CONST>
1

>  <SCORE.INTER.POLAR>
0

>  <SCORE.INTER.ROT>
0

>  <SCORE.INTER.SOLV>
4.21677

>  <SCORE.INTER.VDW>
-18.1741

>  <SCORE.INTER.norm>
-1.97528

>  <SCORE.INTRA>
0

>  <SCORE.INTRA.DIHEDRAL>
0

>  <SCORE.INTRA.DIHEDRAL.0>
0

>  <SCORE.INTRA.POLAR>
0

>  <SCORE.INTRA.POLAR.0>
0

>  <SCORE.INTRA.REPUL>
0

>  <SCORE.INTRA.REPUL.0>
0

>  <SCORE.INTRA.SOLV>
0

>  <SCORE.INTRA.SOLV.lig_0>
-4.25352

>  <SCORE.INTRA.VDW>
0

>  <SCORE.INTRA.VDW.0>
0

>  <SCORE.INTRA.norm>
0

>  <SCORE.RESTR>
0

>  <SCORE.RESTR.CAVITY>
0

>  <SCORE.RESTR.norm>
0

>  <SCORE.SYSTEM>
0

>  <SCORE.SYSTEM.CONST>
0

>  <SCORE.SYSTEM.DIHEDRAL>
0

>  <SCORE.SYSTEM.SOLV>
0

>  <SCORE.SYSTEM.norm>
0

>  <SCORE.heavy>
10

>  <SCORE.norm>
-1.97528

>  <RMSD>
0.353

$$$$
ligand
 OpenBabel11021811423D
libRbt.so/2013.1/901 2013/11/27
 10 11  0  0  0  0  0  0  0  0999 V2000
   53.5352  -13.3839    8.9787 N   0  0  0  0  0  0  0  0  0  0  0  0
   53.7532  -14.7103    9.2201 C   0  0  0  0  0  0  0  0  0  0  0  0
   54.0581  -15.5800    8.2219 N   0  0  0  0  0  0  0  0  0  0  0  0
   54.1254  -14.9830    6.9970 C   0  0  0  0  0  0  0  0  0  0  0  0
   53.9180  -13.6562    6.7016 C   0  0  0  0  0  0  0  0  0  0  0  0
   53.5967  -12.7566    7.7220 C   0  0  0  0  0  0  0  0  0  0  0  0
   53.3767  -11.5651    7.6588 O   0  0  0  0  0  0  0  0  0  0  0  0
   54.0835  -13.4778    5.3547 N   0  0  0  0  0  0  0  0  0  0  0  0
   54.3841  -14.6668    4.8430 C   0  0  0  0  0  0  0  0  0  0  0  0
   54.4199  -15.6372    5.8268 N   0  0  0  0  0  0  0  0  0  0  0  0
  1  2  1  0  0  0  0
  1  6  1  0  0  0  0
  2  3  2  0  0  0  0
  3  4  1  0  0  0  0
  4  5  2  0  0  0  0
  4 10  1  0  0  0  0
  5  6  1  0  0  0  0
  5  8  1  0  0  0  0
  6  7  2  0  0  0  0
  8  9  1  0  0  0  0
  9 10  2  0  0  0  0
M  END
>  <CHROM.1>
53.91452031,-13.99578564,7.16431758,-2.82230462,1.33527939,-0.91491078

>  <Name>
ligand

>  <RI>
0

>  <Rbt.Current_Directory>
/home/itssahil/PROJECTS/Mol_Feturizer/New_Systems/rnas/2EEV

>  <Rbt.Executable>
rbdock ($Id: //depot/dev/client3/rdock/2013.1/src/exe/rbdock.cxx#4 $)

>  <Rbt.Library>
libRbt.so (2013.1, Build901 2013/11/27)

>  <Rbt.Parameter_File>
/export/apps/rDock/src/rDock_2013.1_src/data/scripts/dock_solv.prm

>  <Rbt.Receptor>
prm/blind_docking_80.prm

>  <SCORE>
-19.7348

>  <SCORE.INTER>
-19.7348

>  <SCORE.INTER.CONST>
1

>  <SCORE.INTER.POLAR>
0

>  <SCORE.INTER.ROT>
0

>  <SCORE.INTER.SOLV>
4.22722

>  <SCORE.INTER.VDW>
-18.1656

>  <SCORE.INTER.norm>
-1.97348

>  <SCORE.INTRA>
0

>  <SCORE.INTRA.DIHEDRAL>
0

>  <SCORE.INTRA.DIHEDRAL.0>
0

>  <SCORE.INTRA.POLAR>
0

>  <SCORE.INTRA.POLAR.0>
0

>  <SCORE.INTRA.REPUL>
0

>  <SCORE.INTRA.REPUL.0>
0

>  <SCORE.INTRA.SOLV>
0

>  <SCORE.INTRA.SOLV.lig_0>
-4.25352

>  <SCORE.INTRA.VDW>
0

>  <SCORE.INTRA.VDW.0>
0

>  <SCORE.INTRA.norm>
0

>  <SCORE.RESTR>
0

>  <SCORE.RESTR.CAVITY>
0

>  <SCORE.RESTR.norm>
0

>  <SCORE.SYSTEM>
0

>  <SCORE.SYSTEM.CONST>
0

>  <SCORE.SYSTEM.DIHEDRAL>
0

>  <SCORE.SYSTEM.SOLV>
0

>  <SCORE.SYSTEM.norm>
0

>  <SCORE.heavy>
10

>  <SCORE.norm>
-1.97348

>  <RMSD>
0.353

$$$$
ligand
 OpenBabel11021811423D
libRbt.so/2013.1/901 2013/11/27
 10 11  0  0  0  0  0  0  0  0999 V2000
   53.5127  -13.3563    8.9928 N   0  0  0  0  0  0  0  0  0  0  0  0
   53.7234  -14.6844    9.2319 C   0  0  0  0  0  0  0  0  0  0  0  0
   54.0224  -15.5541    8.2320 N   0  0  0  0  0  0  0  0  0  0  0  0
   54.0918  -14.9555    7.0080 C   0  0  0  0  0  0  0  0  0  0  0  0
   53.8916  -13.6270    6.7149 C   0  0  0  0  0  0  0  0  0  0  0  0
   53.5765  -12.7273    7.7372 C   0  0  0  0  0  0  0  0  0  0  0  0
   53.3633  -11.5345    7.6761 O   0  0  0  0  0  0  0  0  0  0  0  0
   54.0569  -13.4474    5.3681 N   0  0  0  0  0  0  0  0  0  0  0  0
   54.3502  -14.6373    4.8542 C   0  0  0  0  0  0  0  0  0  0  0  0
   54.3814  -15.6095    5.8364 N   0  0  0  0  0  0  0  0  0  0  0  0
  1  2  1  0  0  0  0
  1  6  1  0  0  0  0
  2  3  2  0  0  0  0
  3  4  1  0  0  0  0
  4  5  2  0  0  0  0
  4 10  1  0  0  0  0
  5  6  1  0  0  0  0
  5  8  1  0  0  0  0
  6  7  2  0  0  0  0
  8  9  1  0  0  0  0
  9 10  2  0  0  0  0
M  END
>  <CHROM.1>
53.88673250,-13.96738582,7.17709531,-2.83404334,1.34038966,-0.90185199

>  <Name>
ligand

>  <RI>
0

>  <Rbt.Current_Directory>
/home/itssahil/PROJECTS/Mol_Feturizer/New_Systems/rnas/2EEV

>  <Rbt.Executable>
rbdock ($Id: //depot/dev/client3/rdock/2013.1/src/exe/rbdock.cxx#4 $)

>  <Rbt.Library>
libRbt.so (2013.1, Build901 2013/11/27)

>  <Rbt.Parameter_File>
/export/apps/rDock/src/rDock_2013.1_src/data/scripts/dock_solv.prm

>  <Rbt.Receptor>
prm/pocket_docking_3.prm

>  <SCORE>
-19.7044

>  <SCORE.INTER>
-19.7044

>  <SCORE.INTER.CONST>
1

>  <SCORE.INTER.POLAR>
0

>  <SCORE.INTER.ROT>
0

>  <SCORE.INTER.SOLV>
4.25324

>  <SCORE.INTER.VDW>
-18.154

>  <SCORE.INTER.norm>
-1.97044

>  <SCORE.INTRA>
0

>  <SCORE.INTRA.DIHEDRAL>
0

>  <SCORE.INTRA.DIHEDRAL.0>
0

>  <SCORE.INTRA.POLAR>
0

>  <SCORE.INTRA.POLAR.0>
0

>  <SCORE.INTRA.REPUL>
0

>  <SCORE.INTRA.REPUL.0>
0

>  <SCORE.INTRA.SOLV>
0

>  <SCORE.INTRA.SOLV.lig_0>
-4.25352

>  <SCORE.INTRA.VDW>
0

>  <SCORE.INTRA.VDW.0>
0

>  <SCORE.INTRA.norm>
0

>  <SCORE.RESTR>
0

>  <SCORE.RESTR.CAVITY>
0

>  <SCORE.RESTR.norm>
0

>  <SCORE.SYSTEM>
0

>  <SCORE.SYSTEM.CONST>
0

>  <SCORE.SYSTEM.DIHEDRAL>
0

>  <SCORE.SYSTEM.SOLV>
0

>  <SCORE.SYSTEM.norm>
0

>  <SCORE.heavy>
10

>  <SCORE.norm>
-1.97044

>  <RMSD>
0.353

$$$$
ligand
 OpenBabel11021811423D
libRbt.so/2013.1/901 2013/11/27
 10 11  0  0  0  0  0  0  0  0999 V2000
   53.5359  -13.3827    8.9857 N   0  0  0  0  0  0  0  0  0  0  0  0
   53.7527  -14.7107    9.2192 C   0  0  0  0  0  0  0  0  0  0  0  0
   54.0513  -15.5757    8.2150 N   0  0  0  0  0  0  0  0  0  0  0  0
   54.1137  -14.9725    6.9929 C   0  0  0  0  0  0  0  0  0  0  0  0
   53.9071  -13.6438    6.7054 C   0  0  0  0  0  0  0  0  0  0  0  0
   53.5923  -12.7490    7.7320 C   0  0  0  0  0  0  0  0  0  0  0  0
   53.3741  -11.5568    7.6760 O   0  0  0  0  0  0  0  0  0  0  0  0
   54.0665  -13.4587    5.3586 N   0  0  0  0  0  0  0  0  0  0  0  0
   54.3625  -14.6456    4.8393 C   0  0  0  0  0  0  0  0  0  0  0  0
   54.4014  -15.6211    5.8179 N   0  0  0  0  0  0  0  0  0  0  0  0
  1  2  1  0  0  0  0
  1  6  1  0  0  0  0
  2  3  2  0  0  0  0
  3  4  1  0  0  0  0
  4  5  2  0  0  0  0
  4 10  1  0  0  0  0
  5  6  1  0  0  0  0
  5  8  1  0  0  0  0
  6  7  2  0  0  0  0
  8  9  1  0  0  0  0
  9 10  2  0  0  0  0
M  END
>  <CHROM.1>
53.90531934,-13.98580581,7.16632239,-2.81011391,1.33957644,-0.92158286

>  <Name>
ligand

>  <RI>
0

>  <Rbt.Current_Directory>
/home/itssahil/PROJECTS/Mol_Feturizer/New_Systems/rnas/2EEV

>  <Rbt.Executable>
rbdock ($Id: //depot/dev/client3/rdock/2013.1/src/exe/rbdock.cxx#4 $)

>  <Rbt.Library>
libRbt.so (2013.1, Build901 2013/11/27)

>  <Rbt.Parameter_File>
/export/apps/rDock/src/rDock_2013.1_src/data/scripts/dock_solv.prm

>  <Rbt.Receptor>
prm/pocket_docking_4.prm

>  <SCORE>
-19.7482

>  <SCORE.INTER>
-19.7482

>  <SCORE.INTER.CONST>
1

>  <SCORE.INTER.POLAR>
0

>  <SCORE.INTER.ROT>
0

>  <SCORE.INTER.SOLV>
4.23454

>  <SCORE.INTER.VDW>
-18.177

>  <SCORE.INTER.norm>
-1.97482

>  <SCORE.INTRA>
0

>  <SCORE.INTRA.DIHEDRAL>
0

>  <SCORE.INTRA.DIHEDRAL.0>
0

>  <SCORE.INTRA.POLAR>
0

>  <SCORE.INTRA.POLAR.0>
0

>  <SCORE.INTRA.REPUL>
0

>  <SCORE.INTRA.REPUL.0>
0

>  <SCORE.INTRA.SOLV>
0

>  <SCORE.INTRA.SOLV.lig_0>
-4.25352

>  <SCORE.INTRA.VDW>
0

>  <SCORE.INTRA.VDW.0>
0

>  <SCORE.INTRA.norm>
0

>  <SCORE.RESTR>
0

>  <SCORE.RESTR.CAVITY>
0

>  <SCORE.RESTR.norm>
0

>  <SCORE.SYSTEM>
0

>  <SCORE.SYSTEM.CONST>
0

>  <SCORE.SYSTEM.DIHEDRAL>
0

>  <SCORE.SYSTEM.SOLV>
0

>  <SCORE.SYSTEM.norm>
0

>  <SCORE.heavy>
10

>  <SCORE.norm>
-1.97482

>  <RMSD>
0.353

$$$$
ligand
 OpenBabel11021811423D
libRbt.so/2013.1/901 2013/11/27
 10 11  0  0  0  0  0  0  0  0999 V2000
   53.5180  -13.4312    8.9829 N   0  0  0  0  0  0  0  0  0  0  0  0
   53.7351  -14.7591    9.2168 C   0  0  0  0  0  0  0  0  0  0  0  0
   54.0364  -15.6239    8.2133 N   0  0  0  0  0  0  0  0  0  0  0  0
   54.1010  -15.0207    6.9913 C   0  0  0  0  0  0  0  0  0  0  0  0
   53.8943  -13.6921    6.7034 C   0  0  0  0  0  0  0  0  0  0  0  0
   53.5768  -12.7974    7.7293 C   0  0  0  0  0  0  0  0  0  0  0  0
   53.3580  -11.6054    7.6729 O   0  0  0  0  0  0  0  0  0  0  0  0
   54.0564  -13.5068    5.3569 N   0  0  0  0  0  0  0  0  0  0  0  0
   54.3543  -14.6935    4.8382 C   0  0  0  0  0  0  0  0  0  0  0  0
   54.3916  -15.6691    5.8169 N   0  0  0  0  0  0  0  0  0  0  0  0
  1  2  1  0  0  0  0
  1  6  1  0  0  0  0
  2  3  2  0  0  0  0
  3  4  1  0  0  0  0
  4  5  2  0  0  0  0
  4 10  1  0  0  0  0
  5  6  1  0  0  0  0
  5  8  1  0  0  0  0
  6  7  2  0  0  0  0
  8  9  1  0  0  0  0
  9 10  2  0  0  0  0
M  END
>  <CHROM.1>
53.89170101,-14.03407356,7.16429750,-2.81597309,1.33782559,-0.91585155

>  <Name>
ligand

>  <RI>
0

>  <Rbt.Current_Directory>
/home/itssahil/PROJECTS/Mol_Feturizer/New_Systems/rnas/2EEV

>  <Rbt.Executable>
rbdock ($Id: //depot/dev/client3/rdock/2013.1/src/exe/rbdock.cxx#4 $)

>  <Rbt.Library>
libRbt.so (2013.1, Build901 2013/11/27)

>  <Rbt.Parameter_File>
/export/apps/rDock/src/rDock_2013.1_src/data/scripts/dock_solv.prm

>  <Rbt.Receptor>
prm/pocket_docking_7.prm

>  <SCORE>
-19.6711

>  <SCORE.INTER>
-19.6711

>  <SCORE.INTER.CONST>
1

>  <SCORE.INTER.POLAR>
0

>  <SCORE.INTER.ROT>
0

>  <SCORE.INTER.SOLV>
4.24549

>  <SCORE.INTER.VDW>
-18.1292

>  <SCORE.INTER.norm>
-1.96711

>  <SCORE.INTRA>
0

>  <SCORE.INTRA.DIHEDRAL>
0

>  <SCORE.INTRA.DIHEDRAL.0>
0

>  <SCORE.INTRA.POLAR>
0

>  <SCORE.INTRA.POLAR.0>
0

>  <SCORE.INTRA.REPUL>
0

>  <SCORE.INTRA.REPUL.0>
0

>  <SCORE.INTRA.SOLV>
0

>  <SCORE.INTRA.SOLV.lig_0>
-4.25352

>  <SCORE.INTRA.VDW>
0

>  <SCORE.INTRA.VDW.0>
0

>  <SCORE.INTRA.norm>
0

>  <SCORE.RESTR>
0

>  <SCORE.RESTR.CAVITY>
0

>  <SCORE.RESTR.norm>
0

>  <SCORE.SYSTEM>
0

>  <SCORE.SYSTEM.CONST>
0

>  <SCORE.SYSTEM.DIHEDRAL>
0

>  <SCORE.SYSTEM.SOLV>
0

>  <SCORE.SYSTEM.norm>
0

>  <SCORE.heavy>
10

>  <SCORE.norm>
-1.96711

>  <RMSD>
0.353

$$$$
ligand
 OpenBabel11021811423D
libRbt.so/2013.1/901 2013/11/27
 10 11  0  0  0  0  0  0  0  0999 V2000
   53.5357  -13.3823    8.9862 N   0  0  0  0  0  0  0  0  0  0  0  0
   53.7523  -14.7103    9.2201 C   0  0  0  0  0  0  0  0  0  0  0  0
   54.0512  -15.5755    8.2162 N   0  0  0  0  0  0  0  0  0  0  0  0
   54.1140  -14.9726    6.9940 C   0  0  0  0  0  0  0  0  0  0  0  0
   53.9077  -13.6440    6.7061 C   0  0  0  0  0  0  0  0  0  0  0  0
   53.5926  -12.7488    7.7324 C   0  0  0  0  0  0  0  0  0  0  0  0
   53.3746  -11.5567    7.6760 O   0  0  0  0  0  0  0  0  0  0  0  0
   54.0676  -13.4591    5.3593 N   0  0  0  0  0  0  0  0  0  0  0  0
   54.3637  -14.6462    4.8404 C   0  0  0  0  0  0  0  0  0  0  0  0
   54.4021  -15.6215    5.8192 N   0  0  0  0  0  0  0  0  0  0  0  0
  1  2  1  0  0  0  0
  1  6  1  0  0  0  0
  2  3  2  0  0  0  0
  3  4  1  0  0  0  0
  4  5  2  0  0  0  0
  4 10  1  0  0  0  0
  5  6  1  0  0  0  0
  5  8  1  0  0  0  0
  6  7  2  0  0  0  0
  8  9  1  0  0  0  0
  9 10  2  0  0  0  0
M  END
>  <CHROM.1>
53.90570430,-13.98584386,7.16713461,-2.81167565,1.33945970,-0.92029011

>  <Name>
ligand

>  <RI>
0

>  <Rbt.Current_Directory>
/home/itssahil/PROJECTS/Mol_Feturizer/New_Systems/rnas/2EEV

>  <Rbt.Executable>
rbdock ($Id: //depot/dev/client3/rdock/2013.1/src/exe/rbdock.cxx#4 $)

>  <Rbt.Library>
libRbt.so (2013.1, Build901 2013/11/27)

>  <Rbt.Parameter_File>
/export/apps/rDock/src/rDock_2013.1_src/data/scripts/dock_solv.prm

>  <Rbt.Receptor>
prm/pocket_docking_8.prm

>  <SCORE>
-19.7476

>  <SCORE.INTER>
-19.7476

>  <SCORE.INTER.CONST>
1

>  <SCORE.INTER.POLAR>
0

>  <SCORE.INTER.ROT>
0

>  <SCORE.INTER.SOLV>
4.23457

>  <SCORE.INTER.VDW>
-18.1766

>  <SCORE.INTER.norm>
-1.97476

>  <SCORE.INTRA>
0

>  <SCORE.INTRA.DIHEDRAL>
0

>  <SCORE.INTRA.DIHEDRAL.0>
0

>  <SCORE.INTRA.POLAR>
0

>  <SCORE.INTRA.POLAR.0>
0

>  <SCORE.INTRA.REPUL>
0

>  <SCORE.INTRA.REPUL.0>
0

>  <SCORE.INTRA.SOLV>
0

>  <SCORE.INTRA.SOLV.lig_0>
-4.25352

>  <SCORE.INTRA.VDW>
0

>  <SCORE.INTRA.VDW.0>
0

>  <SCORE.INTRA.norm>
0

>  <SCORE.RESTR>
0

>  <SCORE.RESTR.CAVITY>
0

>  <SCORE.RESTR.norm>
0

>  <SCORE.SYSTEM>
0

>  <SCORE.SYSTEM.CONST>
0

>  <SCORE.SYSTEM.DIHEDRAL>
0

>  <SCORE.SYSTEM.SOLV>
0

>  <SCORE.SYSTEM.norm>
0

>  <SCORE.heavy>
10

>  <SCORE.norm>
-1.97476

>  <RMSD>
0.353

$$$$
ligand
 OpenBabel11021811423D
libRbt.so/2013.1/901 2013/11/27
 10 11  0  0  0  0  0  0  0  0999 V2000
   53.5256  -13.3923    8.9817 N   0  0  0  0  0  0  0  0  0  0  0  0
   53.7522  -14.7178    9.2206 C   0  0  0  0  0  0  0  0  0  0  0  0
   54.0526  -15.5855    8.2193 N   0  0  0  0  0  0  0  0  0  0  0  0
   54.1060  -14.9876    6.9941 C   0  0  0  0  0  0  0  0  0  0  0  0
   53.8894  -13.6617    6.7012 C   0  0  0  0  0  0  0  0  0  0  0  0
   53.5728  -12.7641    7.7249 C   0  0  0  0  0  0  0  0  0  0  0  0
   53.3465  -11.5737    7.6642 O   0  0  0  0  0  0  0  0  0  0  0  0
   54.0421  -13.4819    5.3529 N   0  0  0  0  0  0  0  0  0  0  0  0
   54.3440  -14.6692    4.8380 C   0  0  0  0  0  0  0  0  0  0  0  0
   54.3933  -15.6399    5.8210 N   0  0  0  0  0  0  0  0  0  0  0  0
  1  2  1  0  0  0  0
  1  6  1  0  0  0  0
  2  3  2  0  0  0  0
  3  4  1  0  0  0  0
  4  5  2  0  0  0  0
  4 10  1  0  0  0  0
  5  6  1  0  0  0  0
  5  8  1  0  0  0  0
  6  7  2  0  0  0  0
  8  9  1  0  0  0  0
  9 10  2  0  0  0  0
M  END
>  <CHROM.1>
53.89177197,-14.00152483,7.16375381,-2.77903837,1.33660912,-0.95651620

>  <Name>
ligand

>  <RI>
0

>  <Rbt.Current_Directory>
/home/itssahil/PROJECTS/Mol_Feturizer/New_Systems/rnas/2EEV

>  <Rbt.Executable>
rbdock ($Id: //depot/dev/client3/rdock/2013.1/src/exe/rbdock.cxx#4 $)

>  <Rbt.Library>
libRbt.so (2013.1, Build901 2013/11/27)

>  <Rbt.Parameter_File>
/export/apps/rDock/src/rDock_2013.1_src/data/scripts/dock_solv.prm

>  <Rbt.Receptor>
prm/pocket_docking_8.prm

>  <SCORE>
-19.6876

>  <SCORE.INTER>
-19.6876

>  <SCORE.INTER.CONST>
1

>  <SCORE.INTER.POLAR>
0

>  <SCORE.INTER.ROT>
0

>  <SCORE.INTER.SOLV>
4.22797

>  <SCORE.INTER.VDW>
-18.1344

>  <SCORE.INTER.norm>
-1.96876

>  <SCORE.INTRA>
0

>  <SCORE.INTRA.DIHEDRAL>
0

>  <SCORE.INTRA.DIHEDRAL.0>
0

>  <SCORE.INTRA.POLAR>
0

>  <SCORE.INTRA.POLAR.0>
0

>  <SCORE.INTRA.REPUL>
0

>  <SCORE.INTRA.REPUL.0>
0

>  <SCORE.INTRA.SOLV>
0

>  <SCORE.INTRA.SOLV.lig_0>
-4.25352

>  <SCORE.INTRA.VDW>
0

>  <SCORE.INTRA.VDW.0>
0

>  <SCORE.INTRA.norm>
0

>  <SCORE.RESTR>
0

>  <SCORE.RESTR.CAVITY>
0

>  <SCORE.RESTR.norm>
0

>  <SCORE.SYSTEM>
0

>  <SCORE.SYSTEM.CONST>
0

>  <SCORE.SYSTEM.DIHEDRAL>
0

>  <SCORE.SYSTEM.SOLV>
0

>  <SCORE.SYSTEM.norm>
0

>  <SCORE.heavy>
10

>  <SCORE.norm>
-1.96876

>  <RMSD>
0.353

$$$$
ligand
 OpenBabel11021811423D
libRbt.so/2013.1/901 2013/11/27
 10 11  0  0  0  0  0  0  0  0999 V2000
   53.5534  -13.3644    8.9801 N   0  0  0  0  0  0  0  0  0  0  0  0
   53.7921  -14.6880    9.2176 C   0  0  0  0  0  0  0  0  0  0  0  0
   54.0944  -15.5531    8.2147 N   0  0  0  0  0  0  0  0  0  0  0  0
   54.1366  -14.9547    6.9893 C   0  0  0  0  0  0  0  0  0  0  0  0
   53.9076  -13.6306    6.6977 C   0  0  0  0  0  0  0  0  0  0  0  0
   53.5889  -12.7358    7.7231 C   0  0  0  0  0  0  0  0  0  0  0  0
   53.3524  -11.5472    7.6638 O   0  0  0  0  0  0  0  0  0  0  0  0
   54.0518  -13.4494    5.3487 N   0  0  0  0  0  0  0  0  0  0  0  0
   54.3608  -14.6341    4.8321 C   0  0  0  0  0  0  0  0  0  0  0  0
   54.4231  -15.6044    5.8146 N   0  0  0  0  0  0  0  0  0  0  0  0
  1  2  1  0  0  0  0
  1  6  1  0  0  0  0
  2  3  2  0  0  0  0
  3  4  1  0  0  0  0
  4  5  2  0  0  0  0
  4 10  1  0  0  0  0
  5  6  1  0  0  0  0
  5  8  1  0  0  0  0
  6  7  2  0  0  0  0
  8  9  1  0  0  0  0
  9 10  2  0  0  0  0
M  END
>  <CHROM.1>
53.91510140,-13.97041760,7.16019207,-2.74091374,1.33268221,-0.99346865

>  <Name>
ligand

>  <RI>
0

>  <Rbt.Current_Directory>
/home/itssahil/PROJECTS/Mol_Feturizer/New_Systems/rnas/2EEV

>  <Rbt.Executable>
rbdock ($Id: //depot/dev/client3/rdock/2013.1/src/exe/rbdock.cxx#4 $)

>  <Rbt.Library>
libRbt.so (2013.1, Build901 2013/11/27)

>  <Rbt.Parameter_File>
/export/apps/rDock/src/rDock_2013.1_src/data/scripts/dock_solv.prm

>  <Rbt.Receptor>
prm/pocket_docking_8.prm

>  <SCORE>
-19.7287

>  <SCORE.INTER>
-19.7287

>  <SCORE.INTER.CONST>
1

>  <SCORE.INTER.POLAR>
0

>  <SCORE.INTER.ROT>
0

>  <SCORE.INTER.SOLV>
4.19403

>  <SCORE.INTER.VDW>
-18.1504

>  <SCORE.INTER.norm>
-1.97287

>  <SCORE.INTRA>
0

>  <SCORE.INTRA.DIHEDRAL>
0

>  <SCORE.INTRA.DIHEDRAL.0>
0

>  <SCORE.INTRA.POLAR>
0

>  <SCORE.INTRA.POLAR.0>
0

>  <SCORE.INTRA.REPUL>
0

>  <SCORE.INTRA.REPUL.0>
0

>  <SCORE.INTRA.SOLV>
0

>  <SCORE.INTRA.SOLV.lig_0>
-4.25352

>  <SCORE.INTRA.VDW>
0

>  <SCORE.INTRA.VDW.0>
0

>  <SCORE.INTRA.norm>
0

>  <SCORE.RESTR>
0

>  <SCORE.RESTR.CAVITY>
0

>  <SCORE.RESTR.norm>
0

>  <SCORE.SYSTEM>
0

>  <SCORE.SYSTEM.CONST>
0

>  <SCORE.SYSTEM.DIHEDRAL>
0

>  <SCORE.SYSTEM.SOLV>
0

>  <SCORE.SYSTEM.norm>
0

>  <SCORE.heavy>
10

>  <SCORE.norm>
-1.97287

>  <RMSD>
0.353

$$$$
ligand
 OpenBabel11021811423D
libRbt.so/2013.1/901 2013/11/27
 10 11  0  0  0  0  0  0  0  0999 V2000
   53.4737  -13.3374    8.9897 N   0  0  0  0  0  0  0  0  0  0  0  0
   53.6813  -14.6619    9.2502 C   0  0  0  0  0  0  0  0  0  0  0  0
   53.9909  -15.5461    8.2662 N   0  0  0  0  0  0  0  0  0  0  0  0
   54.0738  -14.9652    7.0345 C   0  0  0  0  0  0  0  0  0  0  0  0
   53.8772  -13.6411    6.7202 C   0  0  0  0  0  0  0  0  0  0  0  0
   53.5513  -12.7266    7.7258 C   0  0  0  0  0  0  0  0  0  0  0  0
   53.3391  -11.5348    7.6452 O   0  0  0  0  0  0  0  0  0  0  0  0
   54.0570  -13.4809    5.3728 N   0  0  0  0  0  0  0  0  0  0  0  0
   54.3555  -14.6782    4.8793 C   0  0  0  0  0  0  0  0  0  0  0  0
   54.3758  -15.6361    5.8757 N   0  0  0  0  0  0  0  0  0  0  0  0
  1  2  1  0  0  0  0
  1  6  1  0  0  0  0
  2  3  2  0  0  0  0
  3  4  1  0  0  0  0
  4  5  2  0  0  0  0
  4 10  1  0  0  0  0
  5  6  1  0  0  0  0
  5  8  1  0  0  0  0
  6  7  2  0  0  0  0
  8  9  1  0  0  0  0
  9 10  2  0  0  0  0
M  END
>  <CHROM.1>
53.86715507,-13.97471341,7.18711232,-2.87105343,1.33377220,-0.88030500

>  <Name>
ligand

>  <RI>
0

>  <Rbt.Current_Directory>
/home/itssahil/PROJECTS/Mol_Feturizer/New_Systems/rnas/2EEV

>  <Rbt.Executable>
rbdock ($Id: //depot/dev/client3/rdock/2013.1/src/exe/rbdock.cxx#4 $)

>  <Rbt.Library>
libRbt.so (2013.1, Build901 2013/11/27)

>  <Rbt.Parameter_File>
/export/apps/rDock/src/rDock_2013.1_src/data/scripts/dock_solv.prm

>  <Rbt.Receptor>
prm/blind_docking_100.prm

>  <SCORE>
-19.7027

>  <SCORE.INTER>
-19.7027

>  <SCORE.INTER.CONST>
1

>  <SCORE.INTER.POLAR>
0

>  <SCORE.INTER.ROT>
0

>  <SCORE.INTER.SOLV>
4.26382

>  <SCORE.INTER.VDW>
-18.1564

>  <SCORE.INTER.norm>
-1.97027

>  <SCORE.INTRA>
0

>  <SCORE.INTRA.DIHEDRAL>
0

>  <SCORE.INTRA.DIHEDRAL.0>
0

>  <SCORE.INTRA.POLAR>
0

>  <SCORE.INTRA.POLAR.0>
0

>  <SCORE.INTRA.REPUL>
0

>  <SCORE.INTRA.REPUL.0>
0

>  <SCORE.INTRA.SOLV>
0

>  <SCORE.INTRA.SOLV.lig_0>
-4.25352

>  <SCORE.INTRA.VDW>
0

>  <SCORE.INTRA.VDW.0>
0

>  <SCORE.INTRA.norm>
0

>  <SCORE.RESTR>
0

>  <SCORE.RESTR.CAVITY>
0

>  <SCORE.RESTR.norm>
0

>  <SCORE.SYSTEM>
0

>  <SCORE.SYSTEM.CONST>
0

>  <SCORE.SYSTEM.DIHEDRAL>
0

>  <SCORE.SYSTEM.SOLV>
0

>  <SCORE.SYSTEM.norm>
0

>  <SCORE.heavy>
10

>  <SCORE.norm>
-1.97027

>  <RMSD>
0.354

$$$$
ligand
 OpenBabel11021811423D
libRbt.so/2013.1/901 2013/11/27
 10 11  0  0  0  0  0  0  0  0999 V2000
   53.5304  -13.3859    8.9797 N   0  0  0  0  0  0  0  0  0  0  0  0
   53.7504  -14.7131    9.2151 C   0  0  0  0  0  0  0  0  0  0  0  0
   54.0564  -15.5778    8.2129 N   0  0  0  0  0  0  0  0  0  0  0  0
   54.1225  -14.9751    6.9907 C   0  0  0  0  0  0  0  0  0  0  0  0
   53.9131  -13.6473    6.7014 C   0  0  0  0  0  0  0  0  0  0  0  0
   53.5907  -12.7528    7.7259 C   0  0  0  0  0  0  0  0  0  0  0  0
   53.3691  -11.5613    7.6681 O   0  0  0  0  0  0  0  0  0  0  0  0
   54.0782  -13.4625    5.3552 N   0  0  0  0  0  0  0  0  0  0  0  0
   54.3804  -14.6487    4.8381 C   0  0  0  0  0  0  0  0  0  0  0  0
   54.4177  -15.6236    5.8174 N   0  0  0  0  0  0  0  0  0  0  0  0
  1  2  1  0  0  0  0
  1  6  1  0  0  0  0
  2  3  2  0  0  0  0
  3  4  1  0  0  0  0
  4  5  2  0  0  0  0
  4 10  1  0  0  0  0
  5  6  1  0  0  0  0
  5  8  1  0  0  0  0
  6  7  2  0  0  0  0
  8  9  1  0  0  0  0
  9 10  2  0  0  0  0
M  END
>  <CHROM.1>
53.91025615,-13.98897879,7.16250653,-2.81787358,1.33426579,-0.91466101

>  <Name>
ligand

>  <RI>
0

>  <Rbt.Current_Directory>
/home/itssahil/PROJECTS/Mol_Feturizer/New_Systems/rnas/2EEV

>  <Rbt.Executable>
rbdock ($Id: //depot/dev/client3/rdock/2013.1/src/exe/rbdock.cxx#4 $)

>  <Rbt.Library>
libRbt.so (2013.1, Build901 2013/11/27)

>  <Rbt.Parameter_File>
/export/apps/rDock/src/rDock_2013.1_src/data/scripts/dock_solv.prm

>  <Rbt.Receptor>
prm/blind_docking_100.prm

>  <SCORE>
-19.744

>  <SCORE.INTER>
-19.744

>  <SCORE.INTER.CONST>
1

>  <SCORE.INTER.POLAR>
0

>  <SCORE.INTER.ROT>
0

>  <SCORE.INTER.SOLV>
4.22167

>  <SCORE.INTER.VDW>
-18.1699

>  <SCORE.INTER.norm>
-1.9744

>  <SCORE.INTRA>
0

>  <SCORE.INTRA.DIHEDRAL>
0

>  <SCORE.INTRA.DIHEDRAL.0>
0

>  <SCORE.INTRA.POLAR>
0

>  <SCORE.INTRA.POLAR.0>
0

>  <SCORE.INTRA.REPUL>
0

>  <SCORE.INTRA.REPUL.0>
0

>  <SCORE.INTRA.SOLV>
0

>  <SCORE.INTRA.SOLV.lig_0>
-4.25352

>  <SCORE.INTRA.VDW>
0

>  <SCORE.INTRA.VDW.0>
0

>  <SCORE.INTRA.norm>
0

>  <SCORE.RESTR>
0

>  <SCORE.RESTR.CAVITY>
0

>  <SCORE.RESTR.norm>
0

>  <SCORE.SYSTEM>
0

>  <SCORE.SYSTEM.CONST>
0

>  <SCORE.SYSTEM.DIHEDRAL>
0

>  <SCORE.SYSTEM.SOLV>
0

>  <SCORE.SYSTEM.norm>
0

>  <SCORE.heavy>
10

>  <SCORE.norm>
-1.9744

>  <RMSD>
0.354

$$$$
ligand
 OpenBabel11021811423D
libRbt.so/2013.1/901 2013/11/27
 10 11  0  0  0  0  0  0  0  0999 V2000
   53.5335  -13.3730    8.9823 N   0  0  0  0  0  0  0  0  0  0  0  0
   53.7581  -14.6992    9.2187 C   0  0  0  0  0  0  0  0  0  0  0  0
   54.0593  -15.5651    8.2162 N   0  0  0  0  0  0  0  0  0  0  0  0
   54.1157  -14.9648    6.9924 C   0  0  0  0  0  0  0  0  0  0  0  0
   53.9012  -13.6380    6.7019 C   0  0  0  0  0  0  0  0  0  0  0  0
   53.5837  -12.7422    7.7269 C   0  0  0  0  0  0  0  0  0  0  0  0
   53.3589  -11.5514    7.6682 O   0  0  0  0  0  0  0  0  0  0  0  0
   54.0565  -13.4555    5.3543 N   0  0  0  0  0  0  0  0  0  0  0  0
   54.3580  -14.6421    4.8374 C   0  0  0  0  0  0  0  0  0  0  0  0
   54.4043  -15.6148    5.8184 N   0  0  0  0  0  0  0  0  0  0  0  0
  1  2  1  0  0  0  0
  1  6  1  0  0  0  0
  2  3  2  0  0  0  0
  3  4  1  0  0  0  0
  4  5  2  0  0  0  0
  4 10  1  0  0  0  0
  5  6  1  0  0  0  0
  5  8  1  0  0  0  0
  6  7  2  0  0  0  0
  8  9  1  0  0  0  0
  9 10  2  0  0  0  0
M  END
>  <CHROM.1>
53.90226413,-13.97876973,7.16371527,-2.78829885,1.33648198,-0.94540350

>  <Name>
ligand

>  <RI>
0

>  <Rbt.Current_Directory>
/home/itssahil/PROJECTS/Mol_Feturizer/New_Systems/rnas/2EEV

>  <Rbt.Executable>
rbdock ($Id: //depot/dev/client3/rdock/2013.1/src/exe/rbdock.cxx#4 $)

>  <Rbt.Library>
libRbt.so (2013.1, Build901 2013/11/27)

>  <Rbt.Parameter_File>
/export/apps/rDock/src/rDock_2013.1_src/data/scripts/dock_solv.prm

>  <Rbt.Receptor>
prm/blind_docking_80.prm

>  <SCORE>
-19.7511

>  <SCORE.INTER>
-19.7511

>  <SCORE.INTER.CONST>
1

>  <SCORE.INTER.POLAR>
0

>  <SCORE.INTER.ROT>
0

>  <SCORE.INTER.SOLV>
4.2219

>  <SCORE.INTER.VDW>
-18.1747

>  <SCORE.INTER.norm>
-1.97511

>  <SCORE.INTRA>
0

>  <SCORE.INTRA.DIHEDRAL>
0

>  <SCORE.INTRA.DIHEDRAL.0>
0

>  <SCORE.INTRA.POLAR>
0

>  <SCORE.INTRA.POLAR.0>
0

>  <SCORE.INTRA.REPUL>
0

>  <SCORE.INTRA.REPUL.0>
0

>  <SCORE.INTRA.SOLV>
0

>  <SCORE.INTRA.SOLV.lig_0>
-4.25352

>  <SCORE.INTRA.VDW>
0

>  <SCORE.INTRA.VDW.0>
0

>  <SCORE.INTRA.norm>
0

>  <SCORE.RESTR>
0

>  <SCORE.RESTR.CAVITY>
0

>  <SCORE.RESTR.norm>
0

>  <SCORE.SYSTEM>
0

>  <SCORE.SYSTEM.CONST>
0

>  <SCORE.SYSTEM.DIHEDRAL>
0

>  <SCORE.SYSTEM.SOLV>
0

>  <SCORE.SYSTEM.norm>
0

>  <SCORE.heavy>
10

>  <SCORE.norm>
-1.97511

>  <RMSD>
0.354

$$$$
ligand
 OpenBabel11021811423D
libRbt.so/2013.1/901 2013/11/27
 10 11  0  0  0  0  0  0  0  0999 V2000
   53.5321  -13.3836    8.9792 N   0  0  0  0  0  0  0  0  0  0  0  0
   53.7542  -14.7102    9.2160 C   0  0  0  0  0  0  0  0  0  0  0  0
   54.0588  -15.5760    8.2144 N   0  0  0  0  0  0  0  0  0  0  0  0
   54.1211  -14.9751    6.9911 C   0  0  0  0  0  0  0  0  0  0  0  0
   53.9093  -13.6479    6.7003 C   0  0  0  0  0  0  0  0  0  0  0  0
   53.5885  -12.7523    7.7244 C   0  0  0  0  0  0  0  0  0  0  0  0
   53.3652  -11.5612    7.6653 O   0  0  0  0  0  0  0  0  0  0  0  0
   54.0707  -13.4650    5.3535 N   0  0  0  0  0  0  0  0  0  0  0  0
   54.3730  -14.6516    4.8373 C   0  0  0  0  0  0  0  0  0  0  0  0
   54.4141  -15.6250    5.8181 N   0  0  0  0  0  0  0  0  0  0  0  0
  1  2  1  0  0  0  0
  1  6  1  0  0  0  0
  2  3  2  0  0  0  0
  3  4  1  0  0  0  0
  4  5  2  0  0  0  0
  4 10  1  0  0  0  0
  5  6  1  0  0  0  0
  5  8  1  0  0  0  0
  6  7  2  0  0  0  0
  8  9  1  0  0  0  0
  9 10  2  0  0  0  0
M  END
>  <CHROM.1>
53.90804375,-13.98896732,7.16197626,-2.80606016,1.33483238,-0.92764659

>  <Name>
ligand

>  <RI>
0

>  <Rbt.Current_Directory>
/home/itssahil/PROJECTS/Mol_Feturizer/New_Systems/rnas/2EEV

>  <Rbt.Executable>
rbdock ($Id: //depot/dev/client3/rdock/2013.1/src/exe/rbdock.cxx#4 $)

>  <Rbt.Library>
libRbt.so (2013.1, Build901 2013/11/27)

>  <Rbt.Parameter_File>
/export/apps/rDock/src/rDock_2013.1_src/data/scripts/dock_solv.prm

>  <Rbt.Receptor>
prm/blind_docking_80.prm

>  <SCORE>
-19.7487

>  <SCORE.INTER>
-19.7487

>  <SCORE.INTER.CONST>
1

>  <SCORE.INTER.POLAR>
0

>  <SCORE.INTER.ROT>
0

>  <SCORE.INTER.SOLV>
4.22083

>  <SCORE.INTER.VDW>
-18.1727

>  <SCORE.INTER.norm>
-1.97487

>  <SCORE.INTRA>
0

>  <SCORE.INTRA.DIHEDRAL>
0

>  <SCORE.INTRA.DIHEDRAL.0>
0

>  <SCORE.INTRA.POLAR>
0

>  <SCORE.INTRA.POLAR.0>
0

>  <SCORE.INTRA.REPUL>
0

>  <SCORE.INTRA.REPUL.0>
0

>  <SCORE.INTRA.SOLV>
0

>  <SCORE.INTRA.SOLV.lig_0>
-4.25352

>  <SCORE.INTRA.VDW>
0

>  <SCORE.INTRA.VDW.0>
0

>  <SCORE.INTRA.norm>
0

>  <SCORE.RESTR>
0

>  <SCORE.RESTR.CAVITY>
0

>  <SCORE.RESTR.norm>
0

>  <SCORE.SYSTEM>
0

>  <SCORE.SYSTEM.CONST>
0

>  <SCORE.SYSTEM.DIHEDRAL>
0

>  <SCORE.SYSTEM.SOLV>
0

>  <SCORE.SYSTEM.norm>
0

>  <SCORE.heavy>
10

>  <SCORE.norm>
-1.97487

>  <RMSD>
0.354

$$$$
ligand
 OpenBabel11021811423D
libRbt.so/2013.1/901 2013/11/27
 10 11  0  0  0  0  0  0  0  0999 V2000
   53.5373  -13.3823    8.9856 N   0  0  0  0  0  0  0  0  0  0  0  0
   53.7543  -14.7105    9.2183 C   0  0  0  0  0  0  0  0  0  0  0  0
   54.0516  -15.5751    8.2134 N   0  0  0  0  0  0  0  0  0  0  0  0
   54.1125  -14.9714    6.9915 C   0  0  0  0  0  0  0  0  0  0  0  0
   53.9057  -13.6425    6.7048 C   0  0  0  0  0  0  0  0  0  0  0  0
   53.5922  -12.7481    7.7322 C   0  0  0  0  0  0  0  0  0  0  0  0
   53.3741  -11.5559    7.6769 O   0  0  0  0  0  0  0  0  0  0  0  0
   54.0634  -13.4569    5.3579 N   0  0  0  0  0  0  0  0  0  0  0  0
   54.3587  -14.6436    4.8377 C   0  0  0  0  0  0  0  0  0  0  0  0
   54.3987  -15.6195    5.8159 N   0  0  0  0  0  0  0  0  0  0  0  0
  1  2  1  0  0  0  0
  1  6  1  0  0  0  0
  2  3  2  0  0  0  0
  3  4  1  0  0  0  0
  4  5  2  0  0  0  0
  4 10  1  0  0  0  0
  5  6  1  0  0  0  0
  5  8  1  0  0  0  0
  6  7  2  0  0  0  0
  8  9  1  0  0  0  0
  9 10  2  0  0  0  0
M  END
>  <CHROM.1>
53.90443255,-13.98473286,7.16558518,-2.80607650,1.34040700,-0.92510001

>  <Name>
ligand

>  <RI>
0

>  <Rbt.Current_Directory>
/home/itssahil/PROJECTS/Mol_Feturizer/New_Systems/rnas/2EEV

>  <Rbt.Executable>
rbdock ($Id: //depot/dev/client3/rdock/2013.1/src/exe/rbdock.cxx#4 $)

>  <Rbt.Library>
libRbt.so (2013.1, Build901 2013/11/27)

>  <Rbt.Parameter_File>
/export/apps/rDock/src/rDock_2013.1_src/data/scripts/dock_solv.prm

>  <Rbt.Receptor>
prm/pocket_docking_6.prm

>  <SCORE>
-19.7483

>  <SCORE.INTER>
-19.7483

>  <SCORE.INTER.CONST>
1

>  <SCORE.INTER.POLAR>
0

>  <SCORE.INTER.ROT>
0

>  <SCORE.INTER.SOLV>
4.23577

>  <SCORE.INTER.VDW>
-18.1775

>  <SCORE.INTER.norm>
-1.97483

>  <SCORE.INTRA>
0

>  <SCORE.INTRA.DIHEDRAL>
0

>  <SCORE.INTRA.DIHEDRAL.0>
0

>  <SCORE.INTRA.POLAR>
0

>  <SCORE.INTRA.POLAR.0>
0

>  <SCORE.INTRA.REPUL>
0

>  <SCORE.INTRA.REPUL.0>
0

>  <SCORE.INTRA.SOLV>
0

>  <SCORE.INTRA.SOLV.lig_0>
-4.25352

>  <SCORE.INTRA.VDW>
0

>  <SCORE.INTRA.VDW.0>
0

>  <SCORE.INTRA.norm>
0

>  <SCORE.RESTR>
0

>  <SCORE.RESTR.CAVITY>
0

>  <SCORE.RESTR.norm>
0

>  <SCORE.SYSTEM>
0

>  <SCORE.SYSTEM.CONST>
0

>  <SCORE.SYSTEM.DIHEDRAL>
0

>  <SCORE.SYSTEM.SOLV>
0

>  <SCORE.SYSTEM.norm>
0

>  <SCORE.heavy>
10

>  <SCORE.norm>
-1.97483

>  <RMSD>
0.354

$$$$
ligand
 OpenBabel11021811423D
libRbt.so/2013.1/901 2013/11/27
 10 11  0  0  0  0  0  0  0  0999 V2000
   53.5282  -13.3791    8.9786 N   0  0  0  0  0  0  0  0  0  0  0  0
   53.7547  -14.7048    9.2166 C   0  0  0  0  0  0  0  0  0  0  0  0
   54.0610  -15.5707    8.2156 N   0  0  0  0  0  0  0  0  0  0  0  0
   54.1203  -14.9709    6.9916 C   0  0  0  0  0  0  0  0  0  0  0  0
   53.9041  -13.6447    6.6996 C   0  0  0  0  0  0  0  0  0  0  0  0
   53.5815  -12.7490    7.7231 C   0  0  0  0  0  0  0  0  0  0  0  0
   53.3544  -11.5586    7.6630 O   0  0  0  0  0  0  0  0  0  0  0  0
   54.0637  -13.4626    5.3525 N   0  0  0  0  0  0  0  0  0  0  0  0
   54.3693  -14.6489    4.8373 C   0  0  0  0  0  0  0  0  0  0  0  0
   54.4142  -15.6210    5.8190 N   0  0  0  0  0  0  0  0  0  0  0  0
  1  2  1  0  0  0  0
  1  6  1  0  0  0  0
  2  3  2  0  0  0  0
  3  4  1  0  0  0  0
  4  5  2  0  0  0  0
  4 10  1  0  0  0  0
  5  6  1  0  0  0  0
  5  8  1  0  0  0  0
  6  7  2  0  0  0  0
  8  9  1  0  0  0  0
  9 10  2  0  0  0  0
M  END
>  <CHROM.1>
53.90435321,-13.98519590,7.16167311,-2.79505920,1.33288877,-0.93938863

>  <Name>
ligand

>  <RI>
0

>  <Rbt.Current_Directory>
/home/itssahil/PROJECTS/Mol_Feturizer/New_Systems/rnas/2EEV

>  <Rbt.Executable>
rbdock ($Id: //depot/dev/client3/rdock/2013.1/src/exe/rbdock.cxx#4 $)

>  <Rbt.Library>
libRbt.so (2013.1, Build901 2013/11/27)

>  <Rbt.Parameter_File>
/export/apps/rDock/src/rDock_2013.1_src/data/scripts/dock_solv.prm

>  <Rbt.Receptor>
prm/pocket_docking_6.prm

>  <SCORE>
-19.7531

>  <SCORE.INTER>
-19.7531

>  <SCORE.INTER.CONST>
1

>  <SCORE.INTER.POLAR>
0

>  <SCORE.INTER.ROT>
0

>  <SCORE.INTER.SOLV>
4.21438

>  <SCORE.INTER.VDW>
-18.1736

>  <SCORE.INTER.norm>
-1.97531

>  <SCORE.INTRA>
0

>  <SCORE.INTRA.DIHEDRAL>
0

>  <SCORE.INTRA.DIHEDRAL.0>
0

>  <SCORE.INTRA.POLAR>
0

>  <SCORE.INTRA.POLAR.0>
0

>  <SCORE.INTRA.REPUL>
0

>  <SCORE.INTRA.REPUL.0>
0

>  <SCORE.INTRA.SOLV>
0

>  <SCORE.INTRA.SOLV.lig_0>
-4.25352

>  <SCORE.INTRA.VDW>
0

>  <SCORE.INTRA.VDW.0>
0

>  <SCORE.INTRA.norm>
0

>  <SCORE.RESTR>
0

>  <SCORE.RESTR.CAVITY>
0

>  <SCORE.RESTR.norm>
0

>  <SCORE.SYSTEM>
0

>  <SCORE.SYSTEM.CONST>
0

>  <SCORE.SYSTEM.DIHEDRAL>
0

>  <SCORE.SYSTEM.SOLV>
0

>  <SCORE.SYSTEM.norm>
0

>  <SCORE.heavy>
10

>  <SCORE.norm>
-1.97531

>  <RMSD>
0.354

$$$$
ligand
 OpenBabel11021811423D
libRbt.so/2013.1/901 2013/11/27
 10 11  0  0  0  0  0  0  0  0999 V2000
   53.5141  -13.3720    8.9792 N   0  0  0  0  0  0  0  0  0  0  0  0
   53.7359  -14.6978    9.2207 C   0  0  0  0  0  0  0  0  0  0  0  0
   54.0440  -15.5665    8.2227 N   0  0  0  0  0  0  0  0  0  0  0  0
   54.1101  -14.9694    6.9978 C   0  0  0  0  0  0  0  0  0  0  0  0
   53.8988  -13.6432    6.7023 C   0  0  0  0  0  0  0  0  0  0  0  0
   53.5743  -12.7445    7.7226 C   0  0  0  0  0  0  0  0  0  0  0  0
   53.3508  -11.5537    7.6592 O   0  0  0  0  0  0  0  0  0  0  0  0
   54.0645  -13.4642    5.3554 N   0  0  0  0  0  0  0  0  0  0  0  0
   54.3690  -14.6524    4.8439 C   0  0  0  0  0  0  0  0  0  0  0  0
   54.4071  -15.6227    5.8278 N   0  0  0  0  0  0  0  0  0  0  0  0
  1  2  1  0  0  0  0
  1  6  1  0  0  0  0
  2  3  2  0  0  0  0
  3  4  1  0  0  0  0
  4  5  2  0  0  0  0
  4 10  1  0  0  0  0
  5  6  1  0  0  0  0
  5  8  1  0  0  0  0
  6  7  2  0  0  0  0
  8  9  1  0  0  0  0
  9 10  2  0  0  0  0
M  END
>  <CHROM.1>
53.89615109,-13.98278020,7.16500046,-2.81626834,1.33258374,-0.92078096

>  <Name>
ligand

>  <RI>
0

>  <Rbt.Current_Directory>
/home/itssahil/PROJECTS/Mol_Feturizer/New_Systems/rnas/2EEV

>  <Rbt.Executable>
rbdock ($Id: //depot/dev/client3/rdock/2013.1/src/exe/rbdock.cxx#4 $)

>  <Rbt.Library>
libRbt.so (2013.1, Build901 2013/11/27)

>  <Rbt.Parameter_File>
/export/apps/rDock/src/rDock_2013.1_src/data/scripts/dock_solv.prm

>  <Rbt.Receptor>
prm/pocket_docking_7.prm

>  <SCORE>
-19.7233

>  <SCORE.INTER>
-19.7233

>  <SCORE.INTER.CONST>
1

>  <SCORE.INTER.POLAR>
0

>  <SCORE.INTER.ROT>
0

>  <SCORE.INTER.SOLV>
4.2236

>  <SCORE.INTER.VDW>
-18.1568

>  <SCORE.INTER.norm>
-1.97233

>  <SCORE.INTRA>
0

>  <SCORE.INTRA.DIHEDRAL>
0

>  <SCORE.INTRA.DIHEDRAL.0>
0

>  <SCORE.INTRA.POLAR>
0

>  <SCORE.INTRA.POLAR.0>
0

>  <SCORE.INTRA.REPUL>
0

>  <SCORE.INTRA.REPUL.0>
0

>  <SCORE.INTRA.SOLV>
0

>  <SCORE.INTRA.SOLV.lig_0>
-4.25352

>  <SCORE.INTRA.VDW>
0

>  <SCORE.INTRA.VDW.0>
0

>  <SCORE.INTRA.norm>
0

>  <SCORE.RESTR>
0

>  <SCORE.RESTR.CAVITY>
0

>  <SCORE.RESTR.norm>
0

>  <SCORE.SYSTEM>
0

>  <SCORE.SYSTEM.CONST>
0

>  <SCORE.SYSTEM.DIHEDRAL>
0

>  <SCORE.SYSTEM.SOLV>
0

>  <SCORE.SYSTEM.norm>
0

>  <SCORE.heavy>
10

>  <SCORE.norm>
-1.97233

>  <RMSD>
0.354

$$$$
ligand
 OpenBabel11021811423D
libRbt.so/2013.1/901 2013/11/27
 10 11  0  0  0  0  0  0  0  0999 V2000
   53.4902  -13.3510    8.9828 N   0  0  0  0  0  0  0  0  0  0  0  0
   53.7113  -14.6760    9.2295 C   0  0  0  0  0  0  0  0  0  0  0  0
   54.0222  -15.5481    8.2354 N   0  0  0  0  0  0  0  0  0  0  0  0
   54.0918  -14.9552    7.0087 C   0  0  0  0  0  0  0  0  0  0  0  0
   53.8814  -13.6300    6.7080 C   0  0  0  0  0  0  0  0  0  0  0  0
   53.5539  -12.7279    7.7242 C   0  0  0  0  0  0  0  0  0  0  0  0
   53.3306  -11.5373    7.6561 O   0  0  0  0  0  0  0  0  0  0  0  0
   54.0509  -13.4557    5.3610 N   0  0  0  0  0  0  0  0  0  0  0  0
   54.3568  -14.6456    4.8544 C   0  0  0  0  0  0  0  0  0  0  0  0
   54.3922  -15.6125    5.8417 N   0  0  0  0  0  0  0  0  0  0  0  0
  1  2  1  0  0  0  0
  1  6  1  0  0  0  0
  2  3  2  0  0  0  0
  3  4  1  0  0  0  0
  4  5  2  0  0  0  0
  4 10  1  0  0  0  0
  5  6  1  0  0  0  0
  5  8  1  0  0  0  0
  6  7  2  0  0  0  0
  8  9  1  0  0  0  0
  9 10  2  0  0  0  0
M  END
>  <CHROM.1>
53.87739062,-13.96802294,7.17183492,-2.82574940,1.33084255,-0.91500701

>  <Name>
ligand

>  <RI>
0

>  <Rbt.Current_Directory>
/home/itssahil/PROJECTS/Mol_Feturizer/New_Systems/rnas/2EEV

>  <Rbt.Executable>
rbdock ($Id: //depot/dev/client3/rdock/2013.1/src/exe/rbdock.cxx#4 $)

>  <Rbt.Library>
libRbt.so (2013.1, Build901 2013/11/27)

>  <Rbt.Parameter_File>
/export/apps/rDock/src/rDock_2013.1_src/data/scripts/dock_solv.prm

>  <Rbt.Receptor>
prm/blind_docking_60.prm

>  <SCORE>
-19.7164

>  <SCORE.INTER>
-19.7164

>  <SCORE.INTER.CONST>
1

>  <SCORE.INTER.POLAR>
0

>  <SCORE.INTER.ROT>
0

>  <SCORE.INTER.SOLV>
4.23365

>  <SCORE.INTER.VDW>
-18.1555

>  <SCORE.INTER.norm>
-1.97164

>  <SCORE.INTRA>
0

>  <SCORE.INTRA.DIHEDRAL>
0

>  <SCORE.INTRA.DIHEDRAL.0>
0

>  <SCORE.INTRA.POLAR>
0

>  <SCORE.INTRA.POLAR.0>
0

>  <SCORE.INTRA.REPUL>
0

>  <SCORE.INTRA.REPUL.0>
0

>  <SCORE.INTRA.SOLV>
0

>  <SCORE.INTRA.SOLV.lig_0>
-4.25352

>  <SCORE.INTRA.VDW>
0

>  <SCORE.INTRA.VDW.0>
0

>  <SCORE.INTRA.norm>
0

>  <SCORE.RESTR>
0

>  <SCORE.RESTR.CAVITY>
0

>  <SCORE.RESTR.norm>
0

>  <SCORE.SYSTEM>
0

>  <SCORE.SYSTEM.CONST>
0

>  <SCORE.SYSTEM.DIHEDRAL>
0

>  <SCORE.SYSTEM.SOLV>
0

>  <SCORE.SYSTEM.norm>
0

>  <SCORE.heavy>
10

>  <SCORE.norm>
-1.97164

>  <RMSD>
0.355

$$$$
ligand
 OpenBabel11021811423D
libRbt.so/2013.1/901 2013/11/27
 10 11  0  0  0  0  0  0  0  0999 V2000
   53.5364  -13.3831    8.9805 N   0  0  0  0  0  0  0  0  0  0  0  0
   53.7575  -14.7099    9.2175 C   0  0  0  0  0  0  0  0  0  0  0  0
   54.0579  -15.5768    8.2156 N   0  0  0  0  0  0  0  0  0  0  0  0
   54.1174  -14.9768    6.9917 C   0  0  0  0  0  0  0  0  0  0  0  0
   53.9066  -13.6495    6.7006 C   0  0  0  0  0  0  0  0  0  0  0  0
   53.5899  -12.7528    7.7250 C   0  0  0  0  0  0  0  0  0  0  0  0
   53.3681  -11.5614    7.6658 O   0  0  0  0  0  0  0  0  0  0  0  0
   54.0643  -13.4677    5.3532 N   0  0  0  0  0  0  0  0  0  0  0  0
   54.3635  -14.6551    4.8370 C   0  0  0  0  0  0  0  0  0  0  0  0
   54.4061  -15.6278    5.8183 N   0  0  0  0  0  0  0  0  0  0  0  0
  1  2  1  0  0  0  0
  1  6  1  0  0  0  0
  2  3  2  0  0  0  0
  3  4  1  0  0  0  0
  4  5  2  0  0  0  0
  4 10  1  0  0  0  0
  5  6  1  0  0  0  0
  5  8  1  0  0  0  0
  6  7  2  0  0  0  0
  8  9  1  0  0  0  0
  9 10  2  0  0  0  0
M  END
>  <CHROM.1>
53.90620213,-13.99022826,7.16254724,-2.79938286,1.33766636,-0.93482333

>  <Name>
ligand

>  <RI>
0

>  <Rbt.Current_Directory>
/home/itssahil/PROJECTS/Mol_Feturizer/New_Systems/rnas/2EEV

>  <Rbt.Executable>
rbdock ($Id: //depot/dev/client3/rdock/2013.1/src/exe/rbdock.cxx#4 $)

>  <Rbt.Library>
libRbt.so (2013.1, Build901 2013/11/27)

>  <Rbt.Parameter_File>
/export/apps/rDock/src/rDock_2013.1_src/data/scripts/dock_solv.prm

>  <Rbt.Receptor>
prm/blind_docking_60.prm

>  <SCORE>
-19.7134

>  <SCORE.INTER>
-19.7134

>  <SCORE.INTER.CONST>
1

>  <SCORE.INTER.POLAR>
0

>  <SCORE.INTER.ROT>
0

>  <SCORE.INTER.SOLV>
4.22691

>  <SCORE.INTER.VDW>
-18.1513

>  <SCORE.INTER.norm>
-1.97134

>  <SCORE.INTRA>
0

>  <SCORE.INTRA.DIHEDRAL>
0

>  <SCORE.INTRA.DIHEDRAL.0>
0

>  <SCORE.INTRA.POLAR>
0

>  <SCORE.INTRA.POLAR.0>
0

>  <SCORE.INTRA.REPUL>
0

>  <SCORE.INTRA.REPUL.0>
0

>  <SCORE.INTRA.SOLV>
0

>  <SCORE.INTRA.SOLV.lig_0>
-4.25352

>  <SCORE.INTRA.VDW>
0

>  <SCORE.INTRA.VDW.0>
0

>  <SCORE.INTRA.norm>
0

>  <SCORE.RESTR>
0

>  <SCORE.RESTR.CAVITY>
0

>  <SCORE.RESTR.norm>
0

>  <SCORE.SYSTEM>
0

>  <SCORE.SYSTEM.CONST>
0

>  <SCORE.SYSTEM.DIHEDRAL>
0

>  <SCORE.SYSTEM.SOLV>
0

>  <SCORE.SYSTEM.norm>
0

>  <SCORE.heavy>
10

>  <SCORE.norm>
-1.97134

>  <RMSD>
0.355

$$$$
ligand
 OpenBabel11021811423D
libRbt.so/2013.1/901 2013/11/27
 10 11  0  0  0  0  0  0  0  0999 V2000
   53.5375  -13.3790    8.9812 N   0  0  0  0  0  0  0  0  0  0  0  0
   53.7577  -14.7049    9.2234 C   0  0  0  0  0  0  0  0  0  0  0  0
   54.0553  -15.5763    8.2246 N   0  0  0  0  0  0  0  0  0  0  0  0
   54.1130  -14.9816    6.9981 C   0  0  0  0  0  0  0  0  0  0  0  0
   53.9028  -13.6553    6.7018 C   0  0  0  0  0  0  0  0  0  0  0  0
   53.5891  -12.7540    7.7230 C   0  0  0  0  0  0  0  0  0  0  0  0
   53.3682  -11.5627    7.6592 O   0  0  0  0  0  0  0  0  0  0  0  0
   54.0580  -13.4794    5.3533 N   0  0  0  0  0  0  0  0  0  0  0  0
   54.3550  -14.6693    4.8415 C   0  0  0  0  0  0  0  0  0  0  0  0
   54.3987  -15.6378    5.8268 N   0  0  0  0  0  0  0  0  0  0  0  0
  1  2  1  0  0  0  0
  1  6  1  0  0  0  0
  2  3  2  0  0  0  0
  3  4  1  0  0  0  0
  4  5  2  0  0  0  0
  4 10  1  0  0  0  0
  5  6  1  0  0  0  0
  5  8  1  0  0  0  0
  6  7  2  0  0  0  0
  8  9  1  0  0  0  0
  9 10  2  0  0  0  0
M  END
>  <CHROM.1>
53.90302267,-13.99409316,7.16515155,-2.79484782,1.33961560,-0.94347071

>  <Name>
ligand

>  <RI>
0

>  <Rbt.Current_Directory>
/home/itssahil/PROJECTS/Mol_Feturizer/New_Systems/rnas/2EEV

>  <Rbt.Executable>
rbdock ($Id: //depot/dev/client3/rdock/2013.1/src/exe/rbdock.cxx#4 $)

>  <Rbt.Library>
libRbt.so (2013.1, Build901 2013/11/27)

>  <Rbt.Parameter_File>
/export/apps/rDock/src/rDock_2013.1_src/data/scripts/dock_solv.prm

>  <Rbt.Receptor>
prm/blind_docking_80.prm

>  <SCORE>
-19.7151

>  <SCORE.INTER>
-19.7151

>  <SCORE.INTER.CONST>
1

>  <SCORE.INTER.POLAR>
0

>  <SCORE.INTER.ROT>
0

>  <SCORE.INTER.SOLV>
4.23384

>  <SCORE.INTER.VDW>
-18.1546

>  <SCORE.INTER.norm>
-1.97151

>  <SCORE.INTRA>
0

>  <SCORE.INTRA.DIHEDRAL>
0

>  <SCORE.INTRA.DIHEDRAL.0>
0

>  <SCORE.INTRA.POLAR>
0

>  <SCORE.INTRA.POLAR.0>
0

>  <SCORE.INTRA.REPUL>
0

>  <SCORE.INTRA.REPUL.0>
0

>  <SCORE.INTRA.SOLV>
0

>  <SCORE.INTRA.SOLV.lig_0>
-4.25352

>  <SCORE.INTRA.VDW>
0

>  <SCORE.INTRA.VDW.0>
0

>  <SCORE.INTRA.norm>
0

>  <SCORE.RESTR>
0

>  <SCORE.RESTR.CAVITY>
0

>  <SCORE.RESTR.norm>
0

>  <SCORE.SYSTEM>
0

>  <SCORE.SYSTEM.CONST>
0

>  <SCORE.SYSTEM.DIHEDRAL>
0

>  <SCORE.SYSTEM.SOLV>
0

>  <SCORE.SYSTEM.norm>
0

>  <SCORE.heavy>
10

>  <SCORE.norm>
-1.97151

>  <RMSD>
0.355

$$$$
ligand
 OpenBabel11021811423D
libRbt.so/2013.1/901 2013/11/27
 10 11  0  0  0  0  0  0  0  0999 V2000
   53.5309  -13.3813    8.9798 N   0  0  0  0  0  0  0  0  0  0  0  0
   53.7521  -14.7082    9.2157 C   0  0  0  0  0  0  0  0  0  0  0  0
   54.0556  -15.5736    8.2135 N   0  0  0  0  0  0  0  0  0  0  0  0
   54.1180  -14.9720    6.9906 C   0  0  0  0  0  0  0  0  0  0  0  0
   53.9072  -13.6445    6.7006 C   0  0  0  0  0  0  0  0  0  0  0  0
   53.5873  -12.7493    7.7253 C   0  0  0  0  0  0  0  0  0  0  0  0
   53.3649  -11.5580    7.6671 O   0  0  0  0  0  0  0  0  0  0  0  0
   54.0683  -13.4609    5.3538 N   0  0  0  0  0  0  0  0  0  0  0  0
   54.3696  -14.6475    4.8369 C   0  0  0  0  0  0  0  0  0  0  0  0
   54.4102  -15.6214    5.8170 N   0  0  0  0  0  0  0  0  0  0  0  0
  1  2  1  0  0  0  0
  1  6  1  0  0  0  0
  2  3  2  0  0  0  0
  3  4  1  0  0  0  0
  4  5  2  0  0  0  0
  4 10  1  0  0  0  0
  5  6  1  0  0  0  0
  5  8  1  0  0  0  0
  6  7  2  0  0  0  0
  8  9  1  0  0  0  0
  9 10  2  0  0  0  0
M  END
>  <CHROM.1>
53.90576344,-13.98583514,7.16209406,-2.80693792,1.33561761,-0.92619457

>  <Name>
ligand

>  <RI>
0

>  <Rbt.Current_Directory>
/home/itssahil/PROJECTS/Mol_Feturizer/New_Systems/rnas/2EEV

>  <Rbt.Executable>
rbdock ($Id: //depot/dev/client3/rdock/2013.1/src/exe/rbdock.cxx#4 $)

>  <Rbt.Library>
libRbt.so (2013.1, Build901 2013/11/27)

>  <Rbt.Parameter_File>
/export/apps/rDock/src/rDock_2013.1_src/data/scripts/dock_solv.prm

>  <Rbt.Receptor>
prm/blind_docking_80.prm

>  <SCORE>
-19.7503

>  <SCORE.INTER>
-19.7503

>  <SCORE.INTER.CONST>
1

>  <SCORE.INTER.POLAR>
0

>  <SCORE.INTER.ROT>
0

>  <SCORE.INTER.SOLV>
4.22371

>  <SCORE.INTER.VDW>
-18.1748

>  <SCORE.INTER.norm>
-1.97503

>  <SCORE.INTRA>
0

>  <SCORE.INTRA.DIHEDRAL>
0

>  <SCORE.INTRA.DIHEDRAL.0>
0

>  <SCORE.INTRA.POLAR>
0

>  <SCORE.INTRA.POLAR.0>
0

>  <SCORE.INTRA.REPUL>
0

>  <SCORE.INTRA.REPUL.0>
0

>  <SCORE.INTRA.SOLV>
0

>  <SCORE.INTRA.SOLV.lig_0>
-4.25352

>  <SCORE.INTRA.VDW>
0

>  <SCORE.INTRA.VDW.0>
0

>  <SCORE.INTRA.norm>
0

>  <SCORE.RESTR>
0

>  <SCORE.RESTR.CAVITY>
0

>  <SCORE.RESTR.norm>
0

>  <SCORE.SYSTEM>
0

>  <SCORE.SYSTEM.CONST>
0

>  <SCORE.SYSTEM.DIHEDRAL>
0

>  <SCORE.SYSTEM.SOLV>
0

>  <SCORE.SYSTEM.norm>
0

>  <SCORE.heavy>
10

>  <SCORE.norm>
-1.97503

>  <RMSD>
0.355

$$$$
ligand
 OpenBabel11021811423D
libRbt.so/2013.1/901 2013/11/27
 10 11  0  0  0  0  0  0  0  0999 V2000
   53.4832  -13.3527    8.9795 N   0  0  0  0  0  0  0  0  0  0  0  0
   53.7064  -14.6772    9.2269 C   0  0  0  0  0  0  0  0  0  0  0  0
   54.0233  -15.5485    8.2338 N   0  0  0  0  0  0  0  0  0  0  0  0
   54.0965  -14.9551    7.0075 C   0  0  0  0  0  0  0  0  0  0  0  0
   53.8842  -13.6304    6.7062 C   0  0  0  0  0  0  0  0  0  0  0  0
   53.5506  -12.7292    7.7213 C   0  0  0  0  0  0  0  0  0  0  0  0
   53.3249  -11.5391    7.6525 O   0  0  0  0  0  0  0  0  0  0  0  0
   54.0588  -13.4554    5.3599 N   0  0  0  0  0  0  0  0  0  0  0  0
   54.3694  -14.6445    4.8544 C   0  0  0  0  0  0  0  0  0  0  0  0
   54.4030  -15.6116    5.8416 N   0  0  0  0  0  0  0  0  0  0  0  0
  1  2  1  0  0  0  0
  1  6  1  0  0  0  0
  2  3  2  0  0  0  0
  3  4  1  0  0  0  0
  4  5  2  0  0  0  0
  4 10  1  0  0  0  0
  5  6  1  0  0  0  0
  5  8  1  0  0  0  0
  6  7  2  0  0  0  0
  8  9  1  0  0  0  0
  9 10  2  0  0  0  0
M  END
>  <CHROM.1>
53.87913199,-13.96849440,7.16996678,-2.83317260,1.32657897,-0.90761485

>  <Name>
ligand

>  <RI>
0

>  <Rbt.Current_Directory>
/home/itssahil/PROJECTS/Mol_Feturizer/New_Systems/rnas/2EEV

>  <Rbt.Executable>
rbdock ($Id: //depot/dev/client3/rdock/2013.1/src/exe/rbdock.cxx#4 $)

>  <Rbt.Library>
libRbt.so (2013.1, Build901 2013/11/27)

>  <Rbt.Parameter_File>
/export/apps/rDock/src/rDock_2013.1_src/data/scripts/dock_solv.prm

>  <Rbt.Receptor>
prm/pocket_docking_3.prm

>  <SCORE>
-19.716

>  <SCORE.INTER>
-19.716

>  <SCORE.INTER.CONST>
1

>  <SCORE.INTER.POLAR>
0

>  <SCORE.INTER.ROT>
0

>  <SCORE.INTER.SOLV>
4.2245

>  <SCORE.INTER.VDW>
-18.1522

>  <SCORE.INTER.norm>
-1.9716

>  <SCORE.INTRA>
0

>  <SCORE.INTRA.DIHEDRAL>
0

>  <SCORE.INTRA.DIHEDRAL.0>
0

>  <SCORE.INTRA.POLAR>
0

>  <SCORE.INTRA.POLAR.0>
0

>  <SCORE.INTRA.REPUL>
0

>  <SCORE.INTRA.REPUL.0>
0

>  <SCORE.INTRA.SOLV>
0

>  <SCORE.INTRA.SOLV.lig_0>
-4.25352

>  <SCORE.INTRA.VDW>
0

>  <SCORE.INTRA.VDW.0>
0

>  <SCORE.INTRA.norm>
0

>  <SCORE.RESTR>
0

>  <SCORE.RESTR.CAVITY>
0

>  <SCORE.RESTR.norm>
0

>  <SCORE.SYSTEM>
0

>  <SCORE.SYSTEM.CONST>
0

>  <SCORE.SYSTEM.DIHEDRAL>
0

>  <SCORE.SYSTEM.SOLV>
0

>  <SCORE.SYSTEM.norm>
0

>  <SCORE.heavy>
10

>  <SCORE.norm>
-1.9716

>  <RMSD>
0.355

$$$$
ligand
 OpenBabel11021811423D
libRbt.so/2013.1/901 2013/11/27
 10 11  0  0  0  0  0  0  0  0999 V2000
   53.5444  -13.3827    8.9798 N   0  0  0  0  0  0  0  0  0  0  0  0
   53.7696  -14.7084    9.2184 C   0  0  0  0  0  0  0  0  0  0  0  0
   54.0670  -15.5767    8.2168 N   0  0  0  0  0  0  0  0  0  0  0  0
   54.1191  -14.9791    6.9914 C   0  0  0  0  0  0  0  0  0  0  0  0
   53.9038  -13.6529    6.6987 C   0  0  0  0  0  0  0  0  0  0  0  0
   53.5902  -12.7548    7.7228 C   0  0  0  0  0  0  0  0  0  0  0  0
   53.3653  -11.5641    7.6623 O   0  0  0  0  0  0  0  0  0  0  0  0
   54.0543  -13.4735    5.3501 N   0  0  0  0  0  0  0  0  0  0  0  0
   54.3537  -14.6613    4.8349 C   0  0  0  0  0  0  0  0  0  0  0  0
   54.4034  -15.6319    5.8179 N   0  0  0  0  0  0  0  0  0  0  0  0
  1  2  1  0  0  0  0
  1  6  1  0  0  0  0
  2  3  2  0  0  0  0
  3  4  1  0  0  0  0
  4  5  2  0  0  0  0
  4 10  1  0  0  0  0
  5  6  1  0  0  0  0
  5  8  1  0  0  0  0
  6  7  2  0  0  0  0
  8  9  1  0  0  0  0
  9 10  2  0  0  0  0
M  END
>  <CHROM.1>
53.90646931,-13.99268450,7.16128273,-2.77603195,1.33871525,-0.95960234

>  <Name>
ligand

>  <RI>
0

>  <Rbt.Current_Directory>
/home/itssahil/PROJECTS/Mol_Feturizer/New_Systems/rnas/2EEV

>  <Rbt.Executable>
rbdock ($Id: //depot/dev/client3/rdock/2013.1/src/exe/rbdock.cxx#4 $)

>  <Rbt.Library>
libRbt.so (2013.1, Build901 2013/11/27)

>  <Rbt.Parameter_File>
/export/apps/rDock/src/rDock_2013.1_src/data/scripts/dock_solv.prm

>  <Rbt.Receptor>
prm/pocket_docking_4.prm

>  <SCORE>
-19.713

>  <SCORE.INTER>
-19.713

>  <SCORE.INTER.CONST>
1

>  <SCORE.INTER.POLAR>
0

>  <SCORE.INTER.ROT>
0

>  <SCORE.INTER.SOLV>
4.22352

>  <SCORE.INTER.VDW>
-18.1498

>  <SCORE.INTER.norm>
-1.9713

>  <SCORE.INTRA>
0

>  <SCORE.INTRA.DIHEDRAL>
0

>  <SCORE.INTRA.DIHEDRAL.0>
0

>  <SCORE.INTRA.POLAR>
0

>  <SCORE.INTRA.POLAR.0>
0

>  <SCORE.INTRA.REPUL>
0

>  <SCORE.INTRA.REPUL.0>
0

>  <SCORE.INTRA.SOLV>
0

>  <SCORE.INTRA.SOLV.lig_0>
-4.25352

>  <SCORE.INTRA.VDW>
0

>  <SCORE.INTRA.VDW.0>
0

>  <SCORE.INTRA.norm>
0

>  <SCORE.RESTR>
0

>  <SCORE.RESTR.CAVITY>
0

>  <SCORE.RESTR.norm>
0

>  <SCORE.SYSTEM>
0

>  <SCORE.SYSTEM.CONST>
0

>  <SCORE.SYSTEM.DIHEDRAL>
0

>  <SCORE.SYSTEM.SOLV>
0

>  <SCORE.SYSTEM.norm>
0

>  <SCORE.heavy>
10

>  <SCORE.norm>
-1.9713

>  <RMSD>
0.355

$$$$
ligand
 OpenBabel11021811423D
libRbt.so/2013.1/901 2013/11/27
 10 11  0  0  0  0  0  0  0  0999 V2000
   53.4886  -13.3520    8.9821 N   0  0  0  0  0  0  0  0  0  0  0  0
   53.7016  -14.6775    9.2330 C   0  0  0  0  0  0  0  0  0  0  0  0
   54.0132  -15.5535    8.2424 N   0  0  0  0  0  0  0  0  0  0  0  0
   54.0923  -14.9637    7.0148 C   0  0  0  0  0  0  0  0  0  0  0  0
   53.8903  -13.6381    6.7100 C   0  0  0  0  0  0  0  0  0  0  0  0
   53.5622  -12.7320    7.7225 C   0  0  0  0  0  0  0  0  0  0  0  0
   53.3454  -11.5404    7.6505 O   0  0  0  0  0  0  0  0  0  0  0  0
   54.0678  -13.4678    5.3635 N   0  0  0  0  0  0  0  0  0  0  0  0
   54.3702  -14.6604    4.8613 C   0  0  0  0  0  0  0  0  0  0  0  0
   54.3954  -15.6252    5.8509 N   0  0  0  0  0  0  0  0  0  0  0  0
  1  2  1  0  0  0  0
  1  6  1  0  0  0  0
  2  3  2  0  0  0  0
  3  4  1  0  0  0  0
  4  5  2  0  0  0  0
  4 10  1  0  0  0  0
  5  6  1  0  0  0  0
  5  8  1  0  0  0  0
  6  7  2  0  0  0  0
  8  9  1  0  0  0  0
  9 10  2  0  0  0  0
M  END
>  <CHROM.1>
53.88212193,-13.97506767,7.17459505,-2.85660341,1.33164543,-0.88729268

>  <Name>
ligand

>  <RI>
0

>  <Rbt.Current_Directory>
/home/itssahil/PROJECTS/Mol_Feturizer/New_Systems/rnas/2EEV

>  <Rbt.Executable>
rbdock ($Id: //depot/dev/client3/rdock/2013.1/src/exe/rbdock.cxx#4 $)

>  <Rbt.Library>
libRbt.so (2013.1, Build901 2013/11/27)

>  <Rbt.Parameter_File>
/export/apps/rDock/src/rDock_2013.1_src/data/scripts/dock_solv.prm

>  <Rbt.Receptor>
prm/pocket_docking_4.prm

>  <SCORE>
-19.7126

>  <SCORE.INTER>
-19.7126

>  <SCORE.INTER.CONST>
1

>  <SCORE.INTER.POLAR>
0

>  <SCORE.INTER.ROT>
0

>  <SCORE.INTER.SOLV>
4.24369

>  <SCORE.INTER.VDW>
-18.1563

>  <SCORE.INTER.norm>
-1.97126

>  <SCORE.INTRA>
0

>  <SCORE.INTRA.DIHEDRAL>
0

>  <SCORE.INTRA.DIHEDRAL.0>
0

>  <SCORE.INTRA.POLAR>
0

>  <SCORE.INTRA.POLAR.0>
0

>  <SCORE.INTRA.REPUL>
0

>  <SCORE.INTRA.REPUL.0>
0

>  <SCORE.INTRA.SOLV>
0

>  <SCORE.INTRA.SOLV.lig_0>
-4.25352

>  <SCORE.INTRA.VDW>
0

>  <SCORE.INTRA.VDW.0>
0

>  <SCORE.INTRA.norm>
0

>  <SCORE.RESTR>
0

>  <SCORE.RESTR.CAVITY>
0

>  <SCORE.RESTR.norm>
0

>  <SCORE.SYSTEM>
0

>  <SCORE.SYSTEM.CONST>
0

>  <SCORE.SYSTEM.DIHEDRAL>
0

>  <SCORE.SYSTEM.SOLV>
0

>  <SCORE.SYSTEM.norm>
0

>  <SCORE.heavy>
10

>  <SCORE.norm>
-1.97126

>  <RMSD>
0.355

$$$$
ligand
 OpenBabel11021811423D
libRbt.so/2013.1/901 2013/11/27
 10 11  0  0  0  0  0  0  0  0999 V2000
   53.5196  -13.3626    8.9813 N   0  0  0  0  0  0  0  0  0  0  0  0
   53.7382  -14.6885    9.2252 C   0  0  0  0  0  0  0  0  0  0  0  0
   54.0419  -15.5601    8.2283 N   0  0  0  0  0  0  0  0  0  0  0  0
   54.1074  -14.9657    7.0021 C   0  0  0  0  0  0  0  0  0  0  0  0
   53.8993  -13.6395    6.7043 C   0  0  0  0  0  0  0  0  0  0  0  0
   53.5792  -12.7378    7.7233 C   0  0  0  0  0  0  0  0  0  0  0  0
   53.3590  -11.5465    7.6579 O   0  0  0  0  0  0  0  0  0  0  0  0
   54.0630  -13.4637    5.3568 N   0  0  0  0  0  0  0  0  0  0  0  0
   54.3631  -14.6538    4.8471 C   0  0  0  0  0  0  0  0  0  0  0  0
   54.4004  -15.6222    5.8328 N   0  0  0  0  0  0  0  0  0  0  0  0
  1  2  1  0  0  0  0
  1  6  1  0  0  0  0
  2  3  2  0  0  0  0
  3  4  1  0  0  0  0
  4  5  2  0  0  0  0
  4 10  1  0  0  0  0
  5  6  1  0  0  0  0
  5  8  1  0  0  0  0
  6  7  2  0  0  0  0
  8  9  1  0  0  0  0
  9 10  2  0  0  0  0
M  END
>  <CHROM.1>
53.89655376,-13.97812344,7.16768551,-2.81708557,1.33596548,-0.92202201

>  <Name>
ligand

>  <RI>
0

>  <Rbt.Current_Directory>
/home/itssahil/PROJECTS/Mol_Feturizer/New_Systems/rnas/2EEV

>  <Rbt.Executable>
rbdock ($Id: //depot/dev/client3/rdock/2013.1/src/exe/rbdock.cxx#4 $)

>  <Rbt.Library>
libRbt.so (2013.1, Build901 2013/11/27)

>  <Rbt.Parameter_File>
/export/apps/rDock/src/rDock_2013.1_src/data/scripts/dock_solv.prm

>  <Rbt.Receptor>
prm/pocket_docking_5.prm

>  <SCORE>
-19.6855

>  <SCORE.INTER>
-19.6855

>  <SCORE.INTER.CONST>
1

>  <SCORE.INTER.POLAR>
0

>  <SCORE.INTER.ROT>
0

>  <SCORE.INTER.SOLV>
4.23156

>  <SCORE.INTER.VDW>
-18.1342

>  <SCORE.INTER.norm>
-1.96855

>  <SCORE.INTRA>
0

>  <SCORE.INTRA.DIHEDRAL>
0

>  <SCORE.INTRA.DIHEDRAL.0>
0

>  <SCORE.INTRA.POLAR>
0

>  <SCORE.INTRA.POLAR.0>
0

>  <SCORE.INTRA.REPUL>
0

>  <SCORE.INTRA.REPUL.0>
0

>  <SCORE.INTRA.SOLV>
0

>  <SCORE.INTRA.SOLV.lig_0>
-4.25352

>  <SCORE.INTRA.VDW>
0

>  <SCORE.INTRA.VDW.0>
0

>  <SCORE.INTRA.norm>
0

>  <SCORE.RESTR>
0

>  <SCORE.RESTR.CAVITY>
0

>  <SCORE.RESTR.norm>
0

>  <SCORE.SYSTEM>
0

>  <SCORE.SYSTEM.CONST>
0

>  <SCORE.SYSTEM.DIHEDRAL>
0

>  <SCORE.SYSTEM.SOLV>
0

>  <SCORE.SYSTEM.norm>
0

>  <SCORE.heavy>
10

>  <SCORE.norm>
-1.96855

>  <RMSD>
0.355

$$$$
ligand
 OpenBabel11021811423D
libRbt.so/2013.1/901 2013/11/27
 10 11  0  0  0  0  0  0  0  0999 V2000
   53.4984  -13.3561    8.9865 N   0  0  0  0  0  0  0  0  0  0  0  0
   53.7085  -14.6827    9.2337 C   0  0  0  0  0  0  0  0  0  0  0  0
   54.0134  -15.5576    8.2400 N   0  0  0  0  0  0  0  0  0  0  0  0
   54.0892  -14.9654    7.0133 C   0  0  0  0  0  0  0  0  0  0  0  0
   53.8898  -13.6386    6.7122 C   0  0  0  0  0  0  0  0  0  0  0  0
   53.5686  -12.7337    7.7279 C   0  0  0  0  0  0  0  0  0  0  0  0
   53.3550  -11.5413    7.6593 O   0  0  0  0  0  0  0  0  0  0  0  0
   54.0623  -13.4659    5.3653 N   0  0  0  0  0  0  0  0  0  0  0  0
   54.3591  -14.6583    4.8593 C   0  0  0  0  0  0  0  0  0  0  0  0
   54.3855  -15.6253    5.8467 N   0  0  0  0  0  0  0  0  0  0  0  0
  1  2  1  0  0  0  0
  1  6  1  0  0  0  0
  2  3  2  0  0  0  0
  3  4  1  0  0  0  0
  4  5  2  0  0  0  0
  4 10  1  0  0  0  0
  5  6  1  0  0  0  0
  5  8  1  0  0  0  0
  6  7  2  0  0  0  0
  8  9  1  0  0  0  0
  9 10  2  0  0  0  0
M  END
>  <CHROM.1>
53.88258045,-13.97648813,7.17606151,-2.85089659,1.33653473,-0.89072000

>  <Name>
ligand

>  <RI>
0

>  <Rbt.Current_Directory>
/home/itssahil/PROJECTS/Mol_Feturizer/New_Systems/rnas/2EEV

>  <Rbt.Executable>
rbdock ($Id: //depot/dev/client3/rdock/2013.1/src/exe/rbdock.cxx#4 $)

>  <Rbt.Library>
libRbt.so (2013.1, Build901 2013/11/27)

>  <Rbt.Parameter_File>
/export/apps/rDock/src/rDock_2013.1_src/data/scripts/dock_solv.prm

>  <Rbt.Receptor>
prm/pocket_docking_5.prm

>  <SCORE>
-19.7124

>  <SCORE.INTER>
-19.7124

>  <SCORE.INTER.CONST>
1

>  <SCORE.INTER.POLAR>
0

>  <SCORE.INTER.ROT>
0

>  <SCORE.INTER.SOLV>
4.25315

>  <SCORE.INTER.VDW>
-18.1593

>  <SCORE.INTER.norm>
-1.97124

>  <SCORE.INTRA>
0

>  <SCORE.INTRA.DIHEDRAL>
0

>  <SCORE.INTRA.DIHEDRAL.0>
0

>  <SCORE.INTRA.POLAR>
0

>  <SCORE.INTRA.POLAR.0>
0

>  <SCORE.INTRA.REPUL>
0

>  <SCORE.INTRA.REPUL.0>
0

>  <SCORE.INTRA.SOLV>
0

>  <SCORE.INTRA.SOLV.lig_0>
-4.25352

>  <SCORE.INTRA.VDW>
0

>  <SCORE.INTRA.VDW.0>
0

>  <SCORE.INTRA.norm>
0

>  <SCORE.RESTR>
0

>  <SCORE.RESTR.CAVITY>
0

>  <SCORE.RESTR.norm>
0

>  <SCORE.SYSTEM>
0

>  <SCORE.SYSTEM.CONST>
0

>  <SCORE.SYSTEM.DIHEDRAL>
0

>  <SCORE.SYSTEM.SOLV>
0

>  <SCORE.SYSTEM.norm>
0

>  <SCORE.heavy>
10

>  <SCORE.norm>
-1.97124

>  <RMSD>
0.355

$$$$
ligand
 OpenBabel11021811423D
libRbt.so/2013.1/901 2013/11/27
 10 11  0  0  0  0  0  0  0  0999 V2000
   53.5343  -13.3840    8.9797 N   0  0  0  0  0  0  0  0  0  0  0  0
   53.7547  -14.7112    9.2151 C   0  0  0  0  0  0  0  0  0  0  0  0
   54.0571  -15.5765    8.2124 N   0  0  0  0  0  0  0  0  0  0  0  0
   54.1193  -14.9746    6.9896 C   0  0  0  0  0  0  0  0  0  0  0  0
   53.9092  -13.6468    6.7002 C   0  0  0  0  0  0  0  0  0  0  0  0
   53.5905  -12.7517    7.7253 C   0  0  0  0  0  0  0  0  0  0  0  0
   53.3689  -11.5602    7.6676 O   0  0  0  0  0  0  0  0  0  0  0  0
   54.0697  -13.4628    5.3534 N   0  0  0  0  0  0  0  0  0  0  0  0
   54.3699  -14.6495    4.8359 C   0  0  0  0  0  0  0  0  0  0  0  0
   54.4104  -15.6238    5.8157 N   0  0  0  0  0  0  0  0  0  0  0  0
  1  2  1  0  0  0  0
  1  6  1  0  0  0  0
  2  3  2  0  0  0  0
  3  4  1  0  0  0  0
  4  5  2  0  0  0  0
  4 10  1  0  0  0  0
  5  6  1  0  0  0  0
  5  8  1  0  0  0  0
  6  7  2  0  0  0  0
  8  9  1  0  0  0  0
  9 10  2  0  0  0  0
M  END
>  <CHROM.1>
53.90782792,-13.98827044,7.16155655,-2.80694246,1.33648655,-0.92587374

>  <Name>
ligand

>  <RI>
0

>  <Rbt.Current_Directory>
/home/itssahil/PROJECTS/Mol_Feturizer/New_Systems/rnas/2EEV

>  <Rbt.Executable>
rbdock ($Id: //depot/dev/client3/rdock/2013.1/src/exe/rbdock.cxx#4 $)

>  <Rbt.Library>
libRbt.so (2013.1, Build901 2013/11/27)

>  <Rbt.Parameter_File>
/export/apps/rDock/src/rDock_2013.1_src/data/scripts/dock_solv.prm

>  <Rbt.Receptor>
prm/pocket_docking_7.prm

>  <SCORE>
-19.7483

>  <SCORE.INTER>
-19.7483

>  <SCORE.INTER.CONST>
1

>  <SCORE.INTER.POLAR>
0

>  <SCORE.INTER.ROT>
0

>  <SCORE.INTER.SOLV>
4.22511

>  <SCORE.INTER.VDW>
-18.1739

>  <SCORE.INTER.norm>
-1.97483

>  <SCORE.INTRA>
0

>  <SCORE.INTRA.DIHEDRAL>
0

>  <SCORE.INTRA.DIHEDRAL.0>
0

>  <SCORE.INTRA.POLAR>
0

>  <SCORE.INTRA.POLAR.0>
0

>  <SCORE.INTRA.REPUL>
0

>  <SCORE.INTRA.REPUL.0>
0

>  <SCORE.INTRA.SOLV>
0

>  <SCORE.INTRA.SOLV.lig_0>
-4.25352

>  <SCORE.INTRA.VDW>
0

>  <SCORE.INTRA.VDW.0>
0

>  <SCORE.INTRA.norm>
0

>  <SCORE.RESTR>
0

>  <SCORE.RESTR.CAVITY>
0

>  <SCORE.RESTR.norm>
0

>  <SCORE.SYSTEM>
0

>  <SCORE.SYSTEM.CONST>
0

>  <SCORE.SYSTEM.DIHEDRAL>
0

>  <SCORE.SYSTEM.SOLV>
0

>  <SCORE.SYSTEM.norm>
0

>  <SCORE.heavy>
10

>  <SCORE.norm>
-1.97483

>  <RMSD>
0.355

$$$$
ligand
 OpenBabel11021811423D
libRbt.so/2013.1/901 2013/11/27
 10 11  0  0  0  0  0  0  0  0999 V2000
   53.5246  -13.3797    8.9822 N   0  0  0  0  0  0  0  0  0  0  0  0
   53.7397  -14.7074    9.2194 C   0  0  0  0  0  0  0  0  0  0  0  0
   54.0416  -15.5747    8.2182 N   0  0  0  0  0  0  0  0  0  0  0  0
   54.1090  -14.9742    6.9951 C   0  0  0  0  0  0  0  0  0  0  0  0
   53.9044  -13.6459    6.7039 C   0  0  0  0  0  0  0  0  0  0  0  0
   53.5863  -12.7487    7.7274 C   0  0  0  0  0  0  0  0  0  0  0  0
   53.3691  -11.5565    7.6680 O   0  0  0  0  0  0  0  0  0  0  0  0
   54.0690  -13.4638    5.3574 N   0  0  0  0  0  0  0  0  0  0  0  0
   54.3663  -14.6520    4.8418 C   0  0  0  0  0  0  0  0  0  0  0  0
   54.4008  -15.6255    5.8226 N   0  0  0  0  0  0  0  0  0  0  0  0
  1  2  1  0  0  0  0
  1  6  1  0  0  0  0
  2  3  2  0  0  0  0
  3  4  1  0  0  0  0
  4  5  2  0  0  0  0
  4 10  1  0  0  0  0
  5  6  1  0  0  0  0
  5  8  1  0  0  0  0
  6  7  2  0  0  0  0
  8  9  1  0  0  0  0
  9 10  2  0  0  0  0
M  END
>  <CHROM.1>
53.90061799,-13.98695094,7.16558757,-2.82502957,1.33776531,-0.90921498

>  <Name>
ligand

>  <RI>
0

>  <Rbt.Current_Directory>
/home/itssahil/PROJECTS/Mol_Feturizer/New_Systems/rnas/2EEV

>  <Rbt.Executable>
rbdock ($Id: //depot/dev/client3/rdock/2013.1/src/exe/rbdock.cxx#4 $)

>  <Rbt.Library>
libRbt.so (2013.1, Build901 2013/11/27)

>  <Rbt.Parameter_File>
/export/apps/rDock/src/rDock_2013.1_src/data/scripts/dock_solv.prm

>  <Rbt.Receptor>
prm/pocket_docking_7.prm

>  <SCORE>
-19.7174

>  <SCORE.INTER>
-19.7174

>  <SCORE.INTER.CONST>
1

>  <SCORE.INTER.POLAR>
0

>  <SCORE.INTER.ROT>
0

>  <SCORE.INTER.SOLV>
4.237

>  <SCORE.INTER.VDW>
-18.1572

>  <SCORE.INTER.norm>
-1.97174

>  <SCORE.INTRA>
0

>  <SCORE.INTRA.DIHEDRAL>
0

>  <SCORE.INTRA.DIHEDRAL.0>
0

>  <SCORE.INTRA.POLAR>
0

>  <SCORE.INTRA.POLAR.0>
0

>  <SCORE.INTRA.REPUL>
0

>  <SCORE.INTRA.REPUL.0>
0

>  <SCORE.INTRA.SOLV>
0

>  <SCORE.INTRA.SOLV.lig_0>
-4.25352

>  <SCORE.INTRA.VDW>
0

>  <SCORE.INTRA.VDW.0>
0

>  <SCORE.INTRA.norm>
0

>  <SCORE.RESTR>
0

>  <SCORE.RESTR.CAVITY>
0

>  <SCORE.RESTR.norm>
0

>  <SCORE.SYSTEM>
0

>  <SCORE.SYSTEM.CONST>
0

>  <SCORE.SYSTEM.DIHEDRAL>
0

>  <SCORE.SYSTEM.SOLV>
0

>  <SCORE.SYSTEM.norm>
0

>  <SCORE.heavy>
10

>  <SCORE.norm>
-1.97174

>  <RMSD>
0.355

$$$$
ligand
 OpenBabel11021811423D
libRbt.so/2013.1/901 2013/11/27
 10 11  0  0  0  0  0  0  0  0999 V2000
   53.5357  -13.3937    8.9783 N   0  0  0  0  0  0  0  0  0  0  0  0
   53.7485  -14.7221    9.2134 C   0  0  0  0  0  0  0  0  0  0  0  0
   54.0515  -15.5879    8.2113 N   0  0  0  0  0  0  0  0  0  0  0  0
   54.1225  -14.9851    6.9894 C   0  0  0  0  0  0  0  0  0  0  0  0
   53.9203  -13.6561    6.7003 C   0  0  0  0  0  0  0  0  0  0  0  0
   53.6010  -12.7604    7.7248 C   0  0  0  0  0  0  0  0  0  0  0  0
   53.3855  -11.5678    7.6672 O   0  0  0  0  0  0  0  0  0  0  0  0
   54.0882  -13.4716    5.3545 N   0  0  0  0  0  0  0  0  0  0  0  0
   54.3851  -14.6592    4.8373 C   0  0  0  0  0  0  0  0  0  0  0  0
   54.4161  -15.6346    5.8163 N   0  0  0  0  0  0  0  0  0  0  0  0
  1  2  1  0  0  0  0
  1  6  1  0  0  0  0
  2  3  2  0  0  0  0
  3  4  1  0  0  0  0
  4  5  2  0  0  0  0
  4 10  1  0  0  0  0
  5  6  1  0  0  0  0
  5  8  1  0  0  0  0
  6  7  2  0  0  0  0
  8  9  1  0  0  0  0
  9 10  2  0  0  0  0
M  END
>  <CHROM.1>
53.91501822,-13.99797673,7.16134850,-2.83617950,1.33739174,-0.89644864

>  <Name>
ligand

>  <RI>
0

>  <Rbt.Current_Directory>
/home/itssahil/PROJECTS/Mol_Feturizer/New_Systems/rnas/2EEV

>  <Rbt.Executable>
rbdock ($Id: //depot/dev/client3/rdock/2013.1/src/exe/rbdock.cxx#4 $)

>  <Rbt.Library>
libRbt.so (2013.1, Build901 2013/11/27)

>  <Rbt.Parameter_File>
/export/apps/rDock/src/rDock_2013.1_src/data/scripts/dock_solv.prm

>  <Rbt.Receptor>
prm/blind_docking_100.prm

>  <SCORE>
-19.7314

>  <SCORE.INTER>
-19.7314

>  <SCORE.INTER.CONST>
1

>  <SCORE.INTER.POLAR>
0

>  <SCORE.INTER.ROT>
0

>  <SCORE.INTER.SOLV>
4.23724

>  <SCORE.INTER.VDW>
-18.1667

>  <SCORE.INTER.norm>
-1.97314

>  <SCORE.INTRA>
0

>  <SCORE.INTRA.DIHEDRAL>
0

>  <SCORE.INTRA.DIHEDRAL.0>
0

>  <SCORE.INTRA.POLAR>
0

>  <SCORE.INTRA.POLAR.0>
0

>  <SCORE.INTRA.REPUL>
0

>  <SCORE.INTRA.REPUL.0>
0

>  <SCORE.INTRA.SOLV>
0

>  <SCORE.INTRA.SOLV.lig_0>
-4.25352

>  <SCORE.INTRA.VDW>
0

>  <SCORE.INTRA.VDW.0>
0

>  <SCORE.INTRA.norm>
0

>  <SCORE.RESTR>
0

>  <SCORE.RESTR.CAVITY>
0

>  <SCORE.RESTR.norm>
0

>  <SCORE.SYSTEM>
0

>  <SCORE.SYSTEM.CONST>
0

>  <SCORE.SYSTEM.DIHEDRAL>
0

>  <SCORE.SYSTEM.SOLV>
0

>  <SCORE.SYSTEM.norm>
0

>  <SCORE.heavy>
10

>  <SCORE.norm>
-1.97314

>  <RMSD>
0.356

$$$$
ligand
 OpenBabel11021811423D
libRbt.so/2013.1/901 2013/11/27
 10 11  0  0  0  0  0  0  0  0999 V2000
   53.5224  -13.3704    8.9809 N   0  0  0  0  0  0  0  0  0  0  0  0
   53.7411  -14.6970    9.2206 C   0  0  0  0  0  0  0  0  0  0  0  0
   54.0439  -15.5657    8.2210 N   0  0  0  0  0  0  0  0  0  0  0  0
   54.1083  -14.9676    6.9965 C   0  0  0  0  0  0  0  0  0  0  0  0
   53.8999  -13.6405    6.7027 C   0  0  0  0  0  0  0  0  0  0  0  0
   53.5809  -12.7419    7.7247 C   0  0  0  0  0  0  0  0  0  0  0  0
   53.3606  -11.5504    7.6631 O   0  0  0  0  0  0  0  0  0  0  0  0
   54.0623  -13.4608    5.3556 N   0  0  0  0  0  0  0  0  0  0  0  0
   54.3619  -14.6494    4.8421 C   0  0  0  0  0  0  0  0  0  0  0  0
   54.4001  -15.6207    5.8249 N   0  0  0  0  0  0  0  0  0  0  0  0
  1  2  1  0  0  0  0
  1  6  1  0  0  0  0
  2  3  2  0  0  0  0
  3  4  1  0  0  0  0
  4  5  2  0  0  0  0
  4 10  1  0  0  0  0
  5  6  1  0  0  0  0
  5  8  1  0  0  0  0
  6  7  2  0  0  0  0
  8  9  1  0  0  0  0
  9 10  2  0  0  0  0
M  END
>  <CHROM.1>
53.89760244,-13.98053759,7.16513059,-2.81399187,1.33657966,-0.92207460

>  <Name>
ligand

>  <RI>
0

>  <Rbt.Current_Directory>
/home/itssahil/PROJECTS/Mol_Feturizer/New_Systems/rnas/2EEV

>  <Rbt.Executable>
rbdock ($Id: //depot/dev/client3/rdock/2013.1/src/exe/rbdock.cxx#4 $)

>  <Rbt.Library>
libRbt.so (2013.1, Build901 2013/11/27)

>  <Rbt.Parameter_File>
/export/apps/rDock/src/rDock_2013.1_src/data/scripts/dock_solv.prm

>  <Rbt.Receptor>
prm/blind_docking_100.prm

>  <SCORE>
-19.7202

>  <SCORE.INTER>
-19.7202

>  <SCORE.INTER.CONST>
1

>  <SCORE.INTER.POLAR>
0

>  <SCORE.INTER.ROT>
0

>  <SCORE.INTER.SOLV>
4.2317

>  <SCORE.INTER.VDW>
-18.1574

>  <SCORE.INTER.norm>
-1.97202

>  <SCORE.INTRA>
0

>  <SCORE.INTRA.DIHEDRAL>
0

>  <SCORE.INTRA.DIHEDRAL.0>
0

>  <SCORE.INTRA.POLAR>
0

>  <SCORE.INTRA.POLAR.0>
0

>  <SCORE.INTRA.REPUL>
0

>  <SCORE.INTRA.REPUL.0>
0

>  <SCORE.INTRA.SOLV>
0

>  <SCORE.INTRA.SOLV.lig_0>
-4.25352

>  <SCORE.INTRA.VDW>
0

>  <SCORE.INTRA.VDW.0>
0

>  <SCORE.INTRA.norm>
0

>  <SCORE.RESTR>
0

>  <SCORE.RESTR.CAVITY>
0

>  <SCORE.RESTR.norm>
0

>  <SCORE.SYSTEM>
0

>  <SCORE.SYSTEM.CONST>
0

>  <SCORE.SYSTEM.DIHEDRAL>
0

>  <SCORE.SYSTEM.SOLV>
0

>  <SCORE.SYSTEM.norm>
0

>  <SCORE.heavy>
10

>  <SCORE.norm>
-1.97202

>  <RMSD>
0.356

$$$$
ligand
 OpenBabel11021811423D
libRbt.so/2013.1/901 2013/11/27
 10 11  0  0  0  0  0  0  0  0999 V2000
   53.4858  -13.3512    8.9876 N   0  0  0  0  0  0  0  0  0  0  0  0
   53.6886  -14.6780    9.2403 C   0  0  0  0  0  0  0  0  0  0  0  0
   53.9930  -15.5579    8.2509 N   0  0  0  0  0  0  0  0  0  0  0  0
   54.0764  -14.9705    7.0224 C   0  0  0  0  0  0  0  0  0  0  0  0
   53.8846  -13.6438    6.7158 C   0  0  0  0  0  0  0  0  0  0  0  0
   53.5639  -12.7337    7.7270 C   0  0  0  0  0  0  0  0  0  0  0  0
   53.3563  -11.5406    7.6534 O   0  0  0  0  0  0  0  0  0  0  0  0
   54.0630  -13.4768    5.3690 N   0  0  0  0  0  0  0  0  0  0  0  0
   54.3559  -14.6724    4.8684 C   0  0  0  0  0  0  0  0  0  0  0  0
   54.3739  -15.6360    5.8594 N   0  0  0  0  0  0  0  0  0  0  0  0
  1  2  1  0  0  0  0
  1  6  1  0  0  0  0
  2  3  2  0  0  0  0
  3  4  1  0  0  0  0
  4  5  2  0  0  0  0
  4 10  1  0  0  0  0
  5  6  1  0  0  0  0
  5  8  1  0  0  0  0
  6  7  2  0  0  0  0
  8  9  1  0  0  0  0
  9 10  2  0  0  0  0
M  END
>  <CHROM.1>
53.87393180,-13.97999905,7.18083964,-2.87689757,1.33782631,-0.86900972

>  <Name>
ligand

>  <RI>
0

>  <Rbt.Current_Directory>
/home/itssahil/PROJECTS/Mol_Feturizer/New_Systems/rnas/2EEV

>  <Rbt.Executable>
rbdock ($Id: //depot/dev/client3/rdock/2013.1/src/exe/rbdock.cxx#4 $)

>  <Rbt.Library>
libRbt.so (2013.1, Build901 2013/11/27)

>  <Rbt.Parameter_File>
/export/apps/rDock/src/rDock_2013.1_src/data/scripts/dock_solv.prm

>  <Rbt.Receptor>
prm/blind_docking_60.prm

>  <SCORE>
-19.7417

>  <SCORE.INTER>
-19.7417

>  <SCORE.INTER.CONST>
1

>  <SCORE.INTER.POLAR>
0

>  <SCORE.INTER.ROT>
0

>  <SCORE.INTER.SOLV>
4.27132

>  <SCORE.INTER.VDW>
-18.1849

>  <SCORE.INTER.norm>
-1.97417

>  <SCORE.INTRA>
0

>  <SCORE.INTRA.DIHEDRAL>
0

>  <SCORE.INTRA.DIHEDRAL.0>
0

>  <SCORE.INTRA.POLAR>
0

>  <SCORE.INTRA.POLAR.0>
0

>  <SCORE.INTRA.REPUL>
0

>  <SCORE.INTRA.REPUL.0>
0

>  <SCORE.INTRA.SOLV>
0

>  <SCORE.INTRA.SOLV.lig_0>
-4.25352

>  <SCORE.INTRA.VDW>
0

>  <SCORE.INTRA.VDW.0>
0

>  <SCORE.INTRA.norm>
0

>  <SCORE.RESTR>
0

>  <SCORE.RESTR.CAVITY>
0

>  <SCORE.RESTR.norm>
0

>  <SCORE.SYSTEM>
0

>  <SCORE.SYSTEM.CONST>
0

>  <SCORE.SYSTEM.DIHEDRAL>
0

>  <SCORE.SYSTEM.SOLV>
0

>  <SCORE.SYSTEM.norm>
0

>  <SCORE.heavy>
10

>  <SCORE.norm>
-1.97417

>  <RMSD>
0.356

$$$$
ligand
 OpenBabel11021811423D
libRbt.so/2013.1/901 2013/11/27
 10 11  0  0  0  0  0  0  0  0999 V2000
   53.4103  -13.1866    9.0357 N   0  0  0  0  0  0  0  0  0  0  0  0
   53.6282  -14.4978    9.3494 C   0  0  0  0  0  0  0  0  0  0  0  0
   53.9589  -15.4157    8.4040 N   0  0  0  0  0  0  0  0  0  0  0  0
   54.0510  -14.8817    7.1519 C   0  0  0  0  0  0  0  0  0  0  0  0
   53.8447  -13.5727    6.7845 C   0  0  0  0  0  0  0  0  0  0  0  0
   53.4971  -12.6239    7.7503 C   0  0  0  0  0  0  0  0  0  0  0  0
   53.2738  -11.4384    7.6213 O   0  0  0  0  0  0  0  0  0  0  0  0
   54.0395  -13.4624    5.4342 N   0  0  0  0  0  0  0  0  0  0  0  0
   54.3562  -14.6745    4.9908 C   0  0  0  0  0  0  0  0  0  0  0  0
   54.3740  -15.5932    6.0235 N   0  0  0  0  0  0  0  0  0  0  0  0
  1  2  1  0  0  0  0
  1  6  1  0  0  0  0
  2  3  2  0  0  0  0
  3  4  1  0  0  0  0
  4  5  2  0  0  0  0
  4 10  1  0  0  0  0
  5  6  1  0  0  0  0
  5  8  1  0  0  0  0
  6  7  2  0  0  0  0
  8  9  1  0  0  0  0
  9 10  2  0  0  0  0
M  END
>  <CHROM.1>
53.83235786,-13.88828991,7.26382194,-2.88292217,1.31804161,-0.90721087

>  <Name>
ligand

>  <RI>
0

>  <Rbt.Current_Directory>
/home/itssahil/PROJECTS/Mol_Feturizer/New_Systems/rnas/2EEV

>  <Rbt.Executable>
rbdock ($Id: //depot/dev/client3/rdock/2013.1/src/exe/rbdock.cxx#4 $)

>  <Rbt.Library>
libRbt.so (2013.1, Build901 2013/11/27)

>  <Rbt.Parameter_File>
/export/apps/rDock/src/rDock_2013.1_src/data/scripts/dock_solv.prm

>  <Rbt.Receptor>
prm/blind_docking_60.prm

>  <SCORE>
-19.6605

>  <SCORE.INTER>
-19.6605

>  <SCORE.INTER.CONST>
1

>  <SCORE.INTER.POLAR>
0

>  <SCORE.INTER.ROT>
0

>  <SCORE.INTER.SOLV>
4.23747

>  <SCORE.INTER.VDW>
-18.1195

>  <SCORE.INTER.norm>
-1.96605

>  <SCORE.INTRA>
0

>  <SCORE.INTRA.DIHEDRAL>
0

>  <SCORE.INTRA.DIHEDRAL.0>
0

>  <SCORE.INTRA.POLAR>
0

>  <SCORE.INTRA.POLAR.0>
0

>  <SCORE.INTRA.REPUL>
0

>  <SCORE.INTRA.REPUL.0>
0

>  <SCORE.INTRA.SOLV>
0

>  <SCORE.INTRA.SOLV.lig_0>
-4.25352

>  <SCORE.INTRA.VDW>
0

>  <SCORE.INTRA.VDW.0>
0

>  <SCORE.INTRA.norm>
0

>  <SCORE.RESTR>
0

>  <SCORE.RESTR.CAVITY>
0

>  <SCORE.RESTR.norm>
0

>  <SCORE.SYSTEM>
0

>  <SCORE.SYSTEM.CONST>
0

>  <SCORE.SYSTEM.DIHEDRAL>
0

>  <SCORE.SYSTEM.SOLV>
0

>  <SCORE.SYSTEM.norm>
0

>  <SCORE.heavy>
10

>  <SCORE.norm>
-1.96605

>  <RMSD>
0.356

$$$$
ligand
 OpenBabel11021811423D
libRbt.so/2013.1/901 2013/11/27
 10 11  0  0  0  0  0  0  0  0999 V2000
   53.4633  -13.3095    8.9956 N   0  0  0  0  0  0  0  0  0  0  0  0
   53.6736  -14.6317    9.2654 C   0  0  0  0  0  0  0  0  0  0  0  0
   53.9810  -15.5229    8.2872 N   0  0  0  0  0  0  0  0  0  0  0  0
   54.0590  -14.9514    7.0509 C   0  0  0  0  0  0  0  0  0  0  0  0
   53.8596  -13.6299    6.7271 C   0  0  0  0  0  0  0  0  0  0  0  0
   53.5358  -12.7082    7.7268 C   0  0  0  0  0  0  0  0  0  0  0  0
   53.3218  -11.5173    7.6378 O   0  0  0  0  0  0  0  0  0  0  0  0
   54.0347  -13.4798    5.3779 N   0  0  0  0  0  0  0  0  0  0  0  0
   54.3331  -14.6804    4.8926 C   0  0  0  0  0  0  0  0  0  0  0  0
   54.3580  -15.6307    5.8962 N   0  0  0  0  0  0  0  0  0  0  0  0
  1  2  1  0  0  0  0
  1  6  1  0  0  0  0
  2  3  2  0  0  0  0
  3  4  1  0  0  0  0
  4  5  2  0  0  0  0
  4 10  1  0  0  0  0
  5  6  1  0  0  0  0
  5  8  1  0  0  0  0
  6  7  2  0  0  0  0
  8  9  1  0  0  0  0
  9 10  2  0  0  0  0
M  END
>  <CHROM.1>
53.85154760,-13.96000010,7.19658725,-2.85634020,1.33484213,-0.90222576

>  <Name>
ligand

>  <RI>
0

>  <Rbt.Current_Directory>
/home/itssahil/PROJECTS/Mol_Feturizer/New_Systems/rnas/2EEV

>  <Rbt.Executable>
rbdock ($Id: //depot/dev/client3/rdock/2013.1/src/exe/rbdock.cxx#4 $)

>  <Rbt.Library>
libRbt.so (2013.1, Build901 2013/11/27)

>  <Rbt.Parameter_File>
/export/apps/rDock/src/rDock_2013.1_src/data/scripts/dock_solv.prm

>  <Rbt.Receptor>
prm/blind_docking_60.prm

>  <SCORE>
-19.7096

>  <SCORE.INTER>
-19.7096

>  <SCORE.INTER.CONST>
1

>  <SCORE.INTER.POLAR>
0

>  <SCORE.INTER.ROT>
0

>  <SCORE.INTER.SOLV>
4.26998

>  <SCORE.INTER.VDW>
-18.1631

>  <SCORE.INTER.norm>
-1.97096

>  <SCORE.INTRA>
0

>  <SCORE.INTRA.DIHEDRAL>
0

>  <SCORE.INTRA.DIHEDRAL.0>
0

>  <SCORE.INTRA.POLAR>
0

>  <SCORE.INTRA.POLAR.0>
0

>  <SCORE.INTRA.REPUL>
0

>  <SCORE.INTRA.REPUL.0>
0

>  <SCORE.INTRA.SOLV>
0

>  <SCORE.INTRA.SOLV.lig_0>
-4.25352

>  <SCORE.INTRA.VDW>
0

>  <SCORE.INTRA.VDW.0>
0

>  <SCORE.INTRA.norm>
0

>  <SCORE.RESTR>
0

>  <SCORE.RESTR.CAVITY>
0

>  <SCORE.RESTR.norm>
0

>  <SCORE.SYSTEM>
0

>  <SCORE.SYSTEM.CONST>
0

>  <SCORE.SYSTEM.DIHEDRAL>
0

>  <SCORE.SYSTEM.SOLV>
0

>  <SCORE.SYSTEM.norm>
0

>  <SCORE.heavy>
10

>  <SCORE.norm>
-1.97096

>  <RMSD>
0.356

$$$$
ligand
 OpenBabel11021811423D
libRbt.so/2013.1/901 2013/11/27
 10 11  0  0  0  0  0  0  0  0999 V2000
   53.5418  -13.3744    8.9801 N   0  0  0  0  0  0  0  0  0  0  0  0
   53.7721  -14.6989    9.2205 C   0  0  0  0  0  0  0  0  0  0  0  0
   54.0674  -15.5684    8.2192 N   0  0  0  0  0  0  0  0  0  0  0  0
   54.1120  -14.9733    6.9924 C   0  0  0  0  0  0  0  0  0  0  0  0
   53.8914  -13.6483    6.6979 C   0  0  0  0  0  0  0  0  0  0  0  0
   53.5798  -12.7490    7.7216 C   0  0  0  0  0  0  0  0  0  0  0  0
   53.3511  -11.5591    7.6596 O   0  0  0  0  0  0  0  0  0  0  0  0
   54.0351  -13.4713    5.3483 N   0  0  0  0  0  0  0  0  0  0  0  0
   54.3356  -14.6593    4.8341 C   0  0  0  0  0  0  0  0  0  0  0  0
   54.3928  -15.6276    5.8189 N   0  0  0  0  0  0  0  0  0  0  0  0
  1  2  1  0  0  0  0
  1  6  1  0  0  0  0
  2  3  2  0  0  0  0
  3  4  1  0  0  0  0
  4  5  2  0  0  0  0
  4 10  1  0  0  0  0
  5  6  1  0  0  0  0
  5  8  1  0  0  0  0
  6  7  2  0  0  0  0
  8  9  1  0  0  0  0
  9 10  2  0  0  0  0
M  END
>  <CHROM.1>
53.89723426,-13.98711584,7.16120137,-2.75201610,1.33886525,-0.98506299

>  <Name>
ligand

>  <RI>
0

>  <Rbt.Current_Directory>
/home/itssahil/PROJECTS/Mol_Feturizer/New_Systems/rnas/2EEV

>  <Rbt.Executable>
rbdock ($Id: //depot/dev/client3/rdock/2013.1/src/exe/rbdock.cxx#4 $)

>  <Rbt.Library>
libRbt.so (2013.1, Build901 2013/11/27)

>  <Rbt.Parameter_File>
/export/apps/rDock/src/rDock_2013.1_src/data/scripts/dock_solv.prm

>  <Rbt.Receptor>
prm/pocket_docking_3.prm

>  <SCORE>
-19.7139

>  <SCORE.INTER>
-19.7139

>  <SCORE.INTER.CONST>
1

>  <SCORE.INTER.POLAR>
0

>  <SCORE.INTER.ROT>
0

>  <SCORE.INTER.SOLV>
4.22278

>  <SCORE.INTER.VDW>
-18.1502

>  <SCORE.INTER.norm>
-1.97139

>  <SCORE.INTRA>
0

>  <SCORE.INTRA.DIHEDRAL>
0

>  <SCORE.INTRA.DIHEDRAL.0>
0

>  <SCORE.INTRA.POLAR>
0

>  <SCORE.INTRA.POLAR.0>
0

>  <SCORE.INTRA.REPUL>
0

>  <SCORE.INTRA.REPUL.0>
0

>  <SCORE.INTRA.SOLV>
0

>  <SCORE.INTRA.SOLV.lig_0>
-4.25352

>  <SCORE.INTRA.VDW>
0

>  <SCORE.INTRA.VDW.0>
0

>  <SCORE.INTRA.norm>
0

>  <SCORE.RESTR>
0

>  <SCORE.RESTR.CAVITY>
0

>  <SCORE.RESTR.norm>
0

>  <SCORE.SYSTEM>
0

>  <SCORE.SYSTEM.CONST>
0

>  <SCORE.SYSTEM.DIHEDRAL>
0

>  <SCORE.SYSTEM.SOLV>
0

>  <SCORE.SYSTEM.norm>
0

>  <SCORE.heavy>
10

>  <SCORE.norm>
-1.97139

>  <RMSD>
0.356

$$$$
ligand
 OpenBabel11021811423D
libRbt.so/2013.1/901 2013/11/27
 10 11  0  0  0  0  0  0  0  0999 V2000
   53.5241  -13.3348    8.9826 N   0  0  0  0  0  0  0  0  0  0  0  0
   53.7546  -14.6581    9.2296 C   0  0  0  0  0  0  0  0  0  0  0  0
   54.0600  -15.5306    8.2340 N   0  0  0  0  0  0  0  0  0  0  0  0
   54.1141  -14.9397    7.0055 C   0  0  0  0  0  0  0  0  0  0  0  0
   53.8936  -13.6162    6.7044 C   0  0  0  0  0  0  0  0  0  0  0  0
   53.5718  -12.7138    7.7222 C   0  0  0  0  0  0  0  0  0  0  0  0
   53.3415  -11.5245    7.6541 O   0  0  0  0  0  0  0  0  0  0  0  0
   54.0485  -13.4437    5.3554 N   0  0  0  0  0  0  0  0  0  0  0  0
   54.3555  -14.6330    4.8481 C   0  0  0  0  0  0  0  0  0  0  0  0
   54.4060  -15.5977    5.8368 N   0  0  0  0  0  0  0  0  0  0  0  0
  1  2  1  0  0  0  0
  1  6  1  0  0  0  0
  2  3  2  0  0  0  0
  3  4  1  0  0  0  0
  4  5  2  0  0  0  0
  4 10  1  0  0  0  0
  5  6  1  0  0  0  0
  5  8  1  0  0  0  0
  6  7  2  0  0  0  0
  8  9  1  0  0  0  0
  9 10  2  0  0  0  0
M  END
>  <CHROM.1>
53.89609717,-13.95334066,7.16895011,-2.77801385,1.33261375,-0.96333246

>  <Name>
ligand

>  <RI>
0

>  <Rbt.Current_Directory>
/home/itssahil/PROJECTS/Mol_Feturizer/New_Systems/rnas/2EEV

>  <Rbt.Executable>
rbdock ($Id: //depot/dev/client3/rdock/2013.1/src/exe/rbdock.cxx#4 $)

>  <Rbt.Library>
libRbt.so (2013.1, Build901 2013/11/27)

>  <Rbt.Parameter_File>
/export/apps/rDock/src/rDock_2013.1_src/data/scripts/dock_solv.prm

>  <Rbt.Receptor>
prm/pocket_docking_4.prm

>  <SCORE>
-19.7069

>  <SCORE.INTER>
-19.7069

>  <SCORE.INTER.CONST>
1

>  <SCORE.INTER.POLAR>
0

>  <SCORE.INTER.ROT>
0

>  <SCORE.INTER.SOLV>
4.21008

>  <SCORE.INTER.VDW>
-18.1413

>  <SCORE.INTER.norm>
-1.97069

>  <SCORE.INTRA>
0

>  <SCORE.INTRA.DIHEDRAL>
0

>  <SCORE.INTRA.DIHEDRAL.0>
0

>  <SCORE.INTRA.POLAR>
0

>  <SCORE.INTRA.POLAR.0>
0

>  <SCORE.INTRA.REPUL>
0

>  <SCORE.INTRA.REPUL.0>
0

>  <SCORE.INTRA.SOLV>
0

>  <SCORE.INTRA.SOLV.lig_0>
-4.25352

>  <SCORE.INTRA.VDW>
0

>  <SCORE.INTRA.VDW.0>
0

>  <SCORE.INTRA.norm>
0

>  <SCORE.RESTR>
0

>  <SCORE.RESTR.CAVITY>
0

>  <SCORE.RESTR.norm>
0

>  <SCORE.SYSTEM>
0

>  <SCORE.SYSTEM.CONST>
0

>  <SCORE.SYSTEM.DIHEDRAL>
0

>  <SCORE.SYSTEM.SOLV>
0

>  <SCORE.SYSTEM.norm>
0

>  <SCORE.heavy>
10

>  <SCORE.norm>
-1.97069

>  <RMSD>
0.356

$$$$
ligand
 OpenBabel11021811423D
libRbt.so/2013.1/901 2013/11/27
 10 11  0  0  0  0  0  0  0  0999 V2000
   53.4818  -13.3405    8.9813 N   0  0  0  0  0  0  0  0  0  0  0  0
   53.7057  -14.6641    9.2326 C   0  0  0  0  0  0  0  0  0  0  0  0
   54.0202  -15.5387    8.2417 N   0  0  0  0  0  0  0  0  0  0  0  0
   54.0903  -14.9495    7.0132 C   0  0  0  0  0  0  0  0  0  0  0  0
   53.8771  -13.6257    6.7079 C   0  0  0  0  0  0  0  0  0  0  0  0
   53.5460  -12.7212    7.7208 C   0  0  0  0  0  0  0  0  0  0  0  0
   53.3199  -11.5314    7.6486 O   0  0  0  0  0  0  0  0  0  0  0  0
   54.0482  -13.4553    5.3607 N   0  0  0  0  0  0  0  0  0  0  0  0
   54.3578  -14.6461    4.8583 C   0  0  0  0  0  0  0  0  0  0  0  0
   54.3939  -15.6098    5.8487 N   0  0  0  0  0  0  0  0  0  0  0  0
  1  2  1  0  0  0  0
  1  6  1  0  0  0  0
  2  3  2  0  0  0  0
  3  4  1  0  0  0  0
  4  5  2  0  0  0  0
  4 10  1  0  0  0  0
  5  6  1  0  0  0  0
  5  8  1  0  0  0  0
  6  7  2  0  0  0  0
  8  9  1  0  0  0  0
  9 10  2  0  0  0  0
M  END
>  <CHROM.1>
53.87320051,-13.96230358,7.17286738,-2.82467053,1.32802657,-0.91922708

>  <Name>
ligand

>  <RI>
0

>  <Rbt.Current_Directory>
/home/itssahil/PROJECTS/Mol_Feturizer/New_Systems/rnas/2EEV

>  <Rbt.Executable>
rbdock ($Id: //depot/dev/client3/rdock/2013.1/src/exe/rbdock.cxx#4 $)

>  <Rbt.Library>
libRbt.so (2013.1, Build901 2013/11/27)

>  <Rbt.Parameter_File>
/export/apps/rDock/src/rDock_2013.1_src/data/scripts/dock_solv.prm

>  <Rbt.Receptor>
prm/pocket_docking_4.prm

>  <SCORE>
-19.7157

>  <SCORE.INTER>
-19.7157

>  <SCORE.INTER.CONST>
1

>  <SCORE.INTER.POLAR>
0

>  <SCORE.INTER.ROT>
0

>  <SCORE.INTER.SOLV>
4.22843

>  <SCORE.INTER.VDW>
-18.1532

>  <SCORE.INTER.norm>
-1.97157

>  <SCORE.INTRA>
0

>  <SCORE.INTRA.DIHEDRAL>
0

>  <SCORE.INTRA.DIHEDRAL.0>
0

>  <SCORE.INTRA.POLAR>
0

>  <SCORE.INTRA.POLAR.0>
0

>  <SCORE.INTRA.REPUL>
0

>  <SCORE.INTRA.REPUL.0>
0

>  <SCORE.INTRA.SOLV>
0

>  <SCORE.INTRA.SOLV.lig_0>
-4.25352

>  <SCORE.INTRA.VDW>
0

>  <SCORE.INTRA.VDW.0>
0

>  <SCORE.INTRA.norm>
0

>  <SCORE.RESTR>
0

>  <SCORE.RESTR.CAVITY>
0

>  <SCORE.RESTR.norm>
0

>  <SCORE.SYSTEM>
0

>  <SCORE.SYSTEM.CONST>
0

>  <SCORE.SYSTEM.DIHEDRAL>
0

>  <SCORE.SYSTEM.SOLV>
0

>  <SCORE.SYSTEM.norm>
0

>  <SCORE.heavy>
10

>  <SCORE.norm>
-1.97157

>  <RMSD>
0.356

$$$$
ligand
 OpenBabel11021811423D
libRbt.so/2013.1/901 2013/11/27
 10 11  0  0  0  0  0  0  0  0999 V2000
   53.4017  -13.1868    9.0355 N   0  0  0  0  0  0  0  0  0  0  0  0
   53.6237  -14.4973    9.3493 C   0  0  0  0  0  0  0  0  0  0  0  0
   53.9577  -15.4141    8.4039 N   0  0  0  0  0  0  0  0  0  0  0  0
   54.0485  -14.8797    7.1519 C   0  0  0  0  0  0  0  0  0  0  0  0
   53.8382  -13.5714    6.7845 C   0  0  0  0  0  0  0  0  0  0  0  0
   53.4872  -12.6238    7.7502 C   0  0  0  0  0  0  0  0  0  0  0  0
   53.2601  -11.4389    7.6212 O   0  0  0  0  0  0  0  0  0  0  0  0
   54.0332  -13.4604    5.4343 N   0  0  0  0  0  0  0  0  0  0  0  0
   54.3540  -14.6714    4.9909 C   0  0  0  0  0  0  0  0  0  0  0  0
   54.3744  -15.5901    6.0235 N   0  0  0  0  0  0  0  0  0  0  0  0
  1  2  1  0  0  0  0
  1  6  1  0  0  0  0
  2  3  2  0  0  0  0
  3  4  1  0  0  0  0
  4  5  2  0  0  0  0
  4 10  1  0  0  0  0
  5  6  1  0  0  0  0
  5  8  1  0  0  0  0
  6  7  2  0  0  0  0
  8  9  1  0  0  0  0
  9 10  2  0  0  0  0
M  END
>  <CHROM.1>
53.82668576,-13.88703073,7.26376799,-2.87627282,1.31524624,-0.91358775

>  <Name>
ligand

>  <RI>
0

>  <Rbt.Current_Directory>
/home/itssahil/PROJECTS/Mol_Feturizer/New_Systems/rnas/2EEV

>  <Rbt.Executable>
rbdock ($Id: //depot/dev/client3/rdock/2013.1/src/exe/rbdock.cxx#4 $)

>  <Rbt.Library>
libRbt.so (2013.1, Build901 2013/11/27)

>  <Rbt.Parameter_File>
/export/apps/rDock/src/rDock_2013.1_src/data/scripts/dock_solv.prm

>  <Rbt.Receptor>
prm/pocket_docking_5.prm

>  <SCORE>
-19.66

>  <SCORE.INTER>
-19.66

>  <SCORE.INTER.CONST>
1

>  <SCORE.INTER.POLAR>
0

>  <SCORE.INTER.ROT>
0

>  <SCORE.INTER.SOLV>
4.23119

>  <SCORE.INTER.VDW>
-18.1171

>  <SCORE.INTER.norm>
-1.966

>  <SCORE.INTRA>
0

>  <SCORE.INTRA.DIHEDRAL>
0

>  <SCORE.INTRA.DIHEDRAL.0>
0

>  <SCORE.INTRA.POLAR>
0

>  <SCORE.INTRA.POLAR.0>
0

>  <SCORE.INTRA.REPUL>
0

>  <SCORE.INTRA.REPUL.0>
0

>  <SCORE.INTRA.SOLV>
0

>  <SCORE.INTRA.SOLV.lig_0>
-4.25352

>  <SCORE.INTRA.VDW>
0

>  <SCORE.INTRA.VDW.0>
0

>  <SCORE.INTRA.norm>
0

>  <SCORE.RESTR>
0

>  <SCORE.RESTR.CAVITY>
0

>  <SCORE.RESTR.norm>
0

>  <SCORE.SYSTEM>
0

>  <SCORE.SYSTEM.CONST>
0

>  <SCORE.SYSTEM.DIHEDRAL>
0

>  <SCORE.SYSTEM.SOLV>
0

>  <SCORE.SYSTEM.norm>
0

>  <SCORE.heavy>
10

>  <SCORE.norm>
-1.966

>  <RMSD>
0.356

$$$$
ligand
 OpenBabel11021811423D
libRbt.so/2013.1/901 2013/11/27
 10 11  0  0  0  0  0  0  0  0999 V2000
   53.5324  -13.3802    8.9793 N   0  0  0  0  0  0  0  0  0  0  0  0
   53.7524  -14.7074    9.2149 C   0  0  0  0  0  0  0  0  0  0  0  0
   54.0547  -15.5730    8.2124 N   0  0  0  0  0  0  0  0  0  0  0  0
   54.1171  -14.9713    6.9895 C   0  0  0  0  0  0  0  0  0  0  0  0
   53.9075  -13.6435    6.6999 C   0  0  0  0  0  0  0  0  0  0  0  0
   53.5890  -12.7481    7.7248 C   0  0  0  0  0  0  0  0  0  0  0  0
   53.3677  -11.5566    7.6669 O   0  0  0  0  0  0  0  0  0  0  0  0
   54.0682  -13.4598    5.3531 N   0  0  0  0  0  0  0  0  0  0  0  0
   54.3681  -14.6467    4.8358 C   0  0  0  0  0  0  0  0  0  0  0  0
   54.4081  -15.6208    5.8158 N   0  0  0  0  0  0  0  0  0  0  0  0
  1  2  1  0  0  0  0
  1  6  1  0  0  0  0
  2  3  2  0  0  0  0
  3  4  1  0  0  0  0
  4  5  2  0  0  0  0
  4 10  1  0  0  0  0
  5  6  1  0  0  0  0
  5  8  1  0  0  0  0
  6  7  2  0  0  0  0
  8  9  1  0  0  0  0
  9 10  2  0  0  0  0
M  END
>  <CHROM.1>
53.90594632,-13.98487933,7.16130303,-2.80802183,1.33668469,-0.92499997

>  <Name>
ligand

>  <RI>
0

>  <Rbt.Current_Directory>
/home/itssahil/PROJECTS/Mol_Feturizer/New_Systems/rnas/2EEV

>  <Rbt.Executable>
rbdock ($Id: //depot/dev/client3/rdock/2013.1/src/exe/rbdock.cxx#4 $)

>  <Rbt.Library>
libRbt.so (2013.1, Build901 2013/11/27)

>  <Rbt.Parameter_File>
/export/apps/rDock/src/rDock_2013.1_src/data/scripts/dock_solv.prm

>  <Rbt.Receptor>
prm/pocket_docking_6.prm

>  <SCORE>
-19.7494

>  <SCORE.INTER>
-19.7494

>  <SCORE.INTER.CONST>
1

>  <SCORE.INTER.POLAR>
0

>  <SCORE.INTER.ROT>
0

>  <SCORE.INTER.SOLV>
4.22642

>  <SCORE.INTER.VDW>
-18.1751

>  <SCORE.INTER.norm>
-1.97494

>  <SCORE.INTRA>
0

>  <SCORE.INTRA.DIHEDRAL>
0

>  <SCORE.INTRA.DIHEDRAL.0>
0

>  <SCORE.INTRA.POLAR>
0

>  <SCORE.INTRA.POLAR.0>
0

>  <SCORE.INTRA.REPUL>
0

>  <SCORE.INTRA.REPUL.0>
0

>  <SCORE.INTRA.SOLV>
0

>  <SCORE.INTRA.SOLV.lig_0>
-4.25352

>  <SCORE.INTRA.VDW>
0

>  <SCORE.INTRA.VDW.0>
0

>  <SCORE.INTRA.norm>
0

>  <SCORE.RESTR>
0

>  <SCORE.RESTR.CAVITY>
0

>  <SCORE.RESTR.norm>
0

>  <SCORE.SYSTEM>
0

>  <SCORE.SYSTEM.CONST>
0

>  <SCORE.SYSTEM.DIHEDRAL>
0

>  <SCORE.SYSTEM.SOLV>
0

>  <SCORE.SYSTEM.norm>
0

>  <SCORE.heavy>
10

>  <SCORE.norm>
-1.97494

>  <RMSD>
0.356

$$$$
ligand
 OpenBabel11021811423D
libRbt.so/2013.1/901 2013/11/27
 10 11  0  0  0  0  0  0  0  0999 V2000
   53.5463  -13.3828    8.9803 N   0  0  0  0  0  0  0  0  0  0  0  0
   53.7714  -14.7086    9.2187 C   0  0  0  0  0  0  0  0  0  0  0  0
   54.0672  -15.5770    8.2168 N   0  0  0  0  0  0  0  0  0  0  0  0
   54.1180  -14.9796    6.9913 C   0  0  0  0  0  0  0  0  0  0  0  0
   53.9028  -13.6533    6.6987 C   0  0  0  0  0  0  0  0  0  0  0  0
   53.5908  -12.7550    7.7232 C   0  0  0  0  0  0  0  0  0  0  0  0
   53.3664  -11.5642    7.6629 O   0  0  0  0  0  0  0  0  0  0  0  0
   54.0517  -13.4740    5.3500 N   0  0  0  0  0  0  0  0  0  0  0  0
   54.3500  -14.6620    4.8344 C   0  0  0  0  0  0  0  0  0  0  0  0
   54.4005  -15.6325    5.8175 N   0  0  0  0  0  0  0  0  0  0  0  0
  1  2  1  0  0  0  0
  1  6  1  0  0  0  0
  2  3  2  0  0  0  0
  3  4  1  0  0  0  0
  4  5  2  0  0  0  0
  4 10  1  0  0  0  0
  5  6  1  0  0  0  0
  5  8  1  0  0  0  0
  6  7  2  0  0  0  0
  8  9  1  0  0  0  0
  9 10  2  0  0  0  0
M  END
>  <CHROM.1>
53.90592880,-13.99303237,7.16135987,-2.77260543,1.33976427,-0.96300868

>  <Name>
ligand

>  <RI>
0

>  <Rbt.Current_Directory>
/home/itssahil/PROJECTS/Mol_Feturizer/New_Systems/rnas/2EEV

>  <Rbt.Executable>
rbdock ($Id: //depot/dev/client3/rdock/2013.1/src/exe/rbdock.cxx#4 $)

>  <Rbt.Library>
libRbt.so (2013.1, Build901 2013/11/27)

>  <Rbt.Parameter_File>
/export/apps/rDock/src/rDock_2013.1_src/data/scripts/dock_solv.prm

>  <Rbt.Receptor>
prm/pocket_docking_7.prm

>  <SCORE>
-19.7125

>  <SCORE.INTER>
-19.7125

>  <SCORE.INTER.CONST>
1

>  <SCORE.INTER.POLAR>
0

>  <SCORE.INTER.ROT>
0

>  <SCORE.INTER.SOLV>
4.22574

>  <SCORE.INTER.VDW>
-18.1502

>  <SCORE.INTER.norm>
-1.97125

>  <SCORE.INTRA>
0

>  <SCORE.INTRA.DIHEDRAL>
0

>  <SCORE.INTRA.DIHEDRAL.0>
0

>  <SCORE.INTRA.POLAR>
0

>  <SCORE.INTRA.POLAR.0>
0

>  <SCORE.INTRA.REPUL>
0

>  <SCORE.INTRA.REPUL.0>
0

>  <SCORE.INTRA.SOLV>
0

>  <SCORE.INTRA.SOLV.lig_0>
-4.25352

>  <SCORE.INTRA.VDW>
0

>  <SCORE.INTRA.VDW.0>
0

>  <SCORE.INTRA.norm>
0

>  <SCORE.RESTR>
0

>  <SCORE.RESTR.CAVITY>
0

>  <SCORE.RESTR.norm>
0

>  <SCORE.SYSTEM>
0

>  <SCORE.SYSTEM.CONST>
0

>  <SCORE.SYSTEM.DIHEDRAL>
0

>  <SCORE.SYSTEM.SOLV>
0

>  <SCORE.SYSTEM.norm>
0

>  <SCORE.heavy>
10

>  <SCORE.norm>
-1.97125

>  <RMSD>
0.356

$$$$
ligand
 OpenBabel11021811423D
libRbt.so/2013.1/901 2013/11/27
 10 11  0  0  0  0  0  0  0  0999 V2000
   53.5515  -13.3800    8.9781 N   0  0  0  0  0  0  0  0  0  0  0  0
   53.7806  -14.7049    9.2176 C   0  0  0  0  0  0  0  0  0  0  0  0
   54.0761  -15.5738    8.2159 N   0  0  0  0  0  0  0  0  0  0  0  0
   54.1224  -14.9777    6.9896 C   0  0  0  0  0  0  0  0  0  0  0  0
   53.9031  -13.6524    6.6960 C   0  0  0  0  0  0  0  0  0  0  0  0
   53.5913  -12.7536    7.7201 C   0  0  0  0  0  0  0  0  0  0  0  0
   53.3636  -11.5635    7.6589 O   0  0  0  0  0  0  0  0  0  0  0  0
   54.0482  -13.4743    5.3467 N   0  0  0  0  0  0  0  0  0  0  0  0
   54.3483  -14.6622    4.8318 C   0  0  0  0  0  0  0  0  0  0  0  0
   54.4038  -15.6314    5.8159 N   0  0  0  0  0  0  0  0  0  0  0  0
  1  2  1  0  0  0  0
  1  6  1  0  0  0  0
  2  3  2  0  0  0  0
  3  4  1  0  0  0  0
  4  5  2  0  0  0  0
  4 10  1  0  0  0  0
  5  6  1  0  0  0  0
  5  8  1  0  0  0  0
  6  7  2  0  0  0  0
  8  9  1  0  0  0  0
  9 10  2  0  0  0  0
M  END
>  <CHROM.1>
53.90824005,-13.99154145,7.15903212,-2.75740358,1.33901905,-0.97900338

>  <Name>
ligand

>  <RI>
0

>  <Rbt.Current_Directory>
/home/itssahil/PROJECTS/Mol_Feturizer/New_Systems/rnas/2EEV

>  <Rbt.Executable>
rbdock ($Id: //depot/dev/client3/rdock/2013.1/src/exe/rbdock.cxx#4 $)

>  <Rbt.Library>
libRbt.so (2013.1, Build901 2013/11/27)

>  <Rbt.Parameter_File>
/export/apps/rDock/src/rDock_2013.1_src/data/scripts/dock_solv.prm

>  <Rbt.Receptor>
prm/blind_docking_100.prm

>  <SCORE>
-19.7086

>  <SCORE.INTER>
-19.7086

>  <SCORE.INTER.CONST>
1

>  <SCORE.INTER.POLAR>
0

>  <SCORE.INTER.ROT>
0

>  <SCORE.INTER.SOLV>
4.21901

>  <SCORE.INTER.VDW>
-18.1454

>  <SCORE.INTER.norm>
-1.97086

>  <SCORE.INTRA>
0

>  <SCORE.INTRA.DIHEDRAL>
0

>  <SCORE.INTRA.DIHEDRAL.0>
0

>  <SCORE.INTRA.POLAR>
0

>  <SCORE.INTRA.POLAR.0>
0

>  <SCORE.INTRA.REPUL>
0

>  <SCORE.INTRA.REPUL.0>
0

>  <SCORE.INTRA.SOLV>
0

>  <SCORE.INTRA.SOLV.lig_0>
-4.25352

>  <SCORE.INTRA.VDW>
0

>  <SCORE.INTRA.VDW.0>
0

>  <SCORE.INTRA.norm>
0

>  <SCORE.RESTR>
0

>  <SCORE.RESTR.CAVITY>
0

>  <SCORE.RESTR.norm>
0

>  <SCORE.SYSTEM>
0

>  <SCORE.SYSTEM.CONST>
0

>  <SCORE.SYSTEM.DIHEDRAL>
0

>  <SCORE.SYSTEM.SOLV>
0

>  <SCORE.SYSTEM.norm>
0

>  <SCORE.heavy>
10

>  <SCORE.norm>
-1.97086

>  <RMSD>
0.357

$$$$
ligand
 OpenBabel11021811423D
libRbt.so/2013.1/901 2013/11/27
 10 11  0  0  0  0  0  0  0  0999 V2000
   53.5374  -13.3873    8.9834 N   0  0  0  0  0  0  0  0  0  0  0  0
   53.7491  -14.7166    9.2147 C   0  0  0  0  0  0  0  0  0  0  0  0
   54.0460  -15.5808    8.2093 N   0  0  0  0  0  0  0  0  0  0  0  0
   54.1123  -14.9755    6.9885 C   0  0  0  0  0  0  0  0  0  0  0  0
   53.9109  -13.6455    6.7032 C   0  0  0  0  0  0  0  0  0  0  0  0
   53.5980  -12.7514    7.7310 C   0  0  0  0  0  0  0  0  0  0  0  0
   53.3842  -11.5584    7.6770 O   0  0  0  0  0  0  0  0  0  0  0  0
   54.0729  -13.4584    5.3570 N   0  0  0  0  0  0  0  0  0  0  0  0
   54.3653  -14.6453    4.8358 C   0  0  0  0  0  0  0  0  0  0  0  0
   54.3992  -15.6229    5.8126 N   0  0  0  0  0  0  0  0  0  0  0  0
  1  2  1  0  0  0  0
  1  6  1  0  0  0  0
  2  3  2  0  0  0  0
  3  4  1  0  0  0  0
  4  5  2  0  0  0  0
  4 10  1  0  0  0  0
  5  6  1  0  0  0  0
  5  8  1  0  0  0  0
  6  7  2  0  0  0  0
  8  9  1  0  0  0  0
  9 10  2  0  0  0  0
M  END
>  <CHROM.1>
53.90725154,-13.98833502,7.16345582,-2.82476289,1.34161504,-0.90542001

>  <Name>
ligand

>  <RI>
0

>  <Rbt.Current_Directory>
/home/itssahil/PROJECTS/Mol_Feturizer/New_Systems/rnas/2EEV

>  <Rbt.Executable>
rbdock ($Id: //depot/dev/client3/rdock/2013.1/src/exe/rbdock.cxx#4 $)

>  <Rbt.Library>
libRbt.so (2013.1, Build901 2013/11/27)

>  <Rbt.Parameter_File>
/export/apps/rDock/src/rDock_2013.1_src/data/scripts/dock_solv.prm

>  <Rbt.Receptor>
prm/blind_docking_100.prm

>  <SCORE>
-19.7428

>  <SCORE.INTER>
-19.7428

>  <SCORE.INTER.CONST>
1

>  <SCORE.INTER.POLAR>
0

>  <SCORE.INTER.ROT>
0

>  <SCORE.INTER.SOLV>
4.24479

>  <SCORE.INTER.VDW>
-18.1768

>  <SCORE.INTER.norm>
-1.97428

>  <SCORE.INTRA>
0

>  <SCORE.INTRA.DIHEDRAL>
0

>  <SCORE.INTRA.DIHEDRAL.0>
0

>  <SCORE.INTRA.POLAR>
0

>  <SCORE.INTRA.POLAR.0>
0

>  <SCORE.INTRA.REPUL>
0

>  <SCORE.INTRA.REPUL.0>
0

>  <SCORE.INTRA.SOLV>
0

>  <SCORE.INTRA.SOLV.lig_0>
-4.25352

>  <SCORE.INTRA.VDW>
0

>  <SCORE.INTRA.VDW.0>
0

>  <SCORE.INTRA.norm>
0

>  <SCORE.RESTR>
0

>  <SCORE.RESTR.CAVITY>
0

>  <SCORE.RESTR.norm>
0

>  <SCORE.SYSTEM>
0

>  <SCORE.SYSTEM.CONST>
0

>  <SCORE.SYSTEM.DIHEDRAL>
0

>  <SCORE.SYSTEM.SOLV>
0

>  <SCORE.SYSTEM.norm>
0

>  <SCORE.heavy>
10

>  <SCORE.norm>
-1.97428

>  <RMSD>
0.357

$$$$
ligand
 OpenBabel11021811423D
libRbt.so/2013.1/901 2013/11/27
 10 11  0  0  0  0  0  0  0  0999 V2000
   53.5118  -13.3727    8.9795 N   0  0  0  0  0  0  0  0  0  0  0  0
   53.7277  -14.6996    9.2200 C   0  0  0  0  0  0  0  0  0  0  0  0
   54.0333  -15.5687    8.2214 N   0  0  0  0  0  0  0  0  0  0  0  0
   54.1035  -14.9705    6.9973 C   0  0  0  0  0  0  0  0  0  0  0  0
   53.8982  -13.6431    6.7028 C   0  0  0  0  0  0  0  0  0  0  0  0
   53.5763  -12.7442    7.7236 C   0  0  0  0  0  0  0  0  0  0  0  0
   53.3579  -11.5523    7.6612 O   0  0  0  0  0  0  0  0  0  0  0  0
   54.0664  -13.4635    5.3564 N   0  0  0  0  0  0  0  0  0  0  0  0
   54.3664  -14.6524    4.8440 C   0  0  0  0  0  0  0  0  0  0  0  0
   54.3992  -15.6239    5.8269 N   0  0  0  0  0  0  0  0  0  0  0  0
  1  2  1  0  0  0  0
  1  6  1  0  0  0  0
  2  3  2  0  0  0  0
  3  4  1  0  0  0  0
  4  5  2  0  0  0  0
  4 10  1  0  0  0  0
  5  6  1  0  0  0  0
  5  8  1  0  0  0  0
  6  7  2  0  0  0  0
  8  9  1  0  0  0  0
  9 10  2  0  0  0  0
M  END
>  <CHROM.1>
53.89354084,-13.98320120,7.16519045,-2.83154738,1.33519527,-0.90490053

>  <Name>
ligand

>  <RI>
0

>  <Rbt.Current_Directory>
/home/itssahil/PROJECTS/Mol_Feturizer/New_Systems/rnas/2EEV

>  <Rbt.Executable>
rbdock ($Id: //depot/dev/client3/rdock/2013.1/src/exe/rbdock.cxx#4 $)

>  <Rbt.Library>
libRbt.so (2013.1, Build901 2013/11/27)

>  <Rbt.Parameter_File>
/export/apps/rDock/src/rDock_2013.1_src/data/scripts/dock_solv.prm

>  <Rbt.Receptor>
prm/blind_docking_100.prm

>  <SCORE>
-19.7226

>  <SCORE.INTER>
-19.7226

>  <SCORE.INTER.CONST>
1

>  <SCORE.INTER.POLAR>
0

>  <SCORE.INTER.ROT>
0

>  <SCORE.INTER.SOLV>
4.23641

>  <SCORE.INTER.VDW>
-18.1605

>  <SCORE.INTER.norm>
-1.97226

>  <SCORE.INTRA>
0

>  <SCORE.INTRA.DIHEDRAL>
0

>  <SCORE.INTRA.DIHEDRAL.0>
0

>  <SCORE.INTRA.POLAR>
0

>  <SCORE.INTRA.POLAR.0>
0

>  <SCORE.INTRA.REPUL>
0

>  <SCORE.INTRA.REPUL.0>
0

>  <SCORE.INTRA.SOLV>
0

>  <SCORE.INTRA.SOLV.lig_0>
-4.25352

>  <SCORE.INTRA.VDW>
0

>  <SCORE.INTRA.VDW.0>
0

>  <SCORE.INTRA.norm>
0

>  <SCORE.RESTR>
0

>  <SCORE.RESTR.CAVITY>
0

>  <SCORE.RESTR.norm>
0

>  <SCORE.SYSTEM>
0

>  <SCORE.SYSTEM.CONST>
0

>  <SCORE.SYSTEM.DIHEDRAL>
0

>  <SCORE.SYSTEM.SOLV>
0

>  <SCORE.SYSTEM.norm>
0

>  <SCORE.heavy>
10

>  <SCORE.norm>
-1.97226

>  <RMSD>
0.357

$$$$
ligand
 OpenBabel11021811423D
libRbt.so/2013.1/901 2013/11/27
 10 11  0  0  0  0  0  0  0  0999 V2000
   53.4822  -13.3523    8.9866 N   0  0  0  0  0  0  0  0  0  0  0  0
   53.6843  -14.6795    9.2378 C   0  0  0  0  0  0  0  0  0  0  0  0
   53.9905  -15.5580    8.2478 N   0  0  0  0  0  0  0  0  0  0  0  0
   54.0761  -14.9688    7.0202 C   0  0  0  0  0  0  0  0  0  0  0  0
   53.8850  -13.6417    6.7151 C   0  0  0  0  0  0  0  0  0  0  0  0
   53.5626  -12.7330    7.7271 C   0  0  0  0  0  0  0  0  0  0  0  0
   53.3554  -11.5398    7.6547 O   0  0  0  0  0  0  0  0  0  0  0  0
   54.0659  -13.4728    5.3689 N   0  0  0  0  0  0  0  0  0  0  0  0
   54.3596  -14.6678    4.8671 C   0  0  0  0  0  0  0  0  0  0  0  0
   54.3757  -15.6328    5.8568 N   0  0  0  0  0  0  0  0  0  0  0  0
  1  2  1  0  0  0  0
  1  6  1  0  0  0  0
  2  3  2  0  0  0  0
  3  4  1  0  0  0  0
  4  5  2  0  0  0  0
  4 10  1  0  0  0  0
  5  6  1  0  0  0  0
  5  8  1  0  0  0  0
  6  7  2  0  0  0  0
  8  9  1  0  0  0  0
  9 10  2  0  0  0  0
M  END
>  <CHROM.1>
53.87353001,-13.97857301,7.17967259,-2.88319224,1.33674655,-0.86147213

>  <Name>
ligand

>  <RI>
0

>  <Rbt.Current_Directory>
/home/itssahil/PROJECTS/Mol_Feturizer/New_Systems/rnas/2EEV

>  <Rbt.Executable>
rbdock ($Id: //depot/dev/client3/rdock/2013.1/src/exe/rbdock.cxx#4 $)

>  <Rbt.Library>
libRbt.so (2013.1, Build901 2013/11/27)

>  <Rbt.Parameter_File>
/export/apps/rDock/src/rDock_2013.1_src/data/scripts/dock_solv.prm

>  <Rbt.Receptor>
prm/blind_docking_60.prm

>  <SCORE>
-19.7402

>  <SCORE.INTER>
-19.7402

>  <SCORE.INTER.CONST>
1

>  <SCORE.INTER.POLAR>
0

>  <SCORE.INTER.ROT>
0

>  <SCORE.INTER.SOLV>
4.2711

>  <SCORE.INTER.VDW>
-18.1838

>  <SCORE.INTER.norm>
-1.97402

>  <SCORE.INTRA>
0

>  <SCORE.INTRA.DIHEDRAL>
0

>  <SCORE.INTRA.DIHEDRAL.0>
0

>  <SCORE.INTRA.POLAR>
0

>  <SCORE.INTRA.POLAR.0>
0

>  <SCORE.INTRA.REPUL>
0

>  <SCORE.INTRA.REPUL.0>
0

>  <SCORE.INTRA.SOLV>
0

>  <SCORE.INTRA.SOLV.lig_0>
-4.25352

>  <SCORE.INTRA.VDW>
0

>  <SCORE.INTRA.VDW.0>
0

>  <SCORE.INTRA.norm>
0

>  <SCORE.RESTR>
0

>  <SCORE.RESTR.CAVITY>
0

>  <SCORE.RESTR.norm>
0

>  <SCORE.SYSTEM>
0

>  <SCORE.SYSTEM.CONST>
0

>  <SCORE.SYSTEM.DIHEDRAL>
0

>  <SCORE.SYSTEM.SOLV>
0

>  <SCORE.SYSTEM.norm>
0

>  <SCORE.heavy>
10

>  <SCORE.norm>
-1.97402

>  <RMSD>
0.357

$$$$
ligand
 OpenBabel11021811423D
libRbt.so/2013.1/901 2013/11/27
 10 11  0  0  0  0  0  0  0  0999 V2000
   53.5310  -13.3870    8.9783 N   0  0  0  0  0  0  0  0  0  0  0  0
   53.7493  -14.7147    9.2122 C   0  0  0  0  0  0  0  0  0  0  0  0
   54.0523  -15.5790    8.2088 N   0  0  0  0  0  0  0  0  0  0  0  0
   54.1171  -14.9755    6.9870 C   0  0  0  0  0  0  0  0  0  0  0  0
   53.9091  -13.6471    6.6991 C   0  0  0  0  0  0  0  0  0  0  0  0
   53.5899  -12.7530    7.7249 C   0  0  0  0  0  0  0  0  0  0  0  0
   53.3699  -11.5612    7.6685 O   0  0  0  0  0  0  0  0  0  0  0  0
   54.0720  -13.4615    5.3528 N   0  0  0  0  0  0  0  0  0  0  0  0
   54.3716  -14.6478    4.8341 C   0  0  0  0  0  0  0  0  0  0  0  0
   54.4092  -15.6235    5.8127 N   0  0  0  0  0  0  0  0  0  0  0  0
  1  2  1  0  0  0  0
  1  6  1  0  0  0  0
  2  3  2  0  0  0  0
  3  4  1  0  0  0  0
  4  5  2  0  0  0  0
  4 10  1  0  0  0  0
  5  6  1  0  0  0  0
  5  8  1  0  0  0  0
  6  7  2  0  0  0  0
  8  9  1  0  0  0  0
  9 10  2  0  0  0  0
M  END
>  <CHROM.1>
53.90660957,-13.98920366,7.15994386,-2.81559838,1.33652758,-0.91608801

>  <Name>
ligand

>  <RI>
0

>  <Rbt.Current_Directory>
/home/itssahil/PROJECTS/Mol_Feturizer/New_Systems/rnas/2EEV

>  <Rbt.Executable>
rbdock ($Id: //depot/dev/client3/rdock/2013.1/src/exe/rbdock.cxx#4 $)

>  <Rbt.Library>
libRbt.so (2013.1, Build901 2013/11/27)

>  <Rbt.Parameter_File>
/export/apps/rDock/src/rDock_2013.1_src/data/scripts/dock_solv.prm

>  <Rbt.Receptor>
prm/blind_docking_80.prm

>  <SCORE>
-19.749

>  <SCORE.INTER>
-19.749

>  <SCORE.INTER.CONST>
1

>  <SCORE.INTER.POLAR>
0

>  <SCORE.INTER.ROT>
0

>  <SCORE.INTER.SOLV>
4.22799

>  <SCORE.INTER.VDW>
-18.1754

>  <SCORE.INTER.norm>
-1.9749

>  <SCORE.INTRA>
0

>  <SCORE.INTRA.DIHEDRAL>
0

>  <SCORE.INTRA.DIHEDRAL.0>
0

>  <SCORE.INTRA.POLAR>
0

>  <SCORE.INTRA.POLAR.0>
0

>  <SCORE.INTRA.REPUL>
0

>  <SCORE.INTRA.REPUL.0>
0

>  <SCORE.INTRA.SOLV>
0

>  <SCORE.INTRA.SOLV.lig_0>
-4.25352

>  <SCORE.INTRA.VDW>
0

>  <SCORE.INTRA.VDW.0>
0

>  <SCORE.INTRA.norm>
0

>  <SCORE.RESTR>
0

>  <SCORE.RESTR.CAVITY>
0

>  <SCORE.RESTR.norm>
0

>  <SCORE.SYSTEM>
0

>  <SCORE.SYSTEM.CONST>
0

>  <SCORE.SYSTEM.DIHEDRAL>
0

>  <SCORE.SYSTEM.SOLV>
0

>  <SCORE.SYSTEM.norm>
0

>  <SCORE.heavy>
10

>  <SCORE.norm>
-1.9749

>  <RMSD>
0.357

$$$$
ligand
 OpenBabel11021811423D
libRbt.so/2013.1/901 2013/11/27
 10 11  0  0  0  0  0  0  0  0999 V2000
   53.4866  -13.3575    8.9858 N   0  0  0  0  0  0  0  0  0  0  0  0
   53.6877  -14.6850    9.2356 C   0  0  0  0  0  0  0  0  0  0  0  0
   53.9936  -15.5626    8.2447 N   0  0  0  0  0  0  0  0  0  0  0  0
   54.0802  -14.9722    7.0178 C   0  0  0  0  0  0  0  0  0  0  0  0
   53.8902  -13.6446    6.7141 C   0  0  0  0  0  0  0  0  0  0  0  0
   53.5679  -12.7368    7.7270 C   0  0  0  0  0  0  0  0  0  0  0  0
   53.3616  -11.5433    7.6559 O   0  0  0  0  0  0  0  0  0  0  0  0
   54.0717  -13.4743    5.3682 N   0  0  0  0  0  0  0  0  0  0  0  0
   54.3648  -14.6689    4.8652 C   0  0  0  0  0  0  0  0  0  0  0  0
   54.3798  -15.6350    5.8538 N   0  0  0  0  0  0  0  0  0  0  0  0
  1  2  1  0  0  0  0
  1  6  1  0  0  0  0
  2  3  2  0  0  0  0
  3  4  1  0  0  0  0
  4  5  2  0  0  0  0
  4 10  1  0  0  0  0
  5  6  1  0  0  0  0
  5  8  1  0  0  0  0
  6  7  2  0  0  0  0
  8  9  1  0  0  0  0
  9 10  2  0  0  0  0
M  END
>  <CHROM.1>
53.87820262,-13.98196483,7.17833078,-2.88654466,1.33699993,-0.85708374

>  <Name>
ligand

>  <RI>
0

>  <Rbt.Current_Directory>
/home/itssahil/PROJECTS/Mol_Feturizer/New_Systems/rnas/2EEV

>  <Rbt.Executable>
rbdock ($Id: //depot/dev/client3/rdock/2013.1/src/exe/rbdock.cxx#4 $)

>  <Rbt.Library>
libRbt.so (2013.1, Build901 2013/11/27)

>  <Rbt.Parameter_File>
/export/apps/rDock/src/rDock_2013.1_src/data/scripts/dock_solv.prm

>  <Rbt.Receptor>
prm/pocket_docking_3.prm

>  <SCORE>
-19.7385

>  <SCORE.INTER>
-19.7385

>  <SCORE.INTER.CONST>
1

>  <SCORE.INTER.POLAR>
0

>  <SCORE.INTER.ROT>
0

>  <SCORE.INTER.SOLV>
4.27005

>  <SCORE.INTER.VDW>
-18.1824

>  <SCORE.INTER.norm>
-1.97385

>  <SCORE.INTRA>
0

>  <SCORE.INTRA.DIHEDRAL>
0

>  <SCORE.INTRA.DIHEDRAL.0>
0

>  <SCORE.INTRA.POLAR>
0

>  <SCORE.INTRA.POLAR.0>
0

>  <SCORE.INTRA.REPUL>
0

>  <SCORE.INTRA.REPUL.0>
0

>  <SCORE.INTRA.SOLV>
0

>  <SCORE.INTRA.SOLV.lig_0>
-4.25352

>  <SCORE.INTRA.VDW>
0

>  <SCORE.INTRA.VDW.0>
0

>  <SCORE.INTRA.norm>
0

>  <SCORE.RESTR>
0

>  <SCORE.RESTR.CAVITY>
0

>  <SCORE.RESTR.norm>
0

>  <SCORE.SYSTEM>
0

>  <SCORE.SYSTEM.CONST>
0

>  <SCORE.SYSTEM.DIHEDRAL>
0

>  <SCORE.SYSTEM.SOLV>
0

>  <SCORE.SYSTEM.norm>
0

>  <SCORE.heavy>
10

>  <SCORE.norm>
-1.97385

>  <RMSD>
0.357

$$$$
ligand
 OpenBabel11021811423D
libRbt.so/2013.1/901 2013/11/27
 10 11  0  0  0  0  0  0  0  0999 V2000
   53.4885  -13.3510    8.9797 N   0  0  0  0  0  0  0  0  0  0  0  0
   53.7120  -14.6753    9.2276 C   0  0  0  0  0  0  0  0  0  0  0  0
   54.0237  -15.5480    8.2342 N   0  0  0  0  0  0  0  0  0  0  0  0
   54.0914  -14.9562    7.0068 C   0  0  0  0  0  0  0  0  0  0  0  0
   53.8785  -13.6317    6.7049 C   0  0  0  0  0  0  0  0  0  0  0  0
   53.5503  -12.7291    7.7204 C   0  0  0  0  0  0  0  0  0  0  0  0
   53.3250  -11.5389    7.6513 O   0  0  0  0  0  0  0  0  0  0  0  0
   54.0468  -13.4585    5.3576 N   0  0  0  0  0  0  0  0  0  0  0  0
   54.3544  -14.6484    4.8520 C   0  0  0  0  0  0  0  0  0  0  0  0
   54.3921  -15.6142    5.8403 N   0  0  0  0  0  0  0  0  0  0  0  0
  1  2  1  0  0  0  0
  1  6  1  0  0  0  0
  2  3  2  0  0  0  0
  3  4  1  0  0  0  0
  4  5  2  0  0  0  0
  4 10  1  0  0  0  0
  5  6  1  0  0  0  0
  5  8  1  0  0  0  0
  6  7  2  0  0  0  0
  8  9  1  0  0  0  0
  9 10  2  0  0  0  0
M  END
>  <CHROM.1>
53.87544730,-13.96923356,7.16910182,-2.81915200,1.32994653,-0.92243670

>  <Name>
ligand

>  <RI>
0

>  <Rbt.Current_Directory>
/home/itssahil/PROJECTS/Mol_Feturizer/New_Systems/rnas/2EEV

>  <Rbt.Executable>
rbdock ($Id: //depot/dev/client3/rdock/2013.1/src/exe/rbdock.cxx#4 $)

>  <Rbt.Library>
libRbt.so (2013.1, Build901 2013/11/27)

>  <Rbt.Parameter_File>
/export/apps/rDock/src/rDock_2013.1_src/data/scripts/dock_solv.prm

>  <Rbt.Receptor>
prm/pocket_docking_3.prm

>  <SCORE>
-19.7182

>  <SCORE.INTER>
-19.7182

>  <SCORE.INTER.CONST>
1

>  <SCORE.INTER.POLAR>
0

>  <SCORE.INTER.ROT>
0

>  <SCORE.INTER.SOLV>
4.23059

>  <SCORE.INTER.VDW>
-18.1557

>  <SCORE.INTER.norm>
-1.97182

>  <SCORE.INTRA>
0

>  <SCORE.INTRA.DIHEDRAL>
0

>  <SCORE.INTRA.DIHEDRAL.0>
0

>  <SCORE.INTRA.POLAR>
0

>  <SCORE.INTRA.POLAR.0>
0

>  <SCORE.INTRA.REPUL>
0

>  <SCORE.INTRA.REPUL.0>
0

>  <SCORE.INTRA.SOLV>
0

>  <SCORE.INTRA.SOLV.lig_0>
-4.25352

>  <SCORE.INTRA.VDW>
0

>  <SCORE.INTRA.VDW.0>
0

>  <SCORE.INTRA.norm>
0

>  <SCORE.RESTR>
0

>  <SCORE.RESTR.CAVITY>
0

>  <SCORE.RESTR.norm>
0

>  <SCORE.SYSTEM>
0

>  <SCORE.SYSTEM.CONST>
0

>  <SCORE.SYSTEM.DIHEDRAL>
0

>  <SCORE.SYSTEM.SOLV>
0

>  <SCORE.SYSTEM.norm>
0

>  <SCORE.heavy>
10

>  <SCORE.norm>
-1.97182

>  <RMSD>
0.357

$$$$
ligand
 OpenBabel11021811423D
libRbt.so/2013.1/901 2013/11/27
 10 11  0  0  0  0  0  0  0  0999 V2000
   53.4737  -13.3434    8.9868 N   0  0  0  0  0  0  0  0  0  0  0  0
   53.6783  -14.6696    9.2414 C   0  0  0  0  0  0  0  0  0  0  0  0
   53.9870  -15.5498    8.2537 N   0  0  0  0  0  0  0  0  0  0  0  0
   54.0726  -14.9635    7.0248 C   0  0  0  0  0  0  0  0  0  0  0  0
   53.8791  -13.6375    6.7164 C   0  0  0  0  0  0  0  0  0  0  0  0
   53.5540  -12.7270    7.7259 C   0  0  0  0  0  0  0  0  0  0  0  0
   53.3445  -11.5344    7.6505 O   0  0  0  0  0  0  0  0  0  0  0  0
   54.0609  -13.4715    5.3699 N   0  0  0  0  0  0  0  0  0  0  0  0
   54.3574  -14.6671    4.8713 C   0  0  0  0  0  0  0  0  0  0  0  0
   54.3745  -15.6297    5.8633 N   0  0  0  0  0  0  0  0  0  0  0  0
  1  2  1  0  0  0  0
  1  6  1  0  0  0  0
  2  3  2  0  0  0  0
  3  4  1  0  0  0  0
  4  5  2  0  0  0  0
  4 10  1  0  0  0  0
  5  6  1  0  0  0  0
  5  8  1  0  0  0  0
  6  7  2  0  0  0  0
  8  9  1  0  0  0  0
  9 10  2  0  0  0  0
M  END
>  <CHROM.1>
53.86786457,-13.97327217,7.18175292,-2.88055175,1.33467493,-0.86645056

>  <Name>
ligand

>  <RI>
0

>  <Rbt.Current_Directory>
/home/itssahil/PROJECTS/Mol_Feturizer/New_Systems/rnas/2EEV

>  <Rbt.Executable>
rbdock ($Id: //depot/dev/client3/rdock/2013.1/src/exe/rbdock.cxx#4 $)

>  <Rbt.Library>
libRbt.so (2013.1, Build901 2013/11/27)

>  <Rbt.Parameter_File>
/export/apps/rDock/src/rDock_2013.1_src/data/scripts/dock_solv.prm

>  <Rbt.Receptor>
prm/pocket_docking_4.prm

>  <SCORE>
-19.7406

>  <SCORE.INTER>
-19.7406

>  <SCORE.INTER.CONST>
1

>  <SCORE.INTER.POLAR>
0

>  <SCORE.INTER.ROT>
0

>  <SCORE.INTER.SOLV>
4.26859

>  <SCORE.INTER.VDW>
-18.1833

>  <SCORE.INTER.norm>
-1.97406

>  <SCORE.INTRA>
0

>  <SCORE.INTRA.DIHEDRAL>
0

>  <SCORE.INTRA.DIHEDRAL.0>
0

>  <SCORE.INTRA.POLAR>
0

>  <SCORE.INTRA.POLAR.0>
0

>  <SCORE.INTRA.REPUL>
0

>  <SCORE.INTRA.REPUL.0>
0

>  <SCORE.INTRA.SOLV>
0

>  <SCORE.INTRA.SOLV.lig_0>
-4.25352

>  <SCORE.INTRA.VDW>
0

>  <SCORE.INTRA.VDW.0>
0

>  <SCORE.INTRA.norm>
0

>  <SCORE.RESTR>
0

>  <SCORE.RESTR.CAVITY>
0

>  <SCORE.RESTR.norm>
0

>  <SCORE.SYSTEM>
0

>  <SCORE.SYSTEM.CONST>
0

>  <SCORE.SYSTEM.DIHEDRAL>
0

>  <SCORE.SYSTEM.SOLV>
0

>  <SCORE.SYSTEM.norm>
0

>  <SCORE.heavy>
10

>  <SCORE.norm>
-1.97406

>  <RMSD>
0.357

$$$$
ligand
 OpenBabel11021811423D
libRbt.so/2013.1/901 2013/11/27
 10 11  0  0  0  0  0  0  0  0999 V2000
   53.4669  -13.3400    8.9888 N   0  0  0  0  0  0  0  0  0  0  0  0
   53.6706  -14.6662    9.2433 C   0  0  0  0  0  0  0  0  0  0  0  0
   53.9814  -15.5462    8.2561 N   0  0  0  0  0  0  0  0  0  0  0  0
   54.0698  -14.9595    7.0276 C   0  0  0  0  0  0  0  0  0  0  0  0
   53.8773  -13.6333    6.7191 C   0  0  0  0  0  0  0  0  0  0  0  0
   53.5501  -12.7231    7.7282 C   0  0  0  0  0  0  0  0  0  0  0  0
   53.3410  -11.5304    7.6528 O   0  0  0  0  0  0  0  0  0  0  0  0
   54.0622  -13.4669    5.3732 N   0  0  0  0  0  0  0  0  0  0  0  0
   54.3596  -14.6624    4.8748 C   0  0  0  0  0  0  0  0  0  0  0  0
   54.3743  -15.6253    5.8665 N   0  0  0  0  0  0  0  0  0  0  0  0
  1  2  1  0  0  0  0
  1  6  1  0  0  0  0
  2  3  2  0  0  0  0
  3  4  1  0  0  0  0
  4  5  2  0  0  0  0
  4 10  1  0  0  0  0
  5  6  1  0  0  0  0
  5  8  1  0  0  0  0
  6  7  2  0  0  0  0
  8  9  1  0  0  0  0
  9 10  2  0  0  0  0
M  END
>  <CHROM.1>
53.86496862,-13.96924947,7.18438542,-2.88840317,1.33333376,-0.85846496

>  <Name>
ligand

>  <RI>
0

>  <Rbt.Current_Directory>
/home/itssahil/PROJECTS/Mol_Feturizer/New_Systems/rnas/2EEV

>  <Rbt.Executable>
rbdock ($Id: //depot/dev/client3/rdock/2013.1/src/exe/rbdock.cxx#4 $)

>  <Rbt.Library>
libRbt.so (2013.1, Build901 2013/11/27)

>  <Rbt.Parameter_File>
/export/apps/rDock/src/rDock_2013.1_src/data/scripts/dock_solv.prm

>  <Rbt.Receptor>
prm/pocket_docking_4.prm

>  <SCORE>
-19.7364

>  <SCORE.INTER>
-19.7364

>  <SCORE.INTER.CONST>
1

>  <SCORE.INTER.POLAR>
0

>  <SCORE.INTER.ROT>
0

>  <SCORE.INTER.SOLV>
4.26976

>  <SCORE.INTER.VDW>
-18.1809

>  <SCORE.INTER.norm>
-1.97364

>  <SCORE.INTRA>
0

>  <SCORE.INTRA.DIHEDRAL>
0

>  <SCORE.INTRA.DIHEDRAL.0>
0

>  <SCORE.INTRA.POLAR>
0

>  <SCORE.INTRA.POLAR.0>
0

>  <SCORE.INTRA.REPUL>
0

>  <SCORE.INTRA.REPUL.0>
0

>  <SCORE.INTRA.SOLV>
0

>  <SCORE.INTRA.SOLV.lig_0>
-4.25352

>  <SCORE.INTRA.VDW>
0

>  <SCORE.INTRA.VDW.0>
0

>  <SCORE.INTRA.norm>
0

>  <SCORE.RESTR>
0

>  <SCORE.RESTR.CAVITY>
0

>  <SCORE.RESTR.norm>
0

>  <SCORE.SYSTEM>
0

>  <SCORE.SYSTEM.CONST>
0

>  <SCORE.SYSTEM.DIHEDRAL>
0

>  <SCORE.SYSTEM.SOLV>
0

>  <SCORE.SYSTEM.norm>
0

>  <SCORE.heavy>
10

>  <SCORE.norm>
-1.97364

>  <RMSD>
0.357

$$$$
ligand
 OpenBabel11021811423D
libRbt.so/2013.1/901 2013/11/27
 10 11  0  0  0  0  0  0  0  0999 V2000
   53.5372  -13.3695    8.9795 N   0  0  0  0  0  0  0  0  0  0  0  0
   53.7647  -14.6943    9.2210 C   0  0  0  0  0  0  0  0  0  0  0  0
   54.0622  -15.5645    8.2210 N   0  0  0  0  0  0  0  0  0  0  0  0
   54.1119  -14.9697    6.9942 C   0  0  0  0  0  0  0  0  0  0  0  0
   53.8943  -13.6445    6.6986 C   0  0  0  0  0  0  0  0  0  0  0  0
   53.5806  -12.7444    7.7210 C   0  0  0  0  0  0  0  0  0  0  0  0
   53.3539  -11.5542    7.6579 O   0  0  0  0  0  0  0  0  0  0  0  0
   54.0429  -13.4680    5.3494 N   0  0  0  0  0  0  0  0  0  0  0  0
   54.3434  -14.6566    4.8366 C   0  0  0  0  0  0  0  0  0  0  0  0
   54.3957  -15.6248    5.8218 N   0  0  0  0  0  0  0  0  0  0  0  0
  1  2  1  0  0  0  0
  1  6  1  0  0  0  0
  2  3  2  0  0  0  0
  3  4  1  0  0  0  0
  4  5  2  0  0  0  0
  4 10  1  0  0  0  0
  5  6  1  0  0  0  0
  5  8  1  0  0  0  0
  6  7  2  0  0  0  0
  8  9  1  0  0  0  0
  9 10  2  0  0  0  0
M  END
>  <CHROM.1>
53.89802130,-13.98318366,7.16199086,-2.76814902,1.33819938,-0.96961461

>  <Name>
ligand

>  <RI>
0

>  <Rbt.Current_Directory>
/home/itssahil/PROJECTS/Mol_Feturizer/New_Systems/rnas/2EEV

>  <Rbt.Executable>
rbdock ($Id: //depot/dev/client3/rdock/2013.1/src/exe/rbdock.cxx#4 $)

>  <Rbt.Library>
libRbt.so (2013.1, Build901 2013/11/27)

>  <Rbt.Parameter_File>
/export/apps/rDock/src/rDock_2013.1_src/data/scripts/dock_solv.prm

>  <Rbt.Receptor>
prm/pocket_docking_4.prm

>  <SCORE>
-19.7164

>  <SCORE.INTER>
-19.7164

>  <SCORE.INTER.CONST>
1

>  <SCORE.INTER.POLAR>
0

>  <SCORE.INTER.ROT>
0

>  <SCORE.INTER.SOLV>
4.22391

>  <SCORE.INTER.VDW>
-18.1522

>  <SCORE.INTER.norm>
-1.97164

>  <SCORE.INTRA>
0

>  <SCORE.INTRA.DIHEDRAL>
0

>  <SCORE.INTRA.DIHEDRAL.0>
0

>  <SCORE.INTRA.POLAR>
0

>  <SCORE.INTRA.POLAR.0>
0

>  <SCORE.INTRA.REPUL>
0

>  <SCORE.INTRA.REPUL.0>
0

>  <SCORE.INTRA.SOLV>
0

>  <SCORE.INTRA.SOLV.lig_0>
-4.25352

>  <SCORE.INTRA.VDW>
0

>  <SCORE.INTRA.VDW.0>
0

>  <SCORE.INTRA.norm>
0

>  <SCORE.RESTR>
0

>  <SCORE.RESTR.CAVITY>
0

>  <SCORE.RESTR.norm>
0

>  <SCORE.SYSTEM>
0

>  <SCORE.SYSTEM.CONST>
0

>  <SCORE.SYSTEM.DIHEDRAL>
0

>  <SCORE.SYSTEM.SOLV>
0

>  <SCORE.SYSTEM.norm>
0

>  <SCORE.heavy>
10

>  <SCORE.norm>
-1.97164

>  <RMSD>
0.357

$$$$
ligand
 OpenBabel11021811423D
libRbt.so/2013.1/901 2013/11/27
 10 11  0  0  0  0  0  0  0  0999 V2000
   53.5142  -13.3720    8.9773 N   0  0  0  0  0  0  0  0  0  0  0  0
   53.7367  -14.6982    9.2158 C   0  0  0  0  0  0  0  0  0  0  0  0
   54.0442  -15.5647    8.2156 N   0  0  0  0  0  0  0  0  0  0  0  0
   54.1091  -14.9648    6.9920 C   0  0  0  0  0  0  0  0  0  0  0  0
   53.8972  -13.6380    6.6995 C   0  0  0  0  0  0  0  0  0  0  0  0
   53.5732  -12.7417    7.7221 C   0  0  0  0  0  0  0  0  0  0  0  0
   53.3493  -11.5508    7.6615 O   0  0  0  0  0  0  0  0  0  0  0  0
   54.0617  -13.4561    5.3529 N   0  0  0  0  0  0  0  0  0  0  0  0
   54.3661  -14.6430    4.8386 C   0  0  0  0  0  0  0  0  0  0  0  0
   54.4054  -15.6155    5.8202 N   0  0  0  0  0  0  0  0  0  0  0  0
  1  2  1  0  0  0  0
  1  6  1  0  0  0  0
  2  3  2  0  0  0  0
  3  4  1  0  0  0  0
  4  5  2  0  0  0  0
  4 10  1  0  0  0  0
  5  6  1  0  0  0  0
  5  8  1  0  0  0  0
  6  7  2  0  0  0  0
  8  9  1  0  0  0  0
  9 10  2  0  0  0  0
M  END
>  <CHROM.1>
53.89498835,-13.97864789,7.16150907,-2.81261254,1.33283576,-0.92214124

>  <Name>
ligand

>  <RI>
0

>  <Rbt.Current_Directory>
/home/itssahil/PROJECTS/Mol_Feturizer/New_Systems/rnas/2EEV

>  <Rbt.Executable>
rbdock ($Id: //depot/dev/client3/rdock/2013.1/src/exe/rbdock.cxx#4 $)

>  <Rbt.Library>
libRbt.so (2013.1, Build901 2013/11/27)

>  <Rbt.Parameter_File>
/export/apps/rDock/src/rDock_2013.1_src/data/scripts/dock_solv.prm

>  <Rbt.Receptor>
prm/pocket_docking_4.prm

>  <SCORE>
-19.7227

>  <SCORE.INTER>
-19.7227

>  <SCORE.INTER.CONST>
1

>  <SCORE.INTER.POLAR>
0

>  <SCORE.INTER.ROT>
0

>  <SCORE.INTER.SOLV>
4.22316

>  <SCORE.INTER.VDW>
-18.1562

>  <SCORE.INTER.norm>
-1.97227

>  <SCORE.INTRA>
0

>  <SCORE.INTRA.DIHEDRAL>
0

>  <SCORE.INTRA.DIHEDRAL.0>
0

>  <SCORE.INTRA.POLAR>
0

>  <SCORE.INTRA.POLAR.0>
0

>  <SCORE.INTRA.REPUL>
0

>  <SCORE.INTRA.REPUL.0>
0

>  <SCORE.INTRA.SOLV>
0

>  <SCORE.INTRA.SOLV.lig_0>
-4.25352

>  <SCORE.INTRA.VDW>
0

>  <SCORE.INTRA.VDW.0>
0

>  <SCORE.INTRA.norm>
0

>  <SCORE.RESTR>
0

>  <SCORE.RESTR.CAVITY>
0

>  <SCORE.RESTR.norm>
0

>  <SCORE.SYSTEM>
0

>  <SCORE.SYSTEM.CONST>
0

>  <SCORE.SYSTEM.DIHEDRAL>
0

>  <SCORE.SYSTEM.SOLV>
0

>  <SCORE.SYSTEM.norm>
0

>  <SCORE.heavy>
10

>  <SCORE.norm>
-1.97227

>  <RMSD>
0.357

$$$$
ligand
 OpenBabel11021811423D
libRbt.so/2013.1/901 2013/11/27
 10 11  0  0  0  0  0  0  0  0999 V2000
   53.4772  -13.3466    8.9859 N   0  0  0  0  0  0  0  0  0  0  0  0
   53.6825  -14.6725    9.2411 C   0  0  0  0  0  0  0  0  0  0  0  0
   53.9905  -15.5532    8.2537 N   0  0  0  0  0  0  0  0  0  0  0  0
   54.0746  -14.9676    7.0243 C   0  0  0  0  0  0  0  0  0  0  0  0
   53.8804  -13.6419    6.7153 C   0  0  0  0  0  0  0  0  0  0  0  0
   53.5560  -12.7309    7.7245 C   0  0  0  0  0  0  0  0  0  0  0  0
   53.3459  -11.5383    7.6487 O   0  0  0  0  0  0  0  0  0  0  0  0
   54.0607  -13.4766    5.3685 N   0  0  0  0  0  0  0  0  0  0  0  0
   54.3571  -14.6724    4.8703 C   0  0  0  0  0  0  0  0  0  0  0  0
   54.3756  -15.6343    5.8629 N   0  0  0  0  0  0  0  0  0  0  0  0
  1  2  1  0  0  0  0
  1  6  1  0  0  0  0
  2  3  2  0  0  0  0
  3  4  1  0  0  0  0
  4  5  2  0  0  0  0
  4 10  1  0  0  0  0
  5  6  1  0  0  0  0
  5  8  1  0  0  0  0
  6  7  2  0  0  0  0
  8  9  1  0  0  0  0
  9 10  2  0  0  0  0
M  END
>  <CHROM.1>
53.86971726,-13.97733900,7.18086470,-2.87623452,1.33505571,-0.87124444

>  <Name>
ligand

>  <RI>
0

>  <Rbt.Current_Directory>
/home/itssahil/PROJECTS/Mol_Feturizer/New_Systems/rnas/2EEV

>  <Rbt.Executable>
rbdock ($Id: //depot/dev/client3/rdock/2013.1/src/exe/rbdock.cxx#4 $)

>  <Rbt.Library>
libRbt.so (2013.1, Build901 2013/11/27)

>  <Rbt.Parameter_File>
/export/apps/rDock/src/rDock_2013.1_src/data/scripts/dock_solv.prm

>  <Rbt.Receptor>
prm/pocket_docking_4.prm

>  <SCORE>
-19.7429

>  <SCORE.INTER>
-19.7429

>  <SCORE.INTER.CONST>
1

>  <SCORE.INTER.POLAR>
0

>  <SCORE.INTER.ROT>
0

>  <SCORE.INTER.SOLV>
4.26711

>  <SCORE.INTER.VDW>
-18.1843

>  <SCORE.INTER.norm>
-1.97429

>  <SCORE.INTRA>
0

>  <SCORE.INTRA.DIHEDRAL>
0

>  <SCORE.INTRA.DIHEDRAL.0>
0

>  <SCORE.INTRA.POLAR>
0

>  <SCORE.INTRA.POLAR.0>
0

>  <SCORE.INTRA.REPUL>
0

>  <SCORE.INTRA.REPUL.0>
0

>  <SCORE.INTRA.SOLV>
0

>  <SCORE.INTRA.SOLV.lig_0>
-4.25352

>  <SCORE.INTRA.VDW>
0

>  <SCORE.INTRA.VDW.0>
0

>  <SCORE.INTRA.norm>
0

>  <SCORE.RESTR>
0

>  <SCORE.RESTR.CAVITY>
0

>  <SCORE.RESTR.norm>
0

>  <SCORE.SYSTEM>
0

>  <SCORE.SYSTEM.CONST>
0

>  <SCORE.SYSTEM.DIHEDRAL>
0

>  <SCORE.SYSTEM.SOLV>
0

>  <SCORE.SYSTEM.norm>
0

>  <SCORE.heavy>
10

>  <SCORE.norm>
-1.97429

>  <RMSD>
0.357

$$$$
ligand
 OpenBabel11021811423D
libRbt.so/2013.1/901 2013/11/27
 10 11  0  0  0  0  0  0  0  0999 V2000
   53.4873  -13.3556    8.9810 N   0  0  0  0  0  0  0  0  0  0  0  0
   53.6990  -14.6813    9.2324 C   0  0  0  0  0  0  0  0  0  0  0  0
   54.0086  -15.5582    8.2420 N   0  0  0  0  0  0  0  0  0  0  0  0
   54.0872  -14.9691    7.0139 C   0  0  0  0  0  0  0  0  0  0  0  0
   53.8864  -13.6435    6.7087 C   0  0  0  0  0  0  0  0  0  0  0  0
   53.5604  -12.7364    7.7210 C   0  0  0  0  0  0  0  0  0  0  0  0
   53.3449  -11.5447    7.6486 O   0  0  0  0  0  0  0  0  0  0  0  0
   54.0628  -13.4741    5.3619 N   0  0  0  0  0  0  0  0  0  0  0  0
   54.3633  -14.6673    4.8600 C   0  0  0  0  0  0  0  0  0  0  0  0
   54.3883  -15.6316    5.8501 N   0  0  0  0  0  0  0  0  0  0  0  0
  1  2  1  0  0  0  0
  1  6  1  0  0  0  0
  2  3  2  0  0  0  0
  3  4  1  0  0  0  0
  4  5  2  0  0  0  0
  4 10  1  0  0  0  0
  5  6  1  0  0  0  0
  5  8  1  0  0  0  0
  6  7  2  0  0  0  0
  8  9  1  0  0  0  0
  9 10  2  0  0  0  0
M  END
>  <CHROM.1>
53.87830232,-13.98016492,7.17343818,-2.85651723,1.33316183,-0.88791188

>  <Name>
ligand

>  <RI>
0

>  <Rbt.Current_Directory>
/home/itssahil/PROJECTS/Mol_Feturizer/New_Systems/rnas/2EEV

>  <Rbt.Executable>
rbdock ($Id: //depot/dev/client3/rdock/2013.1/src/exe/rbdock.cxx#4 $)

>  <Rbt.Library>
libRbt.so (2013.1, Build901 2013/11/27)

>  <Rbt.Parameter_File>
/export/apps/rDock/src/rDock_2013.1_src/data/scripts/dock_solv.prm

>  <Rbt.Receptor>
prm/pocket_docking_5.prm

>  <SCORE>
-19.7148

>  <SCORE.INTER>
-19.7148

>  <SCORE.INTER.CONST>
1

>  <SCORE.INTER.POLAR>
0

>  <SCORE.INTER.ROT>
0

>  <SCORE.INTER.SOLV>
4.25027

>  <SCORE.INTER.VDW>
-18.1599

>  <SCORE.INTER.norm>
-1.97148

>  <SCORE.INTRA>
0

>  <SCORE.INTRA.DIHEDRAL>
0

>  <SCORE.INTRA.DIHEDRAL.0>
0

>  <SCORE.INTRA.POLAR>
0

>  <SCORE.INTRA.POLAR.0>
0

>  <SCORE.INTRA.REPUL>
0

>  <SCORE.INTRA.REPUL.0>
0

>  <SCORE.INTRA.SOLV>
0

>  <SCORE.INTRA.SOLV.lig_0>
-4.25352

>  <SCORE.INTRA.VDW>
0

>  <SCORE.INTRA.VDW.0>
0

>  <SCORE.INTRA.norm>
0

>  <SCORE.RESTR>
0

>  <SCORE.RESTR.CAVITY>
0

>  <SCORE.RESTR.norm>
0

>  <SCORE.SYSTEM>
0

>  <SCORE.SYSTEM.CONST>
0

>  <SCORE.SYSTEM.DIHEDRAL>
0

>  <SCORE.SYSTEM.SOLV>
0

>  <SCORE.SYSTEM.norm>
0

>  <SCORE.heavy>
10

>  <SCORE.norm>
-1.97148

>  <RMSD>
0.357

$$$$
ligand
 OpenBabel11021811423D
libRbt.so/2013.1/901 2013/11/27
 10 11  0  0  0  0  0  0  0  0999 V2000
   53.3954  -13.1829    9.0324 N   0  0  0  0  0  0  0  0  0  0  0  0
   53.6178  -14.4924    9.3502 C   0  0  0  0  0  0  0  0  0  0  0  0
   53.9575  -15.4109    8.4085 N   0  0  0  0  0  0  0  0  0  0  0  0
   54.0536  -14.8792    7.1558 C   0  0  0  0  0  0  0  0  0  0  0  0
   53.8432  -13.5721    6.7844 C   0  0  0  0  0  0  0  0  0  0  0  0
   53.4863  -12.6227    7.7462 C   0  0  0  0  0  0  0  0  0  0  0  0
   53.2581  -11.4385    7.6135 O   0  0  0  0  0  0  0  0  0  0  0  0
   54.0444  -13.4638    5.4348 N   0  0  0  0  0  0  0  0  0  0  0  0
   54.3690  -14.6754    4.9957 C   0  0  0  0  0  0  0  0  0  0  0  0
   54.3857  -15.5917    6.0306 N   0  0  0  0  0  0  0  0  0  0  0  0
  1  2  1  0  0  0  0
  1  6  1  0  0  0  0
  2  3  2  0  0  0  0
  3  4  1  0  0  0  0
  4  5  2  0  0  0  0
  4 10  1  0  0  0  0
  5  6  1  0  0  0  0
  5  8  1  0  0  0  0
  6  7  2  0  0  0  0
  8  9  1  0  0  0  0
  9 10  2  0  0  0  0
M  END
>  <CHROM.1>
53.82980933,-13.88661480,7.26430666,-2.88763623,1.31123149,-0.90487033

>  <Name>
ligand

>  <RI>
0

>  <Rbt.Current_Directory>
/home/itssahil/PROJECTS/Mol_Feturizer/New_Systems/rnas/2EEV

>  <Rbt.Executable>
rbdock ($Id: //depot/dev/client3/rdock/2013.1/src/exe/rbdock.cxx#4 $)

>  <Rbt.Library>
libRbt.so (2013.1, Build901 2013/11/27)

>  <Rbt.Parameter_File>
/export/apps/rDock/src/rDock_2013.1_src/data/scripts/dock_solv.prm

>  <Rbt.Receptor>
prm/pocket_docking_5.prm

>  <SCORE>
-19.6579

>  <SCORE.INTER>
-19.6579

>  <SCORE.INTER.CONST>
1

>  <SCORE.INTER.POLAR>
0

>  <SCORE.INTER.ROT>
0

>  <SCORE.INTER.SOLV>
4.22227

>  <SCORE.INTER.VDW>
-18.1127

>  <SCORE.INTER.norm>
-1.96579

>  <SCORE.INTRA>
0

>  <SCORE.INTRA.DIHEDRAL>
0

>  <SCORE.INTRA.DIHEDRAL.0>
0

>  <SCORE.INTRA.POLAR>
0

>  <SCORE.INTRA.POLAR.0>
0

>  <SCORE.INTRA.REPUL>
0

>  <SCORE.INTRA.REPUL.0>
0

>  <SCORE.INTRA.SOLV>
0

>  <SCORE.INTRA.SOLV.lig_0>
-4.25352

>  <SCORE.INTRA.VDW>
0

>  <SCORE.INTRA.VDW.0>
0

>  <SCORE.INTRA.norm>
0

>  <SCORE.RESTR>
0

>  <SCORE.RESTR.CAVITY>
0

>  <SCORE.RESTR.norm>
0

>  <SCORE.SYSTEM>
0

>  <SCORE.SYSTEM.CONST>
0

>  <SCORE.SYSTEM.DIHEDRAL>
0

>  <SCORE.SYSTEM.SOLV>
0

>  <SCORE.SYSTEM.norm>
0

>  <SCORE.heavy>
10

>  <SCORE.norm>
-1.96579

>  <RMSD>
0.357

$$$$
ligand
 OpenBabel11021811423D
libRbt.so/2013.1/901 2013/11/27
 10 11  0  0  0  0  0  0  0  0999 V2000
   53.4964  -13.3541    8.9917 N   0  0  0  0  0  0  0  0  0  0  0  0
   53.6932  -14.6827    9.2394 C   0  0  0  0  0  0  0  0  0  0  0  0
   53.9918  -15.5605    8.2464 N   0  0  0  0  0  0  0  0  0  0  0  0
   54.0759  -14.9692    7.0198 C   0  0  0  0  0  0  0  0  0  0  0  0
   53.8899  -13.6406    6.7182 C   0  0  0  0  0  0  0  0  0  0  0  0
   53.5753  -12.7325    7.7332 C   0  0  0  0  0  0  0  0  0  0  0  0
   53.3734  -11.5382    7.6641 O   0  0  0  0  0  0  0  0  0  0  0  0
   54.0669  -13.4697    5.3717 N   0  0  0  0  0  0  0  0  0  0  0  0
   54.3533  -14.6649    4.8663 C   0  0  0  0  0  0  0  0  0  0  0  0
   54.3683  -15.6321    5.8539 N   0  0  0  0  0  0  0  0  0  0  0  0
  1  2  1  0  0  0  0
  1  6  1  0  0  0  0
  2  3  2  0  0  0  0
  3  4  1  0  0  0  0
  4  5  2  0  0  0  0
  4 10  1  0  0  0  0
  5  6  1  0  0  0  0
  5  8  1  0  0  0  0
  6  7  2  0  0  0  0
  8  9  1  0  0  0  0
  9 10  2  0  0  0  0
M  END
>  <CHROM.1>
53.87847413,-13.97834216,7.18206655,-2.88490600,1.34256941,-0.85769054

>  <Name>
ligand

>  <RI>
0

>  <Rbt.Current_Directory>
/home/itssahil/PROJECTS/Mol_Feturizer/New_Systems/rnas/2EEV

>  <Rbt.Executable>
rbdock ($Id: //depot/dev/client3/rdock/2013.1/src/exe/rbdock.cxx#4 $)

>  <Rbt.Library>
libRbt.so (2013.1, Build901 2013/11/27)

>  <Rbt.Parameter_File>
/export/apps/rDock/src/rDock_2013.1_src/data/scripts/dock_solv.prm

>  <Rbt.Receptor>
prm/pocket_docking_5.prm

>  <SCORE>
-19.7344

>  <SCORE.INTER>
-19.7344

>  <SCORE.INTER.CONST>
1

>  <SCORE.INTER.POLAR>
0

>  <SCORE.INTER.ROT>
0

>  <SCORE.INTER.SOLV>
4.2819

>  <SCORE.INTER.VDW>
-18.1836

>  <SCORE.INTER.norm>
-1.97344

>  <SCORE.INTRA>
0

>  <SCORE.INTRA.DIHEDRAL>
0

>  <SCORE.INTRA.DIHEDRAL.0>
0

>  <SCORE.INTRA.POLAR>
0

>  <SCORE.INTRA.POLAR.0>
0

>  <SCORE.INTRA.REPUL>
0

>  <SCORE.INTRA.REPUL.0>
0

>  <SCORE.INTRA.SOLV>
0

>  <SCORE.INTRA.SOLV.lig_0>
-4.25352

>  <SCORE.INTRA.VDW>
0

>  <SCORE.INTRA.VDW.0>
0

>  <SCORE.INTRA.norm>
0

>  <SCORE.RESTR>
0

>  <SCORE.RESTR.CAVITY>
0

>  <SCORE.RESTR.norm>
0

>  <SCORE.SYSTEM>
0

>  <SCORE.SYSTEM.CONST>
0

>  <SCORE.SYSTEM.DIHEDRAL>
0

>  <SCORE.SYSTEM.SOLV>
0

>  <SCORE.SYSTEM.norm>
0

>  <SCORE.heavy>
10

>  <SCORE.norm>
-1.97344

>  <RMSD>
0.357

$$$$
ligand
 OpenBabel11021811423D
libRbt.so/2013.1/901 2013/11/27
 10 11  0  0  0  0  0  0  0  0999 V2000
   53.5324  -13.3765    8.9784 N   0  0  0  0  0  0  0  0  0  0  0  0
   53.7558  -14.7021    9.2196 C   0  0  0  0  0  0  0  0  0  0  0  0
   54.0549  -15.5721    8.2199 N   0  0  0  0  0  0  0  0  0  0  0  0
   54.1104  -14.9764    6.9938 C   0  0  0  0  0  0  0  0  0  0  0  0
   53.8970  -13.6505    6.6986 C   0  0  0  0  0  0  0  0  0  0  0  0
   53.5818  -12.7505    7.7206 C   0  0  0  0  0  0  0  0  0  0  0  0
   53.3581  -11.5597    7.6578 O   0  0  0  0  0  0  0  0  0  0  0  0
   54.0510  -13.4731    5.3501 N   0  0  0  0  0  0  0  0  0  0  0  0
   54.3505  -14.6620    4.8373 C   0  0  0  0  0  0  0  0  0  0  0  0
   54.3970  -15.6312    5.8219 N   0  0  0  0  0  0  0  0  0  0  0  0
  1  2  1  0  0  0  0
  1  6  1  0  0  0  0
  2  3  2  0  0  0  0
  3  4  1  0  0  0  0
  4  5  2  0  0  0  0
  4 10  1  0  0  0  0
  5  6  1  0  0  0  0
  5  8  1  0  0  0  0
  6  7  2  0  0  0  0
  8  9  1  0  0  0  0
  9 10  2  0  0  0  0
M  END
>  <CHROM.1>
53.89828044,-13.98952664,7.16168852,-2.78685072,1.33806896,-0.95054867

>  <Name>
ligand

>  <RI>
0

>  <Rbt.Current_Directory>
/home/itssahil/PROJECTS/Mol_Feturizer/New_Systems/rnas/2EEV

>  <Rbt.Executable>
rbdock ($Id: //depot/dev/client3/rdock/2013.1/src/exe/rbdock.cxx#4 $)

>  <Rbt.Library>
libRbt.so (2013.1, Build901 2013/11/27)

>  <Rbt.Parameter_File>
/export/apps/rDock/src/rDock_2013.1_src/data/scripts/dock_solv.prm

>  <Rbt.Receptor>
prm/pocket_docking_6.prm

>  <SCORE>
-19.7203

>  <SCORE.INTER>
-19.7203

>  <SCORE.INTER.CONST>
1

>  <SCORE.INTER.POLAR>
0

>  <SCORE.INTER.ROT>
0

>  <SCORE.INTER.SOLV>
4.22868

>  <SCORE.INTER.VDW>
-18.1564

>  <SCORE.INTER.norm>
-1.97203

>  <SCORE.INTRA>
0

>  <SCORE.INTRA.DIHEDRAL>
0

>  <SCORE.INTRA.DIHEDRAL.0>
0

>  <SCORE.INTRA.POLAR>
0

>  <SCORE.INTRA.POLAR.0>
0

>  <SCORE.INTRA.REPUL>
0

>  <SCORE.INTRA.REPUL.0>
0

>  <SCORE.INTRA.SOLV>
0

>  <SCORE.INTRA.SOLV.lig_0>
-4.25352

>  <SCORE.INTRA.VDW>
0

>  <SCORE.INTRA.VDW.0>
0

>  <SCORE.INTRA.norm>
0

>  <SCORE.RESTR>
0

>  <SCORE.RESTR.CAVITY>
0

>  <SCORE.RESTR.norm>
0

>  <SCORE.SYSTEM>
0

>  <SCORE.SYSTEM.CONST>
0

>  <SCORE.SYSTEM.DIHEDRAL>
0

>  <SCORE.SYSTEM.SOLV>
0

>  <SCORE.SYSTEM.norm>
0

>  <SCORE.heavy>
10

>  <SCORE.norm>
-1.97203

>  <RMSD>
0.357

$$$$
ligand
 OpenBabel11021811423D
libRbt.so/2013.1/901 2013/11/27
 10 11  0  0  0  0  0  0  0  0999 V2000
   53.5509  -13.3631    8.9814 N   0  0  0  0  0  0  0  0  0  0  0  0
   53.7848  -14.6889    9.2114 C   0  0  0  0  0  0  0  0  0  0  0  0
   54.0865  -15.5489    8.2039 N   0  0  0  0  0  0  0  0  0  0  0  0
   54.1333  -14.9432    6.9823 C   0  0  0  0  0  0  0  0  0  0  0  0
   53.9092  -13.6166    6.6982 C   0  0  0  0  0  0  0  0  0  0  0  0
   53.5912  -12.7270    7.7284 C   0  0  0  0  0  0  0  0  0  0  0  0
   53.3587  -11.5374    7.6757 O   0  0  0  0  0  0  0  0  0  0  0  0
   54.0569  -13.4277    5.3506 N   0  0  0  0  0  0  0  0  0  0  0  0
   54.3632  -14.6103    4.8275 C   0  0  0  0  0  0  0  0  0  0  0  0
   54.4202  -15.5868    5.8043 N   0  0  0  0  0  0  0  0  0  0  0  0
  1  2  1  0  0  0  0
  1  6  1  0  0  0  0
  2  3  2  0  0  0  0
  3  4  1  0  0  0  0
  4  5  2  0  0  0  0
  4 10  1  0  0  0  0
  5  6  1  0  0  0  0
  5  8  1  0  0  0  0
  6  7  2  0  0  0  0
  8  9  1  0  0  0  0
  9 10  2  0  0  0  0
M  END
>  <CHROM.1>
53.91459518,-13.95928112,7.15862442,-2.75624183,1.33420682,-0.97251328

>  <Name>
ligand

>  <RI>
0

>  <Rbt.Current_Directory>
/home/itssahil/PROJECTS/Mol_Feturizer/New_Systems/rnas/2EEV

>  <Rbt.Executable>
rbdock ($Id: //depot/dev/client3/rdock/2013.1/src/exe/rbdock.cxx#4 $)

>  <Rbt.Library>
libRbt.so (2013.1, Build901 2013/11/27)

>  <Rbt.Parameter_File>
/export/apps/rDock/src/rDock_2013.1_src/data/scripts/dock_solv.prm

>  <Rbt.Receptor>
prm/pocket_docking_7.prm

>  <SCORE>
-19.7182

>  <SCORE.INTER>
-19.7182

>  <SCORE.INTER.CONST>
1

>  <SCORE.INTER.POLAR>
0

>  <SCORE.INTER.ROT>
0

>  <SCORE.INTER.SOLV>
4.20027

>  <SCORE.INTER.VDW>
-18.1456

>  <SCORE.INTER.norm>
-1.97182

>  <SCORE.INTRA>
0

>  <SCORE.INTRA.DIHEDRAL>
0

>  <SCORE.INTRA.DIHEDRAL.0>
0

>  <SCORE.INTRA.POLAR>
0

>  <SCORE.INTRA.POLAR.0>
0

>  <SCORE.INTRA.REPUL>
0

>  <SCORE.INTRA.REPUL.0>
0

>  <SCORE.INTRA.SOLV>
0

>  <SCORE.INTRA.SOLV.lig_0>
-4.25352

>  <SCORE.INTRA.VDW>
0

>  <SCORE.INTRA.VDW.0>
0

>  <SCORE.INTRA.norm>
0

>  <SCORE.RESTR>
0

>  <SCORE.RESTR.CAVITY>
0

>  <SCORE.RESTR.norm>
0

>  <SCORE.SYSTEM>
0

>  <SCORE.SYSTEM.CONST>
0

>  <SCORE.SYSTEM.DIHEDRAL>
0

>  <SCORE.SYSTEM.SOLV>
0

>  <SCORE.SYSTEM.norm>
0

>  <SCORE.heavy>
10

>  <SCORE.norm>
-1.97182

>  <RMSD>
0.357

$$$$
ligand
 OpenBabel11021811423D
libRbt.so/2013.1/901 2013/11/27
 10 11  0  0  0  0  0  0  0  0999 V2000
   53.4887  -13.3580    8.9848 N   0  0  0  0  0  0  0  0  0  0  0  0
   53.6900  -14.6850    9.2371 C   0  0  0  0  0  0  0  0  0  0  0  0
   53.9956  -15.5645    8.2477 N   0  0  0  0  0  0  0  0  0  0  0  0
   54.0817  -14.9764    7.0197 C   0  0  0  0  0  0  0  0  0  0  0  0
   53.8915  -13.6494    6.7135 C   0  0  0  0  0  0  0  0  0  0  0  0
   53.5696  -12.7397    7.7248 C   0  0  0  0  0  0  0  0  0  0  0  0
   53.3631  -11.5464    7.6515 O   0  0  0  0  0  0  0  0  0  0  0  0
   54.0725  -13.4817    5.3672 N   0  0  0  0  0  0  0  0  0  0  0  0
   54.3655  -14.6773    4.8664 C   0  0  0  0  0  0  0  0  0  0  0  0
   54.3809  -15.6415    5.8568 N   0  0  0  0  0  0  0  0  0  0  0  0
  1  2  1  0  0  0  0
  1  6  1  0  0  0  0
  2  3  2  0  0  0  0
  3  4  1  0  0  0  0
  4  5  2  0  0  0  0
  4 10  1  0  0  0  0
  5  6  1  0  0  0  0
  5  8  1  0  0  0  0
  6  7  2  0  0  0  0
  8  9  1  0  0  0  0
  9 10  2  0  0  0  0
M  END
>  <CHROM.1>
53.87970900,-13.98591520,7.17838147,-2.88514367,1.33720152,-0.86036454

>  <Name>
ligand

>  <RI>
0

>  <Rbt.Current_Directory>
/home/itssahil/PROJECTS/Mol_Feturizer/New_Systems/rnas/2EEV

>  <Rbt.Executable>
rbdock ($Id: //depot/dev/client3/rdock/2013.1/src/exe/rbdock.cxx#4 $)

>  <Rbt.Library>
libRbt.so (2013.1, Build901 2013/11/27)

>  <Rbt.Parameter_File>
/export/apps/rDock/src/rDock_2013.1_src/data/scripts/dock_solv.prm

>  <Rbt.Receptor>
prm/pocket_docking_8.prm

>  <SCORE>
-19.7385

>  <SCORE.INTER>
-19.7385

>  <SCORE.INTER.CONST>
1

>  <SCORE.INTER.POLAR>
0

>  <SCORE.INTER.ROT>
0

>  <SCORE.INTER.SOLV>
4.26935

>  <SCORE.INTER.VDW>
-18.1821

>  <SCORE.INTER.norm>
-1.97385

>  <SCORE.INTRA>
0

>  <SCORE.INTRA.DIHEDRAL>
0

>  <SCORE.INTRA.DIHEDRAL.0>
0

>  <SCORE.INTRA.POLAR>
0

>  <SCORE.INTRA.POLAR.0>
0

>  <SCORE.INTRA.REPUL>
0

>  <SCORE.INTRA.REPUL.0>
0

>  <SCORE.INTRA.SOLV>
0

>  <SCORE.INTRA.SOLV.lig_0>
-4.25352

>  <SCORE.INTRA.VDW>
0

>  <SCORE.INTRA.VDW.0>
0

>  <SCORE.INTRA.norm>
0

>  <SCORE.RESTR>
0

>  <SCORE.RESTR.CAVITY>
0

>  <SCORE.RESTR.norm>
0

>  <SCORE.SYSTEM>
0

>  <SCORE.SYSTEM.CONST>
0

>  <SCORE.SYSTEM.DIHEDRAL>
0

>  <SCORE.SYSTEM.SOLV>
0

>  <SCORE.SYSTEM.norm>
0

>  <SCORE.heavy>
10

>  <SCORE.norm>
-1.97385

>  <RMSD>
0.357

$$$$
ligand
 OpenBabel11021811423D
libRbt.so/2013.1/901 2013/11/27
 10 11  0  0  0  0  0  0  0  0999 V2000
   53.5177  -13.3766    8.9779 N   0  0  0  0  0  0  0  0  0  0  0  0
   53.7329  -14.7037    9.2182 C   0  0  0  0  0  0  0  0  0  0  0  0
   54.0388  -15.5726    8.2198 N   0  0  0  0  0  0  0  0  0  0  0  0
   54.1101  -14.9743    6.9958 C   0  0  0  0  0  0  0  0  0  0  0  0
   53.9056  -13.6468    6.7014 C   0  0  0  0  0  0  0  0  0  0  0  0
   53.5833  -12.7479    7.7222 C   0  0  0  0  0  0  0  0  0  0  0  0
   53.3655  -11.5559    7.6598 O   0  0  0  0  0  0  0  0  0  0  0  0
   54.0748  -13.4670    5.3551 N   0  0  0  0  0  0  0  0  0  0  0  0
   54.3747  -14.6559    4.8427 C   0  0  0  0  0  0  0  0  0  0  0  0
   54.4064  -15.6276    5.8255 N   0  0  0  0  0  0  0  0  0  0  0  0
  1  2  1  0  0  0  0
  1  6  1  0  0  0  0
  2  3  2  0  0  0  0
  3  4  1  0  0  0  0
  4  5  2  0  0  0  0
  4 10  1  0  0  0  0
  5  6  1  0  0  0  0
  5  8  1  0  0  0  0
  6  7  2  0  0  0  0
  8  9  1  0  0  0  0
  9 10  2  0  0  0  0
M  END
>  <CHROM.1>
53.90045292,-13.98692395,7.16370558,-2.83495065,1.33508345,-0.90140630

>  <Name>
ligand

>  <RI>
0

>  <Rbt.Current_Directory>
/home/itssahil/PROJECTS/Mol_Feturizer/New_Systems/rnas/2EEV

>  <Rbt.Executable>
rbdock ($Id: //depot/dev/client3/rdock/2013.1/src/exe/rbdock.cxx#4 $)

>  <Rbt.Library>
libRbt.so (2013.1, Build901 2013/11/27)

>  <Rbt.Parameter_File>
/export/apps/rDock/src/rDock_2013.1_src/data/scripts/dock_solv.prm

>  <Rbt.Receptor>
prm/pocket_docking_8.prm

>  <SCORE>
-19.717

>  <SCORE.INTER>
-19.717

>  <SCORE.INTER.CONST>
1

>  <SCORE.INTER.POLAR>
0

>  <SCORE.INTER.ROT>
0

>  <SCORE.INTER.SOLV>
4.23337

>  <SCORE.INTER.VDW>
-18.1558

>  <SCORE.INTER.norm>
-1.9717

>  <SCORE.INTRA>
0

>  <SCORE.INTRA.DIHEDRAL>
0

>  <SCORE.INTRA.DIHEDRAL.0>
0

>  <SCORE.INTRA.POLAR>
0

>  <SCORE.INTRA.POLAR.0>
0

>  <SCORE.INTRA.REPUL>
0

>  <SCORE.INTRA.REPUL.0>
0

>  <SCORE.INTRA.SOLV>
0

>  <SCORE.INTRA.SOLV.lig_0>
-4.25352

>  <SCORE.INTRA.VDW>
0

>  <SCORE.INTRA.VDW.0>
0

>  <SCORE.INTRA.norm>
0

>  <SCORE.RESTR>
0

>  <SCORE.RESTR.CAVITY>
0

>  <SCORE.RESTR.norm>
0

>  <SCORE.SYSTEM>
0

>  <SCORE.SYSTEM.CONST>
0

>  <SCORE.SYSTEM.DIHEDRAL>
0

>  <SCORE.SYSTEM.SOLV>
0

>  <SCORE.SYSTEM.norm>
0

>  <SCORE.heavy>
10

>  <SCORE.norm>
-1.9717

>  <RMSD>
0.357

$$$$
ligand
 OpenBabel11021811423D
libRbt.so/2013.1/901 2013/11/27
 10 11  0  0  0  0  0  0  0  0999 V2000
   53.4336  -13.1827    9.0343 N   0  0  0  0  0  0  0  0  0  0  0  0
   53.6612  -14.4878    9.3660 C   0  0  0  0  0  0  0  0  0  0  0  0
   53.9783  -15.4204    8.4304 N   0  0  0  0  0  0  0  0  0  0  0  0
   54.0470  -14.9071    7.1682 C   0  0  0  0  0  0  0  0  0  0  0  0
   53.8302  -13.6051    6.7827 C   0  0  0  0  0  0  0  0  0  0  0  0
   53.4964  -12.6413    7.7384 C   0  0  0  0  0  0  0  0  0  0  0  0
   53.2670  -11.4588    7.5937 O   0  0  0  0  0  0  0  0  0  0  0  0
   54.0012  -13.5168    5.4275 N   0  0  0  0  0  0  0  0  0  0  0  0
   54.3141  -14.7352    4.9989 C   0  0  0  0  0  0  0  0  0  0  0  0
   54.3527  -15.6365    6.0463 N   0  0  0  0  0  0  0  0  0  0  0  0
  1  2  1  0  0  0  0
  1  6  1  0  0  0  0
  2  3  2  0  0  0  0
  3  4  1  0  0  0  0
  4  5  2  0  0  0  0
  4 10  1  0  0  0  0
  5  6  1  0  0  0  0
  5  8  1  0  0  0  0
  6  7  2  0  0  0  0
  8  9  1  0  0  0  0
  9 10  2  0  0  0  0
M  END
>  <CHROM.1>
53.82717030,-13.91266832,7.26729809,-2.81842444,1.32569873,-0.98639757

>  <Name>
ligand

>  <RI>
0

>  <Rbt.Current_Directory>
/home/itssahil/PROJECTS/Mol_Feturizer/New_Systems/rnas/2EEV

>  <Rbt.Executable>
rbdock ($Id: //depot/dev/client3/rdock/2013.1/src/exe/rbdock.cxx#4 $)

>  <Rbt.Library>
libRbt.so (2013.1, Build901 2013/11/27)

>  <Rbt.Parameter_File>
/export/apps/rDock/src/rDock_2013.1_src/data/scripts/dock_solv.prm

>  <Rbt.Receptor>
prm/blind_docking_60.prm

>  <SCORE>
-19.6246

>  <SCORE.INTER>
-19.6246

>  <SCORE.INTER.CONST>
1

>  <SCORE.INTER.POLAR>
0

>  <SCORE.INTER.ROT>
0

>  <SCORE.INTER.SOLV>
4.23868

>  <SCORE.INTER.VDW>
-18.096

>  <SCORE.INTER.norm>
-1.96246

>  <SCORE.INTRA>
0

>  <SCORE.INTRA.DIHEDRAL>
0

>  <SCORE.INTRA.DIHEDRAL.0>
0

>  <SCORE.INTRA.POLAR>
0

>  <SCORE.INTRA.POLAR.0>
0

>  <SCORE.INTRA.REPUL>
0

>  <SCORE.INTRA.REPUL.0>
0

>  <SCORE.INTRA.SOLV>
0

>  <SCORE.INTRA.SOLV.lig_0>
-4.25352

>  <SCORE.INTRA.VDW>
0

>  <SCORE.INTRA.VDW.0>
0

>  <SCORE.INTRA.norm>
0

>  <SCORE.RESTR>
0

>  <SCORE.RESTR.CAVITY>
0

>  <SCORE.RESTR.norm>
0

>  <SCORE.SYSTEM>
0

>  <SCORE.SYSTEM.CONST>
0

>  <SCORE.SYSTEM.DIHEDRAL>
0

>  <SCORE.SYSTEM.SOLV>
0

>  <SCORE.SYSTEM.norm>
0

>  <SCORE.heavy>
10

>  <SCORE.norm>
-1.96246

>  <RMSD>
0.358

$$$$
ligand
 OpenBabel11021811423D
libRbt.so/2013.1/901 2013/11/27
 10 11  0  0  0  0  0  0  0  0999 V2000
   53.5006  -13.3770    8.9790 N   0  0  0  0  0  0  0  0  0  0  0  0
   53.7187  -14.7042    9.2160 C   0  0  0  0  0  0  0  0  0  0  0  0
   54.0261  -15.5701    8.2153 N   0  0  0  0  0  0  0  0  0  0  0  0
   54.0957  -14.9686    6.9928 C   0  0  0  0  0  0  0  0  0  0  0  0
   53.8882  -13.6408    6.7018 C   0  0  0  0  0  0  0  0  0  0  0  0
   53.5644  -12.7451    7.7248 C   0  0  0  0  0  0  0  0  0  0  0  0
   53.3440  -11.5535    7.6655 O   0  0  0  0  0  0  0  0  0  0  0  0
   54.0565  -13.4573    5.3558 N   0  0  0  0  0  0  0  0  0  0  0  0
   54.3587  -14.6444    4.8404 C   0  0  0  0  0  0  0  0  0  0  0  0
   54.3929  -15.6184    5.8207 N   0  0  0  0  0  0  0  0  0  0  0  0
  1  2  1  0  0  0  0
  1  6  1  0  0  0  0
  2  3  2  0  0  0  0
  3  4  1  0  0  0  0
  4  5  2  0  0  0  0
  4 10  1  0  0  0  0
  5  6  1  0  0  0  0
  5  8  1  0  0  0  0
  6  7  2  0  0  0  0
  8  9  1  0  0  0  0
  9 10  2  0  0  0  0
M  END
>  <CHROM.1>
53.88396603,-13.98209147,7.16321683,-2.82805322,1.33364961,-0.90565400

>  <Name>
ligand

>  <RI>
0

>  <Rbt.Current_Directory>
/home/itssahil/PROJECTS/Mol_Feturizer/New_Systems/rnas/2EEV

>  <Rbt.Executable>
rbdock ($Id: //depot/dev/client3/rdock/2013.1/src/exe/rbdock.cxx#4 $)

>  <Rbt.Library>
libRbt.so (2013.1, Build901 2013/11/27)

>  <Rbt.Parameter_File>
/export/apps/rDock/src/rDock_2013.1_src/data/scripts/dock_solv.prm

>  <Rbt.Receptor>
prm/pocket_docking_3.prm

>  <SCORE>
-19.7152

>  <SCORE.INTER>
-19.7152

>  <SCORE.INTER.CONST>
1

>  <SCORE.INTER.POLAR>
0

>  <SCORE.INTER.ROT>
0

>  <SCORE.INTER.SOLV>
4.23727

>  <SCORE.INTER.VDW>
-18.1559

>  <SCORE.INTER.norm>
-1.97152

>  <SCORE.INTRA>
0

>  <SCORE.INTRA.DIHEDRAL>
0

>  <SCORE.INTRA.DIHEDRAL.0>
0

>  <SCORE.INTRA.POLAR>
0

>  <SCORE.INTRA.POLAR.0>
0

>  <SCORE.INTRA.REPUL>
0

>  <SCORE.INTRA.REPUL.0>
0

>  <SCORE.INTRA.SOLV>
0

>  <SCORE.INTRA.SOLV.lig_0>
-4.25352

>  <SCORE.INTRA.VDW>
0

>  <SCORE.INTRA.VDW.0>
0

>  <SCORE.INTRA.norm>
0

>  <SCORE.RESTR>
0

>  <SCORE.RESTR.CAVITY>
0

>  <SCORE.RESTR.norm>
0

>  <SCORE.SYSTEM>
0

>  <SCORE.SYSTEM.CONST>
0

>  <SCORE.SYSTEM.DIHEDRAL>
0

>  <SCORE.SYSTEM.SOLV>
0

>  <SCORE.SYSTEM.norm>
0

>  <SCORE.heavy>
10

>  <SCORE.norm>
-1.97152

>  <RMSD>
0.358

$$$$
ligand
 OpenBabel11021811423D
libRbt.so/2013.1/901 2013/11/27
 10 11  0  0  0  0  0  0  0  0999 V2000
   53.4897  -13.3576    8.9795 N   0  0  0  0  0  0  0  0  0  0  0  0
   53.7084  -14.6833    9.2245 C   0  0  0  0  0  0  0  0  0  0  0  0
   54.0193  -15.5545    8.2295 N   0  0  0  0  0  0  0  0  0  0  0  0
   54.0915  -14.9597    7.0038 C   0  0  0  0  0  0  0  0  0  0  0  0
   53.8836  -13.6337    6.7048 C   0  0  0  0  0  0  0  0  0  0  0  0
   53.5562  -12.7326    7.7220 C   0  0  0  0  0  0  0  0  0  0  0  0
   53.3349  -11.5416    7.6554 O   0  0  0  0  0  0  0  0  0  0  0  0
   54.0552  -13.4577    5.3583 N   0  0  0  0  0  0  0  0  0  0  0  0
   54.3599  -14.6473    4.8504 C   0  0  0  0  0  0  0  0  0  0  0  0
   54.3924  -15.6157    5.8362 N   0  0  0  0  0  0  0  0  0  0  0  0
  1  2  1  0  0  0  0
  1  6  1  0  0  0  0
  2  3  2  0  0  0  0
  3  4  1  0  0  0  0
  4  5  2  0  0  0  0
  4 10  1  0  0  0  0
  5  6  1  0  0  0  0
  5  8  1  0  0  0  0
  6  7  2  0  0  0  0
  8  9  1  0  0  0  0
  9 10  2  0  0  0  0
M  END
>  <CHROM.1>
53.87841375,-13.97247128,7.16814808,-2.83446336,1.33128749,-0.90500666

>  <Name>
ligand

>  <RI>
0

>  <Rbt.Current_Directory>
/home/itssahil/PROJECTS/Mol_Feturizer/New_Systems/rnas/2EEV

>  <Rbt.Executable>
rbdock ($Id: //depot/dev/client3/rdock/2013.1/src/exe/rbdock.cxx#4 $)

>  <Rbt.Library>
libRbt.so (2013.1, Build901 2013/11/27)

>  <Rbt.Parameter_File>
/export/apps/rDock/src/rDock_2013.1_src/data/scripts/dock_solv.prm

>  <Rbt.Receptor>
prm/pocket_docking_4.prm

>  <SCORE>
-19.717

>  <SCORE.INTER>
-19.717

>  <SCORE.INTER.CONST>
1

>  <SCORE.INTER.POLAR>
0

>  <SCORE.INTER.ROT>
0

>  <SCORE.INTER.SOLV>
4.23704

>  <SCORE.INTER.VDW>
-18.157

>  <SCORE.INTER.norm>
-1.9717

>  <SCORE.INTRA>
0

>  <SCORE.INTRA.DIHEDRAL>
0

>  <SCORE.INTRA.DIHEDRAL.0>
0

>  <SCORE.INTRA.POLAR>
0

>  <SCORE.INTRA.POLAR.0>
0

>  <SCORE.INTRA.REPUL>
0

>  <SCORE.INTRA.REPUL.0>
0

>  <SCORE.INTRA.SOLV>
0

>  <SCORE.INTRA.SOLV.lig_0>
-4.25352

>  <SCORE.INTRA.VDW>
0

>  <SCORE.INTRA.VDW.0>
0

>  <SCORE.INTRA.norm>
0

>  <SCORE.RESTR>
0

>  <SCORE.RESTR.CAVITY>
0

>  <SCORE.RESTR.norm>
0

>  <SCORE.SYSTEM>
0

>  <SCORE.SYSTEM.CONST>
0

>  <SCORE.SYSTEM.DIHEDRAL>
0

>  <SCORE.SYSTEM.SOLV>
0

>  <SCORE.SYSTEM.norm>
0

>  <SCORE.heavy>
10

>  <SCORE.norm>
-1.9717

>  <RMSD>
0.358

$$$$
ligand
 OpenBabel11021811423D
libRbt.so/2013.1/901 2013/11/27
 10 11  0  0  0  0  0  0  0  0999 V2000
   53.4971  -13.3590    8.9797 N   0  0  0  0  0  0  0  0  0  0  0  0
   53.7198  -14.6845    9.2219 C   0  0  0  0  0  0  0  0  0  0  0  0
   54.0283  -15.5536    8.2243 N   0  0  0  0  0  0  0  0  0  0  0  0
   54.0938  -14.9570    6.9991 C   0  0  0  0  0  0  0  0  0  0  0  0
   53.8816  -13.6310    6.7029 C   0  0  0  0  0  0  0  0  0  0  0  0
   53.5567  -12.7321    7.7228 C   0  0  0  0  0  0  0  0  0  0  0  0
   53.3324  -11.5415    7.6589 O   0  0  0  0  0  0  0  0  0  0  0  0
   54.0470  -13.4527    5.3560 N   0  0  0  0  0  0  0  0  0  0  0  0
   54.3522  -14.6409    4.8450 C   0  0  0  0  0  0  0  0  0  0  0  0
   54.3911  -15.6106    5.8293 N   0  0  0  0  0  0  0  0  0  0  0  0
  1  2  1  0  0  0  0
  1  6  1  0  0  0  0
  2  3  2  0  0  0  0
  3  4  1  0  0  0  0
  4  5  2  0  0  0  0
  4 10  1  0  0  0  0
  5  6  1  0  0  0  0
  5  8  1  0  0  0  0
  6  7  2  0  0  0  0
  8  9  1  0  0  0  0
  9 10  2  0  0  0  0
M  END
>  <CHROM.1>
53.87925033,-13.97041612,7.16580459,-2.81403993,1.33215072,-0.92343500

>  <Name>
ligand

>  <RI>
0

>  <Rbt.Current_Directory>
/home/itssahil/PROJECTS/Mol_Feturizer/New_Systems/rnas/2EEV

>  <Rbt.Executable>
rbdock ($Id: //depot/dev/client3/rdock/2013.1/src/exe/rbdock.cxx#4 $)

>  <Rbt.Library>
libRbt.so (2013.1, Build901 2013/11/27)

>  <Rbt.Parameter_File>
/export/apps/rDock/src/rDock_2013.1_src/data/scripts/dock_solv.prm

>  <Rbt.Receptor>
prm/pocket_docking_5.prm

>  <SCORE>
-19.7162

>  <SCORE.INTER>
-19.7162

>  <SCORE.INTER.CONST>
1

>  <SCORE.INTER.POLAR>
0

>  <SCORE.INTER.ROT>
0

>  <SCORE.INTER.SOLV>
4.23169

>  <SCORE.INTER.VDW>
-18.1547

>  <SCORE.INTER.norm>
-1.97162

>  <SCORE.INTRA>
0

>  <SCORE.INTRA.DIHEDRAL>
0

>  <SCORE.INTRA.DIHEDRAL.0>
0

>  <SCORE.INTRA.POLAR>
0

>  <SCORE.INTRA.POLAR.0>
0

>  <SCORE.INTRA.REPUL>
0

>  <SCORE.INTRA.REPUL.0>
0

>  <SCORE.INTRA.SOLV>
0

>  <SCORE.INTRA.SOLV.lig_0>
-4.25352

>  <SCORE.INTRA.VDW>
0

>  <SCORE.INTRA.VDW.0>
0

>  <SCORE.INTRA.norm>
0

>  <SCORE.RESTR>
0

>  <SCORE.RESTR.CAVITY>
0

>  <SCORE.RESTR.norm>
0

>  <SCORE.SYSTEM>
0

>  <SCORE.SYSTEM.CONST>
0

>  <SCORE.SYSTEM.DIHEDRAL>
0

>  <SCORE.SYSTEM.SOLV>
0

>  <SCORE.SYSTEM.norm>
0

>  <SCORE.heavy>
10

>  <SCORE.norm>
-1.97162

>  <RMSD>
0.358

$$$$
ligand
 OpenBabel11021811423D
libRbt.so/2013.1/901 2013/11/27
 10 11  0  0  0  0  0  0  0  0999 V2000
   53.5054  -13.3675    8.9809 N   0  0  0  0  0  0  0  0  0  0  0  0
   53.7157  -14.6952    9.2223 C   0  0  0  0  0  0  0  0  0  0  0  0
   54.0209  -15.5656    8.2249 N   0  0  0  0  0  0  0  0  0  0  0  0
   54.0967  -14.9681    7.0008 C   0  0  0  0  0  0  0  0  0  0  0  0
   53.8971  -13.6401    6.7054 C   0  0  0  0  0  0  0  0  0  0  0  0
   53.5756  -12.7396    7.7250 C   0  0  0  0  0  0  0  0  0  0  0  0
   53.3618  -11.5470    7.6616 O   0  0  0  0  0  0  0  0  0  0  0  0
   54.0696  -13.4615    5.3593 N   0  0  0  0  0  0  0  0  0  0  0  0
   54.3667  -14.6516    4.8481 C   0  0  0  0  0  0  0  0  0  0  0  0
   54.3932  -15.6229    5.8314 N   0  0  0  0  0  0  0  0  0  0  0  0
  1  2  1  0  0  0  0
  1  6  1  0  0  0  0
  2  3  2  0  0  0  0
  3  4  1  0  0  0  0
  4  5  2  0  0  0  0
  4 10  1  0  0  0  0
  5  6  1  0  0  0  0
  5  8  1  0  0  0  0
  6  7  2  0  0  0  0
  8  9  1  0  0  0  0
  9 10  2  0  0  0  0
M  END
>  <CHROM.1>
53.88987414,-13.97997032,7.16781350,-2.85061836,1.33632951,-0.88664477

>  <Name>
ligand

>  <RI>
0

>  <Rbt.Current_Directory>
/home/itssahil/PROJECTS/Mol_Feturizer/New_Systems/rnas/2EEV

>  <Rbt.Executable>
rbdock ($Id: //depot/dev/client3/rdock/2013.1/src/exe/rbdock.cxx#4 $)

>  <Rbt.Library>
libRbt.so (2013.1, Build901 2013/11/27)

>  <Rbt.Parameter_File>
/export/apps/rDock/src/rDock_2013.1_src/data/scripts/dock_solv.prm

>  <Rbt.Receptor>
prm/pocket_docking_6.prm

>  <SCORE>
-19.7106

>  <SCORE.INTER>
-19.7106

>  <SCORE.INTER.CONST>
1

>  <SCORE.INTER.POLAR>
0

>  <SCORE.INTER.ROT>
0

>  <SCORE.INTER.SOLV>
4.24726

>  <SCORE.INTER.VDW>
-18.1562

>  <SCORE.INTER.norm>
-1.97106

>  <SCORE.INTRA>
0

>  <SCORE.INTRA.DIHEDRAL>
0

>  <SCORE.INTRA.DIHEDRAL.0>
0

>  <SCORE.INTRA.POLAR>
0

>  <SCORE.INTRA.POLAR.0>
0

>  <SCORE.INTRA.REPUL>
0

>  <SCORE.INTRA.REPUL.0>
0

>  <SCORE.INTRA.SOLV>
0

>  <SCORE.INTRA.SOLV.lig_0>
-4.25352

>  <SCORE.INTRA.VDW>
0

>  <SCORE.INTRA.VDW.0>
0

>  <SCORE.INTRA.norm>
0

>  <SCORE.RESTR>
0

>  <SCORE.RESTR.CAVITY>
0

>  <SCORE.RESTR.norm>
0

>  <SCORE.SYSTEM>
0

>  <SCORE.SYSTEM.CONST>
0

>  <SCORE.SYSTEM.DIHEDRAL>
0

>  <SCORE.SYSTEM.SOLV>
0

>  <SCORE.SYSTEM.norm>
0

>  <SCORE.heavy>
10

>  <SCORE.norm>
-1.97106

>  <RMSD>
0.358

$$$$
ligand
 OpenBabel11021811423D
libRbt.so/2013.1/901 2013/11/27
 10 11  0  0  0  0  0  0  0  0999 V2000
   53.4798  -13.3405    8.9867 N   0  0  0  0  0  0  0  0  0  0  0  0
   53.6873  -14.6666    9.2392 C   0  0  0  0  0  0  0  0  0  0  0  0
   53.9946  -15.5453    8.2496 N   0  0  0  0  0  0  0  0  0  0  0  0
   54.0754  -14.9574    7.0211 C   0  0  0  0  0  0  0  0  0  0  0  0
   53.8789  -13.6314    6.7147 C   0  0  0  0  0  0  0  0  0  0  0  0
   53.5553  -12.7226    7.7262 C   0  0  0  0  0  0  0  0  0  0  0  0
   53.3435  -11.5302    7.6527 O   0  0  0  0  0  0  0  0  0  0  0  0
   54.0562  -13.4636    5.3679 N   0  0  0  0  0  0  0  0  0  0  0  0
   54.3532  -14.6582    4.8670 C   0  0  0  0  0  0  0  0  0  0  0  0
   54.3750  -15.6218    5.8579 N   0  0  0  0  0  0  0  0  0  0  0  0
  1  2  1  0  0  0  0
  1  6  1  0  0  0  0
  2  3  2  0  0  0  0
  3  4  1  0  0  0  0
  4  5  2  0  0  0  0
  4 10  1  0  0  0  0
  5  6  1  0  0  0  0
  5  8  1  0  0  0  0
  6  7  2  0  0  0  0
  8  9  1  0  0  0  0
  9 10  2  0  0  0  0
M  END
>  <CHROM.1>
53.86956199,-13.96771185,7.17972666,-2.86601797,1.33532699,-0.87947992

>  <Name>
ligand

>  <RI>
0

>  <Rbt.Current_Directory>
/home/itssahil/PROJECTS/Mol_Feturizer/New_Systems/rnas/2EEV

>  <Rbt.Executable>
rbdock ($Id: //depot/dev/client3/rdock/2013.1/src/exe/rbdock.cxx#4 $)

>  <Rbt.Library>
libRbt.so (2013.1, Build901 2013/11/27)

>  <Rbt.Parameter_File>
/export/apps/rDock/src/rDock_2013.1_src/data/scripts/dock_solv.prm

>  <Rbt.Receptor>
prm/pocket_docking_6.prm

>  <SCORE>
-19.708

>  <SCORE.INTER>
-19.708

>  <SCORE.INTER.CONST>
1

>  <SCORE.INTER.POLAR>
0

>  <SCORE.INTER.ROT>
0

>  <SCORE.INTER.SOLV>
4.26353

>  <SCORE.INTER.VDW>
-18.1598

>  <SCORE.INTER.norm>
-1.9708

>  <SCORE.INTRA>
0

>  <SCORE.INTRA.DIHEDRAL>
0

>  <SCORE.INTRA.DIHEDRAL.0>
0

>  <SCORE.INTRA.POLAR>
0

>  <SCORE.INTRA.POLAR.0>
0

>  <SCORE.INTRA.REPUL>
0

>  <SCORE.INTRA.REPUL.0>
0

>  <SCORE.INTRA.SOLV>
0

>  <SCORE.INTRA.SOLV.lig_0>
-4.25352

>  <SCORE.INTRA.VDW>
0

>  <SCORE.INTRA.VDW.0>
0

>  <SCORE.INTRA.norm>
0

>  <SCORE.RESTR>
0

>  <SCORE.RESTR.CAVITY>
0

>  <SCORE.RESTR.norm>
0

>  <SCORE.SYSTEM>
0

>  <SCORE.SYSTEM.CONST>
0

>  <SCORE.SYSTEM.DIHEDRAL>
0

>  <SCORE.SYSTEM.SOLV>
0

>  <SCORE.SYSTEM.norm>
0

>  <SCORE.heavy>
10

>  <SCORE.norm>
-1.9708

>  <RMSD>
0.358

$$$$
ligand
 OpenBabel11021811423D
libRbt.so/2013.1/901 2013/11/27
 10 11  0  0  0  0  0  0  0  0999 V2000
   53.4462  -13.3353    8.9864 N   0  0  0  0  0  0  0  0  0  0  0  0
   53.6401  -14.6620    9.2465 C   0  0  0  0  0  0  0  0  0  0  0  0
   53.9597  -15.5456    8.2653 N   0  0  0  0  0  0  0  0  0  0  0  0
   54.0672  -14.9620    7.0368 C   0  0  0  0  0  0  0  0  0  0  0  0
   53.8852  -13.6356    6.7231 C   0  0  0  0  0  0  0  0  0  0  0  0
   53.5491  -12.7216    7.7258 C   0  0  0  0  0  0  0  0  0  0  0  0
   53.3467  -11.5281    7.6450 O   0  0  0  0  0  0  0  0  0  0  0  0
   54.0886  -13.4730    5.3793 N   0  0  0  0  0  0  0  0  0  0  0  0
   54.3868  -14.6710    4.8874 C   0  0  0  0  0  0  0  0  0  0  0  0
   54.3837  -15.6318    5.8813 N   0  0  0  0  0  0  0  0  0  0  0  0
  1  2  1  0  0  0  0
  1  6  1  0  0  0  0
  2  3  2  0  0  0  0
  3  4  1  0  0  0  0
  4  5  2  0  0  0  0
  4 10  1  0  0  0  0
  5  6  1  0  0  0  0
  5  8  1  0  0  0  0
  6  7  2  0  0  0  0
  8  9  1  0  0  0  0
  9 10  2  0  0  0  0
M  END
>  <CHROM.1>
53.86506453,-13.97045819,7.18881440,-2.94311377,1.32800360,-0.80748943

>  <Name>
ligand

>  <RI>
0

>  <Rbt.Current_Directory>
/home/itssahil/PROJECTS/Mol_Feturizer/New_Systems/rnas/2EEV

>  <Rbt.Executable>
rbdock ($Id: //depot/dev/client3/rdock/2013.1/src/exe/rbdock.cxx#4 $)

>  <Rbt.Library>
libRbt.so (2013.1, Build901 2013/11/27)

>  <Rbt.Parameter_File>
/export/apps/rDock/src/rDock_2013.1_src/data/scripts/dock_solv.prm

>  <Rbt.Receptor>
prm/pocket_docking_7.prm

>  <SCORE>
-19.7053

>  <SCORE.INTER>
-19.7053

>  <SCORE.INTER.CONST>
1

>  <SCORE.INTER.POLAR>
0

>  <SCORE.INTER.ROT>
0

>  <SCORE.INTER.SOLV>
4.27766

>  <SCORE.INTER.VDW>
-18.1628

>  <SCORE.INTER.norm>
-1.97053

>  <SCORE.INTRA>
0

>  <SCORE.INTRA.DIHEDRAL>
0

>  <SCORE.INTRA.DIHEDRAL.0>
0

>  <SCORE.INTRA.POLAR>
0

>  <SCORE.INTRA.POLAR.0>
0

>  <SCORE.INTRA.REPUL>
0

>  <SCORE.INTRA.REPUL.0>
0

>  <SCORE.INTRA.SOLV>
0

>  <SCORE.INTRA.SOLV.lig_0>
-4.25352

>  <SCORE.INTRA.VDW>
0

>  <SCORE.INTRA.VDW.0>
0

>  <SCORE.INTRA.norm>
0

>  <SCORE.RESTR>
0

>  <SCORE.RESTR.CAVITY>
0

>  <SCORE.RESTR.norm>
0

>  <SCORE.SYSTEM>
0

>  <SCORE.SYSTEM.CONST>
0

>  <SCORE.SYSTEM.DIHEDRAL>
0

>  <SCORE.SYSTEM.SOLV>
0

>  <SCORE.SYSTEM.norm>
0

>  <SCORE.heavy>
10

>  <SCORE.norm>
-1.97053

>  <RMSD>
0.358

$$$$
ligand
 OpenBabel11021811423D
libRbt.so/2013.1/901 2013/11/27
 10 11  0  0  0  0  0  0  0  0999 V2000
   53.5213  -13.3694    8.9775 N   0  0  0  0  0  0  0  0  0  0  0  0
   53.7422  -14.6957    9.2172 C   0  0  0  0  0  0  0  0  0  0  0  0
   54.0473  -15.5637    8.2177 N   0  0  0  0  0  0  0  0  0  0  0  0
   54.1114  -14.9654    6.9933 C   0  0  0  0  0  0  0  0  0  0  0  0
   53.9009  -13.6387    6.6995 C   0  0  0  0  0  0  0  0  0  0  0  0
   53.5795  -12.7407    7.7214 C   0  0  0  0  0  0  0  0  0  0  0  0
   53.3572  -11.5496    7.6597 O   0  0  0  0  0  0  0  0  0  0  0  0
   54.0639  -13.4585    5.3525 N   0  0  0  0  0  0  0  0  0  0  0  0
   54.3660  -14.6465    4.8391 C   0  0  0  0  0  0  0  0  0  0  0  0
   54.4052  -15.6178    5.8219 N   0  0  0  0  0  0  0  0  0  0  0  0
  1  2  1  0  0  0  0
  1  6  1  0  0  0  0
  2  3  2  0  0  0  0
  3  4  1  0  0  0  0
  4  5  2  0  0  0  0
  4 10  1  0  0  0  0
  5  6  1  0  0  0  0
  5  8  1  0  0  0  0
  6  7  2  0  0  0  0
  8  9  1  0  0  0  0
  9 10  2  0  0  0  0
M  END
>  <CHROM.1>
53.89886951,-13.97873967,7.16190886,-2.81178201,1.33473548,-0.92412427

>  <Name>
ligand

>  <RI>
0

>  <Rbt.Current_Directory>
/home/itssahil/PROJECTS/Mol_Feturizer/New_Systems/rnas/2EEV

>  <Rbt.Executable>
rbdock ($Id: //depot/dev/client3/rdock/2013.1/src/exe/rbdock.cxx#4 $)

>  <Rbt.Library>
libRbt.so (2013.1, Build901 2013/11/27)

>  <Rbt.Parameter_File>
/export/apps/rDock/src/rDock_2013.1_src/data/scripts/dock_solv.prm

>  <Rbt.Receptor>
prm/pocket_docking_8.prm

>  <SCORE>
-19.7197

>  <SCORE.INTER>
-19.7197

>  <SCORE.INTER.CONST>
1

>  <SCORE.INTER.POLAR>
0

>  <SCORE.INTER.ROT>
0

>  <SCORE.INTER.SOLV>
4.22551

>  <SCORE.INTER.VDW>
-18.155

>  <SCORE.INTER.norm>
-1.97197

>  <SCORE.INTRA>
0

>  <SCORE.INTRA.DIHEDRAL>
0

>  <SCORE.INTRA.DIHEDRAL.0>
0

>  <SCORE.INTRA.POLAR>
0

>  <SCORE.INTRA.POLAR.0>
0

>  <SCORE.INTRA.REPUL>
0

>  <SCORE.INTRA.REPUL.0>
0

>  <SCORE.INTRA.SOLV>
0

>  <SCORE.INTRA.SOLV.lig_0>
-4.25352

>  <SCORE.INTRA.VDW>
0

>  <SCORE.INTRA.VDW.0>
0

>  <SCORE.INTRA.norm>
0

>  <SCORE.RESTR>
0

>  <SCORE.RESTR.CAVITY>
0

>  <SCORE.RESTR.norm>
0

>  <SCORE.SYSTEM>
0

>  <SCORE.SYSTEM.CONST>
0

>  <SCORE.SYSTEM.DIHEDRAL>
0

>  <SCORE.SYSTEM.SOLV>
0

>  <SCORE.SYSTEM.norm>
0

>  <SCORE.heavy>
10

>  <SCORE.norm>
-1.97197

>  <RMSD>
0.358

$$$$
ligand
 OpenBabel11021811423D
libRbt.so/2013.1/901 2013/11/27
 10 11  0  0  0  0  0  0  0  0999 V2000
   53.4985  -13.3669    8.9761 N   0  0  0  0  0  0  0  0  0  0  0  0
   53.7157  -14.6937    9.2159 C   0  0  0  0  0  0  0  0  0  0  0  0
   54.0272  -15.5610    8.2177 N   0  0  0  0  0  0  0  0  0  0  0  0
   54.1016  -14.9613    6.9946 C   0  0  0  0  0  0  0  0  0  0  0  0
   53.8953  -13.6339    6.7008 C   0  0  0  0  0  0  0  0  0  0  0  0
   53.5673  -12.7367    7.7212 C   0  0  0  0  0  0  0  0  0  0  0  0
   53.3471  -11.5452    7.6593 O   0  0  0  0  0  0  0  0  0  0  0  0
   54.0690  -13.4524    5.3553 N   0  0  0  0  0  0  0  0  0  0  0  0
   54.3733  -14.6402    4.8428 C   0  0  0  0  0  0  0  0  0  0  0  0
   54.4036  -15.6128    5.8247 N   0  0  0  0  0  0  0  0  0  0  0  0
  1  2  1  0  0  0  0
  1  6  1  0  0  0  0
  2  3  2  0  0  0  0
  3  4  1  0  0  0  0
  4  5  2  0  0  0  0
  4 10  1  0  0  0  0
  5  6  1  0  0  0  0
  5  8  1  0  0  0  0
  6  7  2  0  0  0  0
  8  9  1  0  0  0  0
  9 10  2  0  0  0  0
M  END
>  <CHROM.1>
53.88917518,-13.97455778,7.16273280,-2.84133407,1.33109622,-0.89420116

>  <Name>
ligand

>  <RI>
0

>  <Rbt.Current_Directory>
/home/itssahil/PROJECTS/Mol_Feturizer/New_Systems/rnas/2EEV

>  <Rbt.Executable>
rbdock ($Id: //depot/dev/client3/rdock/2013.1/src/exe/rbdock.cxx#4 $)

>  <Rbt.Library>
libRbt.so (2013.1, Build901 2013/11/27)

>  <Rbt.Parameter_File>
/export/apps/rDock/src/rDock_2013.1_src/data/scripts/dock_solv.prm

>  <Rbt.Receptor>
prm/blind_docking_100.prm

>  <SCORE>
-19.7116

>  <SCORE.INTER>
-19.7116

>  <SCORE.INTER.CONST>
1

>  <SCORE.INTER.POLAR>
0

>  <SCORE.INTER.ROT>
0

>  <SCORE.INTER.SOLV>
4.23131

>  <SCORE.INTER.VDW>
-18.1515

>  <SCORE.INTER.norm>
-1.97116

>  <SCORE.INTRA>
0

>  <SCORE.INTRA.DIHEDRAL>
0

>  <SCORE.INTRA.DIHEDRAL.0>
0

>  <SCORE.INTRA.POLAR>
0

>  <SCORE.INTRA.POLAR.0>
0

>  <SCORE.INTRA.REPUL>
0

>  <SCORE.INTRA.REPUL.0>
0

>  <SCORE.INTRA.SOLV>
0

>  <SCORE.INTRA.SOLV.lig_0>
-4.25352

>  <SCORE.INTRA.VDW>
0

>  <SCORE.INTRA.VDW.0>
0

>  <SCORE.INTRA.norm>
0

>  <SCORE.RESTR>
0

>  <SCORE.RESTR.CAVITY>
0

>  <SCORE.RESTR.norm>
0

>  <SCORE.SYSTEM>
0

>  <SCORE.SYSTEM.CONST>
0

>  <SCORE.SYSTEM.DIHEDRAL>
0

>  <SCORE.SYSTEM.SOLV>
0

>  <SCORE.SYSTEM.norm>
0

>  <SCORE.heavy>
10

>  <SCORE.norm>
-1.97116

>  <RMSD>
0.359

$$$$
ligand
 OpenBabel11021811423D
libRbt.so/2013.1/901 2013/11/27
 10 11  0  0  0  0  0  0  0  0999 V2000
   53.5131  -13.3678    8.9769 N   0  0  0  0  0  0  0  0  0  0  0  0
   53.7340  -14.6940    9.2170 C   0  0  0  0  0  0  0  0  0  0  0  0
   54.0398  -15.5622    8.2178 N   0  0  0  0  0  0  0  0  0  0  0  0
   54.1047  -14.9640    6.9934 C   0  0  0  0  0  0  0  0  0  0  0  0
   53.8943  -13.6373    6.6993 C   0  0  0  0  0  0  0  0  0  0  0  0
   53.5721  -12.7393    7.7208 C   0  0  0  0  0  0  0  0  0  0  0  0
   53.3497  -11.5482    7.6587 O   0  0  0  0  0  0  0  0  0  0  0  0
   54.0582  -13.4574    5.3523 N   0  0  0  0  0  0  0  0  0  0  0  0
   54.3608  -14.6454    4.8394 C   0  0  0  0  0  0  0  0  0  0  0  0
   54.3994  -15.6166    5.8223 N   0  0  0  0  0  0  0  0  0  0  0  0
  1  2  1  0  0  0  0
  1  6  1  0  0  0  0
  2  3  2  0  0  0  0
  3  4  1  0  0  0  0
  4  5  2  0  0  0  0
  4 10  1  0  0  0  0
  5  6  1  0  0  0  0
  5  8  1  0  0  0  0
  6  7  2  0  0  0  0
  8  9  1  0  0  0  0
  9 10  2  0  0  0  0
M  END
>  <CHROM.1>
53.89195449,-13.97733733,7.16168164,-2.81387662,1.33422241,-0.92224566

>  <Name>
ligand

>  <RI>
0

>  <Rbt.Current_Directory>
/home/itssahil/PROJECTS/Mol_Feturizer/New_Systems/rnas/2EEV

>  <Rbt.Executable>
rbdock ($Id: //depot/dev/client3/rdock/2013.1/src/exe/rbdock.cxx#4 $)

>  <Rbt.Library>
libRbt.so (2013.1, Build901 2013/11/27)

>  <Rbt.Parameter_File>
/export/apps/rDock/src/rDock_2013.1_src/data/scripts/dock_solv.prm

>  <Rbt.Receptor>
prm/blind_docking_80.prm

>  <SCORE>
-19.7241

>  <SCORE.INTER>
-19.7241

>  <SCORE.INTER.CONST>
1

>  <SCORE.INTER.POLAR>
0

>  <SCORE.INTER.ROT>
0

>  <SCORE.INTER.SOLV>
4.22862

>  <SCORE.INTER.VDW>
-18.1589

>  <SCORE.INTER.norm>
-1.97241

>  <SCORE.INTRA>
0

>  <SCORE.INTRA.DIHEDRAL>
0

>  <SCORE.INTRA.DIHEDRAL.0>
0

>  <SCORE.INTRA.POLAR>
0

>  <SCORE.INTRA.POLAR.0>
0

>  <SCORE.INTRA.REPUL>
0

>  <SCORE.INTRA.REPUL.0>
0

>  <SCORE.INTRA.SOLV>
0

>  <SCORE.INTRA.SOLV.lig_0>
-4.25352

>  <SCORE.INTRA.VDW>
0

>  <SCORE.INTRA.VDW.0>
0

>  <SCORE.INTRA.norm>
0

>  <SCORE.RESTR>
0

>  <SCORE.RESTR.CAVITY>
0

>  <SCORE.RESTR.norm>
0

>  <SCORE.SYSTEM>
0

>  <SCORE.SYSTEM.CONST>
0

>  <SCORE.SYSTEM.DIHEDRAL>
0

>  <SCORE.SYSTEM.SOLV>
0

>  <SCORE.SYSTEM.norm>
0

>  <SCORE.heavy>
10

>  <SCORE.norm>
-1.97241

>  <RMSD>
0.359

$$$$
ligand
 OpenBabel11021811423D
libRbt.so/2013.1/901 2013/11/27
 10 11  0  0  0  0  0  0  0  0999 V2000
   53.4561  -13.3366    8.9842 N   0  0  0  0  0  0  0  0  0  0  0  0
   53.6631  -14.6618    9.2415 C   0  0  0  0  0  0  0  0  0  0  0  0
   53.9787  -15.5426    8.2565 N   0  0  0  0  0  0  0  0  0  0  0  0
   54.0682  -14.9576    7.0272 C   0  0  0  0  0  0  0  0  0  0  0  0
   53.8725  -13.6326    6.7161 C   0  0  0  0  0  0  0  0  0  0  0  0
   53.5404  -12.7216    7.7228 C   0  0  0  0  0  0  0  0  0  0  0  0
   53.3279  -11.5297    7.6449 O   0  0  0  0  0  0  0  0  0  0  0  0
   54.0599  -13.4679    5.3702 N   0  0  0  0  0  0  0  0  0  0  0  0
   54.3619  -14.6633    4.8745 C   0  0  0  0  0  0  0  0  0  0  0  0
   54.3772  -15.6245    5.8679 N   0  0  0  0  0  0  0  0  0  0  0  0
  1  2  1  0  0  0  0
  1  6  1  0  0  0  0
  2  3  2  0  0  0  0
  3  4  1  0  0  0  0
  4  5  2  0  0  0  0
  4 10  1  0  0  0  0
  5  6  1  0  0  0  0
  5  8  1  0  0  0  0
  6  7  2  0  0  0  0
  8  9  1  0  0  0  0
  9 10  2  0  0  0  0
M  END
>  <CHROM.1>
53.86008470,-13.96775241,7.18183134,-2.88753138,1.32965840,-0.86100299

>  <Name>
ligand

>  <RI>
0

>  <Rbt.Current_Directory>
/home/itssahil/PROJECTS/Mol_Feturizer/New_Systems/rnas/2EEV

>  <Rbt.Executable>
rbdock ($Id: //depot/dev/client3/rdock/2013.1/src/exe/rbdock.cxx#4 $)

>  <Rbt.Library>
libRbt.so (2013.1, Build901 2013/11/27)

>  <Rbt.Parameter_File>
/export/apps/rDock/src/rDock_2013.1_src/data/scripts/dock_solv.prm

>  <Rbt.Receptor>
prm/pocket_docking_3.prm

>  <SCORE>
-19.7366

>  <SCORE.INTER>
-19.7366

>  <SCORE.INTER.CONST>
1

>  <SCORE.INTER.POLAR>
0

>  <SCORE.INTER.ROT>
0

>  <SCORE.INTER.SOLV>
4.26357

>  <SCORE.INTER.VDW>
-18.1789

>  <SCORE.INTER.norm>
-1.97366

>  <SCORE.INTRA>
0

>  <SCORE.INTRA.DIHEDRAL>
0

>  <SCORE.INTRA.DIHEDRAL.0>
0

>  <SCORE.INTRA.POLAR>
0

>  <SCORE.INTRA.POLAR.0>
0

>  <SCORE.INTRA.REPUL>
0

>  <SCORE.INTRA.REPUL.0>
0

>  <SCORE.INTRA.SOLV>
0

>  <SCORE.INTRA.SOLV.lig_0>
-4.25352

>  <SCORE.INTRA.VDW>
0

>  <SCORE.INTRA.VDW.0>
0

>  <SCORE.INTRA.norm>
0

>  <SCORE.RESTR>
0

>  <SCORE.RESTR.CAVITY>
0

>  <SCORE.RESTR.norm>
0

>  <SCORE.SYSTEM>
0

>  <SCORE.SYSTEM.CONST>
0

>  <SCORE.SYSTEM.DIHEDRAL>
0

>  <SCORE.SYSTEM.SOLV>
0

>  <SCORE.SYSTEM.norm>
0

>  <SCORE.heavy>
10

>  <SCORE.norm>
-1.97366

>  <RMSD>
0.359

$$$$
ligand
 OpenBabel11021811423D
libRbt.so/2013.1/901 2013/11/27
 10 11  0  0  0  0  0  0  0  0999 V2000
   53.4753  -13.3501    8.9817 N   0  0  0  0  0  0  0  0  0  0  0  0
   53.6794  -14.6762    9.2363 C   0  0  0  0  0  0  0  0  0  0  0  0
   53.9903  -15.5562    8.2491 N   0  0  0  0  0  0  0  0  0  0  0  0
   54.0782  -14.9695    7.0205 C   0  0  0  0  0  0  0  0  0  0  0  0
   53.8853  -13.6435    6.7120 C   0  0  0  0  0  0  0  0  0  0  0  0
   53.5580  -12.7333    7.7211 C   0  0  0  0  0  0  0  0  0  0  0  0
   53.3485  -11.5406    7.6456 O   0  0  0  0  0  0  0  0  0  0  0  0
   54.0697  -13.4771    5.3660 N   0  0  0  0  0  0  0  0  0  0  0  0
   54.3674  -14.6725    4.8676 C   0  0  0  0  0  0  0  0  0  0  0  0
   54.3825  -15.6353    5.8594 N   0  0  0  0  0  0  0  0  0  0  0  0
  1  2  1  0  0  0  0
  1  6  1  0  0  0  0
  2  3  2  0  0  0  0
  3  4  1  0  0  0  0
  4  5  2  0  0  0  0
  4 10  1  0  0  0  0
  5  6  1  0  0  0  0
  5  8  1  0  0  0  0
  6  7  2  0  0  0  0
  8  9  1  0  0  0  0
  9 10  2  0  0  0  0
M  END
>  <CHROM.1>
53.87310690,-13.97936354,7.17728230,-2.88684812,1.33327731,-0.86005929

>  <Name>
ligand

>  <RI>
0

>  <Rbt.Current_Directory>
/home/itssahil/PROJECTS/Mol_Feturizer/New_Systems/rnas/2EEV

>  <Rbt.Executable>
rbdock ($Id: //depot/dev/client3/rdock/2013.1/src/exe/rbdock.cxx#4 $)

>  <Rbt.Library>
libRbt.so (2013.1, Build901 2013/11/27)

>  <Rbt.Parameter_File>
/export/apps/rDock/src/rDock_2013.1_src/data/scripts/dock_solv.prm

>  <Rbt.Receptor>
prm/pocket_docking_3.prm

>  <SCORE>
-19.7401

>  <SCORE.INTER>
-19.7401

>  <SCORE.INTER.CONST>
1

>  <SCORE.INTER.POLAR>
0

>  <SCORE.INTER.ROT>
0

>  <SCORE.INTER.SOLV>
4.26455

>  <SCORE.INTER.VDW>
-18.1816

>  <SCORE.INTER.norm>
-1.97401

>  <SCORE.INTRA>
0

>  <SCORE.INTRA.DIHEDRAL>
0

>  <SCORE.INTRA.DIHEDRAL.0>
0

>  <SCORE.INTRA.POLAR>
0

>  <SCORE.INTRA.POLAR.0>
0

>  <SCORE.INTRA.REPUL>
0

>  <SCORE.INTRA.REPUL.0>
0

>  <SCORE.INTRA.SOLV>
0

>  <SCORE.INTRA.SOLV.lig_0>
-4.25352

>  <SCORE.INTRA.VDW>
0

>  <SCORE.INTRA.VDW.0>
0

>  <SCORE.INTRA.norm>
0

>  <SCORE.RESTR>
0

>  <SCORE.RESTR.CAVITY>
0

>  <SCORE.RESTR.norm>
0

>  <SCORE.SYSTEM>
0

>  <SCORE.SYSTEM.CONST>
0

>  <SCORE.SYSTEM.DIHEDRAL>
0

>  <SCORE.SYSTEM.SOLV>
0

>  <SCORE.SYSTEM.norm>
0

>  <SCORE.heavy>
10

>  <SCORE.norm>
-1.97401

>  <RMSD>
0.359

$$$$
ligand
 OpenBabel11021811423D
libRbt.so/2013.1/901 2013/11/27
 10 11  0  0  0  0  0  0  0  0999 V2000
   53.4974  -13.3653    8.9776 N   0  0  0  0  0  0  0  0  0  0  0  0
   53.7129  -14.6917    9.2215 C   0  0  0  0  0  0  0  0  0  0  0  0
   54.0211  -15.5629    8.2256 N   0  0  0  0  0  0  0  0  0  0  0  0
   54.0941  -14.9674    7.0003 C   0  0  0  0  0  0  0  0  0  0  0  0
   53.8893  -13.6407    6.7024 C   0  0  0  0  0  0  0  0  0  0  0  0
   53.5647  -12.7396    7.7205 C   0  0  0  0  0  0  0  0  0  0  0  0
   53.3463  -11.5479    7.6549 O   0  0  0  0  0  0  0  0  0  0  0  0
   54.0606  -13.4641    5.3560 N   0  0  0  0  0  0  0  0  0  0  0  0
   54.3621  -14.6540    4.8470 C   0  0  0  0  0  0  0  0  0  0  0  0
   54.3928  -15.6233    5.8321 N   0  0  0  0  0  0  0  0  0  0  0  0
  1  2  1  0  0  0  0
  1  6  1  0  0  0  0
  2  3  2  0  0  0  0
  3  4  1  0  0  0  0
  4  5  2  0  0  0  0
  4 10  1  0  0  0  0
  5  6  1  0  0  0  0
  5  8  1  0  0  0  0
  6  7  2  0  0  0  0
  8  9  1  0  0  0  0
  9 10  2  0  0  0  0
M  END
>  <CHROM.1>
53.88357249,-13.97977081,7.16551471,-2.83904678,1.33355482,-0.89981733

>  <Name>
ligand

>  <RI>
0

>  <Rbt.Current_Directory>
/home/itssahil/PROJECTS/Mol_Feturizer/New_Systems/rnas/2EEV

>  <Rbt.Executable>
rbdock ($Id: //depot/dev/client3/rdock/2013.1/src/exe/rbdock.cxx#4 $)

>  <Rbt.Library>
libRbt.so (2013.1, Build901 2013/11/27)

>  <Rbt.Parameter_File>
/export/apps/rDock/src/rDock_2013.1_src/data/scripts/dock_solv.prm

>  <Rbt.Receptor>
prm/pocket_docking_3.prm

>  <SCORE>
-19.7171

>  <SCORE.INTER>
-19.7171

>  <SCORE.INTER.CONST>
1

>  <SCORE.INTER.POLAR>
0

>  <SCORE.INTER.ROT>
0

>  <SCORE.INTER.SOLV>
4.24111

>  <SCORE.INTER.VDW>
-18.1584

>  <SCORE.INTER.norm>
-1.97171

>  <SCORE.INTRA>
0

>  <SCORE.INTRA.DIHEDRAL>
0

>  <SCORE.INTRA.DIHEDRAL.0>
0

>  <SCORE.INTRA.POLAR>
0

>  <SCORE.INTRA.POLAR.0>
0

>  <SCORE.INTRA.REPUL>
0

>  <SCORE.INTRA.REPUL.0>
0

>  <SCORE.INTRA.SOLV>
0

>  <SCORE.INTRA.SOLV.lig_0>
-4.25352

>  <SCORE.INTRA.VDW>
0

>  <SCORE.INTRA.VDW.0>
0

>  <SCORE.INTRA.norm>
0

>  <SCORE.RESTR>
0

>  <SCORE.RESTR.CAVITY>
0

>  <SCORE.RESTR.norm>
0

>  <SCORE.SYSTEM>
0

>  <SCORE.SYSTEM.CONST>
0

>  <SCORE.SYSTEM.DIHEDRAL>
0

>  <SCORE.SYSTEM.SOLV>
0

>  <SCORE.SYSTEM.norm>
0

>  <SCORE.heavy>
10

>  <SCORE.norm>
-1.97171

>  <RMSD>
0.359

$$$$
ligand
 OpenBabel11021811423D
libRbt.so/2013.1/901 2013/11/27
 10 11  0  0  0  0  0  0  0  0999 V2000
   53.5035  -13.3728    8.9772 N   0  0  0  0  0  0  0  0  0  0  0  0
   53.7170  -14.7003    9.2168 C   0  0  0  0  0  0  0  0  0  0  0  0
   54.0247  -15.5685    8.2183 N   0  0  0  0  0  0  0  0  0  0  0  0
   54.0995  -14.9691    6.9950 C   0  0  0  0  0  0  0  0  0  0  0  0
   53.8968  -13.6411    6.7015 C   0  0  0  0  0  0  0  0  0  0  0  0
   53.5727  -12.7429    7.7222 C   0  0  0  0  0  0  0  0  0  0  0  0
   53.3560  -11.5507    7.6605 O   0  0  0  0  0  0  0  0  0  0  0  0
   54.0695  -13.4602    5.3557 N   0  0  0  0  0  0  0  0  0  0  0  0
   54.3697  -14.6489    4.8430 C   0  0  0  0  0  0  0  0  0  0  0  0
   54.3982  -15.6215    5.8248 N   0  0  0  0  0  0  0  0  0  0  0  0
  1  2  1  0  0  0  0
  1  6  1  0  0  0  0
  2  3  2  0  0  0  0
  3  4  1  0  0  0  0
  4  5  2  0  0  0  0
  4 10  1  0  0  0  0
  5  6  1  0  0  0  0
  5  8  1  0  0  0  0
  6  7  2  0  0  0  0
  8  9  1  0  0  0  0
  9 10  2  0  0  0  0
M  END
>  <CHROM.1>
53.89024438,-13.98169182,7.16339449,-2.84545495,1.33416582,-0.89023529

>  <Name>
ligand

>  <RI>
0

>  <Rbt.Current_Directory>
/home/itssahil/PROJECTS/Mol_Feturizer/New_Systems/rnas/2EEV

>  <Rbt.Executable>
rbdock ($Id: //depot/dev/client3/rdock/2013.1/src/exe/rbdock.cxx#4 $)

>  <Rbt.Library>
libRbt.so (2013.1, Build901 2013/11/27)

>  <Rbt.Parameter_File>
/export/apps/rDock/src/rDock_2013.1_src/data/scripts/dock_solv.prm

>  <Rbt.Receptor>
prm/pocket_docking_4.prm

>  <SCORE>
-19.7477

>  <SCORE.INTER>
-19.7477

>  <SCORE.INTER.CONST>
1

>  <SCORE.INTER.POLAR>
0

>  <SCORE.INTER.ROT>
0

>  <SCORE.INTER.SOLV>
4.24003

>  <SCORE.INTER.VDW>
-18.1785

>  <SCORE.INTER.norm>
-1.97477

>  <SCORE.INTRA>
0

>  <SCORE.INTRA.DIHEDRAL>
0

>  <SCORE.INTRA.DIHEDRAL.0>
0

>  <SCORE.INTRA.POLAR>
0

>  <SCORE.INTRA.POLAR.0>
0

>  <SCORE.INTRA.REPUL>
0

>  <SCORE.INTRA.REPUL.0>
0

>  <SCORE.INTRA.SOLV>
0

>  <SCORE.INTRA.SOLV.lig_0>
-4.25352

>  <SCORE.INTRA.VDW>
0

>  <SCORE.INTRA.VDW.0>
0

>  <SCORE.INTRA.norm>
0

>  <SCORE.RESTR>
0

>  <SCORE.RESTR.CAVITY>
0

>  <SCORE.RESTR.norm>
0

>  <SCORE.SYSTEM>
0

>  <SCORE.SYSTEM.CONST>
0

>  <SCORE.SYSTEM.DIHEDRAL>
0

>  <SCORE.SYSTEM.SOLV>
0

>  <SCORE.SYSTEM.norm>
0

>  <SCORE.heavy>
10

>  <SCORE.norm>
-1.97477

>  <RMSD>
0.359

$$$$
ligand
 OpenBabel11021811423D
libRbt.so/2013.1/901 2013/11/27
 10 11  0  0  0  0  0  0  0  0999 V2000
   53.4803  -13.3517    8.9818 N   0  0  0  0  0  0  0  0  0  0  0  0
   53.6875  -14.6777    9.2350 C   0  0  0  0  0  0  0  0  0  0  0  0
   53.9963  -15.5566    8.2461 N   0  0  0  0  0  0  0  0  0  0  0  0
   54.0790  -14.9691    7.0176 C   0  0  0  0  0  0  0  0  0  0  0  0
   53.8828  -13.6432    6.7105 C   0  0  0  0  0  0  0  0  0  0  0  0
   53.5577  -12.7341    7.7213 C   0  0  0  0  0  0  0  0  0  0  0  0
   53.3460  -11.5418    7.6472 O   0  0  0  0  0  0  0  0  0  0  0  0
   54.0623  -13.4758    5.3639 N   0  0  0  0  0  0  0  0  0  0  0  0
   54.3601  -14.6705    4.8639 C   0  0  0  0  0  0  0  0  0  0  0  0
   54.3803  -15.6338    5.8550 N   0  0  0  0  0  0  0  0  0  0  0  0
  1  2  1  0  0  0  0
  1  6  1  0  0  0  0
  2  3  2  0  0  0  0
  3  4  1  0  0  0  0
  4  5  2  0  0  0  0
  4 10  1  0  0  0  0
  5  6  1  0  0  0  0
  5  8  1  0  0  0  0
  6  7  2  0  0  0  0
  8  9  1  0  0  0  0
  9 10  2  0  0  0  0
M  END
>  <CHROM.1>
53.87281443,-13.97938650,7.17564405,-2.87101657,1.33433022,-0.87488692

>  <Name>
ligand

>  <RI>
0

>  <Rbt.Current_Directory>
/home/itssahil/PROJECTS/Mol_Feturizer/New_Systems/rnas/2EEV

>  <Rbt.Executable>
rbdock ($Id: //depot/dev/client3/rdock/2013.1/src/exe/rbdock.cxx#4 $)

>  <Rbt.Library>
libRbt.so (2013.1, Build901 2013/11/27)

>  <Rbt.Parameter_File>
/export/apps/rDock/src/rDock_2013.1_src/data/scripts/dock_solv.prm

>  <Rbt.Receptor>
prm/pocket_docking_5.prm

>  <SCORE>
-19.7107

>  <SCORE.INTER>
-19.7107

>  <SCORE.INTER.CONST>
1

>  <SCORE.INTER.POLAR>
0

>  <SCORE.INTER.ROT>
0

>  <SCORE.INTER.SOLV>
4.2616

>  <SCORE.INTER.VDW>
-18.161

>  <SCORE.INTER.norm>
-1.97107

>  <SCORE.INTRA>
0

>  <SCORE.INTRA.DIHEDRAL>
0

>  <SCORE.INTRA.DIHEDRAL.0>
0

>  <SCORE.INTRA.POLAR>
0

>  <SCORE.INTRA.POLAR.0>
0

>  <SCORE.INTRA.REPUL>
0

>  <SCORE.INTRA.REPUL.0>
0

>  <SCORE.INTRA.SOLV>
0

>  <SCORE.INTRA.SOLV.lig_0>
-4.25352

>  <SCORE.INTRA.VDW>
0

>  <SCORE.INTRA.VDW.0>
0

>  <SCORE.INTRA.norm>
0

>  <SCORE.RESTR>
0

>  <SCORE.RESTR.CAVITY>
0

>  <SCORE.RESTR.norm>
0

>  <SCORE.SYSTEM>
0

>  <SCORE.SYSTEM.CONST>
0

>  <SCORE.SYSTEM.DIHEDRAL>
0

>  <SCORE.SYSTEM.SOLV>
0

>  <SCORE.SYSTEM.norm>
0

>  <SCORE.heavy>
10

>  <SCORE.norm>
-1.97107

>  <RMSD>
0.359

$$$$
ligand
 OpenBabel11021811423D
libRbt.so/2013.1/901 2013/11/27
 10 11  0  0  0  0  0  0  0  0999 V2000
   53.5027  -13.3461    8.9810 N   0  0  0  0  0  0  0  0  0  0  0  0
   53.7169  -14.6723    9.2270 C   0  0  0  0  0  0  0  0  0  0  0  0
   54.0239  -15.5455    8.2325 N   0  0  0  0  0  0  0  0  0  0  0  0
   54.0972  -14.9522    7.0062 C   0  0  0  0  0  0  0  0  0  0  0  0
   53.8937  -13.6257    6.7062 C   0  0  0  0  0  0  0  0  0  0  0  0
   53.5703  -12.7225    7.7228 C   0  0  0  0  0  0  0  0  0  0  0  0
   53.3531  -11.5308    7.6553 O   0  0  0  0  0  0  0  0  0  0  0  0
   54.0648  -13.4515    5.3594 N   0  0  0  0  0  0  0  0  0  0  0  0
   54.3649  -14.6426    4.8523 C   0  0  0  0  0  0  0  0  0  0  0  0
   54.3948  -15.6103    5.8390 N   0  0  0  0  0  0  0  0  0  0  0  0
  1  2  1  0  0  0  0
  1  6  1  0  0  0  0
  2  3  2  0  0  0  0
  3  4  1  0  0  0  0
  4  5  2  0  0  0  0
  4 10  1  0  0  0  0
  5  6  1  0  0  0  0
  5  8  1  0  0  0  0
  6  7  2  0  0  0  0
  8  9  1  0  0  0  0
  9 10  2  0  0  0  0
M  END
>  <CHROM.1>
53.88769552,-13.96400171,7.16985872,-2.84091880,1.33455279,-0.89965831

>  <Name>
ligand

>  <RI>
0

>  <Rbt.Current_Directory>
/home/itssahil/PROJECTS/Mol_Feturizer/New_Systems/rnas/2EEV

>  <Rbt.Executable>
rbdock ($Id: //depot/dev/client3/rdock/2013.1/src/exe/rbdock.cxx#4 $)

>  <Rbt.Library>
libRbt.so (2013.1, Build901 2013/11/27)

>  <Rbt.Parameter_File>
/export/apps/rDock/src/rDock_2013.1_src/data/scripts/dock_solv.prm

>  <Rbt.Receptor>
prm/pocket_docking_5.prm

>  <SCORE>
-19.7084

>  <SCORE.INTER>
-19.7084

>  <SCORE.INTER.CONST>
1

>  <SCORE.INTER.POLAR>
0

>  <SCORE.INTER.ROT>
0

>  <SCORE.INTER.SOLV>
4.23947

>  <SCORE.INTER.VDW>
-18.1521

>  <SCORE.INTER.norm>
-1.97084

>  <SCORE.INTRA>
0

>  <SCORE.INTRA.DIHEDRAL>
0

>  <SCORE.INTRA.DIHEDRAL.0>
0

>  <SCORE.INTRA.POLAR>
0

>  <SCORE.INTRA.POLAR.0>
0

>  <SCORE.INTRA.REPUL>
0

>  <SCORE.INTRA.REPUL.0>
0

>  <SCORE.INTRA.SOLV>
0

>  <SCORE.INTRA.SOLV.lig_0>
-4.25352

>  <SCORE.INTRA.VDW>
0

>  <SCORE.INTRA.VDW.0>
0

>  <SCORE.INTRA.norm>
0

>  <SCORE.RESTR>
0

>  <SCORE.RESTR.CAVITY>
0

>  <SCORE.RESTR.norm>
0

>  <SCORE.SYSTEM>
0

>  <SCORE.SYSTEM.CONST>
0

>  <SCORE.SYSTEM.DIHEDRAL>
0

>  <SCORE.SYSTEM.SOLV>
0

>  <SCORE.SYSTEM.norm>
0

>  <SCORE.heavy>
10

>  <SCORE.norm>
-1.97084

>  <RMSD>
0.359

$$$$
ligand
 OpenBabel11021811423D
libRbt.so/2013.1/901 2013/11/27
 10 11  0  0  0  0  0  0  0  0999 V2000
   53.4801  -13.3600    8.9804 N   0  0  0  0  0  0  0  0  0  0  0  0
   53.6812  -14.6874    9.2309 C   0  0  0  0  0  0  0  0  0  0  0  0
   53.9912  -15.5648    8.2411 N   0  0  0  0  0  0  0  0  0  0  0  0
   54.0817  -14.9743    7.0145 C   0  0  0  0  0  0  0  0  0  0  0  0
   53.8919  -13.6468    6.7102 C   0  0  0  0  0  0  0  0  0  0  0  0
   53.5655  -12.7392    7.7219 C   0  0  0  0  0  0  0  0  0  0  0  0
   53.3586  -11.5459    7.6502 O   0  0  0  0  0  0  0  0  0  0  0  0
   54.0781  -13.4764    5.3649 N   0  0  0  0  0  0  0  0  0  0  0  0
   54.3737  -14.6708    4.8629 C   0  0  0  0  0  0  0  0  0  0  0  0
   54.3858  -15.6369    5.8515 N   0  0  0  0  0  0  0  0  0  0  0  0
  1  2  1  0  0  0  0
  1  6  1  0  0  0  0
  2  3  2  0  0  0  0
  3  4  1  0  0  0  0
  4  5  2  0  0  0  0
  4 10  1  0  0  0  0
  5  6  1  0  0  0  0
  5  8  1  0  0  0  0
  6  7  2  0  0  0  0
  8  9  1  0  0  0  0
  9 10  2  0  0  0  0
M  END
>  <CHROM.1>
53.87851008,-13.98419949,7.17434273,-2.89611752,1.33419272,-0.84775757

>  <Name>
ligand

>  <RI>
0

>  <Rbt.Current_Directory>
/home/itssahil/PROJECTS/Mol_Feturizer/New_Systems/rnas/2EEV

>  <Rbt.Executable>
rbdock ($Id: //depot/dev/client3/rdock/2013.1/src/exe/rbdock.cxx#4 $)

>  <Rbt.Library>
libRbt.so (2013.1, Build901 2013/11/27)

>  <Rbt.Parameter_File>
/export/apps/rDock/src/rDock_2013.1_src/data/scripts/dock_solv.prm

>  <Rbt.Receptor>
prm/pocket_docking_6.prm

>  <SCORE>
-19.7353

>  <SCORE.INTER>
-19.7353

>  <SCORE.INTER.CONST>
1

>  <SCORE.INTER.POLAR>
0

>  <SCORE.INTER.ROT>
0

>  <SCORE.INTER.SOLV>
4.26681

>  <SCORE.INTER.VDW>
-18.1792

>  <SCORE.INTER.norm>
-1.97353

>  <SCORE.INTRA>
0

>  <SCORE.INTRA.DIHEDRAL>
0

>  <SCORE.INTRA.DIHEDRAL.0>
0

>  <SCORE.INTRA.POLAR>
0

>  <SCORE.INTRA.POLAR.0>
0

>  <SCORE.INTRA.REPUL>
0

>  <SCORE.INTRA.REPUL.0>
0

>  <SCORE.INTRA.SOLV>
0

>  <SCORE.INTRA.SOLV.lig_0>
-4.25352

>  <SCORE.INTRA.VDW>
0

>  <SCORE.INTRA.VDW.0>
0

>  <SCORE.INTRA.norm>
0

>  <SCORE.RESTR>
0

>  <SCORE.RESTR.CAVITY>
0

>  <SCORE.RESTR.norm>
0

>  <SCORE.SYSTEM>
0

>  <SCORE.SYSTEM.CONST>
0

>  <SCORE.SYSTEM.DIHEDRAL>
0

>  <SCORE.SYSTEM.SOLV>
0

>  <SCORE.SYSTEM.norm>
0

>  <SCORE.heavy>
10

>  <SCORE.norm>
-1.97353

>  <RMSD>
0.359

$$$$
ligand
 OpenBabel11021811423D
libRbt.so/2013.1/901 2013/11/27
 10 11  0  0  0  0  0  0  0  0999 V2000
   53.4770  -13.3475    8.9829 N   0  0  0  0  0  0  0  0  0  0  0  0
   53.6795  -14.6740    9.2374 C   0  0  0  0  0  0  0  0  0  0  0  0
   53.9886  -15.5544    8.2500 N   0  0  0  0  0  0  0  0  0  0  0  0
   54.0765  -14.9678    7.0214 C   0  0  0  0  0  0  0  0  0  0  0  0
   53.8852  -13.6415    6.7130 C   0  0  0  0  0  0  0  0  0  0  0  0
   53.5598  -12.7309    7.7222 C   0  0  0  0  0  0  0  0  0  0  0  0
   53.3518  -11.5379    7.6469 O   0  0  0  0  0  0  0  0  0  0  0  0
   54.0689  -13.4754    5.3668 N   0  0  0  0  0  0  0  0  0  0  0  0
   54.3647  -14.6712    4.8683 C   0  0  0  0  0  0  0  0  0  0  0  0
   54.3792  -15.6341    5.8600 N   0  0  0  0  0  0  0  0  0  0  0  0
  1  2  1  0  0  0  0
  1  6  1  0  0  0  0
  2  3  2  0  0  0  0
  3  4  1  0  0  0  0
  4  5  2  0  0  0  0
  4 10  1  0  0  0  0
  5  6  1  0  0  0  0
  5  8  1  0  0  0  0
  6  7  2  0  0  0  0
  8  9  1  0  0  0  0
  9 10  2  0  0  0  0
M  END
>  <CHROM.1>
53.87284383,-13.97738408,7.17824327,-2.88844791,1.33471659,-0.85852110

>  <Name>
ligand

>  <RI>
0

>  <Rbt.Current_Directory>
/home/itssahil/PROJECTS/Mol_Feturizer/New_Systems/rnas/2EEV

>  <Rbt.Executable>
rbdock ($Id: //depot/dev/client3/rdock/2013.1/src/exe/rbdock.cxx#4 $)

>  <Rbt.Library>
libRbt.so (2013.1, Build901 2013/11/27)

>  <Rbt.Parameter_File>
/export/apps/rDock/src/rDock_2013.1_src/data/scripts/dock_solv.prm

>  <Rbt.Receptor>
prm/pocket_docking_7.prm

>  <SCORE>
-19.739

>  <SCORE.INTER>
-19.739

>  <SCORE.INTER.CONST>
1

>  <SCORE.INTER.POLAR>
0

>  <SCORE.INTER.ROT>
0

>  <SCORE.INTER.SOLV>
4.26838

>  <SCORE.INTER.VDW>
-18.1821

>  <SCORE.INTER.norm>
-1.9739

>  <SCORE.INTRA>
0

>  <SCORE.INTRA.DIHEDRAL>
0

>  <SCORE.INTRA.DIHEDRAL.0>
0

>  <SCORE.INTRA.POLAR>
0

>  <SCORE.INTRA.POLAR.0>
0

>  <SCORE.INTRA.REPUL>
0

>  <SCORE.INTRA.REPUL.0>
0

>  <SCORE.INTRA.SOLV>
0

>  <SCORE.INTRA.SOLV.lig_0>
-4.25352

>  <SCORE.INTRA.VDW>
0

>  <SCORE.INTRA.VDW.0>
0

>  <SCORE.INTRA.norm>
0

>  <SCORE.RESTR>
0

>  <SCORE.RESTR.CAVITY>
0

>  <SCORE.RESTR.norm>
0

>  <SCORE.SYSTEM>
0

>  <SCORE.SYSTEM.CONST>
0

>  <SCORE.SYSTEM.DIHEDRAL>
0

>  <SCORE.SYSTEM.SOLV>
0

>  <SCORE.SYSTEM.norm>
0

>  <SCORE.heavy>
10

>  <SCORE.norm>
-1.9739

>  <RMSD>
0.359

$$$$
ligand
 OpenBabel11021811423D
libRbt.so/2013.1/901 2013/11/27
 10 11  0  0  0  0  0  0  0  0999 V2000
   53.4988  -13.3713    8.9753 N   0  0  0  0  0  0  0  0  0  0  0  0
   53.7139  -14.6984    9.2158 C   0  0  0  0  0  0  0  0  0  0  0  0
   54.0252  -15.5665    8.2182 N   0  0  0  0  0  0  0  0  0  0  0  0
   54.1017  -14.9673    6.9949 C   0  0  0  0  0  0  0  0  0  0  0  0
   53.8975  -13.6397    6.7005 C   0  0  0  0  0  0  0  0  0  0  0  0
   53.5697  -12.7417    7.7203 C   0  0  0  0  0  0  0  0  0  0  0  0
   53.3512  -11.5500    7.6576 O   0  0  0  0  0  0  0  0  0  0  0  0
   54.0728  -13.4589    5.3551 N   0  0  0  0  0  0  0  0  0  0  0  0
   54.3760  -14.6473    4.8433 C   0  0  0  0  0  0  0  0  0  0  0  0
   54.4039  -15.6196    5.8256 N   0  0  0  0  0  0  0  0  0  0  0  0
  1  2  1  0  0  0  0
  1  6  1  0  0  0  0
  2  3  2  0  0  0  0
  3  4  1  0  0  0  0
  4  5  2  0  0  0  0
  4 10  1  0  0  0  0
  5  6  1  0  0  0  0
  5  8  1  0  0  0  0
  6  7  2  0  0  0  0
  8  9  1  0  0  0  0
  9 10  2  0  0  0  0
M  END
>  <CHROM.1>
53.89044918,-13.98019387,7.16251351,-2.84826298,1.33152934,-0.88782282

>  <Name>
ligand

>  <RI>
0

>  <Rbt.Current_Directory>
/home/itssahil/PROJECTS/Mol_Feturizer/New_Systems/rnas/2EEV

>  <Rbt.Executable>
rbdock ($Id: //depot/dev/client3/rdock/2013.1/src/exe/rbdock.cxx#4 $)

>  <Rbt.Library>
libRbt.so (2013.1, Build901 2013/11/27)

>  <Rbt.Parameter_File>
/export/apps/rDock/src/rDock_2013.1_src/data/scripts/dock_solv.prm

>  <Rbt.Receptor>
prm/pocket_docking_7.prm

>  <SCORE>
-19.7466

>  <SCORE.INTER>
-19.7466

>  <SCORE.INTER.CONST>
1

>  <SCORE.INTER.POLAR>
0

>  <SCORE.INTER.ROT>
0

>  <SCORE.INTER.SOLV>
4.23447

>  <SCORE.INTER.VDW>
-18.1759

>  <SCORE.INTER.norm>
-1.97466

>  <SCORE.INTRA>
0

>  <SCORE.INTRA.DIHEDRAL>
0

>  <SCORE.INTRA.DIHEDRAL.0>
0

>  <SCORE.INTRA.POLAR>
0

>  <SCORE.INTRA.POLAR.0>
0

>  <SCORE.INTRA.REPUL>
0

>  <SCORE.INTRA.REPUL.0>
0

>  <SCORE.INTRA.SOLV>
0

>  <SCORE.INTRA.SOLV.lig_0>
-4.25352

>  <SCORE.INTRA.VDW>
0

>  <SCORE.INTRA.VDW.0>
0

>  <SCORE.INTRA.norm>
0

>  <SCORE.RESTR>
0

>  <SCORE.RESTR.CAVITY>
0

>  <SCORE.RESTR.norm>
0

>  <SCORE.SYSTEM>
0

>  <SCORE.SYSTEM.CONST>
0

>  <SCORE.SYSTEM.DIHEDRAL>
0

>  <SCORE.SYSTEM.SOLV>
0

>  <SCORE.SYSTEM.norm>
0

>  <SCORE.heavy>
10

>  <SCORE.norm>
-1.97466

>  <RMSD>
0.359

$$$$
ligand
 OpenBabel11021811423D
libRbt.so/2013.1/901 2013/11/27
 10 11  0  0  0  0  0  0  0  0999 V2000
   53.5136  -13.3851    8.9841 N   0  0  0  0  0  0  0  0  0  0  0  0
   53.7045  -14.7162    9.2228 C   0  0  0  0  0  0  0  0  0  0  0  0
   54.0031  -15.5880    8.2245 N   0  0  0  0  0  0  0  0  0  0  0  0
   54.0937  -14.9881    7.0025 C   0  0  0  0  0  0  0  0  0  0  0  0
   53.9138  -13.6566    6.7099 C   0  0  0  0  0  0  0  0  0  0  0  0
   53.5992  -12.7547    7.7304 C   0  0  0  0  0  0  0  0  0  0  0  0
   53.4020  -11.5591    7.6693 O   0  0  0  0  0  0  0  0  0  0  0  0
   54.0961  -13.4766    5.3653 N   0  0  0  0  0  0  0  0  0  0  0  0
   54.3796  -14.6692    4.8523 C   0  0  0  0  0  0  0  0  0  0  0  0
   54.3876  -15.6436    5.8328 N   0  0  0  0  0  0  0  0  0  0  0  0
  1  2  1  0  0  0  0
  1  6  1  0  0  0  0
  2  3  2  0  0  0  0
  3  4  1  0  0  0  0
  4  5  2  0  0  0  0
  4 10  1  0  0  0  0
  5  6  1  0  0  0  0
  5  8  1  0  0  0  0
  6  7  2  0  0  0  0
  8  9  1  0  0  0  0
  9 10  2  0  0  0  0
M  END
>  <CHROM.1>
53.89948550,-13.99767717,7.17129898,-2.90748413,1.34312995,-0.82843071

>  <Name>
ligand

>  <RI>
0

>  <Rbt.Current_Directory>
/home/itssahil/PROJECTS/Mol_Feturizer/New_Systems/rnas/2EEV

>  <Rbt.Executable>
rbdock ($Id: //depot/dev/client3/rdock/2013.1/src/exe/rbdock.cxx#4 $)

>  <Rbt.Library>
libRbt.so (2013.1, Build901 2013/11/27)

>  <Rbt.Parameter_File>
/export/apps/rDock/src/rDock_2013.1_src/data/scripts/dock_solv.prm

>  <Rbt.Receptor>
prm/blind_docking_80.prm

>  <SCORE>
-19.7458

>  <SCORE.INTER>
-19.7458

>  <SCORE.INTER.CONST>
1

>  <SCORE.INTER.POLAR>
0

>  <SCORE.INTER.ROT>
0

>  <SCORE.INTER.SOLV>
4.28414

>  <SCORE.INTER.VDW>
-18.1919

>  <SCORE.INTER.norm>
-1.97458

>  <SCORE.INTRA>
0

>  <SCORE.INTRA.DIHEDRAL>
0

>  <SCORE.INTRA.DIHEDRAL.0>
0

>  <SCORE.INTRA.POLAR>
0

>  <SCORE.INTRA.POLAR.0>
0

>  <SCORE.INTRA.REPUL>
0

>  <SCORE.INTRA.REPUL.0>
0

>  <SCORE.INTRA.SOLV>
0

>  <SCORE.INTRA.SOLV.lig_0>
-4.25352

>  <SCORE.INTRA.VDW>
0

>  <SCORE.INTRA.VDW.0>
0

>  <SCORE.INTRA.norm>
0

>  <SCORE.RESTR>
0

>  <SCORE.RESTR.CAVITY>
0

>  <SCORE.RESTR.norm>
0

>  <SCORE.SYSTEM>
0

>  <SCORE.SYSTEM.CONST>
0

>  <SCORE.SYSTEM.DIHEDRAL>
0

>  <SCORE.SYSTEM.SOLV>
0

>  <SCORE.SYSTEM.norm>
0

>  <SCORE.heavy>
10

>  <SCORE.norm>
-1.97458

>  <RMSD>
0.360

$$$$
ligand
 OpenBabel11021811423D
libRbt.so/2013.1/901 2013/11/27
 10 11  0  0  0  0  0  0  0  0999 V2000
   53.5028  -13.3783    8.9751 N   0  0  0  0  0  0  0  0  0  0  0  0
   53.7167  -14.7060    9.2136 C   0  0  0  0  0  0  0  0  0  0  0  0
   54.0251  -15.5732    8.2144 N   0  0  0  0  0  0  0  0  0  0  0  0
   54.1000  -14.9726    6.9917 C   0  0  0  0  0  0  0  0  0  0  0  0
   53.8968  -13.6445    6.6993 C   0  0  0  0  0  0  0  0  0  0  0  0
   53.5721  -12.7473    7.7208 C   0  0  0  0  0  0  0  0  0  0  0  0
   53.3550  -11.5552    7.6600 O   0  0  0  0  0  0  0  0  0  0  0  0
   54.0698  -13.4623    5.3538 N   0  0  0  0  0  0  0  0  0  0  0  0
   54.3706  -14.6504    4.8400 C   0  0  0  0  0  0  0  0  0  0  0  0
   54.3992  -15.6239    5.8210 N   0  0  0  0  0  0  0  0  0  0  0  0
  1  2  1  0  0  0  0
  1  6  1  0  0  0  0
  2  3  2  0  0  0  0
  3  4  1  0  0  0  0
  4  5  2  0  0  0  0
  4 10  1  0  0  0  0
  5  6  1  0  0  0  0
  5  8  1  0  0  0  0
  6  7  2  0  0  0  0
  8  9  1  0  0  0  0
  9 10  2  0  0  0  0
M  END
>  <CHROM.1>
53.89027753,-13.98547734,7.16090110,-2.84535325,1.33368326,-0.88944031

>  <Name>
ligand

>  <RI>
0

>  <Rbt.Current_Directory>
/home/itssahil/PROJECTS/Mol_Feturizer/New_Systems/rnas/2EEV

>  <Rbt.Executable>
rbdock ($Id: //depot/dev/client3/rdock/2013.1/src/exe/rbdock.cxx#4 $)

>  <Rbt.Library>
libRbt.so (2013.1, Build901 2013/11/27)

>  <Rbt.Parameter_File>
/export/apps/rDock/src/rDock_2013.1_src/data/scripts/dock_solv.prm

>  <Rbt.Receptor>
prm/blind_docking_80.prm

>  <SCORE>
-19.711

>  <SCORE.INTER>
-19.711

>  <SCORE.INTER.CONST>
1

>  <SCORE.INTER.POLAR>
0

>  <SCORE.INTER.ROT>
0

>  <SCORE.INTER.SOLV>
4.23898

>  <SCORE.INTER.VDW>
-18.1537

>  <SCORE.INTER.norm>
-1.9711

>  <SCORE.INTRA>
0

>  <SCORE.INTRA.DIHEDRAL>
0

>  <SCORE.INTRA.DIHEDRAL.0>
0

>  <SCORE.INTRA.POLAR>
0

>  <SCORE.INTRA.POLAR.0>
0

>  <SCORE.INTRA.REPUL>
0

>  <SCORE.INTRA.REPUL.0>
0

>  <SCORE.INTRA.SOLV>
0

>  <SCORE.INTRA.SOLV.lig_0>
-4.25352

>  <SCORE.INTRA.VDW>
0

>  <SCORE.INTRA.VDW.0>
0

>  <SCORE.INTRA.norm>
0

>  <SCORE.RESTR>
0

>  <SCORE.RESTR.CAVITY>
0

>  <SCORE.RESTR.norm>
0

>  <SCORE.SYSTEM>
0

>  <SCORE.SYSTEM.CONST>
0

>  <SCORE.SYSTEM.DIHEDRAL>
0

>  <SCORE.SYSTEM.SOLV>
0

>  <SCORE.SYSTEM.norm>
0

>  <SCORE.heavy>
10

>  <SCORE.norm>
-1.9711

>  <RMSD>
0.360

$$$$
ligand
 OpenBabel11021811423D
libRbt.so/2013.1/901 2013/11/27
 10 11  0  0  0  0  0  0  0  0999 V2000
   53.4315  -13.1606    9.0182 N   0  0  0  0  0  0  0  0  0  0  0  0
   53.6868  -14.4634    9.3389 C   0  0  0  0  0  0  0  0  0  0  0  0
   54.0296  -15.3798    8.3963 N   0  0  0  0  0  0  0  0  0  0  0  0
   54.0930  -14.8532    7.1393 C   0  0  0  0  0  0  0  0  0  0  0  0
   53.8488  -13.5528    6.7648 C   0  0  0  0  0  0  0  0  0  0  0  0
   53.4885  -12.6058    7.7277 C   0  0  0  0  0  0  0  0  0  0  0  0
   53.2332  -11.4274    7.5928 O   0  0  0  0  0  0  0  0  0  0  0  0
   54.0245  -13.4479    5.4115 N   0  0  0  0  0  0  0  0  0  0  0  0
   54.3670  -14.6548    4.9731 C   0  0  0  0  0  0  0  0  0  0  0  0
   54.4208  -15.5648    6.0123 N   0  0  0  0  0  0  0  0  0  0  0  0
  1  2  1  0  0  0  0
  1  6  1  0  0  0  0
  2  3  2  0  0  0  0
  3  4  1  0  0  0  0
  4  5  2  0  0  0  0
  4 10  1  0  0  0  0
  5  6  1  0  0  0  0
  5  8  1  0  0  0  0
  6  7  2  0  0  0  0
  8  9  1  0  0  0  0
  9 10  2  0  0  0  0
M  END
>  <CHROM.1>
53.85027228,-13.86489218,7.24653921,-2.78704468,1.30396422,-1.00739005

>  <Name>
ligand

>  <RI>
0

>  <Rbt.Current_Directory>
/home/itssahil/PROJECTS/Mol_Feturizer/New_Systems/rnas/2EEV

>  <Rbt.Executable>
rbdock ($Id: //depot/dev/client3/rdock/2013.1/src/exe/rbdock.cxx#4 $)

>  <Rbt.Library>
libRbt.so (2013.1, Build901 2013/11/27)

>  <Rbt.Parameter_File>
/export/apps/rDock/src/rDock_2013.1_src/data/scripts/dock_solv.prm

>  <Rbt.Receptor>
prm/pocket_docking_5.prm

>  <SCORE>
-19.6758

>  <SCORE.INTER>
-19.6758

>  <SCORE.INTER.CONST>
1

>  <SCORE.INTER.POLAR>
0

>  <SCORE.INTER.ROT>
0

>  <SCORE.INTER.SOLV>
4.14476

>  <SCORE.INTER.VDW>
-18.0988

>  <SCORE.INTER.norm>
-1.96758

>  <SCORE.INTRA>
0

>  <SCORE.INTRA.DIHEDRAL>
0

>  <SCORE.INTRA.DIHEDRAL.0>
0

>  <SCORE.INTRA.POLAR>
0

>  <SCORE.INTRA.POLAR.0>
0

>  <SCORE.INTRA.REPUL>
0

>  <SCORE.INTRA.REPUL.0>
0

>  <SCORE.INTRA.SOLV>
0

>  <SCORE.INTRA.SOLV.lig_0>
-4.25352

>  <SCORE.INTRA.VDW>
0

>  <SCORE.INTRA.VDW.0>
0

>  <SCORE.INTRA.norm>
0

>  <SCORE.RESTR>
0

>  <SCORE.RESTR.CAVITY>
0

>  <SCORE.RESTR.norm>
0

>  <SCORE.SYSTEM>
0

>  <SCORE.SYSTEM.CONST>
0

>  <SCORE.SYSTEM.DIHEDRAL>
0

>  <SCORE.SYSTEM.SOLV>
0

>  <SCORE.SYSTEM.norm>
0

>  <SCORE.heavy>
10

>  <SCORE.norm>
-1.96758

>  <RMSD>
0.360

$$$$
ligand
 OpenBabel11021811423D
libRbt.so/2013.1/901 2013/11/27
 10 11  0  0  0  0  0  0  0  0999 V2000
   53.4115  -13.1621    9.0183 N   0  0  0  0  0  0  0  0  0  0  0  0
   53.6633  -14.4655    9.3393 C   0  0  0  0  0  0  0  0  0  0  0  0
   54.0153  -15.3804    8.3987 N   0  0  0  0  0  0  0  0  0  0  0  0
   54.0914  -14.8517    7.1433 C   0  0  0  0  0  0  0  0  0  0  0  0
   53.8513  -13.5506    6.7685 C   0  0  0  0  0  0  0  0  0  0  0  0
   53.4816  -12.6051    7.7294 C   0  0  0  0  0  0  0  0  0  0  0  0
   53.2280  -11.4264    7.5938 O   0  0  0  0  0  0  0  0  0  0  0  0
   54.0406  -13.4435    5.4172 N   0  0  0  0  0  0  0  0  0  0  0  0
   54.3872  -14.6498    4.9803 C   0  0  0  0  0  0  0  0  0  0  0  0
   54.4303  -15.5616    6.0184 N   0  0  0  0  0  0  0  0  0  0  0  0
  1  2  1  0  0  0  0
  1  6  1  0  0  0  0
  2  3  2  0  0  0  0
  3  4  1  0  0  0  0
  4  5  2  0  0  0  0
  4 10  1  0  0  0  0
  5  6  1  0  0  0  0
  5  8  1  0  0  0  0
  6  7  2  0  0  0  0
  8  9  1  0  0  0  0
  9 10  2  0  0  0  0
M  END
>  <CHROM.1>
53.84788527,-13.86353137,7.24972115,-2.81912793,1.29870063,-0.97480402

>  <Name>
ligand

>  <RI>
0

>  <Rbt.Current_Directory>
/home/itssahil/PROJECTS/Mol_Feturizer/New_Systems/rnas/2EEV

>  <Rbt.Executable>
rbdock ($Id: //depot/dev/client3/rdock/2013.1/src/exe/rbdock.cxx#4 $)

>  <Rbt.Library>
libRbt.so (2013.1, Build901 2013/11/27)

>  <Rbt.Parameter_File>
/export/apps/rDock/src/rDock_2013.1_src/data/scripts/dock_solv.prm

>  <Rbt.Receptor>
prm/pocket_docking_5.prm

>  <SCORE>
-19.672

>  <SCORE.INTER>
-19.672

>  <SCORE.INTER.CONST>
1

>  <SCORE.INTER.POLAR>
0

>  <SCORE.INTER.ROT>
0

>  <SCORE.INTER.SOLV>
4.14365

>  <SCORE.INTER.VDW>
-18.0959

>  <SCORE.INTER.norm>
-1.9672

>  <SCORE.INTRA>
0

>  <SCORE.INTRA.DIHEDRAL>
0

>  <SCORE.INTRA.DIHEDRAL.0>
0

>  <SCORE.INTRA.POLAR>
0

>  <SCORE.INTRA.POLAR.0>
0

>  <SCORE.INTRA.REPUL>
0

>  <SCORE.INTRA.REPUL.0>
0

>  <SCORE.INTRA.SOLV>
0

>  <SCORE.INTRA.SOLV.lig_0>
-4.25352

>  <SCORE.INTRA.VDW>
0

>  <SCORE.INTRA.VDW.0>
0

>  <SCORE.INTRA.norm>
0

>  <SCORE.RESTR>
0

>  <SCORE.RESTR.CAVITY>
0

>  <SCORE.RESTR.norm>
0

>  <SCORE.SYSTEM>
0

>  <SCORE.SYSTEM.CONST>
0

>  <SCORE.SYSTEM.DIHEDRAL>
0

>  <SCORE.SYSTEM.SOLV>
0

>  <SCORE.SYSTEM.norm>
0

>  <SCORE.heavy>
10

>  <SCORE.norm>
-1.9672

>  <RMSD>
0.360

$$$$
ligand
 OpenBabel11021811423D
libRbt.so/2013.1/901 2013/11/27
 10 11  0  0  0  0  0  0  0  0999 V2000
   53.4958  -13.3568    8.9841 N   0  0  0  0  0  0  0  0  0  0  0  0
   53.6969  -14.6834    9.2391 C   0  0  0  0  0  0  0  0  0  0  0  0
   53.9958  -15.5661    8.2506 N   0  0  0  0  0  0  0  0  0  0  0  0
   54.0755  -14.9817    7.0204 C   0  0  0  0  0  0  0  0  0  0  0  0
   53.8851  -13.6554    6.7114 C   0  0  0  0  0  0  0  0  0  0  0  0
   53.5701  -12.7423    7.7219 C   0  0  0  0  0  0  0  0  0  0  0  0
   53.3646  -11.5490    7.6463 O   0  0  0  0  0  0  0  0  0  0  0  0
   54.0586  -13.4918    5.3636 N   0  0  0  0  0  0  0  0  0  0  0  0
   54.3473  -14.6891    4.8646 C   0  0  0  0  0  0  0  0  0  0  0  0
   54.3672  -15.6505    5.8577 N   0  0  0  0  0  0  0  0  0  0  0  0
  1  2  1  0  0  0  0
  1  6  1  0  0  0  0
  2  3  2  0  0  0  0
  3  4  1  0  0  0  0
  4  5  2  0  0  0  0
  4 10  1  0  0  0  0
  5  6  1  0  0  0  0
  5  8  1  0  0  0  0
  6  7  2  0  0  0  0
  8  9  1  0  0  0  0
  9 10  2  0  0  0  0
M  END
>  <CHROM.1>
53.87561545,-13.99046907,7.17732893,-2.86939485,1.34182511,-0.87859847

>  <Name>
ligand

>  <RI>
0

>  <Rbt.Current_Directory>
/home/itssahil/PROJECTS/Mol_Feturizer/New_Systems/rnas/2EEV

>  <Rbt.Executable>
rbdock ($Id: //depot/dev/client3/rdock/2013.1/src/exe/rbdock.cxx#4 $)

>  <Rbt.Library>
libRbt.so (2013.1, Build901 2013/11/27)

>  <Rbt.Parameter_File>
/export/apps/rDock/src/rDock_2013.1_src/data/scripts/dock_solv.prm

>  <Rbt.Receptor>
prm/pocket_docking_8.prm

>  <SCORE>
-19.7039

>  <SCORE.INTER>
-19.7039

>  <SCORE.INTER.CONST>
1

>  <SCORE.INTER.POLAR>
0

>  <SCORE.INTER.ROT>
0

>  <SCORE.INTER.SOLV>
4.2781

>  <SCORE.INTER.VDW>
-18.162

>  <SCORE.INTER.norm>
-1.97039

>  <SCORE.INTRA>
0

>  <SCORE.INTRA.DIHEDRAL>
0

>  <SCORE.INTRA.DIHEDRAL.0>
0

>  <SCORE.INTRA.POLAR>
0

>  <SCORE.INTRA.POLAR.0>
0

>  <SCORE.INTRA.REPUL>
0

>  <SCORE.INTRA.REPUL.0>
0

>  <SCORE.INTRA.SOLV>
0

>  <SCORE.INTRA.SOLV.lig_0>
-4.25352

>  <SCORE.INTRA.VDW>
0

>  <SCORE.INTRA.VDW.0>
0

>  <SCORE.INTRA.norm>
0

>  <SCORE.RESTR>
0

>  <SCORE.RESTR.CAVITY>
0

>  <SCORE.RESTR.norm>
0

>  <SCORE.SYSTEM>
0

>  <SCORE.SYSTEM.CONST>
0

>  <SCORE.SYSTEM.DIHEDRAL>
0

>  <SCORE.SYSTEM.SOLV>
0

>  <SCORE.SYSTEM.norm>
0

>  <SCORE.heavy>
10

>  <SCORE.norm>
-1.97039

>  <RMSD>
0.360

$$$$
ligand
 OpenBabel11021811423D
libRbt.so/2013.1/901 2013/11/27
 10 11  0  0  0  0  0  0  0  0999 V2000
   53.4702  -13.3477    8.9825 N   0  0  0  0  0  0  0  0  0  0  0  0
   53.6730  -14.6742    9.2366 C   0  0  0  0  0  0  0  0  0  0  0  0
   53.9824  -15.5542    8.2489 N   0  0  0  0  0  0  0  0  0  0  0  0
   54.0702  -14.9673    7.0204 C   0  0  0  0  0  0  0  0  0  0  0  0
   53.8785  -13.6409    6.7124 C   0  0  0  0  0  0  0  0  0  0  0  0
   53.5529  -12.7306    7.7220 C   0  0  0  0  0  0  0  0  0  0  0  0
   53.3446  -11.5378    7.6470 O   0  0  0  0  0  0  0  0  0  0  0  0
   54.0623  -13.4743    5.3663 N   0  0  0  0  0  0  0  0  0  0  0  0
   54.3584  -14.6699    4.8674 C   0  0  0  0  0  0  0  0  0  0  0  0
   54.3731  -15.6330    5.8589 N   0  0  0  0  0  0  0  0  0  0  0  0
  1  2  1  0  0  0  0
  1  6  1  0  0  0  0
  2  3  2  0  0  0  0
  3  4  1  0  0  0  0
  4  5  2  0  0  0  0
  4 10  1  0  0  0  0
  5  6  1  0  0  0  0
  5  8  1  0  0  0  0
  6  7  2  0  0  0  0
  8  9  1  0  0  0  0
  9 10  2  0  0  0  0
M  END
>  <CHROM.1>
53.86625805,-13.97691527,7.17761946,-2.88786237,1.33449137,-0.85877720

>  <Name>
ligand

>  <RI>
0

>  <Rbt.Current_Directory>
/home/itssahil/PROJECTS/Mol_Feturizer/New_Systems/rnas/2EEV

>  <Rbt.Executable>
rbdock ($Id: //depot/dev/client3/rdock/2013.1/src/exe/rbdock.cxx#4 $)

>  <Rbt.Library>
libRbt.so (2013.1, Build901 2013/11/27)

>  <Rbt.Parameter_File>
/export/apps/rDock/src/rDock_2013.1_src/data/scripts/dock_solv.prm

>  <Rbt.Receptor>
prm/pocket_docking_4.prm

>  <SCORE>
-19.7392

>  <SCORE.INTER>
-19.7392

>  <SCORE.INTER.CONST>
1

>  <SCORE.INTER.POLAR>
0

>  <SCORE.INTER.ROT>
0

>  <SCORE.INTER.SOLV>
4.27191

>  <SCORE.INTER.VDW>
-18.1834

>  <SCORE.INTER.norm>
-1.97392

>  <SCORE.INTRA>
0

>  <SCORE.INTRA.DIHEDRAL>
0

>  <SCORE.INTRA.DIHEDRAL.0>
0

>  <SCORE.INTRA.POLAR>
0

>  <SCORE.INTRA.POLAR.0>
0

>  <SCORE.INTRA.REPUL>
0

>  <SCORE.INTRA.REPUL.0>
0

>  <SCORE.INTRA.SOLV>
0

>  <SCORE.INTRA.SOLV.lig_0>
-4.25352

>  <SCORE.INTRA.VDW>
0

>  <SCORE.INTRA.VDW.0>
0

>  <SCORE.INTRA.norm>
0

>  <SCORE.RESTR>
0

>  <SCORE.RESTR.CAVITY>
0

>  <SCORE.RESTR.norm>
0

>  <SCORE.SYSTEM>
0

>  <SCORE.SYSTEM.CONST>
0

>  <SCORE.SYSTEM.DIHEDRAL>
0

>  <SCORE.SYSTEM.SOLV>
0

>  <SCORE.SYSTEM.norm>
0

>  <SCORE.heavy>
10

>  <SCORE.norm>
-1.97392

>  <RMSD>
0.361

$$$$
ligand
 OpenBabel11021811423D
libRbt.so/2013.1/901 2013/11/27
 10 11  0  0  0  0  0  0  0  0999 V2000
   53.5037  -13.3541    8.9801 N   0  0  0  0  0  0  0  0  0  0  0  0
   53.7105  -14.6816    9.2255 C   0  0  0  0  0  0  0  0  0  0  0  0
   54.0141  -15.5557    8.2308 N   0  0  0  0  0  0  0  0  0  0  0  0
   54.0921  -14.9620    7.0050 C   0  0  0  0  0  0  0  0  0  0  0  0
   53.8961  -13.6342    6.7056 C   0  0  0  0  0  0  0  0  0  0  0  0
   53.5763  -12.7300    7.7225 C   0  0  0  0  0  0  0  0  0  0  0  0
   53.3656  -11.5371    7.6555 O   0  0  0  0  0  0  0  0  0  0  0  0
   54.0700  -13.4600    5.3592 N   0  0  0  0  0  0  0  0  0  0  0  0
   54.3643  -14.6524    4.8516 C   0  0  0  0  0  0  0  0  0  0  0  0
   54.3877  -15.6209    5.8377 N   0  0  0  0  0  0  0  0  0  0  0  0
  1  2  1  0  0  0  0
  1  6  1  0  0  0  0
  2  3  2  0  0  0  0
  3  4  1  0  0  0  0
  4  5  2  0  0  0  0
  4 10  1  0  0  0  0
  5  6  1  0  0  0  0
  5  8  1  0  0  0  0
  6  7  2  0  0  0  0
  8  9  1  0  0  0  0
  9 10  2  0  0  0  0
M  END
>  <CHROM.1>
53.88775306,-13.97280654,7.16904556,-2.85978569,1.33791265,-0.88061678

>  <Name>
ligand

>  <RI>
0

>  <Rbt.Current_Directory>
/home/itssahil/PROJECTS/Mol_Feturizer/New_Systems/rnas/2EEV

>  <Rbt.Executable>
rbdock ($Id: //depot/dev/client3/rdock/2013.1/src/exe/rbdock.cxx#4 $)

>  <Rbt.Library>
libRbt.so (2013.1, Build901 2013/11/27)

>  <Rbt.Parameter_File>
/export/apps/rDock/src/rDock_2013.1_src/data/scripts/dock_solv.prm

>  <Rbt.Receptor>
prm/pocket_docking_5.prm

>  <SCORE>
-19.7071

>  <SCORE.INTER>
-19.7071

>  <SCORE.INTER.CONST>
1

>  <SCORE.INTER.POLAR>
0

>  <SCORE.INTER.ROT>
0

>  <SCORE.INTER.SOLV>
4.25463

>  <SCORE.INTER.VDW>
-18.1562

>  <SCORE.INTER.norm>
-1.97071

>  <SCORE.INTRA>
0

>  <SCORE.INTRA.DIHEDRAL>
0

>  <SCORE.INTRA.DIHEDRAL.0>
0

>  <SCORE.INTRA.POLAR>
0

>  <SCORE.INTRA.POLAR.0>
0

>  <SCORE.INTRA.REPUL>
0

>  <SCORE.INTRA.REPUL.0>
0

>  <SCORE.INTRA.SOLV>
0

>  <SCORE.INTRA.SOLV.lig_0>
-4.25352

>  <SCORE.INTRA.VDW>
0

>  <SCORE.INTRA.VDW.0>
0

>  <SCORE.INTRA.norm>
0

>  <SCORE.RESTR>
0

>  <SCORE.RESTR.CAVITY>
0

>  <SCORE.RESTR.norm>
0

>  <SCORE.SYSTEM>
0

>  <SCORE.SYSTEM.CONST>
0

>  <SCORE.SYSTEM.DIHEDRAL>
0

>  <SCORE.SYSTEM.SOLV>
0

>  <SCORE.SYSTEM.norm>
0

>  <SCORE.heavy>
10

>  <SCORE.norm>
-1.97071

>  <RMSD>
0.361

$$$$
ligand
 OpenBabel11021811423D
libRbt.so/2013.1/901 2013/11/27
 10 11  0  0  0  0  0  0  0  0999 V2000
   53.4788  -13.3570    8.9779 N   0  0  0  0  0  0  0  0  0  0  0  0
   53.6943  -14.6835    9.2212 C   0  0  0  0  0  0  0  0  0  0  0  0
   54.0074  -15.5533    8.2256 N   0  0  0  0  0  0  0  0  0  0  0  0
   54.0852  -14.9563    7.0013 C   0  0  0  0  0  0  0  0  0  0  0  0
   53.8807  -13.6294    6.7041 C   0  0  0  0  0  0  0  0  0  0  0  0
   53.5511  -12.7297    7.7218 C   0  0  0  0  0  0  0  0  0  0  0  0
   53.3320  -11.5382    7.6566 O   0  0  0  0  0  0  0  0  0  0  0  0
   54.0577  -13.4511    5.3586 N   0  0  0  0  0  0  0  0  0  0  0  0
   54.3622  -14.6403    4.8495 C   0  0  0  0  0  0  0  0  0  0  0  0
   54.3893  -15.6107    5.8336 N   0  0  0  0  0  0  0  0  0  0  0  0
  1  2  1  0  0  0  0
  1  6  1  0  0  0  0
  2  3  2  0  0  0  0
  3  4  1  0  0  0  0
  4  5  2  0  0  0  0
  4 10  1  0  0  0  0
  5  6  1  0  0  0  0
  5  8  1  0  0  0  0
  6  7  2  0  0  0  0
  8  9  1  0  0  0  0
  9 10  2  0  0  0  0
M  END
>  <CHROM.1>
53.87321163,-13.96903568,7.16679509,-2.85118436,1.33028895,-0.88687155

>  <Name>
ligand

>  <RI>
0

>  <Rbt.Current_Directory>
/home/itssahil/PROJECTS/Mol_Feturizer/New_Systems/rnas/2EEV

>  <Rbt.Executable>
rbdock ($Id: //depot/dev/client3/rdock/2013.1/src/exe/rbdock.cxx#4 $)

>  <Rbt.Library>
libRbt.so (2013.1, Build901 2013/11/27)

>  <Rbt.Parameter_File>
/export/apps/rDock/src/rDock_2013.1_src/data/scripts/dock_solv.prm

>  <Rbt.Receptor>
prm/pocket_docking_6.prm

>  <SCORE>
-19.7121

>  <SCORE.INTER>
-19.7121

>  <SCORE.INTER.CONST>
1

>  <SCORE.INTER.POLAR>
0

>  <SCORE.INTER.ROT>
0

>  <SCORE.INTER.SOLV>
4.24326

>  <SCORE.INTER.VDW>
-18.1558

>  <SCORE.INTER.norm>
-1.97121

>  <SCORE.INTRA>
0

>  <SCORE.INTRA.DIHEDRAL>
0

>  <SCORE.INTRA.DIHEDRAL.0>
0

>  <SCORE.INTRA.POLAR>
0

>  <SCORE.INTRA.POLAR.0>
0

>  <SCORE.INTRA.REPUL>
0

>  <SCORE.INTRA.REPUL.0>
0

>  <SCORE.INTRA.SOLV>
0

>  <SCORE.INTRA.SOLV.lig_0>
-4.25352

>  <SCORE.INTRA.VDW>
0

>  <SCORE.INTRA.VDW.0>
0

>  <SCORE.INTRA.norm>
0

>  <SCORE.RESTR>
0

>  <SCORE.RESTR.CAVITY>
0

>  <SCORE.RESTR.norm>
0

>  <SCORE.SYSTEM>
0

>  <SCORE.SYSTEM.CONST>
0

>  <SCORE.SYSTEM.DIHEDRAL>
0

>  <SCORE.SYSTEM.SOLV>
0

>  <SCORE.SYSTEM.norm>
0

>  <SCORE.heavy>
10

>  <SCORE.norm>
-1.97121

>  <RMSD>
0.361

$$$$
ligand
 OpenBabel11021811423D
libRbt.so/2013.1/901 2013/11/27
 10 11  0  0  0  0  0  0  0  0999 V2000
   53.5362  -13.3980    8.9756 N   0  0  0  0  0  0  0  0  0  0  0  0
   53.7428  -14.7282    9.2057 C   0  0  0  0  0  0  0  0  0  0  0  0
   54.0435  -15.5914    8.2006 N   0  0  0  0  0  0  0  0  0  0  0  0
   54.1189  -14.9840    6.9813 C   0  0  0  0  0  0  0  0  0  0  0  0
   53.9228  -13.6530    6.6972 C   0  0  0  0  0  0  0  0  0  0  0  0
   53.6060  -12.7600    7.7248 C   0  0  0  0  0  0  0  0  0  0  0  0
   53.3958  -11.5662    7.6717 O   0  0  0  0  0  0  0  0  0  0  0  0
   54.0934  -13.4638    5.3524 N   0  0  0  0  0  0  0  0  0  0  0  0
   54.3859  -14.6506    4.8309 C   0  0  0  0  0  0  0  0  0  0  0  0
   54.4113  -15.6301    5.8060 N   0  0  0  0  0  0  0  0  0  0  0  0
  1  2  1  0  0  0  0
  1  6  1  0  0  0  0
  2  3  2  0  0  0  0
  3  4  1  0  0  0  0
  4  5  2  0  0  0  0
  4 10  1  0  0  0  0
  5  6  1  0  0  0  0
  5  8  1  0  0  0  0
  6  7  2  0  0  0  0
  8  9  1  0  0  0  0
  9 10  2  0  0  0  0
M  END
>  <CHROM.1>
53.91543159,-13.99664355,7.15685954,-2.85292111,1.33987549,-0.87616656

>  <Name>
ligand

>  <RI>
0

>  <Rbt.Current_Directory>
/home/itssahil/PROJECTS/Mol_Feturizer/New_Systems/rnas/2EEV

>  <Rbt.Executable>
rbdock ($Id: //depot/dev/client3/rdock/2013.1/src/exe/rbdock.cxx#4 $)

>  <Rbt.Library>
libRbt.so (2013.1, Build901 2013/11/27)

>  <Rbt.Parameter_File>
/export/apps/rDock/src/rDock_2013.1_src/data/scripts/dock_solv.prm

>  <Rbt.Receptor>
prm/blind_docking_100.prm

>  <SCORE>
-19.725

>  <SCORE.INTER>
-19.725

>  <SCORE.INTER.CONST>
1

>  <SCORE.INTER.POLAR>
0

>  <SCORE.INTER.ROT>
0

>  <SCORE.INTER.SOLV>
4.24913

>  <SCORE.INTER.VDW>
-18.1664

>  <SCORE.INTER.norm>
-1.9725

>  <SCORE.INTRA>
0

>  <SCORE.INTRA.DIHEDRAL>
0

>  <SCORE.INTRA.DIHEDRAL.0>
0

>  <SCORE.INTRA.POLAR>
0

>  <SCORE.INTRA.POLAR.0>
0

>  <SCORE.INTRA.REPUL>
0

>  <SCORE.INTRA.REPUL.0>
0

>  <SCORE.INTRA.SOLV>
0

>  <SCORE.INTRA.SOLV.lig_0>
-4.25352

>  <SCORE.INTRA.VDW>
0

>  <SCORE.INTRA.VDW.0>
0

>  <SCORE.INTRA.norm>
0

>  <SCORE.RESTR>
0

>  <SCORE.RESTR.CAVITY>
0

>  <SCORE.RESTR.norm>
0

>  <SCORE.SYSTEM>
0

>  <SCORE.SYSTEM.CONST>
0

>  <SCORE.SYSTEM.DIHEDRAL>
0

>  <SCORE.SYSTEM.SOLV>
0

>  <SCORE.SYSTEM.norm>
0

>  <SCORE.heavy>
10

>  <SCORE.norm>
-1.9725

>  <RMSD>
0.362

$$$$
ligand
 OpenBabel11021811423D
libRbt.so/2013.1/901 2013/11/27
 10 11  0  0  0  0  0  0  0  0999 V2000
   53.5622  -13.4023    8.9742 N   0  0  0  0  0  0  0  0  0  0  0  0
   53.7808  -14.7302    9.2066 C   0  0  0  0  0  0  0  0  0  0  0  0
   54.0725  -15.5955    8.2006 N   0  0  0  0  0  0  0  0  0  0  0  0
   54.1264  -14.9926    6.9779 C   0  0  0  0  0  0  0  0  0  0  0  0
   53.9176  -13.6640    6.6915 C   0  0  0  0  0  0  0  0  0  0  0  0
   53.6099  -12.7689    7.7200 C   0  0  0  0  0  0  0  0  0  0  0  0
   53.3912  -11.5768    7.6652 O   0  0  0  0  0  0  0  0  0  0  0  0
   54.0676  -13.4793    5.3435 N   0  0  0  0  0  0  0  0  0  0  0  0
   54.3601  -14.6663    4.8226 C   0  0  0  0  0  0  0  0  0  0  0  0
   54.4059  -15.6416    5.8011 N   0  0  0  0  0  0  0  0  0  0  0  0
  1  2  1  0  0  0  0
  1  6  1  0  0  0  0
  2  3  2  0  0  0  0
  3  4  1  0  0  0  0
  4  5  2  0  0  0  0
  4 10  1  0  0  0  0
  5  6  1  0  0  0  0
  5  8  1  0  0  0  0
  6  7  2  0  0  0  0
  8  9  1  0  0  0  0
  9 10  2  0  0  0  0
M  END
>  <CHROM.1>
53.91907892,-14.00589377,7.15251230,-2.78525232,1.34364978,-0.94608023

>  <Name>
ligand

>  <RI>
0

>  <Rbt.Current_Directory>
/home/itssahil/PROJECTS/Mol_Feturizer/New_Systems/rnas/2EEV

>  <Rbt.Executable>
rbdock ($Id: //depot/dev/client3/rdock/2013.1/src/exe/rbdock.cxx#4 $)

>  <Rbt.Library>
libRbt.so (2013.1, Build901 2013/11/27)

>  <Rbt.Parameter_File>
/export/apps/rDock/src/rDock_2013.1_src/data/scripts/dock_solv.prm

>  <Rbt.Receptor>
prm/blind_docking_60.prm

>  <SCORE>
-19.73

>  <SCORE.INTER>
-19.73

>  <SCORE.INTER.CONST>
1

>  <SCORE.INTER.POLAR>
0

>  <SCORE.INTER.ROT>
0

>  <SCORE.INTER.SOLV>
4.23997

>  <SCORE.INTER.VDW>
-18.1667

>  <SCORE.INTER.norm>
-1.973

>  <SCORE.INTRA>
0

>  <SCORE.INTRA.DIHEDRAL>
0

>  <SCORE.INTRA.DIHEDRAL.0>
0

>  <SCORE.INTRA.POLAR>
0

>  <SCORE.INTRA.POLAR.0>
0

>  <SCORE.INTRA.REPUL>
0

>  <SCORE.INTRA.REPUL.0>
0

>  <SCORE.INTRA.SOLV>
0

>  <SCORE.INTRA.SOLV.lig_0>
-4.25352

>  <SCORE.INTRA.VDW>
0

>  <SCORE.INTRA.VDW.0>
0

>  <SCORE.INTRA.norm>
0

>  <SCORE.RESTR>
0

>  <SCORE.RESTR.CAVITY>
0

>  <SCORE.RESTR.norm>
0

>  <SCORE.SYSTEM>
0

>  <SCORE.SYSTEM.CONST>
0

>  <SCORE.SYSTEM.DIHEDRAL>
0

>  <SCORE.SYSTEM.SOLV>
0

>  <SCORE.SYSTEM.norm>
0

>  <SCORE.heavy>
10

>  <SCORE.norm>
-1.973

>  <RMSD>
0.362

$$$$
ligand
 OpenBabel11021811423D
libRbt.so/2013.1/901 2013/11/27
 10 11  0  0  0  0  0  0  0  0999 V2000
   53.3877  -13.1766    9.0276 N   0  0  0  0  0  0  0  0  0  0  0  0
   53.6125  -14.4847    9.3494 C   0  0  0  0  0  0  0  0  0  0  0  0
   53.9557  -15.4050    8.4108 N   0  0  0  0  0  0  0  0  0  0  0  0
   54.0526  -14.8766    7.1567 C   0  0  0  0  0  0  0  0  0  0  0  0
   53.8399  -13.5709    6.7814 C   0  0  0  0  0  0  0  0  0  0  0  0
   53.4794  -12.6197    7.7400 C   0  0  0  0  0  0  0  0  0  0  0  0
   53.2489  -11.4364    7.6036 O   0  0  0  0  0  0  0  0  0  0  0  0
   54.0430  -13.4660    5.4318 N   0  0  0  0  0  0  0  0  0  0  0  0
   54.3710  -14.6781    4.9966 C   0  0  0  0  0  0  0  0  0  0  0  0
   54.3881  -15.5915    6.0340 N   0  0  0  0  0  0  0  0  0  0  0  0
  1  2  1  0  0  0  0
  1  6  1  0  0  0  0
  2  3  2  0  0  0  0
  3  4  1  0  0  0  0
  4  5  2  0  0  0  0
  4 10  1  0  0  0  0
  5  6  1  0  0  0  0
  5  8  1  0  0  0  0
  6  7  2  0  0  0  0
  8  9  1  0  0  0  0
  9 10  2  0  0  0  0
M  END
>  <CHROM.1>
53.82647121,-13.88419274,7.26215105,-2.88719045,1.30852224,-0.90807702

>  <Name>
ligand

>  <RI>
0

>  <Rbt.Current_Directory>
/home/itssahil/PROJECTS/Mol_Feturizer/New_Systems/rnas/2EEV

>  <Rbt.Executable>
rbdock ($Id: //depot/dev/client3/rdock/2013.1/src/exe/rbdock.cxx#4 $)

>  <Rbt.Library>
libRbt.so (2013.1, Build901 2013/11/27)

>  <Rbt.Parameter_File>
/export/apps/rDock/src/rDock_2013.1_src/data/scripts/dock_solv.prm

>  <Rbt.Receptor>
prm/pocket_docking_3.prm

>  <SCORE>
-19.6571

>  <SCORE.INTER>
-19.6571

>  <SCORE.INTER.CONST>
1

>  <SCORE.INTER.POLAR>
0

>  <SCORE.INTER.ROT>
0

>  <SCORE.INTER.SOLV>
4.21485

>  <SCORE.INTER.VDW>
-18.1097

>  <SCORE.INTER.norm>
-1.96571

>  <SCORE.INTRA>
0

>  <SCORE.INTRA.DIHEDRAL>
0

>  <SCORE.INTRA.DIHEDRAL.0>
0

>  <SCORE.INTRA.POLAR>
0

>  <SCORE.INTRA.POLAR.0>
0

>  <SCORE.INTRA.REPUL>
0

>  <SCORE.INTRA.REPUL.0>
0

>  <SCORE.INTRA.SOLV>
0

>  <SCORE.INTRA.SOLV.lig_0>
-4.25352

>  <SCORE.INTRA.VDW>
0

>  <SCORE.INTRA.VDW.0>
0

>  <SCORE.INTRA.norm>
0

>  <SCORE.RESTR>
0

>  <SCORE.RESTR.CAVITY>
0

>  <SCORE.RESTR.norm>
0

>  <SCORE.SYSTEM>
0

>  <SCORE.SYSTEM.CONST>
0

>  <SCORE.SYSTEM.DIHEDRAL>
0

>  <SCORE.SYSTEM.SOLV>
0

>  <SCORE.SYSTEM.norm>
0

>  <SCORE.heavy>
10

>  <SCORE.norm>
-1.96571

>  <RMSD>
0.362

$$$$
ligand
 OpenBabel11021811423D
libRbt.so/2013.1/901 2013/11/27
 10 11  0  0  0  0  0  0  0  0999 V2000
   53.5014  -13.3750    8.9756 N   0  0  0  0  0  0  0  0  0  0  0  0
   53.7062  -14.7034    9.2175 C   0  0  0  0  0  0  0  0  0  0  0  0
   54.0128  -15.5746    8.2210 N   0  0  0  0  0  0  0  0  0  0  0  0
   54.0958  -14.9769    6.9974 C   0  0  0  0  0  0  0  0  0  0  0  0
   53.9020  -13.6481    6.7017 C   0  0  0  0  0  0  0  0  0  0  0  0
   53.5792  -12.7469    7.7202 C   0  0  0  0  0  0  0  0  0  0  0  0
   53.3697  -11.5536    7.6563 O   0  0  0  0  0  0  0  0  0  0  0  0
   54.0809  -13.4697    5.3564 N   0  0  0  0  0  0  0  0  0  0  0  0
   54.3762  -14.6606    4.8461 C   0  0  0  0  0  0  0  0  0  0  0  0
   54.3952  -15.6323    5.8291 N   0  0  0  0  0  0  0  0  0  0  0  0
  1  2  1  0  0  0  0
  1  6  1  0  0  0  0
  2  3  2  0  0  0  0
  3  4  1  0  0  0  0
  4  5  2  0  0  0  0
  4 10  1  0  0  0  0
  5  6  1  0  0  0  0
  5  8  1  0  0  0  0
  6  7  2  0  0  0  0
  8  9  1  0  0  0  0
  9 10  2  0  0  0  0
M  END
>  <CHROM.1>
53.89164711,-13.98814645,7.16395267,-2.87414231,1.33616256,-0.86342501

>  <Name>
ligand

>  <RI>
0

>  <Rbt.Current_Directory>
/home/itssahil/PROJECTS/Mol_Feturizer/New_Systems/rnas/2EEV

>  <Rbt.Executable>
rbdock ($Id: //depot/dev/client3/rdock/2013.1/src/exe/rbdock.cxx#4 $)

>  <Rbt.Library>
libRbt.so (2013.1, Build901 2013/11/27)

>  <Rbt.Parameter_File>
/export/apps/rDock/src/rDock_2013.1_src/data/scripts/dock_solv.prm

>  <Rbt.Receptor>
prm/pocket_docking_8.prm

>  <SCORE>
-19.7388

>  <SCORE.INTER>
-19.7388

>  <SCORE.INTER.CONST>
1

>  <SCORE.INTER.POLAR>
0

>  <SCORE.INTER.ROT>
0

>  <SCORE.INTER.SOLV>
4.25484

>  <SCORE.INTER.VDW>
-18.1775

>  <SCORE.INTER.norm>
-1.97388

>  <SCORE.INTRA>
0

>  <SCORE.INTRA.DIHEDRAL>
0

>  <SCORE.INTRA.DIHEDRAL.0>
0

>  <SCORE.INTRA.POLAR>
0

>  <SCORE.INTRA.POLAR.0>
0

>  <SCORE.INTRA.REPUL>
0

>  <SCORE.INTRA.REPUL.0>
0

>  <SCORE.INTRA.SOLV>
0

>  <SCORE.INTRA.SOLV.lig_0>
-4.25352

>  <SCORE.INTRA.VDW>
0

>  <SCORE.INTRA.VDW.0>
0

>  <SCORE.INTRA.norm>
0

>  <SCORE.RESTR>
0

>  <SCORE.RESTR.CAVITY>
0

>  <SCORE.RESTR.norm>
0

>  <SCORE.SYSTEM>
0

>  <SCORE.SYSTEM.CONST>
0

>  <SCORE.SYSTEM.DIHEDRAL>
0

>  <SCORE.SYSTEM.SOLV>
0

>  <SCORE.SYSTEM.norm>
0

>  <SCORE.heavy>
10

>  <SCORE.norm>
-1.97388

>  <RMSD>
0.362

$$$$
ligand
 OpenBabel11021811423D
libRbt.so/2013.1/901 2013/11/27
 10 11  0  0  0  0  0  0  0  0999 V2000
   53.4247  -13.1598    9.0174 N   0  0  0  0  0  0  0  0  0  0  0  0
   53.6698  -14.4643    9.3387 C   0  0  0  0  0  0  0  0  0  0  0  0
   54.0152  -15.3816    8.3980 N   0  0  0  0  0  0  0  0  0  0  0  0
   54.0922  -14.8540    7.1422 C   0  0  0  0  0  0  0  0  0  0  0  0
   53.8587  -13.5519    6.7671 C   0  0  0  0  0  0  0  0  0  0  0  0
   53.4957  -12.6039    7.7281 C   0  0  0  0  0  0  0  0  0  0  0  0
   53.2484  -11.4238    7.5923 O   0  0  0  0  0  0  0  0  0  0  0  0
   54.0464  -13.4465    5.4154 N   0  0  0  0  0  0  0  0  0  0  0  0
   54.3856  -14.6548    4.9786 C   0  0  0  0  0  0  0  0  0  0  0  0
   54.4253  -15.5663    6.0171 N   0  0  0  0  0  0  0  0  0  0  0  0
  1  2  1  0  0  0  0
  1  6  1  0  0  0  0
  2  3  2  0  0  0  0
  3  4  1  0  0  0  0
  4  5  2  0  0  0  0
  4 10  1  0  0  0  0
  5  6  1  0  0  0  0
  5  8  1  0  0  0  0
  6  7  2  0  0  0  0
  8  9  1  0  0  0  0
  9 10  2  0  0  0  0
M  END
>  <CHROM.1>
53.85428598,-13.86447380,7.24848714,-2.82573138,1.30415619,-0.96894526

>  <Name>
ligand

>  <RI>
0

>  <Rbt.Current_Directory>
/home/itssahil/PROJECTS/Mol_Feturizer/New_Systems/rnas/2EEV

>  <Rbt.Executable>
rbdock ($Id: //depot/dev/client3/rdock/2013.1/src/exe/rbdock.cxx#4 $)

>  <Rbt.Library>
libRbt.so (2013.1, Build901 2013/11/27)

>  <Rbt.Parameter_File>
/export/apps/rDock/src/rDock_2013.1_src/data/scripts/dock_solv.prm

>  <Rbt.Receptor>
prm/pocket_docking_8.prm

>  <SCORE>
-19.6744

>  <SCORE.INTER>
-19.6744

>  <SCORE.INTER.CONST>
1

>  <SCORE.INTER.POLAR>
0

>  <SCORE.INTER.ROT>
0

>  <SCORE.INTER.SOLV>
4.15631

>  <SCORE.INTER.VDW>
-18.1017

>  <SCORE.INTER.norm>
-1.96744

>  <SCORE.INTRA>
0

>  <SCORE.INTRA.DIHEDRAL>
0

>  <SCORE.INTRA.DIHEDRAL.0>
0

>  <SCORE.INTRA.POLAR>
0

>  <SCORE.INTRA.POLAR.0>
0

>  <SCORE.INTRA.REPUL>
0

>  <SCORE.INTRA.REPUL.0>
0

>  <SCORE.INTRA.SOLV>
0

>  <SCORE.INTRA.SOLV.lig_0>
-4.25352

>  <SCORE.INTRA.VDW>
0

>  <SCORE.INTRA.VDW.0>
0

>  <SCORE.INTRA.norm>
0

>  <SCORE.RESTR>
0

>  <SCORE.RESTR.CAVITY>
0

>  <SCORE.RESTR.norm>
0

>  <SCORE.SYSTEM>
0

>  <SCORE.SYSTEM.CONST>
0

>  <SCORE.SYSTEM.DIHEDRAL>
0

>  <SCORE.SYSTEM.SOLV>
0

>  <SCORE.SYSTEM.norm>
0

>  <SCORE.heavy>
10

>  <SCORE.norm>
-1.96744

>  <RMSD>
0.362

$$$$
ligand
 OpenBabel11021811423D
libRbt.so/2013.1/901 2013/11/27
 10 11  0  0  0  0  0  0  0  0999 V2000
   53.5053  -13.4031    8.9855 N   0  0  0  0  0  0  0  0  0  0  0  0
   53.7042  -14.7342    9.2176 C   0  0  0  0  0  0  0  0  0  0  0  0
   53.9942  -15.6015    8.2129 N   0  0  0  0  0  0  0  0  0  0  0  0
   54.0678  -14.9974    6.9919 C   0  0  0  0  0  0  0  0  0  0  0  0
   53.8794  -13.6656    6.7059 C   0  0  0  0  0  0  0  0  0  0  0  0
   53.5735  -12.7683    7.7330 C   0  0  0  0  0  0  0  0  0  0  0  0
   53.3710  -11.5733    7.6782 O   0  0  0  0  0  0  0  0  0  0  0  0
   54.0448  -13.4806    5.3598 N   0  0  0  0  0  0  0  0  0  0  0  0
   54.3268  -14.6705    4.8395 C   0  0  0  0  0  0  0  0  0  0  0  0
   54.3502  -15.6479    5.8167 N   0  0  0  0  0  0  0  0  0  0  0  0
  1  2  1  0  0  0  0
  1  6  1  0  0  0  0
  2  3  2  0  0  0  0
  3  4  1  0  0  0  0
  4  5  2  0  0  0  0
  4 10  1  0  0  0  0
  5  6  1  0  0  0  0
  5  8  1  0  0  0  0
  6  7  2  0  0  0  0
  8  9  1  0  0  0  0
  9 10  2  0  0  0  0
M  END
>  <CHROM.1>
53.87185352,-14.00827504,7.16627428,-2.85571484,1.34809183,-0.87563522

>  <Name>
ligand

>  <RI>
0

>  <Rbt.Current_Directory>
/home/itssahil/PROJECTS/Mol_Feturizer/New_Systems/rnas/2EEV

>  <Rbt.Executable>
rbdock ($Id: //depot/dev/client3/rdock/2013.1/src/exe/rbdock.cxx#4 $)

>  <Rbt.Library>
libRbt.so (2013.1, Build901 2013/11/27)

>  <Rbt.Parameter_File>
/export/apps/rDock/src/rDock_2013.1_src/data/scripts/dock_solv.prm

>  <Rbt.Receptor>
prm/blind_docking_100.prm

>  <SCORE>
-19.6259

>  <SCORE.INTER>
-19.6259

>  <SCORE.INTER.CONST>
1

>  <SCORE.INTER.POLAR>
0

>  <SCORE.INTER.ROT>
0

>  <SCORE.INTER.SOLV>
4.29137

>  <SCORE.INTER.VDW>
-18.1144

>  <SCORE.INTER.norm>
-1.96259

>  <SCORE.INTRA>
0

>  <SCORE.INTRA.DIHEDRAL>
0

>  <SCORE.INTRA.DIHEDRAL.0>
0

>  <SCORE.INTRA.POLAR>
0

>  <SCORE.INTRA.POLAR.0>
0

>  <SCORE.INTRA.REPUL>
0

>  <SCORE.INTRA.REPUL.0>
0

>  <SCORE.INTRA.SOLV>
0

>  <SCORE.INTRA.SOLV.lig_0>
-4.25352

>  <SCORE.INTRA.VDW>
0

>  <SCORE.INTRA.VDW.0>
0

>  <SCORE.INTRA.norm>
0

>  <SCORE.RESTR>
0

>  <SCORE.RESTR.CAVITY>
0

>  <SCORE.RESTR.norm>
0

>  <SCORE.SYSTEM>
0

>  <SCORE.SYSTEM.CONST>
0

>  <SCORE.SYSTEM.DIHEDRAL>
0

>  <SCORE.SYSTEM.SOLV>
0

>  <SCORE.SYSTEM.norm>
0

>  <SCORE.heavy>
10

>  <SCORE.norm>
-1.96259

>  <RMSD>
0.364

$$$$
ligand
 OpenBabel11021811423D
libRbt.so/2013.1/901 2013/11/27
 10 11  0  0  0  0  0  0  0  0999 V2000
   53.5668  -13.6996    9.1332 N   0  0  0  0  0  0  0  0  0  0  0  0
   53.7154  -15.0556    9.1999 C   0  0  0  0  0  0  0  0  0  0  0  0
   53.9742  -15.8036    8.0957 N   0  0  0  0  0  0  0  0  0  0  0  0
   54.0720  -15.0576    6.9576 C   0  0  0  0  0  0  0  0  0  0  0  0
   53.9338  -13.6948    6.8373 C   0  0  0  0  0  0  0  0  0  0  0  0
   53.6603  -12.9192    7.9676 C   0  0  0  0  0  0  0  0  0  0  0  0
   53.5028  -11.7198    8.0602 O   0  0  0  0  0  0  0  0  0  0  0  0
   54.1079  -13.3525    5.5235 N   0  0  0  0  0  0  0  0  0  0  0  0
   54.3459  -14.4794    4.8606 C   0  0  0  0  0  0  0  0  0  0  0  0
   54.3314  -15.5694    5.7106 N   0  0  0  0  0  0  0  0  0  0  0  0
  1  2  1  0  0  0  0
  1  6  1  0  0  0  0
  2  3  2  0  0  0  0
  3  4  1  0  0  0  0
  4  5  2  0  0  0  0
  4 10  1  0  0  0  0
  5  6  1  0  0  0  0
  5  8  1  0  0  0  0
  6  7  2  0  0  0  0
  8  9  1  0  0  0  0
  9 10  2  0  0  0  0
M  END
>  <CHROM.1>
53.91287602,-14.09067332,7.25235701,-2.98421676,1.37438758,-0.62711988

>  <Name>
ligand

>  <RI>
0

>  <Rbt.Current_Directory>
/home/itssahil/PROJECTS/Mol_Feturizer/New_Systems/rnas/2EEV

>  <Rbt.Executable>
rbdock ($Id: //depot/dev/client3/rdock/2013.1/src/exe/rbdock.cxx#4 $)

>  <Rbt.Library>
libRbt.so (2013.1, Build901 2013/11/27)

>  <Rbt.Parameter_File>
/export/apps/rDock/src/rDock_2013.1_src/data/scripts/dock_solv.prm

>  <Rbt.Receptor>
prm/pocket_docking_5.prm

>  <SCORE>
-19.4566

>  <SCORE.INTER>
-19.4566

>  <SCORE.INTER.CONST>
1

>  <SCORE.INTER.POLAR>
0

>  <SCORE.INTER.ROT>
0

>  <SCORE.INTER.SOLV>
4.43805

>  <SCORE.INTER.VDW>
-18.0504

>  <SCORE.INTER.norm>
-1.94566

>  <SCORE.INTRA>
0

>  <SCORE.INTRA.DIHEDRAL>
0

>  <SCORE.INTRA.DIHEDRAL.0>
0

>  <SCORE.INTRA.POLAR>
0

>  <SCORE.INTRA.POLAR.0>
0

>  <SCORE.INTRA.REPUL>
0

>  <SCORE.INTRA.REPUL.0>
0

>  <SCORE.INTRA.SOLV>
0

>  <SCORE.INTRA.SOLV.lig_0>
-4.25352

>  <SCORE.INTRA.VDW>
0

>  <SCORE.INTRA.VDW.0>
0

>  <SCORE.INTRA.norm>
0

>  <SCORE.RESTR>
0

>  <SCORE.RESTR.CAVITY>
0

>  <SCORE.RESTR.norm>
0

>  <SCORE.SYSTEM>
0

>  <SCORE.SYSTEM.CONST>
0

>  <SCORE.SYSTEM.DIHEDRAL>
0

>  <SCORE.SYSTEM.SOLV>
0

>  <SCORE.SYSTEM.norm>
0

>  <SCORE.heavy>
10

>  <SCORE.norm>
-1.94566

>  <RMSD>
0.364

$$$$
ligand
 OpenBabel11021811423D
libRbt.so/2013.1/901 2013/11/27
 10 11  0  0  0  0  0  0  0  0999 V2000
   53.5497  -13.6430    9.0618 N   0  0  0  0  0  0  0  0  0  0  0  0
   53.7405  -14.9916    9.1619 C   0  0  0  0  0  0  0  0  0  0  0  0
   54.0175  -15.7590    8.0756 N   0  0  0  0  0  0  0  0  0  0  0  0
   54.0872  -15.0395    6.9186 C   0  0  0  0  0  0  0  0  0  0  0  0
   53.9064  -13.6851    6.7647 C   0  0  0  0  0  0  0  0  0  0  0  0
   53.6139  -12.8899    7.8764 C   0  0  0  0  0  0  0  0  0  0  0  0
   53.4197  -11.6939    7.9395 O   0  0  0  0  0  0  0  0  0  0  0  0
   54.0640  -13.3711    5.4418 N   0  0  0  0  0  0  0  0  0  0  0  0
   54.3338  -14.5066    4.8063 C   0  0  0  0  0  0  0  0  0  0  0  0
   54.3569  -15.5745    5.6836 N   0  0  0  0  0  0  0  0  0  0  0  0
  1  2  1  0  0  0  0
  1  6  1  0  0  0  0
  2  3  2  0  0  0  0
  3  4  1  0  0  0  0
  4  5  2  0  0  0  0
  4 10  1  0  0  0  0
  5  6  1  0  0  0  0
  5  8  1  0  0  0  0
  6  7  2  0  0  0  0
  8  9  1  0  0  0  0
  9 10  2  0  0  0  0
M  END
>  <CHROM.1>
53.89950555,-14.07079175,7.18970451,-2.85287991,1.35798212,-0.78104869

>  <Name>
ligand

>  <RI>
0

>  <Rbt.Current_Directory>
/home/itssahil/PROJECTS/Mol_Feturizer/New_Systems/rnas/2EEV

>  <Rbt.Executable>
rbdock ($Id: //depot/dev/client3/rdock/2013.1/src/exe/rbdock.cxx#4 $)

>  <Rbt.Library>
libRbt.so (2013.1, Build901 2013/11/27)

>  <Rbt.Parameter_File>
/export/apps/rDock/src/rDock_2013.1_src/data/scripts/dock_solv.prm

>  <Rbt.Receptor>
prm/pocket_docking_5.prm

>  <SCORE>
-19.5464

>  <SCORE.INTER>
-19.5464

>  <SCORE.INTER.CONST>
1

>  <SCORE.INTER.POLAR>
0

>  <SCORE.INTER.ROT>
0

>  <SCORE.INTER.SOLV>
4.33832

>  <SCORE.INTER.VDW>
-18.077

>  <SCORE.INTER.norm>
-1.95464

>  <SCORE.INTRA>
0

>  <SCORE.INTRA.DIHEDRAL>
0

>  <SCORE.INTRA.DIHEDRAL.0>
0

>  <SCORE.INTRA.POLAR>
0

>  <SCORE.INTRA.POLAR.0>
0

>  <SCORE.INTRA.REPUL>
0

>  <SCORE.INTRA.REPUL.0>
0

>  <SCORE.INTRA.SOLV>
0

>  <SCORE.INTRA.SOLV.lig_0>
-4.25352

>  <SCORE.INTRA.VDW>
0

>  <SCORE.INTRA.VDW.0>
0

>  <SCORE.INTRA.norm>
0

>  <SCORE.RESTR>
0

>  <SCORE.RESTR.CAVITY>
0

>  <SCORE.RESTR.norm>
0

>  <SCORE.SYSTEM>
0

>  <SCORE.SYSTEM.CONST>
0

>  <SCORE.SYSTEM.DIHEDRAL>
0

>  <SCORE.SYSTEM.SOLV>
0

>  <SCORE.SYSTEM.norm>
0

>  <SCORE.heavy>
10

>  <SCORE.norm>
-1.95464

>  <RMSD>
0.367

$$$$
ligand
 OpenBabel11021811423D
libRbt.so/2013.1/901 2013/11/27
 10 11  0  0  0  0  0  0  0  0999 V2000
   53.4396  -13.1602    9.0184 N   0  0  0  0  0  0  0  0  0  0  0  0
   53.6744  -14.4683    9.3330 C   0  0  0  0  0  0  0  0  0  0  0  0
   54.0073  -15.3846    8.3868 N   0  0  0  0  0  0  0  0  0  0  0  0
   54.0832  -14.8523    7.1329 C   0  0  0  0  0  0  0  0  0  0  0  0
   53.8597  -13.5465    6.7645 C   0  0  0  0  0  0  0  0  0  0  0  0
   53.5097  -12.5994    7.7311 C   0  0  0  0  0  0  0  0  0  0  0  0
   53.2724  -11.4167    7.6016 O   0  0  0  0  0  0  0  0  0  0  0  0
   54.0421  -13.4370    5.4124 N   0  0  0  0  0  0  0  0  0  0  0  0
   54.3685  -14.6465    4.9689 C   0  0  0  0  0  0  0  0  0  0  0  0
   54.4048  -15.5627    6.0033 N   0  0  0  0  0  0  0  0  0  0  0  0
  1  2  1  0  0  0  0
  1  6  1  0  0  0  0
  2  3  2  0  0  0  0
  3  4  1  0  0  0  0
  4  5  2  0  0  0  0
  4 10  1  0  0  0  0
  5  6  1  0  0  0  0
  5  8  1  0  0  0  0
  6  7  2  0  0  0  0
  8  9  1  0  0  0  0
  9 10  2  0  0  0  0
M  END
>  <CHROM.1>
53.85472137,-13.86113802,7.24452908,-2.83088060,1.31415464,-0.95968945

>  <Name>
ligand

>  <RI>
0

>  <Rbt.Current_Directory>
/home/itssahil/PROJECTS/Mol_Feturizer/New_Systems/rnas/2EEV

>  <Rbt.Executable>
rbdock ($Id: //depot/dev/client3/rdock/2013.1/src/exe/rbdock.cxx#4 $)

>  <Rbt.Library>
libRbt.so (2013.1, Build901 2013/11/27)

>  <Rbt.Parameter_File>
/export/apps/rDock/src/rDock_2013.1_src/data/scripts/dock_solv.prm

>  <Rbt.Receptor>
prm/pocket_docking_8.prm

>  <SCORE>
-19.6729

>  <SCORE.INTER>
-19.6729

>  <SCORE.INTER.CONST>
1

>  <SCORE.INTER.POLAR>
0

>  <SCORE.INTER.ROT>
0

>  <SCORE.INTER.SOLV>
4.18353

>  <SCORE.INTER.VDW>
-18.1098

>  <SCORE.INTER.norm>
-1.96729

>  <SCORE.INTRA>
0

>  <SCORE.INTRA.DIHEDRAL>
0

>  <SCORE.INTRA.DIHEDRAL.0>
0

>  <SCORE.INTRA.POLAR>
0

>  <SCORE.INTRA.POLAR.0>
0

>  <SCORE.INTRA.REPUL>
0

>  <SCORE.INTRA.REPUL.0>
0

>  <SCORE.INTRA.SOLV>
0

>  <SCORE.INTRA.SOLV.lig_0>
-4.25352

>  <SCORE.INTRA.VDW>
0

>  <SCORE.INTRA.VDW.0>
0

>  <SCORE.INTRA.norm>
0

>  <SCORE.RESTR>
0

>  <SCORE.RESTR.CAVITY>
0

>  <SCORE.RESTR.norm>
0

>  <SCORE.SYSTEM>
0

>  <SCORE.SYSTEM.CONST>
0

>  <SCORE.SYSTEM.DIHEDRAL>
0

>  <SCORE.SYSTEM.SOLV>
0

>  <SCORE.SYSTEM.norm>
0

>  <SCORE.heavy>
10

>  <SCORE.norm>
-1.96729

>  <RMSD>
0.367

$$$$
ligand
 OpenBabel11021811423D
libRbt.so/2013.1/901 2013/11/27
 10 11  0  0  0  0  0  0  0  0999 V2000
   53.5115  -13.4866    8.9851 N   0  0  0  0  0  0  0  0  0  0  0  0
   53.7158  -14.8219    9.1865 C   0  0  0  0  0  0  0  0  0  0  0  0
   54.0084  -15.6649    8.1622 N   0  0  0  0  0  0  0  0  0  0  0  0
   54.0787  -15.0328    6.9552 C   0  0  0  0  0  0  0  0  0  0  0  0
   53.8847  -13.6956    6.6997 C   0  0  0  0  0  0  0  0  0  0  0  0
   53.5761  -12.8232    7.7473 C   0  0  0  0  0  0  0  0  0  0  0  0
   53.3689  -11.6280    7.7199 O   0  0  0  0  0  0  0  0  0  0  0  0
   54.0484  -13.4793    5.3581 N   0  0  0  0  0  0  0  0  0  0  0  0
   54.3346  -14.6559    4.8106 C   0  0  0  0  0  0  0  0  0  0  0  0
   54.3627  -15.6552    5.7652 N   0  0  0  0  0  0  0  0  0  0  0  0
  1  2  1  0  0  0  0
  1  6  1  0  0  0  0
  2  3  2  0  0  0  0
  3  4  1  0  0  0  0
  4  5  2  0  0  0  0
  4 10  1  0  0  0  0
  5  6  1  0  0  0  0
  5  8  1  0  0  0  0
  6  7  2  0  0  0  0
  8  9  1  0  0  0  0
  9 10  2  0  0  0  0
M  END
>  <CHROM.1>
53.87894706,-14.04870530,7.15222690,-2.84166941,1.34557859,-0.86652016

>  <Name>
ligand

>  <RI>
0

>  <Rbt.Current_Directory>
/home/itssahil/PROJECTS/Mol_Feturizer/New_Systems/rnas/2EEV

>  <Rbt.Executable>
rbdock ($Id: //depot/dev/client3/rdock/2013.1/src/exe/rbdock.cxx#4 $)

>  <Rbt.Library>
libRbt.so (2013.1, Build901 2013/11/27)

>  <Rbt.Parameter_File>
/export/apps/rDock/src/rDock_2013.1_src/data/scripts/dock_solv.prm

>  <Rbt.Receptor>
prm/pocket_docking_4.prm

>  <SCORE>
-19.6504

>  <SCORE.INTER>
-19.6504

>  <SCORE.INTER.CONST>
1

>  <SCORE.INTER.POLAR>
0

>  <SCORE.INTER.ROT>
0

>  <SCORE.INTER.SOLV>
4.28897

>  <SCORE.INTER.VDW>
-18.1299

>  <SCORE.INTER.norm>
-1.96504

>  <SCORE.INTRA>
0

>  <SCORE.INTRA.DIHEDRAL>
0

>  <SCORE.INTRA.DIHEDRAL.0>
0

>  <SCORE.INTRA.POLAR>
0

>  <SCORE.INTRA.POLAR.0>
0

>  <SCORE.INTRA.REPUL>
0

>  <SCORE.INTRA.REPUL.0>
0

>  <SCORE.INTRA.SOLV>
0

>  <SCORE.INTRA.SOLV.lig_0>
-4.25352

>  <SCORE.INTRA.VDW>
0

>  <SCORE.INTRA.VDW.0>
0

>  <SCORE.INTRA.norm>
0

>  <SCORE.RESTR>
0

>  <SCORE.RESTR.CAVITY>
0

>  <SCORE.RESTR.norm>
0

>  <SCORE.SYSTEM>
0

>  <SCORE.SYSTEM.CONST>
0

>  <SCORE.SYSTEM.DIHEDRAL>
0

>  <SCORE.SYSTEM.SOLV>
0

>  <SCORE.SYSTEM.norm>
0

>  <SCORE.heavy>
10

>  <SCORE.norm>
-1.96504

>  <RMSD>
0.368

$$$$
ligand
 OpenBabel11021811423D
libRbt.so/2013.1/901 2013/11/27
 10 11  0  0  0  0  0  0  0  0999 V2000
   53.5041  -13.3538    8.9460 N   0  0  0  0  0  0  0  0  0  0  0  0
   53.7652  -14.6684    9.2086 C   0  0  0  0  0  0  0  0  0  0  0  0
   54.0899  -15.5455    8.2232 N   0  0  0  0  0  0  0  0  0  0  0  0
   54.1297  -14.9682    6.9877 C   0  0  0  0  0  0  0  0  0  0  0  0
   53.8787  -13.6539    6.6710 C   0  0  0  0  0  0  0  0  0  0  0  0
   53.5368  -12.7470    7.6782 C   0  0  0  0  0  0  0  0  0  0  0  0
   53.2793  -11.5642    7.5961 O   0  0  0  0  0  0  0  0  0  0  0  0
   54.0288  -13.4940    5.3199 N   0  0  0  0  0  0  0  0  0  0  0  0
   54.3627  -14.6819    4.8266 C   0  0  0  0  0  0  0  0  0  0  0  0
   54.4359  -15.6334    5.8267 N   0  0  0  0  0  0  0  0  0  0  0  0
  1  2  1  0  0  0  0
  1  6  1  0  0  0  0
  2  3  2  0  0  0  0
  3  4  1  0  0  0  0
  4  5  2  0  0  0  0
  4 10  1  0  0  0  0
  5  6  1  0  0  0  0
  5  8  1  0  0  0  0
  6  7  2  0  0  0  0
  8  9  1  0  0  0  0
  9 10  2  0  0  0  0
M  END
>  <CHROM.1>
53.88920585,-13.98527097,7.13952811,-2.72452292,1.31375460,-1.02715590

>  <Name>
ligand

>  <RI>
0

>  <Rbt.Current_Directory>
/home/itssahil/PROJECTS/Mol_Feturizer/New_Systems/rnas/2EEV

>  <Rbt.Executable>
rbdock ($Id: //depot/dev/client3/rdock/2013.1/src/exe/rbdock.cxx#4 $)

>  <Rbt.Library>
libRbt.so (2013.1, Build901 2013/11/27)

>  <Rbt.Parameter_File>
/export/apps/rDock/src/rDock_2013.1_src/data/scripts/dock_solv.prm

>  <Rbt.Receptor>
prm/pocket_docking_6.prm

>  <SCORE>
-19.6811

>  <SCORE.INTER>
-19.6811

>  <SCORE.INTER.CONST>
1

>  <SCORE.INTER.POLAR>
0

>  <SCORE.INTER.ROT>
0

>  <SCORE.INTER.SOLV>
4.15115

>  <SCORE.INTER.VDW>
-18.1045

>  <SCORE.INTER.norm>
-1.96811

>  <SCORE.INTRA>
0

>  <SCORE.INTRA.DIHEDRAL>
0

>  <SCORE.INTRA.DIHEDRAL.0>
0

>  <SCORE.INTRA.POLAR>
0

>  <SCORE.INTRA.POLAR.0>
0

>  <SCORE.INTRA.REPUL>
0

>  <SCORE.INTRA.REPUL.0>
0

>  <SCORE.INTRA.SOLV>
0

>  <SCORE.INTRA.SOLV.lig_0>
-4.25352

>  <SCORE.INTRA.VDW>
0

>  <SCORE.INTRA.VDW.0>
0

>  <SCORE.INTRA.norm>
0

>  <SCORE.RESTR>
0

>  <SCORE.RESTR.CAVITY>
0

>  <SCORE.RESTR.norm>
0

>  <SCORE.SYSTEM>
0

>  <SCORE.SYSTEM.CONST>
0

>  <SCORE.SYSTEM.DIHEDRAL>
0

>  <SCORE.SYSTEM.SOLV>
0

>  <SCORE.SYSTEM.norm>
0

>  <SCORE.heavy>
10

>  <SCORE.norm>
-1.96811

>  <RMSD>
0.368

$$$$
ligand
 OpenBabel11021811423D
libRbt.so/2013.1/901 2013/11/27
 10 11  0  0  0  0  0  0  0  0999 V2000
   53.4448  -13.1789    9.0106 N   0  0  0  0  0  0  0  0  0  0  0  0
   53.6822  -14.4896    9.3125 C   0  0  0  0  0  0  0  0  0  0  0  0
   54.0079  -15.3978    8.3562 N   0  0  0  0  0  0  0  0  0  0  0  0
   54.0742  -14.8551    7.1062 C   0  0  0  0  0  0  0  0  0  0  0  0
   53.8477  -13.5463    6.7505 C   0  0  0  0  0  0  0  0  0  0  0  0
   53.5050  -12.6074    7.7276 C   0  0  0  0  0  0  0  0  0  0  0  0
   53.2666  -11.4236    7.6098 O   0  0  0  0  0  0  0  0  0  0  0  0
   54.0199  -13.4255    5.3980 N   0  0  0  0  0  0  0  0  0  0  0  0
   54.3429  -14.6311    4.9419 C   0  0  0  0  0  0  0  0  0  0  0  0
   54.3872  -15.5560    5.9683 N   0  0  0  0  0  0  0  0  0  0  0  0
  1  2  1  0  0  0  0
  1  6  1  0  0  0  0
  2  3  2  0  0  0  0
  3  4  1  0  0  0  0
  4  5  2  0  0  0  0
  4 10  1  0  0  0  0
  5  6  1  0  0  0  0
  5  8  1  0  0  0  0
  6  7  2  0  0  0  0
  8  9  1  0  0  0  0
  9 10  2  0  0  0  0
M  END
>  <CHROM.1>
53.84647066,-13.86492968,7.22787196,-2.80558145,1.31836421,-0.97582205

>  <Name>
ligand

>  <RI>
0

>  <Rbt.Current_Directory>
/home/itssahil/PROJECTS/Mol_Feturizer/New_Systems/rnas/2EEV

>  <Rbt.Executable>
rbdock ($Id: //depot/dev/client3/rdock/2013.1/src/exe/rbdock.cxx#4 $)

>  <Rbt.Library>
libRbt.so (2013.1, Build901 2013/11/27)

>  <Rbt.Parameter_File>
/export/apps/rDock/src/rDock_2013.1_src/data/scripts/dock_solv.prm

>  <Rbt.Receptor>
prm/pocket_docking_4.prm

>  <SCORE>
-19.6367

>  <SCORE.INTER>
-19.6367

>  <SCORE.INTER.CONST>
1

>  <SCORE.INTER.POLAR>
0

>  <SCORE.INTER.ROT>
0

>  <SCORE.INTER.SOLV>
4.19468

>  <SCORE.INTER.VDW>
-18.0894

>  <SCORE.INTER.norm>
-1.96367

>  <SCORE.INTRA>
0

>  <SCORE.INTRA.DIHEDRAL>
0

>  <SCORE.INTRA.DIHEDRAL.0>
0

>  <SCORE.INTRA.POLAR>
0

>  <SCORE.INTRA.POLAR.0>
0

>  <SCORE.INTRA.REPUL>
0

>  <SCORE.INTRA.REPUL.0>
0

>  <SCORE.INTRA.SOLV>
0

>  <SCORE.INTRA.SOLV.lig_0>
-4.25352

>  <SCORE.INTRA.VDW>
0

>  <SCORE.INTRA.VDW.0>
0

>  <SCORE.INTRA.norm>
0

>  <SCORE.RESTR>
0

>  <SCORE.RESTR.CAVITY>
0

>  <SCORE.RESTR.norm>
0

>  <SCORE.SYSTEM>
0

>  <SCORE.SYSTEM.CONST>
0

>  <SCORE.SYSTEM.DIHEDRAL>
0

>  <SCORE.SYSTEM.SOLV>
0

>  <SCORE.SYSTEM.norm>
0

>  <SCORE.heavy>
10

>  <SCORE.norm>
-1.96367

>  <RMSD>
0.370

$$$$
ligand
 OpenBabel11021811423D
libRbt.so/2013.1/901 2013/11/27
 10 11  0  0  0  0  0  0  0  0999 V2000
   53.5257  -13.3635    8.9569 N   0  0  0  0  0  0  0  0  0  0  0  0
   53.7592  -14.6853    9.2091 C   0  0  0  0  0  0  0  0  0  0  0  0
   54.0642  -15.5615    8.2167 N   0  0  0  0  0  0  0  0  0  0  0  0
   54.1147  -14.9758    6.9855 C   0  0  0  0  0  0  0  0  0  0  0  0
   53.8912  -13.6540    6.6792 C   0  0  0  0  0  0  0  0  0  0  0  0
   53.5698  -12.7478    7.6938 C   0  0  0  0  0  0  0  0  0  0  0  0
   53.3372  -11.5593    7.6210 O   0  0  0  0  0  0  0  0  0  0  0  0
   54.0431  -13.4870    5.3292 N   0  0  0  0  0  0  0  0  0  0  0  0
   54.3513  -14.6779    4.8263 C   0  0  0  0  0  0  0  0  0  0  0  0
   54.4055  -15.6383    5.8191 N   0  0  0  0  0  0  0  0  0  0  0  0
  1  2  1  0  0  0  0
  1  6  1  0  0  0  0
  2  3  2  0  0  0  0
  3  4  1  0  0  0  0
  4  5  2  0  0  0  0
  4 10  1  0  0  0  0
  5  6  1  0  0  0  0
  5  8  1  0  0  0  0
  6  7  2  0  0  0  0
  8  9  1  0  0  0  0
  9 10  2  0  0  0  0
M  END
>  <CHROM.1>
53.89525691,-13.98914750,7.14516972,-2.76669956,1.33224192,-0.97862225

>  <Name>
ligand

>  <RI>
0

>  <Rbt.Current_Directory>
/home/itssahil/PROJECTS/Mol_Feturizer/New_Systems/rnas/2EEV

>  <Rbt.Executable>
rbdock ($Id: //depot/dev/client3/rdock/2013.1/src/exe/rbdock.cxx#4 $)

>  <Rbt.Library>
libRbt.so (2013.1, Build901 2013/11/27)

>  <Rbt.Parameter_File>
/export/apps/rDock/src/rDock_2013.1_src/data/scripts/dock_solv.prm

>  <Rbt.Receptor>
prm/pocket_docking_7.prm

>  <SCORE>
-19.6438

>  <SCORE.INTER>
-19.6438

>  <SCORE.INTER.CONST>
1

>  <SCORE.INTER.POLAR>
0

>  <SCORE.INTER.ROT>
0

>  <SCORE.INTER.SOLV>
4.20819

>  <SCORE.INTER.VDW>
-18.0986

>  <SCORE.INTER.norm>
-1.96438

>  <SCORE.INTRA>
0

>  <SCORE.INTRA.DIHEDRAL>
0

>  <SCORE.INTRA.DIHEDRAL.0>
0

>  <SCORE.INTRA.POLAR>
0

>  <SCORE.INTRA.POLAR.0>
0

>  <SCORE.INTRA.REPUL>
0

>  <SCORE.INTRA.REPUL.0>
0

>  <SCORE.INTRA.SOLV>
0

>  <SCORE.INTRA.SOLV.lig_0>
-4.25352

>  <SCORE.INTRA.VDW>
0

>  <SCORE.INTRA.VDW.0>
0

>  <SCORE.INTRA.norm>
0

>  <SCORE.RESTR>
0

>  <SCORE.RESTR.CAVITY>
0

>  <SCORE.RESTR.norm>
0

>  <SCORE.SYSTEM>
0

>  <SCORE.SYSTEM.CONST>
0

>  <SCORE.SYSTEM.DIHEDRAL>
0

>  <SCORE.SYSTEM.SOLV>
0

>  <SCORE.SYSTEM.norm>
0

>  <SCORE.heavy>
10

>  <SCORE.norm>
-1.96438

>  <RMSD>
0.370

$$$$
ligand
 OpenBabel11021811423D
libRbt.so/2013.1/901 2013/11/27
 10 11  0  0  0  0  0  0  0  0999 V2000
   53.4992  -13.3121    8.9636 N   0  0  0  0  0  0  0  0  0  0  0  0
   53.7229  -14.6344    9.2221 C   0  0  0  0  0  0  0  0  0  0  0  0
   54.0349  -15.5149    8.2356 N   0  0  0  0  0  0  0  0  0  0  0  0
   54.1027  -14.9328    7.0036 C   0  0  0  0  0  0  0  0  0  0  0  0
   53.8897  -13.6107    6.6911 C   0  0  0  0  0  0  0  0  0  0  0  0
   53.5611  -12.7001    7.6994 C   0  0  0  0  0  0  0  0  0  0  0  0
   53.3356  -11.5106    7.6208 O   0  0  0  0  0  0  0  0  0  0  0  0
   54.0582  -13.4482    5.3425 N   0  0  0  0  0  0  0  0  0  0  0  0
   54.3660  -14.6420    4.8465 C   0  0  0  0  0  0  0  0  0  0  0  0
   54.4037  -15.6000    5.8424 N   0  0  0  0  0  0  0  0  0  0  0  0
  1  2  1  0  0  0  0
  1  6  1  0  0  0  0
  2  3  2  0  0  0  0
  3  4  1  0  0  0  0
  4  5  2  0  0  0  0
  4 10  1  0  0  0  0
  5  6  1  0  0  0  0
  5  8  1  0  0  0  0
  6  7  2  0  0  0  0
  8  9  1  0  0  0  0
  9 10  2  0  0  0  0
M  END
>  <CHROM.1>
53.88656926,-13.94459380,7.15800659,-2.81930591,1.32971279,-0.93021912

>  <Name>
ligand

>  <RI>
0

>  <Rbt.Current_Directory>
/home/itssahil/PROJECTS/Mol_Feturizer/New_Systems/rnas/2EEV

>  <Rbt.Executable>
rbdock ($Id: //depot/dev/client3/rdock/2013.1/src/exe/rbdock.cxx#4 $)

>  <Rbt.Library>
libRbt.so (2013.1, Build901 2013/11/27)

>  <Rbt.Parameter_File>
/export/apps/rDock/src/rDock_2013.1_src/data/scripts/dock_solv.prm

>  <Rbt.Receptor>
prm/pocket_docking_5.prm

>  <SCORE>
-19.6996

>  <SCORE.INTER>
-19.6996

>  <SCORE.INTER.CONST>
1

>  <SCORE.INTER.POLAR>
0

>  <SCORE.INTER.ROT>
0

>  <SCORE.INTER.SOLV>
4.21771

>  <SCORE.INTER.VDW>
-18.139

>  <SCORE.INTER.norm>
-1.96996

>  <SCORE.INTRA>
0

>  <SCORE.INTRA.DIHEDRAL>
0

>  <SCORE.INTRA.DIHEDRAL.0>
0

>  <SCORE.INTRA.POLAR>
0

>  <SCORE.INTRA.POLAR.0>
0

>  <SCORE.INTRA.REPUL>
0

>  <SCORE.INTRA.REPUL.0>
0

>  <SCORE.INTRA.SOLV>
0

>  <SCORE.INTRA.SOLV.lig_0>
-4.25352

>  <SCORE.INTRA.VDW>
0

>  <SCORE.INTRA.VDW.0>
0

>  <SCORE.INTRA.norm>
0

>  <SCORE.RESTR>
0

>  <SCORE.RESTR.CAVITY>
0

>  <SCORE.RESTR.norm>
0

>  <SCORE.SYSTEM>
0

>  <SCORE.SYSTEM.CONST>
0

>  <SCORE.SYSTEM.DIHEDRAL>
0

>  <SCORE.SYSTEM.SOLV>
0

>  <SCORE.SYSTEM.norm>
0

>  <SCORE.heavy>
10

>  <SCORE.norm>
-1.96996

>  <RMSD>
0.372

$$$$
ligand
 OpenBabel11021811423D
libRbt.so/2013.1/901 2013/11/27
 10 11  0  0  0  0  0  0  0  0999 V2000
   53.5377  -13.3913    8.9580 N   0  0  0  0  0  0  0  0  0  0  0  0
   53.7578  -14.7175    9.1992 C   0  0  0  0  0  0  0  0  0  0  0  0
   54.0556  -15.5882    8.1998 N   0  0  0  0  0  0  0  0  0  0  0  0
   54.1138  -14.9925    6.9738 C   0  0  0  0  0  0  0  0  0  0  0  0
   53.9038  -13.6661    6.6784 C   0  0  0  0  0  0  0  0  0  0  0  0
   53.5898  -12.7654    7.7002 C   0  0  0  0  0  0  0  0  0  0  0  0
   53.3691  -11.5740    7.6372 O   0  0  0  0  0  0  0  0  0  0  0  0
   54.0595  -13.4891    5.3301 N   0  0  0  0  0  0  0  0  0  0  0  0
   54.3566  -14.6786    4.8176 C   0  0  0  0  0  0  0  0  0  0  0  0
   54.3998  -15.6479    5.8022 N   0  0  0  0  0  0  0  0  0  0  0  0
  1  2  1  0  0  0  0
  1  6  1  0  0  0  0
  2  3  2  0  0  0  0
  3  4  1  0  0  0  0
  4  5  2  0  0  0  0
  4 10  1  0  0  0  0
  5  6  1  0  0  0  0
  5  8  1  0  0  0  0
  6  7  2  0  0  0  0
  8  9  1  0  0  0  0
  9 10  2  0  0  0  0
M  END
>  <CHROM.1>
53.90384895,-14.00514644,7.14153020,-2.79629129,1.33948030,-0.94131973

>  <Name>
ligand

>  <RI>
0

>  <Rbt.Current_Directory>
/home/itssahil/PROJECTS/Mol_Feturizer/New_Systems/rnas/2EEV

>  <Rbt.Executable>
rbdock ($Id: //depot/dev/client3/rdock/2013.1/src/exe/rbdock.cxx#4 $)

>  <Rbt.Library>
libRbt.so (2013.1, Build901 2013/11/27)

>  <Rbt.Parameter_File>
/export/apps/rDock/src/rDock_2013.1_src/data/scripts/dock_solv.prm

>  <Rbt.Receptor>
prm/pocket_docking_5.prm

>  <SCORE>
-19.6712

>  <SCORE.INTER>
-19.6712

>  <SCORE.INTER.CONST>
1

>  <SCORE.INTER.POLAR>
0

>  <SCORE.INTER.ROT>
0

>  <SCORE.INTER.SOLV>
4.23664

>  <SCORE.INTER.VDW>
-18.1263

>  <SCORE.INTER.norm>
-1.96712

>  <SCORE.INTRA>
0

>  <SCORE.INTRA.DIHEDRAL>
0

>  <SCORE.INTRA.DIHEDRAL.0>
0

>  <SCORE.INTRA.POLAR>
0

>  <SCORE.INTRA.POLAR.0>
0

>  <SCORE.INTRA.REPUL>
0

>  <SCORE.INTRA.REPUL.0>
0

>  <SCORE.INTRA.SOLV>
0

>  <SCORE.INTRA.SOLV.lig_0>
-4.25352

>  <SCORE.INTRA.VDW>
0

>  <SCORE.INTRA.VDW.0>
0

>  <SCORE.INTRA.norm>
0

>  <SCORE.RESTR>
0

>  <SCORE.RESTR.CAVITY>
0

>  <SCORE.RESTR.norm>
0

>  <SCORE.SYSTEM>
0

>  <SCORE.SYSTEM.CONST>
0

>  <SCORE.SYSTEM.DIHEDRAL>
0

>  <SCORE.SYSTEM.SOLV>
0

>  <SCORE.SYSTEM.norm>
0

>  <SCORE.heavy>
10

>  <SCORE.norm>
-1.96712

>  <RMSD>
0.373

$$$$
ligand
 OpenBabel11021811423D
libRbt.so/2013.1/901 2013/11/27
 10 11  0  0  0  0  0  0  0  0999 V2000
   53.5017  -13.3368    8.9434 N   0  0  0  0  0  0  0  0  0  0  0  0
   53.7557  -14.6515    9.2123 C   0  0  0  0  0  0  0  0  0  0  0  0
   54.0778  -15.5346    8.2314 N   0  0  0  0  0  0  0  0  0  0  0  0
   54.1225  -14.9630    6.9934 C   0  0  0  0  0  0  0  0  0  0  0  0
   53.8787  -13.6488    6.6704 C   0  0  0  0  0  0  0  0  0  0  0  0
   53.5396  -12.7358    7.6730 C   0  0  0  0  0  0  0  0  0  0  0  0
   53.2882  -11.5521    7.5852 O   0  0  0  0  0  0  0  0  0  0  0  0
   54.0320  -13.4957    5.3189 N   0  0  0  0  0  0  0  0  0  0  0  0
   54.3608  -14.6874    4.8314 C   0  0  0  0  0  0  0  0  0  0  0  0
   54.4275  -15.6348    5.8359 N   0  0  0  0  0  0  0  0  0  0  0  0
  1  2  1  0  0  0  0
  1  6  1  0  0  0  0
  2  3  2  0  0  0  0
  3  4  1  0  0  0  0
  4  5  2  0  0  0  0
  4 10  1  0  0  0  0
  5  6  1  0  0  0  0
  5  8  1  0  0  0  0
  6  7  2  0  0  0  0
  8  9  1  0  0  0  0
  9 10  2  0  0  0  0
M  END
>  <CHROM.1>
53.88673576,-13.97818311,7.14044401,-2.74080533,1.31711308,-1.01582722

>  <Name>
ligand

>  <RI>
0

>  <Rbt.Current_Directory>
/home/itssahil/PROJECTS/Mol_Feturizer/New_Systems/rnas/2EEV

>  <Rbt.Executable>
rbdock ($Id: //depot/dev/client3/rdock/2013.1/src/exe/rbdock.cxx#4 $)

>  <Rbt.Library>
libRbt.so (2013.1, Build901 2013/11/27)

>  <Rbt.Parameter_File>
/export/apps/rDock/src/rDock_2013.1_src/data/scripts/dock_solv.prm

>  <Rbt.Receptor>
prm/pocket_docking_6.prm

>  <SCORE>
-19.6518

>  <SCORE.INTER>
-19.6518

>  <SCORE.INTER.CONST>
1

>  <SCORE.INTER.POLAR>
0

>  <SCORE.INTER.ROT>
0

>  <SCORE.INTER.SOLV>
4.16404

>  <SCORE.INTER.VDW>
-18.0892

>  <SCORE.INTER.norm>
-1.96518

>  <SCORE.INTRA>
0

>  <SCORE.INTRA.DIHEDRAL>
0

>  <SCORE.INTRA.DIHEDRAL.0>
0

>  <SCORE.INTRA.POLAR>
0

>  <SCORE.INTRA.POLAR.0>
0

>  <SCORE.INTRA.REPUL>
0

>  <SCORE.INTRA.REPUL.0>
0

>  <SCORE.INTRA.SOLV>
0

>  <SCORE.INTRA.SOLV.lig_0>
-4.25352

>  <SCORE.INTRA.VDW>
0

>  <SCORE.INTRA.VDW.0>
0

>  <SCORE.INTRA.norm>
0

>  <SCORE.RESTR>
0

>  <SCORE.RESTR.CAVITY>
0

>  <SCORE.RESTR.norm>
0

>  <SCORE.SYSTEM>
0

>  <SCORE.SYSTEM.CONST>
0

>  <SCORE.SYSTEM.DIHEDRAL>
0

>  <SCORE.SYSTEM.SOLV>
0

>  <SCORE.SYSTEM.norm>
0

>  <SCORE.heavy>
10

>  <SCORE.norm>
-1.96518

>  <RMSD>
0.373

$$$$
ligand
 OpenBabel11021811423D
libRbt.so/2013.1/901 2013/11/27
 10 11  0  0  0  0  0  0  0  0999 V2000
   53.5117  -13.3509    8.9434 N   0  0  0  0  0  0  0  0  0  0  0  0
   53.7650  -14.6674    9.2043 C   0  0  0  0  0  0  0  0  0  0  0  0
   54.0838  -15.5452    8.2176 N   0  0  0  0  0  0  0  0  0  0  0  0
   54.1260  -14.9668    6.9828 C   0  0  0  0  0  0  0  0  0  0  0  0
   53.8827  -13.6505    6.6678 C   0  0  0  0  0  0  0  0  0  0  0  0
   53.5471  -12.7428    7.6764 C   0  0  0  0  0  0  0  0  0  0  0  0
   53.2966  -11.5584    7.5958 O   0  0  0  0  0  0  0  0  0  0  0  0
   54.0329  -13.4900    5.3168 N   0  0  0  0  0  0  0  0  0  0  0  0
   54.3593  -14.6793    4.8218 C   0  0  0  0  0  0  0  0  0  0  0  0
   54.4275  -15.6323    5.8207 N   0  0  0  0  0  0  0  0  0  0  0  0
  1  2  1  0  0  0  0
  1  6  1  0  0  0  0
  2  3  2  0  0  0  0
  3  4  1  0  0  0  0
  4  5  2  0  0  0  0
  4 10  1  0  0  0  0
  5  6  1  0  0  0  0
  5  8  1  0  0  0  0
  6  7  2  0  0  0  0
  8  9  1  0  0  0  0
  9 10  2  0  0  0  0
M  END
>  <CHROM.1>
53.89161967,-13.98255635,7.13594974,-2.73453329,1.31926124,-1.01626836

>  <Name>
ligand

>  <RI>
0

>  <Rbt.Current_Directory>
/home/itssahil/PROJECTS/Mol_Feturizer/New_Systems/rnas/2EEV

>  <Rbt.Executable>
rbdock ($Id: //depot/dev/client3/rdock/2013.1/src/exe/rbdock.cxx#4 $)

>  <Rbt.Library>
libRbt.so (2013.1, Build901 2013/11/27)

>  <Rbt.Parameter_File>
/export/apps/rDock/src/rDock_2013.1_src/data/scripts/dock_solv.prm

>  <Rbt.Receptor>
prm/pocket_docking_7.prm

>  <SCORE>
-19.6846

>  <SCORE.INTER>
-19.6846

>  <SCORE.INTER.CONST>
1

>  <SCORE.INTER.POLAR>
0

>  <SCORE.INTER.ROT>
0

>  <SCORE.INTER.SOLV>
4.16669

>  <SCORE.INTER.VDW>
-18.1119

>  <SCORE.INTER.norm>
-1.96846

>  <SCORE.INTRA>
0

>  <SCORE.INTRA.DIHEDRAL>
0

>  <SCORE.INTRA.DIHEDRAL.0>
0

>  <SCORE.INTRA.POLAR>
0

>  <SCORE.INTRA.POLAR.0>
0

>  <SCORE.INTRA.REPUL>
0

>  <SCORE.INTRA.REPUL.0>
0

>  <SCORE.INTRA.SOLV>
0

>  <SCORE.INTRA.SOLV.lig_0>
-4.25352

>  <SCORE.INTRA.VDW>
0

>  <SCORE.INTRA.VDW.0>
0

>  <SCORE.INTRA.norm>
0

>  <SCORE.RESTR>
0

>  <SCORE.RESTR.CAVITY>
0

>  <SCORE.RESTR.norm>
0

>  <SCORE.SYSTEM>
0

>  <SCORE.SYSTEM.CONST>
0

>  <SCORE.SYSTEM.DIHEDRAL>
0

>  <SCORE.SYSTEM.SOLV>
0

>  <SCORE.SYSTEM.norm>
0

>  <SCORE.heavy>
10

>  <SCORE.norm>
-1.96846

>  <RMSD>
0.374

$$$$
ligand
 OpenBabel11021811423D
libRbt.so/2013.1/901 2013/11/27
 10 11  0  0  0  0  0  0  0  0999 V2000
   53.4182  -13.1541    9.0162 N   0  0  0  0  0  0  0  0  0  0  0  0
   53.6660  -14.4606    9.3276 C   0  0  0  0  0  0  0  0  0  0  0  0
   54.0033  -15.3723    8.3785 N   0  0  0  0  0  0  0  0  0  0  0  0
   54.0694  -14.8372    7.1253 C   0  0  0  0  0  0  0  0  0  0  0  0
   53.8327  -13.5329    6.7600 C   0  0  0  0  0  0  0  0  0  0  0  0
   53.4781  -12.5906    7.7296 C   0  0  0  0  0  0  0  0  0  0  0  0
   53.2297  -11.4098    7.6031 O   0  0  0  0  0  0  0  0  0  0  0  0
   54.0087  -13.4194    5.4073 N   0  0  0  0  0  0  0  0  0  0  0  0
   54.3441  -14.6252    4.9604 C   0  0  0  0  0  0  0  0  0  0  0  0
   54.3928  -15.5428    5.9931 N   0  0  0  0  0  0  0  0  0  0  0  0
  1  2  1  0  0  0  0
  1  6  1  0  0  0  0
  2  3  2  0  0  0  0
  3  4  1  0  0  0  0
  4  5  2  0  0  0  0
  4 10  1  0  0  0  0
  5  6  1  0  0  0  0
  5  8  1  0  0  0  0
  6  7  2  0  0  0  0
  8  9  1  0  0  0  0
  9 10  2  0  0  0  0
M  END
>  <CHROM.1>
53.83248586,-13.84832180,7.23949283,-2.79825751,1.30899513,-0.98952981

>  <Name>
ligand

>  <RI>
0

>  <Rbt.Current_Directory>
/home/itssahil/PROJECTS/Mol_Feturizer/New_Systems/rnas/2EEV

>  <Rbt.Executable>
rbdock ($Id: //depot/dev/client3/rdock/2013.1/src/exe/rbdock.cxx#4 $)

>  <Rbt.Library>
libRbt.so (2013.1, Build901 2013/11/27)

>  <Rbt.Parameter_File>
/export/apps/rDock/src/rDock_2013.1_src/data/scripts/dock_solv.prm

>  <Rbt.Receptor>
prm/blind_docking_60.prm

>  <SCORE>
-19.6747

>  <SCORE.INTER>
-19.6747

>  <SCORE.INTER.CONST>
1

>  <SCORE.INTER.POLAR>
0

>  <SCORE.INTER.ROT>
0

>  <SCORE.INTER.SOLV>
4.16938

>  <SCORE.INTER.VDW>
-18.1063

>  <SCORE.INTER.norm>
-1.96747

>  <SCORE.INTRA>
0

>  <SCORE.INTRA.DIHEDRAL>
0

>  <SCORE.INTRA.DIHEDRAL.0>
0

>  <SCORE.INTRA.POLAR>
0

>  <SCORE.INTRA.POLAR.0>
0

>  <SCORE.INTRA.REPUL>
0

>  <SCORE.INTRA.REPUL.0>
0

>  <SCORE.INTRA.SOLV>
0

>  <SCORE.INTRA.SOLV.lig_0>
-4.25352

>  <SCORE.INTRA.VDW>
0

>  <SCORE.INTRA.VDW.0>
0

>  <SCORE.INTRA.norm>
0

>  <SCORE.RESTR>
0

>  <SCORE.RESTR.CAVITY>
0

>  <SCORE.RESTR.norm>
0

>  <SCORE.SYSTEM>
0

>  <SCORE.SYSTEM.CONST>
0

>  <SCORE.SYSTEM.DIHEDRAL>
0

>  <SCORE.SYSTEM.SOLV>
0

>  <SCORE.SYSTEM.norm>
0

>  <SCORE.heavy>
10

>  <SCORE.norm>
-1.96747

>  <RMSD>
0.375

$$$$
ligand
 OpenBabel11021811423D
libRbt.so/2013.1/901 2013/11/27
 10 11  0  0  0  0  0  0  0  0999 V2000
   53.4466  -13.1587    9.0182 N   0  0  0  0  0  0  0  0  0  0  0  0
   53.6630  -14.4693    9.3355 C   0  0  0  0  0  0  0  0  0  0  0  0
   53.9795  -15.3928    8.3907 N   0  0  0  0  0  0  0  0  0  0  0  0
   54.0597  -14.8649    7.1353 C   0  0  0  0  0  0  0  0  0  0  0  0
   53.8543  -13.5568    6.7642 C   0  0  0  0  0  0  0  0  0  0  0  0
   53.5212  -12.6022    7.7293 C   0  0  0  0  0  0  0  0  0  0  0  0
   53.3010  -11.4164    7.5974 O   0  0  0  0  0  0  0  0  0  0  0  0
   54.0344  -13.4535    5.4112 N   0  0  0  0  0  0  0  0  0  0  0  0
   54.3416  -14.6687    4.9699 C   0  0  0  0  0  0  0  0  0  0  0  0
   54.3674  -15.5828    6.0066 N   0  0  0  0  0  0  0  0  0  0  0  0
  1  2  1  0  0  0  0
  1  6  1  0  0  0  0
  2  3  2  0  0  0  0
  3  4  1  0  0  0  0
  4  5  2  0  0  0  0
  4 10  1  0  0  0  0
  5  6  1  0  0  0  0
  5  8  1  0  0  0  0
  6  7  2  0  0  0  0
  8  9  1  0  0  0  0
  9 10  2  0  0  0  0
M  END
>  <CHROM.1>
53.84614122,-13.87013491,7.24499358,-2.85608660,1.32785097,-0.93782885

>  <Name>
ligand

>  <RI>
0

>  <Rbt.Current_Directory>
/home/itssahil/PROJECTS/Mol_Feturizer/New_Systems/rnas/2EEV

>  <Rbt.Executable>
rbdock ($Id: //depot/dev/client3/rdock/2013.1/src/exe/rbdock.cxx#4 $)

>  <Rbt.Library>
libRbt.so (2013.1, Build901 2013/11/27)

>  <Rbt.Parameter_File>
/export/apps/rDock/src/rDock_2013.1_src/data/scripts/dock_solv.prm

>  <Rbt.Receptor>
prm/blind_docking_80.prm

>  <SCORE>
-19.6599

>  <SCORE.INTER>
-19.6599

>  <SCORE.INTER.CONST>
1

>  <SCORE.INTER.POLAR>
0

>  <SCORE.INTER.ROT>
0

>  <SCORE.INTER.SOLV>
4.23315

>  <SCORE.INTER.VDW>
-18.1177

>  <SCORE.INTER.norm>
-1.96599

>  <SCORE.INTRA>
0

>  <SCORE.INTRA.DIHEDRAL>
0

>  <SCORE.INTRA.DIHEDRAL.0>
0

>  <SCORE.INTRA.POLAR>
0

>  <SCORE.INTRA.POLAR.0>
0

>  <SCORE.INTRA.REPUL>
0

>  <SCORE.INTRA.REPUL.0>
0

>  <SCORE.INTRA.SOLV>
0

>  <SCORE.INTRA.SOLV.lig_0>
-4.25352

>  <SCORE.INTRA.VDW>
0

>  <SCORE.INTRA.VDW.0>
0

>  <SCORE.INTRA.norm>
0

>  <SCORE.RESTR>
0

>  <SCORE.RESTR.CAVITY>
0

>  <SCORE.RESTR.norm>
0

>  <SCORE.SYSTEM>
0

>  <SCORE.SYSTEM.CONST>
0

>  <SCORE.SYSTEM.DIHEDRAL>
0

>  <SCORE.SYSTEM.SOLV>
0

>  <SCORE.SYSTEM.norm>
0

>  <SCORE.heavy>
10

>  <SCORE.norm>
-1.96599

>  <RMSD>
0.375

$$$$
ligand
 OpenBabel11021811423D
libRbt.so/2013.1/901 2013/11/27
 10 11  0  0  0  0  0  0  0  0999 V2000
   53.4194  -13.1567    9.0148 N   0  0  0  0  0  0  0  0  0  0  0  0
   53.6535  -14.4654    9.3274 C   0  0  0  0  0  0  0  0  0  0  0  0
   53.9896  -15.3797    8.3804 N   0  0  0  0  0  0  0  0  0  0  0  0
   54.0696  -14.8447    7.1279 C   0  0  0  0  0  0  0  0  0  0  0  0
   53.8470  -13.5382    6.7615 C   0  0  0  0  0  0  0  0  0  0  0  0
   53.4936  -12.5932    7.7289 C   0  0  0  0  0  0  0  0  0  0  0  0
   53.2565  -11.4103    7.6011 O   0  0  0  0  0  0  0  0  0  0  0  0
   54.0338  -13.4258    5.4102 N   0  0  0  0  0  0  0  0  0  0  0  0
   54.3618  -14.6343    4.9652 C   0  0  0  0  0  0  0  0  0  0  0  0
   54.3950  -15.5527    5.9978 N   0  0  0  0  0  0  0  0  0  0  0  0
  1  2  1  0  0  0  0
  1  6  1  0  0  0  0
  2  3  2  0  0  0  0
  3  4  1  0  0  0  0
  4  5  2  0  0  0  0
  4 10  1  0  0  0  0
  5  6  1  0  0  0  0
  5  8  1  0  0  0  0
  6  7  2  0  0  0  0
  8  9  1  0  0  0  0
  9 10  2  0  0  0  0
M  END
>  <CHROM.1>
53.84048897,-13.85384547,7.24081631,-2.84088169,1.31210292,-0.94791979

>  <Name>
ligand

>  <RI>
0

>  <Rbt.Current_Directory>
/home/itssahil/PROJECTS/Mol_Feturizer/New_Systems/rnas/2EEV

>  <Rbt.Executable>
rbdock ($Id: //depot/dev/client3/rdock/2013.1/src/exe/rbdock.cxx#4 $)

>  <Rbt.Library>
libRbt.so (2013.1, Build901 2013/11/27)

>  <Rbt.Parameter_File>
/export/apps/rDock/src/rDock_2013.1_src/data/scripts/dock_solv.prm

>  <Rbt.Receptor>
prm/pocket_docking_3.prm

>  <SCORE>
-19.6929

>  <SCORE.INTER>
-19.6929

>  <SCORE.INTER.CONST>
1

>  <SCORE.INTER.POLAR>
0

>  <SCORE.INTER.ROT>
0

>  <SCORE.INTER.SOLV>
4.18775

>  <SCORE.INTER.VDW>
-18.1245

>  <SCORE.INTER.norm>
-1.96929

>  <SCORE.INTRA>
0

>  <SCORE.INTRA.DIHEDRAL>
0

>  <SCORE.INTRA.DIHEDRAL.0>
0

>  <SCORE.INTRA.POLAR>
0

>  <SCORE.INTRA.POLAR.0>
0

>  <SCORE.INTRA.REPUL>
0

>  <SCORE.INTRA.REPUL.0>
0

>  <SCORE.INTRA.SOLV>
0

>  <SCORE.INTRA.SOLV.lig_0>
-4.25352

>  <SCORE.INTRA.VDW>
0

>  <SCORE.INTRA.VDW.0>
0

>  <SCORE.INTRA.norm>
0

>  <SCORE.RESTR>
0

>  <SCORE.RESTR.CAVITY>
0

>  <SCORE.RESTR.norm>
0

>  <SCORE.SYSTEM>
0

>  <SCORE.SYSTEM.CONST>
0

>  <SCORE.SYSTEM.DIHEDRAL>
0

>  <SCORE.SYSTEM.SOLV>
0

>  <SCORE.SYSTEM.norm>
0

>  <SCORE.heavy>
10

>  <SCORE.norm>
-1.96929

>  <RMSD>
0.375

$$$$
ligand
 OpenBabel11021811423D
libRbt.so/2013.1/901 2013/11/27
 10 11  0  0  0  0  0  0  0  0999 V2000
   53.4533  -13.3524    8.9462 N   0  0  0  0  0  0  0  0  0  0  0  0
   53.6752  -14.6748    9.2057 C   0  0  0  0  0  0  0  0  0  0  0  0
   54.0065  -15.5523    8.2229 N   0  0  0  0  0  0  0  0  0  0  0  0
   54.0950  -14.9673    6.9936 C   0  0  0  0  0  0  0  0  0  0  0  0
   53.8847  -13.6450    6.6804 C   0  0  0  0  0  0  0  0  0  0  0  0
   53.5364  -12.7374    7.6848 C   0  0  0  0  0  0  0  0  0  0  0  0
   53.3097  -11.5481    7.6048 O   0  0  0  0  0  0  0  0  0  0  0  0
   54.0767  -13.4790    5.3354 N   0  0  0  0  0  0  0  0  0  0  0  0
   54.3959  -14.6710    4.8422 C   0  0  0  0  0  0  0  0  0  0  0  0
   54.4179  -15.6312    5.8364 N   0  0  0  0  0  0  0  0  0  0  0  0
  1  2  1  0  0  0  0
  1  6  1  0  0  0  0
  2  3  2  0  0  0  0
  3  4  1  0  0  0  0
  4  5  2  0  0  0  0
  4 10  1  0  0  0  0
  5  6  1  0  0  0  0
  5  8  1  0  0  0  0
  6  7  2  0  0  0  0
  8  9  1  0  0  0  0
  9 10  2  0  0  0  0
M  END
>  <CHROM.1>
53.87398533,-13.97989783,7.14640088,-2.87093518,1.31707231,-0.87788782

>  <Name>
ligand

>  <RI>
0

>  <Rbt.Current_Directory>
/home/itssahil/PROJECTS/Mol_Feturizer/New_Systems/rnas/2EEV

>  <Rbt.Executable>
rbdock ($Id: //depot/dev/client3/rdock/2013.1/src/exe/rbdock.cxx#4 $)

>  <Rbt.Library>
libRbt.so (2013.1, Build901 2013/11/27)

>  <Rbt.Parameter_File>
/export/apps/rDock/src/rDock_2013.1_src/data/scripts/dock_solv.prm

>  <Rbt.Receptor>
prm/blind_docking_60.prm

>  <SCORE>
-19.6709

>  <SCORE.INTER>
-19.6709

>  <SCORE.INTER.CONST>
1

>  <SCORE.INTER.POLAR>
0

>  <SCORE.INTER.ROT>
0

>  <SCORE.INTER.SOLV>
4.21694

>  <SCORE.INTER.VDW>
-18.1196

>  <SCORE.INTER.norm>
-1.96709

>  <SCORE.INTRA>
0

>  <SCORE.INTRA.DIHEDRAL>
0

>  <SCORE.INTRA.DIHEDRAL.0>
0

>  <SCORE.INTRA.POLAR>
0

>  <SCORE.INTRA.POLAR.0>
0

>  <SCORE.INTRA.REPUL>
0

>  <SCORE.INTRA.REPUL.0>
0

>  <SCORE.INTRA.SOLV>
0

>  <SCORE.INTRA.SOLV.lig_0>
-4.25352

>  <SCORE.INTRA.VDW>
0

>  <SCORE.INTRA.VDW.0>
0

>  <SCORE.INTRA.norm>
0

>  <SCORE.RESTR>
0

>  <SCORE.RESTR.CAVITY>
0

>  <SCORE.RESTR.norm>
0

>  <SCORE.SYSTEM>
0

>  <SCORE.SYSTEM.CONST>
0

>  <SCORE.SYSTEM.DIHEDRAL>
0

>  <SCORE.SYSTEM.SOLV>
0

>  <SCORE.SYSTEM.norm>
0

>  <SCORE.heavy>
10

>  <SCORE.norm>
-1.96709

>  <RMSD>
0.376

$$$$
ligand
 OpenBabel11021811423D
libRbt.so/2013.1/901 2013/11/27
 10 11  0  0  0  0  0  0  0  0999 V2000
   53.5121  -13.3465    8.9413 N   0  0  0  0  0  0  0  0  0  0  0  0
   53.7678  -14.6613    9.2080 C   0  0  0  0  0  0  0  0  0  0  0  0
   54.0848  -15.5437    8.2248 N   0  0  0  0  0  0  0  0  0  0  0  0
   54.1227  -14.9713    6.9870 C   0  0  0  0  0  0  0  0  0  0  0  0
   53.8769  -13.6570    6.6662 C   0  0  0  0  0  0  0  0  0  0  0  0
   53.5431  -12.7446    7.6712 C   0  0  0  0  0  0  0  0  0  0  0  0
   53.2909  -11.5610    7.5855 O   0  0  0  0  0  0  0  0  0  0  0  0
   54.0229  -13.5029    5.3140 N   0  0  0  0  0  0  0  0  0  0  0  0
   54.3493  -14.6943    4.8239 C   0  0  0  0  0  0  0  0  0  0  0  0
   54.4216  -15.6423    5.8274 N   0  0  0  0  0  0  0  0  0  0  0  0
  1  2  1  0  0  0  0
  1  6  1  0  0  0  0
  2  3  2  0  0  0  0
  3  4  1  0  0  0  0
  4  5  2  0  0  0  0
  4 10  1  0  0  0  0
  5  6  1  0  0  0  0
  5  8  1  0  0  0  0
  6  7  2  0  0  0  0
  8  9  1  0  0  0  0
  9 10  2  0  0  0  0
M  END
>  <CHROM.1>
53.88753851,-13.98662876,7.13591972,-2.72194120,1.31973472,-1.03344886

>  <Name>
ligand

>  <RI>
0

>  <Rbt.Current_Directory>
/home/itssahil/PROJECTS/Mol_Feturizer/New_Systems/rnas/2EEV

>  <Rbt.Executable>
rbdock ($Id: //depot/dev/client3/rdock/2013.1/src/exe/rbdock.cxx#4 $)

>  <Rbt.Library>
libRbt.so (2013.1, Build901 2013/11/27)

>  <Rbt.Parameter_File>
/export/apps/rDock/src/rDock_2013.1_src/data/scripts/dock_solv.prm

>  <Rbt.Receptor>
prm/pocket_docking_3.prm

>  <SCORE>
-19.6814

>  <SCORE.INTER>
-19.6814

>  <SCORE.INTER.CONST>
1

>  <SCORE.INTER.POLAR>
0

>  <SCORE.INTER.ROT>
0

>  <SCORE.INTER.SOLV>
4.16594

>  <SCORE.INTER.VDW>
-18.1096

>  <SCORE.INTER.norm>
-1.96814

>  <SCORE.INTRA>
0

>  <SCORE.INTRA.DIHEDRAL>
0

>  <SCORE.INTRA.DIHEDRAL.0>
0

>  <SCORE.INTRA.POLAR>
0

>  <SCORE.INTRA.POLAR.0>
0

>  <SCORE.INTRA.REPUL>
0

>  <SCORE.INTRA.REPUL.0>
0

>  <SCORE.INTRA.SOLV>
0

>  <SCORE.INTRA.SOLV.lig_0>
-4.25352

>  <SCORE.INTRA.VDW>
0

>  <SCORE.INTRA.VDW.0>
0

>  <SCORE.INTRA.norm>
0

>  <SCORE.RESTR>
0

>  <SCORE.RESTR.CAVITY>
0

>  <SCORE.RESTR.norm>
0

>  <SCORE.SYSTEM>
0

>  <SCORE.SYSTEM.CONST>
0

>  <SCORE.SYSTEM.DIHEDRAL>
0

>  <SCORE.SYSTEM.SOLV>
0

>  <SCORE.SYSTEM.norm>
0

>  <SCORE.heavy>
10

>  <SCORE.norm>
-1.96814

>  <RMSD>
0.376

$$$$
ligand
 OpenBabel11021811423D
libRbt.so/2013.1/901 2013/11/27
 10 11  0  0  0  0  0  0  0  0999 V2000
   53.5158  -13.3460    8.9443 N   0  0  0  0  0  0  0  0  0  0  0  0
   53.7668  -14.6626    9.2063 C   0  0  0  0  0  0  0  0  0  0  0  0
   54.0809  -15.5426    8.2200 N   0  0  0  0  0  0  0  0  0  0  0  0
   54.1212  -14.9659    6.9842 C   0  0  0  0  0  0  0  0  0  0  0  0
   53.8801  -13.6495    6.6682 C   0  0  0  0  0  0  0  0  0  0  0  0
   53.5492  -12.7396    7.6764 C   0  0  0  0  0  0  0  0  0  0  0  0
   53.3012  -11.5548    7.5949 O   0  0  0  0  0  0  0  0  0  0  0  0
   54.0269  -13.4911    5.3165 N   0  0  0  0  0  0  0  0  0  0  0  0
   54.3493  -14.6818    4.8222 C   0  0  0  0  0  0  0  0  0  0  0  0
   54.4180  -15.6337    5.8223 N   0  0  0  0  0  0  0  0  0  0  0  0
  1  2  1  0  0  0  0
  1  6  1  0  0  0  0
  2  3  2  0  0  0  0
  3  4  1  0  0  0  0
  4  5  2  0  0  0  0
  4 10  1  0  0  0  0
  5  6  1  0  0  0  0
  5  8  1  0  0  0  0
  6  7  2  0  0  0  0
  8  9  1  0  0  0  0
  9 10  2  0  0  0  0
M  END
>  <CHROM.1>
53.88945446,-13.98089869,7.13668579,-2.73012971,1.32261288,-1.02188385

>  <Name>
ligand

>  <RI>
0

>  <Rbt.Current_Directory>
/home/itssahil/PROJECTS/Mol_Feturizer/New_Systems/rnas/2EEV

>  <Rbt.Executable>
rbdock ($Id: //depot/dev/client3/rdock/2013.1/src/exe/rbdock.cxx#4 $)

>  <Rbt.Library>
libRbt.so (2013.1, Build901 2013/11/27)

>  <Rbt.Parameter_File>
/export/apps/rDock/src/rDock_2013.1_src/data/scripts/dock_solv.prm

>  <Rbt.Receptor>
prm/pocket_docking_3.prm

>  <SCORE>
-19.6841

>  <SCORE.INTER>
-19.6841

>  <SCORE.INTER.CONST>
1

>  <SCORE.INTER.POLAR>
0

>  <SCORE.INTER.ROT>
0

>  <SCORE.INTER.SOLV>
4.17475

>  <SCORE.INTER.VDW>
-18.1143

>  <SCORE.INTER.norm>
-1.96841

>  <SCORE.INTRA>
0

>  <SCORE.INTRA.DIHEDRAL>
0

>  <SCORE.INTRA.DIHEDRAL.0>
0

>  <SCORE.INTRA.POLAR>
0

>  <SCORE.INTRA.POLAR.0>
0

>  <SCORE.INTRA.REPUL>
0

>  <SCORE.INTRA.REPUL.0>
0

>  <SCORE.INTRA.SOLV>
0

>  <SCORE.INTRA.SOLV.lig_0>
-4.25352

>  <SCORE.INTRA.VDW>
0

>  <SCORE.INTRA.VDW.0>
0

>  <SCORE.INTRA.norm>
0

>  <SCORE.RESTR>
0

>  <SCORE.RESTR.CAVITY>
0

>  <SCORE.RESTR.norm>
0

>  <SCORE.SYSTEM>
0

>  <SCORE.SYSTEM.CONST>
0

>  <SCORE.SYSTEM.DIHEDRAL>
0

>  <SCORE.SYSTEM.SOLV>
0

>  <SCORE.SYSTEM.norm>
0

>  <SCORE.heavy>
10

>  <SCORE.norm>
-1.96841

>  <RMSD>
0.376

$$$$
ligand
 OpenBabel11021811423D
libRbt.so/2013.1/901 2013/11/27
 10 11  0  0  0  0  0  0  0  0999 V2000
   53.5202  -13.3454    8.9429 N   0  0  0  0  0  0  0  0  0  0  0  0
   53.7681  -14.6626    9.2050 C   0  0  0  0  0  0  0  0  0  0  0  0
   54.0836  -15.5426    8.2192 N   0  0  0  0  0  0  0  0  0  0  0  0
   54.1287  -14.9654    6.9839 C   0  0  0  0  0  0  0  0  0  0  0  0
   53.8909  -13.6485    6.6677 C   0  0  0  0  0  0  0  0  0  0  0  0
   53.5586  -12.7385    7.6753 C   0  0  0  0  0  0  0  0  0  0  0  0
   53.3130  -11.5532    7.5937 O   0  0  0  0  0  0  0  0  0  0  0  0
   54.0422  -13.4897    5.3166 N   0  0  0  0  0  0  0  0  0  0  0  0
   54.3640  -14.6807    4.8228 C   0  0  0  0  0  0  0  0  0  0  0  0
   54.4279  -15.6332    5.8226 N   0  0  0  0  0  0  0  0  0  0  0  0
  1  2  1  0  0  0  0
  1  6  1  0  0  0  0
  2  3  2  0  0  0  0
  3  4  1  0  0  0  0
  4  5  2  0  0  0  0
  4 10  1  0  0  0  0
  5  6  1  0  0  0  0
  5  8  1  0  0  0  0
  6  7  2  0  0  0  0
  8  9  1  0  0  0  0
  9 10  2  0  0  0  0
M  END
>  <CHROM.1>
53.89827781,-13.98011734,7.13612149,-2.74462523,1.32251561,-1.00736144

>  <Name>
ligand

>  <RI>
0

>  <Rbt.Current_Directory>
/home/itssahil/PROJECTS/Mol_Feturizer/New_Systems/rnas/2EEV

>  <Rbt.Executable>
rbdock ($Id: //depot/dev/client3/rdock/2013.1/src/exe/rbdock.cxx#4 $)

>  <Rbt.Library>
libRbt.so (2013.1, Build901 2013/11/27)

>  <Rbt.Parameter_File>
/export/apps/rDock/src/rDock_2013.1_src/data/scripts/dock_solv.prm

>  <Rbt.Receptor>
prm/pocket_docking_6.prm

>  <SCORE>
-19.6825

>  <SCORE.INTER>
-19.6825

>  <SCORE.INTER.CONST>
1

>  <SCORE.INTER.POLAR>
0

>  <SCORE.INTER.ROT>
0

>  <SCORE.INTER.SOLV>
4.17439

>  <SCORE.INTER.VDW>
-18.1131

>  <SCORE.INTER.norm>
-1.96825

>  <SCORE.INTRA>
0

>  <SCORE.INTRA.DIHEDRAL>
0

>  <SCORE.INTRA.DIHEDRAL.0>
0

>  <SCORE.INTRA.POLAR>
0

>  <SCORE.INTRA.POLAR.0>
0

>  <SCORE.INTRA.REPUL>
0

>  <SCORE.INTRA.REPUL.0>
0

>  <SCORE.INTRA.SOLV>
0

>  <SCORE.INTRA.SOLV.lig_0>
-4.25352

>  <SCORE.INTRA.VDW>
0

>  <SCORE.INTRA.VDW.0>
0

>  <SCORE.INTRA.norm>
0

>  <SCORE.RESTR>
0

>  <SCORE.RESTR.CAVITY>
0

>  <SCORE.RESTR.norm>
0

>  <SCORE.SYSTEM>
0

>  <SCORE.SYSTEM.CONST>
0

>  <SCORE.SYSTEM.DIHEDRAL>
0

>  <SCORE.SYSTEM.SOLV>
0

>  <SCORE.SYSTEM.norm>
0

>  <SCORE.heavy>
10

>  <SCORE.norm>
-1.96825

>  <RMSD>
0.376

$$$$
ligand
 OpenBabel11021811423D
libRbt.so/2013.1/901 2013/11/27
 10 11  0  0  0  0  0  0  0  0999 V2000
   53.4665  -13.3508    8.9464 N   0  0  0  0  0  0  0  0  0  0  0  0
   53.6967  -14.6728    9.2009 C   0  0  0  0  0  0  0  0  0  0  0  0
   54.0245  -15.5464    8.2134 N   0  0  0  0  0  0  0  0  0  0  0  0
   54.1007  -14.9580    6.9849 C   0  0  0  0  0  0  0  0  0  0  0  0
   53.8817  -13.6359    6.6766 C   0  0  0  0  0  0  0  0  0  0  0  0
   53.5369  -12.7324    7.6858 C   0  0  0  0  0  0  0  0  0  0  0  0
   53.3041  -11.5441    7.6105 O   0  0  0  0  0  0  0  0  0  0  0  0
   54.0626  -13.4658    5.3305 N   0  0  0  0  0  0  0  0  0  0  0  0
   54.3835  -14.6551    4.8320 C   0  0  0  0  0  0  0  0  0  0  0  0
   54.4177  -15.6176    5.8236 N   0  0  0  0  0  0  0  0  0  0  0  0
  1  2  1  0  0  0  0
  1  6  1  0  0  0  0
  2  3  2  0  0  0  0
  3  4  1  0  0  0  0
  4  5  2  0  0  0  0
  4 10  1  0  0  0  0
  5  6  1  0  0  0  0
  5  8  1  0  0  0  0
  6  7  2  0  0  0  0
  8  9  1  0  0  0  0
  9 10  2  0  0  0  0
M  END
>  <CHROM.1>
53.87624220,-13.97201878,7.14182653,-2.83502281,1.31824405,-0.91023431

>  <Name>
ligand

>  <RI>
0

>  <Rbt.Current_Directory>
/home/itssahil/PROJECTS/Mol_Feturizer/New_Systems/rnas/2EEV

>  <Rbt.Executable>
rbdock ($Id: //depot/dev/client3/rdock/2013.1/src/exe/rbdock.cxx#4 $)

>  <Rbt.Library>
libRbt.so (2013.1, Build901 2013/11/27)

>  <Rbt.Parameter_File>
/export/apps/rDock/src/rDock_2013.1_src/data/scripts/dock_solv.prm

>  <Rbt.Receptor>
prm/pocket_docking_5.prm

>  <SCORE>
-19.6822

>  <SCORE.INTER>
-19.6822

>  <SCORE.INTER.CONST>
1

>  <SCORE.INTER.POLAR>
0

>  <SCORE.INTER.ROT>
0

>  <SCORE.INTER.SOLV>
4.20399

>  <SCORE.INTER.VDW>
-18.1228

>  <SCORE.INTER.norm>
-1.96822

>  <SCORE.INTRA>
0

>  <SCORE.INTRA.DIHEDRAL>
0

>  <SCORE.INTRA.DIHEDRAL.0>
0

>  <SCORE.INTRA.POLAR>
0

>  <SCORE.INTRA.POLAR.0>
0

>  <SCORE.INTRA.REPUL>
0

>  <SCORE.INTRA.REPUL.0>
0

>  <SCORE.INTRA.SOLV>
0

>  <SCORE.INTRA.SOLV.lig_0>
-4.25352

>  <SCORE.INTRA.VDW>
0

>  <SCORE.INTRA.VDW.0>
0

>  <SCORE.INTRA.norm>
0

>  <SCORE.RESTR>
0

>  <SCORE.RESTR.CAVITY>
0

>  <SCORE.RESTR.norm>
0

>  <SCORE.SYSTEM>
0

>  <SCORE.SYSTEM.CONST>
0

>  <SCORE.SYSTEM.DIHEDRAL>
0

>  <SCORE.SYSTEM.SOLV>
0

>  <SCORE.SYSTEM.norm>
0

>  <SCORE.heavy>
10

>  <SCORE.norm>
-1.96822

>  <RMSD>
0.377

$$$$
ligand
 OpenBabel11021811423D
libRbt.so/2013.1/901 2013/11/27
 10 11  0  0  0  0  0  0  0  0999 V2000
   53.5111  -13.3504    8.9423 N   0  0  0  0  0  0  0  0  0  0  0  0
   53.7641  -14.6673    9.2011 C   0  0  0  0  0  0  0  0  0  0  0  0
   54.0809  -15.5441    8.2129 N   0  0  0  0  0  0  0  0  0  0  0  0
   54.1216  -14.9641    6.9787 C   0  0  0  0  0  0  0  0  0  0  0  0
   53.8785  -13.6474    6.6658 C   0  0  0  0  0  0  0  0  0  0  0  0
   53.5449  -12.7407    7.6759 C   0  0  0  0  0  0  0  0  0  0  0  0
   53.2949  -11.5561    7.5972 O   0  0  0  0  0  0  0  0  0  0  0  0
   54.0267  -13.4852    5.3147 N   0  0  0  0  0  0  0  0  0  0  0  0
   54.3517  -14.6741    4.8177 C   0  0  0  0  0  0  0  0  0  0  0  0
   54.4209  -15.6284    5.8154 N   0  0  0  0  0  0  0  0  0  0  0  0
  1  2  1  0  0  0  0
  1  6  1  0  0  0  0
  2  3  2  0  0  0  0
  3  4  1  0  0  0  0
  4  5  2  0  0  0  0
  4 10  1  0  0  0  0
  5  6  1  0  0  0  0
  5  8  1  0  0  0  0
  6  7  2  0  0  0  0
  8  9  1  0  0  0  0
  9 10  2  0  0  0  0
M  END
>  <CHROM.1>
53.88792295,-13.97999551,7.13344229,-2.73049903,1.32051730,-1.01894035

>  <Name>
ligand

>  <RI>
0

>  <Rbt.Current_Directory>
/home/itssahil/PROJECTS/Mol_Feturizer/New_Systems/rnas/2EEV

>  <Rbt.Executable>
rbdock ($Id: //depot/dev/client3/rdock/2013.1/src/exe/rbdock.cxx#4 $)

>  <Rbt.Library>
libRbt.so (2013.1, Build901 2013/11/27)

>  <Rbt.Parameter_File>
/export/apps/rDock/src/rDock_2013.1_src/data/scripts/dock_solv.prm

>  <Rbt.Receptor>
prm/pocket_docking_8.prm

>  <SCORE>
-19.6847

>  <SCORE.INTER>
-19.6847

>  <SCORE.INTER.CONST>
1

>  <SCORE.INTER.POLAR>
0

>  <SCORE.INTER.ROT>
0

>  <SCORE.INTER.SOLV>
4.17016

>  <SCORE.INTER.VDW>
-18.1132

>  <SCORE.INTER.norm>
-1.96847

>  <SCORE.INTRA>
0

>  <SCORE.INTRA.DIHEDRAL>
0

>  <SCORE.INTRA.DIHEDRAL.0>
0

>  <SCORE.INTRA.POLAR>
0

>  <SCORE.INTRA.POLAR.0>
0

>  <SCORE.INTRA.REPUL>
0

>  <SCORE.INTRA.REPUL.0>
0

>  <SCORE.INTRA.SOLV>
0

>  <SCORE.INTRA.SOLV.lig_0>
-4.25352

>  <SCORE.INTRA.VDW>
0

>  <SCORE.INTRA.VDW.0>
0

>  <SCORE.INTRA.norm>
0

>  <SCORE.RESTR>
0

>  <SCORE.RESTR.CAVITY>
0

>  <SCORE.RESTR.norm>
0

>  <SCORE.SYSTEM>
0

>  <SCORE.SYSTEM.CONST>
0

>  <SCORE.SYSTEM.DIHEDRAL>
0

>  <SCORE.SYSTEM.SOLV>
0

>  <SCORE.SYSTEM.norm>
0

>  <SCORE.heavy>
10

>  <SCORE.norm>
-1.96847

>  <RMSD>
0.377

$$$$
ligand
 OpenBabel11021811423D
libRbt.so/2013.1/901 2013/11/27
 10 11  0  0  0  0  0  0  0  0999 V2000
   53.4498  -13.2841    8.9505 N   0  0  0  0  0  0  0  0  0  0  0  0
   53.6874  -14.5993    9.2318 C   0  0  0  0  0  0  0  0  0  0  0  0
   54.0167  -15.4917    8.2618 N   0  0  0  0  0  0  0  0  0  0  0  0
   54.0863  -14.9287    7.0210 C   0  0  0  0  0  0  0  0  0  0  0  0
   53.8598  -13.6145    6.6859 C   0  0  0  0  0  0  0  0  0  0  0  0
   53.5134  -12.6918    7.6771 C   0  0  0  0  0  0  0  0  0  0  0  0
   53.2743  -11.5065    7.5777 O   0  0  0  0  0  0  0  0  0  0  0  0
   54.0358  -13.4716    5.3360 N   0  0  0  0  0  0  0  0  0  0  0  0
   54.3612  -14.6695    4.8614 C   0  0  0  0  0  0  0  0  0  0  0  0
   54.4033  -15.6108    5.8728 N   0  0  0  0  0  0  0  0  0  0  0  0
  1  2  1  0  0  0  0
  1  6  1  0  0  0  0
  2  3  2  0  0  0  0
  3  4  1  0  0  0  0
  4  5  2  0  0  0  0
  4 10  1  0  0  0  0
  5  6  1  0  0  0  0
  5  8  1  0  0  0  0
  6  7  2  0  0  0  0
  8  9  1  0  0  0  0
  9 10  2  0  0  0  0
M  END
>  <CHROM.1>
53.85733663,-13.94083369,7.15802368,-2.81345152,1.31600634,-0.95198997

>  <Name>
ligand

>  <RI>
0

>  <Rbt.Current_Directory>
/home/itssahil/PROJECTS/Mol_Feturizer/New_Systems/rnas/2EEV

>  <Rbt.Executable>
rbdock ($Id: //depot/dev/client3/rdock/2013.1/src/exe/rbdock.cxx#4 $)

>  <Rbt.Library>
libRbt.so (2013.1, Build901 2013/11/27)

>  <Rbt.Parameter_File>
/export/apps/rDock/src/rDock_2013.1_src/data/scripts/dock_solv.prm

>  <Rbt.Receptor>
prm/pocket_docking_3.prm

>  <SCORE>
-19.6842

>  <SCORE.INTER>
-19.6842

>  <SCORE.INTER.CONST>
1

>  <SCORE.INTER.POLAR>
0

>  <SCORE.INTER.ROT>
0

>  <SCORE.INTER.SOLV>
4.19618

>  <SCORE.INTER.VDW>
-18.1215

>  <SCORE.INTER.norm>
-1.96842

>  <SCORE.INTRA>
0

>  <SCORE.INTRA.DIHEDRAL>
0

>  <SCORE.INTRA.DIHEDRAL.0>
0

>  <SCORE.INTRA.POLAR>
0

>  <SCORE.INTRA.POLAR.0>
0

>  <SCORE.INTRA.REPUL>
0

>  <SCORE.INTRA.REPUL.0>
0

>  <SCORE.INTRA.SOLV>
0

>  <SCORE.INTRA.SOLV.lig_0>
-4.25352

>  <SCORE.INTRA.VDW>
0

>  <SCORE.INTRA.VDW.0>
0

>  <SCORE.INTRA.norm>
0

>  <SCORE.RESTR>
0

>  <SCORE.RESTR.CAVITY>
0

>  <SCORE.RESTR.norm>
0

>  <SCORE.SYSTEM>
0

>  <SCORE.SYSTEM.CONST>
0

>  <SCORE.SYSTEM.DIHEDRAL>
0

>  <SCORE.SYSTEM.SOLV>
0

>  <SCORE.SYSTEM.norm>
0

>  <SCORE.heavy>
10

>  <SCORE.norm>
-1.96842

>  <RMSD>
0.380

$$$$
ligand
 OpenBabel11021811423D
libRbt.so/2013.1/901 2013/11/27
 10 11  0  0  0  0  0  0  0  0999 V2000
   53.5024  -13.3433    8.9336 N   0  0  0  0  0  0  0  0  0  0  0  0
   53.7681  -14.6561    9.2001 C   0  0  0  0  0  0  0  0  0  0  0  0
   54.0920  -15.5359    8.2169 N   0  0  0  0  0  0  0  0  0  0  0  0
   54.1261  -14.9630    6.9791 C   0  0  0  0  0  0  0  0  0  0  0  0
   53.8703  -13.6505    6.6585 C   0  0  0  0  0  0  0  0  0  0  0  0
   53.5292  -12.7410    7.6636 C   0  0  0  0  0  0  0  0  0  0  0  0
   53.2681  -11.5592    7.5780 O   0  0  0  0  0  0  0  0  0  0  0  0
   54.0156  -13.4951    5.3064 N   0  0  0  0  0  0  0  0  0  0  0  0
   54.3512  -14.6839    4.8162 C   0  0  0  0  0  0  0  0  0  0  0  0
   54.4304  -15.6315    5.8195 N   0  0  0  0  0  0  0  0  0  0  0  0
  1  2  1  0  0  0  0
  1  6  1  0  0  0  0
  2  3  2  0  0  0  0
  3  4  1  0  0  0  0
  4  5  2  0  0  0  0
  4 10  1  0  0  0  0
  5  6  1  0  0  0  0
  5  8  1  0  0  0  0
  6  7  2  0  0  0  0
  8  9  1  0  0  0  0
  9 10  2  0  0  0  0
M  END
>  <CHROM.1>
53.88333292,-13.98019411,7.12821832,-2.70776535,1.31299592,-1.04697275

>  <Name>
ligand

>  <RI>
0

>  <Rbt.Current_Directory>
/home/itssahil/PROJECTS/Mol_Feturizer/New_Systems/rnas/2EEV

>  <Rbt.Executable>
rbdock ($Id: //depot/dev/client3/rdock/2013.1/src/exe/rbdock.cxx#4 $)

>  <Rbt.Library>
libRbt.so (2013.1, Build901 2013/11/27)

>  <Rbt.Parameter_File>
/export/apps/rDock/src/rDock_2013.1_src/data/scripts/dock_solv.prm

>  <Rbt.Receptor>
prm/pocket_docking_6.prm

>  <SCORE>
-19.6762

>  <SCORE.INTER>
-19.6762

>  <SCORE.INTER.CONST>
1

>  <SCORE.INTER.POLAR>
0

>  <SCORE.INTER.ROT>
0

>  <SCORE.INTER.SOLV>
4.14583

>  <SCORE.INTER.VDW>
-18.0994

>  <SCORE.INTER.norm>
-1.96762

>  <SCORE.INTRA>
0

>  <SCORE.INTRA.DIHEDRAL>
0

>  <SCORE.INTRA.DIHEDRAL.0>
0

>  <SCORE.INTRA.POLAR>
0

>  <SCORE.INTRA.POLAR.0>
0

>  <SCORE.INTRA.REPUL>
0

>  <SCORE.INTRA.REPUL.0>
0

>  <SCORE.INTRA.SOLV>
0

>  <SCORE.INTRA.SOLV.lig_0>
-4.25352

>  <SCORE.INTRA.VDW>
0

>  <SCORE.INTRA.VDW.0>
0

>  <SCORE.INTRA.norm>
0

>  <SCORE.RESTR>
0

>  <SCORE.RESTR.CAVITY>
0

>  <SCORE.RESTR.norm>
0

>  <SCORE.SYSTEM>
0

>  <SCORE.SYSTEM.CONST>
0

>  <SCORE.SYSTEM.DIHEDRAL>
0

>  <SCORE.SYSTEM.SOLV>
0

>  <SCORE.SYSTEM.norm>
0

>  <SCORE.heavy>
10

>  <SCORE.norm>
-1.96762

>  <RMSD>
0.380

$$$$
ligand
 OpenBabel11021811423D
libRbt.so/2013.1/901 2013/11/27
 10 11  0  0  0  0  0  0  0  0999 V2000
   53.5231  -13.3520    8.9386 N   0  0  0  0  0  0  0  0  0  0  0  0
   53.7745  -14.6690    9.1987 C   0  0  0  0  0  0  0  0  0  0  0  0
   54.0877  -15.5477    8.2111 N   0  0  0  0  0  0  0  0  0  0  0  0
   54.1269  -14.9695    6.9760 C   0  0  0  0  0  0  0  0  0  0  0  0
   53.8854  -13.6528    6.6617 C   0  0  0  0  0  0  0  0  0  0  0  0
   53.5553  -12.7442    7.6713 C   0  0  0  0  0  0  0  0  0  0  0  0
   53.3072  -11.5592    7.5915 O   0  0  0  0  0  0  0  0  0  0  0  0
   54.0310  -13.4927    5.3102 N   0  0  0  0  0  0  0  0  0  0  0  0
   54.3530  -14.6828    4.8142 C   0  0  0  0  0  0  0  0  0  0  0  0
   54.4227  -15.6359    5.8130 N   0  0  0  0  0  0  0  0  0  0  0  0
  1  2  1  0  0  0  0
  1  6  1  0  0  0  0
  2  3  2  0  0  0  0
  3  4  1  0  0  0  0
  4  5  2  0  0  0  0
  4 10  1  0  0  0  0
  5  6  1  0  0  0  0
  5  8  1  0  0  0  0
  6  7  2  0  0  0  0
  8  9  1  0  0  0  0
  9 10  2  0  0  0  0
M  END
>  <CHROM.1>
53.89519001,-13.98474063,7.12985956,-2.72689018,1.32300806,-1.02382800

>  <Name>
ligand

>  <RI>
0

>  <Rbt.Current_Directory>
/home/itssahil/PROJECTS/Mol_Feturizer/New_Systems/rnas/2EEV

>  <Rbt.Executable>
rbdock ($Id: //depot/dev/client3/rdock/2013.1/src/exe/rbdock.cxx#4 $)

>  <Rbt.Library>
libRbt.so (2013.1, Build901 2013/11/27)

>  <Rbt.Parameter_File>
/export/apps/rDock/src/rDock_2013.1_src/data/scripts/dock_solv.prm

>  <Rbt.Receptor>
prm/pocket_docking_8.prm

>  <SCORE>
-19.6805

>  <SCORE.INTER>
-19.6805

>  <SCORE.INTER.CONST>
1

>  <SCORE.INTER.POLAR>
0

>  <SCORE.INTER.ROT>
0

>  <SCORE.INTER.SOLV>
4.17246

>  <SCORE.INTER.VDW>
-18.1112

>  <SCORE.INTER.norm>
-1.96805

>  <SCORE.INTRA>
0

>  <SCORE.INTRA.DIHEDRAL>
0

>  <SCORE.INTRA.DIHEDRAL.0>
0

>  <SCORE.INTRA.POLAR>
0

>  <SCORE.INTRA.POLAR.0>
0

>  <SCORE.INTRA.REPUL>
0

>  <SCORE.INTRA.REPUL.0>
0

>  <SCORE.INTRA.SOLV>
0

>  <SCORE.INTRA.SOLV.lig_0>
-4.25352

>  <SCORE.INTRA.VDW>
0

>  <SCORE.INTRA.VDW.0>
0

>  <SCORE.INTRA.norm>
0

>  <SCORE.RESTR>
0

>  <SCORE.RESTR.CAVITY>
0

>  <SCORE.RESTR.norm>
0

>  <SCORE.SYSTEM>
0

>  <SCORE.SYSTEM.CONST>
0

>  <SCORE.SYSTEM.DIHEDRAL>
0

>  <SCORE.SYSTEM.SOLV>
0

>  <SCORE.SYSTEM.norm>
0

>  <SCORE.heavy>
10

>  <SCORE.norm>
-1.96805

>  <RMSD>
0.380

$$$$
ligand
 OpenBabel11021811423D
libRbt.so/2013.1/901 2013/11/27
 10 11  0  0  0  0  0  0  0  0999 V2000
   53.5222  -13.3687    8.9300 N   0  0  0  0  0  0  0  0  0  0  0  0
   53.7912  -14.6818    9.1918 C   0  0  0  0  0  0  0  0  0  0  0  0
   54.1104  -15.5588    8.2045 N   0  0  0  0  0  0  0  0  0  0  0  0
   54.1362  -14.9830    6.9680 C   0  0  0  0  0  0  0  0  0  0  0  0
   53.8768  -13.6701    6.6521 C   0  0  0  0  0  0  0  0  0  0  0  0
   53.5406  -12.7633    7.6613 C   0  0  0  0  0  0  0  0  0  0  0  0
   53.2773  -11.5818    7.5801 O   0  0  0  0  0  0  0  0  0  0  0  0
   54.0136  -13.5113    5.2994 N   0  0  0  0  0  0  0  0  0  0  0  0
   54.3479  -14.6984    4.8044 C   0  0  0  0  0  0  0  0  0  0  0  0
   54.4344  -15.6483    5.8050 N   0  0  0  0  0  0  0  0  0  0  0  0
  1  2  1  0  0  0  0
  1  6  1  0  0  0  0
  2  3  2  0  0  0  0
  3  4  1  0  0  0  0
  4  5  2  0  0  0  0
  4 10  1  0  0  0  0
  5  6  1  0  0  0  0
  5  8  1  0  0  0  0
  6  7  2  0  0  0  0
  8  9  1  0  0  0  0
  9 10  2  0  0  0  0
M  END
>  <CHROM.1>
53.89306803,-14.00082409,7.12085162,-2.68446893,1.31479716,-1.06713496

>  <Name>
ligand

>  <RI>
0

>  <Rbt.Current_Directory>
/home/itssahil/PROJECTS/Mol_Feturizer/New_Systems/rnas/2EEV

>  <Rbt.Executable>
rbdock ($Id: //depot/dev/client3/rdock/2013.1/src/exe/rbdock.cxx#4 $)

>  <Rbt.Library>
libRbt.so (2013.1, Build901 2013/11/27)

>  <Rbt.Parameter_File>
/export/apps/rDock/src/rDock_2013.1_src/data/scripts/dock_solv.prm

>  <Rbt.Receptor>
prm/blind_docking_100.prm

>  <SCORE>
-19.6956

>  <SCORE.INTER>
-19.6956

>  <SCORE.INTER.CONST>
1

>  <SCORE.INTER.POLAR>
0

>  <SCORE.INTER.ROT>
0

>  <SCORE.INTER.SOLV>
4.14349

>  <SCORE.INTER.VDW>
-18.1116

>  <SCORE.INTER.norm>
-1.96956

>  <SCORE.INTRA>
0

>  <SCORE.INTRA.DIHEDRAL>
0

>  <SCORE.INTRA.DIHEDRAL.0>
0

>  <SCORE.INTRA.POLAR>
0

>  <SCORE.INTRA.POLAR.0>
0

>  <SCORE.INTRA.REPUL>
0

>  <SCORE.INTRA.REPUL.0>
0

>  <SCORE.INTRA.SOLV>
0

>  <SCORE.INTRA.SOLV.lig_0>
-4.25352

>  <SCORE.INTRA.VDW>
0

>  <SCORE.INTRA.VDW.0>
0

>  <SCORE.INTRA.norm>
0

>  <SCORE.RESTR>
0

>  <SCORE.RESTR.CAVITY>
0

>  <SCORE.RESTR.norm>
0

>  <SCORE.SYSTEM>
0

>  <SCORE.SYSTEM.CONST>
0

>  <SCORE.SYSTEM.DIHEDRAL>
0

>  <SCORE.SYSTEM.SOLV>
0

>  <SCORE.SYSTEM.norm>
0

>  <SCORE.heavy>
10

>  <SCORE.norm>
-1.96956

>  <RMSD>
0.381

$$$$
ligand
 OpenBabel11021811423D
libRbt.so/2013.1/901 2013/11/27
 10 11  0  0  0  0  0  0  0  0999 V2000
   53.5234  -13.3387    8.9416 N   0  0  0  0  0  0  0  0  0  0  0  0
   53.7692  -14.6560    9.2054 C   0  0  0  0  0  0  0  0  0  0  0  0
   54.0781  -15.5389    8.2201 N   0  0  0  0  0  0  0  0  0  0  0  0
   54.1190  -14.9643    6.9833 C   0  0  0  0  0  0  0  0  0  0  0  0
   53.8831  -13.6475    6.6654 C   0  0  0  0  0  0  0  0  0  0  0  0
   53.5575  -12.7346    7.6726 C   0  0  0  0  0  0  0  0  0  0  0  0
   53.3145  -11.5488    7.5896 O   0  0  0  0  0  0  0  0  0  0  0  0
   54.0286  -13.4919    5.3134 N   0  0  0  0  0  0  0  0  0  0  0  0
   54.3452  -14.6848    4.8205 C   0  0  0  0  0  0  0  0  0  0  0  0
   54.4113  -15.6353    5.8220 N   0  0  0  0  0  0  0  0  0  0  0  0
  1  2  1  0  0  0  0
  1  6  1  0  0  0  0
  2  3  2  0  0  0  0
  3  4  1  0  0  0  0
  4  5  2  0  0  0  0
  4 10  1  0  0  0  0
  5  6  1  0  0  0  0
  5  8  1  0  0  0  0
  6  7  2  0  0  0  0
  8  9  1  0  0  0  0
  9 10  2  0  0  0  0
M  END
>  <CHROM.1>
53.89170223,-13.97816354,7.13449810,-2.73427738,1.32700875,-1.01950072

>  <Name>
ligand

>  <RI>
0

>  <Rbt.Current_Directory>
/home/itssahil/PROJECTS/Mol_Feturizer/New_Systems/rnas/2EEV

>  <Rbt.Executable>
rbdock ($Id: //depot/dev/client3/rdock/2013.1/src/exe/rbdock.cxx#4 $)

>  <Rbt.Library>
libRbt.so (2013.1, Build901 2013/11/27)

>  <Rbt.Parameter_File>
/export/apps/rDock/src/rDock_2013.1_src/data/scripts/dock_solv.prm

>  <Rbt.Receptor>
prm/pocket_docking_3.prm

>  <SCORE>
-19.6824

>  <SCORE.INTER>
-19.6824

>  <SCORE.INTER.CONST>
1

>  <SCORE.INTER.POLAR>
0

>  <SCORE.INTER.ROT>
0

>  <SCORE.INTER.SOLV>
4.18544

>  <SCORE.INTER.VDW>
-18.1168

>  <SCORE.INTER.norm>
-1.96824

>  <SCORE.INTRA>
0

>  <SCORE.INTRA.DIHEDRAL>
0

>  <SCORE.INTRA.DIHEDRAL.0>
0

>  <SCORE.INTRA.POLAR>
0

>  <SCORE.INTRA.POLAR.0>
0

>  <SCORE.INTRA.REPUL>
0

>  <SCORE.INTRA.REPUL.0>
0

>  <SCORE.INTRA.SOLV>
0

>  <SCORE.INTRA.SOLV.lig_0>
-4.25352

>  <SCORE.INTRA.VDW>
0

>  <SCORE.INTRA.VDW.0>
0

>  <SCORE.INTRA.norm>
0

>  <SCORE.RESTR>
0

>  <SCORE.RESTR.CAVITY>
0

>  <SCORE.RESTR.norm>
0

>  <SCORE.SYSTEM>
0

>  <SCORE.SYSTEM.CONST>
0

>  <SCORE.SYSTEM.DIHEDRAL>
0

>  <SCORE.SYSTEM.SOLV>
0

>  <SCORE.SYSTEM.norm>
0

>  <SCORE.heavy>
10

>  <SCORE.norm>
-1.96824

>  <RMSD>
0.381

$$$$
ligand
 OpenBabel11021811423D
libRbt.so/2013.1/901 2013/11/27
 10 11  0  0  0  0  0  0  0  0999 V2000
   53.4014  -13.1448    9.0054 N   0  0  0  0  0  0  0  0  0  0  0  0
   53.6334  -14.4508    9.3304 C   0  0  0  0  0  0  0  0  0  0  0  0
   53.9804  -15.3719    8.3939 N   0  0  0  0  0  0  0  0  0  0  0  0
   54.0731  -14.8463    7.1383 C   0  0  0  0  0  0  0  0  0  0  0  0
   53.8531  -13.5428    6.7597 C   0  0  0  0  0  0  0  0  0  0  0  0
   53.4887  -12.5909    7.7162 C   0  0  0  0  0  0  0  0  0  0  0  0
   53.2518  -11.4092    7.5769 O   0  0  0  0  0  0  0  0  0  0  0  0
   54.0541  -13.4405    5.4096 N   0  0  0  0  0  0  0  0  0  0  0  0
   54.3880  -14.6520    4.9773 C   0  0  0  0  0  0  0  0  0  0  0  0
   54.4110  -15.5625    6.0171 N   0  0  0  0  0  0  0  0  0  0  0  0
  1  2  1  0  0  0  0
  1  6  1  0  0  0  0
  2  3  2  0  0  0  0
  3  4  1  0  0  0  0
  4  5  2  0  0  0  0
  4 10  1  0  0  0  0
  5  6  1  0  0  0  0
  5  8  1  0  0  0  0
  6  7  2  0  0  0  0
  8  9  1  0  0  0  0
  9 10  2  0  0  0  0
M  END
>  <CHROM.1>
53.84188275,-13.85485022,7.24131775,-2.87149828,1.30506701,-0.92591508

>  <Name>
ligand

>  <RI>
0

>  <Rbt.Current_Directory>
/home/itssahil/PROJECTS/Mol_Feturizer/New_Systems/rnas/2EEV

>  <Rbt.Executable>
rbdock ($Id: //depot/dev/client3/rdock/2013.1/src/exe/rbdock.cxx#4 $)

>  <Rbt.Library>
libRbt.so (2013.1, Build901 2013/11/27)

>  <Rbt.Parameter_File>
/export/apps/rDock/src/rDock_2013.1_src/data/scripts/dock_solv.prm

>  <Rbt.Receptor>
prm/pocket_docking_8.prm

>  <SCORE>
-19.6558

>  <SCORE.INTER>
-19.6558

>  <SCORE.INTER.CONST>
1

>  <SCORE.INTER.POLAR>
0

>  <SCORE.INTER.ROT>
0

>  <SCORE.INTER.SOLV>
4.17636

>  <SCORE.INTER.VDW>
-18.096

>  <SCORE.INTER.norm>
-1.96558

>  <SCORE.INTRA>
0

>  <SCORE.INTRA.DIHEDRAL>
0

>  <SCORE.INTRA.DIHEDRAL.0>
0

>  <SCORE.INTRA.POLAR>
0

>  <SCORE.INTRA.POLAR.0>
0

>  <SCORE.INTRA.REPUL>
0

>  <SCORE.INTRA.REPUL.0>
0

>  <SCORE.INTRA.SOLV>
0

>  <SCORE.INTRA.SOLV.lig_0>
-4.25352

>  <SCORE.INTRA.VDW>
0

>  <SCORE.INTRA.VDW.0>
0

>  <SCORE.INTRA.norm>
0

>  <SCORE.RESTR>
0

>  <SCORE.RESTR.CAVITY>
0

>  <SCORE.RESTR.norm>
0

>  <SCORE.SYSTEM>
0

>  <SCORE.SYSTEM.CONST>
0

>  <SCORE.SYSTEM.DIHEDRAL>
0

>  <SCORE.SYSTEM.SOLV>
0

>  <SCORE.SYSTEM.norm>
0

>  <SCORE.heavy>
10

>  <SCORE.norm>
-1.96558

>  <RMSD>
0.381

$$$$
ligand
 OpenBabel11021811423D
libRbt.so/2013.1/901 2013/11/27
 10 11  0  0  0  0  0  0  0  0999 V2000
   53.5116  -13.3441    8.9337 N   0  0  0  0  0  0  0  0  0  0  0  0
   53.7680  -14.6584    9.2024 C   0  0  0  0  0  0  0  0  0  0  0  0
   54.0857  -15.5421    8.2207 N   0  0  0  0  0  0  0  0  0  0  0  0
   54.1238  -14.9716    6.9820 C   0  0  0  0  0  0  0  0  0  0  0  0
   53.8773  -13.6579    6.6591 C   0  0  0  0  0  0  0  0  0  0  0  0
   53.5427  -12.7442    7.6626 C   0  0  0  0  0  0  0  0  0  0  0  0
   53.2899  -11.5608    7.5750 O   0  0  0  0  0  0  0  0  0  0  0  0
   54.0236  -13.5059    5.3067 N   0  0  0  0  0  0  0  0  0  0  0  0
   54.3508  -14.6978    4.8186 C   0  0  0  0  0  0  0  0  0  0  0  0
   54.4233  -15.6442    5.8236 N   0  0  0  0  0  0  0  0  0  0  0  0
  1  2  1  0  0  0  0
  1  6  1  0  0  0  0
  2  3  2  0  0  0  0
  3  4  1  0  0  0  0
  4  5  2  0  0  0  0
  4 10  1  0  0  0  0
  5  6  1  0  0  0  0
  5  8  1  0  0  0  0
  6  7  2  0  0  0  0
  8  9  1  0  0  0  0
  9 10  2  0  0  0  0
M  END
>  <CHROM.1>
53.88798038,-13.98684463,7.12938516,-2.72180828,1.31910359,-1.03511735

>  <Name>
ligand

>  <RI>
0

>  <Rbt.Current_Directory>
/home/itssahil/PROJECTS/Mol_Feturizer/New_Systems/rnas/2EEV

>  <Rbt.Executable>
rbdock ($Id: //depot/dev/client3/rdock/2013.1/src/exe/rbdock.cxx#4 $)

>  <Rbt.Library>
libRbt.so (2013.1, Build901 2013/11/27)

>  <Rbt.Parameter_File>
/export/apps/rDock/src/rDock_2013.1_src/data/scripts/dock_solv.prm

>  <Rbt.Receptor>
prm/blind_docking_60.prm

>  <SCORE>
-19.6801

>  <SCORE.INTER>
-19.6801

>  <SCORE.INTER.CONST>
1

>  <SCORE.INTER.POLAR>
0

>  <SCORE.INTER.ROT>
0

>  <SCORE.INTER.SOLV>
4.16373

>  <SCORE.INTER.VDW>
-18.108

>  <SCORE.INTER.norm>
-1.96801

>  <SCORE.INTRA>
0

>  <SCORE.INTRA.DIHEDRAL>
0

>  <SCORE.INTRA.DIHEDRAL.0>
0

>  <SCORE.INTRA.POLAR>
0

>  <SCORE.INTRA.POLAR.0>
0

>  <SCORE.INTRA.REPUL>
0

>  <SCORE.INTRA.REPUL.0>
0

>  <SCORE.INTRA.SOLV>
0

>  <SCORE.INTRA.SOLV.lig_0>
-4.25352

>  <SCORE.INTRA.VDW>
0

>  <SCORE.INTRA.VDW.0>
0

>  <SCORE.INTRA.norm>
0

>  <SCORE.RESTR>
0

>  <SCORE.RESTR.CAVITY>
0

>  <SCORE.RESTR.norm>
0

>  <SCORE.SYSTEM>
0

>  <SCORE.SYSTEM.CONST>
0

>  <SCORE.SYSTEM.DIHEDRAL>
0

>  <SCORE.SYSTEM.SOLV>
0

>  <SCORE.SYSTEM.norm>
0

>  <SCORE.heavy>
10

>  <SCORE.norm>
-1.96801

>  <RMSD>
0.382

$$$$
ligand
 OpenBabel11021811423D
libRbt.so/2013.1/901 2013/11/27
 10 11  0  0  0  0  0  0  0  0999 V2000
   53.5160  -13.3435    8.9344 N   0  0  0  0  0  0  0  0  0  0  0  0
   53.7664  -14.6598    9.1989 C   0  0  0  0  0  0  0  0  0  0  0  0
   54.0829  -15.5412    8.2147 N   0  0  0  0  0  0  0  0  0  0  0  0
   54.1261  -14.9663    6.9782 C   0  0  0  0  0  0  0  0  0  0  0  0
   53.8856  -13.6505    6.6596 C   0  0  0  0  0  0  0  0  0  0  0  0
   53.5524  -12.7391    7.6656 C   0  0  0  0  0  0  0  0  0  0  0  0
   53.3045  -11.5544    7.5818 O   0  0  0  0  0  0  0  0  0  0  0  0
   54.0357  -13.4940    5.3081 N   0  0  0  0  0  0  0  0  0  0  0  0
   54.3593  -14.6855    4.8163 C   0  0  0  0  0  0  0  0  0  0  0  0
   54.4257  -15.6358    5.8179 N   0  0  0  0  0  0  0  0  0  0  0  0
  1  2  1  0  0  0  0
  1  6  1  0  0  0  0
  2  3  2  0  0  0  0
  3  4  1  0  0  0  0
  4  5  2  0  0  0  0
  4 10  1  0  0  0  0
  5  6  1  0  0  0  0
  5  8  1  0  0  0  0
  6  7  2  0  0  0  0
  8  9  1  0  0  0  0
  9 10  2  0  0  0  0
M  END
>  <CHROM.1>
53.89392986,-13.98114457,7.12862499,-2.73823093,1.32133212,-1.01553451

>  <Name>
ligand

>  <RI>
0

>  <Rbt.Current_Directory>
/home/itssahil/PROJECTS/Mol_Feturizer/New_Systems/rnas/2EEV

>  <Rbt.Executable>
rbdock ($Id: //depot/dev/client3/rdock/2013.1/src/exe/rbdock.cxx#4 $)

>  <Rbt.Library>
libRbt.so (2013.1, Build901 2013/11/27)

>  <Rbt.Parameter_File>
/export/apps/rDock/src/rDock_2013.1_src/data/scripts/dock_solv.prm

>  <Rbt.Receptor>
prm/pocket_docking_4.prm

>  <SCORE>
-19.6836

>  <SCORE.INTER>
-19.6836

>  <SCORE.INTER.CONST>
1

>  <SCORE.INTER.POLAR>
0

>  <SCORE.INTER.ROT>
0

>  <SCORE.INTER.SOLV>
4.17127

>  <SCORE.INTER.VDW>
-18.1129

>  <SCORE.INTER.norm>
-1.96836

>  <SCORE.INTRA>
0

>  <SCORE.INTRA.DIHEDRAL>
0

>  <SCORE.INTRA.DIHEDRAL.0>
0

>  <SCORE.INTRA.POLAR>
0

>  <SCORE.INTRA.POLAR.0>
0

>  <SCORE.INTRA.REPUL>
0

>  <SCORE.INTRA.REPUL.0>
0

>  <SCORE.INTRA.SOLV>
0

>  <SCORE.INTRA.SOLV.lig_0>
-4.25352

>  <SCORE.INTRA.VDW>
0

>  <SCORE.INTRA.VDW.0>
0

>  <SCORE.INTRA.norm>
0

>  <SCORE.RESTR>
0

>  <SCORE.RESTR.CAVITY>
0

>  <SCORE.RESTR.norm>
0

>  <SCORE.SYSTEM>
0

>  <SCORE.SYSTEM.CONST>
0

>  <SCORE.SYSTEM.DIHEDRAL>
0

>  <SCORE.SYSTEM.SOLV>
0

>  <SCORE.SYSTEM.norm>
0

>  <SCORE.heavy>
10

>  <SCORE.norm>
-1.96836

>  <RMSD>
0.382

$$$$
ligand
 OpenBabel11021811423D
libRbt.so/2013.1/901 2013/11/27
 10 11  0  0  0  0  0  0  0  0999 V2000
   53.4404  -13.2200    8.9672 N   0  0  0  0  0  0  0  0  0  0  0  0
   53.6619  -14.5223    9.3139 C   0  0  0  0  0  0  0  0  0  0  0  0
   53.9874  -15.4645    8.3908 N   0  0  0  0  0  0  0  0  0  0  0  0
   54.0708  -14.9635    7.1245 C   0  0  0  0  0  0  0  0  0  0  0  0
   53.8606  -13.6649    6.7242 C   0  0  0  0  0  0  0  0  0  0  0  0
   53.5182  -12.6913    7.6669 C   0  0  0  0  0  0  0  0  0  0  0  0
   53.2927  -11.5098    7.5082 O   0  0  0  0  0  0  0  0  0  0  0  0
   54.0465  -13.5900    5.3702 N   0  0  0  0  0  0  0  0  0  0  0  0
   54.3618  -14.8130    4.9567 C   0  0  0  0  0  0  0  0  0  0  0  0
   54.3874  -15.7042    6.0131 N   0  0  0  0  0  0  0  0  0  0  0  0
  1  2  1  0  0  0  0
  1  6  1  0  0  0  0
  2  3  2  0  0  0  0
  3  4  1  0  0  0  0
  4  5  2  0  0  0  0
  4 10  1  0  0  0  0
  5  6  1  0  0  0  0
  5  8  1  0  0  0  0
  6  7  2  0  0  0  0
  8  9  1  0  0  0  0
  9 10  2  0  0  0  0
M  END
>  <CHROM.1>
53.85175195,-13.96776605,7.21165994,-2.85933260,1.32104841,-0.95639602

>  <Name>
ligand

>  <RI>
0

>  <Rbt.Current_Directory>
/home/itssahil/PROJECTS/Mol_Feturizer/New_Systems/rnas/2EEV

>  <Rbt.Executable>
rbdock ($Id: //depot/dev/client3/rdock/2013.1/src/exe/rbdock.cxx#4 $)

>  <Rbt.Library>
libRbt.so (2013.1, Build901 2013/11/27)

>  <Rbt.Parameter_File>
/export/apps/rDock/src/rDock_2013.1_src/data/scripts/dock_solv.prm

>  <Rbt.Receptor>
prm/pocket_docking_8.prm

>  <SCORE>
-19.6352

>  <SCORE.INTER>
-19.6352

>  <SCORE.INTER.CONST>
1

>  <SCORE.INTER.POLAR>
0

>  <SCORE.INTER.ROT>
0

>  <SCORE.INTER.SOLV>
4.22831

>  <SCORE.INTER.VDW>
-18.0995

>  <SCORE.INTER.norm>
-1.96352

>  <SCORE.INTRA>
0

>  <SCORE.INTRA.DIHEDRAL>
0

>  <SCORE.INTRA.DIHEDRAL.0>
0

>  <SCORE.INTRA.POLAR>
0

>  <SCORE.INTRA.POLAR.0>
0

>  <SCORE.INTRA.REPUL>
0

>  <SCORE.INTRA.REPUL.0>
0

>  <SCORE.INTRA.SOLV>
0

>  <SCORE.INTRA.SOLV.lig_0>
-4.25352

>  <SCORE.INTRA.VDW>
0

>  <SCORE.INTRA.VDW.0>
0

>  <SCORE.INTRA.norm>
0

>  <SCORE.RESTR>
0

>  <SCORE.RESTR.CAVITY>
0

>  <SCORE.RESTR.norm>
0

>  <SCORE.SYSTEM>
0

>  <SCORE.SYSTEM.CONST>
0

>  <SCORE.SYSTEM.DIHEDRAL>
0

>  <SCORE.SYSTEM.SOLV>
0

>  <SCORE.SYSTEM.norm>
0

>  <SCORE.heavy>
10

>  <SCORE.norm>
-1.96352

>  <RMSD>
0.382

$$$$
ligand
 OpenBabel11021811423D
libRbt.so/2013.1/901 2013/11/27
 10 11  0  0  0  0  0  0  0  0999 V2000
   53.4365  -13.2878    8.9384 N   0  0  0  0  0  0  0  0  0  0  0  0
   53.6808  -14.6009    9.2236 C   0  0  0  0  0  0  0  0  0  0  0  0
   54.0221  -15.4929    8.2574 N   0  0  0  0  0  0  0  0  0  0  0  0
   54.0959  -14.9317    7.0160 C   0  0  0  0  0  0  0  0  0  0  0  0
   53.8630  -13.6196    6.6770 C   0  0  0  0  0  0  0  0  0  0  0  0
   53.5043  -12.6974    7.6643 C   0  0  0  0  0  0  0  0  0  0  0  0
   53.2582  -11.5138    7.5612 O   0  0  0  0  0  0  0  0  0  0  0  0
   54.0466  -13.4780    5.3280 N   0  0  0  0  0  0  0  0  0  0  0  0
   54.3828  -14.6746    4.8577 C   0  0  0  0  0  0  0  0  0  0  0  0
   54.4245  -15.6138    5.8711 N   0  0  0  0  0  0  0  0  0  0  0  0
  1  2  1  0  0  0  0
  1  6  1  0  0  0  0
  2  3  2  0  0  0  0
  3  4  1  0  0  0  0
  4  5  2  0  0  0  0
  4 10  1  0  0  0  0
  5  6  1  0  0  0  0
  5  8  1  0  0  0  0
  6  7  2  0  0  0  0
  8  9  1  0  0  0  0
  9 10  2  0  0  0  0
M  END
>  <CHROM.1>
53.85965708,-13.94506146,7.14973946,-2.81890869,1.30703554,-0.94854249

>  <Name>
ligand

>  <RI>
0

>  <Rbt.Current_Directory>
/home/itssahil/PROJECTS/Mol_Feturizer/New_Systems/rnas/2EEV

>  <Rbt.Executable>
rbdock ($Id: //depot/dev/client3/rdock/2013.1/src/exe/rbdock.cxx#4 $)

>  <Rbt.Library>
libRbt.so (2013.1, Build901 2013/11/27)

>  <Rbt.Parameter_File>
/export/apps/rDock/src/rDock_2013.1_src/data/scripts/dock_solv.prm

>  <Rbt.Receptor>
prm/blind_docking_60.prm

>  <SCORE>
-19.6834

>  <SCORE.INTER>
-19.6834

>  <SCORE.INTER.CONST>
1

>  <SCORE.INTER.POLAR>
0

>  <SCORE.INTER.ROT>
0

>  <SCORE.INTER.SOLV>
4.17428

>  <SCORE.INTER.VDW>
-18.1137

>  <SCORE.INTER.norm>
-1.96834

>  <SCORE.INTRA>
0

>  <SCORE.INTRA.DIHEDRAL>
0

>  <SCORE.INTRA.DIHEDRAL.0>
0

>  <SCORE.INTRA.POLAR>
0

>  <SCORE.INTRA.POLAR.0>
0

>  <SCORE.INTRA.REPUL>
0

>  <SCORE.INTRA.REPUL.0>
0

>  <SCORE.INTRA.SOLV>
0

>  <SCORE.INTRA.SOLV.lig_0>
-4.25352

>  <SCORE.INTRA.VDW>
0

>  <SCORE.INTRA.VDW.0>
0

>  <SCORE.INTRA.norm>
0

>  <SCORE.RESTR>
0

>  <SCORE.RESTR.CAVITY>
0

>  <SCORE.RESTR.norm>
0

>  <SCORE.SYSTEM>
0

>  <SCORE.SYSTEM.CONST>
0

>  <SCORE.SYSTEM.DIHEDRAL>
0

>  <SCORE.SYSTEM.SOLV>
0

>  <SCORE.SYSTEM.norm>
0

>  <SCORE.heavy>
10

>  <SCORE.norm>
-1.96834

>  <RMSD>
0.383

$$$$
ligand
 OpenBabel11021811423D
libRbt.so/2013.1/901 2013/11/27
 10 11  0  0  0  0  0  0  0  0999 V2000
   53.4387  -13.2877    8.9405 N   0  0  0  0  0  0  0  0  0  0  0  0
   53.6808  -14.6013    9.2251 C   0  0  0  0  0  0  0  0  0  0  0  0
   54.0190  -15.4937    8.2581 N   0  0  0  0  0  0  0  0  0  0  0  0
   54.0923  -14.9324    7.0169 C   0  0  0  0  0  0  0  0  0  0  0  0
   53.8615  -13.6197    6.6785 C   0  0  0  0  0  0  0  0  0  0  0  0
   53.5060  -12.6971    7.6665 C   0  0  0  0  0  0  0  0  0  0  0  0
   53.2621  -11.5130    7.5641 O   0  0  0  0  0  0  0  0  0  0  0  0
   54.0436  -13.4781    5.3293 N   0  0  0  0  0  0  0  0  0  0  0  0
   54.3769  -14.6752    4.8582 C   0  0  0  0  0  0  0  0  0  0  0  0
   54.4181  -15.6148    5.8713 N   0  0  0  0  0  0  0  0  0  0  0  0
  1  2  1  0  0  0  0
  1  6  1  0  0  0  0
  2  3  2  0  0  0  0
  3  4  1  0  0  0  0
  4  5  2  0  0  0  0
  4 10  1  0  0  0  0
  5  6  1  0  0  0  0
  5  8  1  0  0  0  0
  6  7  2  0  0  0  0
  8  9  1  0  0  0  0
  9 10  2  0  0  0  0
M  END
>  <CHROM.1>
53.85818309,-13.94530751,7.15116545,-2.81917034,1.30941807,-0.94801485

>  <Name>
ligand

>  <RI>
0

>  <Rbt.Current_Directory>
/home/itssahil/PROJECTS/Mol_Feturizer/New_Systems/rnas/2EEV

>  <Rbt.Executable>
rbdock ($Id: //depot/dev/client3/rdock/2013.1/src/exe/rbdock.cxx#4 $)

>  <Rbt.Library>
libRbt.so (2013.1, Build901 2013/11/27)

>  <Rbt.Parameter_File>
/export/apps/rDock/src/rDock_2013.1_src/data/scripts/dock_solv.prm

>  <Rbt.Receptor>
prm/pocket_docking_7.prm

>  <SCORE>
-19.685

>  <SCORE.INTER>
-19.685

>  <SCORE.INTER.CONST>
1

>  <SCORE.INTER.POLAR>
0

>  <SCORE.INTER.ROT>
0

>  <SCORE.INTER.SOLV>
4.18116

>  <SCORE.INTER.VDW>
-18.1171

>  <SCORE.INTER.norm>
-1.9685

>  <SCORE.INTRA>
0

>  <SCORE.INTRA.DIHEDRAL>
0

>  <SCORE.INTRA.DIHEDRAL.0>
0

>  <SCORE.INTRA.POLAR>
0

>  <SCORE.INTRA.POLAR.0>
0

>  <SCORE.INTRA.REPUL>
0

>  <SCORE.INTRA.REPUL.0>
0

>  <SCORE.INTRA.SOLV>
0

>  <SCORE.INTRA.SOLV.lig_0>
-4.25352

>  <SCORE.INTRA.VDW>
0

>  <SCORE.INTRA.VDW.0>
0

>  <SCORE.INTRA.norm>
0

>  <SCORE.RESTR>
0

>  <SCORE.RESTR.CAVITY>
0

>  <SCORE.RESTR.norm>
0

>  <SCORE.SYSTEM>
0

>  <SCORE.SYSTEM.CONST>
0

>  <SCORE.SYSTEM.DIHEDRAL>
0

>  <SCORE.SYSTEM.SOLV>
0

>  <SCORE.SYSTEM.norm>
0

>  <SCORE.heavy>
10

>  <SCORE.norm>
-1.9685

>  <RMSD>
0.383

$$$$
ligand
 OpenBabel11021811423D
libRbt.so/2013.1/901 2013/11/27
 10 11  0  0  0  0  0  0  0  0999 V2000
   53.5189  -13.3358    8.9376 N   0  0  0  0  0  0  0  0  0  0  0  0
   53.7705  -14.6515    9.2039 C   0  0  0  0  0  0  0  0  0  0  0  0
   54.0795  -15.5358    8.2199 N   0  0  0  0  0  0  0  0  0  0  0  0
   54.1142  -14.9644    6.9815 C   0  0  0  0  0  0  0  0  0  0  0  0
   53.8722  -13.6493    6.6610 C   0  0  0  0  0  0  0  0  0  0  0  0
   53.5466  -12.7349    7.6669 C   0  0  0  0  0  0  0  0  0  0  0  0
   53.2989  -11.5503    7.5815 O   0  0  0  0  0  0  0  0  0  0  0  0
   54.0127  -13.4967    5.3081 N   0  0  0  0  0  0  0  0  0  0  0  0
   54.3321  -14.6897    4.8173 C   0  0  0  0  0  0  0  0  0  0  0  0
   54.4051  -15.6373    5.8211 N   0  0  0  0  0  0  0  0  0  0  0  0
  1  2  1  0  0  0  0
  1  6  1  0  0  0  0
  2  3  2  0  0  0  0
  3  4  1  0  0  0  0
  4  5  2  0  0  0  0
  4 10  1  0  0  0  0
  5  6  1  0  0  0  0
  5  8  1  0  0  0  0
  6  7  2  0  0  0  0
  8  9  1  0  0  0  0
  9 10  2  0  0  0  0
M  END
>  <CHROM.1>
53.88365560,-13.97867949,7.13091741,-2.71454317,1.32550933,-1.04127241

>  <Name>
ligand

>  <RI>
0

>  <Rbt.Current_Directory>
/home/itssahil/PROJECTS/Mol_Feturizer/New_Systems/rnas/2EEV

>  <Rbt.Executable>
rbdock ($Id: //depot/dev/client3/rdock/2013.1/src/exe/rbdock.cxx#4 $)

>  <Rbt.Library>
libRbt.so (2013.1, Build901 2013/11/27)

>  <Rbt.Parameter_File>
/export/apps/rDock/src/rDock_2013.1_src/data/scripts/dock_solv.prm

>  <Rbt.Receptor>
prm/blind_docking_100.prm

>  <SCORE>
-19.676

>  <SCORE.INTER>
-19.676

>  <SCORE.INTER.CONST>
1

>  <SCORE.INTER.POLAR>
0

>  <SCORE.INTER.ROT>
0

>  <SCORE.INTER.SOLV>
4.18051

>  <SCORE.INTER.VDW>
-18.1108

>  <SCORE.INTER.norm>
-1.9676

>  <SCORE.INTRA>
0

>  <SCORE.INTRA.DIHEDRAL>
0

>  <SCORE.INTRA.DIHEDRAL.0>
0

>  <SCORE.INTRA.POLAR>
0

>  <SCORE.INTRA.POLAR.0>
0

>  <SCORE.INTRA.REPUL>
0

>  <SCORE.INTRA.REPUL.0>
0

>  <SCORE.INTRA.SOLV>
0

>  <SCORE.INTRA.SOLV.lig_0>
-4.25352

>  <SCORE.INTRA.VDW>
0

>  <SCORE.INTRA.VDW.0>
0

>  <SCORE.INTRA.norm>
0

>  <SCORE.RESTR>
0

>  <SCORE.RESTR.CAVITY>
0

>  <SCORE.RESTR.norm>
0

>  <SCORE.SYSTEM>
0

>  <SCORE.SYSTEM.CONST>
0

>  <SCORE.SYSTEM.DIHEDRAL>
0

>  <SCORE.SYSTEM.SOLV>
0

>  <SCORE.SYSTEM.norm>
0

>  <SCORE.heavy>
10

>  <SCORE.norm>
-1.9676

>  <RMSD>
0.384

$$$$
ligand
 OpenBabel11021811423D
libRbt.so/2013.1/901 2013/11/27
 10 11  0  0  0  0  0  0  0  0999 V2000
   53.4493  -13.2873    8.9440 N   0  0  0  0  0  0  0  0  0  0  0  0
   53.6816  -14.6033    9.2257 C   0  0  0  0  0  0  0  0  0  0  0  0
   54.0123  -15.4963    8.2567 N   0  0  0  0  0  0  0  0  0  0  0  0
   54.0889  -14.9330    7.0165 C   0  0  0  0  0  0  0  0  0  0  0  0
   53.8678  -13.6179    6.6810 C   0  0  0  0  0  0  0  0  0  0  0  0
   53.5201  -12.6946    7.6711 C   0  0  0  0  0  0  0  0  0  0  0  0
   53.2851  -11.5085    7.5713 O   0  0  0  0  0  0  0  0  0  0  0  0
   54.0500  -13.4750    5.3319 N   0  0  0  0  0  0  0  0  0  0  0  0
   54.3737  -14.6736    4.8582 C   0  0  0  0  0  0  0  0  0  0  0  0
   54.4086  -15.6156    5.8693 N   0  0  0  0  0  0  0  0  0  0  0  0
  1  2  1  0  0  0  0
  1  6  1  0  0  0  0
  2  3  2  0  0  0  0
  3  4  1  0  0  0  0
  4  5  2  0  0  0  0
  4 10  1  0  0  0  0
  5  6  1  0  0  0  0
  5  8  1  0  0  0  0
  6  7  2  0  0  0  0
  8  9  1  0  0  0  0
  9 10  2  0  0  0  0
M  END
>  <CHROM.1>
53.86238893,-13.94444433,7.15298731,-2.83426305,1.31601701,-0.93140740

>  <Name>
ligand

>  <RI>
0

>  <Rbt.Current_Directory>
/home/itssahil/PROJECTS/Mol_Feturizer/New_Systems/rnas/2EEV

>  <Rbt.Executable>
rbdock ($Id: //depot/dev/client3/rdock/2013.1/src/exe/rbdock.cxx#4 $)

>  <Rbt.Library>
libRbt.so (2013.1, Build901 2013/11/27)

>  <Rbt.Parameter_File>
/export/apps/rDock/src/rDock_2013.1_src/data/scripts/dock_solv.prm

>  <Rbt.Receptor>
prm/blind_docking_80.prm

>  <SCORE>
-19.6859

>  <SCORE.INTER>
-19.6859

>  <SCORE.INTER.CONST>
1

>  <SCORE.INTER.POLAR>
0

>  <SCORE.INTER.ROT>
0

>  <SCORE.INTER.SOLV>
4.2008

>  <SCORE.INTER.VDW>
-18.1242

>  <SCORE.INTER.norm>
-1.96859

>  <SCORE.INTRA>
0

>  <SCORE.INTRA.DIHEDRAL>
0

>  <SCORE.INTRA.DIHEDRAL.0>
0

>  <SCORE.INTRA.POLAR>
0

>  <SCORE.INTRA.POLAR.0>
0

>  <SCORE.INTRA.REPUL>
0

>  <SCORE.INTRA.REPUL.0>
0

>  <SCORE.INTRA.SOLV>
0

>  <SCORE.INTRA.SOLV.lig_0>
-4.25352

>  <SCORE.INTRA.VDW>
0

>  <SCORE.INTRA.VDW.0>
0

>  <SCORE.INTRA.norm>
0

>  <SCORE.RESTR>
0

>  <SCORE.RESTR.CAVITY>
0

>  <SCORE.RESTR.norm>
0

>  <SCORE.SYSTEM>
0

>  <SCORE.SYSTEM.CONST>
0

>  <SCORE.SYSTEM.DIHEDRAL>
0

>  <SCORE.SYSTEM.SOLV>
0

>  <SCORE.SYSTEM.norm>
0

>  <SCORE.heavy>
10

>  <SCORE.norm>
-1.96859

>  <RMSD>
0.384

$$$$
ligand
 OpenBabel11021811423D
libRbt.so/2013.1/901 2013/11/27
 10 11  0  0  0  0  0  0  0  0999 V2000
   53.4584  -13.3120    8.9389 N   0  0  0  0  0  0  0  0  0  0  0  0
   53.6982  -14.6293    9.2083 C   0  0  0  0  0  0  0  0  0  0  0  0
   54.0305  -15.5120    8.2305 N   0  0  0  0  0  0  0  0  0  0  0  0
   54.1005  -14.9373    6.9951 C   0  0  0  0  0  0  0  0  0  0  0  0
   53.8718  -13.6205    6.6719 C   0  0  0  0  0  0  0  0  0  0  0  0
   53.5224  -12.7077    7.6712 C   0  0  0  0  0  0  0  0  0  0  0  0
   53.2812  -11.5220    7.5825 O   0  0  0  0  0  0  0  0  0  0  0  0
   54.0493  -13.4647    5.3236 N   0  0  0  0  0  0  0  0  0  0  0  0
   54.3776  -14.6575    4.8383 C   0  0  0  0  0  0  0  0  0  0  0  0
   54.4202  -15.6081    5.8410 N   0  0  0  0  0  0  0  0  0  0  0  0
  1  2  1  0  0  0  0
  1  6  1  0  0  0  0
  2  3  2  0  0  0  0
  3  4  1  0  0  0  0
  4  5  2  0  0  0  0
  4 10  1  0  0  0  0
  5  6  1  0  0  0  0
  5  8  1  0  0  0  0
  6  7  2  0  0  0  0
  8  9  1  0  0  0  0
  9 10  2  0  0  0  0
M  END
>  <CHROM.1>
53.86945860,-13.95119621,7.14095951,-2.81301432,1.31369818,-0.94311851

>  <Name>
ligand

>  <RI>
0

>  <Rbt.Current_Directory>
/home/itssahil/PROJECTS/Mol_Feturizer/New_Systems/rnas/2EEV

>  <Rbt.Executable>
rbdock ($Id: //depot/dev/client3/rdock/2013.1/src/exe/rbdock.cxx#4 $)

>  <Rbt.Library>
libRbt.so (2013.1, Build901 2013/11/27)

>  <Rbt.Parameter_File>
/export/apps/rDock/src/rDock_2013.1_src/data/scripts/dock_solv.prm

>  <Rbt.Receptor>
prm/pocket_docking_3.prm

>  <SCORE>
-19.6821

>  <SCORE.INTER>
-19.6821

>  <SCORE.INTER.CONST>
1

>  <SCORE.INTER.POLAR>
0

>  <SCORE.INTER.ROT>
0

>  <SCORE.INTER.SOLV>
4.18613

>  <SCORE.INTER.VDW>
-18.1168

>  <SCORE.INTER.norm>
-1.96821

>  <SCORE.INTRA>
0

>  <SCORE.INTRA.DIHEDRAL>
0

>  <SCORE.INTRA.DIHEDRAL.0>
0

>  <SCORE.INTRA.POLAR>
0

>  <SCORE.INTRA.POLAR.0>
0

>  <SCORE.INTRA.REPUL>
0

>  <SCORE.INTRA.REPUL.0>
0

>  <SCORE.INTRA.SOLV>
0

>  <SCORE.INTRA.SOLV.lig_0>
-4.25352

>  <SCORE.INTRA.VDW>
0

>  <SCORE.INTRA.VDW.0>
0

>  <SCORE.INTRA.norm>
0

>  <SCORE.RESTR>
0

>  <SCORE.RESTR.CAVITY>
0

>  <SCORE.RESTR.norm>
0

>  <SCORE.SYSTEM>
0

>  <SCORE.SYSTEM.CONST>
0

>  <SCORE.SYSTEM.DIHEDRAL>
0

>  <SCORE.SYSTEM.SOLV>
0

>  <SCORE.SYSTEM.norm>
0

>  <SCORE.heavy>
10

>  <SCORE.norm>
-1.96821

>  <RMSD>
0.384

$$$$
ligand
 OpenBabel11021811423D
libRbt.so/2013.1/901 2013/11/27
 10 11  0  0  0  0  0  0  0  0999 V2000
   53.4458  -13.2870    8.9405 N   0  0  0  0  0  0  0  0  0  0  0  0
   53.6820  -14.6018    9.2249 C   0  0  0  0  0  0  0  0  0  0  0  0
   54.0177  -15.4953    8.2581 N   0  0  0  0  0  0  0  0  0  0  0  0
   54.0948  -14.9338    7.0171 C   0  0  0  0  0  0  0  0  0  0  0  0
   53.8699  -13.6201    6.6789 C   0  0  0  0  0  0  0  0  0  0  0  0
   53.5170  -12.6963    7.6667 C   0  0  0  0  0  0  0  0  0  0  0  0
   53.2782  -11.5112    7.5644 O   0  0  0  0  0  0  0  0  0  0  0  0
   54.0542  -13.4788    5.3299 N   0  0  0  0  0  0  0  0  0  0  0  0
   54.3830  -14.6772    4.8589 C   0  0  0  0  0  0  0  0  0  0  0  0
   54.4191  -15.6172    5.8717 N   0  0  0  0  0  0  0  0  0  0  0  0
  1  2  1  0  0  0  0
  1  6  1  0  0  0  0
  2  3  2  0  0  0  0
  3  4  1  0  0  0  0
  4  5  2  0  0  0  0
  4 10  1  0  0  0  0
  5  6  1  0  0  0  0
  5  8  1  0  0  0  0
  6  7  2  0  0  0  0
  8  9  1  0  0  0  0
  9 10  2  0  0  0  0
M  END
>  <CHROM.1>
53.86462709,-13.94582825,7.15140370,-2.83248083,1.31208057,-0.93484308

>  <Name>
ligand

>  <RI>
0

>  <Rbt.Current_Directory>
/home/itssahil/PROJECTS/Mol_Feturizer/New_Systems/rnas/2EEV

>  <Rbt.Executable>
rbdock ($Id: //depot/dev/client3/rdock/2013.1/src/exe/rbdock.cxx#4 $)

>  <Rbt.Library>
libRbt.so (2013.1, Build901 2013/11/27)

>  <Rbt.Parameter_File>
/export/apps/rDock/src/rDock_2013.1_src/data/scripts/dock_solv.prm

>  <Rbt.Receptor>
prm/pocket_docking_4.prm

>  <SCORE>
-19.6849

>  <SCORE.INTER>
-19.6849

>  <SCORE.INTER.CONST>
1

>  <SCORE.INTER.POLAR>
0

>  <SCORE.INTER.ROT>
0

>  <SCORE.INTER.SOLV>
4.18887

>  <SCORE.INTER.VDW>
-18.1196

>  <SCORE.INTER.norm>
-1.96849

>  <SCORE.INTRA>
0

>  <SCORE.INTRA.DIHEDRAL>
0

>  <SCORE.INTRA.DIHEDRAL.0>
0

>  <SCORE.INTRA.POLAR>
0

>  <SCORE.INTRA.POLAR.0>
0

>  <SCORE.INTRA.REPUL>
0

>  <SCORE.INTRA.REPUL.0>
0

>  <SCORE.INTRA.SOLV>
0

>  <SCORE.INTRA.SOLV.lig_0>
-4.25352

>  <SCORE.INTRA.VDW>
0

>  <SCORE.INTRA.VDW.0>
0

>  <SCORE.INTRA.norm>
0

>  <SCORE.RESTR>
0

>  <SCORE.RESTR.CAVITY>
0

>  <SCORE.RESTR.norm>
0

>  <SCORE.SYSTEM>
0

>  <SCORE.SYSTEM.CONST>
0

>  <SCORE.SYSTEM.DIHEDRAL>
0

>  <SCORE.SYSTEM.SOLV>
0

>  <SCORE.SYSTEM.norm>
0

>  <SCORE.heavy>
10

>  <SCORE.norm>
-1.96849

>  <RMSD>
0.384

$$$$
ligand
 OpenBabel11021811423D
libRbt.so/2013.1/901 2013/11/27
 10 11  0  0  0  0  0  0  0  0999 V2000
   53.4867  -13.3255    8.9335 N   0  0  0  0  0  0  0  0  0  0  0  0
   53.7303  -14.6413    9.2063 C   0  0  0  0  0  0  0  0  0  0  0  0
   54.0549  -15.5278    8.2294 N   0  0  0  0  0  0  0  0  0  0  0  0
   54.1132  -14.9584    6.9909 C   0  0  0  0  0  0  0  0  0  0  0  0
   53.8801  -13.6432    6.6642 C   0  0  0  0  0  0  0  0  0  0  0  0
   53.5386  -12.7266    7.6627 C   0  0  0  0  0  0  0  0  0  0  0  0
   53.2952  -11.5415    7.5711 O   0  0  0  0  0  0  0  0  0  0  0  0
   54.0453  -13.4930    5.3137 N   0  0  0  0  0  0  0  0  0  0  0  0
   54.3707  -14.6875    4.8306 C   0  0  0  0  0  0  0  0  0  0  0  0
   54.4234  -15.6337    5.8369 N   0  0  0  0  0  0  0  0  0  0  0  0
  1  2  1  0  0  0  0
  1  6  1  0  0  0  0
  2  3  2  0  0  0  0
  3  4  1  0  0  0  0
  4  5  2  0  0  0  0
  4 10  1  0  0  0  0
  5  6  1  0  0  0  0
  5  8  1  0  0  0  0
  6  7  2  0  0  0  0
  8  9  1  0  0  0  0
  9 10  2  0  0  0  0
M  END
>  <CHROM.1>
53.88234025,-13.97191282,7.13468355,-2.78144452,1.31789592,-0.97793546

>  <Name>
ligand

>  <RI>
0

>  <Rbt.Current_Directory>
/home/itssahil/PROJECTS/Mol_Feturizer/New_Systems/rnas/2EEV

>  <Rbt.Executable>
rbdock ($Id: //depot/dev/client3/rdock/2013.1/src/exe/rbdock.cxx#4 $)

>  <Rbt.Library>
libRbt.so (2013.1, Build901 2013/11/27)

>  <Rbt.Parameter_File>
/export/apps/rDock/src/rDock_2013.1_src/data/scripts/dock_solv.prm

>  <Rbt.Receptor>
prm/pocket_docking_6.prm

>  <SCORE>
-19.6591

>  <SCORE.INTER>
-19.6591

>  <SCORE.INTER.CONST>
1

>  <SCORE.INTER.POLAR>
0

>  <SCORE.INTER.ROT>
0

>  <SCORE.INTER.SOLV>
4.17891

>  <SCORE.INTER.VDW>
-18.0991

>  <SCORE.INTER.norm>
-1.96591

>  <SCORE.INTRA>
0

>  <SCORE.INTRA.DIHEDRAL>
0

>  <SCORE.INTRA.DIHEDRAL.0>
0

>  <SCORE.INTRA.POLAR>
0

>  <SCORE.INTRA.POLAR.0>
0

>  <SCORE.INTRA.REPUL>
0

>  <SCORE.INTRA.REPUL.0>
0

>  <SCORE.INTRA.SOLV>
0

>  <SCORE.INTRA.SOLV.lig_0>
-4.25352

>  <SCORE.INTRA.VDW>
0

>  <SCORE.INTRA.VDW.0>
0

>  <SCORE.INTRA.norm>
0

>  <SCORE.RESTR>
0

>  <SCORE.RESTR.CAVITY>
0

>  <SCORE.RESTR.norm>
0

>  <SCORE.SYSTEM>
0

>  <SCORE.SYSTEM.CONST>
0

>  <SCORE.SYSTEM.DIHEDRAL>
0

>  <SCORE.SYSTEM.SOLV>
0

>  <SCORE.SYSTEM.norm>
0

>  <SCORE.heavy>
10

>  <SCORE.norm>
-1.96591

>  <RMSD>
0.384

$$$$
ligand
 OpenBabel11021811423D
libRbt.so/2013.1/901 2013/11/27
 10 11  0  0  0  0  0  0  0  0999 V2000
   53.5154  -13.3457    8.9329 N   0  0  0  0  0  0  0  0  0  0  0  0
   53.7652  -14.6621    9.1970 C   0  0  0  0  0  0  0  0  0  0  0  0
   54.0809  -15.5434    8.2124 N   0  0  0  0  0  0  0  0  0  0  0  0
   54.1240  -14.9683    6.9760 C   0  0  0  0  0  0  0  0  0  0  0  0
   53.8842  -13.6522    6.6579 C   0  0  0  0  0  0  0  0  0  0  0  0
   53.5517  -12.7409    7.6643 C   0  0  0  0  0  0  0  0  0  0  0  0
   53.3045  -11.5560    7.5808 O   0  0  0  0  0  0  0  0  0  0  0  0
   54.0338  -13.4955    5.3064 N   0  0  0  0  0  0  0  0  0  0  0  0
   54.3566  -14.6870    4.8142 C   0  0  0  0  0  0  0  0  0  0  0  0
   54.4228  -15.6377    5.8155 N   0  0  0  0  0  0  0  0  0  0  0  0
  1  2  1  0  0  0  0
  1  6  1  0  0  0  0
  2  3  2  0  0  0  0
  3  4  1  0  0  0  0
  4  5  2  0  0  0  0
  4 10  1  0  0  0  0
  5  6  1  0  0  0  0
  5  8  1  0  0  0  0
  6  7  2  0  0  0  0
  8  9  1  0  0  0  0
  9 10  2  0  0  0  0
M  END
>  <CHROM.1>
53.89241405,-13.98300794,7.12682232,-2.73823793,1.32197003,-1.01526444

>  <Name>
ligand

>  <RI>
0

>  <Rbt.Current_Directory>
/home/itssahil/PROJECTS/Mol_Feturizer/New_Systems/rnas/2EEV

>  <Rbt.Executable>
rbdock ($Id: //depot/dev/client3/rdock/2013.1/src/exe/rbdock.cxx#4 $)

>  <Rbt.Library>
libRbt.so (2013.1, Build901 2013/11/27)

>  <Rbt.Parameter_File>
/export/apps/rDock/src/rDock_2013.1_src/data/scripts/dock_solv.prm

>  <Rbt.Receptor>
prm/pocket_docking_7.prm

>  <SCORE>
-19.6843

>  <SCORE.INTER>
-19.6843

>  <SCORE.INTER.CONST>
1

>  <SCORE.INTER.POLAR>
0

>  <SCORE.INTER.ROT>
0

>  <SCORE.INTER.SOLV>
4.17366

>  <SCORE.INTER.VDW>
-18.1141

>  <SCORE.INTER.norm>
-1.96843

>  <SCORE.INTRA>
0

>  <SCORE.INTRA.DIHEDRAL>
0

>  <SCORE.INTRA.DIHEDRAL.0>
0

>  <SCORE.INTRA.POLAR>
0

>  <SCORE.INTRA.POLAR.0>
0

>  <SCORE.INTRA.REPUL>
0

>  <SCORE.INTRA.REPUL.0>
0

>  <SCORE.INTRA.SOLV>
0

>  <SCORE.INTRA.SOLV.lig_0>
-4.25352

>  <SCORE.INTRA.VDW>
0

>  <SCORE.INTRA.VDW.0>
0

>  <SCORE.INTRA.norm>
0

>  <SCORE.RESTR>
0

>  <SCORE.RESTR.CAVITY>
0

>  <SCORE.RESTR.norm>
0

>  <SCORE.SYSTEM>
0

>  <SCORE.SYSTEM.CONST>
0

>  <SCORE.SYSTEM.DIHEDRAL>
0

>  <SCORE.SYSTEM.SOLV>
0

>  <SCORE.SYSTEM.norm>
0

>  <SCORE.heavy>
10

>  <SCORE.norm>
-1.96843

>  <RMSD>
0.384

$$$$
ligand
 OpenBabel11021811423D
libRbt.so/2013.1/901 2013/11/27
 10 11  0  0  0  0  0  0  0  0999 V2000
   53.5221  -13.3397    8.9398 N   0  0  0  0  0  0  0  0  0  0  0  0
   53.7670  -14.6581    9.1988 C   0  0  0  0  0  0  0  0  0  0  0  0
   54.0746  -15.5377    8.2101 N   0  0  0  0  0  0  0  0  0  0  0  0
   54.1151  -14.9589    6.9754 C   0  0  0  0  0  0  0  0  0  0  0  0
   53.8799  -13.6408    6.6623 C   0  0  0  0  0  0  0  0  0  0  0  0
   53.5558  -12.7312    7.6730 C   0  0  0  0  0  0  0  0  0  0  0  0
   53.3136  -11.5449    7.5943 O   0  0  0  0  0  0  0  0  0  0  0  0
   54.0247  -13.4805    5.3107 N   0  0  0  0  0  0  0  0  0  0  0  0
   54.3400  -14.6719    4.8135 C   0  0  0  0  0  0  0  0  0  0  0  0
   54.4060  -15.6260    5.8115 N   0  0  0  0  0  0  0  0  0  0  0  0
  1  2  1  0  0  0  0
  1  6  1  0  0  0  0
  2  3  2  0  0  0  0
  3  4  1  0  0  0  0
  4  5  2  0  0  0  0
  4 10  1  0  0  0  0
  5  6  1  0  0  0  0
  5  8  1  0  0  0  0
  6  7  2  0  0  0  0
  8  9  1  0  0  0  0
  9 10  2  0  0  0  0
M  END
>  <CHROM.1>
53.88863171,-13.97308170,7.13021628,-2.73341174,1.32801899,-1.01681035

>  <Name>
ligand

>  <RI>
0

>  <Rbt.Current_Directory>
/home/itssahil/PROJECTS/Mol_Feturizer/New_Systems/rnas/2EEV

>  <Rbt.Executable>
rbdock ($Id: //depot/dev/client3/rdock/2013.1/src/exe/rbdock.cxx#4 $)

>  <Rbt.Library>
libRbt.so (2013.1, Build901 2013/11/27)

>  <Rbt.Parameter_File>
/export/apps/rDock/src/rDock_2013.1_src/data/scripts/dock_solv.prm

>  <Rbt.Receptor>
prm/blind_docking_100.prm

>  <SCORE>
-19.6805

>  <SCORE.INTER>
-19.6805

>  <SCORE.INTER.CONST>
1

>  <SCORE.INTER.POLAR>
0

>  <SCORE.INTER.ROT>
0

>  <SCORE.INTER.SOLV>
4.18966

>  <SCORE.INTER.VDW>
-18.1169

>  <SCORE.INTER.norm>
-1.96805

>  <SCORE.INTRA>
0

>  <SCORE.INTRA.DIHEDRAL>
0

>  <SCORE.INTRA.DIHEDRAL.0>
0

>  <SCORE.INTRA.POLAR>
0

>  <SCORE.INTRA.POLAR.0>
0

>  <SCORE.INTRA.REPUL>
0

>  <SCORE.INTRA.REPUL.0>
0

>  <SCORE.INTRA.SOLV>
0

>  <SCORE.INTRA.SOLV.lig_0>
-4.25352

>  <SCORE.INTRA.VDW>
0

>  <SCORE.INTRA.VDW.0>
0

>  <SCORE.INTRA.norm>
0

>  <SCORE.RESTR>
0

>  <SCORE.RESTR.CAVITY>
0

>  <SCORE.RESTR.norm>
0

>  <SCORE.SYSTEM>
0

>  <SCORE.SYSTEM.CONST>
0

>  <SCORE.SYSTEM.DIHEDRAL>
0

>  <SCORE.SYSTEM.SOLV>
0

>  <SCORE.SYSTEM.norm>
0

>  <SCORE.heavy>
10

>  <SCORE.norm>
-1.96805

>  <RMSD>
0.385

$$$$
ligand
 OpenBabel11021811423D
libRbt.so/2013.1/901 2013/11/27
 10 11  0  0  0  0  0  0  0  0999 V2000
   53.5217  -13.3427    8.9373 N   0  0  0  0  0  0  0  0  0  0  0  0
   53.7654  -14.6613    9.1963 C   0  0  0  0  0  0  0  0  0  0  0  0
   54.0750  -15.5407    8.2082 N   0  0  0  0  0  0  0  0  0  0  0  0
   54.1189  -14.9614    6.9737 C   0  0  0  0  0  0  0  0  0  0  0  0
   53.8851  -13.6430    6.6606 C   0  0  0  0  0  0  0  0  0  0  0  0
   53.5589  -12.7336    7.6708 C   0  0  0  0  0  0  0  0  0  0  0  0
   53.3175  -11.5473    7.5919 O   0  0  0  0  0  0  0  0  0  0  0  0
   54.0333  -13.4823    5.3094 N   0  0  0  0  0  0  0  0  0  0  0  0
   54.3492  -14.6736    4.8125 C   0  0  0  0  0  0  0  0  0  0  0  0
   54.4123  -15.6282    5.8104 N   0  0  0  0  0  0  0  0  0  0  0  0
  1  2  1  0  0  0  0
  1  6  1  0  0  0  0
  2  3  2  0  0  0  0
  3  4  1  0  0  0  0
  4  5  2  0  0  0  0
  4 10  1  0  0  0  0
  5  6  1  0  0  0  0
  5  8  1  0  0  0  0
  6  7  2  0  0  0  0
  8  9  1  0  0  0  0
  9 10  2  0  0  0  0
M  END
>  <CHROM.1>
53.89247466,-13.97551884,7.12838044,-2.74327763,1.32711711,-1.00685047

>  <Name>
ligand

>  <RI>
0

>  <Rbt.Current_Directory>
/home/itssahil/PROJECTS/Mol_Feturizer/New_Systems/rnas/2EEV

>  <Rbt.Executable>
rbdock ($Id: //depot/dev/client3/rdock/2013.1/src/exe/rbdock.cxx#4 $)

>  <Rbt.Library>
libRbt.so (2013.1, Build901 2013/11/27)

>  <Rbt.Parameter_File>
/export/apps/rDock/src/rDock_2013.1_src/data/scripts/dock_solv.prm

>  <Rbt.Receptor>
prm/blind_docking_80.prm

>  <SCORE>
-19.6837

>  <SCORE.INTER>
-19.6837

>  <SCORE.INTER.CONST>
1

>  <SCORE.INTER.POLAR>
0

>  <SCORE.INTER.ROT>
0

>  <SCORE.INTER.SOLV>
4.18802

>  <SCORE.INTER.VDW>
-18.1185

>  <SCORE.INTER.norm>
-1.96837

>  <SCORE.INTRA>
0

>  <SCORE.INTRA.DIHEDRAL>
0

>  <SCORE.INTRA.DIHEDRAL.0>
0

>  <SCORE.INTRA.POLAR>
0

>  <SCORE.INTRA.POLAR.0>
0

>  <SCORE.INTRA.REPUL>
0

>  <SCORE.INTRA.REPUL.0>
0

>  <SCORE.INTRA.SOLV>
0

>  <SCORE.INTRA.SOLV.lig_0>
-4.25352

>  <SCORE.INTRA.VDW>
0

>  <SCORE.INTRA.VDW.0>
0

>  <SCORE.INTRA.norm>
0

>  <SCORE.RESTR>
0

>  <SCORE.RESTR.CAVITY>
0

>  <SCORE.RESTR.norm>
0

>  <SCORE.SYSTEM>
0

>  <SCORE.SYSTEM.CONST>
0

>  <SCORE.SYSTEM.DIHEDRAL>
0

>  <SCORE.SYSTEM.SOLV>
0

>  <SCORE.SYSTEM.norm>
0

>  <SCORE.heavy>
10

>  <SCORE.norm>
-1.96837

>  <RMSD>
0.385

$$$$
ligand
 OpenBabel11021811423D
libRbt.so/2013.1/901 2013/11/27
 10 11  0  0  0  0  0  0  0  0999 V2000
   53.4443  -13.2847    8.9375 N   0  0  0  0  0  0  0  0  0  0  0  0
   53.6835  -14.5987    9.2227 C   0  0  0  0  0  0  0  0  0  0  0  0
   54.0206  -15.4922    8.2564 N   0  0  0  0  0  0  0  0  0  0  0  0
   54.0957  -14.9314    7.0149 C   0  0  0  0  0  0  0  0  0  0  0  0
   53.8678  -13.6185    6.6759 C   0  0  0  0  0  0  0  0  0  0  0  0
   53.5135  -12.6947    7.6633 C   0  0  0  0  0  0  0  0  0  0  0  0
   53.2720  -11.5102    7.5603 O   0  0  0  0  0  0  0  0  0  0  0  0
   54.0510  -13.4778    5.3268 N   0  0  0  0  0  0  0  0  0  0  0  0
   54.3821  -14.6757    4.8563 C   0  0  0  0  0  0  0  0  0  0  0  0
   54.4208  -15.6150    5.8698 N   0  0  0  0  0  0  0  0  0  0  0  0
  1  2  1  0  0  0  0
  1  6  1  0  0  0  0
  2  3  2  0  0  0  0
  3  4  1  0  0  0  0
  4  5  2  0  0  0  0
  4 10  1  0  0  0  0
  5  6  1  0  0  0  0
  5  8  1  0  0  0  0
  6  7  2  0  0  0  0
  8  9  1  0  0  0  0
  9 10  2  0  0  0  0
M  END
>  <CHROM.1>
53.86350529,-13.94387074,7.14867133,-2.82561605,1.31068347,-0.94219303

>  <Name>
ligand

>  <RI>
0

>  <Rbt.Current_Directory>
/home/itssahil/PROJECTS/Mol_Feturizer/New_Systems/rnas/2EEV

>  <Rbt.Executable>
rbdock ($Id: //depot/dev/client3/rdock/2013.1/src/exe/rbdock.cxx#4 $)

>  <Rbt.Library>
libRbt.so (2013.1, Build901 2013/11/27)

>  <Rbt.Parameter_File>
/export/apps/rDock/src/rDock_2013.1_src/data/scripts/dock_solv.prm

>  <Rbt.Receptor>
prm/blind_docking_60.prm

>  <SCORE>
-19.6849

>  <SCORE.INTER>
-19.6849

>  <SCORE.INTER.CONST>
1

>  <SCORE.INTER.POLAR>
0

>  <SCORE.INTER.ROT>
0

>  <SCORE.INTER.SOLV>
4.18319

>  <SCORE.INTER.VDW>
-18.1177

>  <SCORE.INTER.norm>
-1.96849

>  <SCORE.INTRA>
0

>  <SCORE.INTRA.DIHEDRAL>
0

>  <SCORE.INTRA.DIHEDRAL.0>
0

>  <SCORE.INTRA.POLAR>
0

>  <SCORE.INTRA.POLAR.0>
0

>  <SCORE.INTRA.REPUL>
0

>  <SCORE.INTRA.REPUL.0>
0

>  <SCORE.INTRA.SOLV>
0

>  <SCORE.INTRA.SOLV.lig_0>
-4.25352

>  <SCORE.INTRA.VDW>
0

>  <SCORE.INTRA.VDW.0>
0

>  <SCORE.INTRA.norm>
0

>  <SCORE.RESTR>
0

>  <SCORE.RESTR.CAVITY>
0

>  <SCORE.RESTR.norm>
0

>  <SCORE.SYSTEM>
0

>  <SCORE.SYSTEM.CONST>
0

>  <SCORE.SYSTEM.DIHEDRAL>
0

>  <SCORE.SYSTEM.SOLV>
0

>  <SCORE.SYSTEM.norm>
0

>  <SCORE.heavy>
10

>  <SCORE.norm>
-1.96849

>  <RMSD>
0.386

$$$$
ligand
 OpenBabel11021811423D
libRbt.so/2013.1/901 2013/11/27
 10 11  0  0  0  0  0  0  0  0999 V2000
   53.4430  -13.2859    8.9388 N   0  0  0  0  0  0  0  0  0  0  0  0
   53.6834  -14.6000    9.2227 C   0  0  0  0  0  0  0  0  0  0  0  0
   54.0196  -15.4926    8.2553 N   0  0  0  0  0  0  0  0  0  0  0  0
   54.0927  -14.9309    7.0141 C   0  0  0  0  0  0  0  0  0  0  0  0
   53.8635  -13.6178    6.6764 C   0  0  0  0  0  0  0  0  0  0  0  0
   53.5101  -12.6950    7.6650 C   0  0  0  0  0  0  0  0  0  0  0  0
   53.2678  -11.5105    7.5632 O   0  0  0  0  0  0  0  0  0  0  0  0
   54.0448  -13.4760    5.3271 N   0  0  0  0  0  0  0  0  0  0  0  0
   54.3760  -14.6734    4.8553 C   0  0  0  0  0  0  0  0  0  0  0  0
   54.4167  -15.6134    5.8681 N   0  0  0  0  0  0  0  0  0  0  0  0
  1  2  1  0  0  0  0
  1  6  1  0  0  0  0
  2  3  2  0  0  0  0
  3  4  1  0  0  0  0
  4  5  2  0  0  0  0
  4 10  1  0  0  0  0
  5  6  1  0  0  0  0
  5  8  1  0  0  0  0
  6  7  2  0  0  0  0
  8  9  1  0  0  0  0
  9 10  2  0  0  0  0
M  END
>  <CHROM.1>
53.86012017,-13.94352045,7.14892354,-2.81994684,1.31101573,-0.94692388

>  <Name>
ligand

>  <RI>
0

>  <Rbt.Current_Directory>
/home/itssahil/PROJECTS/Mol_Feturizer/New_Systems/rnas/2EEV

>  <Rbt.Executable>
rbdock ($Id: //depot/dev/client3/rdock/2013.1/src/exe/rbdock.cxx#4 $)

>  <Rbt.Library>
libRbt.so (2013.1, Build901 2013/11/27)

>  <Rbt.Parameter_File>
/export/apps/rDock/src/rDock_2013.1_src/data/scripts/dock_solv.prm

>  <Rbt.Receptor>
prm/pocket_docking_6.prm

>  <SCORE>
-19.6855

>  <SCORE.INTER>
-19.6855

>  <SCORE.INTER.CONST>
1

>  <SCORE.INTER.POLAR>
0

>  <SCORE.INTER.ROT>
0

>  <SCORE.INTER.SOLV>
4.18408

>  <SCORE.INTER.VDW>
-18.1183

>  <SCORE.INTER.norm>
-1.96855

>  <SCORE.INTRA>
0

>  <SCORE.INTRA.DIHEDRAL>
0

>  <SCORE.INTRA.DIHEDRAL.0>
0

>  <SCORE.INTRA.POLAR>
0

>  <SCORE.INTRA.POLAR.0>
0

>  <SCORE.INTRA.REPUL>
0

>  <SCORE.INTRA.REPUL.0>
0

>  <SCORE.INTRA.SOLV>
0

>  <SCORE.INTRA.SOLV.lig_0>
-4.25352

>  <SCORE.INTRA.VDW>
0

>  <SCORE.INTRA.VDW.0>
0

>  <SCORE.INTRA.norm>
0

>  <SCORE.RESTR>
0

>  <SCORE.RESTR.CAVITY>
0

>  <SCORE.RESTR.norm>
0

>  <SCORE.SYSTEM>
0

>  <SCORE.SYSTEM.CONST>
0

>  <SCORE.SYSTEM.DIHEDRAL>
0

>  <SCORE.SYSTEM.SOLV>
0

>  <SCORE.SYSTEM.norm>
0

>  <SCORE.heavy>
10

>  <SCORE.norm>
-1.96855

>  <RMSD>
0.386

$$$$
ligand
 OpenBabel11021811423D
libRbt.so/2013.1/901 2013/11/27
 10 11  0  0  0  0  0  0  0  0999 V2000
   53.5159  -13.3846    8.9357 N   0  0  0  0  0  0  0  0  0  0  0  0
   53.7472  -14.7078    9.1825 C   0  0  0  0  0  0  0  0  0  0  0  0
   54.0560  -15.5794    8.1872 N   0  0  0  0  0  0  0  0  0  0  0  0
   54.1125  -14.9877    6.9592 C   0  0  0  0  0  0  0  0  0  0  0  0
   53.8915  -13.6642    6.6583 C   0  0  0  0  0  0  0  0  0  0  0  0
   53.5662  -12.7628    7.6759 C   0  0  0  0  0  0  0  0  0  0  0  0
   53.3350  -11.5737    7.6079 O   0  0  0  0  0  0  0  0  0  0  0  0
   54.0497  -13.4907    5.3099 N   0  0  0  0  0  0  0  0  0  0  0  0
   54.3592  -14.6794    4.8026 C   0  0  0  0  0  0  0  0  0  0  0  0
   54.4081  -15.6447    5.7908 N   0  0  0  0  0  0  0  0  0  0  0  0
  1  2  1  0  0  0  0
  1  6  1  0  0  0  0
  2  3  2  0  0  0  0
  3  4  1  0  0  0  0
  4  5  2  0  0  0  0
  4 10  1  0  0  0  0
  5  6  1  0  0  0  0
  5  8  1  0  0  0  0
  6  7  2  0  0  0  0
  8  9  1  0  0  0  0
  9 10  2  0  0  0  0
M  END
>  <CHROM.1>
53.89319475,-14.00164517,7.12265666,-2.78445292,1.33034966,-0.95645981

>  <Name>
ligand

>  <RI>
0

>  <Rbt.Current_Directory>
/home/itssahil/PROJECTS/Mol_Feturizer/New_Systems/rnas/2EEV

>  <Rbt.Executable>
rbdock ($Id: //depot/dev/client3/rdock/2013.1/src/exe/rbdock.cxx#4 $)

>  <Rbt.Library>
libRbt.so (2013.1, Build901 2013/11/27)

>  <Rbt.Parameter_File>
/export/apps/rDock/src/rDock_2013.1_src/data/scripts/dock_solv.prm

>  <Rbt.Receptor>
prm/blind_docking_60.prm

>  <SCORE>
-19.6805

>  <SCORE.INTER>
-19.6805

>  <SCORE.INTER.CONST>
1

>  <SCORE.INTER.POLAR>
0

>  <SCORE.INTER.ROT>
0

>  <SCORE.INTER.SOLV>
4.209

>  <SCORE.INTER.VDW>
-18.1233

>  <SCORE.INTER.norm>
-1.96805

>  <SCORE.INTRA>
0

>  <SCORE.INTRA.DIHEDRAL>
0

>  <SCORE.INTRA.DIHEDRAL.0>
0

>  <SCORE.INTRA.POLAR>
0

>  <SCORE.INTRA.POLAR.0>
0

>  <SCORE.INTRA.REPUL>
0

>  <SCORE.INTRA.REPUL.0>
0

>  <SCORE.INTRA.SOLV>
0

>  <SCORE.INTRA.SOLV.lig_0>
-4.25352

>  <SCORE.INTRA.VDW>
0

>  <SCORE.INTRA.VDW.0>
0

>  <SCORE.INTRA.norm>
0

>  <SCORE.RESTR>
0

>  <SCORE.RESTR.CAVITY>
0

>  <SCORE.RESTR.norm>
0

>  <SCORE.SYSTEM>
0

>  <SCORE.SYSTEM.CONST>
0

>  <SCORE.SYSTEM.DIHEDRAL>
0

>  <SCORE.SYSTEM.SOLV>
0

>  <SCORE.SYSTEM.norm>
0

>  <SCORE.heavy>
10

>  <SCORE.norm>
-1.96805

>  <RMSD>
0.387

$$$$
ligand
 OpenBabel11021811423D
libRbt.so/2013.1/901 2013/11/27
 10 11  0  0  0  0  0  0  0  0999 V2000
   53.5198  -13.3430    8.9294 N   0  0  0  0  0  0  0  0  0  0  0  0
   53.7663  -14.6594    9.1970 C   0  0  0  0  0  0  0  0  0  0  0  0
   54.0807  -15.5439    8.2149 N   0  0  0  0  0  0  0  0  0  0  0  0
   54.1262  -14.9719    6.9772 C   0  0  0  0  0  0  0  0  0  0  0  0
   53.8898  -13.6561    6.6555 C   0  0  0  0  0  0  0  0  0  0  0  0
   53.5587  -12.7415    7.6593 C   0  0  0  0  0  0  0  0  0  0  0  0
   53.3143  -11.5562    7.5727 O   0  0  0  0  0  0  0  0  0  0  0  0
   54.0410  -13.5031    5.3037 N   0  0  0  0  0  0  0  0  0  0  0  0
   54.3613  -14.6966    4.8148 C   0  0  0  0  0  0  0  0  0  0  0  0
   54.4244  -15.6449    5.8186 N   0  0  0  0  0  0  0  0  0  0  0  0
  1  2  1  0  0  0  0
  1  6  1  0  0  0  0
  2  3  2  0  0  0  0
  3  4  1  0  0  0  0
  4  5  2  0  0  0  0
  4 10  1  0  0  0  0
  5  6  1  0  0  0  0
  5  8  1  0  0  0  0
  6  7  2  0  0  0  0
  8  9  1  0  0  0  0
  9 10  2  0  0  0  0
M  END
>  <CHROM.1>
53.89685874,-13.98574253,7.12528369,-2.74636048,1.32354532,-1.00989320

>  <Name>
ligand

>  <RI>
0

>  <Rbt.Current_Directory>
/home/itssahil/PROJECTS/Mol_Feturizer/New_Systems/rnas/2EEV

>  <Rbt.Executable>
rbdock ($Id: //depot/dev/client3/rdock/2013.1/src/exe/rbdock.cxx#4 $)

>  <Rbt.Library>
libRbt.so (2013.1, Build901 2013/11/27)

>  <Rbt.Parameter_File>
/export/apps/rDock/src/rDock_2013.1_src/data/scripts/dock_solv.prm

>  <Rbt.Receptor>
prm/blind_docking_80.prm

>  <SCORE>
-19.6817

>  <SCORE.INTER>
-19.6817

>  <SCORE.INTER.CONST>
1

>  <SCORE.INTER.POLAR>
0

>  <SCORE.INTER.ROT>
0

>  <SCORE.INTER.SOLV>
4.17782

>  <SCORE.INTER.VDW>
-18.1138

>  <SCORE.INTER.norm>
-1.96817

>  <SCORE.INTRA>
0

>  <SCORE.INTRA.DIHEDRAL>
0

>  <SCORE.INTRA.DIHEDRAL.0>
0

>  <SCORE.INTRA.POLAR>
0

>  <SCORE.INTRA.POLAR.0>
0

>  <SCORE.INTRA.REPUL>
0

>  <SCORE.INTRA.REPUL.0>
0

>  <SCORE.INTRA.SOLV>
0

>  <SCORE.INTRA.SOLV.lig_0>
-4.25352

>  <SCORE.INTRA.VDW>
0

>  <SCORE.INTRA.VDW.0>
0

>  <SCORE.INTRA.norm>
0

>  <SCORE.RESTR>
0

>  <SCORE.RESTR.CAVITY>
0

>  <SCORE.RESTR.norm>
0

>  <SCORE.SYSTEM>
0

>  <SCORE.SYSTEM.CONST>
0

>  <SCORE.SYSTEM.DIHEDRAL>
0

>  <SCORE.SYSTEM.SOLV>
0

>  <SCORE.SYSTEM.norm>
0

>  <SCORE.heavy>
10

>  <SCORE.norm>
-1.96817

>  <RMSD>
0.387

$$$$
ligand
 OpenBabel11021811423D
libRbt.so/2013.1/901 2013/11/27
 10 11  0  0  0  0  0  0  0  0999 V2000
   53.4712  -13.3242    8.9281 N   0  0  0  0  0  0  0  0  0  0  0  0
   53.7266  -14.6369    9.2053 C   0  0  0  0  0  0  0  0  0  0  0  0
   54.0566  -15.5242    8.2309 N   0  0  0  0  0  0  0  0  0  0  0  0
   54.1075  -14.9590    6.9903 C   0  0  0  0  0  0  0  0  0  0  0  0
   53.8626  -13.6470    6.6591 C   0  0  0  0  0  0  0  0  0  0  0  0
   53.5154  -12.7296    7.6549 C   0  0  0  0  0  0  0  0  0  0  0  0
   53.2618  -11.5470    7.5595 O   0  0  0  0  0  0  0  0  0  0  0  0
   54.0237  -13.5005    5.3078 N   0  0  0  0  0  0  0  0  0  0  0  0
   54.3582  -14.6940    4.8284 C   0  0  0  0  0  0  0  0  0  0  0  0
   54.4210  -15.6360    5.8381 N   0  0  0  0  0  0  0  0  0  0  0  0
  1  2  1  0  0  0  0
  1  6  1  0  0  0  0
  2  3  2  0  0  0  0
  3  4  1  0  0  0  0
  4  5  2  0  0  0  0
  4 10  1  0  0  0  0
  5  6  1  0  0  0  0
  5  8  1  0  0  0  0
  6  7  2  0  0  0  0
  8  9  1  0  0  0  0
  9 10  2  0  0  0  0
M  END
>  <CHROM.1>
53.86857525,-13.97395169,7.13084839,-2.75609901,1.31195482,-1.00619241

>  <Name>
ligand

>  <RI>
0

>  <Rbt.Current_Directory>
/home/itssahil/PROJECTS/Mol_Feturizer/New_Systems/rnas/2EEV

>  <Rbt.Executable>
rbdock ($Id: //depot/dev/client3/rdock/2013.1/src/exe/rbdock.cxx#4 $)

>  <Rbt.Library>
libRbt.so (2013.1, Build901 2013/11/27)

>  <Rbt.Parameter_File>
/export/apps/rDock/src/rDock_2013.1_src/data/scripts/dock_solv.prm

>  <Rbt.Receptor>
prm/pocket_docking_3.prm

>  <SCORE>
-19.6551

>  <SCORE.INTER>
-19.6551

>  <SCORE.INTER.CONST>
1

>  <SCORE.INTER.POLAR>
0

>  <SCORE.INTER.ROT>
0

>  <SCORE.INTER.SOLV>
4.163

>  <SCORE.INTER.VDW>
-18.0911

>  <SCORE.INTER.norm>
-1.96551

>  <SCORE.INTRA>
0

>  <SCORE.INTRA.DIHEDRAL>
0

>  <SCORE.INTRA.DIHEDRAL.0>
0

>  <SCORE.INTRA.POLAR>
0

>  <SCORE.INTRA.POLAR.0>
0

>  <SCORE.INTRA.REPUL>
0

>  <SCORE.INTRA.REPUL.0>
0

>  <SCORE.INTRA.SOLV>
0

>  <SCORE.INTRA.SOLV.lig_0>
-4.25352

>  <SCORE.INTRA.VDW>
0

>  <SCORE.INTRA.VDW.0>
0

>  <SCORE.INTRA.norm>
0

>  <SCORE.RESTR>
0

>  <SCORE.RESTR.CAVITY>
0

>  <SCORE.RESTR.norm>
0

>  <SCORE.SYSTEM>
0

>  <SCORE.SYSTEM.CONST>
0

>  <SCORE.SYSTEM.DIHEDRAL>
0

>  <SCORE.SYSTEM.SOLV>
0

>  <SCORE.SYSTEM.norm>
0

>  <SCORE.heavy>
10

>  <SCORE.norm>
-1.96551

>  <RMSD>
0.387

$$$$
ligand
 OpenBabel11021811423D
libRbt.so/2013.1/901 2013/11/27
 10 11  0  0  0  0  0  0  0  0999 V2000
   53.5413  -13.3592    8.9280 N   0  0  0  0  0  0  0  0  0  0  0  0
   53.7953  -14.6753    9.1903 C   0  0  0  0  0  0  0  0  0  0  0  0
   54.1055  -15.5560    8.2035 N   0  0  0  0  0  0  0  0  0  0  0  0
   54.1387  -14.9808    6.9669 C   0  0  0  0  0  0  0  0  0  0  0  0
   53.8944  -13.6651    6.6504 C   0  0  0  0  0  0  0  0  0  0  0  0
   53.5675  -12.7544    7.6592 C   0  0  0  0  0  0  0  0  0  0  0  0
   53.3177  -11.5700    7.5776 O   0  0  0  0  0  0  0  0  0  0  0  0
   54.0341  -13.5082    5.2979 N   0  0  0  0  0  0  0  0  0  0  0  0
   54.3554  -14.6991    4.8034 C   0  0  0  0  0  0  0  0  0  0  0  0
   54.4304  -15.6496    5.8042 N   0  0  0  0  0  0  0  0  0  0  0  0
  1  2  1  0  0  0  0
  1  6  1  0  0  0  0
  2  3  2  0  0  0  0
  3  4  1  0  0  0  0
  4  5  2  0  0  0  0
  4 10  1  0  0  0  0
  5  6  1  0  0  0  0
  5  8  1  0  0  0  0
  6  7  2  0  0  0  0
  8  9  1  0  0  0  0
  9 10  2  0  0  0  0
M  END
>  <CHROM.1>
53.90654627,-13.99592249,7.11932269,-2.70969826,1.32417575,-1.04291802

>  <Name>
ligand

>  <RI>
0

>  <Rbt.Current_Directory>
/home/itssahil/PROJECTS/Mol_Feturizer/New_Systems/rnas/2EEV

>  <Rbt.Executable>
rbdock ($Id: //depot/dev/client3/rdock/2013.1/src/exe/rbdock.cxx#4 $)

>  <Rbt.Library>
libRbt.so (2013.1, Build901 2013/11/27)

>  <Rbt.Parameter_File>
/export/apps/rDock/src/rDock_2013.1_src/data/scripts/dock_solv.prm

>  <Rbt.Receptor>
prm/pocket_docking_5.prm

>  <SCORE>
-19.7004

>  <SCORE.INTER>
-19.7004

>  <SCORE.INTER.CONST>
1

>  <SCORE.INTER.POLAR>
0

>  <SCORE.INTER.ROT>
0

>  <SCORE.INTER.SOLV>
4.16679

>  <SCORE.INTER.VDW>
-18.1225

>  <SCORE.INTER.norm>
-1.97004

>  <SCORE.INTRA>
0

>  <SCORE.INTRA.DIHEDRAL>
0

>  <SCORE.INTRA.DIHEDRAL.0>
0

>  <SCORE.INTRA.POLAR>
0

>  <SCORE.INTRA.POLAR.0>
0

>  <SCORE.INTRA.REPUL>
0

>  <SCORE.INTRA.REPUL.0>
0

>  <SCORE.INTRA.SOLV>
0

>  <SCORE.INTRA.SOLV.lig_0>
-4.25352

>  <SCORE.INTRA.VDW>
0

>  <SCORE.INTRA.VDW.0>
0

>  <SCORE.INTRA.norm>
0

>  <SCORE.RESTR>
0

>  <SCORE.RESTR.CAVITY>
0

>  <SCORE.RESTR.norm>
0

>  <SCORE.SYSTEM>
0

>  <SCORE.SYSTEM.CONST>
0

>  <SCORE.SYSTEM.DIHEDRAL>
0

>  <SCORE.SYSTEM.SOLV>
0

>  <SCORE.SYSTEM.norm>
0

>  <SCORE.heavy>
10

>  <SCORE.norm>
-1.97004

>  <RMSD>
0.387

$$$$
ligand
 OpenBabel11021811423D
libRbt.so/2013.1/901 2013/11/27
 10 11  0  0  0  0  0  0  0  0999 V2000
   53.5934  -13.3451    8.9473 N   0  0  0  0  0  0  0  0  0  0  0  0
   53.8129  -14.6686    9.2032 C   0  0  0  0  0  0  0  0  0  0  0  0
   54.0957  -15.5531    8.2116 N   0  0  0  0  0  0  0  0  0  0  0  0
   54.1398  -14.9738    6.9772 C   0  0  0  0  0  0  0  0  0  0  0  0
   53.9296  -13.6507    6.6671 C   0  0  0  0  0  0  0  0  0  0  0  0
   53.6310  -12.7359    7.6809 C   0  0  0  0  0  0  0  0  0  0  0  0
   53.4127  -11.5448    7.6051 O   0  0  0  0  0  0  0  0  0  0  0  0
   54.0685  -13.4919    5.3147 N   0  0  0  0  0  0  0  0  0  0  0  0
   54.3559  -14.6889    4.8141 C   0  0  0  0  0  0  0  0  0  0  0  0
   54.4091  -15.6453    5.8107 N   0  0  0  0  0  0  0  0  0  0  0  0
  1  2  1  0  0  0  0
  1  6  1  0  0  0  0
  2  3  2  0  0  0  0
  3  4  1  0  0  0  0
  4  5  2  0  0  0  0
  4 10  1  0  0  0  0
  5  6  1  0  0  0  0
  5  8  1  0  0  0  0
  6  7  2  0  0  0  0
  8  9  1  0  0  0  0
  9 10  2  0  0  0  0
M  END
>  <CHROM.1>
53.93464562,-13.98372575,7.13459541,-2.75647166,1.34897574,-0.99325468

>  <Name>
ligand

>  <RI>
0

>  <Rbt.Current_Directory>
/home/itssahil/PROJECTS/Mol_Feturizer/New_Systems/rnas/2EEV

>  <Rbt.Executable>
rbdock ($Id: //depot/dev/client3/rdock/2013.1/src/exe/rbdock.cxx#4 $)

>  <Rbt.Library>
libRbt.so (2013.1, Build901 2013/11/27)

>  <Rbt.Parameter_File>
/export/apps/rDock/src/rDock_2013.1_src/data/scripts/dock_solv.prm

>  <Rbt.Receptor>
prm/pocket_docking_5.prm

>  <SCORE>
-19.6348

>  <SCORE.INTER>
-19.6348

>  <SCORE.INTER.CONST>
1

>  <SCORE.INTER.POLAR>
0

>  <SCORE.INTER.ROT>
0

>  <SCORE.INTER.SOLV>
4.24822

>  <SCORE.INTER.VDW>
-18.106

>  <SCORE.INTER.norm>
-1.96348

>  <SCORE.INTRA>
0

>  <SCORE.INTRA.DIHEDRAL>
0

>  <SCORE.INTRA.DIHEDRAL.0>
0

>  <SCORE.INTRA.POLAR>
0

>  <SCORE.INTRA.POLAR.0>
0

>  <SCORE.INTRA.REPUL>
0

>  <SCORE.INTRA.REPUL.0>
0

>  <SCORE.INTRA.SOLV>
0

>  <SCORE.INTRA.SOLV.lig_0>
-4.25352

>  <SCORE.INTRA.VDW>
0

>  <SCORE.INTRA.VDW.0>
0

>  <SCORE.INTRA.norm>
0

>  <SCORE.RESTR>
0

>  <SCORE.RESTR.CAVITY>
0

>  <SCORE.RESTR.norm>
0

>  <SCORE.SYSTEM>
0

>  <SCORE.SYSTEM.CONST>
0

>  <SCORE.SYSTEM.DIHEDRAL>
0

>  <SCORE.SYSTEM.SOLV>
0

>  <SCORE.SYSTEM.norm>
0

>  <SCORE.heavy>
10

>  <SCORE.norm>
-1.96348

>  <RMSD>
0.387

$$$$
ligand
 OpenBabel11021811423D
libRbt.so/2013.1/901 2013/11/27
 10 11  0  0  0  0  0  0  0  0999 V2000
   53.5309  -13.3577    8.9247 N   0  0  0  0  0  0  0  0  0  0  0  0
   53.7842  -14.6731    9.1908 C   0  0  0  0  0  0  0  0  0  0  0  0
   54.0982  -15.5559    8.2070 N   0  0  0  0  0  0  0  0  0  0  0  0
   54.1359  -14.9832    6.9692 C   0  0  0  0  0  0  0  0  0  0  0  0
   53.8924  -13.6683    6.6491 C   0  0  0  0  0  0  0  0  0  0  0  0
   53.5616  -12.7555    7.6547 C   0  0  0  0  0  0  0  0  0  0  0  0
   53.3118  -11.5713    7.5696 O   0  0  0  0  0  0  0  0  0  0  0  0
   54.0371  -13.5142    5.2968 N   0  0  0  0  0  0  0  0  0  0  0  0
   54.3604  -14.7061    4.8060 C   0  0  0  0  0  0  0  0  0  0  0  0
   54.4319  -15.6545    5.8091 N   0  0  0  0  0  0  0  0  0  0  0  0
  1  2  1  0  0  0  0
  1  6  1  0  0  0  0
  2  3  2  0  0  0  0
  3  4  1  0  0  0  0
  4  5  2  0  0  0  0
  4 10  1  0  0  0  0
  5  6  1  0  0  0  0
  5  8  1  0  0  0  0
  6  7  2  0  0  0  0
  8  9  1  0  0  0  0
  9 10  2  0  0  0  0
M  END
>  <CHROM.1>
53.90290565,-13.99811874,7.11874107,-2.72214562,1.32212335,-1.03298268

>  <Name>
ligand

>  <RI>
0

>  <Rbt.Current_Directory>
/home/itssahil/PROJECTS/Mol_Feturizer/New_Systems/rnas/2EEV

>  <Rbt.Executable>
rbdock ($Id: //depot/dev/client3/rdock/2013.1/src/exe/rbdock.cxx#4 $)

>  <Rbt.Library>
libRbt.so (2013.1, Build901 2013/11/27)

>  <Rbt.Parameter_File>
/export/apps/rDock/src/rDock_2013.1_src/data/scripts/dock_solv.prm

>  <Rbt.Receptor>
prm/pocket_docking_7.prm

>  <SCORE>
-19.7048

>  <SCORE.INTER>
-19.7048

>  <SCORE.INTER.CONST>
1

>  <SCORE.INTER.POLAR>
0

>  <SCORE.INTER.ROT>
0

>  <SCORE.INTER.SOLV>
4.16596

>  <SCORE.INTER.VDW>
-18.1252

>  <SCORE.INTER.norm>
-1.97048

>  <SCORE.INTRA>
0

>  <SCORE.INTRA.DIHEDRAL>
0

>  <SCORE.INTRA.DIHEDRAL.0>
0

>  <SCORE.INTRA.POLAR>
0

>  <SCORE.INTRA.POLAR.0>
0

>  <SCORE.INTRA.REPUL>
0

>  <SCORE.INTRA.REPUL.0>
0

>  <SCORE.INTRA.SOLV>
0

>  <SCORE.INTRA.SOLV.lig_0>
-4.25352

>  <SCORE.INTRA.VDW>
0

>  <SCORE.INTRA.VDW.0>
0

>  <SCORE.INTRA.norm>
0

>  <SCORE.RESTR>
0

>  <SCORE.RESTR.CAVITY>
0

>  <SCORE.RESTR.norm>
0

>  <SCORE.SYSTEM>
0

>  <SCORE.SYSTEM.CONST>
0

>  <SCORE.SYSTEM.DIHEDRAL>
0

>  <SCORE.SYSTEM.SOLV>
0

>  <SCORE.SYSTEM.norm>
0

>  <SCORE.heavy>
10

>  <SCORE.norm>
-1.97048

>  <RMSD>
0.388

$$$$
ligand
 OpenBabel11021811423D
libRbt.so/2013.1/901 2013/11/27
 10 11  0  0  0  0  0  0  0  0999 V2000
   53.4211  -13.1968    8.9594 N   0  0  0  0  0  0  0  0  0  0  0  0
   53.6709  -14.5011    9.2783 C   0  0  0  0  0  0  0  0  0  0  0  0
   54.0105  -15.4174    8.3346 N   0  0  0  0  0  0  0  0  0  0  0  0
   54.0768  -14.8893    7.0784 C   0  0  0  0  0  0  0  0  0  0  0  0
   53.8381  -13.5874    6.7057 C   0  0  0  0  0  0  0  0  0  0  0  0
   53.4811  -12.6403    7.6697 C   0  0  0  0  0  0  0  0  0  0  0  0
   53.2308  -11.4607    7.5363 O   0  0  0  0  0  0  0  0  0  0  0  0
   54.0151  -13.4813    5.3525 N   0  0  0  0  0  0  0  0  0  0  0  0
   54.3529  -14.6889    4.9127 C   0  0  0  0  0  0  0  0  0  0  0  0
   54.4023  -15.6007    5.9505 N   0  0  0  0  0  0  0  0  0  0  0  0
  1  2  1  0  0  0  0
  1  6  1  0  0  0  0
  2  3  2  0  0  0  0
  3  4  1  0  0  0  0
  4  5  2  0  0  0  0
  4 10  1  0  0  0  0
  5  6  1  0  0  0  0
  5  8  1  0  0  0  0
  6  7  2  0  0  0  0
  8  9  1  0  0  0  0
  9 10  2  0  0  0  0
M  END
>  <CHROM.1>
53.83805410,-13.90019425,7.18691105,-2.79732609,1.30709686,-0.99602094

>  <Name>
ligand

>  <RI>
0

>  <Rbt.Current_Directory>
/home/itssahil/PROJECTS/Mol_Feturizer/New_Systems/rnas/2EEV

>  <Rbt.Executable>
rbdock ($Id: //depot/dev/client3/rdock/2013.1/src/exe/rbdock.cxx#4 $)

>  <Rbt.Library>
libRbt.so (2013.1, Build901 2013/11/27)

>  <Rbt.Parameter_File>
/export/apps/rDock/src/rDock_2013.1_src/data/scripts/dock_solv.prm

>  <Rbt.Receptor>
prm/blind_docking_80.prm

>  <SCORE>
-19.6259

>  <SCORE.INTER>
-19.6259

>  <SCORE.INTER.CONST>
1

>  <SCORE.INTER.POLAR>
0

>  <SCORE.INTER.ROT>
0

>  <SCORE.INTER.SOLV>
4.16102

>  <SCORE.INTER.VDW>
-18.071

>  <SCORE.INTER.norm>
-1.96259

>  <SCORE.INTRA>
0

>  <SCORE.INTRA.DIHEDRAL>
0

>  <SCORE.INTRA.DIHEDRAL.0>
0

>  <SCORE.INTRA.POLAR>
0

>  <SCORE.INTRA.POLAR.0>
0

>  <SCORE.INTRA.REPUL>
0

>  <SCORE.INTRA.REPUL.0>
0

>  <SCORE.INTRA.SOLV>
0

>  <SCORE.INTRA.SOLV.lig_0>
-4.25352

>  <SCORE.INTRA.VDW>
0

>  <SCORE.INTRA.VDW.0>
0

>  <SCORE.INTRA.norm>
0

>  <SCORE.RESTR>
0

>  <SCORE.RESTR.CAVITY>
0

>  <SCORE.RESTR.norm>
0

>  <SCORE.SYSTEM>
0

>  <SCORE.SYSTEM.CONST>
0

>  <SCORE.SYSTEM.DIHEDRAL>
0

>  <SCORE.SYSTEM.SOLV>
0

>  <SCORE.SYSTEM.norm>
0

>  <SCORE.heavy>
10

>  <SCORE.norm>
-1.96259

>  <RMSD>
0.389

$$$$
ligand
 OpenBabel11021811423D
libRbt.so/2013.1/901 2013/11/27
 10 11  0  0  0  0  0  0  0  0999 V2000
   53.4995  -13.3062    8.9375 N   0  0  0  0  0  0  0  0  0  0  0  0
   53.7277  -14.6244    9.2121 C   0  0  0  0  0  0  0  0  0  0  0  0
   54.0380  -15.5167    8.2358 N   0  0  0  0  0  0  0  0  0  0  0  0
   54.0992  -14.9505    6.9961 C   0  0  0  0  0  0  0  0  0  0  0  0
   53.8814  -13.6331    6.6675 C   0  0  0  0  0  0  0  0  0  0  0  0
   53.5546  -12.7104    7.6653 C   0  0  0  0  0  0  0  0  0  0  0  0
   53.3256  -11.5226    7.5722 O   0  0  0  0  0  0  0  0  0  0  0  0
   54.0439  -13.4876    5.3162 N   0  0  0  0  0  0  0  0  0  0  0  0
   54.3528  -14.6870    4.8344 C   0  0  0  0  0  0  0  0  0  0  0  0
   54.3971  -15.6319    5.8424 N   0  0  0  0  0  0  0  0  0  0  0  0
  1  2  1  0  0  0  0
  1  6  1  0  0  0  0
  2  3  2  0  0  0  0
  3  4  1  0  0  0  0
  4  5  2  0  0  0  0
  4 10  1  0  0  0  0
  5  6  1  0  0  0  0
  5  8  1  0  0  0  0
  6  7  2  0  0  0  0
  8  9  1  0  0  0  0
  9 10  2  0  0  0  0
M  END
>  <CHROM.1>
53.88110116,-13.96093091,7.13863937,-2.79884164,1.33001886,-0.96302215

>  <Name>
ligand

>  <RI>
0

>  <Rbt.Current_Directory>
/home/itssahil/PROJECTS/Mol_Feturizer/New_Systems/rnas/2EEV

>  <Rbt.Executable>
rbdock ($Id: //depot/dev/client3/rdock/2013.1/src/exe/rbdock.cxx#4 $)

>  <Rbt.Library>
libRbt.so (2013.1, Build901 2013/11/27)

>  <Rbt.Parameter_File>
/export/apps/rDock/src/rDock_2013.1_src/data/scripts/dock_solv.prm

>  <Rbt.Receptor>
prm/pocket_docking_7.prm

>  <SCORE>
-19.6468

>  <SCORE.INTER>
-19.6468

>  <SCORE.INTER.CONST>
1

>  <SCORE.INTER.POLAR>
0

>  <SCORE.INTER.ROT>
0

>  <SCORE.INTER.SOLV>
4.21367

>  <SCORE.INTER.VDW>
-18.1024

>  <SCORE.INTER.norm>
-1.96468

>  <SCORE.INTRA>
0

>  <SCORE.INTRA.DIHEDRAL>
0

>  <SCORE.INTRA.DIHEDRAL.0>
0

>  <SCORE.INTRA.POLAR>
0

>  <SCORE.INTRA.POLAR.0>
0

>  <SCORE.INTRA.REPUL>
0

>  <SCORE.INTRA.REPUL.0>
0

>  <SCORE.INTRA.SOLV>
0

>  <SCORE.INTRA.SOLV.lig_0>
-4.25352

>  <SCORE.INTRA.VDW>
0

>  <SCORE.INTRA.VDW.0>
0

>  <SCORE.INTRA.norm>
0

>  <SCORE.RESTR>
0

>  <SCORE.RESTR.CAVITY>
0

>  <SCORE.RESTR.norm>
0

>  <SCORE.SYSTEM>
0

>  <SCORE.SYSTEM.CONST>
0

>  <SCORE.SYSTEM.DIHEDRAL>
0

>  <SCORE.SYSTEM.SOLV>
0

>  <SCORE.SYSTEM.norm>
0

>  <SCORE.heavy>
10

>  <SCORE.norm>
-1.96468

>  <RMSD>
0.390

$$$$
ligand
 OpenBabel11021811423D
libRbt.so/2013.1/901 2013/11/27
 10 11  0  0  0  0  0  0  0  0999 V2000
   53.4987  -13.3153    8.9335 N   0  0  0  0  0  0  0  0  0  0  0  0
   53.7294  -14.6342    9.2026 C   0  0  0  0  0  0  0  0  0  0  0  0
   54.0439  -15.5214    8.2229 N   0  0  0  0  0  0  0  0  0  0  0  0
   54.1066  -14.9493    6.9860 C   0  0  0  0  0  0  0  0  0  0  0  0
   53.8864  -13.6310    6.6629 C   0  0  0  0  0  0  0  0  0  0  0  0
   53.5553  -12.7136    7.6642 C   0  0  0  0  0  0  0  0  0  0  0  0
   53.3237  -11.5259    7.5760 O   0  0  0  0  0  0  0  0  0  0  0  0
   54.0516  -13.4789    5.3127 N   0  0  0  0  0  0  0  0  0  0  0  0
   54.3644  -14.6753    4.8260 C   0  0  0  0  0  0  0  0  0  0  0  0
   54.4086  -15.6247    5.8298 N   0  0  0  0  0  0  0  0  0  0  0  0
  1  2  1  0  0  0  0
  1  6  1  0  0  0  0
  2  3  2  0  0  0  0
  3  4  1  0  0  0  0
  4  5  2  0  0  0  0
  4 10  1  0  0  0  0
  5  6  1  0  0  0  0
  5  8  1  0  0  0  0
  6  7  2  0  0  0  0
  8  9  1  0  0  0  0
  9 10  2  0  0  0  0
M  END
>  <CHROM.1>
53.88581408,-13.96091857,7.13255473,-2.80088781,1.32683347,-0.95646035

>  <Name>
ligand

>  <RI>
0

>  <Rbt.Current_Directory>
/home/itssahil/PROJECTS/Mol_Feturizer/New_Systems/rnas/2EEV

>  <Rbt.Executable>
rbdock ($Id: //depot/dev/client3/rdock/2013.1/src/exe/rbdock.cxx#4 $)

>  <Rbt.Library>
libRbt.so (2013.1, Build901 2013/11/27)

>  <Rbt.Parameter_File>
/export/apps/rDock/src/rDock_2013.1_src/data/scripts/dock_solv.prm

>  <Rbt.Receptor>
prm/pocket_docking_7.prm

>  <SCORE>
-19.6816

>  <SCORE.INTER>
-19.6816

>  <SCORE.INTER.CONST>
1

>  <SCORE.INTER.POLAR>
0

>  <SCORE.INTER.ROT>
0

>  <SCORE.INTER.SOLV>
4.20499

>  <SCORE.INTER.VDW>
-18.1227

>  <SCORE.INTER.norm>
-1.96816

>  <SCORE.INTRA>
0

>  <SCORE.INTRA.DIHEDRAL>
0

>  <SCORE.INTRA.DIHEDRAL.0>
0

>  <SCORE.INTRA.POLAR>
0

>  <SCORE.INTRA.POLAR.0>
0

>  <SCORE.INTRA.REPUL>
0

>  <SCORE.INTRA.REPUL.0>
0

>  <SCORE.INTRA.SOLV>
0

>  <SCORE.INTRA.SOLV.lig_0>
-4.25352

>  <SCORE.INTRA.VDW>
0

>  <SCORE.INTRA.VDW.0>
0

>  <SCORE.INTRA.norm>
0

>  <SCORE.RESTR>
0

>  <SCORE.RESTR.CAVITY>
0

>  <SCORE.RESTR.norm>
0

>  <SCORE.SYSTEM>
0

>  <SCORE.SYSTEM.CONST>
0

>  <SCORE.SYSTEM.DIHEDRAL>
0

>  <SCORE.SYSTEM.SOLV>
0

>  <SCORE.SYSTEM.norm>
0

>  <SCORE.heavy>
10

>  <SCORE.norm>
-1.96816

>  <RMSD>
0.391

$$$$
ligand
 OpenBabel11021811423D
libRbt.so/2013.1/901 2013/11/27
 10 11  0  0  0  0  0  0  0  0999 V2000
   53.4480  -13.1813    8.9671 N   0  0  0  0  0  0  0  0  0  0  0  0
   53.6760  -14.4785    9.3285 C   0  0  0  0  0  0  0  0  0  0  0  0
   53.9998  -15.4308    8.4153 N   0  0  0  0  0  0  0  0  0  0  0  0
   54.0745  -14.9452    7.1426 C   0  0  0  0  0  0  0  0  0  0  0  0
   53.8576  -13.6523    6.7275 C   0  0  0  0  0  0  0  0  0  0  0  0
   53.5169  -12.6684    7.6600 C   0  0  0  0  0  0  0  0  0  0  0  0
   53.2863  -11.4897    7.4881 O   0  0  0  0  0  0  0  0  0  0  0  0
   54.0358  -13.5934    5.3716 N   0  0  0  0  0  0  0  0  0  0  0  0
   54.3531  -14.8203    4.9715 C   0  0  0  0  0  0  0  0  0  0  0  0
   54.3876  -15.6984    6.0386 N   0  0  0  0  0  0  0  0  0  0  0  0
  1  2  1  0  0  0  0
  1  6  1  0  0  0  0
  2  3  2  0  0  0  0
  3  4  1  0  0  0  0
  4  5  2  0  0  0  0
  4 10  1  0  0  0  0
  5  6  1  0  0  0  0
  5  8  1  0  0  0  0
  6  7  2  0  0  0  0
  8  9  1  0  0  0  0
  9 10  2  0  0  0  0
M  END
>  <CHROM.1>
53.85241163,-13.94915646,7.21866658,-2.83304947,1.32124866,-0.99415195

>  <Name>
ligand

>  <RI>
0

>  <Rbt.Current_Directory>
/home/itssahil/PROJECTS/Mol_Feturizer/New_Systems/rnas/2EEV

>  <Rbt.Executable>
rbdock ($Id: //depot/dev/client3/rdock/2013.1/src/exe/rbdock.cxx#4 $)

>  <Rbt.Library>
libRbt.so (2013.1, Build901 2013/11/27)

>  <Rbt.Parameter_File>
/export/apps/rDock/src/rDock_2013.1_src/data/scripts/dock_solv.prm

>  <Rbt.Receptor>
prm/pocket_docking_8.prm

>  <SCORE>
-19.7254

>  <SCORE.INTER>
-19.7254

>  <SCORE.INTER.CONST>
1

>  <SCORE.INTER.POLAR>
0

>  <SCORE.INTER.ROT>
0

>  <SCORE.INTER.SOLV>
4.21483

>  <SCORE.INTER.VDW>
-18.1552

>  <SCORE.INTER.norm>
-1.97254

>  <SCORE.INTRA>
0

>  <SCORE.INTRA.DIHEDRAL>
0

>  <SCORE.INTRA.DIHEDRAL.0>
0

>  <SCORE.INTRA.POLAR>
0

>  <SCORE.INTRA.POLAR.0>
0

>  <SCORE.INTRA.REPUL>
0

>  <SCORE.INTRA.REPUL.0>
0

>  <SCORE.INTRA.SOLV>
0

>  <SCORE.INTRA.SOLV.lig_0>
-4.25352

>  <SCORE.INTRA.VDW>
0

>  <SCORE.INTRA.VDW.0>
0

>  <SCORE.INTRA.norm>
0

>  <SCORE.RESTR>
0

>  <SCORE.RESTR.CAVITY>
0

>  <SCORE.RESTR.norm>
0

>  <SCORE.SYSTEM>
0

>  <SCORE.SYSTEM.CONST>
0

>  <SCORE.SYSTEM.DIHEDRAL>
0

>  <SCORE.SYSTEM.SOLV>
0

>  <SCORE.SYSTEM.norm>
0

>  <SCORE.heavy>
10

>  <SCORE.norm>
-1.97254

>  <RMSD>
0.391

$$$$
ligand
 OpenBabel11021811423D
libRbt.so/2013.1/901 2013/11/27
 10 11  0  0  0  0  0  0  0  0999 V2000
   53.4357  -13.2870    8.9320 N   0  0  0  0  0  0  0  0  0  0  0  0
   53.6729  -14.6019    9.2149 C   0  0  0  0  0  0  0  0  0  0  0  0
   54.0108  -15.4937    8.2474 N   0  0  0  0  0  0  0  0  0  0  0  0
   54.0891  -14.9305    7.0073 C   0  0  0  0  0  0  0  0  0  0  0  0
   53.8633  -13.6165    6.6705 C   0  0  0  0  0  0  0  0  0  0  0  0
   53.5081  -12.6944    7.6591 C   0  0  0  0  0  0  0  0  0  0  0  0
   53.2681  -11.5095    7.5581 O   0  0  0  0  0  0  0  0  0  0  0  0
   54.0494  -13.4733    5.3220 N   0  0  0  0  0  0  0  0  0  0  0  0
   54.3801  -14.6706    4.8498 C   0  0  0  0  0  0  0  0  0  0  0  0
   54.4157  -15.6120    5.8614 N   0  0  0  0  0  0  0  0  0  0  0  0
  1  2  1  0  0  0  0
  1  6  1  0  0  0  0
  2  3  2  0  0  0  0
  3  4  1  0  0  0  0
  4  5  2  0  0  0  0
  4 10  1  0  0  0  0
  5  6  1  0  0  0  0
  5  8  1  0  0  0  0
  6  7  2  0  0  0  0
  8  9  1  0  0  0  0
  9 10  2  0  0  0  0
M  END
>  <CHROM.1>
53.85773744,-13.94291420,7.14260867,-2.83443587,1.31040254,-0.93159648

>  <Name>
ligand

>  <RI>
0

>  <Rbt.Current_Directory>
/home/itssahil/PROJECTS/Mol_Feturizer/New_Systems/rnas/2EEV

>  <Rbt.Executable>
rbdock ($Id: //depot/dev/client3/rdock/2013.1/src/exe/rbdock.cxx#4 $)

>  <Rbt.Library>
libRbt.so (2013.1, Build901 2013/11/27)

>  <Rbt.Parameter_File>
/export/apps/rDock/src/rDock_2013.1_src/data/scripts/dock_solv.prm

>  <Rbt.Receptor>
prm/blind_docking_80.prm

>  <SCORE>
-19.6832

>  <SCORE.INTER>
-19.6832

>  <SCORE.INTER.CONST>
1

>  <SCORE.INTER.POLAR>
0

>  <SCORE.INTER.ROT>
0

>  <SCORE.INTER.SOLV>
4.1889

>  <SCORE.INTER.VDW>
-18.1184

>  <SCORE.INTER.norm>
-1.96832

>  <SCORE.INTRA>
0

>  <SCORE.INTRA.DIHEDRAL>
0

>  <SCORE.INTRA.DIHEDRAL.0>
0

>  <SCORE.INTRA.POLAR>
0

>  <SCORE.INTRA.POLAR.0>
0

>  <SCORE.INTRA.REPUL>
0

>  <SCORE.INTRA.REPUL.0>
0

>  <SCORE.INTRA.SOLV>
0

>  <SCORE.INTRA.SOLV.lig_0>
-4.25352

>  <SCORE.INTRA.VDW>
0

>  <SCORE.INTRA.VDW.0>
0

>  <SCORE.INTRA.norm>
0

>  <SCORE.RESTR>
0

>  <SCORE.RESTR.CAVITY>
0

>  <SCORE.RESTR.norm>
0

>  <SCORE.SYSTEM>
0

>  <SCORE.SYSTEM.CONST>
0

>  <SCORE.SYSTEM.DIHEDRAL>
0

>  <SCORE.SYSTEM.SOLV>
0

>  <SCORE.SYSTEM.norm>
0

>  <SCORE.heavy>
10

>  <SCORE.norm>
-1.96832

>  <RMSD>
0.392

$$$$
ligand
 OpenBabel11021811423D
libRbt.so/2013.1/901 2013/11/27
 10 11  0  0  0  0  0  0  0  0999 V2000
   53.4476  -13.2771    8.9301 N   0  0  0  0  0  0  0  0  0  0  0  0
   53.6892  -14.5901    9.2180 C   0  0  0  0  0  0  0  0  0  0  0  0
   54.0270  -15.4851    8.2534 N   0  0  0  0  0  0  0  0  0  0  0  0
   54.1004  -14.9269    7.0106 C   0  0  0  0  0  0  0  0  0  0  0  0
   53.8701  -13.6151    6.6689 C   0  0  0  0  0  0  0  0  0  0  0  0
   53.5151  -12.6898    7.6546 C   0  0  0  0  0  0  0  0  0  0  0  0
   53.2716  -11.5059    7.5492 O   0  0  0  0  0  0  0  0  0  0  0  0
   54.0522  -13.4770    5.3194 N   0  0  0  0  0  0  0  0  0  0  0  0
   54.3849  -14.6755    4.8513 C   0  0  0  0  0  0  0  0  0  0  0  0
   54.4258  -15.6124    5.8668 N   0  0  0  0  0  0  0  0  0  0  0  0
  1  2  1  0  0  0  0
  1  6  1  0  0  0  0
  2  3  2  0  0  0  0
  3  4  1  0  0  0  0
  4  5  2  0  0  0  0
  4 10  1  0  0  0  0
  5  6  1  0  0  0  0
  5  8  1  0  0  0  0
  6  7  2  0  0  0  0
  8  9  1  0  0  0  0
  9 10  2  0  0  0  0
M  END
>  <CHROM.1>
53.86669700,-13.93945445,7.14242191,-2.81984924,1.30979636,-0.94992714

>  <Name>
ligand

>  <RI>
0

>  <Rbt.Current_Directory>
/home/itssahil/PROJECTS/Mol_Feturizer/New_Systems/rnas/2EEV

>  <Rbt.Executable>
rbdock ($Id: //depot/dev/client3/rdock/2013.1/src/exe/rbdock.cxx#4 $)

>  <Rbt.Library>
libRbt.so (2013.1, Build901 2013/11/27)

>  <Rbt.Parameter_File>
/export/apps/rDock/src/rDock_2013.1_src/data/scripts/dock_solv.prm

>  <Rbt.Receptor>
prm/pocket_docking_4.prm

>  <SCORE>
-19.6834

>  <SCORE.INTER>
-19.6834

>  <SCORE.INTER.CONST>
1

>  <SCORE.INTER.POLAR>
0

>  <SCORE.INTER.ROT>
0

>  <SCORE.INTER.SOLV>
4.17575

>  <SCORE.INTER.VDW>
-18.1142

>  <SCORE.INTER.norm>
-1.96834

>  <SCORE.INTRA>
0

>  <SCORE.INTRA.DIHEDRAL>
0

>  <SCORE.INTRA.DIHEDRAL.0>
0

>  <SCORE.INTRA.POLAR>
0

>  <SCORE.INTRA.POLAR.0>
0

>  <SCORE.INTRA.REPUL>
0

>  <SCORE.INTRA.REPUL.0>
0

>  <SCORE.INTRA.SOLV>
0

>  <SCORE.INTRA.SOLV.lig_0>
-4.25352

>  <SCORE.INTRA.VDW>
0

>  <SCORE.INTRA.VDW.0>
0

>  <SCORE.INTRA.norm>
0

>  <SCORE.RESTR>
0

>  <SCORE.RESTR.CAVITY>
0

>  <SCORE.RESTR.norm>
0

>  <SCORE.SYSTEM>
0

>  <SCORE.SYSTEM.CONST>
0

>  <SCORE.SYSTEM.DIHEDRAL>
0

>  <SCORE.SYSTEM.SOLV>
0

>  <SCORE.SYSTEM.norm>
0

>  <SCORE.heavy>
10

>  <SCORE.norm>
-1.96834

>  <RMSD>
0.392

$$$$
ligand
 OpenBabel11021811423D
libRbt.so/2013.1/901 2013/11/27
 10 11  0  0  0  0  0  0  0  0999 V2000
   53.5229  -13.3325    8.9220 N   0  0  0  0  0  0  0  0  0  0  0  0
   53.7767  -14.6436    9.2079 C   0  0  0  0  0  0  0  0  0  0  0  0
   54.0888  -15.5415    8.2373 N   0  0  0  0  0  0  0  0  0  0  0  0
   54.1242  -14.9881    6.9908 C   0  0  0  0  0  0  0  0  0  0  0  0
   53.8802  -13.6783    6.6508 C   0  0  0  0  0  0  0  0  0  0  0  0
   53.5514  -12.7501    7.6428 C   0  0  0  0  0  0  0  0  0  0  0  0
   53.3015  -11.5673    7.5399 O   0  0  0  0  0  0  0  0  0  0  0  0
   54.0225  -13.5451    5.2960 N   0  0  0  0  0  0  0  0  0  0  0  0
   54.3449  -14.7445    4.8231 C   0  0  0  0  0  0  0  0  0  0  0  0
   54.4182  -15.6773    5.8406 N   0  0  0  0  0  0  0  0  0  0  0  0
  1  2  1  0  0  0  0
  1  6  1  0  0  0  0
  2  3  2  0  0  0  0
  3  4  1  0  0  0  0
  4  5  2  0  0  0  0
  4 10  1  0  0  0  0
  5  6  1  0  0  0  0
  5  8  1  0  0  0  0
  6  7  2  0  0  0  0
  8  9  1  0  0  0  0
  9 10  2  0  0  0  0
M  END
>  <CHROM.1>
53.89160218,-14.00078734,7.12545426,-2.71587155,1.32309673,-1.05452486

>  <Name>
ligand

>  <RI>
0

>  <Rbt.Current_Directory>
/home/itssahil/PROJECTS/Mol_Feturizer/New_Systems/rnas/2EEV

>  <Rbt.Executable>
rbdock ($Id: //depot/dev/client3/rdock/2013.1/src/exe/rbdock.cxx#4 $)

>  <Rbt.Library>
libRbt.so (2013.1, Build901 2013/11/27)

>  <Rbt.Parameter_File>
/export/apps/rDock/src/rDock_2013.1_src/data/scripts/dock_solv.prm

>  <Rbt.Receptor>
prm/pocket_docking_6.prm

>  <SCORE>
-19.6494

>  <SCORE.INTER>
-19.6494

>  <SCORE.INTER.CONST>
1

>  <SCORE.INTER.POLAR>
0

>  <SCORE.INTER.ROT>
0

>  <SCORE.INTER.SOLV>
4.16912

>  <SCORE.INTER.VDW>
-18.0893

>  <SCORE.INTER.norm>
-1.96494

>  <SCORE.INTRA>
0

>  <SCORE.INTRA.DIHEDRAL>
0

>  <SCORE.INTRA.DIHEDRAL.0>
0

>  <SCORE.INTRA.POLAR>
0

>  <SCORE.INTRA.POLAR.0>
0

>  <SCORE.INTRA.REPUL>
0

>  <SCORE.INTRA.REPUL.0>
0

>  <SCORE.INTRA.SOLV>
0

>  <SCORE.INTRA.SOLV.lig_0>
-4.25352

>  <SCORE.INTRA.VDW>
0

>  <SCORE.INTRA.VDW.0>
0

>  <SCORE.INTRA.norm>
0

>  <SCORE.RESTR>
0

>  <SCORE.RESTR.CAVITY>
0

>  <SCORE.RESTR.norm>
0

>  <SCORE.SYSTEM>
0

>  <SCORE.SYSTEM.CONST>
0

>  <SCORE.SYSTEM.DIHEDRAL>
0

>  <SCORE.SYSTEM.SOLV>
0

>  <SCORE.SYSTEM.norm>
0

>  <SCORE.heavy>
10

>  <SCORE.norm>
-1.96494

>  <RMSD>
0.392

$$$$
ligand
 OpenBabel11021811423D
libRbt.so/2013.1/901 2013/11/27
 10 11  0  0  0  0  0  0  0  0999 V2000
   53.5317  -13.3328    8.9310 N   0  0  0  0  0  0  0  0  0  0  0  0
   53.7689  -14.6515    9.1954 C   0  0  0  0  0  0  0  0  0  0  0  0
   54.0740  -15.5365    8.2108 N   0  0  0  0  0  0  0  0  0  0  0  0
   54.1207  -14.9625    6.9740 C   0  0  0  0  0  0  0  0  0  0  0  0
   53.8935  -13.6442    6.6555 C   0  0  0  0  0  0  0  0  0  0  0  0
   53.5719  -12.7291    7.6619 C   0  0  0  0  0  0  0  0  0  0  0  0
   53.3363  -11.5419    7.5783 O   0  0  0  0  0  0  0  0  0  0  0  0
   54.0424  -13.4898    5.3036 N   0  0  0  0  0  0  0  0  0  0  0  0
   54.3523  -14.6847    4.8116 C   0  0  0  0  0  0  0  0  0  0  0  0
   54.4108  -15.6355    5.8134 N   0  0  0  0  0  0  0  0  0  0  0  0
  1  2  1  0  0  0  0
  1  6  1  0  0  0  0
  2  3  2  0  0  0  0
  3  4  1  0  0  0  0
  4  5  2  0  0  0  0
  4 10  1  0  0  0  0
  5  6  1  0  0  0  0
  5  8  1  0  0  0  0
  6  7  2  0  0  0  0
  8  9  1  0  0  0  0
  9 10  2  0  0  0  0
M  END
>  <CHROM.1>
53.89921793,-13.97487643,7.12461530,-2.75425454,1.33133959,-1.00028356

>  <Name>
ligand

>  <RI>
0

>  <Rbt.Current_Directory>
/home/itssahil/PROJECTS/Mol_Feturizer/New_Systems/rnas/2EEV

>  <Rbt.Executable>
rbdock ($Id: //depot/dev/client3/rdock/2013.1/src/exe/rbdock.cxx#4 $)

>  <Rbt.Library>
libRbt.so (2013.1, Build901 2013/11/27)

>  <Rbt.Parameter_File>
/export/apps/rDock/src/rDock_2013.1_src/data/scripts/dock_solv.prm

>  <Rbt.Receptor>
prm/pocket_docking_7.prm

>  <SCORE>
-19.678

>  <SCORE.INTER>
-19.678

>  <SCORE.INTER.CONST>
1

>  <SCORE.INTER.POLAR>
0

>  <SCORE.INTER.ROT>
0

>  <SCORE.INTER.SOLV>
4.19992

>  <SCORE.INTER.VDW>
-18.1186

>  <SCORE.INTER.norm>
-1.9678

>  <SCORE.INTRA>
0

>  <SCORE.INTRA.DIHEDRAL>
0

>  <SCORE.INTRA.DIHEDRAL.0>
0

>  <SCORE.INTRA.POLAR>
0

>  <SCORE.INTRA.POLAR.0>
0

>  <SCORE.INTRA.REPUL>
0

>  <SCORE.INTRA.REPUL.0>
0

>  <SCORE.INTRA.SOLV>
0

>  <SCORE.INTRA.SOLV.lig_0>
-4.25352

>  <SCORE.INTRA.VDW>
0

>  <SCORE.INTRA.VDW.0>
0

>  <SCORE.INTRA.norm>
0

>  <SCORE.RESTR>
0

>  <SCORE.RESTR.CAVITY>
0

>  <SCORE.RESTR.norm>
0

>  <SCORE.SYSTEM>
0

>  <SCORE.SYSTEM.CONST>
0

>  <SCORE.SYSTEM.DIHEDRAL>
0

>  <SCORE.SYSTEM.SOLV>
0

>  <SCORE.SYSTEM.norm>
0

>  <SCORE.heavy>
10

>  <SCORE.norm>
-1.9678

>  <RMSD>
0.392

$$$$
ligand
 OpenBabel11021811423D
libRbt.so/2013.1/901 2013/11/27
 10 11  0  0  0  0  0  0  0  0999 V2000
   53.4765  -13.3155    8.9261 N   0  0  0  0  0  0  0  0  0  0  0  0
   53.7177  -14.6313    9.2014 C   0  0  0  0  0  0  0  0  0  0  0  0
   54.0421  -15.5200    8.2263 N   0  0  0  0  0  0  0  0  0  0  0  0
   54.1030  -14.9527    6.9871 C   0  0  0  0  0  0  0  0  0  0  0  0
   53.8726  -13.6376    6.6578 C   0  0  0  0  0  0  0  0  0  0  0  0
   53.5312  -12.7188    7.6543 C   0  0  0  0  0  0  0  0  0  0  0  0
   53.2899  -11.5335    7.5605 O   0  0  0  0  0  0  0  0  0  0  0  0
   54.0399  -13.4899    5.3074 N   0  0  0  0  0  0  0  0  0  0  0  0
   54.3640  -14.6857    4.8266 C   0  0  0  0  0  0  0  0  0  0  0  0
   54.4137  -15.6304    5.8346 N   0  0  0  0  0  0  0  0  0  0  0  0
  1  2  1  0  0  0  0
  1  6  1  0  0  0  0
  2  3  2  0  0  0  0
  3  4  1  0  0  0  0
  4  5  2  0  0  0  0
  4 10  1  0  0  0  0
  5  6  1  0  0  0  0
  5  8  1  0  0  0  0
  6  7  2  0  0  0  0
  8  9  1  0  0  0  0
  9 10  2  0  0  0  0
M  END
>  <CHROM.1>
53.87361764,-13.96557166,7.12887081,-2.78969142,1.31849006,-0.97158536

>  <Name>
ligand

>  <RI>
0

>  <Rbt.Current_Directory>
/home/itssahil/PROJECTS/Mol_Feturizer/New_Systems/rnas/2EEV

>  <Rbt.Executable>
rbdock ($Id: //depot/dev/client3/rdock/2013.1/src/exe/rbdock.cxx#4 $)

>  <Rbt.Library>
libRbt.so (2013.1, Build901 2013/11/27)

>  <Rbt.Parameter_File>
/export/apps/rDock/src/rDock_2013.1_src/data/scripts/dock_solv.prm

>  <Rbt.Receptor>
prm/blind_docking_100.prm

>  <SCORE>
-19.6867

>  <SCORE.INTER>
-19.6867

>  <SCORE.INTER.CONST>
1

>  <SCORE.INTER.POLAR>
0

>  <SCORE.INTER.ROT>
0

>  <SCORE.INTER.SOLV>
4.18684

>  <SCORE.INTER.VDW>
-18.1201

>  <SCORE.INTER.norm>
-1.96867

>  <SCORE.INTRA>
0

>  <SCORE.INTRA.DIHEDRAL>
0

>  <SCORE.INTRA.DIHEDRAL.0>
0

>  <SCORE.INTRA.POLAR>
0

>  <SCORE.INTRA.POLAR.0>
0

>  <SCORE.INTRA.REPUL>
0

>  <SCORE.INTRA.REPUL.0>
0

>  <SCORE.INTRA.SOLV>
0

>  <SCORE.INTRA.SOLV.lig_0>
-4.25352

>  <SCORE.INTRA.VDW>
0

>  <SCORE.INTRA.VDW.0>
0

>  <SCORE.INTRA.norm>
0

>  <SCORE.RESTR>
0

>  <SCORE.RESTR.CAVITY>
0

>  <SCORE.RESTR.norm>
0

>  <SCORE.SYSTEM>
0

>  <SCORE.SYSTEM.CONST>
0

>  <SCORE.SYSTEM.DIHEDRAL>
0

>  <SCORE.SYSTEM.SOLV>
0

>  <SCORE.SYSTEM.norm>
0

>  <SCORE.heavy>
10

>  <SCORE.norm>
-1.96867

>  <RMSD>
0.393

$$$$
ligand
 OpenBabel11021811423D
libRbt.so/2013.1/901 2013/11/27
 10 11  0  0  0  0  0  0  0  0999 V2000
   53.5074  -13.2940    8.9227 N   0  0  0  0  0  0  0  0  0  0  0  0
   53.7880  -14.6025    9.1954 C   0  0  0  0  0  0  0  0  0  0  0  0
   54.1187  -15.4839    8.2158 N   0  0  0  0  0  0  0  0  0  0  0  0
   54.1431  -14.9172    6.9750 C   0  0  0  0  0  0  0  0  0  0  0  0
   53.8722  -13.6093    6.6483 C   0  0  0  0  0  0  0  0  0  0  0  0
   53.5241  -12.6982    7.6495 C   0  0  0  0  0  0  0  0  0  0  0  0
   53.2499  -11.5198    7.5585 O   0  0  0  0  0  0  0  0  0  0  0  0
   54.0120  -13.4594    5.2949 N   0  0  0  0  0  0  0  0  0  0  0  0
   54.3591  -14.6470    4.8100 C   0  0  0  0  0  0  0  0  0  0  0  0
   54.4514  -15.5884    5.8181 N   0  0  0  0  0  0  0  0  0  0  0  0
  1  2  1  0  0  0  0
  1  6  1  0  0  0  0
  2  3  2  0  0  0  0
  3  4  1  0  0  0  0
  4  5  2  0  0  0  0
  4 10  1  0  0  0  0
  5  6  1  0  0  0  0
  5  8  1  0  0  0  0
  6  7  2  0  0  0  0
  8  9  1  0  0  0  0
  9 10  2  0  0  0  0
M  END
>  <CHROM.1>
53.89012886,-13.93629180,7.11963613,-2.67788341,1.30490242,-1.08109772

>  <Name>
ligand

>  <RI>
0

>  <Rbt.Current_Directory>
/home/itssahil/PROJECTS/Mol_Feturizer/New_Systems/rnas/2EEV

>  <Rbt.Executable>
rbdock ($Id: //depot/dev/client3/rdock/2013.1/src/exe/rbdock.cxx#4 $)

>  <Rbt.Library>
libRbt.so (2013.1, Build901 2013/11/27)

>  <Rbt.Parameter_File>
/export/apps/rDock/src/rDock_2013.1_src/data/scripts/dock_solv.prm

>  <Rbt.Receptor>
prm/blind_docking_80.prm

>  <SCORE>
-19.645

>  <SCORE.INTER>
-19.645

>  <SCORE.INTER.CONST>
1

>  <SCORE.INTER.POLAR>
0

>  <SCORE.INTER.ROT>
0

>  <SCORE.INTER.SOLV>
4.10685

>  <SCORE.INTER.VDW>
-18.0656

>  <SCORE.INTER.norm>
-1.9645

>  <SCORE.INTRA>
0

>  <SCORE.INTRA.DIHEDRAL>
0

>  <SCORE.INTRA.DIHEDRAL.0>
0

>  <SCORE.INTRA.POLAR>
0

>  <SCORE.INTRA.POLAR.0>
0

>  <SCORE.INTRA.REPUL>
0

>  <SCORE.INTRA.REPUL.0>
0

>  <SCORE.INTRA.SOLV>
0

>  <SCORE.INTRA.SOLV.lig_0>
-4.25352

>  <SCORE.INTRA.VDW>
0

>  <SCORE.INTRA.VDW.0>
0

>  <SCORE.INTRA.norm>
0

>  <SCORE.RESTR>
0

>  <SCORE.RESTR.CAVITY>
0

>  <SCORE.RESTR.norm>
0

>  <SCORE.SYSTEM>
0

>  <SCORE.SYSTEM.CONST>
0

>  <SCORE.SYSTEM.DIHEDRAL>
0

>  <SCORE.SYSTEM.SOLV>
0

>  <SCORE.SYSTEM.norm>
0

>  <SCORE.heavy>
10

>  <SCORE.norm>
-1.9645

>  <RMSD>
0.393

$$$$
ligand
 OpenBabel11021811423D
libRbt.so/2013.1/901 2013/11/27
 10 11  0  0  0  0  0  0  0  0999 V2000
   53.5150  -13.3183    8.9321 N   0  0  0  0  0  0  0  0  0  0  0  0
   53.7499  -14.6358    9.2049 C   0  0  0  0  0  0  0  0  0  0  0  0
   54.0561  -15.5270    8.2263 N   0  0  0  0  0  0  0  0  0  0  0  0
   54.1062  -14.9604    6.9862 C   0  0  0  0  0  0  0  0  0  0  0  0
   53.8814  -13.6438    6.6594 C   0  0  0  0  0  0  0  0  0  0  0  0
   53.5587  -12.7223    7.6596 C   0  0  0  0  0  0  0  0  0  0  0  0
   53.3248  -11.5353    7.5684 O   0  0  0  0  0  0  0  0  0  0  0  0
   54.0334  -13.4976    5.3069 N   0  0  0  0  0  0  0  0  0  0  0  0
   54.3430  -14.6958    4.8227 C   0  0  0  0  0  0  0  0  0  0  0  0
   54.3981  -15.6406    5.8303 N   0  0  0  0  0  0  0  0  0  0  0  0
  1  2  1  0  0  0  0
  1  6  1  0  0  0  0
  2  3  2  0  0  0  0
  3  4  1  0  0  0  0
  4  5  2  0  0  0  0
  4 10  1  0  0  0  0
  5  6  1  0  0  0  0
  5  8  1  0  0  0  0
  6  7  2  0  0  0  0
  8  9  1  0  0  0  0
  9 10  2  0  0  0  0
M  END
>  <CHROM.1>
53.88566243,-13.97161982,7.13046397,-2.76494950,1.33117939,-0.99584858

>  <Name>
ligand

>  <RI>
0

>  <Rbt.Current_Directory>
/home/itssahil/PROJECTS/Mol_Feturizer/New_Systems/rnas/2EEV

>  <Rbt.Executable>
rbdock ($Id: //depot/dev/client3/rdock/2013.1/src/exe/rbdock.cxx#4 $)

>  <Rbt.Library>
libRbt.so (2013.1, Build901 2013/11/27)

>  <Rbt.Parameter_File>
/export/apps/rDock/src/rDock_2013.1_src/data/scripts/dock_solv.prm

>  <Rbt.Receptor>
prm/pocket_docking_4.prm

>  <SCORE>
-19.6507

>  <SCORE.INTER>
-19.6507

>  <SCORE.INTER.CONST>
1

>  <SCORE.INTER.POLAR>
0

>  <SCORE.INTER.ROT>
0

>  <SCORE.INTER.SOLV>
4.20597

>  <SCORE.INTER.VDW>
-18.1025

>  <SCORE.INTER.norm>
-1.96507

>  <SCORE.INTRA>
0

>  <SCORE.INTRA.DIHEDRAL>
0

>  <SCORE.INTRA.DIHEDRAL.0>
0

>  <SCORE.INTRA.POLAR>
0

>  <SCORE.INTRA.POLAR.0>
0

>  <SCORE.INTRA.REPUL>
0

>  <SCORE.INTRA.REPUL.0>
0

>  <SCORE.INTRA.SOLV>
0

>  <SCORE.INTRA.SOLV.lig_0>
-4.25352

>  <SCORE.INTRA.VDW>
0

>  <SCORE.INTRA.VDW.0>
0

>  <SCORE.INTRA.norm>
0

>  <SCORE.RESTR>
0

>  <SCORE.RESTR.CAVITY>
0

>  <SCORE.RESTR.norm>
0

>  <SCORE.SYSTEM>
0

>  <SCORE.SYSTEM.CONST>
0

>  <SCORE.SYSTEM.DIHEDRAL>
0

>  <SCORE.SYSTEM.SOLV>
0

>  <SCORE.SYSTEM.norm>
0

>  <SCORE.heavy>
10

>  <SCORE.norm>
-1.96507

>  <RMSD>
0.393

$$$$
ligand
 OpenBabel11021811423D
libRbt.so/2013.1/901 2013/11/27
 10 11  0  0  0  0  0  0  0  0999 V2000
   53.5253  -13.3521    8.9175 N   0  0  0  0  0  0  0  0  0  0  0  0
   53.7758  -14.6673    9.1869 C   0  0  0  0  0  0  0  0  0  0  0  0
   54.0950  -15.5518    8.2063 N   0  0  0  0  0  0  0  0  0  0  0  0
   54.1407  -14.9810    6.9680 C   0  0  0  0  0  0  0  0  0  0  0  0
   53.9004  -13.6663    6.6445 C   0  0  0  0  0  0  0  0  0  0  0  0
   53.5643  -12.7518    7.6468 C   0  0  0  0  0  0  0  0  0  0  0  0
   53.3161  -11.5675    7.5585 O   0  0  0  0  0  0  0  0  0  0  0  0
   54.0534  -13.5143    5.2929 N   0  0  0  0  0  0  0  0  0  0  0  0
   54.3787  -14.7072    4.8058 C   0  0  0  0  0  0  0  0  0  0  0  0
   54.4433  -15.6542    5.8107 N   0  0  0  0  0  0  0  0  0  0  0  0
  1  2  1  0  0  0  0
  1  6  1  0  0  0  0
  2  3  2  0  0  0  0
  3  4  1  0  0  0  0
  4  5  2  0  0  0  0
  4 10  1  0  0  0  0
  5  6  1  0  0  0  0
  5  8  1  0  0  0  0
  6  7  2  0  0  0  0
  8  9  1  0  0  0  0
  9 10  2  0  0  0  0
M  END
>  <CHROM.1>
53.90773198,-13.99546079,7.11468912,-2.74507390,1.31970375,-1.01219962

>  <Name>
ligand

>  <RI>
0

>  <Rbt.Current_Directory>
/home/itssahil/PROJECTS/Mol_Feturizer/New_Systems/rnas/2EEV

>  <Rbt.Executable>
rbdock ($Id: //depot/dev/client3/rdock/2013.1/src/exe/rbdock.cxx#4 $)

>  <Rbt.Library>
libRbt.so (2013.1, Build901 2013/11/27)

>  <Rbt.Parameter_File>
/export/apps/rDock/src/rDock_2013.1_src/data/scripts/dock_solv.prm

>  <Rbt.Receptor>
prm/pocket_docking_6.prm

>  <SCORE>
-19.7012

>  <SCORE.INTER>
-19.7012

>  <SCORE.INTER.CONST>
1

>  <SCORE.INTER.POLAR>
0

>  <SCORE.INTER.ROT>
0

>  <SCORE.INTER.SOLV>
4.164

>  <SCORE.INTER.VDW>
-18.1222

>  <SCORE.INTER.norm>
-1.97012

>  <SCORE.INTRA>
0

>  <SCORE.INTRA.DIHEDRAL>
0

>  <SCORE.INTRA.DIHEDRAL.0>
0

>  <SCORE.INTRA.POLAR>
0

>  <SCORE.INTRA.POLAR.0>
0

>  <SCORE.INTRA.REPUL>
0

>  <SCORE.INTRA.REPUL.0>
0

>  <SCORE.INTRA.SOLV>
0

>  <SCORE.INTRA.SOLV.lig_0>
-4.25352

>  <SCORE.INTRA.VDW>
0

>  <SCORE.INTRA.VDW.0>
0

>  <SCORE.INTRA.norm>
0

>  <SCORE.RESTR>
0

>  <SCORE.RESTR.CAVITY>
0

>  <SCORE.RESTR.norm>
0

>  <SCORE.SYSTEM>
0

>  <SCORE.SYSTEM.CONST>
0

>  <SCORE.SYSTEM.DIHEDRAL>
0

>  <SCORE.SYSTEM.SOLV>
0

>  <SCORE.SYSTEM.norm>
0

>  <SCORE.heavy>
10

>  <SCORE.norm>
-1.97012

>  <RMSD>
0.393

$$$$
ligand
 OpenBabel11021811423D
libRbt.so/2013.1/901 2013/11/27
 10 11  0  0  0  0  0  0  0  0999 V2000
   53.5290  -13.3301    8.9277 N   0  0  0  0  0  0  0  0  0  0  0  0
   53.7697  -14.6481    9.1925 C   0  0  0  0  0  0  0  0  0  0  0  0
   54.0773  -15.5325    8.2082 N   0  0  0  0  0  0  0  0  0  0  0  0
   54.1225  -14.9588    6.9712 C   0  0  0  0  0  0  0  0  0  0  0  0
   53.8916  -13.6413    6.6523 C   0  0  0  0  0  0  0  0  0  0  0  0
   53.5675  -12.7267    7.6585 C   0  0  0  0  0  0  0  0  0  0  0  0
   53.3287  -11.5402    7.5744 O   0  0  0  0  0  0  0  0  0  0  0  0
   54.0401  -13.4869    5.3004 N   0  0  0  0  0  0  0  0  0  0  0  0
   54.3534  -14.6811    4.8087 C   0  0  0  0  0  0  0  0  0  0  0  0
   54.4145  -15.6313    5.8108 N   0  0  0  0  0  0  0  0  0  0  0  0
  1  2  1  0  0  0  0
  1  6  1  0  0  0  0
  2  3  2  0  0  0  0
  3  4  1  0  0  0  0
  4  5  2  0  0  0  0
  4 10  1  0  0  0  0
  5  6  1  0  0  0  0
  5  8  1  0  0  0  0
  6  7  2  0  0  0  0
  8  9  1  0  0  0  0
  9 10  2  0  0  0  0
M  END
>  <CHROM.1>
53.89827770,-13.97172262,7.12153933,-2.74812900,1.32899544,-1.00655621

>  <Name>
ligand

>  <RI>
0

>  <Rbt.Current_Directory>
/home/itssahil/PROJECTS/Mol_Feturizer/New_Systems/rnas/2EEV

>  <Rbt.Executable>
rbdock ($Id: //depot/dev/client3/rdock/2013.1/src/exe/rbdock.cxx#4 $)

>  <Rbt.Library>
libRbt.so (2013.1, Build901 2013/11/27)

>  <Rbt.Parameter_File>
/export/apps/rDock/src/rDock_2013.1_src/data/scripts/dock_solv.prm

>  <Rbt.Receptor>
prm/pocket_docking_7.prm

>  <SCORE>
-19.6784

>  <SCORE.INTER>
-19.6784

>  <SCORE.INTER.CONST>
1

>  <SCORE.INTER.POLAR>
0

>  <SCORE.INTER.ROT>
0

>  <SCORE.INTER.SOLV>
4.19138

>  <SCORE.INTER.VDW>
-18.1161

>  <SCORE.INTER.norm>
-1.96784

>  <SCORE.INTRA>
0

>  <SCORE.INTRA.DIHEDRAL>
0

>  <SCORE.INTRA.DIHEDRAL.0>
0

>  <SCORE.INTRA.POLAR>
0

>  <SCORE.INTRA.POLAR.0>
0

>  <SCORE.INTRA.REPUL>
0

>  <SCORE.INTRA.REPUL.0>
0

>  <SCORE.INTRA.SOLV>
0

>  <SCORE.INTRA.SOLV.lig_0>
-4.25352

>  <SCORE.INTRA.VDW>
0

>  <SCORE.INTRA.VDW.0>
0

>  <SCORE.INTRA.norm>
0

>  <SCORE.RESTR>
0

>  <SCORE.RESTR.CAVITY>
0

>  <SCORE.RESTR.norm>
0

>  <SCORE.SYSTEM>
0

>  <SCORE.SYSTEM.CONST>
0

>  <SCORE.SYSTEM.DIHEDRAL>
0

>  <SCORE.SYSTEM.SOLV>
0

>  <SCORE.SYSTEM.norm>
0

>  <SCORE.heavy>
10

>  <SCORE.norm>
-1.96784

>  <RMSD>
0.394

$$$$
ligand
 OpenBabel11021811423D
libRbt.so/2013.1/901 2013/11/27
 10 11  0  0  0  0  0  0  0  0999 V2000
   53.4838  -13.3174    8.9257 N   0  0  0  0  0  0  0  0  0  0  0  0
   53.7256  -14.6334    9.1995 C   0  0  0  0  0  0  0  0  0  0  0  0
   54.0461  -15.5216    8.2227 N   0  0  0  0  0  0  0  0  0  0  0  0
   54.1024  -14.9537    6.9835 C   0  0  0  0  0  0  0  0  0  0  0  0
   53.8711  -13.6385    6.6558 C   0  0  0  0  0  0  0  0  0  0  0  0
   53.5338  -12.7200    7.6541 C   0  0  0  0  0  0  0  0  0  0  0  0
   53.2925  -11.5346    7.5618 O   0  0  0  0  0  0  0  0  0  0  0  0
   54.0333  -13.4901    5.3048 N   0  0  0  0  0  0  0  0  0  0  0  0
   54.3551  -14.6858    4.8222 C   0  0  0  0  0  0  0  0  0  0  0  0
   54.4085  -15.6310    5.8295 N   0  0  0  0  0  0  0  0  0  0  0  0
  1  2  1  0  0  0  0
  1  6  1  0  0  0  0
  2  3  2  0  0  0  0
  3  4  1  0  0  0  0
  4  5  2  0  0  0  0
  4 10  1  0  0  0  0
  5  6  1  0  0  0  0
  5  8  1  0  0  0  0
  6  7  2  0  0  0  0
  8  9  1  0  0  0  0
  9 10  2  0  0  0  0
M  END
>  <CHROM.1>
53.87384081,-13.96663551,7.12669922,-2.77752316,1.32087178,-0.98288564

>  <Name>
ligand

>  <RI>
0

>  <Rbt.Current_Directory>
/home/itssahil/PROJECTS/Mol_Feturizer/New_Systems/rnas/2EEV

>  <Rbt.Executable>
rbdock ($Id: //depot/dev/client3/rdock/2013.1/src/exe/rbdock.cxx#4 $)

>  <Rbt.Library>
libRbt.so (2013.1, Build901 2013/11/27)

>  <Rbt.Parameter_File>
/export/apps/rDock/src/rDock_2013.1_src/data/scripts/dock_solv.prm

>  <Rbt.Receptor>
prm/pocket_docking_8.prm

>  <SCORE>
-19.6856

>  <SCORE.INTER>
-19.6856

>  <SCORE.INTER.CONST>
1

>  <SCORE.INTER.POLAR>
0

>  <SCORE.INTER.ROT>
0

>  <SCORE.INTER.SOLV>
4.18861

>  <SCORE.INTER.VDW>
-18.12

>  <SCORE.INTER.norm>
-1.96856

>  <SCORE.INTRA>
0

>  <SCORE.INTRA.DIHEDRAL>
0

>  <SCORE.INTRA.DIHEDRAL.0>
0

>  <SCORE.INTRA.POLAR>
0

>  <SCORE.INTRA.POLAR.0>
0

>  <SCORE.INTRA.REPUL>
0

>  <SCORE.INTRA.REPUL.0>
0

>  <SCORE.INTRA.SOLV>
0

>  <SCORE.INTRA.SOLV.lig_0>
-4.25352

>  <SCORE.INTRA.VDW>
0

>  <SCORE.INTRA.VDW.0>
0

>  <SCORE.INTRA.norm>
0

>  <SCORE.RESTR>
0

>  <SCORE.RESTR.CAVITY>
0

>  <SCORE.RESTR.norm>
0

>  <SCORE.SYSTEM>
0

>  <SCORE.SYSTEM.CONST>
0

>  <SCORE.SYSTEM.DIHEDRAL>
0

>  <SCORE.SYSTEM.SOLV>
0

>  <SCORE.SYSTEM.norm>
0

>  <SCORE.heavy>
10

>  <SCORE.norm>
-1.96856

>  <RMSD>
0.394

$$$$
ligand
 OpenBabel11021811423D
libRbt.so/2013.1/901 2013/11/27
 10 11  0  0  0  0  0  0  0  0999 V2000
   53.4759  -13.3192    8.9219 N   0  0  0  0  0  0  0  0  0  0  0  0
   53.7202  -14.6344    9.1971 C   0  0  0  0  0  0  0  0  0  0  0  0
   54.0467  -15.5222    8.2219 N   0  0  0  0  0  0  0  0  0  0  0  0
   54.1063  -14.9546    6.9827 C   0  0  0  0  0  0  0  0  0  0  0  0
   53.8726  -13.6402    6.6535 C   0  0  0  0  0  0  0  0  0  0  0  0
   53.5291  -12.7222    7.6501 C   0  0  0  0  0  0  0  0  0  0  0  0
   53.2849  -11.5375    7.5564 O   0  0  0  0  0  0  0  0  0  0  0  0
   54.0395  -13.4920    5.3031 N   0  0  0  0  0  0  0  0  0  0  0  0
   54.3664  -14.6869    4.8223 C   0  0  0  0  0  0  0  0  0  0  0  0
   54.4185  -15.6316    5.8301 N   0  0  0  0  0  0  0  0  0  0  0  0
  1  2  1  0  0  0  0
  1  6  1  0  0  0  0
  2  3  2  0  0  0  0
  3  4  1  0  0  0  0
  4  5  2  0  0  0  0
  4 10  1  0  0  0  0
  5  6  1  0  0  0  0
  5  8  1  0  0  0  0
  6  7  2  0  0  0  0
  8  9  1  0  0  0  0
  9 10  2  0  0  0  0
M  END
>  <CHROM.1>
53.87445934,-13.96812299,7.12458067,-2.78411826,1.31651456,-0.97691796

>  <Name>
ligand

>  <RI>
0

>  <Rbt.Current_Directory>
/home/itssahil/PROJECTS/Mol_Feturizer/New_Systems/rnas/2EEV

>  <Rbt.Executable>
rbdock ($Id: //depot/dev/client3/rdock/2013.1/src/exe/rbdock.cxx#4 $)

>  <Rbt.Library>
libRbt.so (2013.1, Build901 2013/11/27)

>  <Rbt.Parameter_File>
/export/apps/rDock/src/rDock_2013.1_src/data/scripts/dock_solv.prm

>  <Rbt.Receptor>
prm/blind_docking_60.prm

>  <SCORE>
-19.6857

>  <SCORE.INTER>
-19.6857

>  <SCORE.INTER.CONST>
1

>  <SCORE.INTER.POLAR>
0

>  <SCORE.INTER.ROT>
0

>  <SCORE.INTER.SOLV>
4.17962

>  <SCORE.INTER.VDW>
-18.117

>  <SCORE.INTER.norm>
-1.96857

>  <SCORE.INTRA>
0

>  <SCORE.INTRA.DIHEDRAL>
0

>  <SCORE.INTRA.DIHEDRAL.0>
0

>  <SCORE.INTRA.POLAR>
0

>  <SCORE.INTRA.POLAR.0>
0

>  <SCORE.INTRA.REPUL>
0

>  <SCORE.INTRA.REPUL.0>
0

>  <SCORE.INTRA.SOLV>
0

>  <SCORE.INTRA.SOLV.lig_0>
-4.25352

>  <SCORE.INTRA.VDW>
0

>  <SCORE.INTRA.VDW.0>
0

>  <SCORE.INTRA.norm>
0

>  <SCORE.RESTR>
0

>  <SCORE.RESTR.CAVITY>
0

>  <SCORE.RESTR.norm>
0

>  <SCORE.SYSTEM>
0

>  <SCORE.SYSTEM.CONST>
0

>  <SCORE.SYSTEM.DIHEDRAL>
0

>  <SCORE.SYSTEM.SOLV>
0

>  <SCORE.SYSTEM.norm>
0

>  <SCORE.heavy>
10

>  <SCORE.norm>
-1.96857

>  <RMSD>
0.395

$$$$
ligand
 OpenBabel11021811423D
libRbt.so/2013.1/901 2013/11/27
 10 11  0  0  0  0  0  0  0  0999 V2000
   53.4487  -13.2847    8.9328 N   0  0  0  0  0  0  0  0  0  0  0  0
   53.6760  -14.6020    9.2130 C   0  0  0  0  0  0  0  0  0  0  0  0
   54.0064  -15.4944    8.2435 N   0  0  0  0  0  0  0  0  0  0  0  0
   54.0881  -14.9294    7.0044 C   0  0  0  0  0  0  0  0  0  0  0  0
   53.8722  -13.6131    6.6704 C   0  0  0  0  0  0  0  0  0  0  0  0
   53.5247  -12.6903    7.6611 C   0  0  0  0  0  0  0  0  0  0  0  0
   53.2938  -11.5033    7.5626 O   0  0  0  0  0  0  0  0  0  0  0  0
   54.0584  -13.4685    5.3221 N   0  0  0  0  0  0  0  0  0  0  0  0
   54.3796  -14.6675    4.8472 C   0  0  0  0  0  0  0  0  0  0  0  0
   54.4087  -15.6111    5.8570 N   0  0  0  0  0  0  0  0  0  0  0  0
  1  2  1  0  0  0  0
  1  6  1  0  0  0  0
  2  3  2  0  0  0  0
  3  4  1  0  0  0  0
  4  5  2  0  0  0  0
  4 10  1  0  0  0  0
  5  6  1  0  0  0  0
  5  8  1  0  0  0  0
  6  7  2  0  0  0  0
  8  9  1  0  0  0  0
  9 10  2  0  0  0  0
M  END
>  <CHROM.1>
53.86442436,-13.94033576,7.14185074,-2.85039979,1.31694878,-0.91416882

>  <Name>
ligand

>  <RI>
0

>  <Rbt.Current_Directory>
/home/itssahil/PROJECTS/Mol_Feturizer/New_Systems/rnas/2EEV

>  <Rbt.Executable>
rbdock ($Id: //depot/dev/client3/rdock/2013.1/src/exe/rbdock.cxx#4 $)

>  <Rbt.Library>
libRbt.so (2013.1, Build901 2013/11/27)

>  <Rbt.Parameter_File>
/export/apps/rDock/src/rDock_2013.1_src/data/scripts/dock_solv.prm

>  <Rbt.Receptor>
prm/pocket_docking_5.prm

>  <SCORE>
-19.6823

>  <SCORE.INTER>
-19.6823

>  <SCORE.INTER.CONST>
1

>  <SCORE.INTER.POLAR>
0

>  <SCORE.INTER.ROT>
0

>  <SCORE.INTER.SOLV>
4.20658

>  <SCORE.INTER.VDW>
-18.1237

>  <SCORE.INTER.norm>
-1.96823

>  <SCORE.INTRA>
0

>  <SCORE.INTRA.DIHEDRAL>
0

>  <SCORE.INTRA.DIHEDRAL.0>
0

>  <SCORE.INTRA.POLAR>
0

>  <SCORE.INTRA.POLAR.0>
0

>  <SCORE.INTRA.REPUL>
0

>  <SCORE.INTRA.REPUL.0>
0

>  <SCORE.INTRA.SOLV>
0

>  <SCORE.INTRA.SOLV.lig_0>
-4.25352

>  <SCORE.INTRA.VDW>
0

>  <SCORE.INTRA.VDW.0>
0

>  <SCORE.INTRA.norm>
0

>  <SCORE.RESTR>
0

>  <SCORE.RESTR.CAVITY>
0

>  <SCORE.RESTR.norm>
0

>  <SCORE.SYSTEM>
0

>  <SCORE.SYSTEM.CONST>
0

>  <SCORE.SYSTEM.DIHEDRAL>
0

>  <SCORE.SYSTEM.SOLV>
0

>  <SCORE.SYSTEM.norm>
0

>  <SCORE.heavy>
10

>  <SCORE.norm>
-1.96823

>  <RMSD>
0.395

$$$$
ligand
 OpenBabel11021811423D
libRbt.so/2013.1/901 2013/11/27
 10 11  0  0  0  0  0  0  0  0999 V2000
   53.4363  -13.2827    8.9186 N   0  0  0  0  0  0  0  0  0  0  0  0
   53.6819  -14.5938    9.2120 C   0  0  0  0  0  0  0  0  0  0  0  0
   54.0298  -15.4901    8.2522 N   0  0  0  0  0  0  0  0  0  0  0  0
   54.1087  -14.9353    7.0083 C   0  0  0  0  0  0  0  0  0  0  0  0
   53.8748  -13.6254    6.6612 C   0  0  0  0  0  0  0  0  0  0  0  0
   53.5093  -12.6988    7.6418 C   0  0  0  0  0  0  0  0  0  0  0  0
   53.2613  -11.5163    7.5313 O   0  0  0  0  0  0  0  0  0  0  0  0
   54.0650  -13.4906    5.3124 N   0  0  0  0  0  0  0  0  0  0  0  0
   54.4060  -14.6889    4.8501 C   0  0  0  0  0  0  0  0  0  0  0  0
   54.4445  -15.6227    5.8686 N   0  0  0  0  0  0  0  0  0  0  0  0
  1  2  1  0  0  0  0
  1  6  1  0  0  0  0
  2  3  2  0  0  0  0
  3  4  1  0  0  0  0
  4  5  2  0  0  0  0
  4 10  1  0  0  0  0
  5  6  1  0  0  0  0
  5  8  1  0  0  0  0
  6  7  2  0  0  0  0
  8  9  1  0  0  0  0
  9 10  2  0  0  0  0
M  END
>  <CHROM.1>
53.86982032,-13.94845088,7.13562378,-2.82982164,1.30242542,-0.94326053

>  <Name>
ligand

>  <RI>
0

>  <Rbt.Current_Directory>
/home/itssahil/PROJECTS/Mol_Feturizer/New_Systems/rnas/2EEV

>  <Rbt.Executable>
rbdock ($Id: //depot/dev/client3/rdock/2013.1/src/exe/rbdock.cxx#4 $)

>  <Rbt.Library>
libRbt.so (2013.1, Build901 2013/11/27)

>  <Rbt.Parameter_File>
/export/apps/rDock/src/rDock_2013.1_src/data/scripts/dock_solv.prm

>  <Rbt.Receptor>
prm/pocket_docking_6.prm

>  <SCORE>
-19.6736

>  <SCORE.INTER>
-19.6736

>  <SCORE.INTER.CONST>
1

>  <SCORE.INTER.POLAR>
0

>  <SCORE.INTER.ROT>
0

>  <SCORE.INTER.SOLV>
4.1591

>  <SCORE.INTER.VDW>
-18.1021

>  <SCORE.INTER.norm>
-1.96736

>  <SCORE.INTRA>
0

>  <SCORE.INTRA.DIHEDRAL>
0

>  <SCORE.INTRA.DIHEDRAL.0>
0

>  <SCORE.INTRA.POLAR>
0

>  <SCORE.INTRA.POLAR.0>
0

>  <SCORE.INTRA.REPUL>
0

>  <SCORE.INTRA.REPUL.0>
0

>  <SCORE.INTRA.SOLV>
0

>  <SCORE.INTRA.SOLV.lig_0>
-4.25352

>  <SCORE.INTRA.VDW>
0

>  <SCORE.INTRA.VDW.0>
0

>  <SCORE.INTRA.norm>
0

>  <SCORE.RESTR>
0

>  <SCORE.RESTR.CAVITY>
0

>  <SCORE.RESTR.norm>
0

>  <SCORE.SYSTEM>
0

>  <SCORE.SYSTEM.CONST>
0

>  <SCORE.SYSTEM.DIHEDRAL>
0

>  <SCORE.SYSTEM.SOLV>
0

>  <SCORE.SYSTEM.norm>
0

>  <SCORE.heavy>
10

>  <SCORE.norm>
-1.96736

>  <RMSD>
0.395

$$$$
ligand
 OpenBabel11021811423D
libRbt.so/2013.1/901 2013/11/27
 10 11  0  0  0  0  0  0  0  0999 V2000
   53.4956  -13.3102    8.9269 N   0  0  0  0  0  0  0  0  0  0  0  0
   53.7239  -14.6287    9.2001 C   0  0  0  0  0  0  0  0  0  0  0  0
   54.0400  -15.5188    8.2236 N   0  0  0  0  0  0  0  0  0  0  0  0
   54.1067  -14.9501    6.9853 C   0  0  0  0  0  0  0  0  0  0  0  0
   53.8890  -13.6323    6.6582 C   0  0  0  0  0  0  0  0  0  0  0  0
   53.5563  -12.7119    7.6562 C   0  0  0  0  0  0  0  0  0  0  0  0
   53.3264  -11.5242    7.5643 O   0  0  0  0  0  0  0  0  0  0  0  0
   54.0581  -13.4840    5.3080 N   0  0  0  0  0  0  0  0  0  0  0  0
   54.3707  -14.6821    4.8254 C   0  0  0  0  0  0  0  0  0  0  0  0
   54.4111  -15.6289    5.8318 N   0  0  0  0  0  0  0  0  0  0  0  0
  1  2  1  0  0  0  0
  1  6  1  0  0  0  0
  2  3  2  0  0  0  0
  3  4  1  0  0  0  0
  4  5  2  0  0  0  0
  4 10  1  0  0  0  0
  5  6  1  0  0  0  0
  5  8  1  0  0  0  0
  6  7  2  0  0  0  0
  8  9  1  0  0  0  0
  9 10  2  0  0  0  0
M  END
>  <CHROM.1>
53.88677695,-13.96106032,7.12870960,-2.81291186,1.32624818,-0.94742057

>  <Name>
ligand

>  <RI>
0

>  <Rbt.Current_Directory>
/home/itssahil/PROJECTS/Mol_Feturizer/New_Systems/rnas/2EEV

>  <Rbt.Executable>
rbdock ($Id: //depot/dev/client3/rdock/2013.1/src/exe/rbdock.cxx#4 $)

>  <Rbt.Library>
libRbt.so (2013.1, Build901 2013/11/27)

>  <Rbt.Parameter_File>
/export/apps/rDock/src/rDock_2013.1_src/data/scripts/dock_solv.prm

>  <Rbt.Receptor>
prm/blind_docking_60.prm

>  <SCORE>
-19.6806

>  <SCORE.INTER>
-19.6806

>  <SCORE.INTER.CONST>
1

>  <SCORE.INTER.POLAR>
0

>  <SCORE.INTER.ROT>
0

>  <SCORE.INTER.SOLV>
4.20623

>  <SCORE.INTER.VDW>
-18.1225

>  <SCORE.INTER.norm>
-1.96806

>  <SCORE.INTRA>
0

>  <SCORE.INTRA.DIHEDRAL>
0

>  <SCORE.INTRA.DIHEDRAL.0>
0

>  <SCORE.INTRA.POLAR>
0

>  <SCORE.INTRA.POLAR.0>
0

>  <SCORE.INTRA.REPUL>
0

>  <SCORE.INTRA.REPUL.0>
0

>  <SCORE.INTRA.SOLV>
0

>  <SCORE.INTRA.SOLV.lig_0>
-4.25352

>  <SCORE.INTRA.VDW>
0

>  <SCORE.INTRA.VDW.0>
0

>  <SCORE.INTRA.norm>
0

>  <SCORE.RESTR>
0

>  <SCORE.RESTR.CAVITY>
0

>  <SCORE.RESTR.norm>
0

>  <SCORE.SYSTEM>
0

>  <SCORE.SYSTEM.CONST>
0

>  <SCORE.SYSTEM.DIHEDRAL>
0

>  <SCORE.SYSTEM.SOLV>
0

>  <SCORE.SYSTEM.norm>
0

>  <SCORE.heavy>
10

>  <SCORE.norm>
-1.96806

>  <RMSD>
0.396

$$$$
ligand
 OpenBabel11021811423D
libRbt.so/2013.1/901 2013/11/27
 10 11  0  0  0  0  0  0  0  0999 V2000
   53.4870  -13.3129    8.9243 N   0  0  0  0  0  0  0  0  0  0  0  0
   53.7238  -14.6291    9.2011 C   0  0  0  0  0  0  0  0  0  0  0  0
   54.0434  -15.5204    8.2269 N   0  0  0  0  0  0  0  0  0  0  0  0
   54.1045  -14.9552    6.9867 C   0  0  0  0  0  0  0  0  0  0  0  0
   53.8783  -13.6398    6.6558 C   0  0  0  0  0  0  0  0  0  0  0  0
   53.5418  -12.7183    7.6515 C   0  0  0  0  0  0  0  0  0  0  0  0
   53.3047  -11.5322    7.5563 O   0  0  0  0  0  0  0  0  0  0  0  0
   54.0439  -13.4947    5.3049 N   0  0  0  0  0  0  0  0  0  0  0  0
   54.3628  -14.6924    4.8254 C   0  0  0  0  0  0  0  0  0  0  0  0
   54.4108  -15.6358    5.8347 N   0  0  0  0  0  0  0  0  0  0  0  0
  1  2  1  0  0  0  0
  1  6  1  0  0  0  0
  2  3  2  0  0  0  0
  3  4  1  0  0  0  0
  4  5  2  0  0  0  0
  4 10  1  0  0  0  0
  5  6  1  0  0  0  0
  5  8  1  0  0  0  0
  6  7  2  0  0  0  0
  8  9  1  0  0  0  0
  9 10  2  0  0  0  0
M  END
>  <CHROM.1>
53.87884007,-13.96704126,7.12737035,-2.79259365,1.32240216,-0.97027396

>  <Name>
ligand

>  <RI>
0

>  <Rbt.Current_Directory>
/home/itssahil/PROJECTS/Mol_Feturizer/New_Systems/rnas/2EEV

>  <Rbt.Executable>
rbdock ($Id: //depot/dev/client3/rdock/2013.1/src/exe/rbdock.cxx#4 $)

>  <Rbt.Library>
libRbt.so (2013.1, Build901 2013/11/27)

>  <Rbt.Parameter_File>
/export/apps/rDock/src/rDock_2013.1_src/data/scripts/dock_solv.prm

>  <Rbt.Receptor>
prm/pocket_docking_5.prm

>  <SCORE>
-19.6858

>  <SCORE.INTER>
-19.6858

>  <SCORE.INTER.CONST>
1

>  <SCORE.INTER.POLAR>
0

>  <SCORE.INTER.ROT>
0

>  <SCORE.INTER.SOLV>
4.19412

>  <SCORE.INTER.VDW>
-18.1219

>  <SCORE.INTER.norm>
-1.96858

>  <SCORE.INTRA>
0

>  <SCORE.INTRA.DIHEDRAL>
0

>  <SCORE.INTRA.DIHEDRAL.0>
0

>  <SCORE.INTRA.POLAR>
0

>  <SCORE.INTRA.POLAR.0>
0

>  <SCORE.INTRA.REPUL>
0

>  <SCORE.INTRA.REPUL.0>
0

>  <SCORE.INTRA.SOLV>
0

>  <SCORE.INTRA.SOLV.lig_0>
-4.25352

>  <SCORE.INTRA.VDW>
0

>  <SCORE.INTRA.VDW.0>
0

>  <SCORE.INTRA.norm>
0

>  <SCORE.RESTR>
0

>  <SCORE.RESTR.CAVITY>
0

>  <SCORE.RESTR.norm>
0

>  <SCORE.SYSTEM>
0

>  <SCORE.SYSTEM.CONST>
0

>  <SCORE.SYSTEM.DIHEDRAL>
0

>  <SCORE.SYSTEM.SOLV>
0

>  <SCORE.SYSTEM.norm>
0

>  <SCORE.heavy>
10

>  <SCORE.norm>
-1.96858

>  <RMSD>
0.396

$$$$
ligand
 OpenBabel11021811423D
libRbt.so/2013.1/901 2013/11/27
 10 11  0  0  0  0  0  0  0  0999 V2000
   53.5358  -13.3425    8.9187 N   0  0  0  0  0  0  0  0  0  0  0  0
   53.7932  -14.6535    9.2019 C   0  0  0  0  0  0  0  0  0  0  0  0
   54.0993  -15.5504    8.2285 N   0  0  0  0  0  0  0  0  0  0  0  0
   54.1250  -14.9963    6.9821 C   0  0  0  0  0  0  0  0  0  0  0  0
   53.8769  -13.6865    6.6447 C   0  0  0  0  0  0  0  0  0  0  0  0
   53.5542  -12.7593    7.6396 C   0  0  0  0  0  0  0  0  0  0  0  0
   53.3021  -11.5767    7.5392 O   0  0  0  0  0  0  0  0  0  0  0  0
   54.0091  -13.5524    5.2889 N   0  0  0  0  0  0  0  0  0  0  0  0
   54.3295  -14.7511    4.8130 C   0  0  0  0  0  0  0  0  0  0  0  0
   54.4114  -15.6844    5.8294 N   0  0  0  0  0  0  0  0  0  0  0  0
  1  2  1  0  0  0  0
  1  6  1  0  0  0  0
  2  3  2  0  0  0  0
  3  4  1  0  0  0  0
  4  5  2  0  0  0  0
  4 10  1  0  0  0  0
  5  6  1  0  0  0  0
  5  8  1  0  0  0  0
  6  7  2  0  0  0  0
  8  9  1  0  0  0  0
  9 10  2  0  0  0  0
M  END
>  <CHROM.1>
53.89215830,-14.00927861,7.11904658,-2.68719820,1.32554600,-1.08174055

>  <Name>
ligand

>  <RI>
0

>  <Rbt.Current_Directory>
/home/itssahil/PROJECTS/Mol_Feturizer/New_Systems/rnas/2EEV

>  <Rbt.Executable>
rbdock ($Id: //depot/dev/client3/rdock/2013.1/src/exe/rbdock.cxx#4 $)

>  <Rbt.Library>
libRbt.so (2013.1, Build901 2013/11/27)

>  <Rbt.Parameter_File>
/export/apps/rDock/src/rDock_2013.1_src/data/scripts/dock_solv.prm

>  <Rbt.Receptor>
prm/pocket_docking_7.prm

>  <SCORE>
-19.6663

>  <SCORE.INTER>
-19.6663

>  <SCORE.INTER.CONST>
1

>  <SCORE.INTER.POLAR>
0

>  <SCORE.INTER.ROT>
0

>  <SCORE.INTER.SOLV>
4.16977

>  <SCORE.INTER.VDW>
-18.1008

>  <SCORE.INTER.norm>
-1.96663

>  <SCORE.INTRA>
0

>  <SCORE.INTRA.DIHEDRAL>
0

>  <SCORE.INTRA.DIHEDRAL.0>
0

>  <SCORE.INTRA.POLAR>
0

>  <SCORE.INTRA.POLAR.0>
0

>  <SCORE.INTRA.REPUL>
0

>  <SCORE.INTRA.REPUL.0>
0

>  <SCORE.INTRA.SOLV>
0

>  <SCORE.INTRA.SOLV.lig_0>
-4.25352

>  <SCORE.INTRA.VDW>
0

>  <SCORE.INTRA.VDW.0>
0

>  <SCORE.INTRA.norm>
0

>  <SCORE.RESTR>
0

>  <SCORE.RESTR.CAVITY>
0

>  <SCORE.RESTR.norm>
0

>  <SCORE.SYSTEM>
0

>  <SCORE.SYSTEM.CONST>
0

>  <SCORE.SYSTEM.DIHEDRAL>
0

>  <SCORE.SYSTEM.SOLV>
0

>  <SCORE.SYSTEM.norm>
0

>  <SCORE.heavy>
10

>  <SCORE.norm>
-1.96663

>  <RMSD>
0.396

$$$$
ligand
 OpenBabel11021811423D
libRbt.so/2013.1/901 2013/11/27
 10 11  0  0  0  0  0  0  0  0999 V2000
   53.4772  -13.3097    8.9208 N   0  0  0  0  0  0  0  0  0  0  0  0
   53.7168  -14.6251    9.1994 C   0  0  0  0  0  0  0  0  0  0  0  0
   54.0411  -15.5163    8.2267 N   0  0  0  0  0  0  0  0  0  0  0  0
   54.1035  -14.9520    6.9861 C   0  0  0  0  0  0  0  0  0  0  0  0
   53.8746  -13.6375    6.6536 C   0  0  0  0  0  0  0  0  0  0  0  0
   53.5334  -12.7160    7.6477 C   0  0  0  0  0  0  0  0  0  0  0  0
   53.2932  -11.5307    7.5509 O   0  0  0  0  0  0  0  0  0  0  0  0
   54.0430  -13.4932    5.3029 N   0  0  0  0  0  0  0  0  0  0  0  0
   54.3662  -14.6904    4.8252 C   0  0  0  0  0  0  0  0  0  0  0  0
   54.4143  -15.6328    5.8354 N   0  0  0  0  0  0  0  0  0  0  0  0
  1  2  1  0  0  0  0
  1  6  1  0  0  0  0
  2  3  2  0  0  0  0
  3  4  1  0  0  0  0
  4  5  2  0  0  0  0
  4 10  1  0  0  0  0
  5  6  1  0  0  0  0
  5  8  1  0  0  0  0
  6  7  2  0  0  0  0
  8  9  1  0  0  0  0
  9 10  2  0  0  0  0
M  END
>  <CHROM.1>
53.87491639,-13.96436427,7.12540745,-2.79423312,1.31886894,-0.96955391

>  <Name>
ligand

>  <RI>
0

>  <Rbt.Current_Directory>
/home/itssahil/PROJECTS/Mol_Feturizer/New_Systems/rnas/2EEV

>  <Rbt.Executable>
rbdock ($Id: //depot/dev/client3/rdock/2013.1/src/exe/rbdock.cxx#4 $)

>  <Rbt.Library>
libRbt.so (2013.1, Build901 2013/11/27)

>  <Rbt.Parameter_File>
/export/apps/rDock/src/rDock_2013.1_src/data/scripts/dock_solv.prm

>  <Rbt.Receptor>
prm/blind_docking_60.prm

>  <SCORE>
-19.686

>  <SCORE.INTER>
-19.686

>  <SCORE.INTER.CONST>
1

>  <SCORE.INTER.POLAR>
0

>  <SCORE.INTER.ROT>
0

>  <SCORE.INTER.SOLV>
4.18752

>  <SCORE.INTER.VDW>
-18.1199

>  <SCORE.INTER.norm>
-1.9686

>  <SCORE.INTRA>
0

>  <SCORE.INTRA.DIHEDRAL>
0

>  <SCORE.INTRA.DIHEDRAL.0>
0

>  <SCORE.INTRA.POLAR>
0

>  <SCORE.INTRA.POLAR.0>
0

>  <SCORE.INTRA.REPUL>
0

>  <SCORE.INTRA.REPUL.0>
0

>  <SCORE.INTRA.SOLV>
0

>  <SCORE.INTRA.SOLV.lig_0>
-4.25352

>  <SCORE.INTRA.VDW>
0

>  <SCORE.INTRA.VDW.0>
0

>  <SCORE.INTRA.norm>
0

>  <SCORE.RESTR>
0

>  <SCORE.RESTR.CAVITY>
0

>  <SCORE.RESTR.norm>
0

>  <SCORE.SYSTEM>
0

>  <SCORE.SYSTEM.CONST>
0

>  <SCORE.SYSTEM.DIHEDRAL>
0

>  <SCORE.SYSTEM.SOLV>
0

>  <SCORE.SYSTEM.norm>
0

>  <SCORE.heavy>
10

>  <SCORE.norm>
-1.9686

>  <RMSD>
0.398

$$$$
ligand
 OpenBabel11021811423D
libRbt.so/2013.1/901 2013/11/27
 10 11  0  0  0  0  0  0  0  0999 V2000
   53.4744  -13.3141    8.9192 N   0  0  0  0  0  0  0  0  0  0  0  0
   53.7133  -14.6306    9.1930 C   0  0  0  0  0  0  0  0  0  0  0  0
   54.0407  -15.5178    8.2176 N   0  0  0  0  0  0  0  0  0  0  0  0
   54.1070  -14.9483    6.9796 C   0  0  0  0  0  0  0  0  0  0  0  0
   53.8790  -13.6325    6.6519 C   0  0  0  0  0  0  0  0  0  0  0  0
   53.5346  -12.7152    7.6487 C   0  0  0  0  0  0  0  0  0  0  0  0
   53.2947  -11.5295    7.5561 O   0  0  0  0  0  0  0  0  0  0  0  0
   54.0517  -13.4825    5.3023 N   0  0  0  0  0  0  0  0  0  0  0  0
   54.3766  -14.6777    4.8207 C   0  0  0  0  0  0  0  0  0  0  0  0
   54.4216  -15.6243    5.8271 N   0  0  0  0  0  0  0  0  0  0  0  0
  1  2  1  0  0  0  0
  1  6  1  0  0  0  0
  2  3  2  0  0  0  0
  3  4  1  0  0  0  0
  4  5  2  0  0  0  0
  4 10  1  0  0  0  0
  5  6  1  0  0  0  0
  5  8  1  0  0  0  0
  6  7  2  0  0  0  0
  8  9  1  0  0  0  0
  9 10  2  0  0  0  0
M  END
>  <CHROM.1>
53.87791633,-13.96128726,7.12232475,-2.80448276,1.31698643,-0.95546817

>  <Name>
ligand

>  <RI>
0

>  <Rbt.Current_Directory>
/home/itssahil/PROJECTS/Mol_Feturizer/New_Systems/rnas/2EEV

>  <Rbt.Executable>
rbdock ($Id: //depot/dev/client3/rdock/2013.1/src/exe/rbdock.cxx#4 $)

>  <Rbt.Library>
libRbt.so (2013.1, Build901 2013/11/27)

>  <Rbt.Parameter_File>
/export/apps/rDock/src/rDock_2013.1_src/data/scripts/dock_solv.prm

>  <Rbt.Receptor>
prm/blind_docking_80.prm

>  <SCORE>
-19.6839

>  <SCORE.INTER>
-19.6839

>  <SCORE.INTER.CONST>
1

>  <SCORE.INTER.POLAR>
0

>  <SCORE.INTER.ROT>
0

>  <SCORE.INTER.SOLV>
4.18515

>  <SCORE.INTER.VDW>
-18.1177

>  <SCORE.INTER.norm>
-1.96839

>  <SCORE.INTRA>
0

>  <SCORE.INTRA.DIHEDRAL>
0

>  <SCORE.INTRA.DIHEDRAL.0>
0

>  <SCORE.INTRA.POLAR>
0

>  <SCORE.INTRA.POLAR.0>
0

>  <SCORE.INTRA.REPUL>
0

>  <SCORE.INTRA.REPUL.0>
0

>  <SCORE.INTRA.SOLV>
0

>  <SCORE.INTRA.SOLV.lig_0>
-4.25352

>  <SCORE.INTRA.VDW>
0

>  <SCORE.INTRA.VDW.0>
0

>  <SCORE.INTRA.norm>
0

>  <SCORE.RESTR>
0

>  <SCORE.RESTR.CAVITY>
0

>  <SCORE.RESTR.norm>
0

>  <SCORE.SYSTEM>
0

>  <SCORE.SYSTEM.CONST>
0

>  <SCORE.SYSTEM.DIHEDRAL>
0

>  <SCORE.SYSTEM.SOLV>
0

>  <SCORE.SYSTEM.norm>
0

>  <SCORE.heavy>
10

>  <SCORE.norm>
-1.96839

>  <RMSD>
0.398

$$$$
ligand
 OpenBabel11021811423D
libRbt.so/2013.1/901 2013/11/27
 10 11  0  0  0  0  0  0  0  0999 V2000
   53.4807  -13.3113    8.9217 N   0  0  0  0  0  0  0  0  0  0  0  0
   53.7169  -14.6278    9.1979 C   0  0  0  0  0  0  0  0  0  0  0  0
   54.0391  -15.5181    8.2235 N   0  0  0  0  0  0  0  0  0  0  0  0
   54.1033  -14.9516    6.9841 C   0  0  0  0  0  0  0  0  0  0  0  0
   53.8778  -13.6359    6.6540 C   0  0  0  0  0  0  0  0  0  0  0  0
   53.5387  -12.7154    7.6497 C   0  0  0  0  0  0  0  0  0  0  0  0
   53.3016  -11.5293    7.5551 O   0  0  0  0  0  0  0  0  0  0  0  0
   54.0469  -13.4894    5.3036 N   0  0  0  0  0  0  0  0  0  0  0  0
   54.3672  -14.6866    4.8237 C   0  0  0  0  0  0  0  0  0  0  0  0
   54.4126  -15.6310    5.8322 N   0  0  0  0  0  0  0  0  0  0  0  0
  1  2  1  0  0  0  0
  1  6  1  0  0  0  0
  2  3  2  0  0  0  0
  3  4  1  0  0  0  0
  4  5  2  0  0  0  0
  4 10  1  0  0  0  0
  5  6  1  0  0  0  0
  5  8  1  0  0  0  0
  6  7  2  0  0  0  0
  8  9  1  0  0  0  0
  9 10  2  0  0  0  0
M  END
>  <CHROM.1>
53.87718611,-13.96359629,7.12516961,-2.80093128,1.32084032,-0.96117208

>  <Name>
ligand

>  <RI>
0

>  <Rbt.Current_Directory>
/home/itssahil/PROJECTS/Mol_Feturizer/New_Systems/rnas/2EEV

>  <Rbt.Executable>
rbdock ($Id: //depot/dev/client3/rdock/2013.1/src/exe/rbdock.cxx#4 $)

>  <Rbt.Library>
libRbt.so (2013.1, Build901 2013/11/27)

>  <Rbt.Parameter_File>
/export/apps/rDock/src/rDock_2013.1_src/data/scripts/dock_solv.prm

>  <Rbt.Receptor>
prm/pocket_docking_3.prm

>  <SCORE>
-19.6861

>  <SCORE.INTER>
-19.6861

>  <SCORE.INTER.CONST>
1

>  <SCORE.INTER.POLAR>
0

>  <SCORE.INTER.ROT>
0

>  <SCORE.INTER.SOLV>
4.19351

>  <SCORE.INTER.VDW>
-18.1219

>  <SCORE.INTER.norm>
-1.96861

>  <SCORE.INTRA>
0

>  <SCORE.INTRA.DIHEDRAL>
0

>  <SCORE.INTRA.DIHEDRAL.0>
0

>  <SCORE.INTRA.POLAR>
0

>  <SCORE.INTRA.POLAR.0>
0

>  <SCORE.INTRA.REPUL>
0

>  <SCORE.INTRA.REPUL.0>
0

>  <SCORE.INTRA.SOLV>
0

>  <SCORE.INTRA.SOLV.lig_0>
-4.25352

>  <SCORE.INTRA.VDW>
0

>  <SCORE.INTRA.VDW.0>
0

>  <SCORE.INTRA.norm>
0

>  <SCORE.RESTR>
0

>  <SCORE.RESTR.CAVITY>
0

>  <SCORE.RESTR.norm>
0

>  <SCORE.SYSTEM>
0

>  <SCORE.SYSTEM.CONST>
0

>  <SCORE.SYSTEM.DIHEDRAL>
0

>  <SCORE.SYSTEM.SOLV>
0

>  <SCORE.SYSTEM.norm>
0

>  <SCORE.heavy>
10

>  <SCORE.norm>
-1.96861

>  <RMSD>
0.398

$$$$
ligand
 OpenBabel11021811423D
libRbt.so/2013.1/901 2013/11/27
 10 11  0  0  0  0  0  0  0  0999 V2000
   53.4574  -13.2994    8.9310 N   0  0  0  0  0  0  0  0  0  0  0  0
   53.6795  -14.6113    9.2388 C   0  0  0  0  0  0  0  0  0  0  0  0
   53.9945  -15.5276    8.2865 N   0  0  0  0  0  0  0  0  0  0  0  0
   54.0671  -14.9913    7.0342 C   0  0  0  0  0  0  0  0  0  0  0  0
   53.8558  -13.6816    6.6725 C   0  0  0  0  0  0  0  0  0  0  0  0
   53.5242  -12.7344    7.6454 C   0  0  0  0  0  0  0  0  0  0  0  0
   53.2996  -11.5484    7.5223 O   0  0  0  0  0  0  0  0  0  0  0  0
   54.0292  -13.5689    5.3195 N   0  0  0  0  0  0  0  0  0  0  0  0
   54.3381  -14.7803    4.8688 C   0  0  0  0  0  0  0  0  0  0  0  0
   54.3718  -15.7009    5.8994 N   0  0  0  0  0  0  0  0  0  0  0  0
  1  2  1  0  0  0  0
  1  6  1  0  0  0  0
  2  3  2  0  0  0  0
  3  4  1  0  0  0  0
  4  5  2  0  0  0  0
  4 10  1  0  0  0  0
  5  6  1  0  0  0  0
  5  8  1  0  0  0  0
  6  7  2  0  0  0  0
  8  9  1  0  0  0  0
  9 10  2  0  0  0  0
M  END
>  <CHROM.1>
53.85086597,-13.99802701,7.15134746,-2.83248903,1.32799546,-0.95423342

>  <Name>
ligand

>  <RI>
0

>  <Rbt.Current_Directory>
/home/itssahil/PROJECTS/Mol_Feturizer/New_Systems/rnas/2EEV

>  <Rbt.Executable>
rbdock ($Id: //depot/dev/client3/rdock/2013.1/src/exe/rbdock.cxx#4 $)

>  <Rbt.Library>
libRbt.so (2013.1, Build901 2013/11/27)

>  <Rbt.Parameter_File>
/export/apps/rDock/src/rDock_2013.1_src/data/scripts/dock_solv.prm

>  <Rbt.Receptor>
prm/pocket_docking_8.prm

>  <SCORE>
-19.6765

>  <SCORE.INTER>
-19.6765

>  <SCORE.INTER.CONST>
1

>  <SCORE.INTER.POLAR>
0

>  <SCORE.INTER.ROT>
0

>  <SCORE.INTER.SOLV>
4.23826

>  <SCORE.INTER.VDW>
-18.1304

>  <SCORE.INTER.norm>
-1.96765

>  <SCORE.INTRA>
0

>  <SCORE.INTRA.DIHEDRAL>
0

>  <SCORE.INTRA.DIHEDRAL.0>
0

>  <SCORE.INTRA.POLAR>
0

>  <SCORE.INTRA.POLAR.0>
0

>  <SCORE.INTRA.REPUL>
0

>  <SCORE.INTRA.REPUL.0>
0

>  <SCORE.INTRA.SOLV>
0

>  <SCORE.INTRA.SOLV.lig_0>
-4.25352

>  <SCORE.INTRA.VDW>
0

>  <SCORE.INTRA.VDW.0>
0

>  <SCORE.INTRA.norm>
0

>  <SCORE.RESTR>
0

>  <SCORE.RESTR.CAVITY>
0

>  <SCORE.RESTR.norm>
0

>  <SCORE.SYSTEM>
0

>  <SCORE.SYSTEM.CONST>
0

>  <SCORE.SYSTEM.DIHEDRAL>
0

>  <SCORE.SYSTEM.SOLV>
0

>  <SCORE.SYSTEM.norm>
0

>  <SCORE.heavy>
10

>  <SCORE.norm>
-1.96765

>  <RMSD>
0.398

$$$$
ligand
 OpenBabel11021811423D
libRbt.so/2013.1/901 2013/11/27
 10 11  0  0  0  0  0  0  0  0999 V2000
   53.4764  -13.3047    8.9154 N   0  0  0  0  0  0  0  0  0  0  0  0
   53.7125  -14.6197    9.1989 C   0  0  0  0  0  0  0  0  0  0  0  0
   54.0397  -15.5143    8.2303 N   0  0  0  0  0  0  0  0  0  0  0  0
   54.1089  -14.9537    6.9884 C   0  0  0  0  0  0  0  0  0  0  0  0
   53.8838  -13.6398    6.6510 C   0  0  0  0  0  0  0  0  0  0  0  0
   53.5396  -12.7148    7.6408 C   0  0  0  0  0  0  0  0  0  0  0  0
   53.3020  -11.5294    7.5395 O   0  0  0  0  0  0  0  0  0  0  0  0
   54.0588  -13.4997    5.3007 N   0  0  0  0  0  0  0  0  0  0  0  0
   54.3821  -14.6989    4.8280 C   0  0  0  0  0  0  0  0  0  0  0  0
   54.4238  -15.6384    5.8412 N   0  0  0  0  0  0  0  0  0  0  0  0
  1  2  1  0  0  0  0
  1  6  1  0  0  0  0
  2  3  2  0  0  0  0
  3  4  1  0  0  0  0
  4  5  2  0  0  0  0
  4 10  1  0  0  0  0
  5  6  1  0  0  0  0
  5  8  1  0  0  0  0
  6  7  2  0  0  0  0
  8  9  1  0  0  0  0
  9 10  2  0  0  0  0
M  END
>  <CHROM.1>
53.88139080,-13.96527467,7.12378112,-2.81356410,1.31765208,-0.95373492

>  <Name>
ligand

>  <RI>
0

>  <Rbt.Current_Directory>
/home/itssahil/PROJECTS/Mol_Feturizer/New_Systems/rnas/2EEV

>  <Rbt.Executable>
rbdock ($Id: //depot/dev/client3/rdock/2013.1/src/exe/rbdock.cxx#4 $)

>  <Rbt.Library>
libRbt.so (2013.1, Build901 2013/11/27)

>  <Rbt.Parameter_File>
/export/apps/rDock/src/rDock_2013.1_src/data/scripts/dock_solv.prm

>  <Rbt.Receptor>
prm/pocket_docking_6.prm

>  <SCORE>
-19.6807

>  <SCORE.INTER>
-19.6807

>  <SCORE.INTER.CONST>
1

>  <SCORE.INTER.POLAR>
0

>  <SCORE.INTER.ROT>
0

>  <SCORE.INTER.SOLV>
4.18629

>  <SCORE.INTER.VDW>
-18.1159

>  <SCORE.INTER.norm>
-1.96807

>  <SCORE.INTRA>
0

>  <SCORE.INTRA.DIHEDRAL>
0

>  <SCORE.INTRA.DIHEDRAL.0>
0

>  <SCORE.INTRA.POLAR>
0

>  <SCORE.INTRA.POLAR.0>
0

>  <SCORE.INTRA.REPUL>
0

>  <SCORE.INTRA.REPUL.0>
0

>  <SCORE.INTRA.SOLV>
0

>  <SCORE.INTRA.SOLV.lig_0>
-4.25352

>  <SCORE.INTRA.VDW>
0

>  <SCORE.INTRA.VDW.0>
0

>  <SCORE.INTRA.norm>
0

>  <SCORE.RESTR>
0

>  <SCORE.RESTR.CAVITY>
0

>  <SCORE.RESTR.norm>
0

>  <SCORE.SYSTEM>
0

>  <SCORE.SYSTEM.CONST>
0

>  <SCORE.SYSTEM.DIHEDRAL>
0

>  <SCORE.SYSTEM.SOLV>
0

>  <SCORE.SYSTEM.norm>
0

>  <SCORE.heavy>
10

>  <SCORE.norm>
-1.96807

>  <RMSD>
0.400

$$$$
ligand
 OpenBabel11021811423D
libRbt.so/2013.1/901 2013/11/27
 10 11  0  0  0  0  0  0  0  0999 V2000
   53.4575  -13.3061    8.9123 N   0  0  0  0  0  0  0  0  0  0  0  0
   53.6968  -14.6206    9.1954 C   0  0  0  0  0  0  0  0  0  0  0  0
   54.0331  -15.5127    8.2276 N   0  0  0  0  0  0  0  0  0  0  0  0
   54.1074  -14.9502    6.9869 C   0  0  0  0  0  0  0  0  0  0  0  0
   53.8793  -13.6367    6.6499 C   0  0  0  0  0  0  0  0  0  0  0  0
   53.5259  -12.7143    7.6389 C   0  0  0  0  0  0  0  0  0  0  0  0
   53.2844  -11.5297    7.5377 O   0  0  0  0  0  0  0  0  0  0  0  0
   54.0616  -13.4941    5.3008 N   0  0  0  0  0  0  0  0  0  0  0  0
   54.3923  -14.6915    4.8285 C   0  0  0  0  0  0  0  0  0  0  0  0
   54.4316  -15.6321    5.8406 N   0  0  0  0  0  0  0  0  0  0  0  0
  1  2  1  0  0  0  0
  1  6  1  0  0  0  0
  2  3  2  0  0  0  0
  3  4  1  0  0  0  0
  4  5  2  0  0  0  0
  4 10  1  0  0  0  0
  5  6  1  0  0  0  0
  5  8  1  0  0  0  0
  6  7  2  0  0  0  0
  8  9  1  0  0  0  0
  9 10  2  0  0  0  0
M  END
>  <CHROM.1>
53.87537566,-13.96278394,7.12219590,-2.82357557,1.31117675,-0.94274420

>  <Name>
ligand

>  <RI>
0

>  <Rbt.Current_Directory>
/home/itssahil/PROJECTS/Mol_Feturizer/New_Systems/rnas/2EEV

>  <Rbt.Executable>
rbdock ($Id: //depot/dev/client3/rdock/2013.1/src/exe/rbdock.cxx#4 $)

>  <Rbt.Library>
libRbt.so (2013.1, Build901 2013/11/27)

>  <Rbt.Parameter_File>
/export/apps/rDock/src/rDock_2013.1_src/data/scripts/dock_solv.prm

>  <Rbt.Receptor>
prm/blind_docking_80.prm

>  <SCORE>
-19.6775

>  <SCORE.INTER>
-19.6775

>  <SCORE.INTER.CONST>
1

>  <SCORE.INTER.POLAR>
0

>  <SCORE.INTER.ROT>
0

>  <SCORE.INTER.SOLV>
4.17764

>  <SCORE.INTER.VDW>
-18.1109

>  <SCORE.INTER.norm>
-1.96775

>  <SCORE.INTRA>
0

>  <SCORE.INTRA.DIHEDRAL>
0

>  <SCORE.INTRA.DIHEDRAL.0>
0

>  <SCORE.INTRA.POLAR>
0

>  <SCORE.INTRA.POLAR.0>
0

>  <SCORE.INTRA.REPUL>
0

>  <SCORE.INTRA.REPUL.0>
0

>  <SCORE.INTRA.SOLV>
0

>  <SCORE.INTRA.SOLV.lig_0>
-4.25352

>  <SCORE.INTRA.VDW>
0

>  <SCORE.INTRA.VDW.0>
0

>  <SCORE.INTRA.norm>
0

>  <SCORE.RESTR>
0

>  <SCORE.RESTR.CAVITY>
0

>  <SCORE.RESTR.norm>
0

>  <SCORE.SYSTEM>
0

>  <SCORE.SYSTEM.CONST>
0

>  <SCORE.SYSTEM.DIHEDRAL>
0

>  <SCORE.SYSTEM.SOLV>
0

>  <SCORE.SYSTEM.norm>
0

>  <SCORE.heavy>
10

>  <SCORE.norm>
-1.96775

>  <RMSD>
0.401

$$$$
ligand
 OpenBabel11021811423D
libRbt.so/2013.1/901 2013/11/27
 10 11  0  0  0  0  0  0  0  0999 V2000
   53.4987  -13.3708    8.9297 N   0  0  0  0  0  0  0  0  0  0  0  0
   53.6980  -14.6931    9.2072 C   0  0  0  0  0  0  0  0  0  0  0  0
   53.9956  -15.5929    8.2338 N   0  0  0  0  0  0  0  0  0  0  0  0
   54.0759  -15.0296    6.9938 C   0  0  0  0  0  0  0  0  0  0  0  0
   53.8873  -13.7085    6.6624 C   0  0  0  0  0  0  0  0  0  0  0  0
   53.5738  -12.7779    7.6572 C   0  0  0  0  0  0  0  0  0  0  0  0
   53.3699  -11.5858    7.5614 O   0  0  0  0  0  0  0  0  0  0  0  0
   54.0608  -13.5681    5.3120 N   0  0  0  0  0  0  0  0  0  0  0  0
   54.3477  -14.7742    4.8334 C   0  0  0  0  0  0  0  0  0  0  0  0
   54.3665  -15.7185    5.8427 N   0  0  0  0  0  0  0  0  0  0  0  0
  1  2  1  0  0  0  0
  1  6  1  0  0  0  0
  2  3  2  0  0  0  0
  3  4  1  0  0  0  0
  4  5  2  0  0  0  0
  4 10  1  0  0  0  0
  5  6  1  0  0  0  0
  5  8  1  0  0  0  0
  6  7  2  0  0  0  0
  8  9  1  0  0  0  0
  9 10  2  0  0  0  0
M  END
>  <CHROM.1>
53.87741556,-14.03561204,7.13394328,-2.87281315,1.34300277,-0.89229040

>  <Name>
ligand

>  <RI>
0

>  <Rbt.Current_Directory>
/home/itssahil/PROJECTS/Mol_Feturizer/New_Systems/rnas/2EEV

>  <Rbt.Executable>
rbdock ($Id: //depot/dev/client3/rdock/2013.1/src/exe/rbdock.cxx#4 $)

>  <Rbt.Library>
libRbt.so (2013.1, Build901 2013/11/27)

>  <Rbt.Parameter_File>
/export/apps/rDock/src/rDock_2013.1_src/data/scripts/dock_solv.prm

>  <Rbt.Receptor>
prm/pocket_docking_6.prm

>  <SCORE>
-19.6695

>  <SCORE.INTER>
-19.6695

>  <SCORE.INTER.CONST>
1

>  <SCORE.INTER.POLAR>
0

>  <SCORE.INTER.ROT>
0

>  <SCORE.INTER.SOLV>
4.29265

>  <SCORE.INTER.VDW>
-18.1439

>  <SCORE.INTER.norm>
-1.96695

>  <SCORE.INTRA>
0

>  <SCORE.INTRA.DIHEDRAL>
0

>  <SCORE.INTRA.DIHEDRAL.0>
0

>  <SCORE.INTRA.POLAR>
0

>  <SCORE.INTRA.POLAR.0>
0

>  <SCORE.INTRA.REPUL>
0

>  <SCORE.INTRA.REPUL.0>
0

>  <SCORE.INTRA.SOLV>
0

>  <SCORE.INTRA.SOLV.lig_0>
-4.25352

>  <SCORE.INTRA.VDW>
0

>  <SCORE.INTRA.VDW.0>
0

>  <SCORE.INTRA.norm>
0

>  <SCORE.RESTR>
0

>  <SCORE.RESTR.CAVITY>
0

>  <SCORE.RESTR.norm>
0

>  <SCORE.SYSTEM>
0

>  <SCORE.SYSTEM.CONST>
0

>  <SCORE.SYSTEM.DIHEDRAL>
0

>  <SCORE.SYSTEM.SOLV>
0

>  <SCORE.SYSTEM.norm>
0

>  <SCORE.heavy>
10

>  <SCORE.norm>
-1.96695

>  <RMSD>
0.401

$$$$
ligand
 OpenBabel11021811423D
libRbt.so/2013.1/901 2013/11/27
 10 11  0  0  0  0  0  0  0  0999 V2000
   53.4125  -13.1458    8.9627 N   0  0  0  0  0  0  0  0  0  0  0  0
   53.6579  -14.4483    9.2920 C   0  0  0  0  0  0  0  0  0  0  0  0
   54.0023  -15.3715    8.3567 N   0  0  0  0  0  0  0  0  0  0  0  0
   54.0780  -14.8519    7.0975 C   0  0  0  0  0  0  0  0  0  0  0  0
   53.8442  -13.5521    6.7145 C   0  0  0  0  0  0  0  0  0  0  0  0
   53.4823  -12.5980    7.6698 C   0  0  0  0  0  0  0  0  0  0  0  0
   53.2348  -11.4189    7.5269 O   0  0  0  0  0  0  0  0  0  0  0  0
   54.0305  -13.4553    5.3620 N   0  0  0  0  0  0  0  0  0  0  0  0
   54.3692  -14.6664    4.9324 C   0  0  0  0  0  0  0  0  0  0  0  0
   54.4100  -15.5713    5.9766 N   0  0  0  0  0  0  0  0  0  0  0  0
  1  2  1  0  0  0  0
  1  6  1  0  0  0  0
  2  3  2  0  0  0  0
  3  4  1  0  0  0  0
  4  5  2  0  0  0  0
  4 10  1  0  0  0  0
  5  6  1  0  0  0  0
  5  8  1  0  0  0  0
  6  7  2  0  0  0  0
  8  9  1  0  0  0  0
  9 10  2  0  0  0  0
M  END
>  <CHROM.1>
53.84027810,-13.86165801,7.19782760,-2.82260834,1.30475952,-0.97827503

>  <Name>
ligand

>  <RI>
0

>  <Rbt.Current_Directory>
/home/itssahil/PROJECTS/Mol_Feturizer/New_Systems/rnas/2EEV

>  <Rbt.Executable>
rbdock ($Id: //depot/dev/client3/rdock/2013.1/src/exe/rbdock.cxx#4 $)

>  <Rbt.Library>
libRbt.so (2013.1, Build901 2013/11/27)

>  <Rbt.Parameter_File>
/export/apps/rDock/src/rDock_2013.1_src/data/scripts/dock_solv.prm

>  <Rbt.Receptor>
prm/pocket_docking_3.prm

>  <SCORE>
-19.6256

>  <SCORE.INTER>
-19.6256

>  <SCORE.INTER.CONST>
1

>  <SCORE.INTER.POLAR>
0

>  <SCORE.INTER.ROT>
0

>  <SCORE.INTER.SOLV>
4.15256

>  <SCORE.INTER.VDW>
-18.0679

>  <SCORE.INTER.norm>
-1.96256

>  <SCORE.INTRA>
0

>  <SCORE.INTRA.DIHEDRAL>
0

>  <SCORE.INTRA.DIHEDRAL.0>
0

>  <SCORE.INTRA.POLAR>
0

>  <SCORE.INTRA.POLAR.0>
0

>  <SCORE.INTRA.REPUL>
0

>  <SCORE.INTRA.REPUL.0>
0

>  <SCORE.INTRA.SOLV>
0

>  <SCORE.INTRA.SOLV.lig_0>
-4.25352

>  <SCORE.INTRA.VDW>
0

>  <SCORE.INTRA.VDW.0>
0

>  <SCORE.INTRA.norm>
0

>  <SCORE.RESTR>
0

>  <SCORE.RESTR.CAVITY>
0

>  <SCORE.RESTR.norm>
0

>  <SCORE.SYSTEM>
0

>  <SCORE.SYSTEM.CONST>
0

>  <SCORE.SYSTEM.DIHEDRAL>
0

>  <SCORE.SYSTEM.SOLV>
0

>  <SCORE.SYSTEM.norm>
0

>  <SCORE.heavy>
10

>  <SCORE.norm>
-1.96256

>  <RMSD>
0.403

$$$$
ligand
 OpenBabel11021811423D
libRbt.so/2013.1/901 2013/11/27
 10 11  0  0  0  0  0  0  0  0999 V2000
   53.5136  -13.3375    8.9029 N   0  0  0  0  0  0  0  0  0  0  0  0
   53.7699  -14.6479    9.1897 C   0  0  0  0  0  0  0  0  0  0  0  0
   54.0903  -15.5444    8.2205 N   0  0  0  0  0  0  0  0  0  0  0  0
   54.1310  -14.9904    6.9744 C   0  0  0  0  0  0  0  0  0  0  0  0
   53.8847  -13.6812    6.6336 C   0  0  0  0  0  0  0  0  0  0  0  0
   53.5474  -12.7545    7.6241 C   0  0  0  0  0  0  0  0  0  0  0  0
   53.2943  -11.5724    7.5202 O   0  0  0  0  0  0  0  0  0  0  0  0
   54.0341  -13.5471    5.2796 N   0  0  0  0  0  0  0  0  0  0  0  0
   54.3630  -14.7453    4.8081 C   0  0  0  0  0  0  0  0  0  0  0  0
   54.4335  -15.6782    5.8257 N   0  0  0  0  0  0  0  0  0  0  0  0
  1  2  1  0  0  0  0
  1  6  1  0  0  0  0
  2  3  2  0  0  0  0
  3  4  1  0  0  0  0
  4  5  2  0  0  0  0
  4 10  1  0  0  0  0
  5  6  1  0  0  0  0
  5  8  1  0  0  0  0
  6  7  2  0  0  0  0
  8  9  1  0  0  0  0
  9 10  2  0  0  0  0
M  END
>  <CHROM.1>
53.89445088,-14.00390579,7.10817054,-2.72900392,1.31755159,-1.04142127

>  <Name>
ligand

>  <RI>
0

>  <Rbt.Current_Directory>
/home/itssahil/PROJECTS/Mol_Feturizer/New_Systems/rnas/2EEV

>  <Rbt.Executable>
rbdock ($Id: //depot/dev/client3/rdock/2013.1/src/exe/rbdock.cxx#4 $)

>  <Rbt.Library>
libRbt.so (2013.1, Build901 2013/11/27)

>  <Rbt.Parameter_File>
/export/apps/rDock/src/rDock_2013.1_src/data/scripts/dock_solv.prm

>  <Rbt.Receptor>
prm/pocket_docking_4.prm

>  <SCORE>
-19.7184

>  <SCORE.INTER>
-19.7184

>  <SCORE.INTER.CONST>
1

>  <SCORE.INTER.POLAR>
0

>  <SCORE.INTER.ROT>
0

>  <SCORE.INTER.SOLV>
4.15781

>  <SCORE.INTER.VDW>
-18.1315

>  <SCORE.INTER.norm>
-1.97184

>  <SCORE.INTRA>
0

>  <SCORE.INTRA.DIHEDRAL>
0

>  <SCORE.INTRA.DIHEDRAL.0>
0

>  <SCORE.INTRA.POLAR>
0

>  <SCORE.INTRA.POLAR.0>
0

>  <SCORE.INTRA.REPUL>
0

>  <SCORE.INTRA.REPUL.0>
0

>  <SCORE.INTRA.SOLV>
0

>  <SCORE.INTRA.SOLV.lig_0>
-4.25352

>  <SCORE.INTRA.VDW>
0

>  <SCORE.INTRA.VDW.0>
0

>  <SCORE.INTRA.norm>
0

>  <SCORE.RESTR>
0

>  <SCORE.RESTR.CAVITY>
0

>  <SCORE.RESTR.norm>
0

>  <SCORE.SYSTEM>
0

>  <SCORE.SYSTEM.CONST>
0

>  <SCORE.SYSTEM.DIHEDRAL>
0

>  <SCORE.SYSTEM.SOLV>
0

>  <SCORE.SYSTEM.norm>
0

>  <SCORE.heavy>
10

>  <SCORE.norm>
-1.97184

>  <RMSD>
0.404

$$$$
ligand
 OpenBabel11021811423D
libRbt.so/2013.1/901 2013/11/27
 10 11  0  0  0  0  0  0  0  0999 V2000
   53.4565  -13.2981    8.9252 N   0  0  0  0  0  0  0  0  0  0  0  0
   53.6689  -14.6122    9.2307 C   0  0  0  0  0  0  0  0  0  0  0  0
   53.9808  -15.5284    8.2773 N   0  0  0  0  0  0  0  0  0  0  0  0
   54.0609  -14.9898    7.0264 C   0  0  0  0  0  0  0  0  0  0  0  0
   53.8595  -13.6778    6.6671 C   0  0  0  0  0  0  0  0  0  0  0  0
   53.5312  -12.7306    7.6411 C   0  0  0  0  0  0  0  0  0  0  0  0
   53.3148  -11.5429    7.5200 O   0  0  0  0  0  0  0  0  0  0  0  0
   54.0379  -13.5632    5.3149 N   0  0  0  0  0  0  0  0  0  0  0  0
   54.3402  -14.7756    4.8624 C   0  0  0  0  0  0  0  0  0  0  0  0
   54.3644  -15.6988    5.8909 N   0  0  0  0  0  0  0  0  0  0  0  0
  1  2  1  0  0  0  0
  1  6  1  0  0  0  0
  2  3  2  0  0  0  0
  3  4  1  0  0  0  0
  4  5  2  0  0  0  0
  4 10  1  0  0  0  0
  5  6  1  0  0  0  0
  5  8  1  0  0  0  0
  6  7  2  0  0  0  0
  8  9  1  0  0  0  0
  9 10  2  0  0  0  0
M  END
>  <CHROM.1>
53.85096692,-13.99530934,7.14517342,-2.85963933,1.33152736,-0.92559042

>  <Name>
ligand

>  <RI>
0

>  <Rbt.Current_Directory>
/home/itssahil/PROJECTS/Mol_Feturizer/New_Systems/rnas/2EEV

>  <Rbt.Executable>
rbdock ($Id: //depot/dev/client3/rdock/2013.1/src/exe/rbdock.cxx#4 $)

>  <Rbt.Library>
libRbt.so (2013.1, Build901 2013/11/27)

>  <Rbt.Parameter_File>
/export/apps/rDock/src/rDock_2013.1_src/data/scripts/dock_solv.prm

>  <Rbt.Receptor>
prm/pocket_docking_7.prm

>  <SCORE>
-19.6794

>  <SCORE.INTER>
-19.6794

>  <SCORE.INTER.CONST>
1

>  <SCORE.INTER.POLAR>
0

>  <SCORE.INTER.ROT>
0

>  <SCORE.INTER.SOLV>
4.2569

>  <SCORE.INTER.VDW>
-18.1385

>  <SCORE.INTER.norm>
-1.96794

>  <SCORE.INTRA>
0

>  <SCORE.INTRA.DIHEDRAL>
0

>  <SCORE.INTRA.DIHEDRAL.0>
0

>  <SCORE.INTRA.POLAR>
0

>  <SCORE.INTRA.POLAR.0>
0

>  <SCORE.INTRA.REPUL>
0

>  <SCORE.INTRA.REPUL.0>
0

>  <SCORE.INTRA.SOLV>
0

>  <SCORE.INTRA.SOLV.lig_0>
-4.25352

>  <SCORE.INTRA.VDW>
0

>  <SCORE.INTRA.VDW.0>
0

>  <SCORE.INTRA.norm>
0

>  <SCORE.RESTR>
0

>  <SCORE.RESTR.CAVITY>
0

>  <SCORE.RESTR.norm>
0

>  <SCORE.SYSTEM>
0

>  <SCORE.SYSTEM.CONST>
0

>  <SCORE.SYSTEM.DIHEDRAL>
0

>  <SCORE.SYSTEM.SOLV>
0

>  <SCORE.SYSTEM.norm>
0

>  <SCORE.heavy>
10

>  <SCORE.norm>
-1.96794

>  <RMSD>
0.405

$$$$
ligand
 OpenBabel11021811423D
libRbt.so/2013.1/901 2013/11/27
 10 11  0  0  0  0  0  0  0  0999 V2000
   53.5097  -13.3327    8.9011 N   0  0  0  0  0  0  0  0  0  0  0  0
   53.7780  -14.6391    9.1952 C   0  0  0  0  0  0  0  0  0  0  0  0
   54.0988  -15.5399    8.2302 N   0  0  0  0  0  0  0  0  0  0  0  0
   54.1268  -14.9943    6.9800 C   0  0  0  0  0  0  0  0  0  0  0  0
   53.8682  -13.6895    6.6318 C   0  0  0  0  0  0  0  0  0  0  0  0
   53.5303  -12.7584    7.6180 C   0  0  0  0  0  0  0  0  0  0  0  0
   53.2674  -11.5791    7.5076 O   0  0  0  0  0  0  0  0  0  0  0  0
   54.0074  -13.5637    5.2759 N   0  0  0  0  0  0  0  0  0  0  0  0
   54.3424  -14.7625    4.8105 C   0  0  0  0  0  0  0  0  0  0  0  0
   54.4270  -15.6878    5.8341 N   0  0  0  0  0  0  0  0  0  0  0  0
  1  2  1  0  0  0  0
  1  6  1  0  0  0  0
  2  3  2  0  0  0  0
  3  4  1  0  0  0  0
  4  5  2  0  0  0  0
  4 10  1  0  0  0  0
  5  6  1  0  0  0  0
  5  8  1  0  0  0  0
  6  7  2  0  0  0  0
  8  9  1  0  0  0  0
  9 10  2  0  0  0  0
M  END
>  <CHROM.1>
53.88360025,-14.00872828,7.10849537,-2.69078573,1.31408273,-1.08538088

>  <Name>
ligand

>  <RI>
0

>  <Rbt.Current_Directory>
/home/itssahil/PROJECTS/Mol_Feturizer/New_Systems/rnas/2EEV

>  <Rbt.Executable>
rbdock ($Id: //depot/dev/client3/rdock/2013.1/src/exe/rbdock.cxx#4 $)

>  <Rbt.Library>
libRbt.so (2013.1, Build901 2013/11/27)

>  <Rbt.Parameter_File>
/export/apps/rDock/src/rDock_2013.1_src/data/scripts/dock_solv.prm

>  <Rbt.Receptor>
prm/pocket_docking_7.prm

>  <SCORE>
-19.6949

>  <SCORE.INTER>
-19.6949

>  <SCORE.INTER.CONST>
1

>  <SCORE.INTER.POLAR>
0

>  <SCORE.INTER.ROT>
0

>  <SCORE.INTER.SOLV>
4.14298

>  <SCORE.INTER.VDW>
-18.1109

>  <SCORE.INTER.norm>
-1.96949

>  <SCORE.INTRA>
0

>  <SCORE.INTRA.DIHEDRAL>
0

>  <SCORE.INTRA.DIHEDRAL.0>
0

>  <SCORE.INTRA.POLAR>
0

>  <SCORE.INTRA.POLAR.0>
0

>  <SCORE.INTRA.REPUL>
0

>  <SCORE.INTRA.REPUL.0>
0

>  <SCORE.INTRA.SOLV>
0

>  <SCORE.INTRA.SOLV.lig_0>
-4.25352

>  <SCORE.INTRA.VDW>
0

>  <SCORE.INTRA.VDW.0>
0

>  <SCORE.INTRA.norm>
0

>  <SCORE.RESTR>
0

>  <SCORE.RESTR.CAVITY>
0

>  <SCORE.RESTR.norm>
0

>  <SCORE.SYSTEM>
0

>  <SCORE.SYSTEM.CONST>
0

>  <SCORE.SYSTEM.DIHEDRAL>
0

>  <SCORE.SYSTEM.SOLV>
0

>  <SCORE.SYSTEM.norm>
0

>  <SCORE.heavy>
10

>  <SCORE.norm>
-1.96949

>  <RMSD>
0.406

$$$$
ligand
 OpenBabel11021811423D
libRbt.so/2013.1/901 2013/11/27
 10 11  0  0  0  0  0  0  0  0999 V2000
   53.4486  -13.2311    8.9173 N   0  0  0  0  0  0  0  0  0  0  0  0
   53.6920  -14.5408    9.2185 C   0  0  0  0  0  0  0  0  0  0  0  0
   54.0290  -15.4455    8.2627 N   0  0  0  0  0  0  0  0  0  0  0  0
   54.0998  -14.9003    7.0141 C   0  0  0  0  0  0  0  0  0  0  0  0
   53.8676  -13.5923    6.6591 C   0  0  0  0  0  0  0  0  0  0  0  0
   53.5132  -12.6571    7.6356 C   0  0  0  0  0  0  0  0  0  0  0  0
   53.2684  -11.4746    7.5182 O   0  0  0  0  0  0  0  0  0  0  0  0
   54.0472  -13.4682    5.3078 N   0  0  0  0  0  0  0  0  0  0  0  0
   54.3804  -14.6712    4.8518 C   0  0  0  0  0  0  0  0  0  0  0  0
   54.4240  -15.5974    5.8770 N   0  0  0  0  0  0  0  0  0  0  0  0
  1  2  1  0  0  0  0
  1  6  1  0  0  0  0
  2  3  2  0  0  0  0
  3  4  1  0  0  0  0
  4  5  2  0  0  0  0
  4 10  1  0  0  0  0
  5  6  1  0  0  0  0
  5  8  1  0  0  0  0
  6  7  2  0  0  0  0
  8  9  1  0  0  0  0
  9 10  2  0  0  0  0
M  END
>  <CHROM.1>
53.86528831,-13.91172827,7.13593254,-2.81219845,1.30993555,-0.96779736

>  <Name>
ligand

>  <RI>
0

>  <Rbt.Current_Directory>
/home/itssahil/PROJECTS/Mol_Feturizer/New_Systems/rnas/2EEV

>  <Rbt.Executable>
rbdock ($Id: //depot/dev/client3/rdock/2013.1/src/exe/rbdock.cxx#4 $)

>  <Rbt.Library>
libRbt.so (2013.1, Build901 2013/11/27)

>  <Rbt.Parameter_File>
/export/apps/rDock/src/rDock_2013.1_src/data/scripts/dock_solv.prm

>  <Rbt.Receptor>
prm/pocket_docking_4.prm

>  <SCORE>
-19.6453

>  <SCORE.INTER>
-19.6453

>  <SCORE.INTER.CONST>
1

>  <SCORE.INTER.POLAR>
0

>  <SCORE.INTER.ROT>
0

>  <SCORE.INTER.SOLV>
4.1663

>  <SCORE.INTER.VDW>
-18.0856

>  <SCORE.INTER.norm>
-1.96453

>  <SCORE.INTRA>
0

>  <SCORE.INTRA.DIHEDRAL>
0

>  <SCORE.INTRA.DIHEDRAL.0>
0

>  <SCORE.INTRA.POLAR>
0

>  <SCORE.INTRA.POLAR.0>
0

>  <SCORE.INTRA.REPUL>
0

>  <SCORE.INTRA.REPUL.0>
0

>  <SCORE.INTRA.SOLV>
0

>  <SCORE.INTRA.SOLV.lig_0>
-4.25352

>  <SCORE.INTRA.VDW>
0

>  <SCORE.INTRA.VDW.0>
0

>  <SCORE.INTRA.norm>
0

>  <SCORE.RESTR>
0

>  <SCORE.RESTR.CAVITY>
0

>  <SCORE.RESTR.norm>
0

>  <SCORE.SYSTEM>
0

>  <SCORE.SYSTEM.CONST>
0

>  <SCORE.SYSTEM.DIHEDRAL>
0

>  <SCORE.SYSTEM.SOLV>
0

>  <SCORE.SYSTEM.norm>
0

>  <SCORE.heavy>
10

>  <SCORE.norm>
-1.96453

>  <RMSD>
0.410

$$$$
ligand
 OpenBabel11021811423D
libRbt.so/2013.1/901 2013/11/27
 10 11  0  0  0  0  0  0  0  0999 V2000
   53.5302  -13.2962    8.9009 N   0  0  0  0  0  0  0  0  0  0  0  0
   53.7888  -14.6030    9.2019 C   0  0  0  0  0  0  0  0  0  0  0  0
   54.1004  -15.5118    8.2414 N   0  0  0  0  0  0  0  0  0  0  0  0
   54.1301  -14.9736    6.9881 C   0  0  0  0  0  0  0  0  0  0  0  0
   53.8811  -13.6688    6.6329 C   0  0  0  0  0  0  0  0  0  0  0  0
   53.5527  -12.7294    7.6145 C   0  0  0  0  0  0  0  0  0  0  0  0
   53.2990  -11.5487    7.4979 O   0  0  0  0  0  0  0  0  0  0  0  0
   54.0185  -13.5518    5.2761 N   0  0  0  0  0  0  0  0  0  0  0  0
   54.3429  -14.7560    4.8169 C   0  0  0  0  0  0  0  0  0  0  0  0
   54.4223  -15.6760    5.8455 N   0  0  0  0  0  0  0  0  0  0  0  0
  1  2  1  0  0  0  0
  1  6  1  0  0  0  0
  2  3  2  0  0  0  0
  3  4  1  0  0  0  0
  4  5  2  0  0  0  0
  4 10  1  0  0  0  0
  5  6  1  0  0  0  0
  5  8  1  0  0  0  0
  6  7  2  0  0  0  0
  8  9  1  0  0  0  0
  9 10  2  0  0  0  0
M  END
>  <CHROM.1>
53.89497104,-13.98539677,7.11143205,-2.69831471,1.32209669,-1.08380868

>  <Name>
ligand

>  <RI>
0

>  <Rbt.Current_Directory>
/home/itssahil/PROJECTS/Mol_Feturizer/New_Systems/rnas/2EEV

>  <Rbt.Executable>
rbdock ($Id: //depot/dev/client3/rdock/2013.1/src/exe/rbdock.cxx#4 $)

>  <Rbt.Library>
libRbt.so (2013.1, Build901 2013/11/27)

>  <Rbt.Parameter_File>
/export/apps/rDock/src/rDock_2013.1_src/data/scripts/dock_solv.prm

>  <Rbt.Receptor>
prm/pocket_docking_4.prm

>  <SCORE>
-19.6663

>  <SCORE.INTER>
-19.6663

>  <SCORE.INTER.CONST>
1

>  <SCORE.INTER.POLAR>
0

>  <SCORE.INTER.ROT>
0

>  <SCORE.INTER.SOLV>
4.16001

>  <SCORE.INTER.VDW>
-18.0975

>  <SCORE.INTER.norm>
-1.96663

>  <SCORE.INTRA>
0

>  <SCORE.INTRA.DIHEDRAL>
0

>  <SCORE.INTRA.DIHEDRAL.0>
0

>  <SCORE.INTRA.POLAR>
0

>  <SCORE.INTRA.POLAR.0>
0

>  <SCORE.INTRA.REPUL>
0

>  <SCORE.INTRA.REPUL.0>
0

>  <SCORE.INTRA.SOLV>
0

>  <SCORE.INTRA.SOLV.lig_0>
-4.25352

>  <SCORE.INTRA.VDW>
0

>  <SCORE.INTRA.VDW.0>
0

>  <SCORE.INTRA.norm>
0

>  <SCORE.RESTR>
0

>  <SCORE.RESTR.CAVITY>
0

>  <SCORE.RESTR.norm>
0

>  <SCORE.SYSTEM>
0

>  <SCORE.SYSTEM.CONST>
0

>  <SCORE.SYSTEM.DIHEDRAL>
0

>  <SCORE.SYSTEM.SOLV>
0

>  <SCORE.SYSTEM.norm>
0

>  <SCORE.heavy>
10

>  <SCORE.norm>
-1.96663

>  <RMSD>
0.411

$$$$
ligand
 OpenBabel11021811423D
libRbt.so/2013.1/901 2013/11/27
 10 11  0  0  0  0  0  0  0  0999 V2000
   53.4265  -13.1626    8.9453 N   0  0  0  0  0  0  0  0  0  0  0  0
   53.6316  -14.4637    9.3064 C   0  0  0  0  0  0  0  0  0  0  0  0
   53.9649  -15.4161    8.3968 N   0  0  0  0  0  0  0  0  0  0  0  0
   54.0734  -14.9265    7.1280 C   0  0  0  0  0  0  0  0  0  0  0  0
   53.8806  -13.6297    6.7134 C   0  0  0  0  0  0  0  0  0  0  0  0
   53.5304  -12.6455    7.6421 C   0  0  0  0  0  0  0  0  0  0  0  0
   53.3172  -11.4636    7.4700 O   0  0  0  0  0  0  0  0  0  0  0  0
   54.0897  -13.5676    5.3621 N   0  0  0  0  0  0  0  0  0  0  0  0
   54.4019  -14.7965    4.9642 C   0  0  0  0  0  0  0  0  0  0  0  0
   54.4025  -15.6790    6.0282 N   0  0  0  0  0  0  0  0  0  0  0  0
  1  2  1  0  0  0  0
  1  6  1  0  0  0  0
  2  3  2  0  0  0  0
  3  4  1  0  0  0  0
  4  5  2  0  0  0  0
  4 10  1  0  0  0  0
  5  6  1  0  0  0  0
  5  8  1  0  0  0  0
  6  7  2  0  0  0  0
  8  9  1  0  0  0  0
  9 10  2  0  0  0  0
M  END
>  <CHROM.1>
53.86109171,-13.92831981,7.20318093,-2.93258947,1.31741328,-0.89378085

>  <Name>
ligand

>  <RI>
0

>  <Rbt.Current_Directory>
/home/itssahil/PROJECTS/Mol_Feturizer/New_Systems/rnas/2EEV

>  <Rbt.Executable>
rbdock ($Id: //depot/dev/client3/rdock/2013.1/src/exe/rbdock.cxx#4 $)

>  <Rbt.Library>
libRbt.so (2013.1, Build901 2013/11/27)

>  <Rbt.Parameter_File>
/export/apps/rDock/src/rDock_2013.1_src/data/scripts/dock_solv.prm

>  <Rbt.Receptor>
prm/pocket_docking_8.prm

>  <SCORE>
-19.6955

>  <SCORE.INTER>
-19.6955

>  <SCORE.INTER.CONST>
1

>  <SCORE.INTER.POLAR>
0

>  <SCORE.INTER.ROT>
0

>  <SCORE.INTER.SOLV>
4.23657

>  <SCORE.INTER.VDW>
-18.1425

>  <SCORE.INTER.norm>
-1.96955

>  <SCORE.INTRA>
0

>  <SCORE.INTRA.DIHEDRAL>
0

>  <SCORE.INTRA.DIHEDRAL.0>
0

>  <SCORE.INTRA.POLAR>
0

>  <SCORE.INTRA.POLAR.0>
0

>  <SCORE.INTRA.REPUL>
0

>  <SCORE.INTRA.REPUL.0>
0

>  <SCORE.INTRA.SOLV>
0

>  <SCORE.INTRA.SOLV.lig_0>
-4.25352

>  <SCORE.INTRA.VDW>
0

>  <SCORE.INTRA.VDW.0>
0

>  <SCORE.INTRA.norm>
0

>  <SCORE.RESTR>
0

>  <SCORE.RESTR.CAVITY>
0

>  <SCORE.RESTR.norm>
0

>  <SCORE.SYSTEM>
0

>  <SCORE.SYSTEM.CONST>
0

>  <SCORE.SYSTEM.DIHEDRAL>
0

>  <SCORE.SYSTEM.SOLV>
0

>  <SCORE.SYSTEM.norm>
0

>  <SCORE.heavy>
10

>  <SCORE.norm>
-1.96955

>  <RMSD>
0.411

$$$$
ligand
 OpenBabel11021811423D
libRbt.so/2013.1/901 2013/11/27
 10 11  0  0  0  0  0  0  0  0999 V2000
   53.4344  -13.1683    8.9493 N   0  0  0  0  0  0  0  0  0  0  0  0
   53.6487  -14.4673    9.3123 C   0  0  0  0  0  0  0  0  0  0  0  0
   53.9687  -15.4228    8.4011 N   0  0  0  0  0  0  0  0  0  0  0  0
   54.0543  -14.9384    7.1286 C   0  0  0  0  0  0  0  0  0  0  0  0
   53.8513  -13.6439    6.7119 C   0  0  0  0  0  0  0  0  0  0  0  0
   53.5147  -12.6565    7.6423 C   0  0  0  0  0  0  0  0  0  0  0  0
   53.2957  -11.4759    7.4688 O   0  0  0  0  0  0  0  0  0  0  0  0
   54.0370  -13.5871    5.3570 N   0  0  0  0  0  0  0  0  0  0  0  0
   54.3453  -14.8170    4.9590 C   0  0  0  0  0  0  0  0  0  0  0  0
   54.3663  -15.6949    6.0266 N   0  0  0  0  0  0  0  0  0  0  0  0
  1  2  1  0  0  0  0
  1  6  1  0  0  0  0
  2  3  2  0  0  0  0
  3  4  1  0  0  0  0
  4  5  2  0  0  0  0
  4 10  1  0  0  0  0
  5  6  1  0  0  0  0
  5  8  1  0  0  0  0
  6  7  2  0  0  0  0
  8  9  1  0  0  0  0
  9 10  2  0  0  0  0
M  END
>  <CHROM.1>
53.84088197,-13.94044256,7.20319583,-2.87129159,1.32582259,-0.95745511

>  <Name>
ligand

>  <RI>
0

>  <Rbt.Current_Directory>
/home/itssahil/PROJECTS/Mol_Feturizer/New_Systems/rnas/2EEV

>  <Rbt.Executable>
rbdock ($Id: //depot/dev/client3/rdock/2013.1/src/exe/rbdock.cxx#4 $)

>  <Rbt.Library>
libRbt.so (2013.1, Build901 2013/11/27)

>  <Rbt.Parameter_File>
/export/apps/rDock/src/rDock_2013.1_src/data/scripts/dock_solv.prm

>  <Rbt.Receptor>
prm/blind_docking_100.prm

>  <SCORE>
-19.6942

>  <SCORE.INTER>
-19.6942

>  <SCORE.INTER.CONST>
1

>  <SCORE.INTER.POLAR>
0

>  <SCORE.INTER.ROT>
0

>  <SCORE.INTER.SOLV>
4.24423

>  <SCORE.INTER.VDW>
-18.1442

>  <SCORE.INTER.norm>
-1.96942

>  <SCORE.INTRA>
0

>  <SCORE.INTRA.DIHEDRAL>
0

>  <SCORE.INTRA.DIHEDRAL.0>
0

>  <SCORE.INTRA.POLAR>
0

>  <SCORE.INTRA.POLAR.0>
0

>  <SCORE.INTRA.REPUL>
0

>  <SCORE.INTRA.REPUL.0>
0

>  <SCORE.INTRA.SOLV>
0

>  <SCORE.INTRA.SOLV.lig_0>
-4.25352

>  <SCORE.INTRA.VDW>
0

>  <SCORE.INTRA.VDW.0>
0

>  <SCORE.INTRA.norm>
0

>  <SCORE.RESTR>
0

>  <SCORE.RESTR.CAVITY>
0

>  <SCORE.RESTR.norm>
0

>  <SCORE.SYSTEM>
0

>  <SCORE.SYSTEM.CONST>
0

>  <SCORE.SYSTEM.DIHEDRAL>
0

>  <SCORE.SYSTEM.SOLV>
0

>  <SCORE.SYSTEM.norm>
0

>  <SCORE.heavy>
10

>  <SCORE.norm>
-1.96942

>  <RMSD>
0.412

$$$$
ligand
 OpenBabel11021811423D
libRbt.so/2013.1/901 2013/11/27
 10 11  0  0  0  0  0  0  0  0999 V2000
   53.4898  -13.3463    8.8877 N   0  0  0  0  0  0  0  0  0  0  0  0
   53.7700  -14.6517    9.1750 C   0  0  0  0  0  0  0  0  0  0  0  0
   54.1037  -15.5434    8.2059 N   0  0  0  0  0  0  0  0  0  0  0  0
   54.1314  -14.9901    6.9592 C   0  0  0  0  0  0  0  0  0  0  0  0
   53.8611  -13.6858    6.6177 C   0  0  0  0  0  0  0  0  0  0  0  0
   53.5099  -12.7641    7.6082 C   0  0  0  0  0  0  0  0  0  0  0  0
   53.2356  -11.5869    7.5038 O   0  0  0  0  0  0  0  0  0  0  0  0
   54.0046  -13.5504    5.2632 N   0  0  0  0  0  0  0  0  0  0  0  0
   54.3534  -14.7430    4.7921 C   0  0  0  0  0  0  0  0  0  0  0  0
   54.4431  -15.6735    5.8104 N   0  0  0  0  0  0  0  0  0  0  0  0
  1  2  1  0  0  0  0
  1  6  1  0  0  0  0
  2  3  2  0  0  0  0
  3  4  1  0  0  0  0
  4  5  2  0  0  0  0
  4 10  1  0  0  0  0
  5  6  1  0  0  0  0
  5  8  1  0  0  0  0
  6  7  2  0  0  0  0
  8  9  1  0  0  0  0
  9 10  2  0  0  0  0
M  END
>  <CHROM.1>
53.87773966,-14.00773439,7.09260072,-2.68669266,1.30331226,-1.08331185

>  <Name>
ligand

>  <RI>
0

>  <Rbt.Current_Directory>
/home/itssahil/PROJECTS/Mol_Feturizer/New_Systems/rnas/2EEV

>  <Rbt.Executable>
rbdock ($Id: //depot/dev/client3/rdock/2013.1/src/exe/rbdock.cxx#4 $)

>  <Rbt.Library>
libRbt.so (2013.1, Build901 2013/11/27)

>  <Rbt.Parameter_File>
/export/apps/rDock/src/rDock_2013.1_src/data/scripts/dock_solv.prm

>  <Rbt.Receptor>
prm/pocket_docking_5.prm

>  <SCORE>
-19.6512

>  <SCORE.INTER>
-19.6512

>  <SCORE.INTER.CONST>
1

>  <SCORE.INTER.POLAR>
0

>  <SCORE.INTER.ROT>
0

>  <SCORE.INTER.SOLV>
4.11894

>  <SCORE.INTER.VDW>
-18.0738

>  <SCORE.INTER.norm>
-1.96512

>  <SCORE.INTRA>
0

>  <SCORE.INTRA.DIHEDRAL>
0

>  <SCORE.INTRA.DIHEDRAL.0>
0

>  <SCORE.INTRA.POLAR>
0

>  <SCORE.INTRA.POLAR.0>
0

>  <SCORE.INTRA.REPUL>
0

>  <SCORE.INTRA.REPUL.0>
0

>  <SCORE.INTRA.SOLV>
0

>  <SCORE.INTRA.SOLV.lig_0>
-4.25352

>  <SCORE.INTRA.VDW>
0

>  <SCORE.INTRA.VDW.0>
0

>  <SCORE.INTRA.norm>
0

>  <SCORE.RESTR>
0

>  <SCORE.RESTR.CAVITY>
0

>  <SCORE.RESTR.norm>
0

>  <SCORE.SYSTEM>
0

>  <SCORE.SYSTEM.CONST>
0

>  <SCORE.SYSTEM.DIHEDRAL>
0

>  <SCORE.SYSTEM.SOLV>
0

>  <SCORE.SYSTEM.norm>
0

>  <SCORE.heavy>
10

>  <SCORE.norm>
-1.96512

>  <RMSD>
0.413

$$$$
ligand
 OpenBabel11021811423D
libRbt.so/2013.1/901 2013/11/27
 10 11  0  0  0  0  0  0  0  0999 V2000
   53.5543  -13.3155    8.8927 N   0  0  0  0  0  0  0  0  0  0  0  0
   53.8169  -14.6240    9.1829 C   0  0  0  0  0  0  0  0  0  0  0  0
   54.1296  -15.5242    8.2146 N   0  0  0  0  0  0  0  0  0  0  0  0
   54.1561  -14.9759    6.9656 C   0  0  0  0  0  0  0  0  0  0  0  0
   53.9030  -13.6689    6.6213 C   0  0  0  0  0  0  0  0  0  0  0  0
   53.5734  -12.7384    7.6109 C   0  0  0  0  0  0  0  0  0  0  0  0
   53.3162  -11.5575    7.5042 O   0  0  0  0  0  0  0  0  0  0  0  0
   54.0381  -13.5407    5.2653 N   0  0  0  0  0  0  0  0  0  0  0  0
   54.3653  -14.7401    4.7960 C   0  0  0  0  0  0  0  0  0  0  0  0
   54.4487  -15.6682    5.8171 N   0  0  0  0  0  0  0  0  0  0  0  0
  1  2  1  0  0  0  0
  1  6  1  0  0  0  0
  2  3  2  0  0  0  0
  3  4  1  0  0  0  0
  4  5  2  0  0  0  0
  4 10  1  0  0  0  0
  5  6  1  0  0  0  0
  5  8  1  0  0  0  0
  6  7  2  0  0  0  0
  8  9  1  0  0  0  0
  9 10  2  0  0  0  0
M  END
>  <CHROM.1>
53.91841037,-13.98931256,7.09725067,-2.68806789,1.32028415,-1.08569481

>  <Name>
ligand

>  <RI>
0

>  <Rbt.Current_Directory>
/home/itssahil/PROJECTS/Mol_Feturizer/New_Systems/rnas/2EEV

>  <Rbt.Executable>
rbdock ($Id: //depot/dev/client3/rdock/2013.1/src/exe/rbdock.cxx#4 $)

>  <Rbt.Library>
libRbt.so (2013.1, Build901 2013/11/27)

>  <Rbt.Parameter_File>
/export/apps/rDock/src/rDock_2013.1_src/data/scripts/dock_solv.prm

>  <Rbt.Receptor>
prm/pocket_docking_4.prm

>  <SCORE>
-19.6839

>  <SCORE.INTER>
-19.6839

>  <SCORE.INTER.CONST>
1

>  <SCORE.INTER.POLAR>
0

>  <SCORE.INTER.ROT>
0

>  <SCORE.INTER.SOLV>
4.14794

>  <SCORE.INTER.VDW>
-18.1052

>  <SCORE.INTER.norm>
-1.96839

>  <SCORE.INTRA>
0

>  <SCORE.INTRA.DIHEDRAL>
0

>  <SCORE.INTRA.DIHEDRAL.0>
0

>  <SCORE.INTRA.POLAR>
0

>  <SCORE.INTRA.POLAR.0>
0

>  <SCORE.INTRA.REPUL>
0

>  <SCORE.INTRA.REPUL.0>
0

>  <SCORE.INTRA.SOLV>
0

>  <SCORE.INTRA.SOLV.lig_0>
-4.25352

>  <SCORE.INTRA.VDW>
0

>  <SCORE.INTRA.VDW.0>
0

>  <SCORE.INTRA.norm>
0

>  <SCORE.RESTR>
0

>  <SCORE.RESTR.CAVITY>
0

>  <SCORE.RESTR.norm>
0

>  <SCORE.SYSTEM>
0

>  <SCORE.SYSTEM.CONST>
0

>  <SCORE.SYSTEM.DIHEDRAL>
0

>  <SCORE.SYSTEM.SOLV>
0

>  <SCORE.SYSTEM.norm>
0

>  <SCORE.heavy>
10

>  <SCORE.norm>
-1.96839

>  <RMSD>
0.415

$$$$
ligand
 OpenBabel11021811423D
libRbt.so/2013.1/901 2013/11/27
 10 11  0  0  0  0  0  0  0  0999 V2000
   53.5211  -13.3001    8.8915 N   0  0  0  0  0  0  0  0  0  0  0  0
   53.7856  -14.6060    9.1913 C   0  0  0  0  0  0  0  0  0  0  0  0
   54.1068  -15.5112    8.2304 N   0  0  0  0  0  0  0  0  0  0  0  0
   54.1394  -14.9704    6.9783 C   0  0  0  0  0  0  0  0  0  0  0  0
   53.8847  -13.6662    6.6245 C   0  0  0  0  0  0  0  0  0  0  0  0
   53.5464  -12.7307    7.6064 C   0  0  0  0  0  0  0  0  0  0  0  0
   53.2866  -11.5512    7.4909 O   0  0  0  0  0  0  0  0  0  0  0  0
   54.0278  -13.5458    5.2686 N   0  0  0  0  0  0  0  0  0  0  0  0
   54.3612  -14.7472    4.8086 C   0  0  0  0  0  0  0  0  0  0  0  0
   54.4410  -15.6688    5.8358 N   0  0  0  0  0  0  0  0  0  0  0  0
  1  2  1  0  0  0  0
  1  6  1  0  0  0  0
  2  3  2  0  0  0  0
  3  4  1  0  0  0  0
  4  5  2  0  0  0  0
  4 10  1  0  0  0  0
  5  6  1  0  0  0  0
  5  8  1  0  0  0  0
  6  7  2  0  0  0  0
  8  9  1  0  0  0  0
  9 10  2  0  0  0  0
M  END
>  <CHROM.1>
53.89813040,-13.98371840,7.10248226,-2.70432133,1.31489022,-1.07602698

>  <Name>
ligand

>  <RI>
0

>  <Rbt.Current_Directory>
/home/itssahil/PROJECTS/Mol_Feturizer/New_Systems/rnas/2EEV

>  <Rbt.Executable>
rbdock ($Id: //depot/dev/client3/rdock/2013.1/src/exe/rbdock.cxx#4 $)

>  <Rbt.Library>
libRbt.so (2013.1, Build901 2013/11/27)

>  <Rbt.Parameter_File>
/export/apps/rDock/src/rDock_2013.1_src/data/scripts/dock_solv.prm

>  <Rbt.Receptor>
prm/pocket_docking_4.prm

>  <SCORE>
-19.6684

>  <SCORE.INTER>
-19.6684

>  <SCORE.INTER.CONST>
1

>  <SCORE.INTER.POLAR>
0

>  <SCORE.INTER.ROT>
0

>  <SCORE.INTER.SOLV>
4.14138

>  <SCORE.INTER.VDW>
-18.0928

>  <SCORE.INTER.norm>
-1.96684

>  <SCORE.INTRA>
0

>  <SCORE.INTRA.DIHEDRAL>
0

>  <SCORE.INTRA.DIHEDRAL.0>
0

>  <SCORE.INTRA.POLAR>
0

>  <SCORE.INTRA.POLAR.0>
0

>  <SCORE.INTRA.REPUL>
0

>  <SCORE.INTRA.REPUL.0>
0

>  <SCORE.INTRA.SOLV>
0

>  <SCORE.INTRA.SOLV.lig_0>
-4.25352

>  <SCORE.INTRA.VDW>
0

>  <SCORE.INTRA.VDW.0>
0

>  <SCORE.INTRA.norm>
0

>  <SCORE.RESTR>
0

>  <SCORE.RESTR.CAVITY>
0

>  <SCORE.RESTR.norm>
0

>  <SCORE.SYSTEM>
0

>  <SCORE.SYSTEM.CONST>
0

>  <SCORE.SYSTEM.DIHEDRAL>
0

>  <SCORE.SYSTEM.SOLV>
0

>  <SCORE.SYSTEM.norm>
0

>  <SCORE.heavy>
10

>  <SCORE.norm>
-1.96684

>  <RMSD>
0.415

$$$$
ligand
 OpenBabel11021811423D
libRbt.so/2013.1/901 2013/11/27
 10 11  0  0  0  0  0  0  0  0999 V2000
   53.4023  -13.1653    8.9374 N   0  0  0  0  0  0  0  0  0  0  0  0
   53.6264  -14.4616    9.3045 C   0  0  0  0  0  0  0  0  0  0  0  0
   53.9637  -15.4153    8.3977 N   0  0  0  0  0  0  0  0  0  0  0  0
   54.0557  -14.9321    7.1252 C   0  0  0  0  0  0  0  0  0  0  0  0
   53.8434  -13.6402    6.7046 C   0  0  0  0  0  0  0  0  0  0  0  0
   53.4889  -12.6548    7.6304 C   0  0  0  0  0  0  0  0  0  0  0  0
   53.2597  -11.4767    7.4529 O   0  0  0  0  0  0  0  0  0  0  0  0
   54.0404  -13.5838    5.3512 N   0  0  0  0  0  0  0  0  0  0  0  0
   54.3644  -14.8112    4.9580 C   0  0  0  0  0  0  0  0  0  0  0  0
   54.3848  -15.6871    6.0272 N   0  0  0  0  0  0  0  0  0  0  0  0
  1  2  1  0  0  0  0
  1  6  1  0  0  0  0
  2  3  2  0  0  0  0
  3  4  1  0  0  0  0
  4  5  2  0  0  0  0
  4 10  1  0  0  0  0
  5  6  1  0  0  0  0
  5  8  1  0  0  0  0
  6  7  2  0  0  0  0
  8  9  1  0  0  0  0
  9 10  2  0  0  0  0
M  END
>  <CHROM.1>
53.83169983,-13.93614846,7.19624041,-2.87684670,1.31264836,-0.95369864

>  <Name>
ligand

>  <RI>
0

>  <Rbt.Current_Directory>
/home/itssahil/PROJECTS/Mol_Feturizer/New_Systems/rnas/2EEV

>  <Rbt.Executable>
rbdock ($Id: //depot/dev/client3/rdock/2013.1/src/exe/rbdock.cxx#4 $)

>  <Rbt.Library>
libRbt.so (2013.1, Build901 2013/11/27)

>  <Rbt.Parameter_File>
/export/apps/rDock/src/rDock_2013.1_src/data/scripts/dock_solv.prm

>  <Rbt.Receptor>
prm/pocket_docking_8.prm

>  <SCORE>
-19.7202

>  <SCORE.INTER>
-19.7202

>  <SCORE.INTER.CONST>
1

>  <SCORE.INTER.POLAR>
0

>  <SCORE.INTER.ROT>
0

>  <SCORE.INTER.SOLV>
4.22107

>  <SCORE.INTER.VDW>
-18.1538

>  <SCORE.INTER.norm>
-1.97202

>  <SCORE.INTRA>
0

>  <SCORE.INTRA.DIHEDRAL>
0

>  <SCORE.INTRA.DIHEDRAL.0>
0

>  <SCORE.INTRA.POLAR>
0

>  <SCORE.INTRA.POLAR.0>
0

>  <SCORE.INTRA.REPUL>
0

>  <SCORE.INTRA.REPUL.0>
0

>  <SCORE.INTRA.SOLV>
0

>  <SCORE.INTRA.SOLV.lig_0>
-4.25352

>  <SCORE.INTRA.VDW>
0

>  <SCORE.INTRA.VDW.0>
0

>  <SCORE.INTRA.norm>
0

>  <SCORE.RESTR>
0

>  <SCORE.RESTR.CAVITY>
0

>  <SCORE.RESTR.norm>
0

>  <SCORE.SYSTEM>
0

>  <SCORE.SYSTEM.CONST>
0

>  <SCORE.SYSTEM.DIHEDRAL>
0

>  <SCORE.SYSTEM.SOLV>
0

>  <SCORE.SYSTEM.norm>
0

>  <SCORE.heavy>
10

>  <SCORE.norm>
-1.97202

>  <RMSD>
0.417

$$$$
ligand
 OpenBabel11021811423D
libRbt.so/2013.1/901 2013/11/27
 10 11  0  0  0  0  0  0  0  0999 V2000
   53.4768  -13.2249    8.9141 N   0  0  0  0  0  0  0  0  0  0  0  0
   53.7051  -14.5385    9.2099 C   0  0  0  0  0  0  0  0  0  0  0  0
   54.0302  -15.4434    8.2502 N   0  0  0  0  0  0  0  0  0  0  0  0
   54.1058  -14.8943    7.0036 C   0  0  0  0  0  0  0  0  0  0  0  0
   53.8886  -13.5822    6.6539 C   0  0  0  0  0  0  0  0  0  0  0  0
   53.5466  -12.6467    7.6345 C   0  0  0  0  0  0  0  0  0  0  0  0
   53.3156  -11.4610    7.5220 O   0  0  0  0  0  0  0  0  0  0  0  0
   54.0680  -13.4550    5.3029 N   0  0  0  0  0  0  0  0  0  0  0  0
   54.3863  -14.6601    4.8418 C   0  0  0  0  0  0  0  0  0  0  0  0
   54.4203  -15.5907    5.8633 N   0  0  0  0  0  0  0  0  0  0  0  0
  1  2  1  0  0  0  0
  1  6  1  0  0  0  0
  2  3  2  0  0  0  0
  3  4  1  0  0  0  0
  4  5  2  0  0  0  0
  4 10  1  0  0  0  0
  5  6  1  0  0  0  0
  5  8  1  0  0  0  0
  6  7  2  0  0  0  0
  8  9  1  0  0  0  0
  9 10  2  0  0  0  0
M  END
>  <CHROM.1>
53.88314927,-13.90346767,7.12951637,-2.83495129,1.32032853,-0.94190387

>  <Name>
ligand

>  <RI>
0

>  <Rbt.Current_Directory>
/home/itssahil/PROJECTS/Mol_Feturizer/New_Systems/rnas/2EEV

>  <Rbt.Executable>
rbdock ($Id: //depot/dev/client3/rdock/2013.1/src/exe/rbdock.cxx#4 $)

>  <Rbt.Library>
libRbt.so (2013.1, Build901 2013/11/27)

>  <Rbt.Parameter_File>
/export/apps/rDock/src/rDock_2013.1_src/data/scripts/dock_solv.prm

>  <Rbt.Receptor>
prm/blind_docking_60.prm

>  <SCORE>
-19.6695

>  <SCORE.INTER>
-19.6695

>  <SCORE.INTER.CONST>
1

>  <SCORE.INTER.POLAR>
0

>  <SCORE.INTER.ROT>
0

>  <SCORE.INTER.SOLV>
4.18795

>  <SCORE.INTER.VDW>
-18.109

>  <SCORE.INTER.norm>
-1.96695

>  <SCORE.INTRA>
0

>  <SCORE.INTRA.DIHEDRAL>
0

>  <SCORE.INTRA.DIHEDRAL.0>
0

>  <SCORE.INTRA.POLAR>
0

>  <SCORE.INTRA.POLAR.0>
0

>  <SCORE.INTRA.REPUL>
0

>  <SCORE.INTRA.REPUL.0>
0

>  <SCORE.INTRA.SOLV>
0

>  <SCORE.INTRA.SOLV.lig_0>
-4.25352

>  <SCORE.INTRA.VDW>
0

>  <SCORE.INTRA.VDW.0>
0

>  <SCORE.INTRA.norm>
0

>  <SCORE.RESTR>
0

>  <SCORE.RESTR.CAVITY>
0

>  <SCORE.RESTR.norm>
0

>  <SCORE.SYSTEM>
0

>  <SCORE.SYSTEM.CONST>
0

>  <SCORE.SYSTEM.DIHEDRAL>
0

>  <SCORE.SYSTEM.SOLV>
0

>  <SCORE.SYSTEM.norm>
0

>  <SCORE.heavy>
10

>  <SCORE.norm>
-1.96695

>  <RMSD>
0.418

$$$$
ligand
 OpenBabel11021811423D
libRbt.so/2013.1/901 2013/11/27
 10 11  0  0  0  0  0  0  0  0999 V2000
   53.4706  -13.2596    8.9097 N   0  0  0  0  0  0  0  0  0  0  0  0
   53.6963  -14.5683    9.2281 C   0  0  0  0  0  0  0  0  0  0  0  0
   54.0082  -15.4927    8.2826 N   0  0  0  0  0  0  0  0  0  0  0  0
   54.0738  -14.9675    7.0252 C   0  0  0  0  0  0  0  0  0  0  0  0
   53.8587  -13.6614    6.6528 C   0  0  0  0  0  0  0  0  0  0  0  0
   53.5302  -12.7060    7.6188 C   0  0  0  0  0  0  0  0  0  0  0  0
   53.3031  -11.5216    7.4861 O   0  0  0  0  0  0  0  0  0  0  0  0
   54.0253  -13.5606    5.2980 N   0  0  0  0  0  0  0  0  0  0  0  0
   54.3340  -14.7755    4.8567 C   0  0  0  0  0  0  0  0  0  0  0  0
   54.3742  -15.6868    5.8953 N   0  0  0  0  0  0  0  0  0  0  0  0
  1  2  1  0  0  0  0
  1  6  1  0  0  0  0
  2  3  2  0  0  0  0
  3  4  1  0  0  0  0
  4  5  2  0  0  0  0
  4 10  1  0  0  0  0
  5  6  1  0  0  0  0
  5  8  1  0  0  0  0
  6  7  2  0  0  0  0
  8  9  1  0  0  0  0
  9 10  2  0  0  0  0
M  END
>  <CHROM.1>
53.85656535,-13.97357075,7.13447654,-2.81197047,1.32942135,-0.98313818

>  <Name>
ligand

>  <RI>
0

>  <Rbt.Current_Directory>
/home/itssahil/PROJECTS/Mol_Feturizer/New_Systems/rnas/2EEV

>  <Rbt.Executable>
rbdock ($Id: //depot/dev/client3/rdock/2013.1/src/exe/rbdock.cxx#4 $)

>  <Rbt.Library>
libRbt.so (2013.1, Build901 2013/11/27)

>  <Rbt.Parameter_File>
/export/apps/rDock/src/rDock_2013.1_src/data/scripts/dock_solv.prm

>  <Rbt.Receptor>
prm/pocket_docking_5.prm

>  <SCORE>
-19.6543

>  <SCORE.INTER>
-19.6543

>  <SCORE.INTER.CONST>
1

>  <SCORE.INTER.POLAR>
0

>  <SCORE.INTER.ROT>
0

>  <SCORE.INTER.SOLV>
4.22897

>  <SCORE.INTER.VDW>
-18.1125

>  <SCORE.INTER.norm>
-1.96543

>  <SCORE.INTRA>
0

>  <SCORE.INTRA.DIHEDRAL>
0

>  <SCORE.INTRA.DIHEDRAL.0>
0

>  <SCORE.INTRA.POLAR>
0

>  <SCORE.INTRA.POLAR.0>
0

>  <SCORE.INTRA.REPUL>
0

>  <SCORE.INTRA.REPUL.0>
0

>  <SCORE.INTRA.SOLV>
0

>  <SCORE.INTRA.SOLV.lig_0>
-4.25352

>  <SCORE.INTRA.VDW>
0

>  <SCORE.INTRA.VDW.0>
0

>  <SCORE.INTRA.norm>
0

>  <SCORE.RESTR>
0

>  <SCORE.RESTR.CAVITY>
0

>  <SCORE.RESTR.norm>
0

>  <SCORE.SYSTEM>
0

>  <SCORE.SYSTEM.CONST>
0

>  <SCORE.SYSTEM.DIHEDRAL>
0

>  <SCORE.SYSTEM.SOLV>
0

>  <SCORE.SYSTEM.norm>
0

>  <SCORE.heavy>
10

>  <SCORE.norm>
-1.96543

>  <RMSD>
0.418

$$$$
ligand
 OpenBabel11021811423D
libRbt.so/2013.1/901 2013/11/27
 10 11  0  0  0  0  0  0  0  0999 V2000
   53.3905  -13.1726    8.9373 N   0  0  0  0  0  0  0  0  0  0  0  0
   53.6178  -14.4679    9.3056 C   0  0  0  0  0  0  0  0  0  0  0  0
   53.9549  -15.4223    8.3994 N   0  0  0  0  0  0  0  0  0  0  0  0
   54.0429  -14.9406    7.1260 C   0  0  0  0  0  0  0  0  0  0  0  0
   53.8273  -13.6498    6.7041 C   0  0  0  0  0  0  0  0  0  0  0  0
   53.4731  -12.6638    7.6293 C   0  0  0  0  0  0  0  0  0  0  0  0
   53.2413  -11.4863    7.4508 O   0  0  0  0  0  0  0  0  0  0  0  0
   54.0210  -13.5949    5.3502 N   0  0  0  0  0  0  0  0  0  0  0  0
   54.3463  -14.8222    4.9578 C   0  0  0  0  0  0  0  0  0  0  0  0
   54.3709  -15.6966    6.0282 N   0  0  0  0  0  0  0  0  0  0  0  0
  1  2  1  0  0  0  0
  1  6  1  0  0  0  0
  2  3  2  0  0  0  0
  3  4  1  0  0  0  0
  4  5  2  0  0  0  0
  4 10  1  0  0  0  0
  5  6  1  0  0  0  0
  5  8  1  0  0  0  0
  6  7  2  0  0  0  0
  8  9  1  0  0  0  0
  9 10  2  0  0  0  0
M  END
>  <CHROM.1>
53.81725874,-13.94503459,7.19615889,-2.86514885,1.31247740,-0.96638627

>  <Name>
ligand

>  <RI>
0

>  <Rbt.Current_Directory>
/home/itssahil/PROJECTS/Mol_Feturizer/New_Systems/rnas/2EEV

>  <Rbt.Executable>
rbdock ($Id: //depot/dev/client3/rdock/2013.1/src/exe/rbdock.cxx#4 $)

>  <Rbt.Library>
libRbt.so (2013.1, Build901 2013/11/27)

>  <Rbt.Parameter_File>
/export/apps/rDock/src/rDock_2013.1_src/data/scripts/dock_solv.prm

>  <Rbt.Receptor>
prm/pocket_docking_3.prm

>  <SCORE>
-19.7045

>  <SCORE.INTER>
-19.7045

>  <SCORE.INTER.CONST>
1

>  <SCORE.INTER.POLAR>
0

>  <SCORE.INTER.ROT>
0

>  <SCORE.INTER.SOLV>
4.22671

>  <SCORE.INTER.VDW>
-18.1452

>  <SCORE.INTER.norm>
-1.97045

>  <SCORE.INTRA>
0

>  <SCORE.INTRA.DIHEDRAL>
0

>  <SCORE.INTRA.DIHEDRAL.0>
0

>  <SCORE.INTRA.POLAR>
0

>  <SCORE.INTRA.POLAR.0>
0

>  <SCORE.INTRA.REPUL>
0

>  <SCORE.INTRA.REPUL.0>
0

>  <SCORE.INTRA.SOLV>
0

>  <SCORE.INTRA.SOLV.lig_0>
-4.25352

>  <SCORE.INTRA.VDW>
0

>  <SCORE.INTRA.VDW.0>
0

>  <SCORE.INTRA.norm>
0

>  <SCORE.RESTR>
0

>  <SCORE.RESTR.CAVITY>
0

>  <SCORE.RESTR.norm>
0

>  <SCORE.SYSTEM>
0

>  <SCORE.SYSTEM.CONST>
0

>  <SCORE.SYSTEM.DIHEDRAL>
0

>  <SCORE.SYSTEM.SOLV>
0

>  <SCORE.SYSTEM.norm>
0

>  <SCORE.heavy>
10

>  <SCORE.norm>
-1.97045

>  <RMSD>
0.419

$$$$
ligand
 OpenBabel11021811423D
libRbt.so/2013.1/901 2013/11/27
 10 11  0  0  0  0  0  0  0  0999 V2000
   53.4344  -13.2027    8.9199 N   0  0  0  0  0  0  0  0  0  0  0  0
   53.6655  -14.5034    9.2663 C   0  0  0  0  0  0  0  0  0  0  0  0
   53.9910  -15.4445    8.3421 N   0  0  0  0  0  0  0  0  0  0  0  0
   54.0640  -14.9441    7.0749 C   0  0  0  0  0  0  0  0  0  0  0  0
   53.8440  -13.6471    6.6748 C   0  0  0  0  0  0  0  0  0  0  0  0
   53.5015  -12.6747    7.6187 C   0  0  0  0  0  0  0  0  0  0  0  0
   53.2682  -11.4946    7.4604 O   0  0  0  0  0  0  0  0  0  0  0  0
   54.0214  -13.5723    5.3196 N   0  0  0  0  0  0  0  0  0  0  0  0
   54.3414  -14.7938    4.9053 C   0  0  0  0  0  0  0  0  0  0  0  0
   54.3783  -15.6839    5.9623 N   0  0  0  0  0  0  0  0  0  0  0  0
  1  2  1  0  0  0  0
  1  6  1  0  0  0  0
  2  3  2  0  0  0  0
  3  4  1  0  0  0  0
  4  5  2  0  0  0  0
  4 10  1  0  0  0  0
  5  6  1  0  0  0  0
  5  8  1  0  0  0  0
  6  7  2  0  0  0  0
  8  9  1  0  0  0  0
  9 10  2  0  0  0  0
M  END
>  <CHROM.1>
53.83974942,-13.94955722,7.16253621,-2.82649599,1.31959497,-0.98903735

>  <Name>
ligand

>  <RI>
0

>  <Rbt.Current_Directory>
/home/itssahil/PROJECTS/Mol_Feturizer/New_Systems/rnas/2EEV

>  <Rbt.Executable>
rbdock ($Id: //depot/dev/client3/rdock/2013.1/src/exe/rbdock.cxx#4 $)

>  <Rbt.Library>
libRbt.so (2013.1, Build901 2013/11/27)

>  <Rbt.Parameter_File>
/export/apps/rDock/src/rDock_2013.1_src/data/scripts/dock_solv.prm

>  <Rbt.Receptor>
prm/pocket_docking_8.prm

>  <SCORE>
-19.6551

>  <SCORE.INTER>
-19.6551

>  <SCORE.INTER.CONST>
1

>  <SCORE.INTER.POLAR>
0

>  <SCORE.INTER.ROT>
0

>  <SCORE.INTER.SOLV>
4.21754

>  <SCORE.INTER.VDW>
-18.1093

>  <SCORE.INTER.norm>
-1.96551

>  <SCORE.INTRA>
0

>  <SCORE.INTRA.DIHEDRAL>
0

>  <SCORE.INTRA.DIHEDRAL.0>
0

>  <SCORE.INTRA.POLAR>
0

>  <SCORE.INTRA.POLAR.0>
0

>  <SCORE.INTRA.REPUL>
0

>  <SCORE.INTRA.REPUL.0>
0

>  <SCORE.INTRA.SOLV>
0

>  <SCORE.INTRA.SOLV.lig_0>
-4.25352

>  <SCORE.INTRA.VDW>
0

>  <SCORE.INTRA.VDW.0>
0

>  <SCORE.INTRA.norm>
0

>  <SCORE.RESTR>
0

>  <SCORE.RESTR.CAVITY>
0

>  <SCORE.RESTR.norm>
0

>  <SCORE.SYSTEM>
0

>  <SCORE.SYSTEM.CONST>
0

>  <SCORE.SYSTEM.DIHEDRAL>
0

>  <SCORE.SYSTEM.SOLV>
0

>  <SCORE.SYSTEM.norm>
0

>  <SCORE.heavy>
10

>  <SCORE.norm>
-1.96551

>  <RMSD>
0.419

$$$$
ligand
 OpenBabel11021811423D
libRbt.so/2013.1/901 2013/11/27
 10 11  0  0  0  0  0  0  0  0999 V2000
   53.5393  -13.3130    8.8845 N   0  0  0  0  0  0  0  0  0  0  0  0
   53.8050  -14.6205    9.1762 C   0  0  0  0  0  0  0  0  0  0  0  0
   54.1228  -15.5204    8.2093 N   0  0  0  0  0  0  0  0  0  0  0  0
   54.1507  -14.9728    6.9600 C   0  0  0  0  0  0  0  0  0  0  0  0
   53.8946  -13.6667    6.6142 C   0  0  0  0  0  0  0  0  0  0  0  0
   53.5599  -12.7366    7.6024 C   0  0  0  0  0  0  0  0  0  0  0  0
   53.2995  -11.5565    7.4943 O   0  0  0  0  0  0  0  0  0  0  0  0
   54.0327  -13.5390    5.2585 N   0  0  0  0  0  0  0  0  0  0  0  0
   54.3645  -14.7378    4.7907 C   0  0  0  0  0  0  0  0  0  0  0  0
   54.4481  -15.6649    5.8126 N   0  0  0  0  0  0  0  0  0  0  0  0
  1  2  1  0  0  0  0
  1  6  1  0  0  0  0
  2  3  2  0  0  0  0
  3  4  1  0  0  0  0
  4  5  2  0  0  0  0
  4 10  1  0  0  0  0
  5  6  1  0  0  0  0
  5  8  1  0  0  0  0
  6  7  2  0  0  0  0
  8  9  1  0  0  0  0
  9 10  2  0  0  0  0
M  END
>  <CHROM.1>
53.90981541,-13.98681904,7.09042869,-2.69125308,1.31655739,-1.08323906

>  <Name>
ligand

>  <RI>
0

>  <Rbt.Current_Directory>
/home/itssahil/PROJECTS/Mol_Feturizer/New_Systems/rnas/2EEV

>  <Rbt.Executable>
rbdock ($Id: //depot/dev/client3/rdock/2013.1/src/exe/rbdock.cxx#4 $)

>  <Rbt.Library>
libRbt.so (2013.1, Build901 2013/11/27)

>  <Rbt.Parameter_File>
/export/apps/rDock/src/rDock_2013.1_src/data/scripts/dock_solv.prm

>  <Rbt.Receptor>
prm/blind_docking_100.prm

>  <SCORE>
-19.693

>  <SCORE.INTER>
-19.693

>  <SCORE.INTER.CONST>
1

>  <SCORE.INTER.POLAR>
0

>  <SCORE.INTER.ROT>
0

>  <SCORE.INTER.SOLV>
4.14066

>  <SCORE.INTER.VDW>
-18.1089

>  <SCORE.INTER.norm>
-1.9693

>  <SCORE.INTRA>
0

>  <SCORE.INTRA.DIHEDRAL>
0

>  <SCORE.INTRA.DIHEDRAL.0>
0

>  <SCORE.INTRA.POLAR>
0

>  <SCORE.INTRA.POLAR.0>
0

>  <SCORE.INTRA.REPUL>
0

>  <SCORE.INTRA.REPUL.0>
0

>  <SCORE.INTRA.SOLV>
0

>  <SCORE.INTRA.SOLV.lig_0>
-4.25352

>  <SCORE.INTRA.VDW>
0

>  <SCORE.INTRA.VDW.0>
0

>  <SCORE.INTRA.norm>
0

>  <SCORE.RESTR>
0

>  <SCORE.RESTR.CAVITY>
0

>  <SCORE.RESTR.norm>
0

>  <SCORE.SYSTEM>
0

>  <SCORE.SYSTEM.CONST>
0

>  <SCORE.SYSTEM.DIHEDRAL>
0

>  <SCORE.SYSTEM.SOLV>
0

>  <SCORE.SYSTEM.norm>
0

>  <SCORE.heavy>
10

>  <SCORE.norm>
-1.9693

>  <RMSD>
0.420

$$$$
ligand
 OpenBabel11021811423D
libRbt.so/2013.1/901 2013/11/27
 10 11  0  0  0  0  0  0  0  0999 V2000
   53.4079  -13.1640    8.9330 N   0  0  0  0  0  0  0  0  0  0  0  0
   53.6256  -14.4614    9.2996 C   0  0  0  0  0  0  0  0  0  0  0  0
   53.9616  -15.4158    8.3931 N   0  0  0  0  0  0  0  0  0  0  0  0
   54.0591  -14.9320    7.1212 C   0  0  0  0  0  0  0  0  0  0  0  0
   53.8532  -13.6390    6.7010 C   0  0  0  0  0  0  0  0  0  0  0  0
   53.5002  -12.6529    7.6266 C   0  0  0  0  0  0  0  0  0  0  0  0
   53.2762  -11.4737    7.4495 O   0  0  0  0  0  0  0  0  0  0  0  0
   54.0542  -13.5823    5.3483 N   0  0  0  0  0  0  0  0  0  0  0  0
   54.3742  -14.8106    4.9549 C   0  0  0  0  0  0  0  0  0  0  0  0
   54.3881  -15.6875    6.0234 N   0  0  0  0  0  0  0  0  0  0  0  0
  1  2  1  0  0  0  0
  1  6  1  0  0  0  0
  2  3  2  0  0  0  0
  3  4  1  0  0  0  0
  4  5  2  0  0  0  0
  4 10  1  0  0  0  0
  5  6  1  0  0  0  0
  5  8  1  0  0  0  0
  6  7  2  0  0  0  0
  8  9  1  0  0  0  0
  9 10  2  0  0  0  0
M  END
>  <CHROM.1>
53.83893072,-13.93520890,7.19239351,-2.89501452,1.31434010,-0.93532980

>  <Name>
ligand

>  <RI>
0

>  <Rbt.Current_Directory>
/home/itssahil/PROJECTS/Mol_Feturizer/New_Systems/rnas/2EEV

>  <Rbt.Executable>
rbdock ($Id: //depot/dev/client3/rdock/2013.1/src/exe/rbdock.cxx#4 $)

>  <Rbt.Library>
libRbt.so (2013.1, Build901 2013/11/27)

>  <Rbt.Parameter_File>
/export/apps/rDock/src/rDock_2013.1_src/data/scripts/dock_solv.prm

>  <Rbt.Receptor>
prm/pocket_docking_7.prm

>  <SCORE>
-19.716

>  <SCORE.INTER>
-19.716

>  <SCORE.INTER.CONST>
1

>  <SCORE.INTER.POLAR>
0

>  <SCORE.INTER.ROT>
0

>  <SCORE.INTER.SOLV>
4.22881

>  <SCORE.INTER.VDW>
-18.1536

>  <SCORE.INTER.norm>
-1.9716

>  <SCORE.INTRA>
0

>  <SCORE.INTRA.DIHEDRAL>
0

>  <SCORE.INTRA.DIHEDRAL.0>
0

>  <SCORE.INTRA.POLAR>
0

>  <SCORE.INTRA.POLAR.0>
0

>  <SCORE.INTRA.REPUL>
0

>  <SCORE.INTRA.REPUL.0>
0

>  <SCORE.INTRA.SOLV>
0

>  <SCORE.INTRA.SOLV.lig_0>
-4.25352

>  <SCORE.INTRA.VDW>
0

>  <SCORE.INTRA.VDW.0>
0

>  <SCORE.INTRA.norm>
0

>  <SCORE.RESTR>
0

>  <SCORE.RESTR.CAVITY>
0

>  <SCORE.RESTR.norm>
0

>  <SCORE.SYSTEM>
0

>  <SCORE.SYSTEM.CONST>
0

>  <SCORE.SYSTEM.DIHEDRAL>
0

>  <SCORE.SYSTEM.SOLV>
0

>  <SCORE.SYSTEM.norm>
0

>  <SCORE.heavy>
10

>  <SCORE.norm>
-1.9716

>  <RMSD>
0.420

$$$$
ligand
 OpenBabel11021811423D
libRbt.so/2013.1/901 2013/11/27
 10 11  0  0  0  0  0  0  0  0999 V2000
   53.4705  -13.3388    8.8906 N   0  0  0  0  0  0  0  0  0  0  0  0
   53.7073  -14.6531    9.1765 C   0  0  0  0  0  0  0  0  0  0  0  0
   54.0288  -15.5507    8.2087 N   0  0  0  0  0  0  0  0  0  0  0  0
   54.0917  -14.9936    6.9649 C   0  0  0  0  0  0  0  0  0  0  0  0
   53.8657  -13.6806    6.6250 C   0  0  0  0  0  0  0  0  0  0  0  0
   53.5273  -12.7526    7.6140 C   0  0  0  0  0  0  0  0  0  0  0  0
   53.2899  -11.5673    7.5106 O   0  0  0  0  0  0  0  0  0  0  0  0
   54.0335  -13.5443    5.2734 N   0  0  0  0  0  0  0  0  0  0  0  0
   54.3537  -14.7450    4.8024 C   0  0  0  0  0  0  0  0  0  0  0  0
   54.4002  -15.6817    5.8179 N   0  0  0  0  0  0  0  0  0  0  0  0
  1  2  1  0  0  0  0
  1  6  1  0  0  0  0
  2  3  2  0  0  0  0
  3  4  1  0  0  0  0
  4  5  2  0  0  0  0
  4 10  1  0  0  0  0
  5  6  1  0  0  0  0
  5  8  1  0  0  0  0
  6  7  2  0  0  0  0
  8  9  1  0  0  0  0
  9 10  2  0  0  0  0
M  END
>  <CHROM.1>
53.86556710,-14.00467676,7.09869019,-2.79739765,1.32117635,-0.97220916

>  <Name>
ligand

>  <RI>
0

>  <Rbt.Current_Directory>
/home/itssahil/PROJECTS/Mol_Feturizer/New_Systems/rnas/2EEV

>  <Rbt.Executable>
rbdock ($Id: //depot/dev/client3/rdock/2013.1/src/exe/rbdock.cxx#4 $)

>  <Rbt.Library>
libRbt.so (2013.1, Build901 2013/11/27)

>  <Rbt.Parameter_File>
/export/apps/rDock/src/rDock_2013.1_src/data/scripts/dock_solv.prm

>  <Rbt.Receptor>
prm/pocket_docking_3.prm

>  <SCORE>
-19.6507

>  <SCORE.INTER>
-19.6507

>  <SCORE.INTER.CONST>
1

>  <SCORE.INTER.POLAR>
0

>  <SCORE.INTER.ROT>
0

>  <SCORE.INTER.SOLV>
4.20299

>  <SCORE.INTER.VDW>
-18.1014

>  <SCORE.INTER.norm>
-1.96507

>  <SCORE.INTRA>
0

>  <SCORE.INTRA.DIHEDRAL>
0

>  <SCORE.INTRA.DIHEDRAL.0>
0

>  <SCORE.INTRA.POLAR>
0

>  <SCORE.INTRA.POLAR.0>
0

>  <SCORE.INTRA.REPUL>
0

>  <SCORE.INTRA.REPUL.0>
0

>  <SCORE.INTRA.SOLV>
0

>  <SCORE.INTRA.SOLV.lig_0>
-4.25352

>  <SCORE.INTRA.VDW>
0

>  <SCORE.INTRA.VDW.0>
0

>  <SCORE.INTRA.norm>
0

>  <SCORE.RESTR>
0

>  <SCORE.RESTR.CAVITY>
0

>  <SCORE.RESTR.norm>
0

>  <SCORE.SYSTEM>
0

>  <SCORE.SYSTEM.CONST>
0

>  <SCORE.SYSTEM.DIHEDRAL>
0

>  <SCORE.SYSTEM.SOLV>
0

>  <SCORE.SYSTEM.norm>
0

>  <SCORE.heavy>
10

>  <SCORE.norm>
-1.96507

>  <RMSD>
0.421

$$$$
ligand
 OpenBabel11021811423D
libRbt.so/2013.1/901 2013/11/27
 10 11  0  0  0  0  0  0  0  0999 V2000
   53.4277  -13.1666    8.9420 N   0  0  0  0  0  0  0  0  0  0  0  0
   53.6414  -14.4648    9.3084 C   0  0  0  0  0  0  0  0  0  0  0  0
   53.9584  -15.4234    8.3994 N   0  0  0  0  0  0  0  0  0  0  0  0
   54.0417  -14.9428    7.1252 C   0  0  0  0  0  0  0  0  0  0  0  0
   53.8391  -13.6492    6.7052 C   0  0  0  0  0  0  0  0  0  0  0  0
   53.5056  -12.6588    7.6334 C   0  0  0  0  0  0  0  0  0  0  0  0
   53.2875  -11.4784    7.4569 O   0  0  0  0  0  0  0  0  0  0  0  0
   54.0220  -13.5967    5.3497 N   0  0  0  0  0  0  0  0  0  0  0  0
   54.3281  -14.8280    4.9546 C   0  0  0  0  0  0  0  0  0  0  0  0
   54.3505  -15.7028    6.0247 N   0  0  0  0  0  0  0  0  0  0  0  0
  1  2  1  0  0  0  0
  1  6  1  0  0  0  0
  2  3  2  0  0  0  0
  3  4  1  0  0  0  0
  4  5  2  0  0  0  0
  4 10  1  0  0  0  0
  5  6  1  0  0  0  0
  5  8  1  0  0  0  0
  6  7  2  0  0  0  0
  8  9  1  0  0  0  0
  9 10  2  0  0  0  0
M  END
>  <CHROM.1>
53.82951190,-13.94436386,7.19736791,-2.86632391,1.32795637,-0.96520419

>  <Name>
ligand

>  <RI>
0

>  <Rbt.Current_Directory>
/home/itssahil/PROJECTS/Mol_Feturizer/New_Systems/rnas/2EEV

>  <Rbt.Executable>
rbdock ($Id: //depot/dev/client3/rdock/2013.1/src/exe/rbdock.cxx#4 $)

>  <Rbt.Library>
libRbt.so (2013.1, Build901 2013/11/27)

>  <Rbt.Parameter_File>
/export/apps/rDock/src/rDock_2013.1_src/data/scripts/dock_solv.prm

>  <Rbt.Receptor>
prm/pocket_docking_4.prm

>  <SCORE>
-19.7074

>  <SCORE.INTER>
-19.7074

>  <SCORE.INTER.CONST>
1

>  <SCORE.INTER.POLAR>
0

>  <SCORE.INTER.ROT>
0

>  <SCORE.INTER.SOLV>
4.25544

>  <SCORE.INTER.VDW>
-18.1568

>  <SCORE.INTER.norm>
-1.97074

>  <SCORE.INTRA>
0

>  <SCORE.INTRA.DIHEDRAL>
0

>  <SCORE.INTRA.DIHEDRAL.0>
0

>  <SCORE.INTRA.POLAR>
0

>  <SCORE.INTRA.POLAR.0>
0

>  <SCORE.INTRA.REPUL>
0

>  <SCORE.INTRA.REPUL.0>
0

>  <SCORE.INTRA.SOLV>
0

>  <SCORE.INTRA.SOLV.lig_0>
-4.25352

>  <SCORE.INTRA.VDW>
0

>  <SCORE.INTRA.VDW.0>
0

>  <SCORE.INTRA.norm>
0

>  <SCORE.RESTR>
0

>  <SCORE.RESTR.CAVITY>
0

>  <SCORE.RESTR.norm>
0

>  <SCORE.SYSTEM>
0

>  <SCORE.SYSTEM.CONST>
0

>  <SCORE.SYSTEM.DIHEDRAL>
0

>  <SCORE.SYSTEM.SOLV>
0

>  <SCORE.SYSTEM.norm>
0

>  <SCORE.heavy>
10

>  <SCORE.norm>
-1.97074

>  <RMSD>
0.421

$$$$
ligand
 OpenBabel11021811423D
libRbt.so/2013.1/901 2013/11/27
 10 11  0  0  0  0  0  0  0  0999 V2000
   53.4438  -13.2133    8.9150 N   0  0  0  0  0  0  0  0  0  0  0  0
   53.6618  -14.5184    9.2530 C   0  0  0  0  0  0  0  0  0  0  0  0
   53.9805  -15.4562    8.3230 N   0  0  0  0  0  0  0  0  0  0  0  0
   54.0611  -14.9479    7.0595 C   0  0  0  0  0  0  0  0  0  0  0  0
   53.8542  -13.6461    6.6678 C   0  0  0  0  0  0  0  0  0  0  0  0
   53.5189  -12.6770    7.6176 C   0  0  0  0  0  0  0  0  0  0  0  0
   53.2971  -11.4937    7.4669 O   0  0  0  0  0  0  0  0  0  0  0  0
   54.0354  -13.5637    5.3136 N   0  0  0  0  0  0  0  0  0  0  0  0
   54.3447  -14.7853    4.8916 C   0  0  0  0  0  0  0  0  0  0  0  0
   54.3708  -15.6830    5.9425 N   0  0  0  0  0  0  0  0  0  0  0  0
  1  2  1  0  0  0  0
  1  6  1  0  0  0  0
  2  3  2  0  0  0  0
  3  4  1  0  0  0  0
  4  5  2  0  0  0  0
  4 10  1  0  0  0  0
  5  6  1  0  0  0  0
  5  8  1  0  0  0  0
  6  7  2  0  0  0  0
  8  9  1  0  0  0  0
  9 10  2  0  0  0  0
M  END
>  <CHROM.1>
53.84602189,-13.95184934,7.15345293,-2.85572097,1.32617314,-0.95384570

>  <Name>
ligand

>  <RI>
0

>  <Rbt.Current_Directory>
/home/itssahil/PROJECTS/Mol_Feturizer/New_Systems/rnas/2EEV

>  <Rbt.Executable>
rbdock ($Id: //depot/dev/client3/rdock/2013.1/src/exe/rbdock.cxx#4 $)

>  <Rbt.Library>
libRbt.so (2013.1, Build901 2013/11/27)

>  <Rbt.Parameter_File>
/export/apps/rDock/src/rDock_2013.1_src/data/scripts/dock_solv.prm

>  <Rbt.Receptor>
prm/pocket_docking_3.prm

>  <SCORE>
-19.6246

>  <SCORE.INTER>
-19.6246

>  <SCORE.INTER.CONST>
1

>  <SCORE.INTER.POLAR>
0

>  <SCORE.INTER.ROT>
0

>  <SCORE.INTER.SOLV>
4.24002

>  <SCORE.INTER.VDW>
-18.0964

>  <SCORE.INTER.norm>
-1.96246

>  <SCORE.INTRA>
0

>  <SCORE.INTRA.DIHEDRAL>
0

>  <SCORE.INTRA.DIHEDRAL.0>
0

>  <SCORE.INTRA.POLAR>
0

>  <SCORE.INTRA.POLAR.0>
0

>  <SCORE.INTRA.REPUL>
0

>  <SCORE.INTRA.REPUL.0>
0

>  <SCORE.INTRA.SOLV>
0

>  <SCORE.INTRA.SOLV.lig_0>
-4.25352

>  <SCORE.INTRA.VDW>
0

>  <SCORE.INTRA.VDW.0>
0

>  <SCORE.INTRA.norm>
0

>  <SCORE.RESTR>
0

>  <SCORE.RESTR.CAVITY>
0

>  <SCORE.RESTR.norm>
0

>  <SCORE.SYSTEM>
0

>  <SCORE.SYSTEM.CONST>
0

>  <SCORE.SYSTEM.DIHEDRAL>
0

>  <SCORE.SYSTEM.SOLV>
0

>  <SCORE.SYSTEM.norm>
0

>  <SCORE.heavy>
10

>  <SCORE.norm>
-1.96246

>  <RMSD>
0.423

$$$$
ligand
 OpenBabel11021811423D
libRbt.so/2013.1/901 2013/11/27
 10 11  0  0  0  0  0  0  0  0999 V2000
   53.5417  -13.3113    8.8829 N   0  0  0  0  0  0  0  0  0  0  0  0
   53.7990  -14.6204    9.1748 C   0  0  0  0  0  0  0  0  0  0  0  0
   54.1117  -15.5224    8.2082 N   0  0  0  0  0  0  0  0  0  0  0  0
   54.1439  -14.9751    6.9589 C   0  0  0  0  0  0  0  0  0  0  0  0
   53.8962  -13.6675    6.6129 C   0  0  0  0  0  0  0  0  0  0  0  0
   53.5667  -12.7352    7.6008 C   0  0  0  0  0  0  0  0  0  0  0  0
   53.3138  -11.5535    7.4924 O   0  0  0  0  0  0  0  0  0  0  0  0
   54.0360  -13.5408    5.2572 N   0  0  0  0  0  0  0  0  0  0  0  0
   54.3606  -14.7417    4.7897 C   0  0  0  0  0  0  0  0  0  0  0  0
   54.4377  -15.6693    5.8118 N   0  0  0  0  0  0  0  0  0  0  0  0
  1  2  1  0  0  0  0
  1  6  1  0  0  0  0
  2  3  2  0  0  0  0
  3  4  1  0  0  0  0
  4  5  2  0  0  0  0
  4 10  1  0  0  0  0
  5  6  1  0  0  0  0
  5  8  1  0  0  0  0
  6  7  2  0  0  0  0
  8  9  1  0  0  0  0
  9 10  2  0  0  0  0
M  END
>  <CHROM.1>
53.90912494,-13.98767048,7.08908426,-2.70551292,1.32178219,-1.06952749

>  <Name>
ligand

>  <RI>
0

>  <Rbt.Current_Directory>
/home/itssahil/PROJECTS/Mol_Feturizer/New_Systems/rnas/2EEV

>  <Rbt.Executable>
rbdock ($Id: //depot/dev/client3/rdock/2013.1/src/exe/rbdock.cxx#4 $)

>  <Rbt.Library>
libRbt.so (2013.1, Build901 2013/11/27)

>  <Rbt.Parameter_File>
/export/apps/rDock/src/rDock_2013.1_src/data/scripts/dock_solv.prm

>  <Rbt.Receptor>
prm/pocket_docking_4.prm

>  <SCORE>
-19.6952

>  <SCORE.INTER>
-19.6952

>  <SCORE.INTER.CONST>
1

>  <SCORE.INTER.POLAR>
0

>  <SCORE.INTER.ROT>
0

>  <SCORE.INTER.SOLV>
4.16222

>  <SCORE.INTER.VDW>
-18.1175

>  <SCORE.INTER.norm>
-1.96952

>  <SCORE.INTRA>
0

>  <SCORE.INTRA.DIHEDRAL>
0

>  <SCORE.INTRA.DIHEDRAL.0>
0

>  <SCORE.INTRA.POLAR>
0

>  <SCORE.INTRA.POLAR.0>
0

>  <SCORE.INTRA.REPUL>
0

>  <SCORE.INTRA.REPUL.0>
0

>  <SCORE.INTRA.SOLV>
0

>  <SCORE.INTRA.SOLV.lig_0>
-4.25352

>  <SCORE.INTRA.VDW>
0

>  <SCORE.INTRA.VDW.0>
0

>  <SCORE.INTRA.norm>
0

>  <SCORE.RESTR>
0

>  <SCORE.RESTR.CAVITY>
0

>  <SCORE.RESTR.norm>
0

>  <SCORE.SYSTEM>
0

>  <SCORE.SYSTEM.CONST>
0

>  <SCORE.SYSTEM.DIHEDRAL>
0

>  <SCORE.SYSTEM.SOLV>
0

>  <SCORE.SYSTEM.norm>
0

>  <SCORE.heavy>
10

>  <SCORE.norm>
-1.96952

>  <RMSD>
0.424

$$$$
ligand
 OpenBabel11021811423D
libRbt.so/2013.1/901 2013/11/27
 10 11  0  0  0  0  0  0  0  0999 V2000
   53.5152  -13.3080    8.8753 N   0  0  0  0  0  0  0  0  0  0  0  0
   53.7875  -14.6115    9.1783 C   0  0  0  0  0  0  0  0  0  0  0  0
   54.1116  -15.5178    8.2195 N   0  0  0  0  0  0  0  0  0  0  0  0
   54.1385  -14.9805    6.9657 C   0  0  0  0  0  0  0  0  0  0  0  0
   53.8759  -13.6788    6.6086 C   0  0  0  0  0  0  0  0  0  0  0  0
   53.5346  -12.7422    7.5885 C   0  0  0  0  0  0  0  0  0  0  0  0
   53.2680  -11.5645    7.4701 O   0  0  0  0  0  0  0  0  0  0  0  0
   54.0154  -13.5616    5.2520 N   0  0  0  0  0  0  0  0  0  0  0  0
   54.3544  -14.7625    4.7948 C   0  0  0  0  0  0  0  0  0  0  0  0
   54.4414  -15.6806    5.8246 N   0  0  0  0  0  0  0  0  0  0  0  0
  1  2  1  0  0  0  0
  1  6  1  0  0  0  0
  2  3  2  0  0  0  0
  3  4  1  0  0  0  0
  4  5  2  0  0  0  0
  4 10  1  0  0  0  0
  5  6  1  0  0  0  0
  5  8  1  0  0  0  0
  6  7  2  0  0  0  0
  8  9  1  0  0  0  0
  9 10  2  0  0  0  0
M  END
>  <CHROM.1>
53.89209488,-13.99479657,7.08748905,-2.68674228,1.31105150,-1.09596242

>  <Name>
ligand

>  <RI>
0

>  <Rbt.Current_Directory>
/home/itssahil/PROJECTS/Mol_Feturizer/New_Systems/rnas/2EEV

>  <Rbt.Executable>
rbdock ($Id: //depot/dev/client3/rdock/2013.1/src/exe/rbdock.cxx#4 $)

>  <Rbt.Library>
libRbt.so (2013.1, Build901 2013/11/27)

>  <Rbt.Parameter_File>
/export/apps/rDock/src/rDock_2013.1_src/data/scripts/dock_solv.prm

>  <Rbt.Receptor>
prm/blind_docking_100.prm

>  <SCORE>
-19.6805

>  <SCORE.INTER>
-19.6805

>  <SCORE.INTER.CONST>
1

>  <SCORE.INTER.POLAR>
0

>  <SCORE.INTER.ROT>
0

>  <SCORE.INTER.SOLV>
4.1329

>  <SCORE.INTER.VDW>
-18.098

>  <SCORE.INTER.norm>
-1.96805

>  <SCORE.INTRA>
0

>  <SCORE.INTRA.DIHEDRAL>
0

>  <SCORE.INTRA.DIHEDRAL.0>
0

>  <SCORE.INTRA.POLAR>
0

>  <SCORE.INTRA.POLAR.0>
0

>  <SCORE.INTRA.REPUL>
0

>  <SCORE.INTRA.REPUL.0>
0

>  <SCORE.INTRA.SOLV>
0

>  <SCORE.INTRA.SOLV.lig_0>
-4.25352

>  <SCORE.INTRA.VDW>
0

>  <SCORE.INTRA.VDW.0>
0

>  <SCORE.INTRA.norm>
0

>  <SCORE.RESTR>
0

>  <SCORE.RESTR.CAVITY>
0

>  <SCORE.RESTR.norm>
0

>  <SCORE.SYSTEM>
0

>  <SCORE.SYSTEM.CONST>
0

>  <SCORE.SYSTEM.DIHEDRAL>
0

>  <SCORE.SYSTEM.SOLV>
0

>  <SCORE.SYSTEM.norm>
0

>  <SCORE.heavy>
10

>  <SCORE.norm>
-1.96805

>  <RMSD>
0.427

$$$$
ligand
 OpenBabel11021811423D
libRbt.so/2013.1/901 2013/11/27
 10 11  0  0  0  0  0  0  0  0999 V2000
   53.4244  -13.1786    8.9154 N   0  0  0  0  0  0  0  0  0  0  0  0
   53.6360  -14.4772    9.2816 C   0  0  0  0  0  0  0  0  0  0  0  0
   53.9663  -15.4331    8.3745 N   0  0  0  0  0  0  0  0  0  0  0  0
   54.0650  -14.9495    7.1027 C   0  0  0  0  0  0  0  0  0  0  0  0
   53.8654  -13.6554    6.6829 C   0  0  0  0  0  0  0  0  0  0  0  0
   53.5181  -12.6677    7.6091 C   0  0  0  0  0  0  0  0  0  0  0  0
   53.3000  -11.4873    7.4324 O   0  0  0  0  0  0  0  0  0  0  0  0
   54.0654  -13.5994    5.3300 N   0  0  0  0  0  0  0  0  0  0  0  0
   54.3789  -14.8293    4.9361 C   0  0  0  0  0  0  0  0  0  0  0  0
   54.3893  -15.7064    6.0045 N   0  0  0  0  0  0  0  0  0  0  0  0
  1  2  1  0  0  0  0
  1  6  1  0  0  0  0
  2  3  2  0  0  0  0
  3  4  1  0  0  0  0
  4  5  2  0  0  0  0
  4 10  1  0  0  0  0
  5  6  1  0  0  0  0
  5  8  1  0  0  0  0
  6  7  2  0  0  0  0
  8  9  1  0  0  0  0
  9 10  2  0  0  0  0
M  END
>  <CHROM.1>
53.85002577,-13.95163193,7.17428830,-2.90417687,1.31893424,-0.92625355

>  <Name>
ligand

>  <RI>
0

>  <Rbt.Current_Directory>
/home/itssahil/PROJECTS/Mol_Feturizer/New_Systems/rnas/2EEV

>  <Rbt.Executable>
rbdock ($Id: //depot/dev/client3/rdock/2013.1/src/exe/rbdock.cxx#4 $)

>  <Rbt.Library>
libRbt.so (2013.1, Build901 2013/11/27)

>  <Rbt.Parameter_File>
/export/apps/rDock/src/rDock_2013.1_src/data/scripts/dock_solv.prm

>  <Rbt.Receptor>
prm/blind_docking_80.prm

>  <SCORE>
-19.6628

>  <SCORE.INTER>
-19.6628

>  <SCORE.INTER.CONST>
1

>  <SCORE.INTER.POLAR>
0

>  <SCORE.INTER.ROT>
0

>  <SCORE.INTER.SOLV>
4.24819

>  <SCORE.INTER.VDW>
-18.1246

>  <SCORE.INTER.norm>
-1.96628

>  <SCORE.INTRA>
0

>  <SCORE.INTRA.DIHEDRAL>
0

>  <SCORE.INTRA.DIHEDRAL.0>
0

>  <SCORE.INTRA.POLAR>
0

>  <SCORE.INTRA.POLAR.0>
0

>  <SCORE.INTRA.REPUL>
0

>  <SCORE.INTRA.REPUL.0>
0

>  <SCORE.INTRA.SOLV>
0

>  <SCORE.INTRA.SOLV.lig_0>
-4.25352

>  <SCORE.INTRA.VDW>
0

>  <SCORE.INTRA.VDW.0>
0

>  <SCORE.INTRA.norm>
0

>  <SCORE.RESTR>
0

>  <SCORE.RESTR.CAVITY>
0

>  <SCORE.RESTR.norm>
0

>  <SCORE.SYSTEM>
0

>  <SCORE.SYSTEM.CONST>
0

>  <SCORE.SYSTEM.DIHEDRAL>
0

>  <SCORE.SYSTEM.SOLV>
0

>  <SCORE.SYSTEM.norm>
0

>  <SCORE.heavy>
10

>  <SCORE.norm>
-1.96628

>  <RMSD>
0.428

$$$$
ligand
 OpenBabel11021811423D
libRbt.so/2013.1/901 2013/11/27
 10 11  0  0  0  0  0  0  0  0999 V2000
   53.4596  -13.2195    8.8938 N   0  0  0  0  0  0  0  0  0  0  0  0
   53.7112  -14.5265    9.2000 C   0  0  0  0  0  0  0  0  0  0  0  0
   54.0454  -15.4346    8.2464 N   0  0  0  0  0  0  0  0  0  0  0  0
   54.1044  -14.8957    6.9945 C   0  0  0  0  0  0  0  0  0  0  0  0
   53.8636  -13.5906    6.6344 C   0  0  0  0  0  0  0  0  0  0  0  0
   53.5122  -12.6519    7.6086 C   0  0  0  0  0  0  0  0  0  0  0  0
   53.2611  -11.4712    7.4869 O   0  0  0  0  0  0  0  0  0  0  0  0
   54.0328  -13.4728    5.2812 N   0  0  0  0  0  0  0  0  0  0  0  0
   54.3680  -14.6766    4.8290 C   0  0  0  0  0  0  0  0  0  0  0  0
   54.4234  -15.5973    5.8587 N   0  0  0  0  0  0  0  0  0  0  0  0
  1  2  1  0  0  0  0
  1  6  1  0  0  0  0
  2  3  2  0  0  0  0
  3  4  1  0  0  0  0
  4  5  2  0  0  0  0
  4 10  1  0  0  0  0
  5  6  1  0  0  0  0
  5  8  1  0  0  0  0
  6  7  2  0  0  0  0
  8  9  1  0  0  0  0
  9 10  2  0  0  0  0
M  END
>  <CHROM.1>
53.86632407,-13.90755522,7.11291870,-2.77852969,1.31019481,-1.00554414

>  <Name>
ligand

>  <RI>
0

>  <Rbt.Current_Directory>
/home/itssahil/PROJECTS/Mol_Feturizer/New_Systems/rnas/2EEV

>  <Rbt.Executable>
rbdock ($Id: //depot/dev/client3/rdock/2013.1/src/exe/rbdock.cxx#4 $)

>  <Rbt.Library>
libRbt.so (2013.1, Build901 2013/11/27)

>  <Rbt.Parameter_File>
/export/apps/rDock/src/rDock_2013.1_src/data/scripts/dock_solv.prm

>  <Rbt.Receptor>
prm/blind_docking_60.prm

>  <SCORE>
-19.6371

>  <SCORE.INTER>
-19.6371

>  <SCORE.INTER.CONST>
1

>  <SCORE.INTER.POLAR>
0

>  <SCORE.INTER.ROT>
0

>  <SCORE.INTER.SOLV>
4.1568

>  <SCORE.INTER.VDW>
-18.077

>  <SCORE.INTER.norm>
-1.96371

>  <SCORE.INTRA>
0

>  <SCORE.INTRA.DIHEDRAL>
0

>  <SCORE.INTRA.DIHEDRAL.0>
0

>  <SCORE.INTRA.POLAR>
0

>  <SCORE.INTRA.POLAR.0>
0

>  <SCORE.INTRA.REPUL>
0

>  <SCORE.INTRA.REPUL.0>
0

>  <SCORE.INTRA.SOLV>
0

>  <SCORE.INTRA.SOLV.lig_0>
-4.25352

>  <SCORE.INTRA.VDW>
0

>  <SCORE.INTRA.VDW.0>
0

>  <SCORE.INTRA.norm>
0

>  <SCORE.RESTR>
0

>  <SCORE.RESTR.CAVITY>
0

>  <SCORE.RESTR.norm>
0

>  <SCORE.SYSTEM>
0

>  <SCORE.SYSTEM.CONST>
0

>  <SCORE.SYSTEM.DIHEDRAL>
0

>  <SCORE.SYSTEM.SOLV>
0

>  <SCORE.SYSTEM.norm>
0

>  <SCORE.heavy>
10

>  <SCORE.norm>
-1.96371

>  <RMSD>
0.430

$$$$
ligand
 OpenBabel11021811423D
libRbt.so/2013.1/901 2013/11/27
 10 11  0  0  0  0  0  0  0  0999 V2000
   53.5262  -13.3056    8.8737 N   0  0  0  0  0  0  0  0  0  0  0  0
   53.7838  -14.6137    9.1698 C   0  0  0  0  0  0  0  0  0  0  0  0
   54.1052  -15.5167    8.2069 N   0  0  0  0  0  0  0  0  0  0  0  0
   54.1454  -14.9714    6.9570 C   0  0  0  0  0  0  0  0  0  0  0  0
   53.8978  -13.6649    6.6069 C   0  0  0  0  0  0  0  0  0  0  0  0
   53.5594  -12.7315    7.5909 C   0  0  0  0  0  0  0  0  0  0  0  0
   53.3051  -11.5505    7.4786 O   0  0  0  0  0  0  0  0  0  0  0  0
   54.0472  -13.5401    5.2521 N   0  0  0  0  0  0  0  0  0  0  0  0
   54.3774  -14.7412    4.7890 C   0  0  0  0  0  0  0  0  0  0  0  0
   54.4488  -15.6669    5.8132 N   0  0  0  0  0  0  0  0  0  0  0  0
  1  2  1  0  0  0  0
  1  6  1  0  0  0  0
  2  3  2  0  0  0  0
  3  4  1  0  0  0  0
  4  5  2  0  0  0  0
  4 10  1  0  0  0  0
  5  6  1  0  0  0  0
  5  8  1  0  0  0  0
  6  7  2  0  0  0  0
  8  9  1  0  0  0  0
  9 10  2  0  0  0  0
M  END
>  <CHROM.1>
53.90785863,-13.98421555,7.08378712,-2.72723378,1.31658949,-1.05016315

>  <Name>
ligand

>  <RI>
0

>  <Rbt.Current_Directory>
/home/itssahil/PROJECTS/Mol_Feturizer/New_Systems/rnas/2EEV

>  <Rbt.Executable>
rbdock ($Id: //depot/dev/client3/rdock/2013.1/src/exe/rbdock.cxx#4 $)

>  <Rbt.Library>
libRbt.so (2013.1, Build901 2013/11/27)

>  <Rbt.Parameter_File>
/export/apps/rDock/src/rDock_2013.1_src/data/scripts/dock_solv.prm

>  <Rbt.Receptor>
prm/pocket_docking_5.prm

>  <SCORE>
-19.6951

>  <SCORE.INTER>
-19.6951

>  <SCORE.INTER.CONST>
1

>  <SCORE.INTER.POLAR>
0

>  <SCORE.INTER.ROT>
0

>  <SCORE.INTER.SOLV>
4.15564

>  <SCORE.INTER.VDW>
-18.1153

>  <SCORE.INTER.norm>
-1.96951

>  <SCORE.INTRA>
0

>  <SCORE.INTRA.DIHEDRAL>
0

>  <SCORE.INTRA.DIHEDRAL.0>
0

>  <SCORE.INTRA.POLAR>
0

>  <SCORE.INTRA.POLAR.0>
0

>  <SCORE.INTRA.REPUL>
0

>  <SCORE.INTRA.REPUL.0>
0

>  <SCORE.INTRA.SOLV>
0

>  <SCORE.INTRA.SOLV.lig_0>
-4.25352

>  <SCORE.INTRA.VDW>
0

>  <SCORE.INTRA.VDW.0>
0

>  <SCORE.INTRA.norm>
0

>  <SCORE.RESTR>
0

>  <SCORE.RESTR.CAVITY>
0

>  <SCORE.RESTR.norm>
0

>  <SCORE.SYSTEM>
0

>  <SCORE.SYSTEM.CONST>
0

>  <SCORE.SYSTEM.DIHEDRAL>
0

>  <SCORE.SYSTEM.SOLV>
0

>  <SCORE.SYSTEM.norm>
0

>  <SCORE.heavy>
10

>  <SCORE.norm>
-1.96951

>  <RMSD>
0.430

$$$$
ligand
 OpenBabel11021811423D
libRbt.so/2013.1/901 2013/11/27
 10 11  0  0  0  0  0  0  0  0999 V2000
   53.5545  -13.2667    8.8770 N   0  0  0  0  0  0  0  0  0  0  0  0
   53.7983  -14.5759    9.1798 C   0  0  0  0  0  0  0  0  0  0  0  0
   54.0975  -15.4899    8.2202 N   0  0  0  0  0  0  0  0  0  0  0  0
   54.1312  -14.9542    6.9659 C   0  0  0  0  0  0  0  0  0  0  0  0
   53.8969  -13.6471    6.6090 C   0  0  0  0  0  0  0  0  0  0  0  0
   53.5813  -12.7024    7.5896 C   0  0  0  0  0  0  0  0  0  0  0  0
   53.3411  -11.5190    7.4715 O   0  0  0  0  0  0  0  0  0  0  0  0
   54.0331  -13.5340    5.2517 N   0  0  0  0  0  0  0  0  0  0  0  0
   54.3426  -14.7426    4.7940 C   0  0  0  0  0  0  0  0  0  0  0  0
   54.4131  -15.6618    5.8240 N   0  0  0  0  0  0  0  0  0  0  0  0
  1  2  1  0  0  0  0
  1  6  1  0  0  0  0
  2  3  2  0  0  0  0
  3  4  1  0  0  0  0
  4  5  2  0  0  0  0
  4 10  1  0  0  0  0
  5  6  1  0  0  0  0
  5  8  1  0  0  0  0
  6  7  2  0  0  0  0
  8  9  1  0  0  0  0
  9 10  2  0  0  0  0
M  END
>  <CHROM.1>
53.90790357,-13.96309147,7.08803220,-2.71466009,1.33324658,-1.06960555

>  <Name>
ligand

>  <RI>
0

>  <Rbt.Current_Directory>
/home/itssahil/PROJECTS/Mol_Feturizer/New_Systems/rnas/2EEV

>  <Rbt.Executable>
rbdock ($Id: //depot/dev/client3/rdock/2013.1/src/exe/rbdock.cxx#4 $)

>  <Rbt.Library>
libRbt.so (2013.1, Build901 2013/11/27)

>  <Rbt.Parameter_File>
/export/apps/rDock/src/rDock_2013.1_src/data/scripts/dock_solv.prm

>  <Rbt.Receptor>
prm/pocket_docking_3.prm

>  <SCORE>
-19.6809

>  <SCORE.INTER>
-19.6809

>  <SCORE.INTER.CONST>
1

>  <SCORE.INTER.POLAR>
0

>  <SCORE.INTER.ROT>
0

>  <SCORE.INTER.SOLV>
4.20084

>  <SCORE.INTER.VDW>
-18.1208

>  <SCORE.INTER.norm>
-1.96809

>  <SCORE.INTRA>
0

>  <SCORE.INTRA.DIHEDRAL>
0

>  <SCORE.INTRA.DIHEDRAL.0>
0

>  <SCORE.INTRA.POLAR>
0

>  <SCORE.INTRA.POLAR.0>
0

>  <SCORE.INTRA.REPUL>
0

>  <SCORE.INTRA.REPUL.0>
0

>  <SCORE.INTRA.SOLV>
0

>  <SCORE.INTRA.SOLV.lig_0>
-4.25352

>  <SCORE.INTRA.VDW>
0

>  <SCORE.INTRA.VDW.0>
0

>  <SCORE.INTRA.norm>
0

>  <SCORE.RESTR>
0

>  <SCORE.RESTR.CAVITY>
0

>  <SCORE.RESTR.norm>
0

>  <SCORE.SYSTEM>
0

>  <SCORE.SYSTEM.CONST>
0

>  <SCORE.SYSTEM.DIHEDRAL>
0

>  <SCORE.SYSTEM.SOLV>
0

>  <SCORE.SYSTEM.norm>
0

>  <SCORE.heavy>
10

>  <SCORE.norm>
-1.96809

>  <RMSD>
0.440

$$$$
ligand
 OpenBabel11021811423D
libRbt.so/2013.1/901 2013/11/27
 10 11  0  0  0  0  0  0  0  0999 V2000
   53.5589  -13.2844    8.8633 N   0  0  0  0  0  0  0  0  0  0  0  0
   53.8140  -14.5909    9.1685 C   0  0  0  0  0  0  0  0  0  0  0  0
   54.1196  -15.5044    8.2105 N   0  0  0  0  0  0  0  0  0  0  0  0
   54.1471  -14.9711    6.9550 C   0  0  0  0  0  0  0  0  0  0  0  0
   53.9013  -13.6668    6.5957 C   0  0  0  0  0  0  0  0  0  0  0  0
   53.5792  -12.7226    7.5747 C   0  0  0  0  0  0  0  0  0  0  0  0
   53.3290  -11.5415    7.4544 O   0  0  0  0  0  0  0  0  0  0  0  0
   54.0348  -13.5554    5.2380 N   0  0  0  0  0  0  0  0  0  0  0  0
   54.3538  -14.7623    4.7823 C   0  0  0  0  0  0  0  0  0  0  0  0
   54.4334  -15.6787    5.8142 N   0  0  0  0  0  0  0  0  0  0  0  0
  1  2  1  0  0  0  0
  1  6  1  0  0  0  0
  2  3  2  0  0  0  0
  3  4  1  0  0  0  0
  4  5  2  0  0  0  0
  4 10  1  0  0  0  0
  5  6  1  0  0  0  0
  5  8  1  0  0  0  0
  6  7  2  0  0  0  0
  8  9  1  0  0  0  0
  9 10  2  0  0  0  0
M  END
>  <CHROM.1>
53.91568763,-13.98160602,7.07534379,-2.69317909,1.32650348,-1.09258561

>  <Name>
ligand

>  <RI>
0

>  <Rbt.Current_Directory>
/home/itssahil/PROJECTS/Mol_Feturizer/New_Systems/rnas/2EEV

>  <Rbt.Executable>
rbdock ($Id: //depot/dev/client3/rdock/2013.1/src/exe/rbdock.cxx#4 $)

>  <Rbt.Library>
libRbt.so (2013.1, Build901 2013/11/27)

>  <Rbt.Parameter_File>
/export/apps/rDock/src/rDock_2013.1_src/data/scripts/dock_solv.prm

>  <Rbt.Receptor>
prm/pocket_docking_6.prm

>  <SCORE>
-19.6908

>  <SCORE.INTER>
-19.6908

>  <SCORE.INTER.CONST>
1

>  <SCORE.INTER.POLAR>
0

>  <SCORE.INTER.ROT>
0

>  <SCORE.INTER.SOLV>
4.17945

>  <SCORE.INTER.VDW>
-18.1204

>  <SCORE.INTER.norm>
-1.96908

>  <SCORE.INTRA>
0

>  <SCORE.INTRA.DIHEDRAL>
0

>  <SCORE.INTRA.DIHEDRAL.0>
0

>  <SCORE.INTRA.POLAR>
0

>  <SCORE.INTRA.POLAR.0>
0

>  <SCORE.INTRA.REPUL>
0

>  <SCORE.INTRA.REPUL.0>
0

>  <SCORE.INTRA.SOLV>
0

>  <SCORE.INTRA.SOLV.lig_0>
-4.25352

>  <SCORE.INTRA.VDW>
0

>  <SCORE.INTRA.VDW.0>
0

>  <SCORE.INTRA.norm>
0

>  <SCORE.RESTR>
0

>  <SCORE.RESTR.CAVITY>
0

>  <SCORE.RESTR.norm>
0

>  <SCORE.SYSTEM>
0

>  <SCORE.SYSTEM.CONST>
0

>  <SCORE.SYSTEM.DIHEDRAL>
0

>  <SCORE.SYSTEM.SOLV>
0

>  <SCORE.SYSTEM.norm>
0

>  <SCORE.heavy>
10

>  <SCORE.norm>
-1.96908

>  <RMSD>
0.445

$$$$
ligand
 OpenBabel11021811423D
libRbt.so/2013.1/901 2013/11/27
 10 11  0  0  0  0  0  0  0  0999 V2000
   53.5412  -13.2770    8.8544 N   0  0  0  0  0  0  0  0  0  0  0  0
   53.7967  -14.5813    9.1688 C   0  0  0  0  0  0  0  0  0  0  0  0
   54.1095  -15.4999    8.2179 N   0  0  0  0  0  0  0  0  0  0  0  0
   54.1438  -14.9738    6.9596 C   0  0  0  0  0  0  0  0  0  0  0  0
   53.8980  -13.6720    6.5912 C   0  0  0  0  0  0  0  0  0  0  0  0
   53.5684  -12.7227    7.5628 C   0  0  0  0  0  0  0  0  0  0  0  0
   53.3171  -11.5428    7.4341 O   0  0  0  0  0  0  0  0  0  0  0  0
   54.0395  -13.5683    5.2337 N   0  0  0  0  0  0  0  0  0  0  0  0
   54.3632  -14.7774    4.7870 C   0  0  0  0  0  0  0  0  0  0  0  0
   54.4381  -15.6876    5.8247 N   0  0  0  0  0  0  0  0  0  0  0  0
  1  2  1  0  0  0  0
  1  6  1  0  0  0  0
  2  3  2  0  0  0  0
  3  4  1  0  0  0  0
  4  5  2  0  0  0  0
  4 10  1  0  0  0  0
  5  6  1  0  0  0  0
  5  8  1  0  0  0  0
  6  7  2  0  0  0  0
  8  9  1  0  0  0  0
  9 10  2  0  0  0  0
M  END
>  <CHROM.1>
53.90997154,-13.98405246,7.07276082,-2.71193210,1.32223763,-1.08021140

>  <Name>
ligand

>  <RI>
0

>  <Rbt.Current_Directory>
/home/itssahil/PROJECTS/Mol_Feturizer/New_Systems/rnas/2EEV

>  <Rbt.Executable>
rbdock ($Id: //depot/dev/client3/rdock/2013.1/src/exe/rbdock.cxx#4 $)

>  <Rbt.Library>
libRbt.so (2013.1, Build901 2013/11/27)

>  <Rbt.Parameter_File>
/export/apps/rDock/src/rDock_2013.1_src/data/scripts/dock_solv.prm

>  <Rbt.Receptor>
prm/blind_docking_80.prm

>  <SCORE>
-19.6835

>  <SCORE.INTER>
-19.6835

>  <SCORE.INTER.CONST>
1

>  <SCORE.INTER.POLAR>
0

>  <SCORE.INTER.ROT>
0

>  <SCORE.INTER.SOLV>
4.17822

>  <SCORE.INTER.VDW>
-18.1151

>  <SCORE.INTER.norm>
-1.96835

>  <SCORE.INTRA>
0

>  <SCORE.INTRA.DIHEDRAL>
0

>  <SCORE.INTRA.DIHEDRAL.0>
0

>  <SCORE.INTRA.POLAR>
0

>  <SCORE.INTRA.POLAR.0>
0

>  <SCORE.INTRA.REPUL>
0

>  <SCORE.INTRA.REPUL.0>
0

>  <SCORE.INTRA.SOLV>
0

>  <SCORE.INTRA.SOLV.lig_0>
-4.25352

>  <SCORE.INTRA.VDW>
0

>  <SCORE.INTRA.VDW.0>
0

>  <SCORE.INTRA.norm>
0

>  <SCORE.RESTR>
0

>  <SCORE.RESTR.CAVITY>
0

>  <SCORE.RESTR.norm>
0

>  <SCORE.SYSTEM>
0

>  <SCORE.SYSTEM.CONST>
0

>  <SCORE.SYSTEM.DIHEDRAL>
0

>  <SCORE.SYSTEM.SOLV>
0

>  <SCORE.SYSTEM.norm>
0

>  <SCORE.heavy>
10

>  <SCORE.norm>
-1.96835

>  <RMSD>
0.450

$$$$
ligand
 OpenBabel11021811423D
libRbt.so/2013.1/901 2013/11/27
 10 11  0  0  0  0  0  0  0  0999 V2000
   53.5942  -13.2798    8.8652 N   0  0  0  0  0  0  0  0  0  0  0  0
   53.8326  -14.5902    9.1669 C   0  0  0  0  0  0  0  0  0  0  0  0
   54.1225  -15.5058    8.2060 N   0  0  0  0  0  0  0  0  0  0  0  0
   54.1531  -14.9703    6.9516 C   0  0  0  0  0  0  0  0  0  0  0  0
   53.9238  -13.6621    6.5957 C   0  0  0  0  0  0  0  0  0  0  0  0
   53.6178  -12.7156    7.5778 C   0  0  0  0  0  0  0  0  0  0  0  0
   53.3832  -11.5310    7.4607 O   0  0  0  0  0  0  0  0  0  0  0  0
   54.0542  -13.5497    5.2378 N   0  0  0  0  0  0  0  0  0  0  0  0
   54.3552  -14.7599    4.7786 C   0  0  0  0  0  0  0  0  0  0  0  0
   54.4258  -15.6794    5.8084 N   0  0  0  0  0  0  0  0  0  0  0  0
  1  2  1  0  0  0  0
  1  6  1  0  0  0  0
  2  3  2  0  0  0  0
  3  4  1  0  0  0  0
  4  5  2  0  0  0  0
  4 10  1  0  0  0  0
  5  6  1  0  0  0  0
  5  8  1  0  0  0  0
  6  7  2  0  0  0  0
  8  9  1  0  0  0  0
  9 10  2  0  0  0  0
M  END
>  <CHROM.1>
53.93544982,-13.97806104,7.07468374,-2.70743011,1.34007226,-1.07668923

>  <Name>
ligand

>  <RI>
0

>  <Rbt.Current_Directory>
/home/itssahil/PROJECTS/Mol_Feturizer/New_Systems/rnas/2EEV

>  <Rbt.Executable>
rbdock ($Id: //depot/dev/client3/rdock/2013.1/src/exe/rbdock.cxx#4 $)

>  <Rbt.Library>
libRbt.so (2013.1, Build901 2013/11/27)

>  <Rbt.Parameter_File>
/export/apps/rDock/src/rDock_2013.1_src/data/scripts/dock_solv.prm

>  <Rbt.Receptor>
prm/pocket_docking_7.prm

>  <SCORE>
-19.687

>  <SCORE.INTER>
-19.687

>  <SCORE.INTER.CONST>
1

>  <SCORE.INTER.POLAR>
0

>  <SCORE.INTER.ROT>
0

>  <SCORE.INTER.SOLV>
4.21927

>  <SCORE.INTER.VDW>
-18.1311

>  <SCORE.INTER.norm>
-1.9687

>  <SCORE.INTRA>
0

>  <SCORE.INTRA.DIHEDRAL>
0

>  <SCORE.INTRA.DIHEDRAL.0>
0

>  <SCORE.INTRA.POLAR>
0

>  <SCORE.INTRA.POLAR.0>
0

>  <SCORE.INTRA.REPUL>
0

>  <SCORE.INTRA.REPUL.0>
0

>  <SCORE.INTRA.SOLV>
0

>  <SCORE.INTRA.SOLV.lig_0>
-4.25352

>  <SCORE.INTRA.VDW>
0

>  <SCORE.INTRA.VDW.0>
0

>  <SCORE.INTRA.norm>
0

>  <SCORE.RESTR>
0

>  <SCORE.RESTR.CAVITY>
0

>  <SCORE.RESTR.norm>
0

>  <SCORE.SYSTEM>
0

>  <SCORE.SYSTEM.CONST>
0

>  <SCORE.SYSTEM.DIHEDRAL>
0

>  <SCORE.SYSTEM.SOLV>
0

>  <SCORE.SYSTEM.norm>
0

>  <SCORE.heavy>
10

>  <SCORE.norm>
-1.9687

>  <RMSD>
0.451

$$$$
ligand
 OpenBabel11021811423D
libRbt.so/2013.1/901 2013/11/27
 10 11  0  0  0  0  0  0  0  0999 V2000
   53.5940  -13.2746    8.8645 N   0  0  0  0  0  0  0  0  0  0  0  0
   53.8267  -14.5863    9.1655 C   0  0  0  0  0  0  0  0  0  0  0  0
   54.1160  -15.5019    8.2044 N   0  0  0  0  0  0  0  0  0  0  0  0
   54.1523  -14.9652    6.9507 C   0  0  0  0  0  0  0  0  0  0  0  0
   53.9290  -13.6556    6.5956 C   0  0  0  0  0  0  0  0  0  0  0  0
   53.6236  -12.7092    7.5777 C   0  0  0  0  0  0  0  0  0  0  0  0
   53.3938  -11.5235    7.4613 O   0  0  0  0  0  0  0  0  0  0  0  0
   54.0639  -13.5423    5.2382 N   0  0  0  0  0  0  0  0  0  0  0  0
   54.3617  -14.7531    4.7786 C   0  0  0  0  0  0  0  0  0  0  0  0
   54.4259  -15.6740    5.8075 N   0  0  0  0  0  0  0  0  0  0  0  0
  1  2  1  0  0  0  0
  1  6  1  0  0  0  0
  2  3  2  0  0  0  0
  3  4  1  0  0  0  0
  4  5  2  0  0  0  0
  4 10  1  0  0  0  0
  5  6  1  0  0  0  0
  5  8  1  0  0  0  0
  6  7  2  0  0  0  0
  8  9  1  0  0  0  0
  9 10  2  0  0  0  0
M  END
>  <CHROM.1>
53.93805820,-13.97221108,7.07423324,-2.72680056,1.34190981,-1.05673268

>  <Name>
ligand

>  <RI>
0

>  <Rbt.Current_Directory>
/home/itssahil/PROJECTS/Mol_Feturizer/New_Systems/rnas/2EEV

>  <Rbt.Executable>
rbdock ($Id: //depot/dev/client3/rdock/2013.1/src/exe/rbdock.cxx#4 $)

>  <Rbt.Library>
libRbt.so (2013.1, Build901 2013/11/27)

>  <Rbt.Parameter_File>
/export/apps/rDock/src/rDock_2013.1_src/data/scripts/dock_solv.prm

>  <Rbt.Receptor>
prm/pocket_docking_6.prm

>  <SCORE>
-19.6839

>  <SCORE.INTER>
-19.6839

>  <SCORE.INTER.CONST>
1

>  <SCORE.INTER.POLAR>
0

>  <SCORE.INTER.ROT>
0

>  <SCORE.INTER.SOLV>
4.22863

>  <SCORE.INTER.VDW>
-18.1321

>  <SCORE.INTER.norm>
-1.96839

>  <SCORE.INTRA>
0

>  <SCORE.INTRA.DIHEDRAL>
0

>  <SCORE.INTRA.DIHEDRAL.0>
0

>  <SCORE.INTRA.POLAR>
0

>  <SCORE.INTRA.POLAR.0>
0

>  <SCORE.INTRA.REPUL>
0

>  <SCORE.INTRA.REPUL.0>
0

>  <SCORE.INTRA.SOLV>
0

>  <SCORE.INTRA.SOLV.lig_0>
-4.25352

>  <SCORE.INTRA.VDW>
0

>  <SCORE.INTRA.VDW.0>
0

>  <SCORE.INTRA.norm>
0

>  <SCORE.RESTR>
0

>  <SCORE.RESTR.CAVITY>
0

>  <SCORE.RESTR.norm>
0

>  <SCORE.SYSTEM>
0

>  <SCORE.SYSTEM.CONST>
0

>  <SCORE.SYSTEM.DIHEDRAL>
0

>  <SCORE.SYSTEM.SOLV>
0

>  <SCORE.SYSTEM.norm>
0

>  <SCORE.heavy>
10

>  <SCORE.norm>
-1.96839

>  <RMSD>
0.453

$$$$
ligand
 OpenBabel11021811423D
libRbt.so/2013.1/901 2013/11/27
 10 11  0  0  0  0  0  0  0  0999 V2000
   53.5464  -13.2824    8.8538 N   0  0  0  0  0  0  0  0  0  0  0  0
   53.7921  -14.5923    9.1521 C   0  0  0  0  0  0  0  0  0  0  0  0
   54.0987  -15.5013    8.1902 N   0  0  0  0  0  0  0  0  0  0  0  0
   54.1375  -14.9601    6.9385 C   0  0  0  0  0  0  0  0  0  0  0  0
   53.9016  -13.6520    6.5860 C   0  0  0  0  0  0  0  0  0  0  0  0
   53.5784  -12.7124    7.5691 C   0  0  0  0  0  0  0  0  0  0  0  0
   53.3358  -11.5292    7.4549 O   0  0  0  0  0  0  0  0  0  0  0  0
   54.0447  -13.5327    5.2300 N   0  0  0  0  0  0  0  0  0  0  0  0
   54.3597  -14.7384    4.7686 C   0  0  0  0  0  0  0  0  0  0  0  0
   54.4273  -15.6619    5.7950 N   0  0  0  0  0  0  0  0  0  0  0  0
  1  2  1  0  0  0  0
  1  6  1  0  0  0  0
  2  3  2  0  0  0  0
  3  4  1  0  0  0  0
  4  5  2  0  0  0  0
  4 10  1  0  0  0  0
  5  6  1  0  0  0  0
  5  8  1  0  0  0  0
  6  7  2  0  0  0  0
  8  9  1  0  0  0  0
  9 10  2  0  0  0  0
M  END
>  <CHROM.1>
53.91096766,-13.97007931,7.06371620,-2.72852092,1.32840459,-1.05177148

>  <Name>
ligand

>  <RI>
0

>  <Rbt.Current_Directory>
/home/itssahil/PROJECTS/Mol_Feturizer/New_Systems/rnas/2EEV

>  <Rbt.Executable>
rbdock ($Id: //depot/dev/client3/rdock/2013.1/src/exe/rbdock.cxx#4 $)

>  <Rbt.Library>
libRbt.so (2013.1, Build901 2013/11/27)

>  <Rbt.Parameter_File>
/export/apps/rDock/src/rDock_2013.1_src/data/scripts/dock_solv.prm

>  <Rbt.Receptor>
prm/blind_docking_80.prm

>  <SCORE>
-19.6728

>  <SCORE.INTER>
-19.6728

>  <SCORE.INTER.CONST>
1

>  <SCORE.INTER.POLAR>
0

>  <SCORE.INTER.ROT>
0

>  <SCORE.INTER.SOLV>
4.19578

>  <SCORE.INTER.VDW>
-18.1138

>  <SCORE.INTER.norm>
-1.96728

>  <SCORE.INTRA>
0

>  <SCORE.INTRA.DIHEDRAL>
0

>  <SCORE.INTRA.DIHEDRAL.0>
0

>  <SCORE.INTRA.POLAR>
0

>  <SCORE.INTRA.POLAR.0>
0

>  <SCORE.INTRA.REPUL>
0

>  <SCORE.INTRA.REPUL.0>
0

>  <SCORE.INTRA.SOLV>
0

>  <SCORE.INTRA.SOLV.lig_0>
-4.25352

>  <SCORE.INTRA.VDW>
0

>  <SCORE.INTRA.VDW.0>
0

>  <SCORE.INTRA.norm>
0

>  <SCORE.RESTR>
0

>  <SCORE.RESTR.CAVITY>
0

>  <SCORE.RESTR.norm>
0

>  <SCORE.SYSTEM>
0

>  <SCORE.SYSTEM.CONST>
0

>  <SCORE.SYSTEM.DIHEDRAL>
0

>  <SCORE.SYSTEM.SOLV>
0

>  <SCORE.SYSTEM.norm>
0

>  <SCORE.heavy>
10

>  <SCORE.norm>
-1.96728

>  <RMSD>
0.455

$$$$
ligand
 OpenBabel11021811423D
libRbt.so/2013.1/901 2013/11/27
 10 11  0  0  0  0  0  0  0  0999 V2000
   53.5926  -13.3129    8.8559 N   0  0  0  0  0  0  0  0  0  0  0  0
   53.8067  -14.6315    9.1398 C   0  0  0  0  0  0  0  0  0  0  0  0
   54.0776  -15.5396    8.1663 N   0  0  0  0  0  0  0  0  0  0  0  0
   54.1161  -14.9883    6.9190 C   0  0  0  0  0  0  0  0  0  0  0  0
   53.9110  -13.6713    6.5808 C   0  0  0  0  0  0  0  0  0  0  0  0
   53.6247  -12.7324    7.5759 C   0  0  0  0  0  0  0  0  0  0  0  0
   53.4124  -11.5421    7.4749 O   0  0  0  0  0  0  0  0  0  0  0  0
   54.0412  -13.5436    5.2243 N   0  0  0  0  0  0  0  0  0  0  0  0
   54.3184  -14.7531    4.7486 C   0  0  0  0  0  0  0  0  0  0  0  0
   54.3734  -15.6873    5.7660 N   0  0  0  0  0  0  0  0  0  0  0  0
  1  2  1  0  0  0  0
  1  6  1  0  0  0  0
  2  3  2  0  0  0  0
  3  4  1  0  0  0  0
  4  5  2  0  0  0  0
  4 10  1  0  0  0  0
  5  6  1  0  0  0  0
  5  8  1  0  0  0  0
  6  7  2  0  0  0  0
  8  9  1  0  0  0  0
  9 10  2  0  0  0  0
M  END
>  <CHROM.1>
53.91752906,-13.99380781,7.05559958,-2.74257958,1.35743952,-1.02920909

>  <Name>
ligand

>  <RI>
0

>  <Rbt.Current_Directory>
/home/itssahil/PROJECTS/Mol_Feturizer/New_Systems/rnas/2EEV

>  <Rbt.Executable>
rbdock ($Id: //depot/dev/client3/rdock/2013.1/src/exe/rbdock.cxx#4 $)

>  <Rbt.Library>
libRbt.so (2013.1, Build901 2013/11/27)

>  <Rbt.Parameter_File>
/export/apps/rDock/src/rDock_2013.1_src/data/scripts/dock_solv.prm

>  <Rbt.Receptor>
prm/blind_docking_100.prm

>  <SCORE>
-19.6366

>  <SCORE.INTER>
-19.6366

>  <SCORE.INTER.CONST>
1

>  <SCORE.INTER.POLAR>
0

>  <SCORE.INTER.ROT>
0

>  <SCORE.INTER.SOLV>
4.28501

>  <SCORE.INTER.VDW>
-18.1194

>  <SCORE.INTER.norm>
-1.96366

>  <SCORE.INTRA>
0

>  <SCORE.INTRA.DIHEDRAL>
0

>  <SCORE.INTRA.DIHEDRAL.0>
0

>  <SCORE.INTRA.POLAR>
0

>  <SCORE.INTRA.POLAR.0>
0

>  <SCORE.INTRA.REPUL>
0

>  <SCORE.INTRA.REPUL.0>
0

>  <SCORE.INTRA.SOLV>
0

>  <SCORE.INTRA.SOLV.lig_0>
-4.25352

>  <SCORE.INTRA.VDW>
0

>  <SCORE.INTRA.VDW.0>
0

>  <SCORE.INTRA.norm>
0

>  <SCORE.RESTR>
0

>  <SCORE.RESTR.CAVITY>
0

>  <SCORE.RESTR.norm>
0

>  <SCORE.SYSTEM>
0

>  <SCORE.SYSTEM.CONST>
0

>  <SCORE.SYSTEM.DIHEDRAL>
0

>  <SCORE.SYSTEM.SOLV>
0

>  <SCORE.SYSTEM.norm>
0

>  <SCORE.heavy>
10

>  <SCORE.norm>
-1.96366

>  <RMSD>
0.469

$$$$
ligand
 OpenBabel11021811423D
libRbt.so/2013.1/901 2013/11/27
 10 11  0  0  0  0  0  0  0  0999 V2000
   53.5388  -13.2799    8.8489 N   0  0  0  0  0  0  0  0  0  0  0  0
   53.7526  -14.5972    9.1393 C   0  0  0  0  0  0  0  0  0  0  0  0
   54.0498  -15.5051    8.1733 N   0  0  0  0  0  0  0  0  0  0  0  0
   54.1141  -14.9550    6.9265 C   0  0  0  0  0  0  0  0  0  0  0  0
   53.9106  -13.6394    6.5821 C   0  0  0  0  0  0  0  0  0  0  0  0
   53.5973  -12.7007    7.5692 C   0  0  0  0  0  0  0  0  0  0  0  0
   53.3818  -11.5116    7.4620 O   0  0  0  0  0  0  0  0  0  0  0  0
   54.0710  -13.5126    5.2287 N   0  0  0  0  0  0  0  0  0  0  0  0
   54.3647  -14.7213    4.7610 C   0  0  0  0  0  0  0  0  0  0  0  0
   54.4009  -15.6541    5.7806 N   0  0  0  0  0  0  0  0  0  0  0  0
  1  2  1  0  0  0  0
  1  6  1  0  0  0  0
  2  3  2  0  0  0  0
  3  4  1  0  0  0  0
  4  5  2  0  0  0  0
  4 10  1  0  0  0  0
  5  6  1  0  0  0  0
  5  8  1  0  0  0  0
  6  7  2  0  0  0  0
  8  9  1  0  0  0  0
  9 10  2  0  0  0  0
M  END
>  <CHROM.1>
53.90783332,-13.96134495,7.05731562,-2.81776453,1.34104330,-0.95704645

>  <Name>
ligand

>  <RI>
0

>  <Rbt.Current_Directory>
/home/itssahil/PROJECTS/Mol_Feturizer/New_Systems/rnas/2EEV

>  <Rbt.Executable>
rbdock ($Id: //depot/dev/client3/rdock/2013.1/src/exe/rbdock.cxx#4 $)

>  <Rbt.Library>
libRbt.so (2013.1, Build901 2013/11/27)

>  <Rbt.Parameter_File>
/export/apps/rDock/src/rDock_2013.1_src/data/scripts/dock_solv.prm

>  <Rbt.Receptor>
prm/pocket_docking_8.prm

>  <SCORE>
-19.6354

>  <SCORE.INTER>
-19.6354

>  <SCORE.INTER.CONST>
1

>  <SCORE.INTER.POLAR>
0

>  <SCORE.INTER.ROT>
0

>  <SCORE.INTER.SOLV>
4.26155

>  <SCORE.INTER.VDW>
-18.1108

>  <SCORE.INTER.norm>
-1.96354

>  <SCORE.INTRA>
0

>  <SCORE.INTRA.DIHEDRAL>
0

>  <SCORE.INTRA.DIHEDRAL.0>
0

>  <SCORE.INTRA.POLAR>
0

>  <SCORE.INTRA.POLAR.0>
0

>  <SCORE.INTRA.REPUL>
0

>  <SCORE.INTRA.REPUL.0>
0

>  <SCORE.INTRA.SOLV>
0

>  <SCORE.INTRA.SOLV.lig_0>
-4.25352

>  <SCORE.INTRA.VDW>
0

>  <SCORE.INTRA.VDW.0>
0

>  <SCORE.INTRA.norm>
0

>  <SCORE.RESTR>
0

>  <SCORE.RESTR.CAVITY>
0

>  <SCORE.RESTR.norm>
0

>  <SCORE.SYSTEM>
0

>  <SCORE.SYSTEM.CONST>
0

>  <SCORE.SYSTEM.DIHEDRAL>
0

>  <SCORE.SYSTEM.SOLV>
0

>  <SCORE.SYSTEM.norm>
0

>  <SCORE.heavy>
10

>  <SCORE.norm>
-1.96354

>  <RMSD>
0.469

$$$$
ligand
 OpenBabel11021811423D
libRbt.so/2013.1/901 2013/11/27
 10 11  0  0  0  0  0  0  0  0999 V2000
   53.4484  -13.1727    8.8384 N   0  0  0  0  0  0  0  0  0  0  0  0
   53.6830  -14.4747    9.1775 C   0  0  0  0  0  0  0  0  0  0  0  0
   54.0310  -15.4053    8.2509 N   0  0  0  0  0  0  0  0  0  0  0  0
   54.1218  -14.8934    6.9895 C   0  0  0  0  0  0  0  0  0  0  0  0
   53.8993  -13.5945    6.5969 C   0  0  0  0  0  0  0  0  0  0  0  0
   53.5338  -12.6328    7.5432 C   0  0  0  0  0  0  0  0  0  0  0  0
   53.2947  -11.4531    7.3911 O   0  0  0  0  0  0  0  0  0  0  0  0
   54.0991  -13.5065    5.2456 N   0  0  0  0  0  0  0  0  0  0  0  0
   54.4349  -14.7220    4.8263 C   0  0  0  0  0  0  0  0  0  0  0  0
   54.4603  -15.6211    5.8760 N   0  0  0  0  0  0  0  0  0  0  0  0
  1  2  1  0  0  0  0
  1  6  1  0  0  0  0
  2  3  2  0  0  0  0
  3  4  1  0  0  0  0
  4  5  2  0  0  0  0
  4 10  1  0  0  0  0
  5  6  1  0  0  0  0
  5  8  1  0  0  0  0
  6  7  2  0  0  0  0
  8  9  1  0  0  0  0
  9 10  2  0  0  0  0
M  END
>  <CHROM.1>
53.88892133,-13.90123794,7.08188473,-2.86523397,1.30402140,-0.94288754

>  <Name>
ligand

>  <RI>
0

>  <Rbt.Current_Directory>
/home/itssahil/PROJECTS/Mol_Feturizer/New_Systems/rnas/2EEV

>  <Rbt.Executable>
rbdock ($Id: //depot/dev/client3/rdock/2013.1/src/exe/rbdock.cxx#4 $)

>  <Rbt.Library>
libRbt.so (2013.1, Build901 2013/11/27)

>  <Rbt.Parameter_File>
/export/apps/rDock/src/rDock_2013.1_src/data/scripts/dock_solv.prm

>  <Rbt.Receptor>
prm/pocket_docking_6.prm

>  <SCORE>
-19.6334

>  <SCORE.INTER>
-19.6334

>  <SCORE.INTER.CONST>
1

>  <SCORE.INTER.POLAR>
0

>  <SCORE.INTER.ROT>
0

>  <SCORE.INTER.SOLV>
4.17406

>  <SCORE.INTER.VDW>
-18.0803

>  <SCORE.INTER.norm>
-1.96334

>  <SCORE.INTRA>
0

>  <SCORE.INTRA.DIHEDRAL>
0

>  <SCORE.INTRA.DIHEDRAL.0>
0

>  <SCORE.INTRA.POLAR>
0

>  <SCORE.INTRA.POLAR.0>
0

>  <SCORE.INTRA.REPUL>
0

>  <SCORE.INTRA.REPUL.0>
0

>  <SCORE.INTRA.SOLV>
0

>  <SCORE.INTRA.SOLV.lig_0>
-4.25352

>  <SCORE.INTRA.VDW>
0

>  <SCORE.INTRA.VDW.0>
0

>  <SCORE.INTRA.norm>
0

>  <SCORE.RESTR>
0

>  <SCORE.RESTR.CAVITY>
0

>  <SCORE.RESTR.norm>
0

>  <SCORE.SYSTEM>
0

>  <SCORE.SYSTEM.CONST>
0

>  <SCORE.SYSTEM.DIHEDRAL>
0

>  <SCORE.SYSTEM.SOLV>
0

>  <SCORE.SYSTEM.norm>
0

>  <SCORE.heavy>
10

>  <SCORE.norm>
-1.96334

>  <RMSD>
0.474

$$$$
ligand
 OpenBabel11021811423D
libRbt.so/2013.1/901 2013/11/27
 10 11  0  0  0  0  0  0  0  0999 V2000
   53.4533  -13.0987    8.8646 N   0  0  0  0  0  0  0  0  0  0  0  0
   53.7004  -14.3879    9.2417 C   0  0  0  0  0  0  0  0  0  0  0  0
   54.0340  -15.3473    8.3394 N   0  0  0  0  0  0  0  0  0  0  0  0
   54.0972  -14.8771    7.0603 C   0  0  0  0  0  0  0  0  0  0  0  0
   53.8610  -13.5927    6.6295 C   0  0  0  0  0  0  0  0  0  0  0  0
   53.5103  -12.6017    7.5507 C   0  0  0  0  0  0  0  0  0  0  0  0
   53.2629  -11.4286    7.3647 O   0  0  0  0  0  0  0  0  0  0  0  0
   54.0334  -13.5488    5.2724 N   0  0  0  0  0  0  0  0  0  0  0  0
   54.3661  -14.7763    4.8867 C   0  0  0  0  0  0  0  0  0  0  0  0
   54.4166  -15.6400    5.9648 N   0  0  0  0  0  0  0  0  0  0  0  0
  1  2  1  0  0  0  0
  1  6  1  0  0  0  0
  2  3  2  0  0  0  0
  3  4  1  0  0  0  0
  4  5  2  0  0  0  0
  4 10  1  0  0  0  0
  5  6  1  0  0  0  0
  5  8  1  0  0  0  0
  6  7  2  0  0  0  0
  8  9  1  0  0  0  0
  9 10  2  0  0  0  0
M  END
>  <CHROM.1>
53.86176889,-13.88331266,7.12451823,-2.79163326,1.31151547,-1.04703959

>  <Name>
ligand

>  <RI>
0

>  <Rbt.Current_Directory>
/home/itssahil/PROJECTS/Mol_Feturizer/New_Systems/rnas/2EEV

>  <Rbt.Executable>
rbdock ($Id: //depot/dev/client3/rdock/2013.1/src/exe/rbdock.cxx#4 $)

>  <Rbt.Library>
libRbt.so (2013.1, Build901 2013/11/27)

>  <Rbt.Parameter_File>
/export/apps/rDock/src/rDock_2013.1_src/data/scripts/dock_solv.prm

>  <Rbt.Receptor>
prm/pocket_docking_4.prm

>  <SCORE>
-19.6786

>  <SCORE.INTER>
-19.6786

>  <SCORE.INTER.CONST>
1

>  <SCORE.INTER.POLAR>
0

>  <SCORE.INTER.ROT>
0

>  <SCORE.INTER.SOLV>
4.16404

>  <SCORE.INTER.VDW>
-18.1071

>  <SCORE.INTER.norm>
-1.96786

>  <SCORE.INTRA>
0

>  <SCORE.INTRA.DIHEDRAL>
0

>  <SCORE.INTRA.DIHEDRAL.0>
0

>  <SCORE.INTRA.POLAR>
0

>  <SCORE.INTRA.POLAR.0>
0

>  <SCORE.INTRA.REPUL>
0

>  <SCORE.INTRA.REPUL.0>
0

>  <SCORE.INTRA.SOLV>
0

>  <SCORE.INTRA.SOLV.lig_0>
-4.25352

>  <SCORE.INTRA.VDW>
0

>  <SCORE.INTRA.VDW.0>
0

>  <SCORE.INTRA.norm>
0

>  <SCORE.RESTR>
0

>  <SCORE.RESTR.CAVITY>
0

>  <SCORE.RESTR.norm>
0

>  <SCORE.SYSTEM>
0

>  <SCORE.SYSTEM.CONST>
0

>  <SCORE.SYSTEM.DIHEDRAL>
0

>  <SCORE.SYSTEM.SOLV>
0

>  <SCORE.SYSTEM.norm>
0

>  <SCORE.heavy>
10

>  <SCORE.norm>
-1.96786

>  <RMSD>
0.475

$$$$
ligand
 OpenBabel11021811423D
libRbt.so/2013.1/901 2013/11/27
 10 11  0  0  0  0  0  0  0  0999 V2000
   53.5701  -13.2673    8.8402 N   0  0  0  0  0  0  0  0  0  0  0  0
   53.7988  -14.5800    9.1397 C   0  0  0  0  0  0  0  0  0  0  0  0
   54.0890  -15.4946    8.1780 N   0  0  0  0  0  0  0  0  0  0  0  0
   54.1304  -14.9559    6.9253 C   0  0  0  0  0  0  0  0  0  0  0  0
   53.9112  -13.6453    6.5717 C   0  0  0  0  0  0  0  0  0  0  0  0
   53.6050  -12.6997    7.5545 C   0  0  0  0  0  0  0  0  0  0  0  0
   53.3783  -11.5134    7.4393 O   0  0  0  0  0  0  0  0  0  0  0  0
   54.0506  -13.5300    5.2149 N   0  0  0  0  0  0  0  0  0  0  0  0
   54.3471  -14.7408    4.7542 C   0  0  0  0  0  0  0  0  0  0  0  0
   54.4058  -15.6635    5.7818 N   0  0  0  0  0  0  0  0  0  0  0  0
  1  2  1  0  0  0  0
  1  6  1  0  0  0  0
  2  3  2  0  0  0  0
  3  4  1  0  0  0  0
  4  5  2  0  0  0  0
  4 10  1  0  0  0  0
  5  6  1  0  0  0  0
  5  8  1  0  0  0  0
  6  7  2  0  0  0  0
  8  9  1  0  0  0  0
  9 10  2  0  0  0  0
M  END
>  <CHROM.1>
53.91806795,-13.96268110,7.04984979,-2.74377775,1.34237493,-1.03852241

>  <Name>
ligand

>  <RI>
0

>  <Rbt.Current_Directory>
/home/itssahil/PROJECTS/Mol_Feturizer/New_Systems/rnas/2EEV

>  <Rbt.Executable>
rbdock ($Id: //depot/dev/client3/rdock/2013.1/src/exe/rbdock.cxx#4 $)

>  <Rbt.Library>
libRbt.so (2013.1, Build901 2013/11/27)

>  <Rbt.Parameter_File>
/export/apps/rDock/src/rDock_2013.1_src/data/scripts/dock_solv.prm

>  <Rbt.Receptor>
prm/blind_docking_60.prm

>  <SCORE>
-19.6941

>  <SCORE.INTER>
-19.6941

>  <SCORE.INTER.CONST>
1

>  <SCORE.INTER.POLAR>
0

>  <SCORE.INTER.ROT>
0

>  <SCORE.INTER.SOLV>
4.24457

>  <SCORE.INTER.VDW>
-18.1443

>  <SCORE.INTER.norm>
-1.96941

>  <SCORE.INTRA>
0

>  <SCORE.INTRA.DIHEDRAL>
0

>  <SCORE.INTRA.DIHEDRAL.0>
0

>  <SCORE.INTRA.POLAR>
0

>  <SCORE.INTRA.POLAR.0>
0

>  <SCORE.INTRA.REPUL>
0

>  <SCORE.INTRA.REPUL.0>
0

>  <SCORE.INTRA.SOLV>
0

>  <SCORE.INTRA.SOLV.lig_0>
-4.25352

>  <SCORE.INTRA.VDW>
0

>  <SCORE.INTRA.VDW.0>
0

>  <SCORE.INTRA.norm>
0

>  <SCORE.RESTR>
0

>  <SCORE.RESTR.CAVITY>
0

>  <SCORE.RESTR.norm>
0

>  <SCORE.SYSTEM>
0

>  <SCORE.SYSTEM.CONST>
0

>  <SCORE.SYSTEM.DIHEDRAL>
0

>  <SCORE.SYSTEM.SOLV>
0

>  <SCORE.SYSTEM.norm>
0

>  <SCORE.heavy>
10

>  <SCORE.norm>
-1.96941

>  <RMSD>
0.476

$$$$
ligand
 OpenBabel11021811423D
libRbt.so/2013.1/901 2013/11/27
 10 11  0  0  0  0  0  0  0  0999 V2000
   53.5612  -13.2673    8.8298 N   0  0  0  0  0  0  0  0  0  0  0  0
   53.7911  -14.5797    9.1295 C   0  0  0  0  0  0  0  0  0  0  0  0
   54.0958  -15.4915    8.1695 N   0  0  0  0  0  0  0  0  0  0  0  0
   54.1498  -14.9502    6.9183 C   0  0  0  0  0  0  0  0  0  0  0  0
   53.9299  -13.6397    6.5646 C   0  0  0  0  0  0  0  0  0  0  0  0
   53.6088  -12.6972    7.5456 C   0  0  0  0  0  0  0  0  0  0  0  0
   53.3792  -11.5115    7.4300 O   0  0  0  0  0  0  0  0  0  0  0  0
   54.0845  -13.5213    5.2098 N   0  0  0  0  0  0  0  0  0  0  0  0
   54.3908  -14.7301    4.7503 C   0  0  0  0  0  0  0  0  0  0  0  0
   54.4410  -15.6546    5.7768 N   0  0  0  0  0  0  0  0  0  0  0  0
  1  2  1  0  0  0  0
  1  6  1  0  0  0  0
  2  3  2  0  0  0  0
  3  4  1  0  0  0  0
  4  5  2  0  0  0  0
  4 10  1  0  0  0  0
  5  6  1  0  0  0  0
  5  8  1  0  0  0  0
  6  7  2  0  0  0  0
  8  9  1  0  0  0  0
  9 10  2  0  0  0  0
M  END
>  <CHROM.1>
53.93236761,-13.95799811,7.04225741,-2.77829171,1.33320562,-1.00305019

>  <Name>
ligand

>  <RI>
0

>  <Rbt.Current_Directory>
/home/itssahil/PROJECTS/Mol_Feturizer/New_Systems/rnas/2EEV

>  <Rbt.Executable>
rbdock ($Id: //depot/dev/client3/rdock/2013.1/src/exe/rbdock.cxx#4 $)

>  <Rbt.Library>
libRbt.so (2013.1, Build901 2013/11/27)

>  <Rbt.Parameter_File>
/export/apps/rDock/src/rDock_2013.1_src/data/scripts/dock_solv.prm

>  <Rbt.Receptor>
prm/pocket_docking_4.prm

>  <SCORE>
-19.6521

>  <SCORE.INTER>
-19.6521

>  <SCORE.INTER.CONST>
1

>  <SCORE.INTER.POLAR>
0

>  <SCORE.INTER.ROT>
0

>  <SCORE.INTER.SOLV>
4.22878

>  <SCORE.INTER.VDW>
-18.111

>  <SCORE.INTER.norm>
-1.96521

>  <SCORE.INTRA>
0

>  <SCORE.INTRA.DIHEDRAL>
0

>  <SCORE.INTRA.DIHEDRAL.0>
0

>  <SCORE.INTRA.POLAR>
0

>  <SCORE.INTRA.POLAR.0>
0

>  <SCORE.INTRA.REPUL>
0

>  <SCORE.INTRA.REPUL.0>
0

>  <SCORE.INTRA.SOLV>
0

>  <SCORE.INTRA.SOLV.lig_0>
-4.25352

>  <SCORE.INTRA.VDW>
0

>  <SCORE.INTRA.VDW.0>
0

>  <SCORE.INTRA.norm>
0

>  <SCORE.RESTR>
0

>  <SCORE.RESTR.CAVITY>
0

>  <SCORE.RESTR.norm>
0

>  <SCORE.SYSTEM>
0

>  <SCORE.SYSTEM.CONST>
0

>  <SCORE.SYSTEM.DIHEDRAL>
0

>  <SCORE.SYSTEM.SOLV>
0

>  <SCORE.SYSTEM.norm>
0

>  <SCORE.heavy>
10

>  <SCORE.norm>
-1.96521

>  <RMSD>
0.479

$$$$
ligand
 OpenBabel11021811423D
libRbt.so/2013.1/901 2013/11/27
 10 11  0  0  0  0  0  0  0  0999 V2000
   53.4851  -13.1952    8.8320 N   0  0  0  0  0  0  0  0  0  0  0  0
   53.7262  -14.4989    9.1597 C   0  0  0  0  0  0  0  0  0  0  0  0
   54.0540  -15.4251    8.2213 N   0  0  0  0  0  0  0  0  0  0  0  0
   54.1184  -14.9070    6.9609 C   0  0  0  0  0  0  0  0  0  0  0  0
   53.8881  -13.6061    6.5794 C   0  0  0  0  0  0  0  0  0  0  0  0
   53.5433  -12.6490    7.5379 C   0  0  0  0  0  0  0  0  0  0  0  0
   53.3016  -11.4684    7.3968 O   0  0  0  0  0  0  0  0  0  0  0  0
   54.0594  -13.5116    5.2247 N   0  0  0  0  0  0  0  0  0  0  0  0
   54.3856  -14.7251    4.7924 C   0  0  0  0  0  0  0  0  0  0  0  0
   54.4328  -15.6294    5.8369 N   0  0  0  0  0  0  0  0  0  0  0  0
  1  2  1  0  0  0  0
  1  6  1  0  0  0  0
  2  3  2  0  0  0  0
  3  4  1  0  0  0  0
  4  5  2  0  0  0  0
  4 10  1  0  0  0  0
  5  6  1  0  0  0  0
  5  8  1  0  0  0  0
  6  7  2  0  0  0  0
  8  9  1  0  0  0  0
  9 10  2  0  0  0  0
M  END
>  <CHROM.1>
53.88794350,-13.91521753,7.06299580,-2.79815692,1.31632052,-1.00279011

>  <Name>
ligand

>  <RI>
0

>  <Rbt.Current_Directory>
/home/itssahil/PROJECTS/Mol_Feturizer/New_Systems/rnas/2EEV

>  <Rbt.Executable>
rbdock ($Id: //depot/dev/client3/rdock/2013.1/src/exe/rbdock.cxx#4 $)

>  <Rbt.Library>
libRbt.so (2013.1, Build901 2013/11/27)

>  <Rbt.Parameter_File>
/export/apps/rDock/src/rDock_2013.1_src/data/scripts/dock_solv.prm

>  <Rbt.Receptor>
prm/pocket_docking_5.prm

>  <SCORE>
-19.6965

>  <SCORE.INTER>
-19.6965

>  <SCORE.INTER.CONST>
1

>  <SCORE.INTER.POLAR>
0

>  <SCORE.INTER.ROT>
0

>  <SCORE.INTER.SOLV>
4.18834

>  <SCORE.INTER.VDW>
-18.1271

>  <SCORE.INTER.norm>
-1.96965

>  <SCORE.INTRA>
0

>  <SCORE.INTRA.DIHEDRAL>
0

>  <SCORE.INTRA.DIHEDRAL.0>
0

>  <SCORE.INTRA.POLAR>
0

>  <SCORE.INTRA.POLAR.0>
0

>  <SCORE.INTRA.REPUL>
0

>  <SCORE.INTRA.REPUL.0>
0

>  <SCORE.INTRA.SOLV>
0

>  <SCORE.INTRA.SOLV.lig_0>
-4.25352

>  <SCORE.INTRA.VDW>
0

>  <SCORE.INTRA.VDW.0>
0

>  <SCORE.INTRA.norm>
0

>  <SCORE.RESTR>
0

>  <SCORE.RESTR.CAVITY>
0

>  <SCORE.RESTR.norm>
0

>  <SCORE.SYSTEM>
0

>  <SCORE.SYSTEM.CONST>
0

>  <SCORE.SYSTEM.DIHEDRAL>
0

>  <SCORE.SYSTEM.SOLV>
0

>  <SCORE.SYSTEM.norm>
0

>  <SCORE.heavy>
10

>  <SCORE.norm>
-1.96965

>  <RMSD>
0.480

$$$$
ligand
 OpenBabel11021811423D
libRbt.so/2013.1/901 2013/11/27
 10 11  0  0  0  0  0  0  0  0999 V2000
   53.4608  -13.1267    8.8579 N   0  0  0  0  0  0  0  0  0  0  0  0
   53.6853  -14.4241    9.2209 C   0  0  0  0  0  0  0  0  0  0  0  0
   54.0009  -15.3795    8.3081 N   0  0  0  0  0  0  0  0  0  0  0  0
   54.0712  -14.8968    7.0340 C   0  0  0  0  0  0  0  0  0  0  0  0
   53.8575  -13.6039    6.6173 C   0  0  0  0  0  0  0  0  0  0  0  0
   53.5254  -12.6167    7.5494 C   0  0  0  0  0  0  0  0  0  0  0  0
   53.2987  -11.4375    7.3762 O   0  0  0  0  0  0  0  0  0  0  0  0
   54.0293  -13.5485    5.2604 N   0  0  0  0  0  0  0  0  0  0  0  0
   54.3397  -14.7775    4.8613 C   0  0  0  0  0  0  0  0  0  0  0  0
   54.3759  -15.6535    5.9300 N   0  0  0  0  0  0  0  0  0  0  0  0
  1  2  1  0  0  0  0
  1  6  1  0  0  0  0
  2  3  2  0  0  0  0
  3  4  1  0  0  0  0
  4  5  2  0  0  0  0
  4 10  1  0  0  0  0
  5  6  1  0  0  0  0
  5  8  1  0  0  0  0
  6  7  2  0  0  0  0
  8  9  1  0  0  0  0
  9 10  2  0  0  0  0
M  END
>  <CHROM.1>
53.85355615,-13.89975043,7.10909956,-2.82505606,1.32728246,-1.00394291

>  <Name>
ligand

>  <RI>
0

>  <Rbt.Current_Directory>
/home/itssahil/PROJECTS/Mol_Feturizer/New_Systems/rnas/2EEV

>  <Rbt.Executable>
rbdock ($Id: //depot/dev/client3/rdock/2013.1/src/exe/rbdock.cxx#4 $)

>  <Rbt.Library>
libRbt.so (2013.1, Build901 2013/11/27)

>  <Rbt.Parameter_File>
/export/apps/rDock/src/rDock_2013.1_src/data/scripts/dock_solv.prm

>  <Rbt.Receptor>
prm/pocket_docking_3.prm

>  <SCORE>
-19.6594

>  <SCORE.INTER>
-19.6594

>  <SCORE.INTER.CONST>
1

>  <SCORE.INTER.POLAR>
0

>  <SCORE.INTER.ROT>
0

>  <SCORE.INTER.SOLV>
4.22712

>  <SCORE.INTER.VDW>
-18.1153

>  <SCORE.INTER.norm>
-1.96594

>  <SCORE.INTRA>
0

>  <SCORE.INTRA.DIHEDRAL>
0

>  <SCORE.INTRA.DIHEDRAL.0>
0

>  <SCORE.INTRA.POLAR>
0

>  <SCORE.INTRA.POLAR.0>
0

>  <SCORE.INTRA.REPUL>
0

>  <SCORE.INTRA.REPUL.0>
0

>  <SCORE.INTRA.SOLV>
0

>  <SCORE.INTRA.SOLV.lig_0>
-4.25352

>  <SCORE.INTRA.VDW>
0

>  <SCORE.INTRA.VDW.0>
0

>  <SCORE.INTRA.norm>
0

>  <SCORE.RESTR>
0

>  <SCORE.RESTR.CAVITY>
0

>  <SCORE.RESTR.norm>
0

>  <SCORE.SYSTEM>
0

>  <SCORE.SYSTEM.CONST>
0

>  <SCORE.SYSTEM.DIHEDRAL>
0

>  <SCORE.SYSTEM.SOLV>
0

>  <SCORE.SYSTEM.norm>
0

>  <SCORE.heavy>
10

>  <SCORE.norm>
-1.96594

>  <RMSD>
0.481

$$$$
ligand
 OpenBabel11021811423D
libRbt.so/2013.1/901 2013/11/27
 10 11  0  0  0  0  0  0  0  0999 V2000
   53.4437  -13.1706    8.8299 N   0  0  0  0  0  0  0  0  0  0  0  0
   53.6865  -14.4707    9.1705 C   0  0  0  0  0  0  0  0  0  0  0  0
   54.0344  -15.4015    8.2442 N   0  0  0  0  0  0  0  0  0  0  0  0
   54.1163  -14.8919    6.9813 C   0  0  0  0  0  0  0  0  0  0  0  0
   53.8852  -13.5950    6.5870 C   0  0  0  0  0  0  0  0  0  0  0  0
   53.5198  -12.6332    7.5331 C   0  0  0  0  0  0  0  0  0  0  0  0
   53.2740  -11.4550    7.3797 O   0  0  0  0  0  0  0  0  0  0  0  0
   54.0777  -13.5090    5.2345 N   0  0  0  0  0  0  0  0  0  0  0  0
   54.4174  -14.7238    4.8161 C   0  0  0  0  0  0  0  0  0  0  0  0
   54.4527  -15.6204    5.8676 N   0  0  0  0  0  0  0  0  0  0  0  0
  1  2  1  0  0  0  0
  1  6  1  0  0  0  0
  2  3  2  0  0  0  0
  3  4  1  0  0  0  0
  4  5  2  0  0  0  0
  4 10  1  0  0  0  0
  5  6  1  0  0  0  0
  5  8  1  0  0  0  0
  6  7  2  0  0  0  0
  8  9  1  0  0  0  0
  9 10  2  0  0  0  0
M  END
>  <CHROM.1>
53.87886915,-13.90076336,7.07267808,-2.83846621,1.30288982,-0.97087165

>  <Name>
ligand

>  <RI>
0

>  <Rbt.Current_Directory>
/home/itssahil/PROJECTS/Mol_Feturizer/New_Systems/rnas/2EEV

>  <Rbt.Executable>
rbdock ($Id: //depot/dev/client3/rdock/2013.1/src/exe/rbdock.cxx#4 $)

>  <Rbt.Library>
libRbt.so (2013.1, Build901 2013/11/27)

>  <Rbt.Parameter_File>
/export/apps/rDock/src/rDock_2013.1_src/data/scripts/dock_solv.prm

>  <Rbt.Receptor>
prm/blind_docking_80.prm

>  <SCORE>
-19.6479

>  <SCORE.INTER>
-19.6479

>  <SCORE.INTER.CONST>
1

>  <SCORE.INTER.POLAR>
0

>  <SCORE.INTER.ROT>
0

>  <SCORE.INTER.SOLV>
4.16382

>  <SCORE.INTER.VDW>
-18.0866

>  <SCORE.INTER.norm>
-1.96479

>  <SCORE.INTRA>
0

>  <SCORE.INTRA.DIHEDRAL>
0

>  <SCORE.INTRA.DIHEDRAL.0>
0

>  <SCORE.INTRA.POLAR>
0

>  <SCORE.INTRA.POLAR.0>
0

>  <SCORE.INTRA.REPUL>
0

>  <SCORE.INTRA.REPUL.0>
0

>  <SCORE.INTRA.SOLV>
0

>  <SCORE.INTRA.SOLV.lig_0>
-4.25352

>  <SCORE.INTRA.VDW>
0

>  <SCORE.INTRA.VDW.0>
0

>  <SCORE.INTRA.norm>
0

>  <SCORE.RESTR>
0

>  <SCORE.RESTR.CAVITY>
0

>  <SCORE.RESTR.norm>
0

>  <SCORE.SYSTEM>
0

>  <SCORE.SYSTEM.CONST>
0

>  <SCORE.SYSTEM.DIHEDRAL>
0

>  <SCORE.SYSTEM.SOLV>
0

>  <SCORE.SYSTEM.norm>
0

>  <SCORE.heavy>
10

>  <SCORE.norm>
-1.96479

>  <RMSD>
0.482

$$$$
ligand
 OpenBabel11021811423D
libRbt.so/2013.1/901 2013/11/27
 10 11  0  0  0  0  0  0  0  0999 V2000
   53.5599  -13.2719    8.8273 N   0  0  0  0  0  0  0  0  0  0  0  0
   53.7917  -14.5827    9.1329 C   0  0  0  0  0  0  0  0  0  0  0  0
   54.0850  -15.5009    8.1755 N   0  0  0  0  0  0  0  0  0  0  0  0
   54.1261  -14.9676    6.9204 C   0  0  0  0  0  0  0  0  0  0  0  0
   53.9039  -13.6591    6.5608 C   0  0  0  0  0  0  0  0  0  0  0  0
   53.5944  -12.7100    7.5391 C   0  0  0  0  0  0  0  0  0  0  0  0
   53.3649  -11.5248    7.4185 O   0  0  0  0  0  0  0  0  0  0  0  0
   54.0442  -13.5495    5.2036 N   0  0  0  0  0  0  0  0  0  0  0  0
   54.3441  -14.7615    4.7486 C   0  0  0  0  0  0  0  0  0  0  0  0
   54.4044  -15.6796    5.7803 N   0  0  0  0  0  0  0  0  0  0  0  0
  1  2  1  0  0  0  0
  1  6  1  0  0  0  0
  2  3  2  0  0  0  0
  3  4  1  0  0  0  0
  4  5  2  0  0  0  0
  4 10  1  0  0  0  0
  5  6  1  0  0  0  0
  5  8  1  0  0  0  0
  6  7  2  0  0  0  0
  8  9  1  0  0  0  0
  9 10  2  0  0  0  0
M  END
>  <CHROM.1>
53.91117676,-13.97437630,7.04034796,-2.74134797,1.33974673,-1.04533388

>  <Name>
ligand

>  <RI>
0

>  <Rbt.Current_Directory>
/home/itssahil/PROJECTS/Mol_Feturizer/New_Systems/rnas/2EEV

>  <Rbt.Executable>
rbdock ($Id: //depot/dev/client3/rdock/2013.1/src/exe/rbdock.cxx#4 $)

>  <Rbt.Library>
libRbt.so (2013.1, Build901 2013/11/27)

>  <Rbt.Parameter_File>
/export/apps/rDock/src/rDock_2013.1_src/data/scripts/dock_solv.prm

>  <Rbt.Receptor>
prm/pocket_docking_8.prm

>  <SCORE>
-19.6847

>  <SCORE.INTER>
-19.6847

>  <SCORE.INTER.CONST>
1

>  <SCORE.INTER.POLAR>
0

>  <SCORE.INTER.ROT>
0

>  <SCORE.INTER.SOLV>
4.24442

>  <SCORE.INTER.VDW>
-18.1379

>  <SCORE.INTER.norm>
-1.96847

>  <SCORE.INTRA>
0

>  <SCORE.INTRA.DIHEDRAL>
0

>  <SCORE.INTRA.DIHEDRAL.0>
0

>  <SCORE.INTRA.POLAR>
0

>  <SCORE.INTRA.POLAR.0>
0

>  <SCORE.INTRA.REPUL>
0

>  <SCORE.INTRA.REPUL.0>
0

>  <SCORE.INTRA.SOLV>
0

>  <SCORE.INTRA.SOLV.lig_0>
-4.25352

>  <SCORE.INTRA.VDW>
0

>  <SCORE.INTRA.VDW.0>
0

>  <SCORE.INTRA.norm>
0

>  <SCORE.RESTR>
0

>  <SCORE.RESTR.CAVITY>
0

>  <SCORE.RESTR.norm>
0

>  <SCORE.SYSTEM>
0

>  <SCORE.SYSTEM.CONST>
0

>  <SCORE.SYSTEM.DIHEDRAL>
0

>  <SCORE.SYSTEM.SOLV>
0

>  <SCORE.SYSTEM.norm>
0

>  <SCORE.heavy>
10

>  <SCORE.norm>
-1.96847

>  <RMSD>
0.484

$$$$
ligand
 OpenBabel11021811423D
libRbt.so/2013.1/901 2013/11/27
 10 11  0  0  0  0  0  0  0  0999 V2000
   53.5807  -13.2759    8.8329 N   0  0  0  0  0  0  0  0  0  0  0  0
   53.8048  -14.5924    9.1190 C   0  0  0  0  0  0  0  0  0  0  0  0
   54.0926  -15.4981    8.1482 N   0  0  0  0  0  0  0  0  0  0  0  0
   54.1365  -14.9467    6.9011 C   0  0  0  0  0  0  0  0  0  0  0  0
   53.9219  -13.6318    6.5608 C   0  0  0  0  0  0  0  0  0  0  0  0
   53.6182  -12.6953    7.5531 C   0  0  0  0  0  0  0  0  0  0  0  0
   53.3956  -11.5071    7.4499 O   0  0  0  0  0  0  0  0  0  0  0  0
   54.0625  -13.5031    5.2053 N   0  0  0  0  0  0  0  0  0  0  0  0
   54.3552  -14.7100    4.7324 C   0  0  0  0  0  0  0  0  0  0  0  0
   54.4103  -15.6434    5.7505 N   0  0  0  0  0  0  0  0  0  0  0  0
  1  2  1  0  0  0  0
  1  6  1  0  0  0  0
  2  3  2  0  0  0  0
  3  4  1  0  0  0  0
  4  5  2  0  0  0  0
  4 10  1  0  0  0  0
  5  6  1  0  0  0  0
  5  8  1  0  0  0  0
  6  7  2  0  0  0  0
  8  9  1  0  0  0  0
  9 10  2  0  0  0  0
M  END
>  <CHROM.1>
53.92741703,-13.95407924,7.03566486,-2.75358907,1.34492612,-1.01871585

>  <Name>
ligand

>  <RI>
0

>  <Rbt.Current_Directory>
/home/itssahil/PROJECTS/Mol_Feturizer/New_Systems/rnas/2EEV

>  <Rbt.Executable>
rbdock ($Id: //depot/dev/client3/rdock/2013.1/src/exe/rbdock.cxx#4 $)

>  <Rbt.Library>
libRbt.so (2013.1, Build901 2013/11/27)

>  <Rbt.Parameter_File>
/export/apps/rDock/src/rDock_2013.1_src/data/scripts/dock_solv.prm

>  <Rbt.Receptor>
prm/pocket_docking_4.prm

>  <SCORE>
-19.6559

>  <SCORE.INTER>
-19.6559

>  <SCORE.INTER.CONST>
1

>  <SCORE.INTER.POLAR>
0

>  <SCORE.INTER.ROT>
0

>  <SCORE.INTER.SOLV>
4.25098

>  <SCORE.INTER.VDW>
-18.1209

>  <SCORE.INTER.norm>
-1.96559

>  <SCORE.INTRA>
0

>  <SCORE.INTRA.DIHEDRAL>
0

>  <SCORE.INTRA.DIHEDRAL.0>
0

>  <SCORE.INTRA.POLAR>
0

>  <SCORE.INTRA.POLAR.0>
0

>  <SCORE.INTRA.REPUL>
0

>  <SCORE.INTRA.REPUL.0>
0

>  <SCORE.INTRA.SOLV>
0

>  <SCORE.INTRA.SOLV.lig_0>
-4.25352

>  <SCORE.INTRA.VDW>
0

>  <SCORE.INTRA.VDW.0>
0

>  <SCORE.INTRA.norm>
0

>  <SCORE.RESTR>
0

>  <SCORE.RESTR.CAVITY>
0

>  <SCORE.RESTR.norm>
0

>  <SCORE.SYSTEM>
0

>  <SCORE.SYSTEM.CONST>
0

>  <SCORE.SYSTEM.DIHEDRAL>
0

>  <SCORE.SYSTEM.SOLV>
0

>  <SCORE.SYSTEM.norm>
0

>  <SCORE.heavy>
10

>  <SCORE.norm>
-1.96559

>  <RMSD>
0.485

$$$$
ligand
 OpenBabel11021811423D
libRbt.so/2013.1/901 2013/11/27
 10 11  0  0  0  0  0  0  0  0999 V2000
   53.4324  -13.0952    8.8623 N   0  0  0  0  0  0  0  0  0  0  0  0
   53.6526  -14.3900    9.2369 C   0  0  0  0  0  0  0  0  0  0  0  0
   53.9766  -15.3522    8.3343 N   0  0  0  0  0  0  0  0  0  0  0  0
   54.0598  -14.8788    7.0574 C   0  0  0  0  0  0  0  0  0  0  0  0
   53.8509  -13.5889    6.6292 C   0  0  0  0  0  0  0  0  0  0  0  0
   53.5102  -12.5948    7.5508 C   0  0  0  0  0  0  0  0  0  0  0  0
   53.2859  -11.4168    7.3668 O   0  0  0  0  0  0  0  0  0  0  0  0
   54.0361  -13.5435    5.2738 N   0  0  0  0  0  0  0  0  0  0  0  0
   54.3498  -14.7755    4.8867 C   0  0  0  0  0  0  0  0  0  0  0  0
   54.3749  -15.6437    5.9621 N   0  0  0  0  0  0  0  0  0  0  0  0
  1  2  1  0  0  0  0
  1  6  1  0  0  0  0
  2  3  2  0  0  0  0
  3  4  1  0  0  0  0
  4  5  2  0  0  0  0
  4 10  1  0  0  0  0
  5  6  1  0  0  0  0
  5  8  1  0  0  0  0
  6  7  2  0  0  0  0
  8  9  1  0  0  0  0
  9 10  2  0  0  0  0
M  END
>  <CHROM.1>
53.84195857,-13.88117443,7.12314002,-2.86019661,1.32230885,-0.97715762

>  <Name>
ligand

>  <RI>
0

>  <Rbt.Current_Directory>
/home/itssahil/PROJECTS/Mol_Feturizer/New_Systems/rnas/2EEV

>  <Rbt.Executable>
rbdock ($Id: //depot/dev/client3/rdock/2013.1/src/exe/rbdock.cxx#4 $)

>  <Rbt.Library>
libRbt.so (2013.1, Build901 2013/11/27)

>  <Rbt.Parameter_File>
/export/apps/rDock/src/rDock_2013.1_src/data/scripts/dock_solv.prm

>  <Rbt.Receptor>
prm/pocket_docking_3.prm

>  <SCORE>
-19.6417

>  <SCORE.INTER>
-19.6417

>  <SCORE.INTER.CONST>
1

>  <SCORE.INTER.POLAR>
0

>  <SCORE.INTER.ROT>
0

>  <SCORE.INTER.SOLV>
4.22615

>  <SCORE.INTER.VDW>
-18.1032

>  <SCORE.INTER.norm>
-1.96417

>  <SCORE.INTRA>
0

>  <SCORE.INTRA.DIHEDRAL>
0

>  <SCORE.INTRA.DIHEDRAL.0>
0

>  <SCORE.INTRA.POLAR>
0

>  <SCORE.INTRA.POLAR.0>
0

>  <SCORE.INTRA.REPUL>
0

>  <SCORE.INTRA.REPUL.0>
0

>  <SCORE.INTRA.SOLV>
0

>  <SCORE.INTRA.SOLV.lig_0>
-4.25352

>  <SCORE.INTRA.VDW>
0

>  <SCORE.INTRA.VDW.0>
0

>  <SCORE.INTRA.norm>
0

>  <SCORE.RESTR>
0

>  <SCORE.RESTR.CAVITY>
0

>  <SCORE.RESTR.norm>
0

>  <SCORE.SYSTEM>
0

>  <SCORE.SYSTEM.CONST>
0

>  <SCORE.SYSTEM.DIHEDRAL>
0

>  <SCORE.SYSTEM.SOLV>
0

>  <SCORE.SYSTEM.norm>
0

>  <SCORE.heavy>
10

>  <SCORE.norm>
-1.96417

>  <RMSD>
0.487

$$$$
ligand
 OpenBabel11021811423D
libRbt.so/2013.1/901 2013/11/27
 10 11  0  0  0  0  0  0  0  0999 V2000
   53.4731  -13.2253    8.8250 N   0  0  0  0  0  0  0  0  0  0  0  0
   53.6800  -14.5390    9.1360 C   0  0  0  0  0  0  0  0  0  0  0  0
   53.9985  -15.4585    8.1881 N   0  0  0  0  0  0  0  0  0  0  0  0
   54.0909  -14.9235    6.9364 C   0  0  0  0  0  0  0  0  0  0  0  0
   53.8955  -13.6122    6.5717 C   0  0  0  0  0  0  0  0  0  0  0  0
   53.5604  -12.6616    7.5401 C   0  0  0  0  0  0  0  0  0  0  0  0
   53.3476  -11.4738    7.4137 O   0  0  0  0  0  0  0  0  0  0  0  0
   54.0862  -13.5017    5.2208 N   0  0  0  0  0  0  0  0  0  0  0  0
   54.3900  -14.7160    4.7744 C   0  0  0  0  0  0  0  0  0  0  0  0
   54.4031  -15.6364    5.8057 N   0  0  0  0  0  0  0  0  0  0  0  0
  1  2  1  0  0  0  0
  1  6  1  0  0  0  0
  2  3  2  0  0  0  0
  3  4  1  0  0  0  0
  4  5  2  0  0  0  0
  4 10  1  0  0  0  0
  5  6  1  0  0  0  0
  5  8  1  0  0  0  0
  6  7  2  0  0  0  0
  8  9  1  0  0  0  0
  9 10  2  0  0  0  0
M  END
>  <CHROM.1>
53.88198287,-13.92834245,7.05055547,-2.89452187,1.32767021,-0.89451198

>  <Name>
ligand

>  <RI>
0

>  <Rbt.Current_Directory>
/home/itssahil/PROJECTS/Mol_Feturizer/New_Systems/rnas/2EEV

>  <Rbt.Executable>
rbdock ($Id: //depot/dev/client3/rdock/2013.1/src/exe/rbdock.cxx#4 $)

>  <Rbt.Library>
libRbt.so (2013.1, Build901 2013/11/27)

>  <Rbt.Parameter_File>
/export/apps/rDock/src/rDock_2013.1_src/data/scripts/dock_solv.prm

>  <Rbt.Receptor>
prm/blind_docking_60.prm

>  <SCORE>
-19.6724

>  <SCORE.INTER>
-19.6724

>  <SCORE.INTER.CONST>
1

>  <SCORE.INTER.POLAR>
0

>  <SCORE.INTER.ROT>
0

>  <SCORE.INTER.SOLV>
4.26262

>  <SCORE.INTER.VDW>
-18.1358

>  <SCORE.INTER.norm>
-1.96724

>  <SCORE.INTRA>
0

>  <SCORE.INTRA.DIHEDRAL>
0

>  <SCORE.INTRA.DIHEDRAL.0>
0

>  <SCORE.INTRA.POLAR>
0

>  <SCORE.INTRA.POLAR.0>
0

>  <SCORE.INTRA.REPUL>
0

>  <SCORE.INTRA.REPUL.0>
0

>  <SCORE.INTRA.SOLV>
0

>  <SCORE.INTRA.SOLV.lig_0>
-4.25352

>  <SCORE.INTRA.VDW>
0

>  <SCORE.INTRA.VDW.0>
0

>  <SCORE.INTRA.norm>
0

>  <SCORE.RESTR>
0

>  <SCORE.RESTR.CAVITY>
0

>  <SCORE.RESTR.norm>
0

>  <SCORE.SYSTEM>
0

>  <SCORE.SYSTEM.CONST>
0

>  <SCORE.SYSTEM.DIHEDRAL>
0

>  <SCORE.SYSTEM.SOLV>
0

>  <SCORE.SYSTEM.norm>
0

>  <SCORE.heavy>
10

>  <SCORE.norm>
-1.96724

>  <RMSD>
0.491

$$$$
ligand
 OpenBabel11021811423D
libRbt.so/2013.1/901 2013/11/27
 10 11  0  0  0  0  0  0  0  0999 V2000
   53.4773  -13.2234    8.8205 N   0  0  0  0  0  0  0  0  0  0  0  0
   53.6992  -14.5339    9.1348 C   0  0  0  0  0  0  0  0  0  0  0  0
   54.0221  -15.4533    8.1882 N   0  0  0  0  0  0  0  0  0  0  0  0
   54.1025  -14.9216    6.9343 C   0  0  0  0  0  0  0  0  0  0  0  0
   53.8919  -13.6136    6.5663 C   0  0  0  0  0  0  0  0  0  0  0  0
   53.5522  -12.6632    7.5333 C   0  0  0  0  0  0  0  0  0  0  0  0
   53.3267  -11.4781    7.4041 O   0  0  0  0  0  0  0  0  0  0  0  0
   54.0744  -13.5057    5.2140 N   0  0  0  0  0  0  0  0  0  0  0  0
   54.3882  -14.7183    4.7701 C   0  0  0  0  0  0  0  0  0  0  0  0
   54.4161  -15.6351    5.8044 N   0  0  0  0  0  0  0  0  0  0  0  0
  1  2  1  0  0  0  0
  1  6  1  0  0  0  0
  2  3  2  0  0  0  0
  3  4  1  0  0  0  0
  4  5  2  0  0  0  0
  4 10  1  0  0  0  0
  5  6  1  0  0  0  0
  5  8  1  0  0  0  0
  6  7  2  0  0  0  0
  8  9  1  0  0  0  0
  9 10  2  0  0  0  0
M  END
>  <CHROM.1>
53.88408229,-13.92821346,7.04625342,-2.85202105,1.32277405,-0.93907101

>  <Name>
ligand

>  <RI>
0

>  <Rbt.Current_Directory>
/home/itssahil/PROJECTS/Mol_Feturizer/New_Systems/rnas/2EEV

>  <Rbt.Executable>
rbdock ($Id: //depot/dev/client3/rdock/2013.1/src/exe/rbdock.cxx#4 $)

>  <Rbt.Library>
libRbt.so (2013.1, Build901 2013/11/27)

>  <Rbt.Parameter_File>
/export/apps/rDock/src/rDock_2013.1_src/data/scripts/dock_solv.prm

>  <Rbt.Receptor>
prm/pocket_docking_5.prm

>  <SCORE>
-19.6782

>  <SCORE.INTER>
-19.6782

>  <SCORE.INTER.CONST>
1

>  <SCORE.INTER.POLAR>
0

>  <SCORE.INTER.ROT>
0

>  <SCORE.INTER.SOLV>
4.23299

>  <SCORE.INTER.VDW>
-18.1298

>  <SCORE.INTER.norm>
-1.96782

>  <SCORE.INTRA>
0

>  <SCORE.INTRA.DIHEDRAL>
0

>  <SCORE.INTRA.DIHEDRAL.0>
0

>  <SCORE.INTRA.POLAR>
0

>  <SCORE.INTRA.POLAR.0>
0

>  <SCORE.INTRA.REPUL>
0

>  <SCORE.INTRA.REPUL.0>
0

>  <SCORE.INTRA.SOLV>
0

>  <SCORE.INTRA.SOLV.lig_0>
-4.25352

>  <SCORE.INTRA.VDW>
0

>  <SCORE.INTRA.VDW.0>
0

>  <SCORE.INTRA.norm>
0

>  <SCORE.RESTR>
0

>  <SCORE.RESTR.CAVITY>
0

>  <SCORE.RESTR.norm>
0

>  <SCORE.SYSTEM>
0

>  <SCORE.SYSTEM.CONST>
0

>  <SCORE.SYSTEM.DIHEDRAL>
0

>  <SCORE.SYSTEM.SOLV>
0

>  <SCORE.SYSTEM.norm>
0

>  <SCORE.heavy>
10

>  <SCORE.norm>
-1.96782

>  <RMSD>
0.491

$$$$
ligand
 OpenBabel11021811423D
libRbt.so/2013.1/901 2013/11/27
 10 11  0  0  0  0  0  0  0  0999 V2000
   53.5531  -13.2699    8.8169 N   0  0  0  0  0  0  0  0  0  0  0  0
   53.7822  -14.5812    9.1222 C   0  0  0  0  0  0  0  0  0  0  0  0
   54.0810  -15.4983    8.1654 N   0  0  0  0  0  0  0  0  0  0  0  0
   54.1301  -14.9635    6.9113 C   0  0  0  0  0  0  0  0  0  0  0  0
   53.9108  -13.6544    6.5520 C   0  0  0  0  0  0  0  0  0  0  0  0
   53.5959  -12.7064    7.5297 C   0  0  0  0  0  0  0  0  0  0  0  0
   53.3677  -11.5209    7.4091 O   0  0  0  0  0  0  0  0  0  0  0  0
   54.0595  -13.5431    5.1959 N   0  0  0  0  0  0  0  0  0  0  0  0
   54.3616  -14.7547    4.7411 C   0  0  0  0  0  0  0  0  0  0  0  0
   54.4150  -15.6741    5.7721 N   0  0  0  0  0  0  0  0  0  0  0  0
  1  2  1  0  0  0  0
  1  6  1  0  0  0  0
  2  3  2  0  0  0  0
  3  4  1  0  0  0  0
  4  5  2  0  0  0  0
  4 10  1  0  0  0  0
  5  6  1  0  0  0  0
  5  8  1  0  0  0  0
  6  7  2  0  0  0  0
  8  9  1  0  0  0  0
  9 10  2  0  0  0  0
M  END
>  <CHROM.1>
53.91497191,-13.97026847,7.03122793,-2.76554014,1.33705063,-1.02051026

>  <Name>
ligand

>  <RI>
0

>  <Rbt.Current_Directory>
/home/itssahil/PROJECTS/Mol_Feturizer/New_Systems/rnas/2EEV

>  <Rbt.Executable>
rbdock ($Id: //depot/dev/client3/rdock/2013.1/src/exe/rbdock.cxx#4 $)

>  <Rbt.Library>
libRbt.so (2013.1, Build901 2013/11/27)

>  <Rbt.Parameter_File>
/export/apps/rDock/src/rDock_2013.1_src/data/scripts/dock_solv.prm

>  <Rbt.Receptor>
prm/pocket_docking_8.prm

>  <SCORE>
-19.7212

>  <SCORE.INTER>
-19.7212

>  <SCORE.INTER.CONST>
1

>  <SCORE.INTER.POLAR>
0

>  <SCORE.INTER.ROT>
0

>  <SCORE.INTER.SOLV>
4.24495

>  <SCORE.INTER.VDW>
-18.1624

>  <SCORE.INTER.norm>
-1.97212

>  <SCORE.INTRA>
0

>  <SCORE.INTRA.DIHEDRAL>
0

>  <SCORE.INTRA.DIHEDRAL.0>
0

>  <SCORE.INTRA.POLAR>
0

>  <SCORE.INTRA.POLAR.0>
0

>  <SCORE.INTRA.REPUL>
0

>  <SCORE.INTRA.REPUL.0>
0

>  <SCORE.INTRA.SOLV>
0

>  <SCORE.INTRA.SOLV.lig_0>
-4.25352

>  <SCORE.INTRA.VDW>
0

>  <SCORE.INTRA.VDW.0>
0

>  <SCORE.INTRA.norm>
0

>  <SCORE.RESTR>
0

>  <SCORE.RESTR.CAVITY>
0

>  <SCORE.RESTR.norm>
0

>  <SCORE.SYSTEM>
0

>  <SCORE.SYSTEM.CONST>
0

>  <SCORE.SYSTEM.DIHEDRAL>
0

>  <SCORE.SYSTEM.SOLV>
0

>  <SCORE.SYSTEM.norm>
0

>  <SCORE.heavy>
10

>  <SCORE.norm>
-1.97212

>  <RMSD>
0.492

$$$$
ligand
 OpenBabel11021811423D
libRbt.so/2013.1/901 2013/11/27
 10 11  0  0  0  0  0  0  0  0999 V2000
   53.4915  -13.0170    8.8961 N   0  0  0  0  0  0  0  0  0  0  0  0
   53.7273  -14.3116    9.2618 C   0  0  0  0  0  0  0  0  0  0  0  0
   54.0385  -15.2690    8.3496 N   0  0  0  0  0  0  0  0  0  0  0  0
   54.0925  -14.7911    7.0728 C   0  0  0  0  0  0  0  0  0  0  0  0
   53.8670  -13.5012    6.6532 C   0  0  0  0  0  0  0  0  0  0  0  0
   53.5392  -12.5121    7.5849 C   0  0  0  0  0  0  0  0  0  0  0  0
   53.3039  -11.3348    7.4093 O   0  0  0  0  0  0  0  0  0  0  0  0
   54.0239  -13.4504    5.2944 N   0  0  0  0  0  0  0  0  0  0  0  0
   54.3371  -14.6792    4.8970 C   0  0  0  0  0  0  0  0  0  0  0  0
   54.3897  -15.5506    5.9688 N   0  0  0  0  0  0  0  0  0  0  0  0
  1  2  1  0  0  0  0
  1  6  1  0  0  0  0
  2  3  2  0  0  0  0
  3  4  1  0  0  0  0
  4  5  2  0  0  0  0
  4 10  1  0  0  0  0
  5  6  1  0  0  0  0
  5  8  1  0  0  0  0
  6  7  2  0  0  0  0
  8  9  1  0  0  0  0
  9 10  2  0  0  0  0
M  END
>  <CHROM.1>
53.86997044,-13.79500038,7.14626204,-2.77483363,1.32790082,-1.05677030

>  <Name>
ligand

>  <RI>
0

>  <Rbt.Current_Directory>
/home/itssahil/PROJECTS/Mol_Feturizer/New_Systems/rnas/2EEV

>  <Rbt.Executable>
rbdock ($Id: //depot/dev/client3/rdock/2013.1/src/exe/rbdock.cxx#4 $)

>  <Rbt.Library>
libRbt.so (2013.1, Build901 2013/11/27)

>  <Rbt.Parameter_File>
/export/apps/rDock/src/rDock_2013.1_src/data/scripts/dock_solv.prm

>  <Rbt.Receptor>
prm/blind_docking_80.prm

>  <SCORE>
-19.6301

>  <SCORE.INTER>
-19.6301

>  <SCORE.INTER.CONST>
1

>  <SCORE.INTER.POLAR>
0

>  <SCORE.INTER.ROT>
0

>  <SCORE.INTER.SOLV>
4.17181

>  <SCORE.INTER.VDW>
-18.0774

>  <SCORE.INTER.norm>
-1.96301

>  <SCORE.INTRA>
0

>  <SCORE.INTRA.DIHEDRAL>
0

>  <SCORE.INTRA.DIHEDRAL.0>
0

>  <SCORE.INTRA.POLAR>
0

>  <SCORE.INTRA.POLAR.0>
0

>  <SCORE.INTRA.REPUL>
0

>  <SCORE.INTRA.REPUL.0>
0

>  <SCORE.INTRA.SOLV>
0

>  <SCORE.INTRA.SOLV.lig_0>
-4.25352

>  <SCORE.INTRA.VDW>
0

>  <SCORE.INTRA.VDW.0>
0

>  <SCORE.INTRA.norm>
0

>  <SCORE.RESTR>
0

>  <SCORE.RESTR.CAVITY>
0

>  <SCORE.RESTR.norm>
0

>  <SCORE.SYSTEM>
0

>  <SCORE.SYSTEM.CONST>
0

>  <SCORE.SYSTEM.DIHEDRAL>
0

>  <SCORE.SYSTEM.SOLV>
0

>  <SCORE.SYSTEM.norm>
0

>  <SCORE.heavy>
10

>  <SCORE.norm>
-1.96301

>  <RMSD>
0.493

$$$$
ligand
 OpenBabel11021811423D
libRbt.so/2013.1/901 2013/11/27
 10 11  0  0  0  0  0  0  0  0999 V2000
   53.5336  -13.2602    8.7987 N   0  0  0  0  0  0  0  0  0  0  0  0
   53.7937  -14.5654    9.1053 C   0  0  0  0  0  0  0  0  0  0  0  0
   54.1183  -15.4752    8.1500 N   0  0  0  0  0  0  0  0  0  0  0  0
   54.1589  -14.9397    6.8958 C   0  0  0  0  0  0  0  0  0  0  0  0
   53.9089  -13.6365    6.5352 C   0  0  0  0  0  0  0  0  0  0  0  0
   53.5672  -12.6962    7.5113 C   0  0  0  0  0  0  0  0  0  0  0  0
   53.3105  -11.5167    7.3895 O   0  0  0  0  0  0  0  0  0  0  0  0
   54.0598  -13.5221    5.1796 N   0  0  0  0  0  0  0  0  0  0  0  0
   54.3931  -14.7260    4.7264 C   0  0  0  0  0  0  0  0  0  0  0  0
   54.4653  -15.6435    5.7579 N   0  0  0  0  0  0  0  0  0  0  0  0
  1  2  1  0  0  0  0
  1  6  1  0  0  0  0
  2  3  2  0  0  0  0
  3  4  1  0  0  0  0
  4  5  2  0  0  0  0
  4 10  1  0  0  0  0
  5  6  1  0  0  0  0
  5  8  1  0  0  0  0
  6  7  2  0  0  0  0
  8  9  1  0  0  0  0
  9 10  2  0  0  0  0
M  END
>  <CHROM.1>
53.91904719,-13.95204655,7.01456075,-2.72731109,1.31408006,-1.05794819

>  <Name>
ligand

>  <RI>
0

>  <Rbt.Current_Directory>
/home/itssahil/PROJECTS/Mol_Feturizer/New_Systems/rnas/2EEV

>  <Rbt.Executable>
rbdock ($Id: //depot/dev/client3/rdock/2013.1/src/exe/rbdock.cxx#4 $)

>  <Rbt.Library>
libRbt.so (2013.1, Build901 2013/11/27)

>  <Rbt.Parameter_File>
/export/apps/rDock/src/rDock_2013.1_src/data/scripts/dock_solv.prm

>  <Rbt.Receptor>
prm/blind_docking_60.prm

>  <SCORE>
-19.7085

>  <SCORE.INTER>
-19.7085

>  <SCORE.INTER.CONST>
1

>  <SCORE.INTER.POLAR>
0

>  <SCORE.INTER.ROT>
0

>  <SCORE.INTER.SOLV>
4.16378

>  <SCORE.INTER.VDW>
-18.1269

>  <SCORE.INTER.norm>
-1.97085

>  <SCORE.INTRA>
0

>  <SCORE.INTRA.DIHEDRAL>
0

>  <SCORE.INTRA.DIHEDRAL.0>
0

>  <SCORE.INTRA.POLAR>
0

>  <SCORE.INTRA.POLAR.0>
0

>  <SCORE.INTRA.REPUL>
0

>  <SCORE.INTRA.REPUL.0>
0

>  <SCORE.INTRA.SOLV>
0

>  <SCORE.INTRA.SOLV.lig_0>
-4.25352

>  <SCORE.INTRA.VDW>
0

>  <SCORE.INTRA.VDW.0>
0

>  <SCORE.INTRA.norm>
0

>  <SCORE.RESTR>
0

>  <SCORE.RESTR.CAVITY>
0

>  <SCORE.RESTR.norm>
0

>  <SCORE.SYSTEM>
0

>  <SCORE.SYSTEM.CONST>
0

>  <SCORE.SYSTEM.DIHEDRAL>
0

>  <SCORE.SYSTEM.SOLV>
0

>  <SCORE.SYSTEM.norm>
0

>  <SCORE.heavy>
10

>  <SCORE.norm>
-1.97085

>  <RMSD>
0.498

$$$$
ligand
 OpenBabel11021811423D
libRbt.so/2013.1/901 2013/11/27
 10 11  0  0  0  0  0  0  0  0999 V2000
   53.5785  -13.2276    8.8010 N   0  0  0  0  0  0  0  0  0  0  0  0
   53.8580  -14.5260    9.1193 C   0  0  0  0  0  0  0  0  0  0  0  0
   54.1794  -15.4436    8.1704 N   0  0  0  0  0  0  0  0  0  0  0  0
   54.1959  -14.9228    6.9095 C   0  0  0  0  0  0  0  0  0  0  0  0
   53.9258  -13.6270    6.5370 C   0  0  0  0  0  0  0  0  0  0  0  0
   53.5873  -12.6789    7.5067 C   0  0  0  0  0  0  0  0  0  0  0  0
   53.3153  -11.5039    7.3746 O   0  0  0  0  0  0  0  0  0  0  0  0
   54.0559  -13.5272    5.1781 N   0  0  0  0  0  0  0  0  0  0  0  0
   54.3966  -14.7327    4.7345 C   0  0  0  0  0  0  0  0  0  0  0  0
   54.4940  -15.6368    5.7757 N   0  0  0  0  0  0  0  0  0  0  0  0
  1  2  1  0  0  0  0
  1  6  1  0  0  0  0
  2  3  2  0  0  0  0
  3  4  1  0  0  0  0
  4  5  2  0  0  0  0
  4 10  1  0  0  0  0
  5  6  1  0  0  0  0
  5  8  1  0  0  0  0
  6  7  2  0  0  0  0
  8  9  1  0  0  0  0
  9 10  2  0  0  0  0
M  END
>  <CHROM.1>
53.94637484,-13.93655968,7.01988681,-2.65696417,1.31044395,-1.13794869

>  <Name>
ligand

>  <RI>
0

>  <Rbt.Current_Directory>
/home/itssahil/PROJECTS/Mol_Feturizer/New_Systems/rnas/2EEV

>  <Rbt.Executable>
rbdock ($Id: //depot/dev/client3/rdock/2013.1/src/exe/rbdock.cxx#4 $)

>  <Rbt.Library>
libRbt.so (2013.1, Build901 2013/11/27)

>  <Rbt.Parameter_File>
/export/apps/rDock/src/rDock_2013.1_src/data/scripts/dock_solv.prm

>  <Rbt.Receptor>
prm/pocket_docking_3.prm

>  <SCORE>
-19.6938

>  <SCORE.INTER>
-19.6938

>  <SCORE.INTER.CONST>
1

>  <SCORE.INTER.POLAR>
0

>  <SCORE.INTER.ROT>
0

>  <SCORE.INTER.SOLV>
4.1269

>  <SCORE.INTER.VDW>
-18.1048

>  <SCORE.INTER.norm>
-1.96938

>  <SCORE.INTRA>
0

>  <SCORE.INTRA.DIHEDRAL>
0

>  <SCORE.INTRA.DIHEDRAL.0>
0

>  <SCORE.INTRA.POLAR>
0

>  <SCORE.INTRA.POLAR.0>
0

>  <SCORE.INTRA.REPUL>
0

>  <SCORE.INTRA.REPUL.0>
0

>  <SCORE.INTRA.SOLV>
0

>  <SCORE.INTRA.SOLV.lig_0>
-4.25352

>  <SCORE.INTRA.VDW>
0

>  <SCORE.INTRA.VDW.0>
0

>  <SCORE.INTRA.norm>
0

>  <SCORE.RESTR>
0

>  <SCORE.RESTR.CAVITY>
0

>  <SCORE.RESTR.norm>
0

>  <SCORE.SYSTEM>
0

>  <SCORE.SYSTEM.CONST>
0

>  <SCORE.SYSTEM.DIHEDRAL>
0

>  <SCORE.SYSTEM.SOLV>
0

>  <SCORE.SYSTEM.norm>
0

>  <SCORE.heavy>
10

>  <SCORE.norm>
-1.96938

>  <RMSD>
0.499

$$$$
ligand
 OpenBabel11021811423D
libRbt.so/2013.1/901 2013/11/27
 10 11  0  0  0  0  0  0  0  0999 V2000
   53.5003  -13.1725    8.8145 N   0  0  0  0  0  0  0  0  0  0  0  0
   53.7172  -14.4796    9.1456 C   0  0  0  0  0  0  0  0  0  0  0  0
   54.0371  -15.4123    8.2111 N   0  0  0  0  0  0  0  0  0  0  0  0
   54.1201  -14.8970    6.9505 C   0  0  0  0  0  0  0  0  0  0  0  0
   53.9144  -13.5930    6.5656 C   0  0  0  0  0  0  0  0  0  0  0  0
   53.5778  -12.6291    7.5202 C   0  0  0  0  0  0  0  0  0  0  0  0
   53.3567  -11.4449    7.3757 O   0  0  0  0  0  0  0  0  0  0  0  0
   54.0979  -13.5032    5.2122 N   0  0  0  0  0  0  0  0  0  0  0  0
   54.4075  -14.7226    4.7840 C   0  0  0  0  0  0  0  0  0  0  0  0
   54.4315  -15.6260    5.8300 N   0  0  0  0  0  0  0  0  0  0  0  0
  1  2  1  0  0  0  0
  1  6  1  0  0  0  0
  2  3  2  0  0  0  0
  3  4  1  0  0  0  0
  4  5  2  0  0  0  0
  4 10  1  0  0  0  0
  5  6  1  0  0  0  0
  5  8  1  0  0  0  0
  6  7  2  0  0  0  0
  8  9  1  0  0  0  0
  9 10  2  0  0  0  0
M  END
>  <CHROM.1>
53.90524527,-13.90145362,7.04960951,-2.86240683,1.32547921,-0.94182522

>  <Name>
ligand

>  <RI>
0

>  <Rbt.Current_Directory>
/home/itssahil/PROJECTS/Mol_Feturizer/New_Systems/rnas/2EEV

>  <Rbt.Executable>
rbdock ($Id: //depot/dev/client3/rdock/2013.1/src/exe/rbdock.cxx#4 $)

>  <Rbt.Library>
libRbt.so (2013.1, Build901 2013/11/27)

>  <Rbt.Parameter_File>
/export/apps/rDock/src/rDock_2013.1_src/data/scripts/dock_solv.prm

>  <Rbt.Receptor>
prm/pocket_docking_7.prm

>  <SCORE>
-19.672

>  <SCORE.INTER>
-19.672

>  <SCORE.INTER.CONST>
1

>  <SCORE.INTER.POLAR>
0

>  <SCORE.INTER.ROT>
0

>  <SCORE.INTER.SOLV>
4.24184

>  <SCORE.INTER.VDW>
-18.1286

>  <SCORE.INTER.norm>
-1.9672

>  <SCORE.INTRA>
0

>  <SCORE.INTRA.DIHEDRAL>
0

>  <SCORE.INTRA.DIHEDRAL.0>
0

>  <SCORE.INTRA.POLAR>
0

>  <SCORE.INTRA.POLAR.0>
0

>  <SCORE.INTRA.REPUL>
0

>  <SCORE.INTRA.REPUL.0>
0

>  <SCORE.INTRA.SOLV>
0

>  <SCORE.INTRA.SOLV.lig_0>
-4.25352

>  <SCORE.INTRA.VDW>
0

>  <SCORE.INTRA.VDW.0>
0

>  <SCORE.INTRA.norm>
0

>  <SCORE.RESTR>
0

>  <SCORE.RESTR.CAVITY>
0

>  <SCORE.RESTR.norm>
0

>  <SCORE.SYSTEM>
0

>  <SCORE.SYSTEM.CONST>
0

>  <SCORE.SYSTEM.DIHEDRAL>
0

>  <SCORE.SYSTEM.SOLV>
0

>  <SCORE.SYSTEM.norm>
0

>  <SCORE.heavy>
10

>  <SCORE.norm>
-1.9672

>  <RMSD>
0.502

$$$$
ligand
 OpenBabel11021811423D
libRbt.so/2013.1/901 2013/11/27
 10 11  0  0  0  0  0  0  0  0999 V2000
   53.5500  -13.2795    8.8006 N   0  0  0  0  0  0  0  0  0  0  0  0
   53.7876  -14.5884    9.1099 C   0  0  0  0  0  0  0  0  0  0  0  0
   54.0884  -15.5073    8.1555 N   0  0  0  0  0  0  0  0  0  0  0  0
   54.1302  -14.9768    6.8993 C   0  0  0  0  0  0  0  0  0  0  0  0
   53.9023  -13.6704    6.5359 C   0  0  0  0  0  0  0  0  0  0  0  0
   53.5852  -12.7205    7.5111 C   0  0  0  0  0  0  0  0  0  0  0  0
   53.3498  -11.5368    7.3870 O   0  0  0  0  0  0  0  0  0  0  0  0
   54.0457  -13.5633    5.1789 N   0  0  0  0  0  0  0  0  0  0  0  0
   54.3532  -14.7748    4.7275 C   0  0  0  0  0  0  0  0  0  0  0  0
   54.4153  -15.6900    5.7616 N   0  0  0  0  0  0  0  0  0  0  0  0
  1  2  1  0  0  0  0
  1  6  1  0  0  0  0
  2  3  2  0  0  0  0
  3  4  1  0  0  0  0
  4  5  2  0  0  0  0
  4 10  1  0  0  0  0
  5  6  1  0  0  0  0
  5  8  1  0  0  0  0
  6  7  2  0  0  0  0
  8  9  1  0  0  0  0
  9 10  2  0  0  0  0
M  END
>  <CHROM.1>
53.90980300,-13.98442987,7.01624770,-2.74053245,1.33388061,-1.04850395

>  <Name>
ligand

>  <RI>
0

>  <Rbt.Current_Directory>
/home/itssahil/PROJECTS/Mol_Feturizer/New_Systems/rnas/2EEV

>  <Rbt.Executable>
rbdock ($Id: //depot/dev/client3/rdock/2013.1/src/exe/rbdock.cxx#4 $)

>  <Rbt.Library>
libRbt.so (2013.1, Build901 2013/11/27)

>  <Rbt.Parameter_File>
/export/apps/rDock/src/rDock_2013.1_src/data/scripts/dock_solv.prm

>  <Rbt.Receptor>
prm/pocket_docking_3.prm

>  <SCORE>
-19.7182

>  <SCORE.INTER>
-19.7182

>  <SCORE.INTER.CONST>
1

>  <SCORE.INTER.POLAR>
0

>  <SCORE.INTER.ROT>
0

>  <SCORE.INTER.SOLV>
4.23514

>  <SCORE.INTER.VDW>
-18.1572

>  <SCORE.INTER.norm>
-1.97182

>  <SCORE.INTRA>
0

>  <SCORE.INTRA.DIHEDRAL>
0

>  <SCORE.INTRA.DIHEDRAL.0>
0

>  <SCORE.INTRA.POLAR>
0

>  <SCORE.INTRA.POLAR.0>
0

>  <SCORE.INTRA.REPUL>
0

>  <SCORE.INTRA.REPUL.0>
0

>  <SCORE.INTRA.SOLV>
0

>  <SCORE.INTRA.SOLV.lig_0>
-4.25352

>  <SCORE.INTRA.VDW>
0

>  <SCORE.INTRA.VDW.0>
0

>  <SCORE.INTRA.norm>
0

>  <SCORE.RESTR>
0

>  <SCORE.RESTR.CAVITY>
0

>  <SCORE.RESTR.norm>
0

>  <SCORE.SYSTEM>
0

>  <SCORE.SYSTEM.CONST>
0

>  <SCORE.SYSTEM.DIHEDRAL>
0

>  <SCORE.SYSTEM.SOLV>
0

>  <SCORE.SYSTEM.norm>
0

>  <SCORE.heavy>
10

>  <SCORE.norm>
-1.97182

>  <RMSD>
0.503

$$$$
ligand
 OpenBabel11021811423D
libRbt.so/2013.1/901 2013/11/27
 10 11  0  0  0  0  0  0  0  0999 V2000
   53.5212  -13.2784    8.7986 N   0  0  0  0  0  0  0  0  0  0  0  0
   53.7530  -14.5903    9.0992 C   0  0  0  0  0  0  0  0  0  0  0  0
   54.0670  -15.5006    8.1409 N   0  0  0  0  0  0  0  0  0  0  0  0
   54.1281  -14.9585    6.8904 C   0  0  0  0  0  0  0  0  0  0  0  0
   53.9068  -13.6485    6.5359 C   0  0  0  0  0  0  0  0  0  0  0  0
   53.5761  -12.7074    7.5151 C   0  0  0  0  0  0  0  0  0  0  0  0
   53.3437  -11.5224    7.3985 O   0  0  0  0  0  0  0  0  0  0  0  0
   54.0705  -13.5290    5.1822 N   0  0  0  0  0  0  0  0  0  0  0  0
   54.3835  -14.7366    4.7242 C   0  0  0  0  0  0  0  0  0  0  0  0
   54.4294  -15.6615    5.7506 N   0  0  0  0  0  0  0  0  0  0  0  0
  1  2  1  0  0  0  0
  1  6  1  0  0  0  0
  2  3  2  0  0  0  0
  3  4  1  0  0  0  0
  4  5  2  0  0  0  0
  4 10  1  0  0  0  0
  5  6  1  0  0  0  0
  5  8  1  0  0  0  0
  6  7  2  0  0  0  0
  8  9  1  0  0  0  0
  9 10  2  0  0  0  0
M  END
>  <CHROM.1>
53.90685871,-13.96704084,7.01333266,-2.79594259,1.32691219,-0.98539481

>  <Name>
ligand

>  <RI>
0

>  <Rbt.Current_Directory>
/home/itssahil/PROJECTS/Mol_Feturizer/New_Systems/rnas/2EEV

>  <Rbt.Executable>
rbdock ($Id: //depot/dev/client3/rdock/2013.1/src/exe/rbdock.cxx#4 $)

>  <Rbt.Library>
libRbt.so (2013.1, Build901 2013/11/27)

>  <Rbt.Parameter_File>
/export/apps/rDock/src/rDock_2013.1_src/data/scripts/dock_solv.prm

>  <Rbt.Receptor>
prm/pocket_docking_5.prm

>  <SCORE>
-19.6549

>  <SCORE.INTER>
-19.6549

>  <SCORE.INTER.CONST>
1

>  <SCORE.INTER.POLAR>
0

>  <SCORE.INTER.ROT>
0

>  <SCORE.INTER.SOLV>
4.22977

>  <SCORE.INTER.VDW>
-18.1132

>  <SCORE.INTER.norm>
-1.96549

>  <SCORE.INTRA>
0

>  <SCORE.INTRA.DIHEDRAL>
0

>  <SCORE.INTRA.DIHEDRAL.0>
0

>  <SCORE.INTRA.POLAR>
0

>  <SCORE.INTRA.POLAR.0>
0

>  <SCORE.INTRA.REPUL>
0

>  <SCORE.INTRA.REPUL.0>
0

>  <SCORE.INTRA.SOLV>
0

>  <SCORE.INTRA.SOLV.lig_0>
-4.25352

>  <SCORE.INTRA.VDW>
0

>  <SCORE.INTRA.VDW.0>
0

>  <SCORE.INTRA.norm>
0

>  <SCORE.RESTR>
0

>  <SCORE.RESTR.CAVITY>
0

>  <SCORE.RESTR.norm>
0

>  <SCORE.SYSTEM>
0

>  <SCORE.SYSTEM.CONST>
0

>  <SCORE.SYSTEM.DIHEDRAL>
0

>  <SCORE.SYSTEM.SOLV>
0

>  <SCORE.SYSTEM.norm>
0

>  <SCORE.heavy>
10

>  <SCORE.norm>
-1.96549

>  <RMSD>
0.503

$$$$
ligand
 OpenBabel11021811423D
libRbt.so/2013.1/901 2013/11/27
 10 11  0  0  0  0  0  0  0  0999 V2000
   53.6024  -13.2292    8.7975 N   0  0  0  0  0  0  0  0  0  0  0  0
   53.9027  -14.5240    9.1116 C   0  0  0  0  0  0  0  0  0  0  0  0
   54.2201  -15.4379    8.1579 N   0  0  0  0  0  0  0  0  0  0  0  0
   54.2103  -14.9175    6.8968 C   0  0  0  0  0  0  0  0  0  0  0  0
   53.9186  -13.6252    6.5284 C   0  0  0  0  0  0  0  0  0  0  0  0
   53.5839  -12.6809    7.5031 C   0  0  0  0  0  0  0  0  0  0  0  0
   53.2956  -11.5094    7.3751 O   0  0  0  0  0  0  0  0  0  0  0  0
   54.0259  -13.5244    5.1676 N   0  0  0  0  0  0  0  0  0  0  0  0
   54.3742  -14.7258    4.7189 C   0  0  0  0  0  0  0  0  0  0  0  0
   54.4992  -15.6282    5.7585 N   0  0  0  0  0  0  0  0  0  0  0  0
  1  2  1  0  0  0  0
  1  6  1  0  0  0  0
  2  3  2  0  0  0  0
  3  4  1  0  0  0  0
  4  5  2  0  0  0  0
  4 10  1  0  0  0  0
  5  6  1  0  0  0  0
  5  8  1  0  0  0  0
  6  7  2  0  0  0  0
  8  9  1  0  0  0  0
  9 10  2  0  0  0  0
M  END
>  <CHROM.1>
53.95060317,-13.93431515,7.01092863,-2.58259747,1.30531967,-1.21004895

>  <Name>
ligand

>  <RI>
0

>  <Rbt.Current_Directory>
/home/itssahil/PROJECTS/Mol_Feturizer/New_Systems/rnas/2EEV

>  <Rbt.Executable>
rbdock ($Id: //depot/dev/client3/rdock/2013.1/src/exe/rbdock.cxx#4 $)

>  <Rbt.Library>
libRbt.so (2013.1, Build901 2013/11/27)

>  <Rbt.Parameter_File>
/export/apps/rDock/src/rDock_2013.1_src/data/scripts/dock_solv.prm

>  <Rbt.Receptor>
prm/pocket_docking_4.prm

>  <SCORE>
-19.6919

>  <SCORE.INTER>
-19.6919

>  <SCORE.INTER.CONST>
1

>  <SCORE.INTER.POLAR>
0

>  <SCORE.INTER.ROT>
0

>  <SCORE.INTER.SOLV>
4.08888

>  <SCORE.INTER.VDW>
-18.0909

>  <SCORE.INTER.norm>
-1.96919

>  <SCORE.INTRA>
0

>  <SCORE.INTRA.DIHEDRAL>
0

>  <SCORE.INTRA.DIHEDRAL.0>
0

>  <SCORE.INTRA.POLAR>
0

>  <SCORE.INTRA.POLAR.0>
0

>  <SCORE.INTRA.REPUL>
0

>  <SCORE.INTRA.REPUL.0>
0

>  <SCORE.INTRA.SOLV>
0

>  <SCORE.INTRA.SOLV.lig_0>
-4.25352

>  <SCORE.INTRA.VDW>
0

>  <SCORE.INTRA.VDW.0>
0

>  <SCORE.INTRA.norm>
0

>  <SCORE.RESTR>
0

>  <SCORE.RESTR.CAVITY>
0

>  <SCORE.RESTR.norm>
0

>  <SCORE.SYSTEM>
0

>  <SCORE.SYSTEM.CONST>
0

>  <SCORE.SYSTEM.DIHEDRAL>
0

>  <SCORE.SYSTEM.SOLV>
0

>  <SCORE.SYSTEM.norm>
0

>  <SCORE.heavy>
10

>  <SCORE.norm>
-1.96919

>  <RMSD>
0.504

$$$$
ligand
 OpenBabel11021811423D
libRbt.so/2013.1/901 2013/11/27
 10 11  0  0  0  0  0  0  0  0999 V2000
   53.5417  -13.2630    8.7975 N   0  0  0  0  0  0  0  0  0  0  0  0
   53.8083  -14.5685    9.0974 C   0  0  0  0  0  0  0  0  0  0  0  0
   54.1250  -15.4746    8.1360 N   0  0  0  0  0  0  0  0  0  0  0  0
   54.1511  -14.9353    6.8831 C   0  0  0  0  0  0  0  0  0  0  0  0
   53.8940  -13.6317    6.5291 C   0  0  0  0  0  0  0  0  0  0  0  0
   53.5603  -12.6951    7.5115 C   0  0  0  0  0  0  0  0  0  0  0  0
   53.2994  -11.5159    7.3960 O   0  0  0  0  0  0  0  0  0  0  0  0
   54.0302  -13.5129    5.1723 N   0  0  0  0  0  0  0  0  0  0  0  0
   54.3618  -14.7146    4.7120 C   0  0  0  0  0  0  0  0  0  0  0  0
   54.4471  -15.6350    5.7399 N   0  0  0  0  0  0  0  0  0  0  0  0
  1  2  1  0  0  0  0
  1  6  1  0  0  0  0
  2  3  2  0  0  0  0
  3  4  1  0  0  0  0
  4  5  2  0  0  0  0
  4 10  1  0  0  0  0
  5  6  1  0  0  0  0
  5  8  1  0  0  0  0
  6  7  2  0  0  0  0
  8  9  1  0  0  0  0
  9 10  2  0  0  0  0
M  END
>  <CHROM.1>
53.91000418,-13.94862515,7.00734508,-2.68578709,1.31688316,-1.09515261

>  <Name>
ligand

>  <RI>
0

>  <Rbt.Current_Directory>
/home/itssahil/PROJECTS/Mol_Feturizer/New_Systems/rnas/2EEV

>  <Rbt.Executable>
rbdock ($Id: //depot/dev/client3/rdock/2013.1/src/exe/rbdock.cxx#4 $)

>  <Rbt.Library>
libRbt.so (2013.1, Build901 2013/11/27)

>  <Rbt.Parameter_File>
/export/apps/rDock/src/rDock_2013.1_src/data/scripts/dock_solv.prm

>  <Rbt.Receptor>
prm/pocket_docking_5.prm

>  <SCORE>
-19.681

>  <SCORE.INTER>
-19.681

>  <SCORE.INTER.CONST>
1

>  <SCORE.INTER.POLAR>
0

>  <SCORE.INTER.ROT>
0

>  <SCORE.INTER.SOLV>
4.15777

>  <SCORE.INTER.VDW>
-18.1066

>  <SCORE.INTER.norm>
-1.9681

>  <SCORE.INTRA>
0

>  <SCORE.INTRA.DIHEDRAL>
0

>  <SCORE.INTRA.DIHEDRAL.0>
0

>  <SCORE.INTRA.POLAR>
0

>  <SCORE.INTRA.POLAR.0>
0

>  <SCORE.INTRA.REPUL>
0

>  <SCORE.INTRA.REPUL.0>
0

>  <SCORE.INTRA.SOLV>
0

>  <SCORE.INTRA.SOLV.lig_0>
-4.25352

>  <SCORE.INTRA.VDW>
0

>  <SCORE.INTRA.VDW.0>
0

>  <SCORE.INTRA.norm>
0

>  <SCORE.RESTR>
0

>  <SCORE.RESTR.CAVITY>
0

>  <SCORE.RESTR.norm>
0

>  <SCORE.SYSTEM>
0

>  <SCORE.SYSTEM.CONST>
0

>  <SCORE.SYSTEM.DIHEDRAL>
0

>  <SCORE.SYSTEM.SOLV>
0

>  <SCORE.SYSTEM.norm>
0

>  <SCORE.heavy>
10

>  <SCORE.norm>
-1.9681

>  <RMSD>
0.504

$$$$
ligand
 OpenBabel11021811423D
libRbt.so/2013.1/901 2013/11/27
 10 11  0  0  0  0  0  0  0  0999 V2000
   53.4564  -13.0580    8.8456 N   0  0  0  0  0  0  0  0  0  0  0  0
   53.6950  -14.3529    9.2083 C   0  0  0  0  0  0  0  0  0  0  0  0
   54.0330  -15.3019    8.2968 N   0  0  0  0  0  0  0  0  0  0  0  0
   54.1098  -14.8155    7.0245 C   0  0  0  0  0  0  0  0  0  0  0  0
   53.8826  -13.5248    6.6082 C   0  0  0  0  0  0  0  0  0  0  0  0
   53.5273  -12.5443    7.5389 C   0  0  0  0  0  0  0  0  0  0  0  0
   53.2863  -11.3679    7.3658 O   0  0  0  0  0  0  0  0  0  0  0  0
   54.0676  -13.4641    5.2534 N   0  0  0  0  0  0  0  0  0  0  0  0
   54.3990  -14.6878    4.8549 C   0  0  0  0  0  0  0  0  0  0  0  0
   54.4362  -15.5655    5.9222 N   0  0  0  0  0  0  0  0  0  0  0  0
  1  2  1  0  0  0  0
  1  6  1  0  0  0  0
  2  3  2  0  0  0  0
  3  4  1  0  0  0  0
  4  5  2  0  0  0  0
  4 10  1  0  0  0  0
  5  6  1  0  0  0  0
  5  8  1  0  0  0  0
  6  7  2  0  0  0  0
  8  9  1  0  0  0  0
  9 10  2  0  0  0  0
M  END
>  <CHROM.1>
53.87770012,-13.82171499,7.09937536,-2.83012922,1.31013023,-0.99693087

>  <Name>
ligand

>  <RI>
0

>  <Rbt.Current_Directory>
/home/itssahil/PROJECTS/Mol_Feturizer/New_Systems/rnas/2EEV

>  <Rbt.Executable>
rbdock ($Id: //depot/dev/client3/rdock/2013.1/src/exe/rbdock.cxx#4 $)

>  <Rbt.Library>
libRbt.so (2013.1, Build901 2013/11/27)

>  <Rbt.Parameter_File>
/export/apps/rDock/src/rDock_2013.1_src/data/scripts/dock_solv.prm

>  <Rbt.Receptor>
prm/pocket_docking_7.prm

>  <SCORE>
-19.6558

>  <SCORE.INTER>
-19.6558

>  <SCORE.INTER.CONST>
1

>  <SCORE.INTER.POLAR>
0

>  <SCORE.INTER.ROT>
0

>  <SCORE.INTER.SOLV>
4.15596

>  <SCORE.INTER.VDW>
-18.0892

>  <SCORE.INTER.norm>
-1.96558

>  <SCORE.INTRA>
0

>  <SCORE.INTRA.DIHEDRAL>
0

>  <SCORE.INTRA.DIHEDRAL.0>
0

>  <SCORE.INTRA.POLAR>
0

>  <SCORE.INTRA.POLAR.0>
0

>  <SCORE.INTRA.REPUL>
0

>  <SCORE.INTRA.REPUL.0>
0

>  <SCORE.INTRA.SOLV>
0

>  <SCORE.INTRA.SOLV.lig_0>
-4.25352

>  <SCORE.INTRA.VDW>
0

>  <SCORE.INTRA.VDW.0>
0

>  <SCORE.INTRA.norm>
0

>  <SCORE.RESTR>
0

>  <SCORE.RESTR.CAVITY>
0

>  <SCORE.RESTR.norm>
0

>  <SCORE.SYSTEM>
0

>  <SCORE.SYSTEM.CONST>
0

>  <SCORE.SYSTEM.DIHEDRAL>
0

>  <SCORE.SYSTEM.SOLV>
0

>  <SCORE.SYSTEM.norm>
0

>  <SCORE.heavy>
10

>  <SCORE.norm>
-1.96558

>  <RMSD>
0.505

$$$$
ligand
 OpenBabel11021811423D
libRbt.so/2013.1/901 2013/11/27
 10 11  0  0  0  0  0  0  0  0999 V2000
   53.5358  -13.2882    8.7950 N   0  0  0  0  0  0  0  0  0  0  0  0
   53.7713  -14.6005    9.0909 C   0  0  0  0  0  0  0  0  0  0  0  0
   54.0843  -15.5073    8.1289 N   0  0  0  0  0  0  0  0  0  0  0  0
   54.1403  -14.9613    6.8798 C   0  0  0  0  0  0  0  0  0  0  0  0
   53.9151  -13.6507    6.5299 C   0  0  0  0  0  0  0  0  0  0  0  0
   53.5854  -12.7133    7.5130 C   0  0  0  0  0  0  0  0  0  0  0  0
   53.3501  -11.5283    7.4007 O   0  0  0  0  0  0  0  0  0  0  0  0
   54.0743  -13.5267    5.1761 N   0  0  0  0  0  0  0  0  0  0  0  0
   54.3885  -14.7323    4.7135 C   0  0  0  0  0  0  0  0  0  0  0  0
   54.4396  -15.6601    5.7369 N   0  0  0  0  0  0  0  0  0  0  0  0
  1  2  1  0  0  0  0
  1  6  1  0  0  0  0
  2  3  2  0  0  0  0
  3  4  1  0  0  0  0
  4  5  2  0  0  0  0
  4 10  1  0  0  0  0
  5  6  1  0  0  0  0
  5  8  1  0  0  0  0
  6  7  2  0  0  0  0
  8  9  1  0  0  0  0
  9 10  2  0  0  0  0
M  END
>  <CHROM.1>
53.91735514,-13.97063548,7.00643115,-2.78022851,1.32681616,-0.99763114

>  <Name>
ligand

>  <RI>
0

>  <Rbt.Current_Directory>
/home/itssahil/PROJECTS/Mol_Feturizer/New_Systems/rnas/2EEV

>  <Rbt.Executable>
rbdock ($Id: //depot/dev/client3/rdock/2013.1/src/exe/rbdock.cxx#4 $)

>  <Rbt.Library>
libRbt.so (2013.1, Build901 2013/11/27)

>  <Rbt.Parameter_File>
/export/apps/rDock/src/rDock_2013.1_src/data/scripts/dock_solv.prm

>  <Rbt.Receptor>
prm/blind_docking_60.prm

>  <SCORE>
-19.707

>  <SCORE.INTER>
-19.707

>  <SCORE.INTER.CONST>
1

>  <SCORE.INTER.POLAR>
0

>  <SCORE.INTER.ROT>
0

>  <SCORE.INTER.SOLV>
4.22285

>  <SCORE.INTER.VDW>
-18.1456

>  <SCORE.INTER.norm>
-1.9707

>  <SCORE.INTRA>
0

>  <SCORE.INTRA.DIHEDRAL>
0

>  <SCORE.INTRA.DIHEDRAL.0>
0

>  <SCORE.INTRA.POLAR>
0

>  <SCORE.INTRA.POLAR.0>
0

>  <SCORE.INTRA.REPUL>
0

>  <SCORE.INTRA.REPUL.0>
0

>  <SCORE.INTRA.SOLV>
0

>  <SCORE.INTRA.SOLV.lig_0>
-4.25352

>  <SCORE.INTRA.VDW>
0

>  <SCORE.INTRA.VDW.0>
0

>  <SCORE.INTRA.norm>
0

>  <SCORE.RESTR>
0

>  <SCORE.RESTR.CAVITY>
0

>  <SCORE.RESTR.norm>
0

>  <SCORE.SYSTEM>
0

>  <SCORE.SYSTEM.CONST>
0

>  <SCORE.SYSTEM.DIHEDRAL>
0

>  <SCORE.SYSTEM.SOLV>
0

>  <SCORE.SYSTEM.norm>
0

>  <SCORE.heavy>
10

>  <SCORE.norm>
-1.9707

>  <RMSD>
0.506

$$$$
ligand
 OpenBabel11021811423D
libRbt.so/2013.1/901 2013/11/27
 10 11  0  0  0  0  0  0  0  0999 V2000
   53.5281  -13.2712    8.7996 N   0  0  0  0  0  0  0  0  0  0  0  0
   53.7400  -14.5841    9.1104 C   0  0  0  0  0  0  0  0  0  0  0  0
   54.0439  -15.5058    8.1598 N   0  0  0  0  0  0  0  0  0  0  0  0
   54.1167  -14.9738    6.9056 C   0  0  0  0  0  0  0  0  0  0  0  0
   53.9155  -13.6633    6.5409 C   0  0  0  0  0  0  0  0  0  0  0  0
   53.5953  -12.7105    7.5122 C   0  0  0  0  0  0  0  0  0  0  0  0
   53.3805  -11.5231    7.3863 O   0  0  0  0  0  0  0  0  0  0  0  0
   54.0852  -13.5560    5.1869 N   0  0  0  0  0  0  0  0  0  0  0  0
   54.3822  -14.7713    4.7387 C   0  0  0  0  0  0  0  0  0  0  0  0
   54.4114  -15.6892    5.7719 N   0  0  0  0  0  0  0  0  0  0  0  0
  1  2  1  0  0  0  0
  1  6  1  0  0  0  0
  2  3  2  0  0  0  0
  3  4  1  0  0  0  0
  4  5  2  0  0  0  0
  4 10  1  0  0  0  0
  5  6  1  0  0  0  0
  5  8  1  0  0  0  0
  6  7  2  0  0  0  0
  8  9  1  0  0  0  0
  9 10  2  0  0  0  0
M  END
>  <CHROM.1>
53.90947650,-13.97833920,7.02063804,-2.84177319,1.33697008,-0.94810856

>  <Name>
ligand

>  <RI>
0

>  <Rbt.Current_Directory>
/home/itssahil/PROJECTS/Mol_Feturizer/New_Systems/rnas/2EEV

>  <Rbt.Executable>
rbdock ($Id: //depot/dev/client3/rdock/2013.1/src/exe/rbdock.cxx#4 $)

>  <Rbt.Library>
libRbt.so (2013.1, Build901 2013/11/27)

>  <Rbt.Parameter_File>
/export/apps/rDock/src/rDock_2013.1_src/data/scripts/dock_solv.prm

>  <Rbt.Receptor>
prm/pocket_docking_5.prm

>  <SCORE>
-19.6476

>  <SCORE.INTER>
-19.6476

>  <SCORE.INTER.CONST>
1

>  <SCORE.INTER.POLAR>
0

>  <SCORE.INTER.ROT>
0

>  <SCORE.INTER.SOLV>
4.2793

>  <SCORE.INTER.VDW>
-18.1248

>  <SCORE.INTER.norm>
-1.96476

>  <SCORE.INTRA>
0

>  <SCORE.INTRA.DIHEDRAL>
0

>  <SCORE.INTRA.DIHEDRAL.0>
0

>  <SCORE.INTRA.POLAR>
0

>  <SCORE.INTRA.POLAR.0>
0

>  <SCORE.INTRA.REPUL>
0

>  <SCORE.INTRA.REPUL.0>
0

>  <SCORE.INTRA.SOLV>
0

>  <SCORE.INTRA.SOLV.lig_0>
-4.25352

>  <SCORE.INTRA.VDW>
0

>  <SCORE.INTRA.VDW.0>
0

>  <SCORE.INTRA.norm>
0

>  <SCORE.RESTR>
0

>  <SCORE.RESTR.CAVITY>
0

>  <SCORE.RESTR.norm>
0

>  <SCORE.SYSTEM>
0

>  <SCORE.SYSTEM.CONST>
0

>  <SCORE.SYSTEM.DIHEDRAL>
0

>  <SCORE.SYSTEM.SOLV>
0

>  <SCORE.SYSTEM.norm>
0

>  <SCORE.heavy>
10

>  <SCORE.norm>
-1.96476

>  <RMSD>
0.506

$$$$
ligand
 OpenBabel11021811423D
libRbt.so/2013.1/901 2013/11/27
 10 11  0  0  0  0  0  0  0  0999 V2000
   53.4567  -13.0746    8.8430 N   0  0  0  0  0  0  0  0  0  0  0  0
   53.6764  -14.3684    9.2215 C   0  0  0  0  0  0  0  0  0  0  0  0
   53.9914  -15.3352    8.3207 N   0  0  0  0  0  0  0  0  0  0  0  0
   54.0666  -14.8675    7.0413 C   0  0  0  0  0  0  0  0  0  0  0  0
   53.8578  -13.5789    6.6091 C   0  0  0  0  0  0  0  0  0  0  0  0
   53.5262  -12.5800    7.5289 C   0  0  0  0  0  0  0  0  0  0  0  0
   53.3035  -11.4022    7.3414 O   0  0  0  0  0  0  0  0  0  0  0  0
   54.0333  -13.5398    5.2522 N   0  0  0  0  0  0  0  0  0  0  0  0
   54.3411  -14.7742    4.8681 C   0  0  0  0  0  0  0  0  0  0  0  0
   54.3719  -15.6378    5.9470 N   0  0  0  0  0  0  0  0  0  0  0  0
  1  2  1  0  0  0  0
  1  6  1  0  0  0  0
  2  3  2  0  0  0  0
  3  4  1  0  0  0  0
  4  5  2  0  0  0  0
  4 10  1  0  0  0  0
  5  6  1  0  0  0  0
  5  8  1  0  0  0  0
  6  7  2  0  0  0  0
  8  9  1  0  0  0  0
  9 10  2  0  0  0  0
M  END
>  <CHROM.1>
53.85169845,-13.86903128,7.10427576,-2.84099332,1.32836143,-1.00005543

>  <Name>
ligand

>  <RI>
0

>  <Rbt.Current_Directory>
/home/itssahil/PROJECTS/Mol_Feturizer/New_Systems/rnas/2EEV

>  <Rbt.Executable>
rbdock ($Id: //depot/dev/client3/rdock/2013.1/src/exe/rbdock.cxx#4 $)

>  <Rbt.Library>
libRbt.so (2013.1, Build901 2013/11/27)

>  <Rbt.Parameter_File>
/export/apps/rDock/src/rDock_2013.1_src/data/scripts/dock_solv.prm

>  <Rbt.Receptor>
prm/pocket_docking_8.prm

>  <SCORE>
-19.6923

>  <SCORE.INTER>
-19.6923

>  <SCORE.INTER.CONST>
1

>  <SCORE.INTER.POLAR>
0

>  <SCORE.INTER.ROT>
0

>  <SCORE.INTER.SOLV>
4.2329

>  <SCORE.INTER.VDW>
-18.1392

>  <SCORE.INTER.norm>
-1.96923

>  <SCORE.INTRA>
0

>  <SCORE.INTRA.DIHEDRAL>
0

>  <SCORE.INTRA.DIHEDRAL.0>
0

>  <SCORE.INTRA.POLAR>
0

>  <SCORE.INTRA.POLAR.0>
0

>  <SCORE.INTRA.REPUL>
0

>  <SCORE.INTRA.REPUL.0>
0

>  <SCORE.INTRA.SOLV>
0

>  <SCORE.INTRA.SOLV.lig_0>
-4.25352

>  <SCORE.INTRA.VDW>
0

>  <SCORE.INTRA.VDW.0>
0

>  <SCORE.INTRA.norm>
0

>  <SCORE.RESTR>
0

>  <SCORE.RESTR.CAVITY>
0

>  <SCORE.RESTR.norm>
0

>  <SCORE.SYSTEM>
0

>  <SCORE.SYSTEM.CONST>
0

>  <SCORE.SYSTEM.DIHEDRAL>
0

>  <SCORE.SYSTEM.SOLV>
0

>  <SCORE.SYSTEM.norm>
0

>  <SCORE.heavy>
10

>  <SCORE.norm>
-1.96923

>  <RMSD>
0.506

$$$$
ligand
 OpenBabel11021811423D
libRbt.so/2013.1/901 2013/11/27
 10 11  0  0  0  0  0  0  0  0999 V2000
   53.5270  -13.1551    8.8121 N   0  0  0  0  0  0  0  0  0  0  0  0
   53.7693  -14.4554    9.1524 C   0  0  0  0  0  0  0  0  0  0  0  0
   54.0778  -15.3947    8.2206 N   0  0  0  0  0  0  0  0  0  0  0  0
   54.1219  -14.8931    6.9526 C   0  0  0  0  0  0  0  0  0  0  0  0
   53.8895  -13.5964    6.5583 C   0  0  0  0  0  0  0  0  0  0  0  0
   53.5645  -12.6258    7.5102 C   0  0  0  0  0  0  0  0  0  0  0  0
   53.3243  -11.4464    7.3580 O   0  0  0  0  0  0  0  0  0  0  0  0
   54.0375  -13.5200    5.1998 N   0  0  0  0  0  0  0  0  0  0  0  0
   54.3521  -14.7402    4.7776 C   0  0  0  0  0  0  0  0  0  0  0  0
   54.4144  -15.6310    5.8328 N   0  0  0  0  0  0  0  0  0  0  0  0
  1  2  1  0  0  0  0
  1  6  1  0  0  0  0
  2  3  2  0  0  0  0
  3  4  1  0  0  0  0
  4  5  2  0  0  0  0
  4 10  1  0  0  0  0
  5  6  1  0  0  0  0
  5  8  1  0  0  0  0
  6  7  2  0  0  0  0
  8  9  1  0  0  0  0
  9 10  2  0  0  0  0
M  END
>  <CHROM.1>
53.89661577,-13.89929670,7.04584835,-2.74470095,1.32813022,-1.06752597

>  <Name>
ligand

>  <RI>
0

>  <Rbt.Current_Directory>
/home/itssahil/PROJECTS/Mol_Feturizer/New_Systems/rnas/2EEV

>  <Rbt.Executable>
rbdock ($Id: //depot/dev/client3/rdock/2013.1/src/exe/rbdock.cxx#4 $)

>  <Rbt.Library>
libRbt.so (2013.1, Build901 2013/11/27)

>  <Rbt.Parameter_File>
/export/apps/rDock/src/rDock_2013.1_src/data/scripts/dock_solv.prm

>  <Rbt.Receptor>
prm/blind_docking_100.prm

>  <SCORE>
-19.671

>  <SCORE.INTER>
-19.671

>  <SCORE.INTER.CONST>
1

>  <SCORE.INTER.POLAR>
0

>  <SCORE.INTER.ROT>
0

>  <SCORE.INTER.SOLV>
4.20732

>  <SCORE.INTER.VDW>
-18.1165

>  <SCORE.INTER.norm>
-1.9671

>  <SCORE.INTRA>
0

>  <SCORE.INTRA.DIHEDRAL>
0

>  <SCORE.INTRA.DIHEDRAL.0>
0

>  <SCORE.INTRA.POLAR>
0

>  <SCORE.INTRA.POLAR.0>
0

>  <SCORE.INTRA.REPUL>
0

>  <SCORE.INTRA.REPUL.0>
0

>  <SCORE.INTRA.SOLV>
0

>  <SCORE.INTRA.SOLV.lig_0>
-4.25352

>  <SCORE.INTRA.VDW>
0

>  <SCORE.INTRA.VDW.0>
0

>  <SCORE.INTRA.norm>
0

>  <SCORE.RESTR>
0

>  <SCORE.RESTR.CAVITY>
0

>  <SCORE.RESTR.norm>
0

>  <SCORE.SYSTEM>
0

>  <SCORE.SYSTEM.CONST>
0

>  <SCORE.SYSTEM.DIHEDRAL>
0

>  <SCORE.SYSTEM.SOLV>
0

>  <SCORE.SYSTEM.norm>
0

>  <SCORE.heavy>
10

>  <SCORE.norm>
-1.9671

>  <RMSD>
0.507

$$$$
ligand
 OpenBabel11021811423D
libRbt.so/2013.1/901 2013/11/27
 10 11  0  0  0  0  0  0  0  0999 V2000
   53.5037  -13.2963    8.7818 N   0  0  0  0  0  0  0  0  0  0  0  0
   53.7842  -14.6010    9.0723 C   0  0  0  0  0  0  0  0  0  0  0  0
   54.1241  -15.4934    8.1060 N   0  0  0  0  0  0  0  0  0  0  0  0
   54.1574  -14.9416    6.8587 C   0  0  0  0  0  0  0  0  0  0  0  0
   53.8871  -13.6381    6.5142 C   0  0  0  0  0  0  0  0  0  0  0  0
   53.5296  -12.7157    7.5017 C   0  0  0  0  0  0  0  0  0  0  0  0
   53.2544  -11.5389    7.3944 O   0  0  0  0  0  0  0  0  0  0  0  0
   54.0374  -13.5043    5.1603 N   0  0  0  0  0  0  0  0  0  0  0  0
   54.3902  -14.6970    4.6924 C   0  0  0  0  0  0  0  0  0  0  0  0
   54.4759  -15.6261    5.7124 N   0  0  0  0  0  0  0  0  0  0  0  0
  1  2  1  0  0  0  0
  1  6  1  0  0  0  0
  2  3  2  0  0  0  0
  3  4  1  0  0  0  0
  4  5  2  0  0  0  0
  4 10  1  0  0  0  0
  5  6  1  0  0  0  0
  5  8  1  0  0  0  0
  6  7  2  0  0  0  0
  8  9  1  0  0  0  0
  9 10  2  0  0  0  0
M  END
>  <CHROM.1>
53.90177773,-13.95946588,6.98957818,-2.70132547,1.29971960,-1.07046699

>  <Name>
ligand

>  <RI>
0

>  <Rbt.Current_Directory>
/home/itssahil/PROJECTS/Mol_Feturizer/New_Systems/rnas/2EEV

>  <Rbt.Executable>
rbdock ($Id: //depot/dev/client3/rdock/2013.1/src/exe/rbdock.cxx#4 $)

>  <Rbt.Library>
libRbt.so (2013.1, Build901 2013/11/27)

>  <Rbt.Parameter_File>
/export/apps/rDock/src/rDock_2013.1_src/data/scripts/dock_solv.prm

>  <Rbt.Receptor>
prm/pocket_docking_3.prm

>  <SCORE>
-19.6617

>  <SCORE.INTER>
-19.6617

>  <SCORE.INTER.CONST>
1

>  <SCORE.INTER.POLAR>
0

>  <SCORE.INTER.ROT>
0

>  <SCORE.INTER.SOLV>
4.11046

>  <SCORE.INTER.VDW>
-18.078

>  <SCORE.INTER.norm>
-1.96617

>  <SCORE.INTRA>
0

>  <SCORE.INTRA.DIHEDRAL>
0

>  <SCORE.INTRA.DIHEDRAL.0>
0

>  <SCORE.INTRA.POLAR>
0

>  <SCORE.INTRA.POLAR.0>
0

>  <SCORE.INTRA.REPUL>
0

>  <SCORE.INTRA.REPUL.0>
0

>  <SCORE.INTRA.SOLV>
0

>  <SCORE.INTRA.SOLV.lig_0>
-4.25352

>  <SCORE.INTRA.VDW>
0

>  <SCORE.INTRA.VDW.0>
0

>  <SCORE.INTRA.norm>
0

>  <SCORE.RESTR>
0

>  <SCORE.RESTR.CAVITY>
0

>  <SCORE.RESTR.norm>
0

>  <SCORE.SYSTEM>
0

>  <SCORE.SYSTEM.CONST>
0

>  <SCORE.SYSTEM.DIHEDRAL>
0

>  <SCORE.SYSTEM.SOLV>
0

>  <SCORE.SYSTEM.norm>
0

>  <SCORE.heavy>
10

>  <SCORE.norm>
-1.96617

>  <RMSD>
0.509

$$$$
ligand
 OpenBabel11021811423D
libRbt.so/2013.1/901 2013/11/27
 10 11  0  0  0  0  0  0  0  0999 V2000
   53.5458  -13.2275    8.7925 N   0  0  0  0  0  0  0  0  0  0  0  0
   53.7913  -14.5342    9.1049 C   0  0  0  0  0  0  0  0  0  0  0  0
   54.0982  -15.4534    8.1528 N   0  0  0  0  0  0  0  0  0  0  0  0
   54.1376  -14.9256    6.8954 C   0  0  0  0  0  0  0  0  0  0  0  0
   53.9018  -13.6214    6.5289 C   0  0  0  0  0  0  0  0  0  0  0  0
   53.5784  -12.6713    7.5018 C   0  0  0  0  0  0  0  0  0  0  0  0
   53.3359  -11.4893    7.3748 O   0  0  0  0  0  0  0  0  0  0  0  0
   54.0454  -13.5165    5.1717 N   0  0  0  0  0  0  0  0  0  0  0  0
   54.3605  -14.7272    4.7234 C   0  0  0  0  0  0  0  0  0  0  0  0
   54.4276  -15.6397    5.7596 N   0  0  0  0  0  0  0  0  0  0  0  0
  1  2  1  0  0  0  0
  1  6  1  0  0  0  0
  2  3  2  0  0  0  0
  3  4  1  0  0  0  0
  4  5  2  0  0  0  0
  4 10  1  0  0  0  0
  5  6  1  0  0  0  0
  5  8  1  0  0  0  0
  6  7  2  0  0  0  0
  8  9  1  0  0  0  0
  9 10  2  0  0  0  0
M  END
>  <CHROM.1>
53.91101605,-13.93428862,7.00999140,-2.73002453,1.32830096,-1.06101557

>  <Name>
ligand

>  <RI>
0

>  <Rbt.Current_Directory>
/home/itssahil/PROJECTS/Mol_Feturizer/New_Systems/rnas/2EEV

>  <Rbt.Executable>
rbdock ($Id: //depot/dev/client3/rdock/2013.1/src/exe/rbdock.cxx#4 $)

>  <Rbt.Library>
libRbt.so (2013.1, Build901 2013/11/27)

>  <Rbt.Parameter_File>
/export/apps/rDock/src/rDock_2013.1_src/data/scripts/dock_solv.prm

>  <Rbt.Receptor>
prm/pocket_docking_4.prm

>  <SCORE>
-19.6404

>  <SCORE.INTER>
-19.6404

>  <SCORE.INTER.CONST>
1

>  <SCORE.INTER.POLAR>
0

>  <SCORE.INTER.ROT>
0

>  <SCORE.INTER.SOLV>
4.21043

>  <SCORE.INTER.VDW>
-18.0971

>  <SCORE.INTER.norm>
-1.96404

>  <SCORE.INTRA>
0

>  <SCORE.INTRA.DIHEDRAL>
0

>  <SCORE.INTRA.DIHEDRAL.0>
0

>  <SCORE.INTRA.POLAR>
0

>  <SCORE.INTRA.POLAR.0>
0

>  <SCORE.INTRA.REPUL>
0

>  <SCORE.INTRA.REPUL.0>
0

>  <SCORE.INTRA.SOLV>
0

>  <SCORE.INTRA.SOLV.lig_0>
-4.25352

>  <SCORE.INTRA.VDW>
0

>  <SCORE.INTRA.VDW.0>
0

>  <SCORE.INTRA.norm>
0

>  <SCORE.RESTR>
0

>  <SCORE.RESTR.CAVITY>
0

>  <SCORE.RESTR.norm>
0

>  <SCORE.SYSTEM>
0

>  <SCORE.SYSTEM.CONST>
0

>  <SCORE.SYSTEM.DIHEDRAL>
0

>  <SCORE.SYSTEM.SOLV>
0

>  <SCORE.SYSTEM.norm>
0

>  <SCORE.heavy>
10

>  <SCORE.norm>
-1.96404

>  <RMSD>
0.514

$$$$
ligand
 OpenBabel11021811423D
libRbt.so/2013.1/901 2013/11/27
 10 11  0  0  0  0  0  0  0  0999 V2000
   53.5222  -13.1506    8.8068 N   0  0  0  0  0  0  0  0  0  0  0  0
   53.7490  -14.4549    9.1424 C   0  0  0  0  0  0  0  0  0  0  0  0
   54.0593  -15.3917    8.2087 N   0  0  0  0  0  0  0  0  0  0  0  0
   54.1222  -14.8835    6.9442 C   0  0  0  0  0  0  0  0  0  0  0  0
   53.9059  -13.5826    6.5547 C   0  0  0  0  0  0  0  0  0  0  0  0
   53.5791  -12.6144    7.5084 C   0  0  0  0  0  0  0  0  0  0  0  0
   53.3513  -11.4320    7.3603 O   0  0  0  0  0  0  0  0  0  0  0  0
   54.0697  -13.5000    5.1983 N   0  0  0  0  0  0  0  0  0  0  0  0
   54.3779  -14.7206    4.7728 C   0  0  0  0  0  0  0  0  0  0  0  0
   54.4205  -15.6179    5.8235 N   0  0  0  0  0  0  0  0  0  0  0  0
  1  2  1  0  0  0  0
  1  6  1  0  0  0  0
  2  3  2  0  0  0  0
  3  4  1  0  0  0  0
  4  5  2  0  0  0  0
  4 10  1  0  0  0  0
  5  6  1  0  0  0  0
  5  8  1  0  0  0  0
  6  7  2  0  0  0  0
  8  9  1  0  0  0  0
  9 10  2  0  0  0  0
M  END
>  <CHROM.1>
53.90484335,-13.88825074,7.04055535,-2.80412086,1.33026986,-1.00420702

>  <Name>
ligand

>  <RI>
0

>  <Rbt.Current_Directory>
/home/itssahil/PROJECTS/Mol_Feturizer/New_Systems/rnas/2EEV

>  <Rbt.Executable>
rbdock ($Id: //depot/dev/client3/rdock/2013.1/src/exe/rbdock.cxx#4 $)

>  <Rbt.Library>
libRbt.so (2013.1, Build901 2013/11/27)

>  <Rbt.Parameter_File>
/export/apps/rDock/src/rDock_2013.1_src/data/scripts/dock_solv.prm

>  <Rbt.Receptor>
prm/pocket_docking_6.prm

>  <SCORE>
-19.6966

>  <SCORE.INTER>
-19.6966

>  <SCORE.INTER.CONST>
1

>  <SCORE.INTER.POLAR>
0

>  <SCORE.INTER.ROT>
0

>  <SCORE.INTER.SOLV>
4.23343

>  <SCORE.INTER.VDW>
-18.1422

>  <SCORE.INTER.norm>
-1.96966

>  <SCORE.INTRA>
0

>  <SCORE.INTRA.DIHEDRAL>
0

>  <SCORE.INTRA.DIHEDRAL.0>
0

>  <SCORE.INTRA.POLAR>
0

>  <SCORE.INTRA.POLAR.0>
0

>  <SCORE.INTRA.REPUL>
0

>  <SCORE.INTRA.REPUL.0>
0

>  <SCORE.INTRA.SOLV>
0

>  <SCORE.INTRA.SOLV.lig_0>
-4.25352

>  <SCORE.INTRA.VDW>
0

>  <SCORE.INTRA.VDW.0>
0

>  <SCORE.INTRA.norm>
0

>  <SCORE.RESTR>
0

>  <SCORE.RESTR.CAVITY>
0

>  <SCORE.RESTR.norm>
0

>  <SCORE.SYSTEM>
0

>  <SCORE.SYSTEM.CONST>
0

>  <SCORE.SYSTEM.DIHEDRAL>
0

>  <SCORE.SYSTEM.SOLV>
0

>  <SCORE.SYSTEM.norm>
0

>  <SCORE.heavy>
10

>  <SCORE.norm>
-1.96966

>  <RMSD>
0.514

$$$$
ligand
 OpenBabel11021811423D
libRbt.so/2013.1/901 2013/11/27
 10 11  0  0  0  0  0  0  0  0999 V2000
   53.4798  -13.0606    8.8355 N   0  0  0  0  0  0  0  0  0  0  0  0
   53.6909  -14.3554    9.2152 C   0  0  0  0  0  0  0  0  0  0  0  0
   53.9952  -15.3261    8.3147 N   0  0  0  0  0  0  0  0  0  0  0  0
   54.0694  -14.8609    7.0344 C   0  0  0  0  0  0  0  0  0  0  0  0
   53.8690  -13.5714    6.6009 C   0  0  0  0  0  0  0  0  0  0  0  0
   53.5484  -12.5686    7.5203 C   0  0  0  0  0  0  0  0  0  0  0  0
   53.3341  -11.3893    7.3319 O   0  0  0  0  0  0  0  0  0  0  0  0
   54.0399  -13.5356    5.2433 N   0  0  0  0  0  0  0  0  0  0  0  0
   54.3367  -14.7729    4.8600 C   0  0  0  0  0  0  0  0  0  0  0  0
   54.3648  -15.6352    5.9401 N   0  0  0  0  0  0  0  0  0  0  0  0
  1  2  1  0  0  0  0
  1  6  1  0  0  0  0
  2  3  2  0  0  0  0
  3  4  1  0  0  0  0
  4  5  2  0  0  0  0
  4 10  1  0  0  0  0
  5  6  1  0  0  0  0
  5  8  1  0  0  0  0
  6  7  2  0  0  0  0
  8  9  1  0  0  0  0
  9 10  2  0  0  0  0
M  END
>  <CHROM.1>
53.86241073,-13.86066808,7.09658415,-2.84577308,1.33679370,-0.99694316

>  <Name>
ligand

>  <RI>
0

>  <Rbt.Current_Directory>
/home/itssahil/PROJECTS/Mol_Feturizer/New_Systems/rnas/2EEV

>  <Rbt.Executable>
rbdock ($Id: //depot/dev/client3/rdock/2013.1/src/exe/rbdock.cxx#4 $)

>  <Rbt.Library>
libRbt.so (2013.1, Build901 2013/11/27)

>  <Rbt.Parameter_File>
/export/apps/rDock/src/rDock_2013.1_src/data/scripts/dock_solv.prm

>  <Rbt.Receptor>
prm/blind_docking_100.prm

>  <SCORE>
-19.6977

>  <SCORE.INTER>
-19.6977

>  <SCORE.INTER.CONST>
1

>  <SCORE.INTER.POLAR>
0

>  <SCORE.INTER.ROT>
0

>  <SCORE.INTER.SOLV>
4.25602

>  <SCORE.INTER.VDW>
-18.1505

>  <SCORE.INTER.norm>
-1.96977

>  <SCORE.INTRA>
0

>  <SCORE.INTRA.DIHEDRAL>
0

>  <SCORE.INTRA.DIHEDRAL.0>
0

>  <SCORE.INTRA.POLAR>
0

>  <SCORE.INTRA.POLAR.0>
0

>  <SCORE.INTRA.REPUL>
0

>  <SCORE.INTRA.REPUL.0>
0

>  <SCORE.INTRA.SOLV>
0

>  <SCORE.INTRA.SOLV.lig_0>
-4.25352

>  <SCORE.INTRA.VDW>
0

>  <SCORE.INTRA.VDW.0>
0

>  <SCORE.INTRA.norm>
0

>  <SCORE.RESTR>
0

>  <SCORE.RESTR.CAVITY>
0

>  <SCORE.RESTR.norm>
0

>  <SCORE.SYSTEM>
0

>  <SCORE.SYSTEM.CONST>
0

>  <SCORE.SYSTEM.DIHEDRAL>
0

>  <SCORE.SYSTEM.SOLV>
0

>  <SCORE.SYSTEM.norm>
0

>  <SCORE.heavy>
10

>  <SCORE.norm>
-1.96977

>  <RMSD>
0.518

$$$$
ligand
 OpenBabel11021811423D
libRbt.so/2013.1/901 2013/11/27
 10 11  0  0  0  0  0  0  0  0999 V2000
   53.4290  -13.0282    8.8204 N   0  0  0  0  0  0  0  0  0  0  0  0
   53.6597  -14.3202    9.1980 C   0  0  0  0  0  0  0  0  0  0  0  0
   54.0055  -15.2788    8.2996 N   0  0  0  0  0  0  0  0  0  0  0  0
   54.0983  -14.8048    7.0237 C   0  0  0  0  0  0  0  0  0  0  0  0
   53.8796  -13.5175    6.5925 C   0  0  0  0  0  0  0  0  0  0  0  0
   53.5164  -12.5272    7.5097 C   0  0  0  0  0  0  0  0  0  0  0  0
   53.2807  -11.3519    7.3226 O   0  0  0  0  0  0  0  0  0  0  0  0
   54.0802  -13.4703    5.2394 N   0  0  0  0  0  0  0  0  0  0  0  0
   54.4127  -14.6987    4.8565 C   0  0  0  0  0  0  0  0  0  0  0  0
   54.4352  -15.5663    5.9324 N   0  0  0  0  0  0  0  0  0  0  0  0
  1  2  1  0  0  0  0
  1  6  1  0  0  0  0
  2  3  2  0  0  0  0
  3  4  1  0  0  0  0
  4  5  2  0  0  0  0
  4 10  1  0  0  0  0
  5  6  1  0  0  0  0
  5  8  1  0  0  0  0
  6  7  2  0  0  0  0
  8  9  1  0  0  0  0
  9 10  2  0  0  0  0
M  END
>  <CHROM.1>
53.86814300,-13.80973736,7.08643740,-2.87285566,1.30607112,-0.96521827

>  <Name>
ligand

>  <RI>
0

>  <Rbt.Current_Directory>
/home/itssahil/PROJECTS/Mol_Feturizer/New_Systems/rnas/2EEV

>  <Rbt.Executable>
rbdock ($Id: //depot/dev/client3/rdock/2013.1/src/exe/rbdock.cxx#4 $)

>  <Rbt.Library>
libRbt.so (2013.1, Build901 2013/11/27)

>  <Rbt.Parameter_File>
/export/apps/rDock/src/rDock_2013.1_src/data/scripts/dock_solv.prm

>  <Rbt.Receptor>
prm/pocket_docking_8.prm

>  <SCORE>
-19.6529

>  <SCORE.INTER>
-19.6529

>  <SCORE.INTER.CONST>
1

>  <SCORE.INTER.POLAR>
0

>  <SCORE.INTER.ROT>
0

>  <SCORE.INTER.SOLV>
4.16972

>  <SCORE.INTER.VDW>
-18.0918

>  <SCORE.INTER.norm>
-1.96529

>  <SCORE.INTRA>
0

>  <SCORE.INTRA.DIHEDRAL>
0

>  <SCORE.INTRA.DIHEDRAL.0>
0

>  <SCORE.INTRA.POLAR>
0

>  <SCORE.INTRA.POLAR.0>
0

>  <SCORE.INTRA.REPUL>
0

>  <SCORE.INTRA.REPUL.0>
0

>  <SCORE.INTRA.SOLV>
0

>  <SCORE.INTRA.SOLV.lig_0>
-4.25352

>  <SCORE.INTRA.VDW>
0

>  <SCORE.INTRA.VDW.0>
0

>  <SCORE.INTRA.norm>
0

>  <SCORE.RESTR>
0

>  <SCORE.RESTR.CAVITY>
0

>  <SCORE.RESTR.norm>
0

>  <SCORE.SYSTEM>
0

>  <SCORE.SYSTEM.CONST>
0

>  <SCORE.SYSTEM.DIHEDRAL>
0

>  <SCORE.SYSTEM.SOLV>
0

>  <SCORE.SYSTEM.norm>
0

>  <SCORE.heavy>
10

>  <SCORE.norm>
-1.96529

>  <RMSD>
0.531

$$$$
ligand
 OpenBabel11021811423D
libRbt.so/2013.1/901 2013/11/27
 10 11  0  0  0  0  0  0  0  0999 V2000
   53.4509  -13.2356    8.7712 N   0  0  0  0  0  0  0  0  0  0  0  0
   53.6708  -14.5454    9.0894 C   0  0  0  0  0  0  0  0  0  0  0  0
   53.9934  -15.4680    8.1458 N   0  0  0  0  0  0  0  0  0  0  0  0
   54.0757  -14.9401    6.8905 C   0  0  0  0  0  0  0  0  0  0  0  0
   53.8671  -13.6328    6.5185 C   0  0  0  0  0  0  0  0  0  0  0  0
   53.5277  -12.6792    7.4824 C   0  0  0  0  0  0  0  0  0  0  0  0
   53.3039  -11.4942    7.3495 O   0  0  0  0  0  0  0  0  0  0  0  0
   54.0511  -13.5291    5.1661 N   0  0  0  0  0  0  0  0  0  0  0  0
   54.3637  -14.7435    4.7260 C   0  0  0  0  0  0  0  0  0  0  0  0
   54.3893  -15.6572    5.7629 N   0  0  0  0  0  0  0  0  0  0  0  0
  1  2  1  0  0  0  0
  1  6  1  0  0  0  0
  2  3  2  0  0  0  0
  3  4  1  0  0  0  0
  4  5  2  0  0  0  0
  4 10  1  0  0  0  0
  5  6  1  0  0  0  0
  5  8  1  0  0  0  0
  6  7  2  0  0  0  0
  8  9  1  0  0  0  0
  9 10  2  0  0  0  0
M  END
>  <CHROM.1>
53.85843371,-13.94607332,6.99933595,-2.85827315,1.32327870,-0.93591575

>  <Name>
ligand

>  <RI>
0

>  <Rbt.Current_Directory>
/home/itssahil/PROJECTS/Mol_Feturizer/New_Systems/rnas/2EEV

>  <Rbt.Executable>
rbdock ($Id: //depot/dev/client3/rdock/2013.1/src/exe/rbdock.cxx#4 $)

>  <Rbt.Library>
libRbt.so (2013.1, Build901 2013/11/27)

>  <Rbt.Parameter_File>
/export/apps/rDock/src/rDock_2013.1_src/data/scripts/dock_solv.prm

>  <Rbt.Receptor>
prm/pocket_docking_4.prm

>  <SCORE>
-19.6479

>  <SCORE.INTER>
-19.6479

>  <SCORE.INTER.CONST>
1

>  <SCORE.INTER.POLAR>
0

>  <SCORE.INTER.ROT>
0

>  <SCORE.INTER.SOLV>
4.25707

>  <SCORE.INTER.VDW>
-18.1176

>  <SCORE.INTER.norm>
-1.96479

>  <SCORE.INTRA>
0

>  <SCORE.INTRA.DIHEDRAL>
0

>  <SCORE.INTRA.DIHEDRAL.0>
0

>  <SCORE.INTRA.POLAR>
0

>  <SCORE.INTRA.POLAR.0>
0

>  <SCORE.INTRA.REPUL>
0

>  <SCORE.INTRA.REPUL.0>
0

>  <SCORE.INTRA.SOLV>
0

>  <SCORE.INTRA.SOLV.lig_0>
-4.25352

>  <SCORE.INTRA.VDW>
0

>  <SCORE.INTRA.VDW.0>
0

>  <SCORE.INTRA.norm>
0

>  <SCORE.RESTR>
0

>  <SCORE.RESTR.CAVITY>
0

>  <SCORE.RESTR.norm>
0

>  <SCORE.SYSTEM>
0

>  <SCORE.SYSTEM.CONST>
0

>  <SCORE.SYSTEM.DIHEDRAL>
0

>  <SCORE.SYSTEM.SOLV>
0

>  <SCORE.SYSTEM.norm>
0

>  <SCORE.heavy>
10

>  <SCORE.norm>
-1.96479

>  <RMSD>
0.534

$$$$
ligand
 OpenBabel11021811423D
libRbt.so/2013.1/901 2013/11/27
 10 11  0  0  0  0  0  0  0  0999 V2000
   53.4090  -13.2419    8.7566 N   0  0  0  0  0  0  0  0  0  0  0  0
   53.6545  -14.5486    9.0687 C   0  0  0  0  0  0  0  0  0  0  0  0
   54.0112  -15.4567    8.1233 N   0  0  0  0  0  0  0  0  0  0  0  0
   54.0987  -14.9178    6.8730 C   0  0  0  0  0  0  0  0  0  0  0  0
   53.8653  -13.6130    6.5072 C   0  0  0  0  0  0  0  0  0  0  0  0
   53.4908  -12.6744    7.4729 C   0  0  0  0  0  0  0  0  0  0  0  0
   53.2417  -11.4939    7.3452 O   0  0  0  0  0  0  0  0  0  0  0  0
   54.0656  -13.4953    5.1583 N   0  0  0  0  0  0  0  0  0  0  0  0
   54.4121  -14.6989    4.7141 C   0  0  0  0  0  0  0  0  0  0  0  0
   54.4444  -15.6193    5.7449 N   0  0  0  0  0  0  0  0  0  0  0  0
  1  2  1  0  0  0  0
  1  6  1  0  0  0  0
  2  3  2  0  0  0  0
  3  4  1  0  0  0  0
  4  5  2  0  0  0  0
  4 10  1  0  0  0  0
  5  6  1  0  0  0  0
  5  8  1  0  0  0  0
  6  7  2  0  0  0  0
  8  9  1  0  0  0  0
  9 10  2  0  0  0  0
M  END
>  <CHROM.1>
53.85721016,-13.92986420,6.98571944,-2.84907641,1.29654800,-0.93765526

>  <Name>
ligand

>  <RI>
0

>  <Rbt.Current_Directory>
/home/itssahil/PROJECTS/Mol_Feturizer/New_Systems/rnas/2EEV

>  <Rbt.Executable>
rbdock ($Id: //depot/dev/client3/rdock/2013.1/src/exe/rbdock.cxx#4 $)

>  <Rbt.Library>
libRbt.so (2013.1, Build901 2013/11/27)

>  <Rbt.Parameter_File>
/export/apps/rDock/src/rDock_2013.1_src/data/scripts/dock_solv.prm

>  <Rbt.Receptor>
prm/blind_docking_80.prm

>  <SCORE>
-19.6702

>  <SCORE.INTER>
-19.6702

>  <SCORE.INTER.CONST>
1

>  <SCORE.INTER.POLAR>
0

>  <SCORE.INTER.ROT>
0

>  <SCORE.INTER.SOLV>
4.17195

>  <SCORE.INTER.VDW>
-18.1041

>  <SCORE.INTER.norm>
-1.96702

>  <SCORE.INTRA>
0

>  <SCORE.INTRA.DIHEDRAL>
0

>  <SCORE.INTRA.DIHEDRAL.0>
0

>  <SCORE.INTRA.POLAR>
0

>  <SCORE.INTRA.POLAR.0>
0

>  <SCORE.INTRA.REPUL>
0

>  <SCORE.INTRA.REPUL.0>
0

>  <SCORE.INTRA.SOLV>
0

>  <SCORE.INTRA.SOLV.lig_0>
-4.25352

>  <SCORE.INTRA.VDW>
0

>  <SCORE.INTRA.VDW.0>
0

>  <SCORE.INTRA.norm>
0

>  <SCORE.RESTR>
0

>  <SCORE.RESTR.CAVITY>
0

>  <SCORE.RESTR.norm>
0

>  <SCORE.SYSTEM>
0

>  <SCORE.SYSTEM.CONST>
0

>  <SCORE.SYSTEM.DIHEDRAL>
0

>  <SCORE.SYSTEM.SOLV>
0

>  <SCORE.SYSTEM.norm>
0

>  <SCORE.heavy>
10

>  <SCORE.norm>
-1.96702

>  <RMSD>
0.537

$$$$
ligand
 OpenBabel11021811423D
libRbt.so/2013.1/901 2013/11/27
 10 11  0  0  0  0  0  0  0  0999 V2000
   53.4420  -13.2199    8.7451 N   0  0  0  0  0  0  0  0  0  0  0  0
   53.6779  -14.5254    9.0696 C   0  0  0  0  0  0  0  0  0  0  0  0
   54.0214  -15.4464    8.1318 N   0  0  0  0  0  0  0  0  0  0  0  0
   54.1063  -14.9215    6.8754 C   0  0  0  0  0  0  0  0  0  0  0  0
   53.8821  -13.6186    6.4972 C   0  0  0  0  0  0  0  0  0  0  0  0
   53.5213  -12.6667    7.4551 C   0  0  0  0  0  0  0  0  0  0  0  0
   53.2817  -11.4855    7.3163 O   0  0  0  0  0  0  0  0  0  0  0  0
   54.0756  -13.5168    5.1460 N   0  0  0  0  0  0  0  0  0  0  0  0
   54.4091  -14.7280    4.7126 C   0  0  0  0  0  0  0  0  0  0  0  0
   54.4394  -15.6378    5.7529 N   0  0  0  0  0  0  0  0  0  0  0  0
  1  2  1  0  0  0  0
  1  6  1  0  0  0  0
  2  3  2  0  0  0  0
  3  4  1  0  0  0  0
  4  5  2  0  0  0  0
  4 10  1  0  0  0  0
  5  6  1  0  0  0  0
  5  8  1  0  0  0  0
  6  7  2  0  0  0  0
  8  9  1  0  0  0  0
  9 10  2  0  0  0  0
M  END
>  <CHROM.1>
53.87402777,-13.93034183,6.97907974,-2.85090508,1.30693445,-0.94641718

>  <Name>
ligand

>  <RI>
0

>  <Rbt.Current_Directory>
/home/itssahil/PROJECTS/Mol_Feturizer/New_Systems/rnas/2EEV

>  <Rbt.Executable>
rbdock ($Id: //depot/dev/client3/rdock/2013.1/src/exe/rbdock.cxx#4 $)

>  <Rbt.Library>
libRbt.so (2013.1, Build901 2013/11/27)

>  <Rbt.Parameter_File>
/export/apps/rDock/src/rDock_2013.1_src/data/scripts/dock_solv.prm

>  <Rbt.Receptor>
prm/pocket_docking_8.prm

>  <SCORE>
-19.6834

>  <SCORE.INTER>
-19.6834

>  <SCORE.INTER.CONST>
1

>  <SCORE.INTER.POLAR>
0

>  <SCORE.INTER.ROT>
0

>  <SCORE.INTER.SOLV>
4.20765

>  <SCORE.INTER.VDW>
-18.1248

>  <SCORE.INTER.norm>
-1.96834

>  <SCORE.INTRA>
0

>  <SCORE.INTRA.DIHEDRAL>
0

>  <SCORE.INTRA.DIHEDRAL.0>
0

>  <SCORE.INTRA.POLAR>
0

>  <SCORE.INTRA.POLAR.0>
0

>  <SCORE.INTRA.REPUL>
0

>  <SCORE.INTRA.REPUL.0>
0

>  <SCORE.INTRA.SOLV>
0

>  <SCORE.INTRA.SOLV.lig_0>
-4.25352

>  <SCORE.INTRA.VDW>
0

>  <SCORE.INTRA.VDW.0>
0

>  <SCORE.INTRA.norm>
0

>  <SCORE.RESTR>
0

>  <SCORE.RESTR.CAVITY>
0

>  <SCORE.RESTR.norm>
0

>  <SCORE.SYSTEM>
0

>  <SCORE.SYSTEM.CONST>
0

>  <SCORE.SYSTEM.DIHEDRAL>
0

>  <SCORE.SYSTEM.SOLV>
0

>  <SCORE.SYSTEM.norm>
0

>  <SCORE.heavy>
10

>  <SCORE.norm>
-1.96834

>  <RMSD>
0.549

$$$$
ligand
 OpenBabel11021811423D
libRbt.so/2013.1/901 2013/11/27
 10 11  0  0  0  0  0  0  0  0999 V2000
   53.5081  -13.3029    8.7387 N   0  0  0  0  0  0  0  0  0  0  0  0
   53.7561  -14.6180    9.0113 C   0  0  0  0  0  0  0  0  0  0  0  0
   54.0795  -15.5042    8.0337 N   0  0  0  0  0  0  0  0  0  0  0  0
   54.1321  -14.9353    6.7948 C   0  0  0  0  0  0  0  0  0  0  0  0
   53.8946  -13.6209    6.4682 C   0  0  0  0  0  0  0  0  0  0  0  0
   53.5542  -12.7046    7.4673 C   0  0  0  0  0  0  0  0  0  0  0  0
   53.3075  -11.5202    7.3760 O   0  0  0  0  0  0  0  0  0  0  0  0
   54.0548  -13.4710    5.1171 N   0  0  0  0  0  0  0  0  0  0  0  0
   54.3815  -14.6648    4.6334 C   0  0  0  0  0  0  0  0  0  0  0  0
   54.4400  -15.6104    5.6401 N   0  0  0  0  0  0  0  0  0  0  0  0
  1  2  1  0  0  0  0
  1  6  1  0  0  0  0
  2  3  2  0  0  0  0
  3  4  1  0  0  0  0
  4  5  2  0  0  0  0
  4 10  1  0  0  0  0
  5  6  1  0  0  0  0
  5  8  1  0  0  0  0
  6  7  2  0  0  0  0
  8  9  1  0  0  0  0
  9 10  2  0  0  0  0
M  END
>  <CHROM.1>
53.89925087,-13.94930414,6.93882465,-2.76434979,1.31767168,-0.99500984

>  <Name>
ligand

>  <RI>
0

>  <Rbt.Current_Directory>
/home/itssahil/PROJECTS/Mol_Feturizer/New_Systems/rnas/2EEV

>  <Rbt.Executable>
rbdock ($Id: //depot/dev/client3/rdock/2013.1/src/exe/rbdock.cxx#4 $)

>  <Rbt.Library>
libRbt.so (2013.1, Build901 2013/11/27)

>  <Rbt.Parameter_File>
/export/apps/rDock/src/rDock_2013.1_src/data/scripts/dock_solv.prm

>  <Rbt.Receptor>
prm/blind_docking_60.prm

>  <SCORE>
-19.6822

>  <SCORE.INTER>
-19.6822

>  <SCORE.INTER.CONST>
1

>  <SCORE.INTER.POLAR>
0

>  <SCORE.INTER.ROT>
0

>  <SCORE.INTER.SOLV>
4.1905

>  <SCORE.INTER.VDW>
-18.1183

>  <SCORE.INTER.norm>
-1.96822

>  <SCORE.INTRA>
0

>  <SCORE.INTRA.DIHEDRAL>
0

>  <SCORE.INTRA.DIHEDRAL.0>
0

>  <SCORE.INTRA.POLAR>
0

>  <SCORE.INTRA.POLAR.0>
0

>  <SCORE.INTRA.REPUL>
0

>  <SCORE.INTRA.REPUL.0>
0

>  <SCORE.INTRA.SOLV>
0

>  <SCORE.INTRA.SOLV.lig_0>
-4.25352

>  <SCORE.INTRA.VDW>
0

>  <SCORE.INTRA.VDW.0>
0

>  <SCORE.INTRA.norm>
0

>  <SCORE.RESTR>
0

>  <SCORE.RESTR.CAVITY>
0

>  <SCORE.RESTR.norm>
0

>  <SCORE.SYSTEM>
0

>  <SCORE.SYSTEM.CONST>
0

>  <SCORE.SYSTEM.DIHEDRAL>
0

>  <SCORE.SYSTEM.SOLV>
0

>  <SCORE.SYSTEM.norm>
0

>  <SCORE.heavy>
10

>  <SCORE.norm>
-1.96822

>  <RMSD>
0.561

$$$$
ligand
 OpenBabel11021811423D
libRbt.so/2013.1/901 2013/11/27
 10 11  0  0  0  0  0  0  0  0999 V2000
   53.4931  -13.0804    8.7496 N   0  0  0  0  0  0  0  0  0  0  0  0
   53.7777  -14.3653    9.1145 C   0  0  0  0  0  0  0  0  0  0  0  0
   54.1197  -15.3110    8.2010 N   0  0  0  0  0  0  0  0  0  0  0  0
   54.1505  -14.8318    6.9240 C   0  0  0  0  0  0  0  0  0  0  0  0
   53.8760  -13.5512    6.5052 C   0  0  0  0  0  0  0  0  0  0  0  0
   53.5164  -12.5744    7.4381 C   0  0  0  0  0  0  0  0  0  0  0  0
   53.2374  -11.4067    7.2635 O   0  0  0  0  0  0  0  0  0  0  0  0
   54.0250  -13.4951    5.1457 N   0  0  0  0  0  0  0  0  0  0  0  0
   54.3811  -14.7117    4.7470 C   0  0  0  0  0  0  0  0  0  0  0  0
   54.4703  -15.5803    5.8187 N   0  0  0  0  0  0  0  0  0  0  0  0
  1  2  1  0  0  0  0
  1  6  1  0  0  0  0
  2  3  2  0  0  0  0
  3  4  1  0  0  0  0
  4  5  2  0  0  0  0
  4 10  1  0  0  0  0
  5  6  1  0  0  0  0
  5  8  1  0  0  0  0
  6  7  2  0  0  0  0
  8  9  1  0  0  0  0
  9 10  2  0  0  0  0
M  END
>  <CHROM.1>
53.89195307,-13.84453648,6.99823724,-2.69381587,1.29735093,-1.13534459

>  <Name>
ligand

>  <RI>
0

>  <Rbt.Current_Directory>
/home/itssahil/PROJECTS/Mol_Feturizer/New_Systems/rnas/2EEV

>  <Rbt.Executable>
rbdock ($Id: //depot/dev/client3/rdock/2013.1/src/exe/rbdock.cxx#4 $)

>  <Rbt.Library>
libRbt.so (2013.1, Build901 2013/11/27)

>  <Rbt.Parameter_File>
/export/apps/rDock/src/rDock_2013.1_src/data/scripts/dock_solv.prm

>  <Rbt.Receptor>
prm/pocket_docking_6.prm

>  <SCORE>
-19.6742

>  <SCORE.INTER>
-19.6742

>  <SCORE.INTER.CONST>
1

>  <SCORE.INTER.POLAR>
0

>  <SCORE.INTER.ROT>
0

>  <SCORE.INTER.SOLV>
4.09745

>  <SCORE.INTER.VDW>
-18.0819

>  <SCORE.INTER.norm>
-1.96742

>  <SCORE.INTRA>
0

>  <SCORE.INTRA.DIHEDRAL>
0

>  <SCORE.INTRA.DIHEDRAL.0>
0

>  <SCORE.INTRA.POLAR>
0

>  <SCORE.INTRA.POLAR.0>
0

>  <SCORE.INTRA.REPUL>
0

>  <SCORE.INTRA.REPUL.0>
0

>  <SCORE.INTRA.SOLV>
0

>  <SCORE.INTRA.SOLV.lig_0>
-4.25352

>  <SCORE.INTRA.VDW>
0

>  <SCORE.INTRA.VDW.0>
0

>  <SCORE.INTRA.norm>
0

>  <SCORE.RESTR>
0

>  <SCORE.RESTR.CAVITY>
0

>  <SCORE.RESTR.norm>
0

>  <SCORE.SYSTEM>
0

>  <SCORE.SYSTEM.CONST>
0

>  <SCORE.SYSTEM.DIHEDRAL>
0

>  <SCORE.SYSTEM.SOLV>
0

>  <SCORE.SYSTEM.norm>
0

>  <SCORE.heavy>
10

>  <SCORE.norm>
-1.96742

>  <RMSD>
0.564

$$$$
ligand
 OpenBabel11021811423D
libRbt.so/2013.1/901 2013/11/27
 10 11  0  0  0  0  0  0  0  0999 V2000
   53.5478  -13.2306    9.2220 N   0  0  0  0  0  0  0  0  0  0  0  0
   53.4142  -12.1080    8.4557 C   0  0  0  0  0  0  0  0  0  0  0  0
   53.5815  -12.1360    7.1078 N   0  0  0  0  0  0  0  0  0  0  0  0
   53.8793  -13.3801    6.6335 C   0  0  0  0  0  0  0  0  0  0  0  0
   54.0220  -14.5391    7.3596 C   0  0  0  0  0  0  0  0  0  0  0  0
   53.8586  -14.5169    8.7476 C   0  0  0  0  0  0  0  0  0  0  0  0
   53.9472  -15.4234    9.5491 O   0  0  0  0  0  0  0  0  0  0  0  0
   54.3198  -15.5601    6.4980 N   0  0  0  0  0  0  0  0  0  0  0  0
   54.3575  -15.0353    5.2777 C   0  0  0  0  0  0  0  0  0  0  0  0
   54.0918  -13.6792    5.3108 N   0  0  0  0  0  0  0  0  0  0  0  0
  1  2  1  0  0  0  0
  1  6  1  0  0  0  0
  2  3  2  0  0  0  0
  3  4  1  0  0  0  0
  4  5  2  0  0  0  0
  4 10  1  0  0  0  0
  5  6  1  0  0  0  0
  5  8  1  0  0  0  0
  6  7  2  0  0  0  0
  8  9  1  0  0  0  0
  9 10  2  0  0  0  0
M  END
>  <CHROM.1>
53.90233117,-13.98633879,7.45755206,2.25992803,-1.34666224,2.10065222

>  <Name>
ligand

>  <RI>
0

>  <Rbt.Current_Directory>
/home/itssahil/PROJECTS/Mol_Feturizer/New_Systems/rnas/2EEV

>  <Rbt.Executable>
rbdock ($Id: //depot/dev/client3/rdock/2013.1/src/exe/rbdock.cxx#4 $)

>  <Rbt.Library>
libRbt.so (2013.1, Build901 2013/11/27)

>  <Rbt.Parameter_File>
/export/apps/rDock/src/rDock_2013.1_src/data/scripts/dock_solv.prm

>  <Rbt.Receptor>
prm/blind_docking_100.prm

>  <SCORE>
-19.0778

>  <SCORE.INTER>
-19.0778

>  <SCORE.INTER.CONST>
1

>  <SCORE.INTER.POLAR>
0

>  <SCORE.INTER.ROT>
0

>  <SCORE.INTER.SOLV>
4.62473

>  <SCORE.INTER.VDW>
-17.8601

>  <SCORE.INTER.norm>
-1.90778

>  <SCORE.INTRA>
0

>  <SCORE.INTRA.DIHEDRAL>
0

>  <SCORE.INTRA.DIHEDRAL.0>
0

>  <SCORE.INTRA.POLAR>
0

>  <SCORE.INTRA.POLAR.0>
0

>  <SCORE.INTRA.REPUL>
0

>  <SCORE.INTRA.REPUL.0>
0

>  <SCORE.INTRA.SOLV>
0

>  <SCORE.INTRA.SOLV.lig_0>
-4.25352

>  <SCORE.INTRA.VDW>
0

>  <SCORE.INTRA.VDW.0>
0

>  <SCORE.INTRA.norm>
0

>  <SCORE.RESTR>
0

>  <SCORE.RESTR.CAVITY>
0

>  <SCORE.RESTR.norm>
0

>  <SCORE.SYSTEM>
0

>  <SCORE.SYSTEM.CONST>
0

>  <SCORE.SYSTEM.DIHEDRAL>
0

>  <SCORE.SYSTEM.SOLV>
0

>  <SCORE.SYSTEM.norm>
0

>  <SCORE.heavy>
10

>  <SCORE.norm>
-1.90778

>  <RMSD>
2.395

$$$$
ligand
 OpenBabel11021811423D
libRbt.so/2013.1/901 2013/11/27
 10 11  0  0  0  0  0  0  0  0999 V2000
   53.5026  -13.3653    9.1968 N   0  0  0  0  0  0  0  0  0  0  0  0
   53.3727  -12.1970    8.5016 C   0  0  0  0  0  0  0  0  0  0  0  0
   53.5474  -12.1406    7.1555 N   0  0  0  0  0  0  0  0  0  0  0  0
   53.8484  -13.3525    6.6059 C   0  0  0  0  0  0  0  0  0  0  0  0
   53.9876  -14.5546    7.2588 C   0  0  0  0  0  0  0  0  0  0  0  0
   53.8166  -14.6194    8.6446 C   0  0  0  0  0  0  0  0  0  0  0  0
   53.9013  -15.5743    9.3882 O   0  0  0  0  0  0  0  0  0  0  0  0
   54.2906  -15.5197    6.3366 N   0  0  0  0  0  0  0  0  0  0  0  0
   54.3348  -14.9195    5.1518 C   0  0  0  0  0  0  0  0  0  0  0  0
   54.0682  -13.5681    5.2683 N   0  0  0  0  0  0  0  0  0  0  0  0
  1  2  1  0  0  0  0
  1  6  1  0  0  0  0
  2  3  2  0  0  0  0
  3  4  1  0  0  0  0
  4  5  2  0  0  0  0
  4 10  1  0  0  0  0
  5  6  1  0  0  0  0
  5  8  1  0  0  0  0
  6  7  2  0  0  0  0
  8  9  1  0  0  0  0
  9 10  2  0  0  0  0
M  END
>  <CHROM.1>
53.86714728,-14.00911224,7.39049514,2.27979530,-1.34344934,2.18266067

>  <Name>
ligand

>  <RI>
0

>  <Rbt.Current_Directory>
/home/itssahil/PROJECTS/Mol_Feturizer/New_Systems/rnas/2EEV

>  <Rbt.Executable>
rbdock ($Id: //depot/dev/client3/rdock/2013.1/src/exe/rbdock.cxx#4 $)

>  <Rbt.Library>
libRbt.so (2013.1, Build901 2013/11/27)

>  <Rbt.Parameter_File>
/export/apps/rDock/src/rDock_2013.1_src/data/scripts/dock_solv.prm

>  <Rbt.Receptor>
prm/blind_docking_80.prm

>  <SCORE>
-19.0482

>  <SCORE.INTER>
-19.0482

>  <SCORE.INTER.CONST>
1

>  <SCORE.INTER.POLAR>
0

>  <SCORE.INTER.ROT>
0

>  <SCORE.INTER.SOLV>
4.73153

>  <SCORE.INTER.VDW>
-17.876

>  <SCORE.INTER.norm>
-1.90482

>  <SCORE.INTRA>
0

>  <SCORE.INTRA.DIHEDRAL>
0

>  <SCORE.INTRA.DIHEDRAL.0>
0

>  <SCORE.INTRA.POLAR>
0

>  <SCORE.INTRA.POLAR.0>
0

>  <SCORE.INTRA.REPUL>
0

>  <SCORE.INTRA.REPUL.0>
0

>  <SCORE.INTRA.SOLV>
0

>  <SCORE.INTRA.SOLV.lig_0>
-4.25352

>  <SCORE.INTRA.VDW>
0

>  <SCORE.INTRA.VDW.0>
0

>  <SCORE.INTRA.norm>
0

>  <SCORE.RESTR>
0

>  <SCORE.RESTR.CAVITY>
0

>  <SCORE.RESTR.norm>
0

>  <SCORE.SYSTEM>
0

>  <SCORE.SYSTEM.CONST>
0

>  <SCORE.SYSTEM.DIHEDRAL>
0

>  <SCORE.SYSTEM.SOLV>
0

>  <SCORE.SYSTEM.norm>
0

>  <SCORE.heavy>
10

>  <SCORE.norm>
-1.90482

>  <RMSD>
2.399

$$$$
ligand
 OpenBabel11021811423D
libRbt.so/2013.1/901 2013/11/27
 10 11  0  0  0  0  0  0  0  0999 V2000
   53.5123  -13.3763    9.0444 N   0  0  0  0  0  0  0  0  0  0  0  0
   53.4330  -12.1941    8.3652 C   0  0  0  0  0  0  0  0  0  0  0  0
   53.6337  -12.1234    7.0234 N   0  0  0  0  0  0  0  0  0  0  0  0
   53.9050  -13.3361    6.4604 C   0  0  0  0  0  0  0  0  0  0  0  0
   53.9932  -14.5518    7.0969 C   0  0  0  0  0  0  0  0  0  0  0  0
   53.7953  -14.6317    8.4783 C   0  0  0  0  0  0  0  0  0  0  0  0
   53.8353  -15.5998    9.2084 O   0  0  0  0  0  0  0  0  0  0  0  0
   54.2812  -15.5125    6.1654 N   0  0  0  0  0  0  0  0  0  0  0  0
   54.3663  -14.8965    4.9909 C   0  0  0  0  0  0  0  0  0  0  0  0
   54.1417  -13.5389    5.1237 N   0  0  0  0  0  0  0  0  0  0  0  0
  1  2  1  0  0  0  0
  1  6  1  0  0  0  0
  2  3  2  0  0  0  0
  3  4  1  0  0  0  0
  4  5  2  0  0  0  0
  4 10  1  0  0  0  0
  5  6  1  0  0  0  0
  5  8  1  0  0  0  0
  6  7  2  0  0  0  0
  8  9  1  0  0  0  0
  9 10  2  0  0  0  0
M  END
>  <CHROM.1>
53.88821275,-14.00470151,7.23492172,2.43822740,-1.35713692,2.35249248

>  <Name>
ligand

>  <RI>
0

>  <Rbt.Current_Directory>
/home/itssahil/PROJECTS/Mol_Feturizer/New_Systems/rnas/2EEV

>  <Rbt.Executable>
rbdock ($Id: //depot/dev/client3/rdock/2013.1/src/exe/rbdock.cxx#4 $)

>  <Rbt.Library>
libRbt.so (2013.1, Build901 2013/11/27)

>  <Rbt.Parameter_File>
/export/apps/rDock/src/rDock_2013.1_src/data/scripts/dock_solv.prm

>  <Rbt.Receptor>
prm/blind_docking_100.prm

>  <SCORE>
-19.2632

>  <SCORE.INTER>
-19.2632

>  <SCORE.INTER.CONST>
1

>  <SCORE.INTER.POLAR>
0

>  <SCORE.INTER.ROT>
0

>  <SCORE.INTER.SOLV>
4.76518

>  <SCORE.INTER.VDW>
-18.0305

>  <SCORE.INTER.norm>
-1.92632

>  <SCORE.INTRA>
0

>  <SCORE.INTRA.DIHEDRAL>
0

>  <SCORE.INTRA.DIHEDRAL.0>
0

>  <SCORE.INTRA.POLAR>
0

>  <SCORE.INTRA.POLAR.0>
0

>  <SCORE.INTRA.REPUL>
0

>  <SCORE.INTRA.REPUL.0>
0

>  <SCORE.INTRA.SOLV>
0

>  <SCORE.INTRA.SOLV.lig_0>
-4.25352

>  <SCORE.INTRA.VDW>
0

>  <SCORE.INTRA.VDW.0>
0

>  <SCORE.INTRA.norm>
0

>  <SCORE.RESTR>
0

>  <SCORE.RESTR.CAVITY>
0

>  <SCORE.RESTR.norm>
0

>  <SCORE.SYSTEM>
0

>  <SCORE.SYSTEM.CONST>
0

>  <SCORE.SYSTEM.DIHEDRAL>
0

>  <SCORE.SYSTEM.SOLV>
0

>  <SCORE.SYSTEM.norm>
0

>  <SCORE.heavy>
10

>  <SCORE.norm>
-1.92632

>  <RMSD>
2.407

$$$$
ligand
 OpenBabel11021811423D
libRbt.so/2013.1/901 2013/11/27
 10 11  0  0  0  0  0  0  0  0999 V2000
   53.5125  -13.3759    9.0506 N   0  0  0  0  0  0  0  0  0  0  0  0
   53.4311  -12.1935    8.3720 C   0  0  0  0  0  0  0  0  0  0  0  0
   53.6288  -12.1223    7.0298 N   0  0  0  0  0  0  0  0  0  0  0  0
   53.8995  -13.3347    6.4658 C   0  0  0  0  0  0  0  0  0  0  0  0
   53.9899  -14.5505    7.1017 C   0  0  0  0  0  0  0  0  0  0  0  0
   53.7949  -14.6310    8.4835 C   0  0  0  0  0  0  0  0  0  0  0  0
   53.8371  -15.5993    9.2132 O   0  0  0  0  0  0  0  0  0  0  0  0
   54.2764  -15.5107    6.1692 N   0  0  0  0  0  0  0  0  0  0  0  0
   54.3585  -14.8943    4.9948 C   0  0  0  0  0  0  0  0  0  0  0  0
   54.1335  -13.5369    5.1285 N   0  0  0  0  0  0  0  0  0  0  0  0
  1  2  1  0  0  0  0
  1  6  1  0  0  0  0
  2  3  2  0  0  0  0
  3  4  1  0  0  0  0
  4  5  2  0  0  0  0
  4 10  1  0  0  0  0
  5  6  1  0  0  0  0
  5  8  1  0  0  0  0
  6  7  2  0  0  0  0
  8  9  1  0  0  0  0
  9 10  2  0  0  0  0
M  END
>  <CHROM.1>
53.88483425,-14.00351284,7.24015992,2.42911387,-1.35824654,2.34391685

>  <Name>
ligand

>  <RI>
0

>  <Rbt.Current_Directory>
/home/itssahil/PROJECTS/Mol_Feturizer/New_Systems/rnas/2EEV

>  <Rbt.Executable>
rbdock ($Id: //depot/dev/client3/rdock/2013.1/src/exe/rbdock.cxx#4 $)

>  <Rbt.Library>
libRbt.so (2013.1, Build901 2013/11/27)

>  <Rbt.Parameter_File>
/export/apps/rDock/src/rDock_2013.1_src/data/scripts/dock_solv.prm

>  <Rbt.Receptor>
prm/blind_docking_60.prm

>  <SCORE>
-19.2705

>  <SCORE.INTER>
-19.2705

>  <SCORE.INTER.CONST>
1

>  <SCORE.INTER.POLAR>
0

>  <SCORE.INTER.ROT>
0

>  <SCORE.INTER.SOLV>
4.7674

>  <SCORE.INTER.VDW>
-18.0361

>  <SCORE.INTER.norm>
-1.92705

>  <SCORE.INTRA>
0

>  <SCORE.INTRA.DIHEDRAL>
0

>  <SCORE.INTRA.DIHEDRAL.0>
0

>  <SCORE.INTRA.POLAR>
0

>  <SCORE.INTRA.POLAR.0>
0

>  <SCORE.INTRA.REPUL>
0

>  <SCORE.INTRA.REPUL.0>
0

>  <SCORE.INTRA.SOLV>
0

>  <SCORE.INTRA.SOLV.lig_0>
-4.25352

>  <SCORE.INTRA.VDW>
0

>  <SCORE.INTRA.VDW.0>
0

>  <SCORE.INTRA.norm>
0

>  <SCORE.RESTR>
0

>  <SCORE.RESTR.CAVITY>
0

>  <SCORE.RESTR.norm>
0

>  <SCORE.SYSTEM>
0

>  <SCORE.SYSTEM.CONST>
0

>  <SCORE.SYSTEM.DIHEDRAL>
0

>  <SCORE.SYSTEM.SOLV>
0

>  <SCORE.SYSTEM.norm>
0

>  <SCORE.heavy>
10

>  <SCORE.norm>
-1.92705

>  <RMSD>
2.407

$$$$
ligand
 OpenBabel11021811423D
libRbt.so/2013.1/901 2013/11/27
 10 11  0  0  0  0  0  0  0  0999 V2000
   53.5219  -13.3773    9.0533 N   0  0  0  0  0  0  0  0  0  0  0  0
   53.4330  -12.1950    8.3755 C   0  0  0  0  0  0  0  0  0  0  0  0
   53.6231  -12.1226    7.0323 N   0  0  0  0  0  0  0  0  0  0  0  0
   53.8944  -13.3340    6.4664 C   0  0  0  0  0  0  0  0  0  0  0  0
   53.9921  -14.5498    7.1013 C   0  0  0  0  0  0  0  0  0  0  0  0
   53.8051  -14.6313    8.4842 C   0  0  0  0  0  0  0  0  0  0  0  0
   53.8544  -15.5997    9.2133 O   0  0  0  0  0  0  0  0  0  0  0  0
   54.2763  -15.5087    6.1669 N   0  0  0  0  0  0  0  0  0  0  0  0
   54.3500  -14.8916    4.9923 C   0  0  0  0  0  0  0  0  0  0  0  0
   54.1215  -13.5350    5.1277 N   0  0  0  0  0  0  0  0  0  0  0  0
  1  2  1  0  0  0  0
  1  6  1  0  0  0  0
  2  3  2  0  0  0  0
  3  4  1  0  0  0  0
  4  5  2  0  0  0  0
  4 10  1  0  0  0  0
  5  6  1  0  0  0  0
  5  8  1  0  0  0  0
  6  7  2  0  0  0  0
  8  9  1  0  0  0  0
  9 10  2  0  0  0  0
M  END
>  <CHROM.1>
53.88609885,-14.00312258,7.24054496,2.39958447,-1.35983557,2.31539344

>  <Name>
ligand

>  <RI>
0

>  <Rbt.Current_Directory>
/home/itssahil/PROJECTS/Mol_Feturizer/New_Systems/rnas/2EEV

>  <Rbt.Executable>
rbdock ($Id: //depot/dev/client3/rdock/2013.1/src/exe/rbdock.cxx#4 $)

>  <Rbt.Library>
libRbt.so (2013.1, Build901 2013/11/27)

>  <Rbt.Parameter_File>
/export/apps/rDock/src/rDock_2013.1_src/data/scripts/dock_solv.prm

>  <Rbt.Receptor>
prm/pocket_docking_4.prm

>  <SCORE>
-19.2804

>  <SCORE.INTER>
-19.2804

>  <SCORE.INTER.CONST>
1

>  <SCORE.INTER.POLAR>
0

>  <SCORE.INTER.ROT>
0

>  <SCORE.INTER.SOLV>
4.75761

>  <SCORE.INTER.VDW>
-18.0395

>  <SCORE.INTER.norm>
-1.92804

>  <SCORE.INTRA>
0

>  <SCORE.INTRA.DIHEDRAL>
0

>  <SCORE.INTRA.DIHEDRAL.0>
0

>  <SCORE.INTRA.POLAR>
0

>  <SCORE.INTRA.POLAR.0>
0

>  <SCORE.INTRA.REPUL>
0

>  <SCORE.INTRA.REPUL.0>
0

>  <SCORE.INTRA.SOLV>
0

>  <SCORE.INTRA.SOLV.lig_0>
-4.25352

>  <SCORE.INTRA.VDW>
0

>  <SCORE.INTRA.VDW.0>
0

>  <SCORE.INTRA.norm>
0

>  <SCORE.RESTR>
0

>  <SCORE.RESTR.CAVITY>
0

>  <SCORE.RESTR.norm>
0

>  <SCORE.SYSTEM>
0

>  <SCORE.SYSTEM.CONST>
0

>  <SCORE.SYSTEM.DIHEDRAL>
0

>  <SCORE.SYSTEM.SOLV>
0

>  <SCORE.SYSTEM.norm>
0

>  <SCORE.heavy>
10

>  <SCORE.norm>
-1.92804

>  <RMSD>
2.407

$$$$
ligand
 OpenBabel11021811423D
libRbt.so/2013.1/901 2013/11/27
 10 11  0  0  0  0  0  0  0  0999 V2000
   53.5406  -13.3862    9.0595 N   0  0  0  0  0  0  0  0  0  0  0  0
   53.4288  -12.2094    8.3755 C   0  0  0  0  0  0  0  0  0  0  0  0
   53.6146  -12.1410    7.0314 N   0  0  0  0  0  0  0  0  0  0  0  0
   53.9067  -13.3503    6.4716 C   0  0  0  0  0  0  0  0  0  0  0  0
   54.0279  -14.5606    7.1129 C   0  0  0  0  0  0  0  0  0  0  0  0
   53.8454  -14.6379    8.4966 C   0  0  0  0  0  0  0  0  0  0  0  0
   53.9139  -15.6013    9.2309 O   0  0  0  0  0  0  0  0  0  0  0  0
   54.3276  -15.5194    6.1831 N   0  0  0  0  0  0  0  0  0  0  0  0
   54.3875  -14.9075    5.0050 C   0  0  0  0  0  0  0  0  0  0  0  0
   54.1346  -13.5546    5.1335 N   0  0  0  0  0  0  0  0  0  0  0  0
  1  2  1  0  0  0  0
  1  6  1  0  0  0  0
  2  3  2  0  0  0  0
  3  4  1  0  0  0  0
  4  5  2  0  0  0  0
  4 10  1  0  0  0  0
  5  6  1  0  0  0  0
  5  8  1  0  0  0  0
  6  7  2  0  0  0  0
  8  9  1  0  0  0  0
  9 10  2  0  0  0  0
M  END
>  <CHROM.1>
53.91227243,-14.01524405,7.24939141,2.33669424,-1.34746007,2.24849710

>  <Name>
ligand

>  <RI>
0

>  <Rbt.Current_Directory>
/home/itssahil/PROJECTS/Mol_Feturizer/New_Systems/rnas/2EEV

>  <Rbt.Executable>
rbdock ($Id: //depot/dev/client3/rdock/2013.1/src/exe/rbdock.cxx#4 $)

>  <Rbt.Library>
libRbt.so (2013.1, Build901 2013/11/27)

>  <Rbt.Parameter_File>
/export/apps/rDock/src/rDock_2013.1_src/data/scripts/dock_solv.prm

>  <Rbt.Receptor>
prm/pocket_docking_4.prm

>  <SCORE>
-19.2647

>  <SCORE.INTER>
-19.2661

>  <SCORE.INTER.CONST>
1

>  <SCORE.INTER.POLAR>
0

>  <SCORE.INTER.ROT>
0

>  <SCORE.INTER.SOLV>
4.70145

>  <SCORE.INTER.VDW>
-18.0112

>  <SCORE.INTER.norm>
-1.92661

>  <SCORE.INTRA>
0

>  <SCORE.INTRA.DIHEDRAL>
0

>  <SCORE.INTRA.DIHEDRAL.0>
0

>  <SCORE.INTRA.POLAR>
0

>  <SCORE.INTRA.POLAR.0>
0

>  <SCORE.INTRA.REPUL>
0

>  <SCORE.INTRA.REPUL.0>
0

>  <SCORE.INTRA.SOLV>
0

>  <SCORE.INTRA.SOLV.lig_0>
-4.25352

>  <SCORE.INTRA.VDW>
0

>  <SCORE.INTRA.VDW.0>
0

>  <SCORE.INTRA.norm>
0

>  <SCORE.RESTR>
0.00130621

>  <SCORE.RESTR.CAVITY>
0.00130621

>  <SCORE.RESTR.norm>
0.000130621

>  <SCORE.SYSTEM>
0

>  <SCORE.SYSTEM.CONST>
0

>  <SCORE.SYSTEM.DIHEDRAL>
0

>  <SCORE.SYSTEM.SOLV>
0

>  <SCORE.SYSTEM.norm>
0

>  <SCORE.heavy>
10

>  <SCORE.norm>
-1.92647

>  <RMSD>
2.407

$$$$
ligand
 OpenBabel11021811423D
libRbt.so/2013.1/901 2013/11/27
 10 11  0  0  0  0  0  0  0  0999 V2000
   53.5184  -13.3748    9.0562 N   0  0  0  0  0  0  0  0  0  0  0  0
   53.4328  -12.1919    8.3790 C   0  0  0  0  0  0  0  0  0  0  0  0
   53.6240  -12.1194    7.0359 N   0  0  0  0  0  0  0  0  0  0  0  0
   53.8930  -13.3311    6.4696 C   0  0  0  0  0  0  0  0  0  0  0  0
   53.9874  -14.5474    7.1041 C   0  0  0  0  0  0  0  0  0  0  0  0
   53.7992  -14.6291    8.4867 C   0  0  0  0  0  0  0  0  0  0  0  0
   53.8458  -15.5981    9.2154 O   0  0  0  0  0  0  0  0  0  0  0  0
   54.2702  -15.5065    6.1694 N   0  0  0  0  0  0  0  0  0  0  0  0
   54.3462  -14.8890    4.9951 C   0  0  0  0  0  0  0  0  0  0  0  0
   54.1207  -13.5320    5.1310 N   0  0  0  0  0  0  0  0  0  0  0  0
  1  2  1  0  0  0  0
  1  6  1  0  0  0  0
  2  3  2  0  0  0  0
  3  4  1  0  0  0  0
  4  5  2  0  0  0  0
  4 10  1  0  0  0  0
  5  6  1  0  0  0  0
  5  8  1  0  0  0  0
  6  7  2  0  0  0  0
  8  9  1  0  0  0  0
  9 10  2  0  0  0  0
M  END
>  <CHROM.1>
53.88260176,-14.00057099,7.24345313,2.40962172,-1.36096349,2.32568380

>  <Name>
ligand

>  <RI>
0

>  <Rbt.Current_Directory>
/home/itssahil/PROJECTS/Mol_Feturizer/New_Systems/rnas/2EEV

>  <Rbt.Executable>
rbdock ($Id: //depot/dev/client3/rdock/2013.1/src/exe/rbdock.cxx#4 $)

>  <Rbt.Library>
libRbt.so (2013.1, Build901 2013/11/27)

>  <Rbt.Parameter_File>
/export/apps/rDock/src/rDock_2013.1_src/data/scripts/dock_solv.prm

>  <Rbt.Receptor>
prm/pocket_docking_8.prm

>  <SCORE>
-19.2771

>  <SCORE.INTER>
-19.2771

>  <SCORE.INTER.CONST>
1

>  <SCORE.INTER.POLAR>
0

>  <SCORE.INTER.ROT>
0

>  <SCORE.INTER.SOLV>
4.76493

>  <SCORE.INTER.VDW>
-18.0397

>  <SCORE.INTER.norm>
-1.92771

>  <SCORE.INTRA>
0

>  <SCORE.INTRA.DIHEDRAL>
0

>  <SCORE.INTRA.DIHEDRAL.0>
0

>  <SCORE.INTRA.POLAR>
0

>  <SCORE.INTRA.POLAR.0>
0

>  <SCORE.INTRA.REPUL>
0

>  <SCORE.INTRA.REPUL.0>
0

>  <SCORE.INTRA.SOLV>
0

>  <SCORE.INTRA.SOLV.lig_0>
-4.25352

>  <SCORE.INTRA.VDW>
0

>  <SCORE.INTRA.VDW.0>
0

>  <SCORE.INTRA.norm>
0

>  <SCORE.RESTR>
0

>  <SCORE.RESTR.CAVITY>
0

>  <SCORE.RESTR.norm>
0

>  <SCORE.SYSTEM>
0

>  <SCORE.SYSTEM.CONST>
0

>  <SCORE.SYSTEM.DIHEDRAL>
0

>  <SCORE.SYSTEM.SOLV>
0

>  <SCORE.SYSTEM.norm>
0

>  <SCORE.heavy>
10

>  <SCORE.norm>
-1.92771

>  <RMSD>
2.407

$$$$
ligand
 OpenBabel11021811423D
libRbt.so/2013.1/901 2013/11/27
 10 11  0  0  0  0  0  0  0  0999 V2000
   53.5302  -13.3769    9.0530 N   0  0  0  0  0  0  0  0  0  0  0  0
   53.4347  -12.1945    8.3763 C   0  0  0  0  0  0  0  0  0  0  0  0
   53.6201  -12.1206    7.0324 N   0  0  0  0  0  0  0  0  0  0  0  0
   53.8941  -13.3306    6.4649 C   0  0  0  0  0  0  0  0  0  0  0  0
   53.9984  -14.5464    7.0988 C   0  0  0  0  0  0  0  0  0  0  0  0
   53.8162  -14.6295    8.4821 C   0  0  0  0  0  0  0  0  0  0  0  0
   53.8715  -15.5982    9.2105 O   0  0  0  0  0  0  0  0  0  0  0  0
   54.2832  -15.5037    6.1628 N   0  0  0  0  0  0  0  0  0  0  0  0
   54.3507  -14.8856    4.9883 C   0  0  0  0  0  0  0  0  0  0  0  0
   54.1176  -13.5299    5.1254 N   0  0  0  0  0  0  0  0  0  0  0  0
  1  2  1  0  0  0  0
  1  6  1  0  0  0  0
  2  3  2  0  0  0  0
  3  4  1  0  0  0  0
  4  5  2  0  0  0  0
  4 10  1  0  0  0  0
  5  6  1  0  0  0  0
  5  8  1  0  0  0  0
  6  7  2  0  0  0  0
  8  9  1  0  0  0  0
  9 10  2  0  0  0  0
M  END
>  <CHROM.1>
53.89082036,-14.00022688,7.23866098,2.37615785,-1.35923871,2.29312008

>  <Name>
ligand

>  <RI>
0

>  <Rbt.Current_Directory>
/home/itssahil/PROJECTS/Mol_Feturizer/New_Systems/rnas/2EEV

>  <Rbt.Executable>
rbdock ($Id: //depot/dev/client3/rdock/2013.1/src/exe/rbdock.cxx#4 $)

>  <Rbt.Library>
libRbt.so (2013.1, Build901 2013/11/27)

>  <Rbt.Parameter_File>
/export/apps/rDock/src/rDock_2013.1_src/data/scripts/dock_solv.prm

>  <Rbt.Receptor>
prm/blind_docking_60.prm

>  <SCORE>
-19.2833

>  <SCORE.INTER>
-19.2833

>  <SCORE.INTER.CONST>
1

>  <SCORE.INTER.POLAR>
0

>  <SCORE.INTER.ROT>
0

>  <SCORE.INTER.SOLV>
4.74242

>  <SCORE.INTER.VDW>
-18.0364

>  <SCORE.INTER.norm>
-1.92833

>  <SCORE.INTRA>
0

>  <SCORE.INTRA.DIHEDRAL>
0

>  <SCORE.INTRA.DIHEDRAL.0>
0

>  <SCORE.INTRA.POLAR>
0

>  <SCORE.INTRA.POLAR.0>
0

>  <SCORE.INTRA.REPUL>
0

>  <SCORE.INTRA.REPUL.0>
0

>  <SCORE.INTRA.SOLV>
0

>  <SCORE.INTRA.SOLV.lig_0>
-4.25352

>  <SCORE.INTRA.VDW>
0

>  <SCORE.INTRA.VDW.0>
0

>  <SCORE.INTRA.norm>
0

>  <SCORE.RESTR>
0

>  <SCORE.RESTR.CAVITY>
0

>  <SCORE.RESTR.norm>
0

>  <SCORE.SYSTEM>
0

>  <SCORE.SYSTEM.CONST>
0

>  <SCORE.SYSTEM.DIHEDRAL>
0

>  <SCORE.SYSTEM.SOLV>
0

>  <SCORE.SYSTEM.norm>
0

>  <SCORE.heavy>
10

>  <SCORE.norm>
-1.92833

>  <RMSD>
2.408

$$$$
ligand
 OpenBabel11021811423D
libRbt.so/2013.1/901 2013/11/27
 10 11  0  0  0  0  0  0  0  0999 V2000
   53.5194  -13.3778    9.0536 N   0  0  0  0  0  0  0  0  0  0  0  0
   53.4262  -12.1954    8.3765 C   0  0  0  0  0  0  0  0  0  0  0  0
   53.6159  -12.1217    7.0333 N   0  0  0  0  0  0  0  0  0  0  0  0
   53.8916  -13.3318    6.4668 C   0  0  0  0  0  0  0  0  0  0  0  0
   53.9937  -14.5476    7.1011 C   0  0  0  0  0  0  0  0  0  0  0  0
   53.8071  -14.6304    8.4839 C   0  0  0  0  0  0  0  0  0  0  0  0
   53.8600  -15.5991    9.2125 O   0  0  0  0  0  0  0  0  0  0  0  0
   54.2813  -15.5050    6.1662 N   0  0  0  0  0  0  0  0  0  0  0  0
   54.3527  -14.8871    4.9918 C   0  0  0  0  0  0  0  0  0  0  0  0
   54.1193  -13.5314    5.1280 N   0  0  0  0  0  0  0  0  0  0  0  0
  1  2  1  0  0  0  0
  1  6  1  0  0  0  0
  2  3  2  0  0  0  0
  3  4  1  0  0  0  0
  4  5  2  0  0  0  0
  4 10  1  0  0  0  0
  5  6  1  0  0  0  0
  5  8  1  0  0  0  0
  6  7  2  0  0  0  0
  8  9  1  0  0  0  0
  9 10  2  0  0  0  0
M  END
>  <CHROM.1>
53.88575764,-14.00137533,7.24058932,2.38778106,-1.35720916,2.30435580

>  <Name>
ligand

>  <RI>
0

>  <Rbt.Current_Directory>
/home/itssahil/PROJECTS/Mol_Feturizer/New_Systems/rnas/2EEV

>  <Rbt.Executable>
rbdock ($Id: //depot/dev/client3/rdock/2013.1/src/exe/rbdock.cxx#4 $)

>  <Rbt.Library>
libRbt.so (2013.1, Build901 2013/11/27)

>  <Rbt.Parameter_File>
/export/apps/rDock/src/rDock_2013.1_src/data/scripts/dock_solv.prm

>  <Rbt.Receptor>
prm/blind_docking_60.prm

>  <SCORE>
-19.2826

>  <SCORE.INTER>
-19.2826

>  <SCORE.INTER.CONST>
1

>  <SCORE.INTER.POLAR>
0

>  <SCORE.INTER.ROT>
0

>  <SCORE.INTER.SOLV>
4.75136

>  <SCORE.INTER.VDW>
-18.0388

>  <SCORE.INTER.norm>
-1.92826

>  <SCORE.INTRA>
0

>  <SCORE.INTRA.DIHEDRAL>
0

>  <SCORE.INTRA.DIHEDRAL.0>
0

>  <SCORE.INTRA.POLAR>
0

>  <SCORE.INTRA.POLAR.0>
0

>  <SCORE.INTRA.REPUL>
0

>  <SCORE.INTRA.REPUL.0>
0

>  <SCORE.INTRA.SOLV>
0

>  <SCORE.INTRA.SOLV.lig_0>
-4.25352

>  <SCORE.INTRA.VDW>
0

>  <SCORE.INTRA.VDW.0>
0

>  <SCORE.INTRA.norm>
0

>  <SCORE.RESTR>
0

>  <SCORE.RESTR.CAVITY>
0

>  <SCORE.RESTR.norm>
0

>  <SCORE.SYSTEM>
0

>  <SCORE.SYSTEM.CONST>
0

>  <SCORE.SYSTEM.DIHEDRAL>
0

>  <SCORE.SYSTEM.SOLV>
0

>  <SCORE.SYSTEM.norm>
0

>  <SCORE.heavy>
10

>  <SCORE.norm>
-1.92826

>  <RMSD>
2.408

$$$$
ligand
 OpenBabel11021811423D
libRbt.so/2013.1/901 2013/11/27
 10 11  0  0  0  0  0  0  0  0999 V2000
   53.5227  -13.3783    9.0567 N   0  0  0  0  0  0  0  0  0  0  0  0
   53.4280  -12.1958    8.3800 C   0  0  0  0  0  0  0  0  0  0  0  0
   53.6137  -12.1220    7.0362 N   0  0  0  0  0  0  0  0  0  0  0  0
   53.8874  -13.3321    6.4688 C   0  0  0  0  0  0  0  0  0  0  0  0
   53.9909  -14.5480    7.1026 C   0  0  0  0  0  0  0  0  0  0  0  0
   53.8083  -14.6310    8.4859 C   0  0  0  0  0  0  0  0  0  0  0  0
   53.8630  -15.5997    9.2143 O   0  0  0  0  0  0  0  0  0  0  0  0
   54.2755  -15.5054    6.1667 N   0  0  0  0  0  0  0  0  0  0  0  0
   54.3437  -14.8873    4.9923 C   0  0  0  0  0  0  0  0  0  0  0  0
   54.1112  -13.5315    5.1293 N   0  0  0  0  0  0  0  0  0  0  0  0
  1  2  1  0  0  0  0
  1  6  1  0  0  0  0
  2  3  2  0  0  0  0
  3  4  1  0  0  0  0
  4  5  2  0  0  0  0
  4 10  1  0  0  0  0
  5  6  1  0  0  0  0
  5  8  1  0  0  0  0
  6  7  2  0  0  0  0
  8  9  1  0  0  0  0
  9 10  2  0  0  0  0
M  END
>  <CHROM.1>
53.88356702,-14.00174747,7.24248978,2.37856427,-1.35939940,2.29548445

>  <Name>
ligand

>  <RI>
0

>  <Rbt.Current_Directory>
/home/itssahil/PROJECTS/Mol_Feturizer/New_Systems/rnas/2EEV

>  <Rbt.Executable>
rbdock ($Id: //depot/dev/client3/rdock/2013.1/src/exe/rbdock.cxx#4 $)

>  <Rbt.Library>
libRbt.so (2013.1, Build901 2013/11/27)

>  <Rbt.Parameter_File>
/export/apps/rDock/src/rDock_2013.1_src/data/scripts/dock_solv.prm

>  <Rbt.Receptor>
prm/pocket_docking_3.prm

>  <SCORE>
-19.284

>  <SCORE.INTER>
-19.284

>  <SCORE.INTER.CONST>
1

>  <SCORE.INTER.POLAR>
0

>  <SCORE.INTER.ROT>
0

>  <SCORE.INTER.SOLV>
4.75318

>  <SCORE.INTER.VDW>
-18.0404

>  <SCORE.INTER.norm>
-1.9284

>  <SCORE.INTRA>
0

>  <SCORE.INTRA.DIHEDRAL>
0

>  <SCORE.INTRA.DIHEDRAL.0>
0

>  <SCORE.INTRA.POLAR>
0

>  <SCORE.INTRA.POLAR.0>
0

>  <SCORE.INTRA.REPUL>
0

>  <SCORE.INTRA.REPUL.0>
0

>  <SCORE.INTRA.SOLV>
0

>  <SCORE.INTRA.SOLV.lig_0>
-4.25352

>  <SCORE.INTRA.VDW>
0

>  <SCORE.INTRA.VDW.0>
0

>  <SCORE.INTRA.norm>
0

>  <SCORE.RESTR>
0

>  <SCORE.RESTR.CAVITY>
0

>  <SCORE.RESTR.norm>
0

>  <SCORE.SYSTEM>
0

>  <SCORE.SYSTEM.CONST>
0

>  <SCORE.SYSTEM.DIHEDRAL>
0

>  <SCORE.SYSTEM.SOLV>
0

>  <SCORE.SYSTEM.norm>
0

>  <SCORE.heavy>
10

>  <SCORE.norm>
-1.9284

>  <RMSD>
2.408

$$$$
ligand
 OpenBabel11021811423D
libRbt.so/2013.1/901 2013/11/27
 10 11  0  0  0  0  0  0  0  0999 V2000
   53.5168  -13.3776    9.0541 N   0  0  0  0  0  0  0  0  0  0  0  0
   53.4250  -12.1954    8.3764 C   0  0  0  0  0  0  0  0  0  0  0  0
   53.6160  -12.1223    7.0333 N   0  0  0  0  0  0  0  0  0  0  0  0
   53.8913  -13.3328    6.4675 C   0  0  0  0  0  0  0  0  0  0  0  0
   53.9921  -14.5484    7.1024 C   0  0  0  0  0  0  0  0  0  0  0  0
   53.8042  -14.6306    8.4851 C   0  0  0  0  0  0  0  0  0  0  0  0
   53.8557  -15.5990    9.2141 O   0  0  0  0  0  0  0  0  0  0  0  0
   54.2800  -15.5064    6.1681 N   0  0  0  0  0  0  0  0  0  0  0  0
   54.3528  -14.8889    4.9936 C   0  0  0  0  0  0  0  0  0  0  0  0
   54.1202  -13.5330    5.1290 N   0  0  0  0  0  0  0  0  0  0  0  0
  1  2  1  0  0  0  0
  1  6  1  0  0  0  0
  2  3  2  0  0  0  0
  3  4  1  0  0  0  0
  4  5  2  0  0  0  0
  4 10  1  0  0  0  0
  5  6  1  0  0  0  0
  5  8  1  0  0  0  0
  6  7  2  0  0  0  0
  8  9  1  0  0  0  0
  9 10  2  0  0  0  0
M  END
>  <CHROM.1>
53.88437920,-14.00206782,7.24160094,2.39309744,-1.35707530,2.30918301

>  <Name>
ligand

>  <RI>
0

>  <Rbt.Current_Directory>
/home/itssahil/PROJECTS/Mol_Feturizer/New_Systems/rnas/2EEV

>  <Rbt.Executable>
rbdock ($Id: //depot/dev/client3/rdock/2013.1/src/exe/rbdock.cxx#4 $)

>  <Rbt.Library>
libRbt.so (2013.1, Build901 2013/11/27)

>  <Rbt.Parameter_File>
/export/apps/rDock/src/rDock_2013.1_src/data/scripts/dock_solv.prm

>  <Rbt.Receptor>
prm/pocket_docking_3.prm

>  <SCORE>
-19.2816

>  <SCORE.INTER>
-19.2816

>  <SCORE.INTER.CONST>
1

>  <SCORE.INTER.POLAR>
0

>  <SCORE.INTER.ROT>
0

>  <SCORE.INTER.SOLV>
4.75484

>  <SCORE.INTER.VDW>
-18.0394

>  <SCORE.INTER.norm>
-1.92816

>  <SCORE.INTRA>
0

>  <SCORE.INTRA.DIHEDRAL>
0

>  <SCORE.INTRA.DIHEDRAL.0>
0

>  <SCORE.INTRA.POLAR>
0

>  <SCORE.INTRA.POLAR.0>
0

>  <SCORE.INTRA.REPUL>
0

>  <SCORE.INTRA.REPUL.0>
0

>  <SCORE.INTRA.SOLV>
0

>  <SCORE.INTRA.SOLV.lig_0>
-4.25352

>  <SCORE.INTRA.VDW>
0

>  <SCORE.INTRA.VDW.0>
0

>  <SCORE.INTRA.norm>
0

>  <SCORE.RESTR>
0

>  <SCORE.RESTR.CAVITY>
0

>  <SCORE.RESTR.norm>
0

>  <SCORE.SYSTEM>
0

>  <SCORE.SYSTEM.CONST>
0

>  <SCORE.SYSTEM.DIHEDRAL>
0

>  <SCORE.SYSTEM.SOLV>
0

>  <SCORE.SYSTEM.norm>
0

>  <SCORE.heavy>
10

>  <SCORE.norm>
-1.92816

>  <RMSD>
2.408

$$$$
ligand
 OpenBabel11021811423D
libRbt.so/2013.1/901 2013/11/27
 10 11  0  0  0  0  0  0  0  0999 V2000
   53.5196  -13.3795    9.0564 N   0  0  0  0  0  0  0  0  0  0  0  0
   53.4231  -12.1967    8.3805 C   0  0  0  0  0  0  0  0  0  0  0  0
   53.6105  -12.1213    7.0370 N   0  0  0  0  0  0  0  0  0  0  0  0
   53.8877  -13.3304    6.4690 C   0  0  0  0  0  0  0  0  0  0  0  0
   53.9932  -14.5465    7.1020 C   0  0  0  0  0  0  0  0  0  0  0  0
   53.8089  -14.6310    8.4850 C   0  0  0  0  0  0  0  0  0  0  0  0
   53.8648  -15.6003    9.2127 O   0  0  0  0  0  0  0  0  0  0  0  0
   54.2813  -15.5025    6.1657 N   0  0  0  0  0  0  0  0  0  0  0  0
   54.3496  -14.8833    4.9919 C   0  0  0  0  0  0  0  0  0  0  0  0
   54.1138  -13.5282    5.1296 N   0  0  0  0  0  0  0  0  0  0  0  0
  1  2  1  0  0  0  0
  1  6  1  0  0  0  0
  2  3  2  0  0  0  0
  3  4  1  0  0  0  0
  4  5  2  0  0  0  0
  4 10  1  0  0  0  0
  5  6  1  0  0  0  0
  5  8  1  0  0  0  0
  6  7  2  0  0  0  0
  8  9  1  0  0  0  0
  9 10  2  0  0  0  0
M  END
>  <CHROM.1>
53.88440194,-14.00065841,7.24216555,2.37617544,-1.35676172,2.29395510

>  <Name>
ligand

>  <RI>
0

>  <Rbt.Current_Directory>
/home/itssahil/PROJECTS/Mol_Feturizer/New_Systems/rnas/2EEV

>  <Rbt.Executable>
rbdock ($Id: //depot/dev/client3/rdock/2013.1/src/exe/rbdock.cxx#4 $)

>  <Rbt.Library>
libRbt.so (2013.1, Build901 2013/11/27)

>  <Rbt.Parameter_File>
/export/apps/rDock/src/rDock_2013.1_src/data/scripts/dock_solv.prm

>  <Rbt.Receptor>
prm/pocket_docking_4.prm

>  <SCORE>
-19.2851

>  <SCORE.INTER>
-19.2853

>  <SCORE.INTER.CONST>
1

>  <SCORE.INTER.POLAR>
0

>  <SCORE.INTER.ROT>
0

>  <SCORE.INTER.SOLV>
4.74948

>  <SCORE.INTER.VDW>
-18.04

>  <SCORE.INTER.norm>
-1.92853

>  <SCORE.INTRA>
0

>  <SCORE.INTRA.DIHEDRAL>
0

>  <SCORE.INTRA.DIHEDRAL.0>
0

>  <SCORE.INTRA.POLAR>
0

>  <SCORE.INTRA.POLAR.0>
0

>  <SCORE.INTRA.REPUL>
0

>  <SCORE.INTRA.REPUL.0>
0

>  <SCORE.INTRA.SOLV>
0

>  <SCORE.INTRA.SOLV.lig_0>
-4.25352

>  <SCORE.INTRA.VDW>
0

>  <SCORE.INTRA.VDW.0>
0

>  <SCORE.INTRA.norm>
0

>  <SCORE.RESTR>
0.000273741

>  <SCORE.RESTR.CAVITY>
0.000273741

>  <SCORE.RESTR.norm>
2.73741e-05

>  <SCORE.SYSTEM>
0

>  <SCORE.SYSTEM.CONST>
0

>  <SCORE.SYSTEM.DIHEDRAL>
0

>  <SCORE.SYSTEM.SOLV>
0

>  <SCORE.SYSTEM.norm>
0

>  <SCORE.heavy>
10

>  <SCORE.norm>
-1.92851

>  <RMSD>
2.408

$$$$
ligand
 OpenBabel11021811423D
libRbt.so/2013.1/901 2013/11/27
 10 11  0  0  0  0  0  0  0  0999 V2000
   53.5291  -13.3788    9.0538 N   0  0  0  0  0  0  0  0  0  0  0  0
   53.4301  -12.1974    8.3758 C   0  0  0  0  0  0  0  0  0  0  0  0
   53.6121  -12.1249    7.0314 N   0  0  0  0  0  0  0  0  0  0  0  0
   53.8867  -13.3352    6.4648 C   0  0  0  0  0  0  0  0  0  0  0  0
   53.9945  -14.5500    7.1000 C   0  0  0  0  0  0  0  0  0  0  0  0
   53.8158  -14.6316    8.4839 C   0  0  0  0  0  0  0  0  0  0  0  0
   53.8744  -15.5993    9.2134 O   0  0  0  0  0  0  0  0  0  0  0  0
   54.2786  -15.5081    6.1646 N   0  0  0  0  0  0  0  0  0  0  0  0
   54.3424  -14.8914    4.9892 C   0  0  0  0  0  0  0  0  0  0  0  0
   54.1074  -13.5360    5.1250 N   0  0  0  0  0  0  0  0  0  0  0  0
  1  2  1  0  0  0  0
  1  6  1  0  0  0  0
  2  3  2  0  0  0  0
  3  4  1  0  0  0  0
  4  5  2  0  0  0  0
  4 10  1  0  0  0  0
  5  6  1  0  0  0  0
  5  8  1  0  0  0  0
  6  7  2  0  0  0  0
  8  9  1  0  0  0  0
  9 10  2  0  0  0  0
M  END
>  <CHROM.1>
53.88640074,-14.00386700,7.23946236,2.36249751,-1.35956991,2.27845909

>  <Name>
ligand

>  <RI>
0

>  <Rbt.Current_Directory>
/home/itssahil/PROJECTS/Mol_Feturizer/New_Systems/rnas/2EEV

>  <Rbt.Executable>
rbdock ($Id: //depot/dev/client3/rdock/2013.1/src/exe/rbdock.cxx#4 $)

>  <Rbt.Library>
libRbt.so (2013.1, Build901 2013/11/27)

>  <Rbt.Parameter_File>
/export/apps/rDock/src/rDock_2013.1_src/data/scripts/dock_solv.prm

>  <Rbt.Receptor>
prm/pocket_docking_6.prm

>  <SCORE>
-19.2841

>  <SCORE.INTER>
-19.2841

>  <SCORE.INTER.CONST>
1

>  <SCORE.INTER.POLAR>
0

>  <SCORE.INTER.ROT>
0

>  <SCORE.INTER.SOLV>
4.74409

>  <SCORE.INTER.VDW>
-18.0374

>  <SCORE.INTER.norm>
-1.92841

>  <SCORE.INTRA>
0

>  <SCORE.INTRA.DIHEDRAL>
0

>  <SCORE.INTRA.DIHEDRAL.0>
0

>  <SCORE.INTRA.POLAR>
0

>  <SCORE.INTRA.POLAR.0>
0

>  <SCORE.INTRA.REPUL>
0

>  <SCORE.INTRA.REPUL.0>
0

>  <SCORE.INTRA.SOLV>
0

>  <SCORE.INTRA.SOLV.lig_0>
-4.25352

>  <SCORE.INTRA.VDW>
0

>  <SCORE.INTRA.VDW.0>
0

>  <SCORE.INTRA.norm>
0

>  <SCORE.RESTR>
0

>  <SCORE.RESTR.CAVITY>
0

>  <SCORE.RESTR.norm>
0

>  <SCORE.SYSTEM>
0

>  <SCORE.SYSTEM.CONST>
0

>  <SCORE.SYSTEM.DIHEDRAL>
0

>  <SCORE.SYSTEM.SOLV>
0

>  <SCORE.SYSTEM.norm>
0

>  <SCORE.heavy>
10

>  <SCORE.norm>
-1.92841

>  <RMSD>
2.408

$$$$
ligand
 OpenBabel11021811423D
libRbt.so/2013.1/901 2013/11/27
 10 11  0  0  0  0  0  0  0  0999 V2000
   53.5226  -13.3777    9.0574 N   0  0  0  0  0  0  0  0  0  0  0  0
   53.4303  -12.1957    8.3795 C   0  0  0  0  0  0  0  0  0  0  0  0
   53.6161  -12.1236    7.0356 N   0  0  0  0  0  0  0  0  0  0  0  0
   53.8869  -13.3350    6.4694 C   0  0  0  0  0  0  0  0  0  0  0  0
   53.9879  -14.5504    7.1045 C   0  0  0  0  0  0  0  0  0  0  0  0
   53.8053  -14.6315    8.4879 C   0  0  0  0  0  0  0  0  0  0  0  0
   53.8579  -15.5997    9.2173 O   0  0  0  0  0  0  0  0  0  0  0  0
   54.2702  -15.5094    6.1695 N   0  0  0  0  0  0  0  0  0  0  0  0
   54.3396  -14.8927    4.9944 C   0  0  0  0  0  0  0  0  0  0  0  0
   54.1101  -13.5363    5.1300 N   0  0  0  0  0  0  0  0  0  0  0  0
  1  2  1  0  0  0  0
  1  6  1  0  0  0  0
  2  3  2  0  0  0  0
  3  4  1  0  0  0  0
  4  5  2  0  0  0  0
  4 10  1  0  0  0  0
  5  6  1  0  0  0  0
  5  8  1  0  0  0  0
  6  7  2  0  0  0  0
  8  9  1  0  0  0  0
  9 10  2  0  0  0  0
M  END
>  <CHROM.1>
53.88177503,-14.00379112,7.24379459,2.38507651,-1.36114590,2.30081148

>  <Name>
ligand

>  <RI>
0

>  <Rbt.Current_Directory>
/home/itssahil/PROJECTS/Mol_Feturizer/New_Systems/rnas/2EEV

>  <Rbt.Executable>
rbdock ($Id: //depot/dev/client3/rdock/2013.1/src/exe/rbdock.cxx#4 $)

>  <Rbt.Library>
libRbt.so (2013.1, Build901 2013/11/27)

>  <Rbt.Parameter_File>
/export/apps/rDock/src/rDock_2013.1_src/data/scripts/dock_solv.prm

>  <Rbt.Receptor>
prm/pocket_docking_7.prm

>  <SCORE>
-19.2823

>  <SCORE.INTER>
-19.2823

>  <SCORE.INTER.CONST>
1

>  <SCORE.INTER.POLAR>
0

>  <SCORE.INTER.ROT>
0

>  <SCORE.INTER.SOLV>
4.75917

>  <SCORE.INTER.VDW>
-18.0413

>  <SCORE.INTER.norm>
-1.92823

>  <SCORE.INTRA>
0

>  <SCORE.INTRA.DIHEDRAL>
0

>  <SCORE.INTRA.DIHEDRAL.0>
0

>  <SCORE.INTRA.POLAR>
0

>  <SCORE.INTRA.POLAR.0>
0

>  <SCORE.INTRA.REPUL>
0

>  <SCORE.INTRA.REPUL.0>
0

>  <SCORE.INTRA.SOLV>
0

>  <SCORE.INTRA.SOLV.lig_0>
-4.25352

>  <SCORE.INTRA.VDW>
0

>  <SCORE.INTRA.VDW.0>
0

>  <SCORE.INTRA.norm>
0

>  <SCORE.RESTR>
0

>  <SCORE.RESTR.CAVITY>
0

>  <SCORE.RESTR.norm>
0

>  <SCORE.SYSTEM>
0

>  <SCORE.SYSTEM.CONST>
0

>  <SCORE.SYSTEM.DIHEDRAL>
0

>  <SCORE.SYSTEM.SOLV>
0

>  <SCORE.SYSTEM.norm>
0

>  <SCORE.heavy>
10

>  <SCORE.norm>
-1.92823

>  <RMSD>
2.408

$$$$
ligand
 OpenBabel11021811423D
libRbt.so/2013.1/901 2013/11/27
 10 11  0  0  0  0  0  0  0  0999 V2000
   53.5313  -13.3776    9.0530 N   0  0  0  0  0  0  0  0  0  0  0  0
   53.4367  -12.1949    8.3765 C   0  0  0  0  0  0  0  0  0  0  0  0
   53.6218  -12.1210    7.0326 N   0  0  0  0  0  0  0  0  0  0  0  0
   53.8947  -13.3311    6.4649 C   0  0  0  0  0  0  0  0  0  0  0  0
   53.9981  -14.5471    7.0985 C   0  0  0  0  0  0  0  0  0  0  0  0
   53.8161  -14.6302    8.4819 C   0  0  0  0  0  0  0  0  0  0  0  0
   53.8707  -15.5991    9.2101 O   0  0  0  0  0  0  0  0  0  0  0  0
   54.2818  -15.5045    6.1624 N   0  0  0  0  0  0  0  0  0  0  0  0
   54.3497  -14.8863    4.9880 C   0  0  0  0  0  0  0  0  0  0  0  0
   54.1178  -13.5305    5.1253 N   0  0  0  0  0  0  0  0  0  0  0  0
  1  2  1  0  0  0  0
  1  6  1  0  0  0  0
  2  3  2  0  0  0  0
  3  4  1  0  0  0  0
  4  5  2  0  0  0  0
  4 10  1  0  0  0  0
  5  6  1  0  0  0  0
  5  8  1  0  0  0  0
  6  7  2  0  0  0  0
  8  9  1  0  0  0  0
  9 10  2  0  0  0  0
M  END
>  <CHROM.1>
53.89101089,-14.00089511,7.23852942,2.37805188,-1.36001504,2.29512021

>  <Name>
ligand

>  <RI>
0

>  <Rbt.Current_Directory>
/home/itssahil/PROJECTS/Mol_Feturizer/New_Systems/rnas/2EEV

>  <Rbt.Executable>
rbdock ($Id: //depot/dev/client3/rdock/2013.1/src/exe/rbdock.cxx#4 $)

>  <Rbt.Library>
libRbt.so (2013.1, Build901 2013/11/27)

>  <Rbt.Parameter_File>
/export/apps/rDock/src/rDock_2013.1_src/data/scripts/dock_solv.prm

>  <Rbt.Receptor>
prm/pocket_docking_8.prm

>  <SCORE>
-19.2835

>  <SCORE.INTER>
-19.2835

>  <SCORE.INTER.CONST>
1

>  <SCORE.INTER.POLAR>
0

>  <SCORE.INTER.ROT>
0

>  <SCORE.INTER.SOLV>
4.74408

>  <SCORE.INTER.VDW>
-18.037

>  <SCORE.INTER.norm>
-1.92835

>  <SCORE.INTRA>
0

>  <SCORE.INTRA.DIHEDRAL>
0

>  <SCORE.INTRA.DIHEDRAL.0>
0

>  <SCORE.INTRA.POLAR>
0

>  <SCORE.INTRA.POLAR.0>
0

>  <SCORE.INTRA.REPUL>
0

>  <SCORE.INTRA.REPUL.0>
0

>  <SCORE.INTRA.SOLV>
0

>  <SCORE.INTRA.SOLV.lig_0>
-4.25352

>  <SCORE.INTRA.VDW>
0

>  <SCORE.INTRA.VDW.0>
0

>  <SCORE.INTRA.norm>
0

>  <SCORE.RESTR>
0

>  <SCORE.RESTR.CAVITY>
0

>  <SCORE.RESTR.norm>
0

>  <SCORE.SYSTEM>
0

>  <SCORE.SYSTEM.CONST>
0

>  <SCORE.SYSTEM.DIHEDRAL>
0

>  <SCORE.SYSTEM.SOLV>
0

>  <SCORE.SYSTEM.norm>
0

>  <SCORE.heavy>
10

>  <SCORE.norm>
-1.92835

>  <RMSD>
2.408

$$$$
ligand
 OpenBabel11021811423D
libRbt.so/2013.1/901 2013/11/27
 10 11  0  0  0  0  0  0  0  0999 V2000
   53.5346  -13.3806    9.0575 N   0  0  0  0  0  0  0  0  0  0  0  0
   53.4250  -12.1989    8.3817 C   0  0  0  0  0  0  0  0  0  0  0  0
   53.6000  -12.1234    7.0365 N   0  0  0  0  0  0  0  0  0  0  0  0
   53.8792  -13.3312    6.4669 C   0  0  0  0  0  0  0  0  0  0  0  0
   53.9975  -14.5462    7.0998 C   0  0  0  0  0  0  0  0  0  0  0  0
   53.8261  -14.6308    8.4844 C   0  0  0  0  0  0  0  0  0  0  0  0
   53.8942  -15.5992    9.2122 O   0  0  0  0  0  0  0  0  0  0  0  0
   54.2828  -15.5012    6.1616 N   0  0  0  0  0  0  0  0  0  0  0  0
   54.3370  -14.8825    4.9867 C   0  0  0  0  0  0  0  0  0  0  0  0
   54.0944  -13.5287    5.1257 N   0  0  0  0  0  0  0  0  0  0  0  0
  1  2  1  0  0  0  0
  1  6  1  0  0  0  0
  2  3  2  0  0  0  0
  3  4  1  0  0  0  0
  4  5  2  0  0  0  0
  4 10  1  0  0  0  0
  5  6  1  0  0  0  0
  5  8  1  0  0  0  0
  6  7  2  0  0  0  0
  8  9  1  0  0  0  0
  9 10  2  0  0  0  0
M  END
>  <CHROM.1>
53.88673428,-14.00093425,7.24051201,2.32592625,-1.35801987,2.24412685

>  <Name>
ligand

>  <RI>
0

>  <Rbt.Current_Directory>
/home/itssahil/PROJECTS/Mol_Feturizer/New_Systems/rnas/2EEV

>  <Rbt.Executable>
rbdock ($Id: //depot/dev/client3/rdock/2013.1/src/exe/rbdock.cxx#4 $)

>  <Rbt.Library>
libRbt.so (2013.1, Build901 2013/11/27)

>  <Rbt.Parameter_File>
/export/apps/rDock/src/rDock_2013.1_src/data/scripts/dock_solv.prm

>  <Rbt.Receptor>
prm/blind_docking_100.prm

>  <SCORE>
-19.2829

>  <SCORE.INTER>
-19.2829

>  <SCORE.INTER.CONST>
1

>  <SCORE.INTER.POLAR>
0

>  <SCORE.INTER.ROT>
0

>  <SCORE.INTER.SOLV>
4.72977

>  <SCORE.INTER.VDW>
-18.0319

>  <SCORE.INTER.norm>
-1.92829

>  <SCORE.INTRA>
0

>  <SCORE.INTRA.DIHEDRAL>
0

>  <SCORE.INTRA.DIHEDRAL.0>
0

>  <SCORE.INTRA.POLAR>
0

>  <SCORE.INTRA.POLAR.0>
0

>  <SCORE.INTRA.REPUL>
0

>  <SCORE.INTRA.REPUL.0>
0

>  <SCORE.INTRA.SOLV>
0

>  <SCORE.INTRA.SOLV.lig_0>
-4.25352

>  <SCORE.INTRA.VDW>
0

>  <SCORE.INTRA.VDW.0>
0

>  <SCORE.INTRA.norm>
0

>  <SCORE.RESTR>
0

>  <SCORE.RESTR.CAVITY>
0

>  <SCORE.RESTR.norm>
0

>  <SCORE.SYSTEM>
0

>  <SCORE.SYSTEM.CONST>
0

>  <SCORE.SYSTEM.DIHEDRAL>
0

>  <SCORE.SYSTEM.SOLV>
0

>  <SCORE.SYSTEM.norm>
0

>  <SCORE.heavy>
10

>  <SCORE.norm>
-1.92829

>  <RMSD>
2.409

$$$$
ligand
 OpenBabel11021811423D
libRbt.so/2013.1/901 2013/11/27
 10 11  0  0  0  0  0  0  0  0999 V2000
   53.5396  -13.3722    9.0547 N   0  0  0  0  0  0  0  0  0  0  0  0
   53.4369  -12.1901    8.3784 C   0  0  0  0  0  0  0  0  0  0  0  0
   53.6155  -12.1157    7.0337 N   0  0  0  0  0  0  0  0  0  0  0  0
   53.8908  -13.3248    6.4649 C   0  0  0  0  0  0  0  0  0  0  0  0
   54.0021  -14.5402    7.0983 C   0  0  0  0  0  0  0  0  0  0  0  0
   53.8269  -14.6238    8.4826 C   0  0  0  0  0  0  0  0  0  0  0  0
   53.8889  -15.5923    9.2107 O   0  0  0  0  0  0  0  0  0  0  0  0
   54.2855  -15.4966    6.1611 N   0  0  0  0  0  0  0  0  0  0  0  0
   54.3453  -14.8784    4.9862 C   0  0  0  0  0  0  0  0  0  0  0  0
   54.1085  -13.5235    5.1243 N   0  0  0  0  0  0  0  0  0  0  0  0
  1  2  1  0  0  0  0
  1  6  1  0  0  0  0
  2  3  2  0  0  0  0
  3  4  1  0  0  0  0
  4  5  2  0  0  0  0
  4 10  1  0  0  0  0
  5  6  1  0  0  0  0
  5  8  1  0  0  0  0
  6  7  2  0  0  0  0
  8  9  1  0  0  0  0
  9 10  2  0  0  0  0
M  END
>  <CHROM.1>
53.89343719,-13.99440073,7.23871663,2.34842925,-1.35990663,2.26593799

>  <Name>
ligand

>  <RI>
0

>  <Rbt.Current_Directory>
/home/itssahil/PROJECTS/Mol_Feturizer/New_Systems/rnas/2EEV

>  <Rbt.Executable>
rbdock ($Id: //depot/dev/client3/rdock/2013.1/src/exe/rbdock.cxx#4 $)

>  <Rbt.Library>
libRbt.so (2013.1, Build901 2013/11/27)

>  <Rbt.Parameter_File>
/export/apps/rDock/src/rDock_2013.1_src/data/scripts/dock_solv.prm

>  <Rbt.Receptor>
prm/blind_docking_100.prm

>  <SCORE>
-19.2803

>  <SCORE.INTER>
-19.2803

>  <SCORE.INTER.CONST>
1

>  <SCORE.INTER.POLAR>
0

>  <SCORE.INTER.ROT>
0

>  <SCORE.INTER.SOLV>
4.72643

>  <SCORE.INTER.VDW>
-18.029

>  <SCORE.INTER.norm>
-1.92803

>  <SCORE.INTRA>
0

>  <SCORE.INTRA.DIHEDRAL>
0

>  <SCORE.INTRA.DIHEDRAL.0>
0

>  <SCORE.INTRA.POLAR>
0

>  <SCORE.INTRA.POLAR.0>
0

>  <SCORE.INTRA.REPUL>
0

>  <SCORE.INTRA.REPUL.0>
0

>  <SCORE.INTRA.SOLV>
0

>  <SCORE.INTRA.SOLV.lig_0>
-4.25352

>  <SCORE.INTRA.VDW>
0

>  <SCORE.INTRA.VDW.0>
0

>  <SCORE.INTRA.norm>
0

>  <SCORE.RESTR>
0

>  <SCORE.RESTR.CAVITY>
0

>  <SCORE.RESTR.norm>
0

>  <SCORE.SYSTEM>
0

>  <SCORE.SYSTEM.CONST>
0

>  <SCORE.SYSTEM.DIHEDRAL>
0

>  <SCORE.SYSTEM.SOLV>
0

>  <SCORE.SYSTEM.norm>
0

>  <SCORE.heavy>
10

>  <SCORE.norm>
-1.92803

>  <RMSD>
2.409

$$$$
ligand
 OpenBabel11021811423D
libRbt.so/2013.1/901 2013/11/27
 10 11  0  0  0  0  0  0  0  0999 V2000
   53.5346  -13.3779    9.0539 N   0  0  0  0  0  0  0  0  0  0  0  0
   53.4340  -12.1954    8.3780 C   0  0  0  0  0  0  0  0  0  0  0  0
   53.6155  -12.1204    7.0337 N   0  0  0  0  0  0  0  0  0  0  0  0
   53.8913  -13.3294    6.4649 C   0  0  0  0  0  0  0  0  0  0  0  0
   54.0008  -14.5452    7.0979 C   0  0  0  0  0  0  0  0  0  0  0  0
   53.8226  -14.6294    8.4817 C   0  0  0  0  0  0  0  0  0  0  0  0
   53.8826  -15.5983    9.2095 O   0  0  0  0  0  0  0  0  0  0  0  0
   54.2857  -15.5012    6.1607 N   0  0  0  0  0  0  0  0  0  0  0  0
   54.3483  -14.8824    4.9864 C   0  0  0  0  0  0  0  0  0  0  0  0
   54.1118  -13.5275    5.1246 N   0  0  0  0  0  0  0  0  0  0  0  0
  1  2  1  0  0  0  0
  1  6  1  0  0  0  0
  2  3  2  0  0  0  0
  3  4  1  0  0  0  0
  4  5  2  0  0  0  0
  4 10  1  0  0  0  0
  5  6  1  0  0  0  0
  5  8  1  0  0  0  0
  6  7  2  0  0  0  0
  8  9  1  0  0  0  0
  9 10  2  0  0  0  0
M  END
>  <CHROM.1>
53.89207119,-13.99936664,7.23833975,2.35749490,-1.35889244,2.27532405

>  <Name>
ligand

>  <RI>
0

>  <Rbt.Current_Directory>
/home/itssahil/PROJECTS/Mol_Feturizer/New_Systems/rnas/2EEV

>  <Rbt.Executable>
rbdock ($Id: //depot/dev/client3/rdock/2013.1/src/exe/rbdock.cxx#4 $)

>  <Rbt.Library>
libRbt.so (2013.1, Build901 2013/11/27)

>  <Rbt.Parameter_File>
/export/apps/rDock/src/rDock_2013.1_src/data/scripts/dock_solv.prm

>  <Rbt.Receptor>
prm/blind_docking_100.prm

>  <SCORE>
-19.2847

>  <SCORE.INTER>
-19.2847

>  <SCORE.INTER.CONST>
1

>  <SCORE.INTER.POLAR>
0

>  <SCORE.INTER.ROT>
0

>  <SCORE.INTER.SOLV>
4.73428

>  <SCORE.INTER.VDW>
-18.0346

>  <SCORE.INTER.norm>
-1.92847

>  <SCORE.INTRA>
0

>  <SCORE.INTRA.DIHEDRAL>
0

>  <SCORE.INTRA.DIHEDRAL.0>
0

>  <SCORE.INTRA.POLAR>
0

>  <SCORE.INTRA.POLAR.0>
0

>  <SCORE.INTRA.REPUL>
0

>  <SCORE.INTRA.REPUL.0>
0

>  <SCORE.INTRA.SOLV>
0

>  <SCORE.INTRA.SOLV.lig_0>
-4.25352

>  <SCORE.INTRA.VDW>
0

>  <SCORE.INTRA.VDW.0>
0

>  <SCORE.INTRA.norm>
0

>  <SCORE.RESTR>
0

>  <SCORE.RESTR.CAVITY>
0

>  <SCORE.RESTR.norm>
0

>  <SCORE.SYSTEM>
0

>  <SCORE.SYSTEM.CONST>
0

>  <SCORE.SYSTEM.DIHEDRAL>
0

>  <SCORE.SYSTEM.SOLV>
0

>  <SCORE.SYSTEM.norm>
0

>  <SCORE.heavy>
10

>  <SCORE.norm>
-1.92847

>  <RMSD>
2.409

$$$$
ligand
 OpenBabel11021811423D
libRbt.so/2013.1/901 2013/11/27
 10 11  0  0  0  0  0  0  0  0999 V2000
   53.4781  -13.3736    9.0551 N   0  0  0  0  0  0  0  0  0  0  0  0
   53.3863  -12.1838    8.3909 C   0  0  0  0  0  0  0  0  0  0  0  0
   53.6010  -12.0914    7.0526 N   0  0  0  0  0  0  0  0  0  0  0  0
   53.8994  -13.2917    6.4767 C   0  0  0  0  0  0  0  0  0  0  0  0
   54.0013  -14.5142    7.0978 C   0  0  0  0  0  0  0  0  0  0  0  0
   53.7890  -14.6162    8.4756 C   0  0  0  0  0  0  0  0  0  0  0  0
   53.8373  -15.5933    9.1932 O   0  0  0  0  0  0  0  0  0  0  0  0
   54.3162  -15.4571    6.1569 N   0  0  0  0  0  0  0  0  0  0  0  0
   54.4041  -14.8238    4.9919 C   0  0  0  0  0  0  0  0  0  0  0  0
   54.1548  -13.4723    5.1402 N   0  0  0  0  0  0  0  0  0  0  0  0
  1  2  1  0  0  0  0
  1  6  1  0  0  0  0
  2  3  2  0  0  0  0
  3  4  1  0  0  0  0
  4  5  2  0  0  0  0
  4 10  1  0  0  0  0
  5  6  1  0  0  0  0
  5  8  1  0  0  0  0
  6  7  2  0  0  0  0
  8  9  1  0  0  0  0
  9 10  2  0  0  0  0
M  END
>  <CHROM.1>
53.88531449,-13.97087580,7.24193159,2.42095881,-1.33692316,2.34913455

>  <Name>
ligand

>  <RI>
0

>  <Rbt.Current_Directory>
/home/itssahil/PROJECTS/Mol_Feturizer/New_Systems/rnas/2EEV

>  <Rbt.Executable>
rbdock ($Id: //depot/dev/client3/rdock/2013.1/src/exe/rbdock.cxx#4 $)

>  <Rbt.Library>
libRbt.so (2013.1, Build901 2013/11/27)

>  <Rbt.Parameter_File>
/export/apps/rDock/src/rDock_2013.1_src/data/scripts/dock_solv.prm

>  <Rbt.Receptor>
prm/blind_docking_100.prm

>  <SCORE>
-19.2403

>  <SCORE.INTER>
-19.2403

>  <SCORE.INTER.CONST>
1

>  <SCORE.INTER.POLAR>
0

>  <SCORE.INTER.ROT>
0

>  <SCORE.INTER.SOLV>
4.73982

>  <SCORE.INTER.VDW>
-18.0068

>  <SCORE.INTER.norm>
-1.92403

>  <SCORE.INTRA>
0

>  <SCORE.INTRA.DIHEDRAL>
0

>  <SCORE.INTRA.DIHEDRAL.0>
0

>  <SCORE.INTRA.POLAR>
0

>  <SCORE.INTRA.POLAR.0>
0

>  <SCORE.INTRA.REPUL>
0

>  <SCORE.INTRA.REPUL.0>
0

>  <SCORE.INTRA.SOLV>
0

>  <SCORE.INTRA.SOLV.lig_0>
-4.25352

>  <SCORE.INTRA.VDW>
0

>  <SCORE.INTRA.VDW.0>
0

>  <SCORE.INTRA.norm>
0

>  <SCORE.RESTR>
0

>  <SCORE.RESTR.CAVITY>
0

>  <SCORE.RESTR.norm>
0

>  <SCORE.SYSTEM>
0

>  <SCORE.SYSTEM.CONST>
0

>  <SCORE.SYSTEM.DIHEDRAL>
0

>  <SCORE.SYSTEM.SOLV>
0

>  <SCORE.SYSTEM.norm>
0

>  <SCORE.heavy>
10

>  <SCORE.norm>
-1.92403

>  <RMSD>
2.409

$$$$
ligand
 OpenBabel11021811423D
libRbt.so/2013.1/901 2013/11/27
 10 11  0  0  0  0  0  0  0  0999 V2000
   53.5121  -13.3823    9.0562 N   0  0  0  0  0  0  0  0  0  0  0  0
   53.4020  -12.2015    8.3788 C   0  0  0  0  0  0  0  0  0  0  0  0
   53.5852  -12.1264    7.0347 N   0  0  0  0  0  0  0  0  0  0  0  0
   53.8730  -13.3335    6.4678 C   0  0  0  0  0  0  0  0  0  0  0  0
   53.9922  -14.5475    7.1024 C   0  0  0  0  0  0  0  0  0  0  0  0
   53.8123  -14.6317    8.4860 C   0  0  0  0  0  0  0  0  0  0  0  0
   53.8797  -15.5993    9.2149 O   0  0  0  0  0  0  0  0  0  0  0  0
   54.2874  -15.5020    6.1668 N   0  0  0  0  0  0  0  0  0  0  0  0
   54.3465  -14.8840    4.9918 C   0  0  0  0  0  0  0  0  0  0  0  0
   54.0976  -13.5311    5.1281 N   0  0  0  0  0  0  0  0  0  0  0  0
  1  2  1  0  0  0  0
  1  6  1  0  0  0  0
  2  3  2  0  0  0  0
  3  4  1  0  0  0  0
  4  5  2  0  0  0  0
  4 10  1  0  0  0  0
  5  6  1  0  0  0  0
  5  8  1  0  0  0  0
  6  7  2  0  0  0  0
  8  9  1  0  0  0  0
  9 10  2  0  0  0  0
M  END
>  <CHROM.1>
53.87832093,-14.00255972,7.24198085,2.33720230,-1.35084255,2.25436885

>  <Name>
ligand

>  <RI>
0

>  <Rbt.Current_Directory>
/home/itssahil/PROJECTS/Mol_Feturizer/New_Systems/rnas/2EEV

>  <Rbt.Executable>
rbdock ($Id: //depot/dev/client3/rdock/2013.1/src/exe/rbdock.cxx#4 $)

>  <Rbt.Library>
libRbt.so (2013.1, Build901 2013/11/27)

>  <Rbt.Parameter_File>
/export/apps/rDock/src/rDock_2013.1_src/data/scripts/dock_solv.prm

>  <Rbt.Receptor>
prm/blind_docking_100.prm

>  <SCORE>
-19.2819

>  <SCORE.INTER>
-19.2819

>  <SCORE.INTER.CONST>
1

>  <SCORE.INTER.POLAR>
0

>  <SCORE.INTER.ROT>
0

>  <SCORE.INTER.SOLV>
4.73701

>  <SCORE.INTER.VDW>
-18.0336

>  <SCORE.INTER.norm>
-1.92819

>  <SCORE.INTRA>
0

>  <SCORE.INTRA.DIHEDRAL>
0

>  <SCORE.INTRA.DIHEDRAL.0>
0

>  <SCORE.INTRA.POLAR>
0

>  <SCORE.INTRA.POLAR.0>
0

>  <SCORE.INTRA.REPUL>
0

>  <SCORE.INTRA.REPUL.0>
0

>  <SCORE.INTRA.SOLV>
0

>  <SCORE.INTRA.SOLV.lig_0>
-4.25352

>  <SCORE.INTRA.VDW>
0

>  <SCORE.INTRA.VDW.0>
0

>  <SCORE.INTRA.norm>
0

>  <SCORE.RESTR>
0

>  <SCORE.RESTR.CAVITY>
0

>  <SCORE.RESTR.norm>
0

>  <SCORE.SYSTEM>
0

>  <SCORE.SYSTEM.CONST>
0

>  <SCORE.SYSTEM.DIHEDRAL>
0

>  <SCORE.SYSTEM.SOLV>
0

>  <SCORE.SYSTEM.norm>
0

>  <SCORE.heavy>
10

>  <SCORE.norm>
-1.92819

>  <RMSD>
2.409

$$$$
ligand
 OpenBabel11021811423D
libRbt.so/2013.1/901 2013/11/27
 10 11  0  0  0  0  0  0  0  0999 V2000
   53.4920  -13.3787    9.0515 N   0  0  0  0  0  0  0  0  0  0  0  0
   53.4001  -12.1882    8.3885 C   0  0  0  0  0  0  0  0  0  0  0  0
   53.6142  -12.0945    7.0502 N   0  0  0  0  0  0  0  0  0  0  0  0
   53.9122  -13.2942    6.4729 C   0  0  0  0  0  0  0  0  0  0  0  0
   54.0142  -14.5174    7.0928 C   0  0  0  0  0  0  0  0  0  0  0  0
   53.8025  -14.6207    8.4706 C   0  0  0  0  0  0  0  0  0  0  0  0
   53.8510  -15.5986    9.1871 O   0  0  0  0  0  0  0  0  0  0  0  0
   54.3286  -15.4593    6.1507 N   0  0  0  0  0  0  0  0  0  0  0  0
   54.4160  -14.8249    4.9863 C   0  0  0  0  0  0  0  0  0  0  0  0
   54.1669  -13.4734    5.1361 N   0  0  0  0  0  0  0  0  0  0  0  0
  1  2  1  0  0  0  0
  1  6  1  0  0  0  0
  2  3  2  0  0  0  0
  3  4  1  0  0  0  0
  4  5  2  0  0  0  0
  4 10  1  0  0  0  0
  5  6  1  0  0  0  0
  5  8  1  0  0  0  0
  6  7  2  0  0  0  0
  8  9  1  0  0  0  0
  9 10  2  0  0  0  0
M  END
>  <CHROM.1>
53.89831989,-13.97417290,7.23748066,2.41996451,-1.33731960,2.34919509

>  <Name>
ligand

>  <RI>
0

>  <Rbt.Current_Directory>
/home/itssahil/PROJECTS/Mol_Feturizer/New_Systems/rnas/2EEV

>  <Rbt.Executable>
rbdock ($Id: //depot/dev/client3/rdock/2013.1/src/exe/rbdock.cxx#4 $)

>  <Rbt.Library>
libRbt.so (2013.1, Build901 2013/11/27)

>  <Rbt.Parameter_File>
/export/apps/rDock/src/rDock_2013.1_src/data/scripts/dock_solv.prm

>  <Rbt.Receptor>
prm/blind_docking_100.prm

>  <SCORE>
-19.2395

>  <SCORE.INTER>
-19.2395

>  <SCORE.INTER.CONST>
1

>  <SCORE.INTER.POLAR>
0

>  <SCORE.INTER.ROT>
0

>  <SCORE.INTER.SOLV>
4.72863

>  <SCORE.INTER.VDW>
-18.0025

>  <SCORE.INTER.norm>
-1.92395

>  <SCORE.INTRA>
0

>  <SCORE.INTRA.DIHEDRAL>
0

>  <SCORE.INTRA.DIHEDRAL.0>
0

>  <SCORE.INTRA.POLAR>
0

>  <SCORE.INTRA.POLAR.0>
0

>  <SCORE.INTRA.REPUL>
0

>  <SCORE.INTRA.REPUL.0>
0

>  <SCORE.INTRA.SOLV>
0

>  <SCORE.INTRA.SOLV.lig_0>
-4.25352

>  <SCORE.INTRA.VDW>
0

>  <SCORE.INTRA.VDW.0>
0

>  <SCORE.INTRA.norm>
0

>  <SCORE.RESTR>
0

>  <SCORE.RESTR.CAVITY>
0

>  <SCORE.RESTR.norm>
0

>  <SCORE.SYSTEM>
0

>  <SCORE.SYSTEM.CONST>
0

>  <SCORE.SYSTEM.DIHEDRAL>
0

>  <SCORE.SYSTEM.SOLV>
0

>  <SCORE.SYSTEM.norm>
0

>  <SCORE.heavy>
10

>  <SCORE.norm>
-1.92395

>  <RMSD>
2.409

$$$$
ligand
 OpenBabel11021811423D
libRbt.so/2013.1/901 2013/11/27
 10 11  0  0  0  0  0  0  0  0999 V2000
   53.4755  -13.3804    9.0497 N   0  0  0  0  0  0  0  0  0  0  0  0
   53.3845  -12.1911    8.3843 C   0  0  0  0  0  0  0  0  0  0  0  0
   53.6040  -12.0995    7.0467 N   0  0  0  0  0  0  0  0  0  0  0  0
   53.9062  -13.2997    6.4727 C   0  0  0  0  0  0  0  0  0  0  0  0
   54.0074  -14.5217    7.0951 C   0  0  0  0  0  0  0  0  0  0  0  0
   53.7902  -14.6229    8.4722 C   0  0  0  0  0  0  0  0  0  0  0  0
   53.8372  -15.5995    9.1906 O   0  0  0  0  0  0  0  0  0  0  0  0
   54.3271  -15.4647    6.1560 N   0  0  0  0  0  0  0  0  0  0  0  0
   54.4184  -14.8322    4.9909 C   0  0  0  0  0  0  0  0  0  0  0  0
   54.1668  -13.4809    5.1373 N   0  0  0  0  0  0  0  0  0  0  0  0
  1  2  1  0  0  0  0
  1  6  1  0  0  0  0
  2  3  2  0  0  0  0
  3  4  1  0  0  0  0
  4  5  2  0  0  0  0
  4 10  1  0  0  0  0
  5  6  1  0  0  0  0
  5  8  1  0  0  0  0
  6  7  2  0  0  0  0
  8  9  1  0  0  0  0
  9 10  2  0  0  0  0
M  END
>  <CHROM.1>
53.89017966,-13.97836792,7.23840263,2.42805935,-1.33335187,2.35533388

>  <Name>
ligand

>  <RI>
0

>  <Rbt.Current_Directory>
/home/itssahil/PROJECTS/Mol_Feturizer/New_Systems/rnas/2EEV

>  <Rbt.Executable>
rbdock ($Id: //depot/dev/client3/rdock/2013.1/src/exe/rbdock.cxx#4 $)

>  <Rbt.Library>
libRbt.so (2013.1, Build901 2013/11/27)

>  <Rbt.Parameter_File>
/export/apps/rDock/src/rDock_2013.1_src/data/scripts/dock_solv.prm

>  <Rbt.Receptor>
prm/blind_docking_60.prm

>  <SCORE>
-19.2362

>  <SCORE.INTER>
-19.2362

>  <SCORE.INTER.CONST>
1

>  <SCORE.INTER.POLAR>
0

>  <SCORE.INTER.ROT>
0

>  <SCORE.INTER.SOLV>
4.73898

>  <SCORE.INTER.VDW>
-18.0038

>  <SCORE.INTER.norm>
-1.92362

>  <SCORE.INTRA>
0

>  <SCORE.INTRA.DIHEDRAL>
0

>  <SCORE.INTRA.DIHEDRAL.0>
0

>  <SCORE.INTRA.POLAR>
0

>  <SCORE.INTRA.POLAR.0>
0

>  <SCORE.INTRA.REPUL>
0

>  <SCORE.INTRA.REPUL.0>
0

>  <SCORE.INTRA.SOLV>
0

>  <SCORE.INTRA.SOLV.lig_0>
-4.25352

>  <SCORE.INTRA.VDW>
0

>  <SCORE.INTRA.VDW.0>
0

>  <SCORE.INTRA.norm>
0

>  <SCORE.RESTR>
0

>  <SCORE.RESTR.CAVITY>
0

>  <SCORE.RESTR.norm>
0

>  <SCORE.SYSTEM>
0

>  <SCORE.SYSTEM.CONST>
0

>  <SCORE.SYSTEM.DIHEDRAL>
0

>  <SCORE.SYSTEM.SOLV>
0

>  <SCORE.SYSTEM.norm>
0

>  <SCORE.heavy>
10

>  <SCORE.norm>
-1.92362

>  <RMSD>
2.409

$$$$
ligand
 OpenBabel11021811423D
libRbt.so/2013.1/901 2013/11/27
 10 11  0  0  0  0  0  0  0  0999 V2000
   53.5237  -13.3794    9.0571 N   0  0  0  0  0  0  0  0  0  0  0  0
   53.4215  -12.1979    8.3797 C   0  0  0  0  0  0  0  0  0  0  0  0
   53.6030  -12.1242    7.0354 N   0  0  0  0  0  0  0  0  0  0  0  0
   53.8805  -13.3335    6.4680 C   0  0  0  0  0  0  0  0  0  0  0  0
   53.9916  -14.5484    7.1025 C   0  0  0  0  0  0  0  0  0  0  0  0
   53.8135  -14.6312    8.4864 C   0  0  0  0  0  0  0  0  0  0  0  0
   53.8748  -15.5991    9.2154 O   0  0  0  0  0  0  0  0  0  0  0  0
   54.2779  -15.5052    6.1665 N   0  0  0  0  0  0  0  0  0  0  0  0
   54.3397  -14.8877    4.9914 C   0  0  0  0  0  0  0  0  0  0  0  0
   54.1013  -13.5330    5.1280 N   0  0  0  0  0  0  0  0  0  0  0  0
  1  2  1  0  0  0  0
  1  6  1  0  0  0  0
  2  3  2  0  0  0  0
  3  4  1  0  0  0  0
  4  5  2  0  0  0  0
  4 10  1  0  0  0  0
  5  6  1  0  0  0  0
  5  8  1  0  0  0  0
  6  7  2  0  0  0  0
  8  9  1  0  0  0  0
  9 10  2  0  0  0  0
M  END
>  <CHROM.1>
53.88212372,-14.00259029,7.24227466,2.35354869,-1.35781807,2.27025185

>  <Name>
ligand

>  <RI>
0

>  <Rbt.Current_Directory>
/home/itssahil/PROJECTS/Mol_Feturizer/New_Systems/rnas/2EEV

>  <Rbt.Executable>
rbdock ($Id: //depot/dev/client3/rdock/2013.1/src/exe/rbdock.cxx#4 $)

>  <Rbt.Library>
libRbt.so (2013.1, Build901 2013/11/27)

>  <Rbt.Parameter_File>
/export/apps/rDock/src/rDock_2013.1_src/data/scripts/dock_solv.prm

>  <Rbt.Receptor>
prm/pocket_docking_3.prm

>  <SCORE>
-19.2842

>  <SCORE.INTER>
-19.2842

>  <SCORE.INTER.CONST>
1

>  <SCORE.INTER.POLAR>
0

>  <SCORE.INTER.ROT>
0

>  <SCORE.INTER.SOLV>
4.74461

>  <SCORE.INTER.VDW>
-18.0377

>  <SCORE.INTER.norm>
-1.92842

>  <SCORE.INTRA>
0

>  <SCORE.INTRA.DIHEDRAL>
0

>  <SCORE.INTRA.DIHEDRAL.0>
0

>  <SCORE.INTRA.POLAR>
0

>  <SCORE.INTRA.POLAR.0>
0

>  <SCORE.INTRA.REPUL>
0

>  <SCORE.INTRA.REPUL.0>
0

>  <SCORE.INTRA.SOLV>
0

>  <SCORE.INTRA.SOLV.lig_0>
-4.25352

>  <SCORE.INTRA.VDW>
0

>  <SCORE.INTRA.VDW.0>
0

>  <SCORE.INTRA.norm>
0

>  <SCORE.RESTR>
0

>  <SCORE.RESTR.CAVITY>
0

>  <SCORE.RESTR.norm>
0

>  <SCORE.SYSTEM>
0

>  <SCORE.SYSTEM.CONST>
0

>  <SCORE.SYSTEM.DIHEDRAL>
0

>  <SCORE.SYSTEM.SOLV>
0

>  <SCORE.SYSTEM.norm>
0

>  <SCORE.heavy>
10

>  <SCORE.norm>
-1.92842

>  <RMSD>
2.409

$$$$
ligand
 OpenBabel11021811423D
libRbt.so/2013.1/901 2013/11/27
 10 11  0  0  0  0  0  0  0  0999 V2000
   53.5258  -13.3821    9.0559 N   0  0  0  0  0  0  0  0  0  0  0  0
   53.4158  -12.2005    8.3798 C   0  0  0  0  0  0  0  0  0  0  0  0
   53.5948  -12.1245    7.0353 N   0  0  0  0  0  0  0  0  0  0  0  0
   53.8784  -13.3317    6.4663 C   0  0  0  0  0  0  0  0  0  0  0  0
   53.9973  -14.5465    7.0995 C   0  0  0  0  0  0  0  0  0  0  0  0
   53.8218  -14.6316    8.4836 C   0  0  0  0  0  0  0  0  0  0  0  0
   53.8897  -15.5999    9.2115 O   0  0  0  0  0  0  0  0  0  0  0  0
   54.2876  -15.5008    6.1621 N   0  0  0  0  0  0  0  0  0  0  0  0
   54.3441  -14.8818    4.9875 C   0  0  0  0  0  0  0  0  0  0  0  0
   54.0982  -13.5286    5.1258 N   0  0  0  0  0  0  0  0  0  0  0  0
  1  2  1  0  0  0  0
  1  6  1  0  0  0  0
  2  3  2  0  0  0  0
  3  4  1  0  0  0  0
  4  5  2  0  0  0  0
  4 10  1  0  0  0  0
  5  6  1  0  0  0  0
  5  8  1  0  0  0  0
  6  7  2  0  0  0  0
  8  9  1  0  0  0  0
  9 10  2  0  0  0  0
M  END
>  <CHROM.1>
53.88496836,-14.00146801,7.23994790,2.33103197,-1.35439194,2.24921706

>  <Name>
ligand

>  <RI>
0

>  <Rbt.Current_Directory>
/home/itssahil/PROJECTS/Mol_Feturizer/New_Systems/rnas/2EEV

>  <Rbt.Executable>
rbdock ($Id: //depot/dev/client3/rdock/2013.1/src/exe/rbdock.cxx#4 $)

>  <Rbt.Library>
libRbt.so (2013.1, Build901 2013/11/27)

>  <Rbt.Parameter_File>
/export/apps/rDock/src/rDock_2013.1_src/data/scripts/dock_solv.prm

>  <Rbt.Receptor>
prm/pocket_docking_3.prm

>  <SCORE>
-19.2843

>  <SCORE.INTER>
-19.2843

>  <SCORE.INTER.CONST>
1

>  <SCORE.INTER.POLAR>
0

>  <SCORE.INTER.ROT>
0

>  <SCORE.INTER.SOLV>
4.73061

>  <SCORE.INTER.VDW>
-18.0331

>  <SCORE.INTER.norm>
-1.92843

>  <SCORE.INTRA>
0

>  <SCORE.INTRA.DIHEDRAL>
0

>  <SCORE.INTRA.DIHEDRAL.0>
0

>  <SCORE.INTRA.POLAR>
0

>  <SCORE.INTRA.POLAR.0>
0

>  <SCORE.INTRA.REPUL>
0

>  <SCORE.INTRA.REPUL.0>
0

>  <SCORE.INTRA.SOLV>
0

>  <SCORE.INTRA.SOLV.lig_0>
-4.25352

>  <SCORE.INTRA.VDW>
0

>  <SCORE.INTRA.VDW.0>
0

>  <SCORE.INTRA.norm>
0

>  <SCORE.RESTR>
0

>  <SCORE.RESTR.CAVITY>
0

>  <SCORE.RESTR.norm>
0

>  <SCORE.SYSTEM>
0

>  <SCORE.SYSTEM.CONST>
0

>  <SCORE.SYSTEM.DIHEDRAL>
0

>  <SCORE.SYSTEM.SOLV>
0

>  <SCORE.SYSTEM.norm>
0

>  <SCORE.heavy>
10

>  <SCORE.norm>
-1.92843

>  <RMSD>
2.409

$$$$
ligand
 OpenBabel11021811423D
libRbt.so/2013.1/901 2013/11/27
 10 11  0  0  0  0  0  0  0  0999 V2000
   53.5257  -13.3786    9.0543 N   0  0  0  0  0  0  0  0  0  0  0  0
   53.4290  -12.1958    8.3783 C   0  0  0  0  0  0  0  0  0  0  0  0
   53.6136  -12.1210    7.0345 N   0  0  0  0  0  0  0  0  0  0  0  0
   53.8881  -13.3305    6.4661 C   0  0  0  0  0  0  0  0  0  0  0  0
   53.9937  -14.5466    7.0992 C   0  0  0  0  0  0  0  0  0  0  0  0
   53.8123  -14.6306    8.4827 C   0  0  0  0  0  0  0  0  0  0  0  0
   53.8688  -15.5997    9.2104 O   0  0  0  0  0  0  0  0  0  0  0  0
   54.2787  -15.5032    6.1626 N   0  0  0  0  0  0  0  0  0  0  0  0
   54.3451  -14.8844    4.9884 C   0  0  0  0  0  0  0  0  0  0  0  0
   54.1111  -13.5290    5.1263 N   0  0  0  0  0  0  0  0  0  0  0  0
  1  2  1  0  0  0  0
  1  6  1  0  0  0  0
  2  3  2  0  0  0  0
  3  4  1  0  0  0  0
  4  5  2  0  0  0  0
  4 10  1  0  0  0  0
  5  6  1  0  0  0  0
  5  8  1  0  0  0  0
  6  7  2  0  0  0  0
  8  9  1  0  0  0  0
  9 10  2  0  0  0  0
M  END
>  <CHROM.1>
53.88580378,-14.00060338,7.23948094,2.37181335,-1.35905353,2.28942384

>  <Name>
ligand

>  <RI>
0

>  <Rbt.Current_Directory>
/home/itssahil/PROJECTS/Mol_Feturizer/New_Systems/rnas/2EEV

>  <Rbt.Executable>
rbdock ($Id: //depot/dev/client3/rdock/2013.1/src/exe/rbdock.cxx#4 $)

>  <Rbt.Library>
libRbt.so (2013.1, Build901 2013/11/27)

>  <Rbt.Parameter_File>
/export/apps/rDock/src/rDock_2013.1_src/data/scripts/dock_solv.prm

>  <Rbt.Receptor>
prm/pocket_docking_4.prm

>  <SCORE>
-19.2839

>  <SCORE.INTER>
-19.2839

>  <SCORE.INTER.CONST>
1

>  <SCORE.INTER.POLAR>
0

>  <SCORE.INTER.ROT>
0

>  <SCORE.INTER.SOLV>
4.74729

>  <SCORE.INTER.VDW>
-18.0383

>  <SCORE.INTER.norm>
-1.92839

>  <SCORE.INTRA>
0

>  <SCORE.INTRA.DIHEDRAL>
0

>  <SCORE.INTRA.DIHEDRAL.0>
0

>  <SCORE.INTRA.POLAR>
0

>  <SCORE.INTRA.POLAR.0>
0

>  <SCORE.INTRA.REPUL>
0

>  <SCORE.INTRA.REPUL.0>
0

>  <SCORE.INTRA.SOLV>
0

>  <SCORE.INTRA.SOLV.lig_0>
-4.25352

>  <SCORE.INTRA.VDW>
0

>  <SCORE.INTRA.VDW.0>
0

>  <SCORE.INTRA.norm>
0

>  <SCORE.RESTR>
0

>  <SCORE.RESTR.CAVITY>
0

>  <SCORE.RESTR.norm>
0

>  <SCORE.SYSTEM>
0

>  <SCORE.SYSTEM.CONST>
0

>  <SCORE.SYSTEM.DIHEDRAL>
0

>  <SCORE.SYSTEM.SOLV>
0

>  <SCORE.SYSTEM.norm>
0

>  <SCORE.heavy>
10

>  <SCORE.norm>
-1.92839

>  <RMSD>
2.409

$$$$
ligand
 OpenBabel11021811423D
libRbt.so/2013.1/901 2013/11/27
 10 11  0  0  0  0  0  0  0  0999 V2000
   53.5322  -13.3801    9.0560 N   0  0  0  0  0  0  0  0  0  0  0  0
   53.4270  -12.1977    8.3806 C   0  0  0  0  0  0  0  0  0  0  0  0
   53.6066  -12.1217    7.0361 N   0  0  0  0  0  0  0  0  0  0  0  0
   53.8854  -13.3296    6.4665 C   0  0  0  0  0  0  0  0  0  0  0  0
   53.9994  -14.5453    7.0990 C   0  0  0  0  0  0  0  0  0  0  0  0
   53.8232  -14.6305    8.4830 C   0  0  0  0  0  0  0  0  0  0  0  0
   53.8871  -15.5994    9.2104 O   0  0  0  0  0  0  0  0  0  0  0  0
   54.2860  -15.5002    6.1612 N   0  0  0  0  0  0  0  0  0  0  0  0
   54.3452  -14.8808    4.9869 C   0  0  0  0  0  0  0  0  0  0  0  0
   54.1047  -13.5267    5.1259 N   0  0  0  0  0  0  0  0  0  0  0  0
  1  2  1  0  0  0  0
  1  6  1  0  0  0  0
  2  3  2  0  0  0  0
  3  4  1  0  0  0  0
  4  5  2  0  0  0  0
  4 10  1  0  0  0  0
  5  6  1  0  0  0  0
  5  8  1  0  0  0  0
  6  7  2  0  0  0  0
  8  9  1  0  0  0  0
  9 10  2  0  0  0  0
M  END
>  <CHROM.1>
53.88916048,-13.99986790,7.23974143,2.34356443,-1.35737298,2.26202332

>  <Name>
ligand

>  <RI>
0

>  <Rbt.Current_Directory>
/home/itssahil/PROJECTS/Mol_Feturizer/New_Systems/rnas/2EEV

>  <Rbt.Executable>
rbdock ($Id: //depot/dev/client3/rdock/2013.1/src/exe/rbdock.cxx#4 $)

>  <Rbt.Library>
libRbt.so (2013.1, Build901 2013/11/27)

>  <Rbt.Parameter_File>
/export/apps/rDock/src/rDock_2013.1_src/data/scripts/dock_solv.prm

>  <Rbt.Receptor>
prm/pocket_docking_4.prm

>  <SCORE>
-19.2858

>  <SCORE.INTER>
-19.2858

>  <SCORE.INTER.CONST>
1

>  <SCORE.INTER.POLAR>
0

>  <SCORE.INTER.ROT>
0

>  <SCORE.INTER.SOLV>
4.73247

>  <SCORE.INTER.VDW>
-18.0347

>  <SCORE.INTER.norm>
-1.92858

>  <SCORE.INTRA>
0

>  <SCORE.INTRA.DIHEDRAL>
0

>  <SCORE.INTRA.DIHEDRAL.0>
0

>  <SCORE.INTRA.POLAR>
0

>  <SCORE.INTRA.POLAR.0>
0

>  <SCORE.INTRA.REPUL>
0

>  <SCORE.INTRA.REPUL.0>
0

>  <SCORE.INTRA.SOLV>
0

>  <SCORE.INTRA.SOLV.lig_0>
-4.25352

>  <SCORE.INTRA.VDW>
0

>  <SCORE.INTRA.VDW.0>
0

>  <SCORE.INTRA.norm>
0

>  <SCORE.RESTR>
0

>  <SCORE.RESTR.CAVITY>
0

>  <SCORE.RESTR.norm>
0

>  <SCORE.SYSTEM>
0

>  <SCORE.SYSTEM.CONST>
0

>  <SCORE.SYSTEM.DIHEDRAL>
0

>  <SCORE.SYSTEM.SOLV>
0

>  <SCORE.SYSTEM.norm>
0

>  <SCORE.heavy>
10

>  <SCORE.norm>
-1.92858

>  <RMSD>
2.409

$$$$
ligand
 OpenBabel11021811423D
libRbt.so/2013.1/901 2013/11/27
 10 11  0  0  0  0  0  0  0  0999 V2000
   53.4858  -13.3773    9.0504 N   0  0  0  0  0  0  0  0  0  0  0  0
   53.4003  -12.1869    8.3864 C   0  0  0  0  0  0  0  0  0  0  0  0
   53.6189  -12.0949    7.0487 N   0  0  0  0  0  0  0  0  0  0  0  0
   53.9142  -13.2961    6.4731 C   0  0  0  0  0  0  0  0  0  0  0  0
   54.0098  -14.5192    7.0940 C   0  0  0  0  0  0  0  0  0  0  0  0
   53.7934  -14.6209    8.4712 C   0  0  0  0  0  0  0  0  0  0  0  0
   53.8362  -15.5985    9.1885 O   0  0  0  0  0  0  0  0  0  0  0  0
   54.3236  -15.4629    6.1536 N   0  0  0  0  0  0  0  0  0  0  0  0
   54.4170  -14.8296    4.9890 C   0  0  0  0  0  0  0  0  0  0  0  0
   54.1725  -13.4771    5.1372 N   0  0  0  0  0  0  0  0  0  0  0  0
  1  2  1  0  0  0  0
  1  6  1  0  0  0  0
  2  3  2  0  0  0  0
  3  4  1  0  0  0  0
  4  5  2  0  0  0  0
  4 10  1  0  0  0  0
  5  6  1  0  0  0  0
  5  8  1  0  0  0  0
  6  7  2  0  0  0  0
  8  9  1  0  0  0  0
  9 10  2  0  0  0  0
M  END
>  <CHROM.1>
53.89550885,-13.97550135,7.23803529,2.44072057,-1.33772720,2.36873416

>  <Name>
ligand

>  <RI>
0

>  <Rbt.Current_Directory>
/home/itssahil/PROJECTS/Mol_Feturizer/New_Systems/rnas/2EEV

>  <Rbt.Executable>
rbdock ($Id: //depot/dev/client3/rdock/2013.1/src/exe/rbdock.cxx#4 $)

>  <Rbt.Library>
libRbt.so (2013.1, Build901 2013/11/27)

>  <Rbt.Parameter_File>
/export/apps/rDock/src/rDock_2013.1_src/data/scripts/dock_solv.prm

>  <Rbt.Receptor>
prm/pocket_docking_6.prm

>  <SCORE>
-19.2319

>  <SCORE.INTER>
-19.2319

>  <SCORE.INTER.CONST>
1

>  <SCORE.INTER.POLAR>
0

>  <SCORE.INTER.ROT>
0

>  <SCORE.INTER.SOLV>
4.73961

>  <SCORE.INTER.VDW>
-18.0011

>  <SCORE.INTER.norm>
-1.92319

>  <SCORE.INTRA>
0

>  <SCORE.INTRA.DIHEDRAL>
0

>  <SCORE.INTRA.DIHEDRAL.0>
0

>  <SCORE.INTRA.POLAR>
0

>  <SCORE.INTRA.POLAR.0>
0

>  <SCORE.INTRA.REPUL>
0

>  <SCORE.INTRA.REPUL.0>
0

>  <SCORE.INTRA.SOLV>
0

>  <SCORE.INTRA.SOLV.lig_0>
-4.25352

>  <SCORE.INTRA.VDW>
0

>  <SCORE.INTRA.VDW.0>
0

>  <SCORE.INTRA.norm>
0

>  <SCORE.RESTR>
0

>  <SCORE.RESTR.CAVITY>
0

>  <SCORE.RESTR.norm>
0

>  <SCORE.SYSTEM>
0

>  <SCORE.SYSTEM.CONST>
0

>  <SCORE.SYSTEM.DIHEDRAL>
0

>  <SCORE.SYSTEM.SOLV>
0

>  <SCORE.SYSTEM.norm>
0

>  <SCORE.heavy>
10

>  <SCORE.norm>
-1.92319

>  <RMSD>
2.409

$$$$
ligand
 OpenBabel11021811423D
libRbt.so/2013.1/901 2013/11/27
 10 11  0  0  0  0  0  0  0  0999 V2000
   53.5289  -13.3795    9.0486 N   0  0  0  0  0  0  0  0  0  0  0  0
   53.4282  -12.1974    8.3721 C   0  0  0  0  0  0  0  0  0  0  0  0
   53.6134  -12.1224    7.0283 N   0  0  0  0  0  0  0  0  0  0  0  0
   53.8929  -13.3310    6.4606 C   0  0  0  0  0  0  0  0  0  0  0  0
   54.0025  -14.5465    7.0942 C   0  0  0  0  0  0  0  0  0  0  0  0
   53.8205  -14.6307    8.4775 C   0  0  0  0  0  0  0  0  0  0  0  0
   53.8800  -15.5993    9.2057 O   0  0  0  0  0  0  0  0  0  0  0  0
   54.2917  -15.5023    6.1581 N   0  0  0  0  0  0  0  0  0  0  0  0
   54.3566  -14.8837    4.9837 C   0  0  0  0  0  0  0  0  0  0  0  0
   54.1175  -13.5291    5.1210 N   0  0  0  0  0  0  0  0  0  0  0  0
  1  2  1  0  0  0  0
  1  6  1  0  0  0  0
  2  3  2  0  0  0  0
  3  4  1  0  0  0  0
  4  5  2  0  0  0  0
  4 10  1  0  0  0  0
  5  6  1  0  0  0  0
  5  8  1  0  0  0  0
  6  7  2  0  0  0  0
  8  9  1  0  0  0  0
  9 10  2  0  0  0  0
M  END
>  <CHROM.1>
53.89250230,-14.00084447,7.23419467,2.36279666,-1.35579665,2.28026906

>  <Name>
ligand

>  <RI>
0

>  <Rbt.Current_Directory>
/home/itssahil/PROJECTS/Mol_Feturizer/New_Systems/rnas/2EEV

>  <Rbt.Executable>
rbdock ($Id: //depot/dev/client3/rdock/2013.1/src/exe/rbdock.cxx#4 $)

>  <Rbt.Library>
libRbt.so (2013.1, Build901 2013/11/27)

>  <Rbt.Parameter_File>
/export/apps/rDock/src/rDock_2013.1_src/data/scripts/dock_solv.prm

>  <Rbt.Receptor>
prm/pocket_docking_8.prm

>  <SCORE>
-19.2832

>  <SCORE.INTER>
-19.2832

>  <SCORE.INTER.CONST>
1

>  <SCORE.INTER.POLAR>
0

>  <SCORE.INTER.ROT>
0

>  <SCORE.INTER.SOLV>
4.7328

>  <SCORE.INTER.VDW>
-18.033

>  <SCORE.INTER.norm>
-1.92832

>  <SCORE.INTRA>
0

>  <SCORE.INTRA.DIHEDRAL>
0

>  <SCORE.INTRA.DIHEDRAL.0>
0

>  <SCORE.INTRA.POLAR>
0

>  <SCORE.INTRA.POLAR.0>
0

>  <SCORE.INTRA.REPUL>
0

>  <SCORE.INTRA.REPUL.0>
0

>  <SCORE.INTRA.SOLV>
0

>  <SCORE.INTRA.SOLV.lig_0>
-4.25352

>  <SCORE.INTRA.VDW>
0

>  <SCORE.INTRA.VDW.0>
0

>  <SCORE.INTRA.norm>
0

>  <SCORE.RESTR>
0

>  <SCORE.RESTR.CAVITY>
0

>  <SCORE.RESTR.norm>
0

>  <SCORE.SYSTEM>
0

>  <SCORE.SYSTEM.CONST>
0

>  <SCORE.SYSTEM.DIHEDRAL>
0

>  <SCORE.SYSTEM.SOLV>
0

>  <SCORE.SYSTEM.norm>
0

>  <SCORE.heavy>
10

>  <SCORE.norm>
-1.92832

>  <RMSD>
2.409

$$$$
ligand
 OpenBabel11021811423D
libRbt.so/2013.1/901 2013/11/27
 10 11  0  0  0  0  0  0  0  0999 V2000
   53.5505  -13.3909    9.0781 N   0  0  0  0  0  0  0  0  0  0  0  0
   53.3822  -12.2221    8.3920 C   0  0  0  0  0  0  0  0  0  0  0  0
   53.5380  -12.1532    7.0442 N   0  0  0  0  0  0  0  0  0  0  0  0
   53.8624  -13.3537    6.4832 C   0  0  0  0  0  0  0  0  0  0  0  0
   54.0404  -14.5559    7.1266 C   0  0  0  0  0  0  0  0  0  0  0  0
   53.8889  -14.6333    8.5140 C   0  0  0  0  0  0  0  0  0  0  0  0
   54.0072  -15.5902    9.2505 O   0  0  0  0  0  0  0  0  0  0  0  0
   54.3557  -15.5074    6.1946 N   0  0  0  0  0  0  0  0  0  0  0  0
   54.3695  -14.8992    5.0131 C   0  0  0  0  0  0  0  0  0  0  0  0
   54.0704  -13.5558    5.1415 N   0  0  0  0  0  0  0  0  0  0  0  0
  1  2  1  0  0  0  0
  1  6  1  0  0  0  0
  2  3  2  0  0  0  0
  3  4  1  0  0  0  0
  4  5  2  0  0  0  0
  4 10  1  0  0  0  0
  5  6  1  0  0  0  0
  5  8  1  0  0  0  0
  6  7  2  0  0  0  0
  8  9  1  0  0  0  0
  9 10  2  0  0  0  0
M  END
>  <CHROM.1>
53.90787100,-14.01441265,7.26328840,2.17504771,-1.32889137,2.08693237

>  <Name>
ligand

>  <RI>
0

>  <Rbt.Current_Directory>
/home/itssahil/PROJECTS/Mol_Feturizer/New_Systems/rnas/2EEV

>  <Rbt.Executable>
rbdock ($Id: //depot/dev/client3/rdock/2013.1/src/exe/rbdock.cxx#4 $)

>  <Rbt.Library>
libRbt.so (2013.1, Build901 2013/11/27)

>  <Rbt.Parameter_File>
/export/apps/rDock/src/rDock_2013.1_src/data/scripts/dock_solv.prm

>  <Rbt.Receptor>
prm/pocket_docking_8.prm

>  <SCORE>
-19.2229

>  <SCORE.INTER>
-19.2229

>  <SCORE.INTER.CONST>
1

>  <SCORE.INTER.POLAR>
0

>  <SCORE.INTER.ROT>
0

>  <SCORE.INTER.SOLV>
4.62189

>  <SCORE.INTER.VDW>
-17.9559

>  <SCORE.INTER.norm>
-1.92229

>  <SCORE.INTRA>
0

>  <SCORE.INTRA.DIHEDRAL>
0

>  <SCORE.INTRA.DIHEDRAL.0>
0

>  <SCORE.INTRA.POLAR>
0

>  <SCORE.INTRA.POLAR.0>
0

>  <SCORE.INTRA.REPUL>
0

>  <SCORE.INTRA.REPUL.0>
0

>  <SCORE.INTRA.SOLV>
0

>  <SCORE.INTRA.SOLV.lig_0>
-4.25352

>  <SCORE.INTRA.VDW>
0

>  <SCORE.INTRA.VDW.0>
0

>  <SCORE.INTRA.norm>
0

>  <SCORE.RESTR>
0

>  <SCORE.RESTR.CAVITY>
0

>  <SCORE.RESTR.norm>
0

>  <SCORE.SYSTEM>
0

>  <SCORE.SYSTEM.CONST>
0

>  <SCORE.SYSTEM.DIHEDRAL>
0

>  <SCORE.SYSTEM.SOLV>
0

>  <SCORE.SYSTEM.norm>
0

>  <SCORE.heavy>
10

>  <SCORE.norm>
-1.92229

>  <RMSD>
2.409

$$$$
ligand
 OpenBabel11021811423D
libRbt.so/2013.1/901 2013/11/27
 10 11  0  0  0  0  0  0  0  0999 V2000
   53.5276  -13.3799    9.0529 N   0  0  0  0  0  0  0  0  0  0  0  0
   53.4257  -12.1973    8.3773 C   0  0  0  0  0  0  0  0  0  0  0  0
   53.6085  -12.1215    7.0332 N   0  0  0  0  0  0  0  0  0  0  0  0
   53.8871  -13.3298    6.4643 C   0  0  0  0  0  0  0  0  0  0  0  0
   53.9979  -14.5457    7.0970 C   0  0  0  0  0  0  0  0  0  0  0  0
   53.8183  -14.6307    8.4806 C   0  0  0  0  0  0  0  0  0  0  0  0
   53.8791  -15.5997    9.2080 O   0  0  0  0  0  0  0  0  0  0  0  0
   54.2854  -15.5009    6.1598 N   0  0  0  0  0  0  0  0  0  0  0  0
   54.3483  -14.8816    4.9857 C   0  0  0  0  0  0  0  0  0  0  0  0
   54.1093  -13.5271    5.1242 N   0  0  0  0  0  0  0  0  0  0  0  0
  1  2  1  0  0  0  0
  1  6  1  0  0  0  0
  2  3  2  0  0  0  0
  3  4  1  0  0  0  0
  4  5  2  0  0  0  0
  4 10  1  0  0  0  0
  5  6  1  0  0  0  0
  5  8  1  0  0  0  0
  6  7  2  0  0  0  0
  8  9  1  0  0  0  0
  9 10  2  0  0  0  0
M  END
>  <CHROM.1>
53.88806783,-14.00010145,7.23747222,2.35635694,-1.35689784,2.27457588

>  <Name>
ligand

>  <RI>
0

>  <Rbt.Current_Directory>
/home/itssahil/PROJECTS/Mol_Feturizer/New_Systems/rnas/2EEV

>  <Rbt.Executable>
rbdock ($Id: //depot/dev/client3/rdock/2013.1/src/exe/rbdock.cxx#4 $)

>  <Rbt.Library>
libRbt.so (2013.1, Build901 2013/11/27)

>  <Rbt.Parameter_File>
/export/apps/rDock/src/rDock_2013.1_src/data/scripts/dock_solv.prm

>  <Rbt.Receptor>
prm/pocket_docking_8.prm

>  <SCORE>
-19.2848

>  <SCORE.INTER>
-19.2848

>  <SCORE.INTER.CONST>
1

>  <SCORE.INTER.POLAR>
0

>  <SCORE.INTER.ROT>
0

>  <SCORE.INTER.SOLV>
4.73728

>  <SCORE.INTER.VDW>
-18.0356

>  <SCORE.INTER.norm>
-1.92848

>  <SCORE.INTRA>
0

>  <SCORE.INTRA.DIHEDRAL>
0

>  <SCORE.INTRA.DIHEDRAL.0>
0

>  <SCORE.INTRA.POLAR>
0

>  <SCORE.INTRA.POLAR.0>
0

>  <SCORE.INTRA.REPUL>
0

>  <SCORE.INTRA.REPUL.0>
0

>  <SCORE.INTRA.SOLV>
0

>  <SCORE.INTRA.SOLV.lig_0>
-4.25352

>  <SCORE.INTRA.VDW>
0

>  <SCORE.INTRA.VDW.0>
0

>  <SCORE.INTRA.norm>
0

>  <SCORE.RESTR>
0

>  <SCORE.RESTR.CAVITY>
0

>  <SCORE.RESTR.norm>
0

>  <SCORE.SYSTEM>
0

>  <SCORE.SYSTEM.CONST>
0

>  <SCORE.SYSTEM.DIHEDRAL>
0

>  <SCORE.SYSTEM.SOLV>
0

>  <SCORE.SYSTEM.norm>
0

>  <SCORE.heavy>
10

>  <SCORE.norm>
-1.92848

>  <RMSD>
2.409

$$$$
ligand
 OpenBabel11021811423D
libRbt.so/2013.1/901 2013/11/27
 10 11  0  0  0  0  0  0  0  0999 V2000
   53.5347  -13.3790    9.0531 N   0  0  0  0  0  0  0  0  0  0  0  0
   53.4184  -12.1988    8.3757 C   0  0  0  0  0  0  0  0  0  0  0  0
   53.5924  -12.1243    7.0304 N   0  0  0  0  0  0  0  0  0  0  0  0
   53.8780  -13.3313    6.4622 C   0  0  0  0  0  0  0  0  0  0  0  0
   54.0032  -14.5448    7.0968 C   0  0  0  0  0  0  0  0  0  0  0  0
   53.8328  -14.6284    8.4816 C   0  0  0  0  0  0  0  0  0  0  0  0
   53.9065  -15.5954    9.2107 O   0  0  0  0  0  0  0  0  0  0  0  0
   54.2934  -15.4995    6.1598 N   0  0  0  0  0  0  0  0  0  0  0  0
   54.3437  -14.8821    4.9841 C   0  0  0  0  0  0  0  0  0  0  0  0
   54.0938  -13.5295    5.1212 N   0  0  0  0  0  0  0  0  0  0  0  0
  1  2  1  0  0  0  0
  1  6  1  0  0  0  0
  2  3  2  0  0  0  0
  3  4  1  0  0  0  0
  4  5  2  0  0  0  0
  4 10  1  0  0  0  0
  5  6  1  0  0  0  0
  5  8  1  0  0  0  0
  6  7  2  0  0  0  0
  8  9  1  0  0  0  0
  9 10  2  0  0  0  0
M  END
>  <CHROM.1>
53.88954536,-13.99992788,7.23680485,2.30858038,-1.35395705,2.22581062

>  <Name>
ligand

>  <RI>
0

>  <Rbt.Current_Directory>
/home/itssahil/PROJECTS/Mol_Feturizer/New_Systems/rnas/2EEV

>  <Rbt.Executable>
rbdock ($Id: //depot/dev/client3/rdock/2013.1/src/exe/rbdock.cxx#4 $)

>  <Rbt.Library>
libRbt.so (2013.1, Build901 2013/11/27)

>  <Rbt.Parameter_File>
/export/apps/rDock/src/rDock_2013.1_src/data/scripts/dock_solv.prm

>  <Rbt.Receptor>
prm/blind_docking_100.prm

>  <SCORE>
-19.3067

>  <SCORE.INTER>
-19.3067

>  <SCORE.INTER.CONST>
1

>  <SCORE.INTER.POLAR>
0

>  <SCORE.INTER.ROT>
0

>  <SCORE.INTER.SOLV>
4.71379

>  <SCORE.INTER.VDW>
-18.0424

>  <SCORE.INTER.norm>
-1.93067

>  <SCORE.INTRA>
0

>  <SCORE.INTRA.DIHEDRAL>
0

>  <SCORE.INTRA.DIHEDRAL.0>
0

>  <SCORE.INTRA.POLAR>
0

>  <SCORE.INTRA.POLAR.0>
0

>  <SCORE.INTRA.REPUL>
0

>  <SCORE.INTRA.REPUL.0>
0

>  <SCORE.INTRA.SOLV>
0

>  <SCORE.INTRA.SOLV.lig_0>
-4.25352

>  <SCORE.INTRA.VDW>
0

>  <SCORE.INTRA.VDW.0>
0

>  <SCORE.INTRA.norm>
0

>  <SCORE.RESTR>
0

>  <SCORE.RESTR.CAVITY>
0

>  <SCORE.RESTR.norm>
0

>  <SCORE.SYSTEM>
0

>  <SCORE.SYSTEM.CONST>
0

>  <SCORE.SYSTEM.DIHEDRAL>
0

>  <SCORE.SYSTEM.SOLV>
0

>  <SCORE.SYSTEM.norm>
0

>  <SCORE.heavy>
10

>  <SCORE.norm>
-1.93067

>  <RMSD>
2.410

$$$$
ligand
 OpenBabel11021811423D
libRbt.so/2013.1/901 2013/11/27
 10 11  0  0  0  0  0  0  0  0999 V2000
   53.5370  -13.3776    9.0487 N   0  0  0  0  0  0  0  0  0  0  0  0
   53.4218  -12.1970    8.3719 C   0  0  0  0  0  0  0  0  0  0  0  0
   53.5990  -12.1214    7.0271 N   0  0  0  0  0  0  0  0  0  0  0  0
   53.8864  -13.3279    6.4587 C   0  0  0  0  0  0  0  0  0  0  0  0
   54.0107  -14.5418    7.0926 C   0  0  0  0  0  0  0  0  0  0  0  0
   53.8370  -14.6265    8.4770 C   0  0  0  0  0  0  0  0  0  0  0  0
   53.9094  -15.5939    9.2055 O   0  0  0  0  0  0  0  0  0  0  0  0
   54.3035  -15.4956    6.1557 N   0  0  0  0  0  0  0  0  0  0  0  0
   54.3563  -14.8774    4.9805 C   0  0  0  0  0  0  0  0  0  0  0  0
   54.1055  -13.5250    5.1181 N   0  0  0  0  0  0  0  0  0  0  0  0
  1  2  1  0  0  0  0
  1  6  1  0  0  0  0
  2  3  2  0  0  0  0
  3  4  1  0  0  0  0
  4  5  2  0  0  0  0
  4 10  1  0  0  0  0
  5  6  1  0  0  0  0
  5  8  1  0  0  0  0
  6  7  2  0  0  0  0
  8  9  1  0  0  0  0
  9 10  2  0  0  0  0
M  END
>  <CHROM.1>
53.89641928,-13.99703048,7.23280527,2.31602831,-1.35214547,2.23381459

>  <Name>
ligand

>  <RI>
0

>  <Rbt.Current_Directory>
/home/itssahil/PROJECTS/Mol_Feturizer/New_Systems/rnas/2EEV

>  <Rbt.Executable>
rbdock ($Id: //depot/dev/client3/rdock/2013.1/src/exe/rbdock.cxx#4 $)

>  <Rbt.Library>
libRbt.so (2013.1, Build901 2013/11/27)

>  <Rbt.Parameter_File>
/export/apps/rDock/src/rDock_2013.1_src/data/scripts/dock_solv.prm

>  <Rbt.Receptor>
prm/blind_docking_100.prm

>  <SCORE>
-19.3062

>  <SCORE.INTER>
-19.3062

>  <SCORE.INTER.CONST>
1

>  <SCORE.INTER.POLAR>
0

>  <SCORE.INTER.ROT>
0

>  <SCORE.INTER.SOLV>
4.70498

>  <SCORE.INTER.VDW>
-18.0392

>  <SCORE.INTER.norm>
-1.93062

>  <SCORE.INTRA>
0

>  <SCORE.INTRA.DIHEDRAL>
0

>  <SCORE.INTRA.DIHEDRAL.0>
0

>  <SCORE.INTRA.POLAR>
0

>  <SCORE.INTRA.POLAR.0>
0

>  <SCORE.INTRA.REPUL>
0

>  <SCORE.INTRA.REPUL.0>
0

>  <SCORE.INTRA.SOLV>
0

>  <SCORE.INTRA.SOLV.lig_0>
-4.25352

>  <SCORE.INTRA.VDW>
0

>  <SCORE.INTRA.VDW.0>
0

>  <SCORE.INTRA.norm>
0

>  <SCORE.RESTR>
0

>  <SCORE.RESTR.CAVITY>
0

>  <SCORE.RESTR.norm>
0

>  <SCORE.SYSTEM>
0

>  <SCORE.SYSTEM.CONST>
0

>  <SCORE.SYSTEM.DIHEDRAL>
0

>  <SCORE.SYSTEM.SOLV>
0

>  <SCORE.SYSTEM.norm>
0

>  <SCORE.heavy>
10

>  <SCORE.norm>
-1.93062

>  <RMSD>
2.410

$$$$
ligand
 OpenBabel11021811423D
libRbt.so/2013.1/901 2013/11/27
 10 11  0  0  0  0  0  0  0  0999 V2000
   53.5378  -13.3781    9.0525 N   0  0  0  0  0  0  0  0  0  0  0  0
   53.4220  -12.1976    8.3757 C   0  0  0  0  0  0  0  0  0  0  0  0
   53.5960  -12.1224    7.0304 N   0  0  0  0  0  0  0  0  0  0  0  0
   53.8811  -13.3293    6.4617 C   0  0  0  0  0  0  0  0  0  0  0  0
   54.0058  -14.5432    7.0956 C   0  0  0  0  0  0  0  0  0  0  0  0
   53.8354  -14.6274    8.4804 C   0  0  0  0  0  0  0  0  0  0  0  0
   53.9087  -15.5947    9.2090 O   0  0  0  0  0  0  0  0  0  0  0  0
   54.2956  -15.4975    6.1582 N   0  0  0  0  0  0  0  0  0  0  0  0
   54.3462  -14.8796    4.9828 C   0  0  0  0  0  0  0  0  0  0  0  0
   54.0968  -13.5269    5.1206 N   0  0  0  0  0  0  0  0  0  0  0  0
  1  2  1  0  0  0  0
  1  6  1  0  0  0  0
  2  3  2  0  0  0  0
  3  4  1  0  0  0  0
  4  5  2  0  0  0  0
  4 10  1  0  0  0  0
  5  6  1  0  0  0  0
  5  8  1  0  0  0  0
  6  7  2  0  0  0  0
  8  9  1  0  0  0  0
  9 10  2  0  0  0  0
M  END
>  <CHROM.1>
53.89236608,-13.99828917,7.23591805,2.30970709,-1.35428169,2.22739130

>  <Name>
ligand

>  <RI>
0

>  <Rbt.Current_Directory>
/home/itssahil/PROJECTS/Mol_Feturizer/New_Systems/rnas/2EEV

>  <Rbt.Executable>
rbdock ($Id: //depot/dev/client3/rdock/2013.1/src/exe/rbdock.cxx#4 $)

>  <Rbt.Library>
libRbt.so (2013.1, Build901 2013/11/27)

>  <Rbt.Parameter_File>
/export/apps/rDock/src/rDock_2013.1_src/data/scripts/dock_solv.prm

>  <Rbt.Receptor>
prm/blind_docking_60.prm

>  <SCORE>
-19.307

>  <SCORE.INTER>
-19.307

>  <SCORE.INTER.CONST>
1

>  <SCORE.INTER.POLAR>
0

>  <SCORE.INTER.ROT>
0

>  <SCORE.INTER.SOLV>
4.71057

>  <SCORE.INTER.VDW>
-18.0415

>  <SCORE.INTER.norm>
-1.9307

>  <SCORE.INTRA>
0

>  <SCORE.INTRA.DIHEDRAL>
0

>  <SCORE.INTRA.DIHEDRAL.0>
0

>  <SCORE.INTRA.POLAR>
0

>  <SCORE.INTRA.POLAR.0>
0

>  <SCORE.INTRA.REPUL>
0

>  <SCORE.INTRA.REPUL.0>
0

>  <SCORE.INTRA.SOLV>
0

>  <SCORE.INTRA.SOLV.lig_0>
-4.25352

>  <SCORE.INTRA.VDW>
0

>  <SCORE.INTRA.VDW.0>
0

>  <SCORE.INTRA.norm>
0

>  <SCORE.RESTR>
0

>  <SCORE.RESTR.CAVITY>
0

>  <SCORE.RESTR.norm>
0

>  <SCORE.SYSTEM>
0

>  <SCORE.SYSTEM.CONST>
0

>  <SCORE.SYSTEM.DIHEDRAL>
0

>  <SCORE.SYSTEM.SOLV>
0

>  <SCORE.SYSTEM.norm>
0

>  <SCORE.heavy>
10

>  <SCORE.norm>
-1.9307

>  <RMSD>
2.410

$$$$
ligand
 OpenBabel11021811423D
libRbt.so/2013.1/901 2013/11/27
 10 11  0  0  0  0  0  0  0  0999 V2000
   53.5369  -13.3837    9.0589 N   0  0  0  0  0  0  0  0  0  0  0  0
   53.4165  -12.2035    8.3823 C   0  0  0  0  0  0  0  0  0  0  0  0
   53.5834  -12.1287    7.0361 N   0  0  0  0  0  0  0  0  0  0  0  0
   53.8666  -13.3355    6.4663 C   0  0  0  0  0  0  0  0  0  0  0  0
   53.9957  -14.5490    7.1000 C   0  0  0  0  0  0  0  0  0  0  0  0
   53.8326  -14.6329    8.4857 C   0  0  0  0  0  0  0  0  0  0  0  0
   53.9105  -15.5999    9.2143 O   0  0  0  0  0  0  0  0  0  0  0  0
   54.2813  -15.5035    6.1614 N   0  0  0  0  0  0  0  0  0  0  0  0
   54.3252  -14.8859    4.9855 C   0  0  0  0  0  0  0  0  0  0  0  0
   54.0754  -13.5334    5.1242 N   0  0  0  0  0  0  0  0  0  0  0  0
  1  2  1  0  0  0  0
  1  6  1  0  0  0  0
  2  3  2  0  0  0  0
  3  4  1  0  0  0  0
  4  5  2  0  0  0  0
  4 10  1  0  0  0  0
  5  6  1  0  0  0  0
  5  8  1  0  0  0  0
  6  7  2  0  0  0  0
  8  9  1  0  0  0  0
  9 10  2  0  0  0  0
M  END
>  <CHROM.1>
53.88246892,-14.00421289,7.24073910,2.28772002,-1.35675097,2.20555212

>  <Name>
ligand

>  <RI>
0

>  <Rbt.Current_Directory>
/home/itssahil/PROJECTS/Mol_Feturizer/New_Systems/rnas/2EEV

>  <Rbt.Executable>
rbdock ($Id: //depot/dev/client3/rdock/2013.1/src/exe/rbdock.cxx#4 $)

>  <Rbt.Library>
libRbt.so (2013.1, Build901 2013/11/27)

>  <Rbt.Parameter_File>
/export/apps/rDock/src/rDock_2013.1_src/data/scripts/dock_solv.prm

>  <Rbt.Receptor>
prm/blind_docking_60.prm

>  <SCORE>
-19.2993

>  <SCORE.INTER>
-19.2993

>  <SCORE.INTER.CONST>
1

>  <SCORE.INTER.POLAR>
0

>  <SCORE.INTER.ROT>
0

>  <SCORE.INTER.SOLV>
4.72095

>  <SCORE.INTER.VDW>
-18.0398

>  <SCORE.INTER.norm>
-1.92993

>  <SCORE.INTRA>
0

>  <SCORE.INTRA.DIHEDRAL>
0

>  <SCORE.INTRA.DIHEDRAL.0>
0

>  <SCORE.INTRA.POLAR>
0

>  <SCORE.INTRA.POLAR.0>
0

>  <SCORE.INTRA.REPUL>
0

>  <SCORE.INTRA.REPUL.0>
0

>  <SCORE.INTRA.SOLV>
0

>  <SCORE.INTRA.SOLV.lig_0>
-4.25352

>  <SCORE.INTRA.VDW>
0

>  <SCORE.INTRA.VDW.0>
0

>  <SCORE.INTRA.norm>
0

>  <SCORE.RESTR>
0

>  <SCORE.RESTR.CAVITY>
0

>  <SCORE.RESTR.norm>
0

>  <SCORE.SYSTEM>
0

>  <SCORE.SYSTEM.CONST>
0

>  <SCORE.SYSTEM.DIHEDRAL>
0

>  <SCORE.SYSTEM.SOLV>
0

>  <SCORE.SYSTEM.norm>
0

>  <SCORE.heavy>
10

>  <SCORE.norm>
-1.92993

>  <RMSD>
2.410

$$$$
ligand
 OpenBabel11021811423D
libRbt.so/2013.1/901 2013/11/27
 10 11  0  0  0  0  0  0  0  0999 V2000
   53.5342  -13.3787    9.0534 N   0  0  0  0  0  0  0  0  0  0  0  0
   53.4169  -12.1977    8.3776 C   0  0  0  0  0  0  0  0  0  0  0  0
   53.5924  -12.1208    7.0327 N   0  0  0  0  0  0  0  0  0  0  0  0
   53.8805  -13.3265    6.4630 C   0  0  0  0  0  0  0  0  0  0  0  0
   54.0069  -14.5408    7.0958 C   0  0  0  0  0  0  0  0  0  0  0  0
   53.8349  -14.6268    8.4803 C   0  0  0  0  0  0  0  0  0  0  0  0
   53.9092  -15.5947    9.2080 O   0  0  0  0  0  0  0  0  0  0  0  0
   54.2996  -15.4936    6.1578 N   0  0  0  0  0  0  0  0  0  0  0  0
   54.3504  -14.8743    4.9830 C   0  0  0  0  0  0  0  0  0  0  0  0
   54.0983  -13.5223    5.1220 N   0  0  0  0  0  0  0  0  0  0  0  0
  1  2  1  0  0  0  0
  1  6  1  0  0  0  0
  2  3  2  0  0  0  0
  3  4  1  0  0  0  0
  4  5  2  0  0  0  0
  4 10  1  0  0  0  0
  5  6  1  0  0  0  0
  5  8  1  0  0  0  0
  6  7  2  0  0  0  0
  8  9  1  0  0  0  0
  9 10  2  0  0  0  0
M  END
>  <CHROM.1>
53.89217866,-13.99629137,7.23657139,2.30868713,-1.35200548,2.22743902

>  <Name>
ligand

>  <RI>
0

>  <Rbt.Current_Directory>
/home/itssahil/PROJECTS/Mol_Feturizer/New_Systems/rnas/2EEV

>  <Rbt.Executable>
rbdock ($Id: //depot/dev/client3/rdock/2013.1/src/exe/rbdock.cxx#4 $)

>  <Rbt.Library>
libRbt.so (2013.1, Build901 2013/11/27)

>  <Rbt.Parameter_File>
/export/apps/rDock/src/rDock_2013.1_src/data/scripts/dock_solv.prm

>  <Rbt.Receptor>
prm/blind_docking_60.prm

>  <SCORE>
-19.3071

>  <SCORE.INTER>
-19.3071

>  <SCORE.INTER.CONST>
1

>  <SCORE.INTER.POLAR>
0

>  <SCORE.INTER.ROT>
0

>  <SCORE.INTER.SOLV>
4.70824

>  <SCORE.INTER.VDW>
-18.0408

>  <SCORE.INTER.norm>
-1.93071

>  <SCORE.INTRA>
0

>  <SCORE.INTRA.DIHEDRAL>
0

>  <SCORE.INTRA.DIHEDRAL.0>
0

>  <SCORE.INTRA.POLAR>
0

>  <SCORE.INTRA.POLAR.0>
0

>  <SCORE.INTRA.REPUL>
0

>  <SCORE.INTRA.REPUL.0>
0

>  <SCORE.INTRA.SOLV>
0

>  <SCORE.INTRA.SOLV.lig_0>
-4.25352

>  <SCORE.INTRA.VDW>
0

>  <SCORE.INTRA.VDW.0>
0

>  <SCORE.INTRA.norm>
0

>  <SCORE.RESTR>
0

>  <SCORE.RESTR.CAVITY>
0

>  <SCORE.RESTR.norm>
0

>  <SCORE.SYSTEM>
0

>  <SCORE.SYSTEM.CONST>
0

>  <SCORE.SYSTEM.DIHEDRAL>
0

>  <SCORE.SYSTEM.SOLV>
0

>  <SCORE.SYSTEM.norm>
0

>  <SCORE.heavy>
10

>  <SCORE.norm>
-1.93071

>  <RMSD>
2.410

$$$$
ligand
 OpenBabel11021811423D
libRbt.so/2013.1/901 2013/11/27
 10 11  0  0  0  0  0  0  0  0999 V2000
   53.5403  -13.3806    9.0541 N   0  0  0  0  0  0  0  0  0  0  0  0
   53.4239  -12.1992    8.3787 C   0  0  0  0  0  0  0  0  0  0  0  0
   53.5960  -12.1227    7.0333 N   0  0  0  0  0  0  0  0  0  0  0  0
   53.8799  -13.3290    6.4628 C   0  0  0  0  0  0  0  0  0  0  0  0
   54.0052  -14.5436    7.0953 C   0  0  0  0  0  0  0  0  0  0  0  0
   53.8368  -14.6293    8.4802 C   0  0  0  0  0  0  0  0  0  0  0  0
   53.9108  -15.5974    9.2077 O   0  0  0  0  0  0  0  0  0  0  0  0
   54.2934  -15.4970    6.1564 N   0  0  0  0  0  0  0  0  0  0  0  0
   54.3425  -14.8778    4.9816 C   0  0  0  0  0  0  0  0  0  0  0  0
   54.0937  -13.5252    5.1212 N   0  0  0  0  0  0  0  0  0  0  0  0
  1  2  1  0  0  0  0
  1  6  1  0  0  0  0
  2  3  2  0  0  0  0
  3  4  1  0  0  0  0
  4  5  2  0  0  0  0
  4 10  1  0  0  0  0
  5  6  1  0  0  0  0
  5  8  1  0  0  0  0
  6  7  2  0  0  0  0
  8  9  1  0  0  0  0
  9 10  2  0  0  0  0
M  END
>  <CHROM.1>
53.89212169,-13.99884569,7.23632417,2.30523544,-1.35536065,2.22410859

>  <Name>
ligand

>  <RI>
0

>  <Rbt.Current_Directory>
/home/itssahil/PROJECTS/Mol_Feturizer/New_Systems/rnas/2EEV

>  <Rbt.Executable>
rbdock ($Id: //depot/dev/client3/rdock/2013.1/src/exe/rbdock.cxx#4 $)

>  <Rbt.Library>
libRbt.so (2013.1, Build901 2013/11/27)

>  <Rbt.Parameter_File>
/export/apps/rDock/src/rDock_2013.1_src/data/scripts/dock_solv.prm

>  <Rbt.Receptor>
prm/blind_docking_80.prm

>  <SCORE>
-19.3073

>  <SCORE.INTER>
-19.3073

>  <SCORE.INTER.CONST>
1

>  <SCORE.INTER.POLAR>
0

>  <SCORE.INTER.ROT>
0

>  <SCORE.INTER.SOLV>
4.712

>  <SCORE.INTER.VDW>
-18.0422

>  <SCORE.INTER.norm>
-1.93073

>  <SCORE.INTRA>
0

>  <SCORE.INTRA.DIHEDRAL>
0

>  <SCORE.INTRA.DIHEDRAL.0>
0

>  <SCORE.INTRA.POLAR>
0

>  <SCORE.INTRA.POLAR.0>
0

>  <SCORE.INTRA.REPUL>
0

>  <SCORE.INTRA.REPUL.0>
0

>  <SCORE.INTRA.SOLV>
0

>  <SCORE.INTRA.SOLV.lig_0>
-4.25352

>  <SCORE.INTRA.VDW>
0

>  <SCORE.INTRA.VDW.0>
0

>  <SCORE.INTRA.norm>
0

>  <SCORE.RESTR>
0

>  <SCORE.RESTR.CAVITY>
0

>  <SCORE.RESTR.norm>
0

>  <SCORE.SYSTEM>
0

>  <SCORE.SYSTEM.CONST>
0

>  <SCORE.SYSTEM.DIHEDRAL>
0

>  <SCORE.SYSTEM.SOLV>
0

>  <SCORE.SYSTEM.norm>
0

>  <SCORE.heavy>
10

>  <SCORE.norm>
-1.93073

>  <RMSD>
2.410

$$$$
ligand
 OpenBabel11021811423D
libRbt.so/2013.1/901 2013/11/27
 10 11  0  0  0  0  0  0  0  0999 V2000
   53.5494  -13.3783    9.0526 N   0  0  0  0  0  0  0  0  0  0  0  0
   53.4371  -12.1962    8.3778 C   0  0  0  0  0  0  0  0  0  0  0  0
   53.6090  -12.1198    7.0323 N   0  0  0  0  0  0  0  0  0  0  0  0
   53.8883  -13.3269    6.4613 C   0  0  0  0  0  0  0  0  0  0  0  0
   54.0093  -14.5422    7.0932 C   0  0  0  0  0  0  0  0  0  0  0  0
   53.8411  -14.6278    8.4782 C   0  0  0  0  0  0  0  0  0  0  0  0
   53.9118  -15.5965    9.2052 O   0  0  0  0  0  0  0  0  0  0  0  0
   54.2937  -15.4963    6.1538 N   0  0  0  0  0  0  0  0  0  0  0  0
   54.3446  -14.8768    4.9792 C   0  0  0  0  0  0  0  0  0  0  0  0
   54.1008  -13.5234    5.1195 N   0  0  0  0  0  0  0  0  0  0  0  0
  1  2  1  0  0  0  0
  1  6  1  0  0  0  0
  2  3  2  0  0  0  0
  3  4  1  0  0  0  0
  4  5  2  0  0  0  0
  4 10  1  0  0  0  0
  5  6  1  0  0  0  0
  5  8  1  0  0  0  0
  6  7  2  0  0  0  0
  8  9  1  0  0  0  0
  9 10  2  0  0  0  0
M  END
>  <CHROM.1>
53.89829962,-13.99709186,7.23451943,2.31450443,-1.35849911,2.23357553

>  <Name>
ligand

>  <RI>
0

>  <Rbt.Current_Directory>
/home/itssahil/PROJECTS/Mol_Feturizer/New_Systems/rnas/2EEV

>  <Rbt.Executable>
rbdock ($Id: //depot/dev/client3/rdock/2013.1/src/exe/rbdock.cxx#4 $)

>  <Rbt.Library>
libRbt.so (2013.1, Build901 2013/11/27)

>  <Rbt.Parameter_File>
/export/apps/rDock/src/rDock_2013.1_src/data/scripts/dock_solv.prm

>  <Rbt.Receptor>
prm/blind_docking_80.prm

>  <SCORE>
-19.3073

>  <SCORE.INTER>
-19.3073

>  <SCORE.INTER.CONST>
1

>  <SCORE.INTER.POLAR>
0

>  <SCORE.INTER.ROT>
0

>  <SCORE.INTER.SOLV>
4.71039

>  <SCORE.INTER.VDW>
-18.0417

>  <SCORE.INTER.norm>
-1.93073

>  <SCORE.INTRA>
0

>  <SCORE.INTRA.DIHEDRAL>
0

>  <SCORE.INTRA.DIHEDRAL.0>
0

>  <SCORE.INTRA.POLAR>
0

>  <SCORE.INTRA.POLAR.0>
0

>  <SCORE.INTRA.REPUL>
0

>  <SCORE.INTRA.REPUL.0>
0

>  <SCORE.INTRA.SOLV>
0

>  <SCORE.INTRA.SOLV.lig_0>
-4.25352

>  <SCORE.INTRA.VDW>
0

>  <SCORE.INTRA.VDW.0>
0

>  <SCORE.INTRA.norm>
0

>  <SCORE.RESTR>
0

>  <SCORE.RESTR.CAVITY>
0

>  <SCORE.RESTR.norm>
0

>  <SCORE.SYSTEM>
0

>  <SCORE.SYSTEM.CONST>
0

>  <SCORE.SYSTEM.DIHEDRAL>
0

>  <SCORE.SYSTEM.SOLV>
0

>  <SCORE.SYSTEM.norm>
0

>  <SCORE.heavy>
10

>  <SCORE.norm>
-1.93073

>  <RMSD>
2.410

$$$$
ligand
 OpenBabel11021811423D
libRbt.so/2013.1/901 2013/11/27
 10 11  0  0  0  0  0  0  0  0999 V2000
   53.5416  -13.3779    9.0700 N   0  0  0  0  0  0  0  0  0  0  0  0
   53.4396  -12.1895    8.4048 C   0  0  0  0  0  0  0  0  0  0  0  0
   53.6144  -12.1033    7.0603 N   0  0  0  0  0  0  0  0  0  0  0  0
   53.8852  -13.3078    6.4797 C   0  0  0  0  0  0  0  0  0  0  0  0
   53.9957  -14.5292    7.1017 C   0  0  0  0  0  0  0  0  0  0  0  0
   53.8245  -14.6249    8.4857 C   0  0  0  0  0  0  0  0  0  0  0  0
   53.8865  -15.6001    9.2048 O   0  0  0  0  0  0  0  0  0  0  0  0
   54.2742  -15.4777    6.1549 N   0  0  0  0  0  0  0  0  0  0  0  0
   54.3319  -14.8489    4.9856 C   0  0  0  0  0  0  0  0  0  0  0  0
   54.0984  -13.4948    5.1367 N   0  0  0  0  0  0  0  0  0  0  0  0
  1  2  1  0  0  0  0
  1  6  1  0  0  0  0
  2  3  2  0  0  0  0
  3  4  1  0  0  0  0
  4  5  2  0  0  0  0
  4 10  1  0  0  0  0
  5  6  1  0  0  0  0
  5  8  1  0  0  0  0
  6  7  2  0  0  0  0
  8  9  1  0  0  0  0
  9 10  2  0  0  0  0
M  END
>  <CHROM.1>
53.88868962,-13.98441539,7.24737670,2.34414859,-1.36353047,2.27084173

>  <Name>
ligand

>  <RI>
0

>  <Rbt.Current_Directory>
/home/itssahil/PROJECTS/Mol_Feturizer/New_Systems/rnas/2EEV

>  <Rbt.Executable>
rbdock ($Id: //depot/dev/client3/rdock/2013.1/src/exe/rbdock.cxx#4 $)

>  <Rbt.Library>
libRbt.so (2013.1, Build901 2013/11/27)

>  <Rbt.Parameter_File>
/export/apps/rDock/src/rDock_2013.1_src/data/scripts/dock_solv.prm

>  <Rbt.Receptor>
prm/pocket_docking_3.prm

>  <SCORE>
-19.2362

>  <SCORE.INTER>
-19.2363

>  <SCORE.INTER.CONST>
1

>  <SCORE.INTER.POLAR>
0

>  <SCORE.INTER.ROT>
0

>  <SCORE.INTER.SOLV>
4.73799

>  <SCORE.INTER.VDW>
-18.0035

>  <SCORE.INTER.norm>
-1.92363

>  <SCORE.INTRA>
0

>  <SCORE.INTRA.DIHEDRAL>
0

>  <SCORE.INTRA.DIHEDRAL.0>
0

>  <SCORE.INTRA.POLAR>
0

>  <SCORE.INTRA.POLAR.0>
0

>  <SCORE.INTRA.REPUL>
0

>  <SCORE.INTRA.REPUL.0>
0

>  <SCORE.INTRA.SOLV>
0

>  <SCORE.INTRA.SOLV.lig_0>
-4.25352

>  <SCORE.INTRA.VDW>
0

>  <SCORE.INTRA.VDW.0>
0

>  <SCORE.INTRA.norm>
0

>  <SCORE.RESTR>
0.000138382

>  <SCORE.RESTR.CAVITY>
0.000138382

>  <SCORE.RESTR.norm>
1.38382e-05

>  <SCORE.SYSTEM>
0

>  <SCORE.SYSTEM.CONST>
0

>  <SCORE.SYSTEM.DIHEDRAL>
0

>  <SCORE.SYSTEM.SOLV>
0

>  <SCORE.SYSTEM.norm>
0

>  <SCORE.heavy>
10

>  <SCORE.norm>
-1.92362

>  <RMSD>
2.410

$$$$
ligand
 OpenBabel11021811423D
libRbt.so/2013.1/901 2013/11/27
 10 11  0  0  0  0  0  0  0  0999 V2000
   53.5423  -13.3779    9.0561 N   0  0  0  0  0  0  0  0  0  0  0  0
   53.4284  -12.1967    8.3799 C   0  0  0  0  0  0  0  0  0  0  0  0
   53.5989  -12.1218    7.0342 N   0  0  0  0  0  0  0  0  0  0  0  0
   53.8786  -13.3294    6.4643 C   0  0  0  0  0  0  0  0  0  0  0  0
   54.0012  -14.5438    7.0976 C   0  0  0  0  0  0  0  0  0  0  0  0
   53.8344  -14.6279    8.4828 C   0  0  0  0  0  0  0  0  0  0  0  0
   53.9067  -15.5956    9.2109 O   0  0  0  0  0  0  0  0  0  0  0  0
   54.2854  -15.4988    6.1591 N   0  0  0  0  0  0  0  0  0  0  0  0
   54.3346  -14.8807    4.9837 C   0  0  0  0  0  0  0  0  0  0  0  0
   54.0899  -13.5273    5.1226 N   0  0  0  0  0  0  0  0  0  0  0  0
  1  2  1  0  0  0  0
  1  6  1  0  0  0  0
  2  3  2  0  0  0  0
  3  4  1  0  0  0  0
  4  5  2  0  0  0  0
  4 10  1  0  0  0  0
  5  6  1  0  0  0  0
  5  8  1  0  0  0  0
  6  7  2  0  0  0  0
  8  9  1  0  0  0  0
  9 10  2  0  0  0  0
M  END
>  <CHROM.1>
53.88987780,-13.99860451,7.23833580,2.30843813,-1.35848778,2.22643374

>  <Name>
ligand

>  <RI>
0

>  <Rbt.Current_Directory>
/home/itssahil/PROJECTS/Mol_Feturizer/New_Systems/rnas/2EEV

>  <Rbt.Executable>
rbdock ($Id: //depot/dev/client3/rdock/2013.1/src/exe/rbdock.cxx#4 $)

>  <Rbt.Library>
libRbt.so (2013.1, Build901 2013/11/27)

>  <Rbt.Parameter_File>
/export/apps/rDock/src/rDock_2013.1_src/data/scripts/dock_solv.prm

>  <Rbt.Receptor>
prm/pocket_docking_3.prm

>  <SCORE>
-19.3056

>  <SCORE.INTER>
-19.3056

>  <SCORE.INTER.CONST>
1

>  <SCORE.INTER.POLAR>
0

>  <SCORE.INTER.ROT>
0

>  <SCORE.INTER.SOLV>
4.71783

>  <SCORE.INTER.VDW>
-18.043

>  <SCORE.INTER.norm>
-1.93056

>  <SCORE.INTRA>
0

>  <SCORE.INTRA.DIHEDRAL>
0

>  <SCORE.INTRA.DIHEDRAL.0>
0

>  <SCORE.INTRA.POLAR>
0

>  <SCORE.INTRA.POLAR.0>
0

>  <SCORE.INTRA.REPUL>
0

>  <SCORE.INTRA.REPUL.0>
0

>  <SCORE.INTRA.SOLV>
0

>  <SCORE.INTRA.SOLV.lig_0>
-4.25352

>  <SCORE.INTRA.VDW>
0

>  <SCORE.INTRA.VDW.0>
0

>  <SCORE.INTRA.norm>
0

>  <SCORE.RESTR>
0

>  <SCORE.RESTR.CAVITY>
0

>  <SCORE.RESTR.norm>
0

>  <SCORE.SYSTEM>
0

>  <SCORE.SYSTEM.CONST>
0

>  <SCORE.SYSTEM.DIHEDRAL>
0

>  <SCORE.SYSTEM.SOLV>
0

>  <SCORE.SYSTEM.norm>
0

>  <SCORE.heavy>
10

>  <SCORE.norm>
-1.93056

>  <RMSD>
2.410

$$$$
ligand
 OpenBabel11021811423D
libRbt.so/2013.1/901 2013/11/27
 10 11  0  0  0  0  0  0  0  0999 V2000
   53.5277  -13.3728    9.0502 N   0  0  0  0  0  0  0  0  0  0  0  0
   53.4129  -12.1942    8.3697 C   0  0  0  0  0  0  0  0  0  0  0  0
   53.5884  -12.1231    7.0244 N   0  0  0  0  0  0  0  0  0  0  0  0
   53.8738  -13.3318    6.4596 C   0  0  0  0  0  0  0  0  0  0  0  0
   53.9975  -14.5438    7.0973 C   0  0  0  0  0  0  0  0  0  0  0  0
   53.8256  -14.6238    8.4822 C   0  0  0  0  0  0  0  0  0  0  0  0
   53.8979  -15.5889    9.2138 O   0  0  0  0  0  0  0  0  0  0  0  0
   54.2881  -15.5010    6.1631 N   0  0  0  0  0  0  0  0  0  0  0  0
   54.3400  -14.8866    4.9858 C   0  0  0  0  0  0  0  0  0  0  0  0
   54.0908  -13.5335    5.1193 N   0  0  0  0  0  0  0  0  0  0  0  0
  1  2  1  0  0  0  0
  1  6  1  0  0  0  0
  2  3  2  0  0  0  0
  3  4  1  0  0  0  0
  4  5  2  0  0  0  0
  4 10  1  0  0  0  0
  5  6  1  0  0  0  0
  5  8  1  0  0  0  0
  6  7  2  0  0  0  0
  8  9  1  0  0  0  0
  9 10  2  0  0  0  0
M  END
>  <CHROM.1>
53.88405134,-13.99845237,7.23584091,2.31429980,-1.35381618,2.22886991

>  <Name>
ligand

>  <RI>
0

>  <Rbt.Current_Directory>
/home/itssahil/PROJECTS/Mol_Feturizer/New_Systems/rnas/2EEV

>  <Rbt.Executable>
rbdock ($Id: //depot/dev/client3/rdock/2013.1/src/exe/rbdock.cxx#4 $)

>  <Rbt.Library>
libRbt.so (2013.1, Build901 2013/11/27)

>  <Rbt.Parameter_File>
/export/apps/rDock/src/rDock_2013.1_src/data/scripts/dock_solv.prm

>  <Rbt.Receptor>
prm/pocket_docking_3.prm

>  <SCORE>
-19.2995

>  <SCORE.INTER>
-19.2995

>  <SCORE.INTER.CONST>
1

>  <SCORE.INTER.POLAR>
0

>  <SCORE.INTER.ROT>
0

>  <SCORE.INTER.SOLV>
4.71728

>  <SCORE.INTER.VDW>
-18.0388

>  <SCORE.INTER.norm>
-1.92995

>  <SCORE.INTRA>
0

>  <SCORE.INTRA.DIHEDRAL>
0

>  <SCORE.INTRA.DIHEDRAL.0>
0

>  <SCORE.INTRA.POLAR>
0

>  <SCORE.INTRA.POLAR.0>
0

>  <SCORE.INTRA.REPUL>
0

>  <SCORE.INTRA.REPUL.0>
0

>  <SCORE.INTRA.SOLV>
0

>  <SCORE.INTRA.SOLV.lig_0>
-4.25352

>  <SCORE.INTRA.VDW>
0

>  <SCORE.INTRA.VDW.0>
0

>  <SCORE.INTRA.norm>
0

>  <SCORE.RESTR>
0

>  <SCORE.RESTR.CAVITY>
0

>  <SCORE.RESTR.norm>
0

>  <SCORE.SYSTEM>
0

>  <SCORE.SYSTEM.CONST>
0

>  <SCORE.SYSTEM.DIHEDRAL>
0

>  <SCORE.SYSTEM.SOLV>
0

>  <SCORE.SYSTEM.norm>
0

>  <SCORE.heavy>
10

>  <SCORE.norm>
-1.92995

>  <RMSD>
2.410

$$$$
ligand
 OpenBabel11021811423D
libRbt.so/2013.1/901 2013/11/27
 10 11  0  0  0  0  0  0  0  0999 V2000
   53.5357  -13.3841    9.0579 N   0  0  0  0  0  0  0  0  0  0  0  0
   53.4145  -12.2026    8.3838 C   0  0  0  0  0  0  0  0  0  0  0  0
   53.5852  -12.1241    7.0383 N   0  0  0  0  0  0  0  0  0  0  0  0
   53.8730  -13.3289    6.4664 C   0  0  0  0  0  0  0  0  0  0  0  0
   54.0032  -14.5436    7.0976 C   0  0  0  0  0  0  0  0  0  0  0  0
   53.8362  -14.6312    8.4826 C   0  0  0  0  0  0  0  0  0  0  0  0
   53.9143  -15.5998    9.2090 O   0  0  0  0  0  0  0  0  0  0  0  0
   54.2940  -15.4951    6.1575 N   0  0  0  0  0  0  0  0  0  0  0  0
   54.3399  -14.8746    4.9833 C   0  0  0  0  0  0  0  0  0  0  0  0
   54.0863  -13.5230    5.1244 N   0  0  0  0  0  0  0  0  0  0  0  0
  1  2  1  0  0  0  0
  1  6  1  0  0  0  0
  2  3  2  0  0  0  0
  3  4  1  0  0  0  0
  4  5  2  0  0  0  0
  4 10  1  0  0  0  0
  5  6  1  0  0  0  0
  5  8  1  0  0  0  0
  6  7  2  0  0  0  0
  8  9  1  0  0  0  0
  9 10  2  0  0  0  0
M  END
>  <CHROM.1>
53.88823290,-13.99940068,7.23924782,2.29209636,-1.35300915,2.21224415

>  <Name>
ligand

>  <RI>
0

>  <Rbt.Current_Directory>
/home/itssahil/PROJECTS/Mol_Feturizer/New_Systems/rnas/2EEV

>  <Rbt.Executable>
rbdock ($Id: //depot/dev/client3/rdock/2013.1/src/exe/rbdock.cxx#4 $)

>  <Rbt.Library>
libRbt.so (2013.1, Build901 2013/11/27)

>  <Rbt.Parameter_File>
/export/apps/rDock/src/rDock_2013.1_src/data/scripts/dock_solv.prm

>  <Rbt.Receptor>
prm/pocket_docking_3.prm

>  <SCORE>
-19.3057

>  <SCORE.INTER>
-19.3057

>  <SCORE.INTER.CONST>
1

>  <SCORE.INTER.POLAR>
0

>  <SCORE.INTER.ROT>
0

>  <SCORE.INTER.SOLV>
4.71166

>  <SCORE.INTER.VDW>
-18.041

>  <SCORE.INTER.norm>
-1.93057

>  <SCORE.INTRA>
0

>  <SCORE.INTRA.DIHEDRAL>
0

>  <SCORE.INTRA.DIHEDRAL.0>
0

>  <SCORE.INTRA.POLAR>
0

>  <SCORE.INTRA.POLAR.0>
0

>  <SCORE.INTRA.REPUL>
0

>  <SCORE.INTRA.REPUL.0>
0

>  <SCORE.INTRA.SOLV>
0

>  <SCORE.INTRA.SOLV.lig_0>
-4.25352

>  <SCORE.INTRA.VDW>
0

>  <SCORE.INTRA.VDW.0>
0

>  <SCORE.INTRA.norm>
0

>  <SCORE.RESTR>
0

>  <SCORE.RESTR.CAVITY>
0

>  <SCORE.RESTR.norm>
0

>  <SCORE.SYSTEM>
0

>  <SCORE.SYSTEM.CONST>
0

>  <SCORE.SYSTEM.DIHEDRAL>
0

>  <SCORE.SYSTEM.SOLV>
0

>  <SCORE.SYSTEM.norm>
0

>  <SCORE.heavy>
10

>  <SCORE.norm>
-1.93057

>  <RMSD>
2.410

$$$$
ligand
 OpenBabel11021811423D
libRbt.so/2013.1/901 2013/11/27
 10 11  0  0  0  0  0  0  0  0999 V2000
   53.5259  -13.3765    9.0491 N   0  0  0  0  0  0  0  0  0  0  0  0
   53.4088  -12.1987    8.3677 C   0  0  0  0  0  0  0  0  0  0  0  0
   53.5844  -12.1283    7.0223 N   0  0  0  0  0  0  0  0  0  0  0  0
   53.8724  -13.3367    6.4585 C   0  0  0  0  0  0  0  0  0  0  0  0
   53.9986  -14.5480    7.0972 C   0  0  0  0  0  0  0  0  0  0  0  0
   53.8265  -14.6273    8.4820 C   0  0  0  0  0  0  0  0  0  0  0  0
   53.9007  -15.5917    9.2144 O   0  0  0  0  0  0  0  0  0  0  0  0
   54.2913  -15.5053    6.1637 N   0  0  0  0  0  0  0  0  0  0  0  0
   54.3423  -14.8917    4.9860 C   0  0  0  0  0  0  0  0  0  0  0  0
   54.0902  -13.5390    5.1185 N   0  0  0  0  0  0  0  0  0  0  0  0
  1  2  1  0  0  0  0
  1  6  1  0  0  0  0
  2  3  2  0  0  0  0
  3  4  1  0  0  0  0
  4  5  2  0  0  0  0
  4 10  1  0  0  0  0
  5  6  1  0  0  0  0
  5  8  1  0  0  0  0
  6  7  2  0  0  0  0
  8  9  1  0  0  0  0
  9 10  2  0  0  0  0
M  END
>  <CHROM.1>
53.88394197,-14.00277929,7.23528305,2.30925997,-1.35203605,2.22319940

>  <Name>
ligand

>  <RI>
0

>  <Rbt.Current_Directory>
/home/itssahil/PROJECTS/Mol_Feturizer/New_Systems/rnas/2EEV

>  <Rbt.Executable>
rbdock ($Id: //depot/dev/client3/rdock/2013.1/src/exe/rbdock.cxx#4 $)

>  <Rbt.Library>
libRbt.so (2013.1, Build901 2013/11/27)

>  <Rbt.Parameter_File>
/export/apps/rDock/src/rDock_2013.1_src/data/scripts/dock_solv.prm

>  <Rbt.Receptor>
prm/pocket_docking_4.prm

>  <SCORE>
-19.2999

>  <SCORE.INTER>
-19.2999

>  <SCORE.INTER.CONST>
1

>  <SCORE.INTER.POLAR>
0

>  <SCORE.INTER.ROT>
0

>  <SCORE.INTER.SOLV>
4.71609

>  <SCORE.INTER.VDW>
-18.0386

>  <SCORE.INTER.norm>
-1.92999

>  <SCORE.INTRA>
0

>  <SCORE.INTRA.DIHEDRAL>
0

>  <SCORE.INTRA.DIHEDRAL.0>
0

>  <SCORE.INTRA.POLAR>
0

>  <SCORE.INTRA.POLAR.0>
0

>  <SCORE.INTRA.REPUL>
0

>  <SCORE.INTRA.REPUL.0>
0

>  <SCORE.INTRA.SOLV>
0

>  <SCORE.INTRA.SOLV.lig_0>
-4.25352

>  <SCORE.INTRA.VDW>
0

>  <SCORE.INTRA.VDW.0>
0

>  <SCORE.INTRA.norm>
0

>  <SCORE.RESTR>
0

>  <SCORE.RESTR.CAVITY>
0

>  <SCORE.RESTR.norm>
0

>  <SCORE.SYSTEM>
0

>  <SCORE.SYSTEM.CONST>
0

>  <SCORE.SYSTEM.DIHEDRAL>
0

>  <SCORE.SYSTEM.SOLV>
0

>  <SCORE.SYSTEM.norm>
0

>  <SCORE.heavy>
10

>  <SCORE.norm>
-1.92999

>  <RMSD>
2.410

$$$$
ligand
 OpenBabel11021811423D
libRbt.so/2013.1/901 2013/11/27
 10 11  0  0  0  0  0  0  0  0999 V2000
   53.5352  -13.3790    9.0454 N   0  0  0  0  0  0  0  0  0  0  0  0
   53.4294  -12.1976    8.3684 C   0  0  0  0  0  0  0  0  0  0  0  0
   53.6098  -12.1233    7.0239 N   0  0  0  0  0  0  0  0  0  0  0  0
   53.8903  -13.3317    6.4562 C   0  0  0  0  0  0  0  0  0  0  0  0
   54.0049  -14.5464    7.0904 C   0  0  0  0  0  0  0  0  0  0  0  0
   53.8279  -14.6299    8.4744 C   0  0  0  0  0  0  0  0  0  0  0  0
   53.8922  -15.5978    9.2031 O   0  0  0  0  0  0  0  0  0  0  0  0
   54.2932  -15.5023    6.1541 N   0  0  0  0  0  0  0  0  0  0  0  0
   54.3527  -14.8845    4.9790 C   0  0  0  0  0  0  0  0  0  0  0  0
   54.1108  -13.5304    5.1160 N   0  0  0  0  0  0  0  0  0  0  0  0
  1  2  1  0  0  0  0
  1  6  1  0  0  0  0
  2  3  2  0  0  0  0
  3  4  1  0  0  0  0
  4  5  2  0  0  0  0
  4 10  1  0  0  0  0
  5  6  1  0  0  0  0
  5  8  1  0  0  0  0
  6  7  2  0  0  0  0
  8  9  1  0  0  0  0
  9 10  2  0  0  0  0
M  END
>  <CHROM.1>
53.89410490,-14.00091830,7.23032690,2.34337961,-1.35616011,2.26048659

>  <Name>
ligand

>  <RI>
0

>  <Rbt.Current_Directory>
/home/itssahil/PROJECTS/Mol_Feturizer/New_Systems/rnas/2EEV

>  <Rbt.Executable>
rbdock ($Id: //depot/dev/client3/rdock/2013.1/src/exe/rbdock.cxx#4 $)

>  <Rbt.Library>
libRbt.so (2013.1, Build901 2013/11/27)

>  <Rbt.Parameter_File>
/export/apps/rDock/src/rDock_2013.1_src/data/scripts/dock_solv.prm

>  <Rbt.Receptor>
prm/pocket_docking_5.prm

>  <SCORE>
-19.2801

>  <SCORE.INTER>
-19.2801

>  <SCORE.INTER.CONST>
1

>  <SCORE.INTER.POLAR>
0

>  <SCORE.INTER.ROT>
0

>  <SCORE.INTER.SOLV>
4.72271

>  <SCORE.INTER.VDW>
-18.0276

>  <SCORE.INTER.norm>
-1.92801

>  <SCORE.INTRA>
0

>  <SCORE.INTRA.DIHEDRAL>
0

>  <SCORE.INTRA.DIHEDRAL.0>
0

>  <SCORE.INTRA.POLAR>
0

>  <SCORE.INTRA.POLAR.0>
0

>  <SCORE.INTRA.REPUL>
0

>  <SCORE.INTRA.REPUL.0>
0

>  <SCORE.INTRA.SOLV>
0

>  <SCORE.INTRA.SOLV.lig_0>
-4.25352

>  <SCORE.INTRA.VDW>
0

>  <SCORE.INTRA.VDW.0>
0

>  <SCORE.INTRA.norm>
0

>  <SCORE.RESTR>
0

>  <SCORE.RESTR.CAVITY>
0

>  <SCORE.RESTR.norm>
0

>  <SCORE.SYSTEM>
0

>  <SCORE.SYSTEM.CONST>
0

>  <SCORE.SYSTEM.DIHEDRAL>
0

>  <SCORE.SYSTEM.SOLV>
0

>  <SCORE.SYSTEM.norm>
0

>  <SCORE.heavy>
10

>  <SCORE.norm>
-1.92801

>  <RMSD>
2.410

$$$$
ligand
 OpenBabel11021811423D
libRbt.so/2013.1/901 2013/11/27
 10 11  0  0  0  0  0  0  0  0999 V2000
   53.5331  -13.3818    9.0574 N   0  0  0  0  0  0  0  0  0  0  0  0
   53.4215  -12.1993    8.3833 C   0  0  0  0  0  0  0  0  0  0  0  0
   53.5978  -12.1213    7.0385 N   0  0  0  0  0  0  0  0  0  0  0  0
   53.8806  -13.3275    6.4672 C   0  0  0  0  0  0  0  0  0  0  0  0
   54.0011  -14.5433    7.0984 C   0  0  0  0  0  0  0  0  0  0  0  0
   53.8283  -14.6304    8.4827 C   0  0  0  0  0  0  0  0  0  0  0  0
   53.8979  -15.5997    9.2091 O   0  0  0  0  0  0  0  0  0  0  0  0
   54.2899  -15.4961    6.1591 N   0  0  0  0  0  0  0  0  0  0  0  0
   54.3440  -14.8754    4.9853 C   0  0  0  0  0  0  0  0  0  0  0  0
   54.0980  -13.5224    5.1260 N   0  0  0  0  0  0  0  0  0  0  0  0
  1  2  1  0  0  0  0
  1  6  1  0  0  0  0
  2  3  2  0  0  0  0
  3  4  1  0  0  0  0
  4  5  2  0  0  0  0
  4 10  1  0  0  0  0
  5  6  1  0  0  0  0
  5  8  1  0  0  0  0
  6  7  2  0  0  0  0
  8  9  1  0  0  0  0
  9 10  2  0  0  0  0
M  END
>  <CHROM.1>
53.88890967,-13.99843906,7.23985901,2.32318413,-1.35538096,2.24301155

>  <Name>
ligand

>  <RI>
0

>  <Rbt.Current_Directory>
/home/itssahil/PROJECTS/Mol_Feturizer/New_Systems/rnas/2EEV

>  <Rbt.Executable>
rbdock ($Id: //depot/dev/client3/rdock/2013.1/src/exe/rbdock.cxx#4 $)

>  <Rbt.Library>
libRbt.so (2013.1, Build901 2013/11/27)

>  <Rbt.Parameter_File>
/export/apps/rDock/src/rDock_2013.1_src/data/scripts/dock_solv.prm

>  <Rbt.Receptor>
prm/pocket_docking_6.prm

>  <SCORE>
-19.2842

>  <SCORE.INTER>
-19.2842

>  <SCORE.INTER.CONST>
1

>  <SCORE.INTER.POLAR>
0

>  <SCORE.INTER.ROT>
0

>  <SCORE.INTER.SOLV>
4.72398

>  <SCORE.INTER.VDW>
-18.0308

>  <SCORE.INTER.norm>
-1.92842

>  <SCORE.INTRA>
0

>  <SCORE.INTRA.DIHEDRAL>
0

>  <SCORE.INTRA.DIHEDRAL.0>
0

>  <SCORE.INTRA.POLAR>
0

>  <SCORE.INTRA.POLAR.0>
0

>  <SCORE.INTRA.REPUL>
0

>  <SCORE.INTRA.REPUL.0>
0

>  <SCORE.INTRA.SOLV>
0

>  <SCORE.INTRA.SOLV.lig_0>
-4.25352

>  <SCORE.INTRA.VDW>
0

>  <SCORE.INTRA.VDW.0>
0

>  <SCORE.INTRA.norm>
0

>  <SCORE.RESTR>
0

>  <SCORE.RESTR.CAVITY>
0

>  <SCORE.RESTR.norm>
0

>  <SCORE.SYSTEM>
0

>  <SCORE.SYSTEM.CONST>
0

>  <SCORE.SYSTEM.DIHEDRAL>
0

>  <SCORE.SYSTEM.SOLV>
0

>  <SCORE.SYSTEM.norm>
0

>  <SCORE.heavy>
10

>  <SCORE.norm>
-1.92842

>  <RMSD>
2.410

$$$$
ligand
 OpenBabel11021811423D
libRbt.so/2013.1/901 2013/11/27
 10 11  0  0  0  0  0  0  0  0999 V2000
   53.5377  -13.3747    9.0479 N   0  0  0  0  0  0  0  0  0  0  0  0
   53.4231  -12.1951    8.3691 C   0  0  0  0  0  0  0  0  0  0  0  0
   53.5986  -12.1221    7.0239 N   0  0  0  0  0  0  0  0  0  0  0  0
   53.8839  -13.3300    6.4574 C   0  0  0  0  0  0  0  0  0  0  0  0
   54.0075  -14.5429    7.0933 C   0  0  0  0  0  0  0  0  0  0  0  0
   53.8355  -14.6249    8.4780 C   0  0  0  0  0  0  0  0  0  0  0  0
   53.9077  -15.5911    9.2082 O   0  0  0  0  0  0  0  0  0  0  0  0
   54.2980  -15.4988    6.1577 N   0  0  0  0  0  0  0  0  0  0  0  0
   54.3501  -14.8827    4.9814 C   0  0  0  0  0  0  0  0  0  0  0  0
   54.1011  -13.5297    5.1168 N   0  0  0  0  0  0  0  0  0  0  0  0
  1  2  1  0  0  0  0
  1  6  1  0  0  0  0
  2  3  2  0  0  0  0
  3  4  1  0  0  0  0
  4  5  2  0  0  0  0
  4 10  1  0  0  0  0
  5  6  1  0  0  0  0
  5  8  1  0  0  0  0
  6  7  2  0  0  0  0
  8  9  1  0  0  0  0
  9 10  2  0  0  0  0
M  END
>  <CHROM.1>
53.89408800,-13.99774840,7.23265211,2.31484572,-1.35387707,2.23086647

>  <Name>
ligand

>  <RI>
0

>  <Rbt.Current_Directory>
/home/itssahil/PROJECTS/Mol_Feturizer/New_Systems/rnas/2EEV

>  <Rbt.Executable>
rbdock ($Id: //depot/dev/client3/rdock/2013.1/src/exe/rbdock.cxx#4 $)

>  <Rbt.Library>
libRbt.so (2013.1, Build901 2013/11/27)

>  <Rbt.Parameter_File>
/export/apps/rDock/src/rDock_2013.1_src/data/scripts/dock_solv.prm

>  <Rbt.Receptor>
prm/pocket_docking_6.prm

>  <SCORE>
-19.3038

>  <SCORE.INTER>
-19.3038

>  <SCORE.INTER.CONST>
1

>  <SCORE.INTER.POLAR>
0

>  <SCORE.INTER.ROT>
0

>  <SCORE.INTER.SOLV>
4.70706

>  <SCORE.INTER.VDW>
-18.0382

>  <SCORE.INTER.norm>
-1.93038

>  <SCORE.INTRA>
0

>  <SCORE.INTRA.DIHEDRAL>
0

>  <SCORE.INTRA.DIHEDRAL.0>
0

>  <SCORE.INTRA.POLAR>
0

>  <SCORE.INTRA.POLAR.0>
0

>  <SCORE.INTRA.REPUL>
0

>  <SCORE.INTRA.REPUL.0>
0

>  <SCORE.INTRA.SOLV>
0

>  <SCORE.INTRA.SOLV.lig_0>
-4.25352

>  <SCORE.INTRA.VDW>
0

>  <SCORE.INTRA.VDW.0>
0

>  <SCORE.INTRA.norm>
0

>  <SCORE.RESTR>
0

>  <SCORE.RESTR.CAVITY>
0

>  <SCORE.RESTR.norm>
0

>  <SCORE.SYSTEM>
0

>  <SCORE.SYSTEM.CONST>
0

>  <SCORE.SYSTEM.DIHEDRAL>
0

>  <SCORE.SYSTEM.SOLV>
0

>  <SCORE.SYSTEM.norm>
0

>  <SCORE.heavy>
10

>  <SCORE.norm>
-1.93038

>  <RMSD>
2.410

$$$$
ligand
 OpenBabel11021811423D
libRbt.so/2013.1/901 2013/11/27
 10 11  0  0  0  0  0  0  0  0999 V2000
   53.5515  -13.3735    9.0484 N   0  0  0  0  0  0  0  0  0  0  0  0
   53.4434  -12.1927    8.3707 C   0  0  0  0  0  0  0  0  0  0  0  0
   53.6151  -12.1202    7.0250 N   0  0  0  0  0  0  0  0  0  0  0  0
   53.8896  -13.3298    6.4568 C   0  0  0  0  0  0  0  0  0  0  0  0
   54.0063  -14.5440    7.0917 C   0  0  0  0  0  0  0  0  0  0  0  0
   53.8382  -14.6255    8.4769 C   0  0  0  0  0  0  0  0  0  0  0  0
   53.9056  -15.5927    9.2063 O   0  0  0  0  0  0  0  0  0  0  0  0
   54.2867  -15.5015    6.1546 N   0  0  0  0  0  0  0  0  0  0  0  0
   54.3395  -14.8851    4.9784 C   0  0  0  0  0  0  0  0  0  0  0  0
   54.1009  -13.5304    5.1155 N   0  0  0  0  0  0  0  0  0  0  0  0
  1  2  1  0  0  0  0
  1  6  1  0  0  0  0
  2  3  2  0  0  0  0
  3  4  1  0  0  0  0
  4  5  2  0  0  0  0
  4 10  1  0  0  0  0
  5  6  1  0  0  0  0
  5  8  1  0  0  0  0
  6  7  2  0  0  0  0
  8  9  1  0  0  0  0
  9 10  2  0  0  0  0
M  END
>  <CHROM.1>
53.89737573,-13.99812656,7.23169721,2.32434419,-1.36171097,2.24072681

>  <Name>
ligand

>  <RI>
0

>  <Rbt.Current_Directory>
/home/itssahil/PROJECTS/Mol_Feturizer/New_Systems/rnas/2EEV

>  <Rbt.Executable>
rbdock ($Id: //depot/dev/client3/rdock/2013.1/src/exe/rbdock.cxx#4 $)

>  <Rbt.Library>
libRbt.so (2013.1, Build901 2013/11/27)

>  <Rbt.Parameter_File>
/export/apps/rDock/src/rDock_2013.1_src/data/scripts/dock_solv.prm

>  <Rbt.Receptor>
prm/pocket_docking_6.prm

>  <SCORE>
-19.3024

>  <SCORE.INTER>
-19.3024

>  <SCORE.INTER.CONST>
1

>  <SCORE.INTER.POLAR>
0

>  <SCORE.INTER.ROT>
0

>  <SCORE.INTER.SOLV>
4.71509

>  <SCORE.INTER.VDW>
-18.04

>  <SCORE.INTER.norm>
-1.93024

>  <SCORE.INTRA>
0

>  <SCORE.INTRA.DIHEDRAL>
0

>  <SCORE.INTRA.DIHEDRAL.0>
0

>  <SCORE.INTRA.POLAR>
0

>  <SCORE.INTRA.POLAR.0>
0

>  <SCORE.INTRA.REPUL>
0

>  <SCORE.INTRA.REPUL.0>
0

>  <SCORE.INTRA.SOLV>
0

>  <SCORE.INTRA.SOLV.lig_0>
-4.25352

>  <SCORE.INTRA.VDW>
0

>  <SCORE.INTRA.VDW.0>
0

>  <SCORE.INTRA.norm>
0

>  <SCORE.RESTR>
0

>  <SCORE.RESTR.CAVITY>
0

>  <SCORE.RESTR.norm>
0

>  <SCORE.SYSTEM>
0

>  <SCORE.SYSTEM.CONST>
0

>  <SCORE.SYSTEM.DIHEDRAL>
0

>  <SCORE.SYSTEM.SOLV>
0

>  <SCORE.SYSTEM.norm>
0

>  <SCORE.heavy>
10

>  <SCORE.norm>
-1.93024

>  <RMSD>
2.410

$$$$
ligand
 OpenBabel11021811423D
libRbt.so/2013.1/901 2013/11/27
 10 11  0  0  0  0  0  0  0  0999 V2000
   53.5553  -13.3766    9.0537 N   0  0  0  0  0  0  0  0  0  0  0  0
   53.4457  -12.1948    8.3781 C   0  0  0  0  0  0  0  0  0  0  0  0
   53.6141  -12.1201    7.0321 N   0  0  0  0  0  0  0  0  0  0  0  0
   53.8871  -13.3289    6.4614 C   0  0  0  0  0  0  0  0  0  0  0  0
   54.0051  -14.5441    7.0940 C   0  0  0  0  0  0  0  0  0  0  0  0
   53.8404  -14.6278    8.4795 C   0  0  0  0  0  0  0  0  0  0  0  0
   53.9094  -15.5962    9.2072 O   0  0  0  0  0  0  0  0  0  0  0  0
   54.2831  -15.5001    6.1547 N   0  0  0  0  0  0  0  0  0  0  0  0
   54.3331  -14.8818    4.9794 C   0  0  0  0  0  0  0  0  0  0  0  0
   54.0951  -13.5273    5.1192 N   0  0  0  0  0  0  0  0  0  0  0  0
  1  2  1  0  0  0  0
  1  6  1  0  0  0  0
  2  3  2  0  0  0  0
  3  4  1  0  0  0  0
  4  5  2  0  0  0  0
  4 10  1  0  0  0  0
  5  6  1  0  0  0  0
  5  8  1  0  0  0  0
  6  7  2  0  0  0  0
  8  9  1  0  0  0  0
  9 10  2  0  0  0  0
M  END
>  <CHROM.1>
53.89661682,-13.99841210,7.23514963,2.31552378,-1.36332808,2.23370180

>  <Name>
ligand

>  <RI>
0

>  <Rbt.Current_Directory>
/home/itssahil/PROJECTS/Mol_Feturizer/New_Systems/rnas/2EEV

>  <Rbt.Executable>
rbdock ($Id: //depot/dev/client3/rdock/2013.1/src/exe/rbdock.cxx#4 $)

>  <Rbt.Library>
libRbt.so (2013.1, Build901 2013/11/27)

>  <Rbt.Parameter_File>
/export/apps/rDock/src/rDock_2013.1_src/data/scripts/dock_solv.prm

>  <Rbt.Receptor>
prm/pocket_docking_6.prm

>  <SCORE>
-19.3036

>  <SCORE.INTER>
-19.3036

>  <SCORE.INTER.CONST>
1

>  <SCORE.INTER.POLAR>
0

>  <SCORE.INTER.ROT>
0

>  <SCORE.INTER.SOLV>
4.7175

>  <SCORE.INTER.VDW>
-18.0416

>  <SCORE.INTER.norm>
-1.93036

>  <SCORE.INTRA>
0

>  <SCORE.INTRA.DIHEDRAL>
0

>  <SCORE.INTRA.DIHEDRAL.0>
0

>  <SCORE.INTRA.POLAR>
0

>  <SCORE.INTRA.POLAR.0>
0

>  <SCORE.INTRA.REPUL>
0

>  <SCORE.INTRA.REPUL.0>
0

>  <SCORE.INTRA.SOLV>
0

>  <SCORE.INTRA.SOLV.lig_0>
-4.25352

>  <SCORE.INTRA.VDW>
0

>  <SCORE.INTRA.VDW.0>
0

>  <SCORE.INTRA.norm>
0

>  <SCORE.RESTR>
0

>  <SCORE.RESTR.CAVITY>
0

>  <SCORE.RESTR.norm>
0

>  <SCORE.SYSTEM>
0

>  <SCORE.SYSTEM.CONST>
0

>  <SCORE.SYSTEM.DIHEDRAL>
0

>  <SCORE.SYSTEM.SOLV>
0

>  <SCORE.SYSTEM.norm>
0

>  <SCORE.heavy>
10

>  <SCORE.norm>
-1.93036

>  <RMSD>
2.410

$$$$
ligand
 OpenBabel11021811423D
libRbt.so/2013.1/901 2013/11/27
 10 11  0  0  0  0  0  0  0  0999 V2000
   53.5536  -13.3729    9.0466 N   0  0  0  0  0  0  0  0  0  0  0  0
   53.4457  -12.1921    8.3688 C   0  0  0  0  0  0  0  0  0  0  0  0
   53.6175  -12.1197    7.0231 N   0  0  0  0  0  0  0  0  0  0  0  0
   53.8919  -13.3294    6.4550 C   0  0  0  0  0  0  0  0  0  0  0  0
   54.0084  -14.5435    7.0899 C   0  0  0  0  0  0  0  0  0  0  0  0
   53.8402  -14.6250    8.4751 C   0  0  0  0  0  0  0  0  0  0  0  0
   53.9074  -15.5921    9.2046 O   0  0  0  0  0  0  0  0  0  0  0  0
   54.2887  -15.5011    6.1529 N   0  0  0  0  0  0  0  0  0  0  0  0
   54.3417  -14.8847    4.9767 C   0  0  0  0  0  0  0  0  0  0  0  0
   54.1032  -13.5300    5.1137 N   0  0  0  0  0  0  0  0  0  0  0  0
  1  2  1  0  0  0  0
  1  6  1  0  0  0  0
  2  3  2  0  0  0  0
  3  4  1  0  0  0  0
  4  5  2  0  0  0  0
  4 10  1  0  0  0  0
  5  6  1  0  0  0  0
  5  8  1  0  0  0  0
  6  7  2  0  0  0  0
  8  9  1  0  0  0  0
  9 10  2  0  0  0  0
M  END
>  <CHROM.1>
53.89951244,-13.99763502,7.22989371,2.32489162,-1.36174257,2.24121684

>  <Name>
ligand

>  <RI>
0

>  <Rbt.Current_Directory>
/home/itssahil/PROJECTS/Mol_Feturizer/New_Systems/rnas/2EEV

>  <Rbt.Executable>
rbdock ($Id: //depot/dev/client3/rdock/2013.1/src/exe/rbdock.cxx#4 $)

>  <Rbt.Library>
libRbt.so (2013.1, Build901 2013/11/27)

>  <Rbt.Parameter_File>
/export/apps/rDock/src/rDock_2013.1_src/data/scripts/dock_solv.prm

>  <Rbt.Receptor>
prm/pocket_docking_7.prm

>  <SCORE>
-19.3007

>  <SCORE.INTER>
-19.3007

>  <SCORE.INTER.CONST>
1

>  <SCORE.INTER.POLAR>
0

>  <SCORE.INTER.ROT>
0

>  <SCORE.INTER.SOLV>
4.71264

>  <SCORE.INTER.VDW>
-18.038

>  <SCORE.INTER.norm>
-1.93007

>  <SCORE.INTRA>
0

>  <SCORE.INTRA.DIHEDRAL>
0

>  <SCORE.INTRA.DIHEDRAL.0>
0

>  <SCORE.INTRA.POLAR>
0

>  <SCORE.INTRA.POLAR.0>
0

>  <SCORE.INTRA.REPUL>
0

>  <SCORE.INTRA.REPUL.0>
0

>  <SCORE.INTRA.SOLV>
0

>  <SCORE.INTRA.SOLV.lig_0>
-4.25352

>  <SCORE.INTRA.VDW>
0

>  <SCORE.INTRA.VDW.0>
0

>  <SCORE.INTRA.norm>
0

>  <SCORE.RESTR>
0

>  <SCORE.RESTR.CAVITY>
0

>  <SCORE.RESTR.norm>
0

>  <SCORE.SYSTEM>
0

>  <SCORE.SYSTEM.CONST>
0

>  <SCORE.SYSTEM.DIHEDRAL>
0

>  <SCORE.SYSTEM.SOLV>
0

>  <SCORE.SYSTEM.norm>
0

>  <SCORE.heavy>
10

>  <SCORE.norm>
-1.93007

>  <RMSD>
2.410

$$$$
ligand
 OpenBabel11021811423D
libRbt.so/2013.1/901 2013/11/27
 10 11  0  0  0  0  0  0  0  0999 V2000
   53.5281  -13.3825    9.0517 N   0  0  0  0  0  0  0  0  0  0  0  0
   53.4167  -12.2006    8.3764 C   0  0  0  0  0  0  0  0  0  0  0  0
   53.5971  -12.1233    7.0321 N   0  0  0  0  0  0  0  0  0  0  0  0
   53.8837  -13.3295    6.4626 C   0  0  0  0  0  0  0  0  0  0  0  0
   54.0042  -14.5446    7.0950 C   0  0  0  0  0  0  0  0  0  0  0  0
   53.8272  -14.6310    8.4788 C   0  0  0  0  0  0  0  0  0  0  0  0
   53.8961  -15.5997    9.2061 O   0  0  0  0  0  0  0  0  0  0  0  0
   54.2974  -15.4976    6.1573 N   0  0  0  0  0  0  0  0  0  0  0  0
   54.3542  -14.8776    4.9832 C   0  0  0  0  0  0  0  0  0  0  0  0
   54.1055  -13.5249    5.1222 N   0  0  0  0  0  0  0  0  0  0  0  0
  1  2  1  0  0  0  0
  1  6  1  0  0  0  0
  2  3  2  0  0  0  0
  3  4  1  0  0  0  0
  4  5  2  0  0  0  0
  4 10  1  0  0  0  0
  5  6  1  0  0  0  0
  5  8  1  0  0  0  0
  6  7  2  0  0  0  0
  8  9  1  0  0  0  0
  9 10  2  0  0  0  0
M  END
>  <CHROM.1>
53.89062255,-13.99982487,7.23572222,2.32975293,-1.35214646,2.24872222

>  <Name>
ligand

>  <RI>
0

>  <Rbt.Current_Directory>
/home/itssahil/PROJECTS/Mol_Feturizer/New_Systems/rnas/2EEV

>  <Rbt.Executable>
rbdock ($Id: //depot/dev/client3/rdock/2013.1/src/exe/rbdock.cxx#4 $)

>  <Rbt.Library>
libRbt.so (2013.1, Build901 2013/11/27)

>  <Rbt.Parameter_File>
/export/apps/rDock/src/rDock_2013.1_src/data/scripts/dock_solv.prm

>  <Rbt.Receptor>
prm/pocket_docking_7.prm

>  <SCORE>
-19.2838

>  <SCORE.INTER>
-19.2838

>  <SCORE.INTER.CONST>
1

>  <SCORE.INTER.POLAR>
0

>  <SCORE.INTER.ROT>
0

>  <SCORE.INTER.SOLV>
4.72068

>  <SCORE.INTER.VDW>
-18.0294

>  <SCORE.INTER.norm>
-1.92838

>  <SCORE.INTRA>
0

>  <SCORE.INTRA.DIHEDRAL>
0

>  <SCORE.INTRA.DIHEDRAL.0>
0

>  <SCORE.INTRA.POLAR>
0

>  <SCORE.INTRA.POLAR.0>
0

>  <SCORE.INTRA.REPUL>
0

>  <SCORE.INTRA.REPUL.0>
0

>  <SCORE.INTRA.SOLV>
0

>  <SCORE.INTRA.SOLV.lig_0>
-4.25352

>  <SCORE.INTRA.VDW>
0

>  <SCORE.INTRA.VDW.0>
0

>  <SCORE.INTRA.norm>
0

>  <SCORE.RESTR>
0

>  <SCORE.RESTR.CAVITY>
0

>  <SCORE.RESTR.norm>
0

>  <SCORE.SYSTEM>
0

>  <SCORE.SYSTEM.CONST>
0

>  <SCORE.SYSTEM.DIHEDRAL>
0

>  <SCORE.SYSTEM.SOLV>
0

>  <SCORE.SYSTEM.norm>
0

>  <SCORE.heavy>
10

>  <SCORE.norm>
-1.92838

>  <RMSD>
2.410

$$$$
ligand
 OpenBabel11021811423D
libRbt.so/2013.1/901 2013/11/27
 10 11  0  0  0  0  0  0  0  0999 V2000
   53.5376  -13.3784    9.0526 N   0  0  0  0  0  0  0  0  0  0  0  0
   53.4207  -12.1972    8.3769 C   0  0  0  0  0  0  0  0  0  0  0  0
   53.5956  -12.1204    7.0319 N   0  0  0  0  0  0  0  0  0  0  0  0
   53.8827  -13.3263    6.4621 C   0  0  0  0  0  0  0  0  0  0  0  0
   54.0086  -14.5407    7.0948 C   0  0  0  0  0  0  0  0  0  0  0  0
   53.8372  -14.6266    8.4794 C   0  0  0  0  0  0  0  0  0  0  0  0
   53.9113  -15.5946    9.2070 O   0  0  0  0  0  0  0  0  0  0  0  0
   54.3003  -15.4937    6.1566 N   0  0  0  0  0  0  0  0  0  0  0  0
   54.3510  -14.8744    4.9819 C   0  0  0  0  0  0  0  0  0  0  0  0
   54.0997  -13.5222    5.1209 N   0  0  0  0  0  0  0  0  0  0  0  0
  1  2  1  0  0  0  0
  1  6  1  0  0  0  0
  2  3  2  0  0  0  0
  3  4  1  0  0  0  0
  4  5  2  0  0  0  0
  4 10  1  0  0  0  0
  5  6  1  0  0  0  0
  5  8  1  0  0  0  0
  6  7  2  0  0  0  0
  8  9  1  0  0  0  0
  9 10  2  0  0  0  0
M  END
>  <CHROM.1>
53.89429599,-13.99611651,7.23561399,2.30873272,-1.35277511,2.22750063

>  <Name>
ligand

>  <RI>
0

>  <Rbt.Current_Directory>
/home/itssahil/PROJECTS/Mol_Feturizer/New_Systems/rnas/2EEV

>  <Rbt.Executable>
rbdock ($Id: //depot/dev/client3/rdock/2013.1/src/exe/rbdock.cxx#4 $)

>  <Rbt.Library>
libRbt.so (2013.1, Build901 2013/11/27)

>  <Rbt.Parameter_File>
/export/apps/rDock/src/rDock_2013.1_src/data/scripts/dock_solv.prm

>  <Rbt.Receptor>
prm/pocket_docking_7.prm

>  <SCORE>
-19.307

>  <SCORE.INTER>
-19.307

>  <SCORE.INTER.CONST>
1

>  <SCORE.INTER.POLAR>
0

>  <SCORE.INTER.ROT>
0

>  <SCORE.INTER.SOLV>
4.7063

>  <SCORE.INTER.VDW>
-18.0401

>  <SCORE.INTER.norm>
-1.9307

>  <SCORE.INTRA>
0

>  <SCORE.INTRA.DIHEDRAL>
0

>  <SCORE.INTRA.DIHEDRAL.0>
0

>  <SCORE.INTRA.POLAR>
0

>  <SCORE.INTRA.POLAR.0>
0

>  <SCORE.INTRA.REPUL>
0

>  <SCORE.INTRA.REPUL.0>
0

>  <SCORE.INTRA.SOLV>
0

>  <SCORE.INTRA.SOLV.lig_0>
-4.25352

>  <SCORE.INTRA.VDW>
0

>  <SCORE.INTRA.VDW.0>
0

>  <SCORE.INTRA.norm>
0

>  <SCORE.RESTR>
0

>  <SCORE.RESTR.CAVITY>
0

>  <SCORE.RESTR.norm>
0

>  <SCORE.SYSTEM>
0

>  <SCORE.SYSTEM.CONST>
0

>  <SCORE.SYSTEM.DIHEDRAL>
0

>  <SCORE.SYSTEM.SOLV>
0

>  <SCORE.SYSTEM.norm>
0

>  <SCORE.heavy>
10

>  <SCORE.norm>
-1.9307

>  <RMSD>
2.410

$$$$
ligand
 OpenBabel11021811423D
libRbt.so/2013.1/901 2013/11/27
 10 11  0  0  0  0  0  0  0  0999 V2000
   53.5344  -13.3801    9.0553 N   0  0  0  0  0  0  0  0  0  0  0  0
   53.4170  -12.1988    8.3801 C   0  0  0  0  0  0  0  0  0  0  0  0
   53.5911  -12.1215    7.0350 N   0  0  0  0  0  0  0  0  0  0  0  0
   53.8780  -13.3272    6.4647 C   0  0  0  0  0  0  0  0  0  0  0  0
   54.0044  -14.5417    7.0970 C   0  0  0  0  0  0  0  0  0  0  0  0
   53.8339  -14.6281    8.4816 C   0  0  0  0  0  0  0  0  0  0  0  0
   53.9085  -15.5963    9.2089 O   0  0  0  0  0  0  0  0  0  0  0  0
   54.2958  -15.4944    6.1583 N   0  0  0  0  0  0  0  0  0  0  0  0
   54.3456  -14.8748    4.9837 C   0  0  0  0  0  0  0  0  0  0  0  0
   54.0942  -13.5227    5.1233 N   0  0  0  0  0  0  0  0  0  0  0  0
  1  2  1  0  0  0  0
  1  6  1  0  0  0  0
  2  3  2  0  0  0  0
  3  4  1  0  0  0  0
  4  5  2  0  0  0  0
  4 10  1  0  0  0  0
  5  6  1  0  0  0  0
  5  8  1  0  0  0  0
  6  7  2  0  0  0  0
  8  9  1  0  0  0  0
  9 10  2  0  0  0  0
M  END
>  <CHROM.1>
53.89015678,-13.99723993,7.23799984,2.30617113,-1.35301959,2.22529040

>  <Name>
ligand

>  <RI>
0

>  <Rbt.Current_Directory>
/home/itssahil/PROJECTS/Mol_Feturizer/New_Systems/rnas/2EEV

>  <Rbt.Executable>
rbdock ($Id: //depot/dev/client3/rdock/2013.1/src/exe/rbdock.cxx#4 $)

>  <Rbt.Library>
libRbt.so (2013.1, Build901 2013/11/27)

>  <Rbt.Parameter_File>
/export/apps/rDock/src/rDock_2013.1_src/data/scripts/dock_solv.prm

>  <Rbt.Receptor>
prm/pocket_docking_8.prm

>  <SCORE>
-19.3076

>  <SCORE.INTER>
-19.3076

>  <SCORE.INTER.CONST>
1

>  <SCORE.INTER.POLAR>
0

>  <SCORE.INTER.ROT>
0

>  <SCORE.INTER.SOLV>
4.71189

>  <SCORE.INTER.VDW>
-18.0424

>  <SCORE.INTER.norm>
-1.93076

>  <SCORE.INTRA>
0

>  <SCORE.INTRA.DIHEDRAL>
0

>  <SCORE.INTRA.DIHEDRAL.0>
0

>  <SCORE.INTRA.POLAR>
0

>  <SCORE.INTRA.POLAR.0>
0

>  <SCORE.INTRA.REPUL>
0

>  <SCORE.INTRA.REPUL.0>
0

>  <SCORE.INTRA.SOLV>
0

>  <SCORE.INTRA.SOLV.lig_0>
-4.25352

>  <SCORE.INTRA.VDW>
0

>  <SCORE.INTRA.VDW.0>
0

>  <SCORE.INTRA.norm>
0

>  <SCORE.RESTR>
0

>  <SCORE.RESTR.CAVITY>
0

>  <SCORE.RESTR.norm>
0

>  <SCORE.SYSTEM>
0

>  <SCORE.SYSTEM.CONST>
0

>  <SCORE.SYSTEM.DIHEDRAL>
0

>  <SCORE.SYSTEM.SOLV>
0

>  <SCORE.SYSTEM.norm>
0

>  <SCORE.heavy>
10

>  <SCORE.norm>
-1.93076

>  <RMSD>
2.410

$$$$
ligand
 OpenBabel11021811423D
libRbt.so/2013.1/901 2013/11/27
 10 11  0  0  0  0  0  0  0  0999 V2000
   53.5345  -13.3766    9.0485 N   0  0  0  0  0  0  0  0  0  0  0  0
   53.4189  -12.1970    8.3699 C   0  0  0  0  0  0  0  0  0  0  0  0
   53.5950  -12.1236    7.0248 N   0  0  0  0  0  0  0  0  0  0  0  0
   53.8817  -13.3310    6.4582 C   0  0  0  0  0  0  0  0  0  0  0  0
   54.0063  -14.5439    7.0939 C   0  0  0  0  0  0  0  0  0  0  0  0
   53.8338  -14.6264    8.4786 C   0  0  0  0  0  0  0  0  0  0  0  0
   53.9066  -15.5927    9.2086 O   0  0  0  0  0  0  0  0  0  0  0  0
   54.2982  -15.4994    6.1583 N   0  0  0  0  0  0  0  0  0  0  0  0
   54.3502  -14.8830    4.9821 C   0  0  0  0  0  0  0  0  0  0  0  0
   54.0997  -13.5303    5.1177 N   0  0  0  0  0  0  0  0  0  0  0  0
  1  2  1  0  0  0  0
  1  6  1  0  0  0  0
  2  3  2  0  0  0  0
  3  4  1  0  0  0  0
  4  5  2  0  0  0  0
  4 10  1  0  0  0  0
  5  6  1  0  0  0  0
  5  8  1  0  0  0  0
  6  7  2  0  0  0  0
  8  9  1  0  0  0  0
  9 10  2  0  0  0  0
M  END
>  <CHROM.1>
53.89226463,-13.99894738,7.23333073,2.31354939,-1.35280319,2.22978559

>  <Name>
ligand

>  <RI>
0

>  <Rbt.Current_Directory>
/home/itssahil/PROJECTS/Mol_Feturizer/New_Systems/rnas/2EEV

>  <Rbt.Executable>
rbdock ($Id: //depot/dev/client3/rdock/2013.1/src/exe/rbdock.cxx#4 $)

>  <Rbt.Library>
libRbt.so (2013.1, Build901 2013/11/27)

>  <Rbt.Parameter_File>
/export/apps/rDock/src/rDock_2013.1_src/data/scripts/dock_solv.prm

>  <Rbt.Receptor>
prm/pocket_docking_8.prm

>  <SCORE>
-19.3046

>  <SCORE.INTER>
-19.3046

>  <SCORE.INTER.CONST>
1

>  <SCORE.INTER.POLAR>
0

>  <SCORE.INTER.ROT>
0

>  <SCORE.INTER.SOLV>
4.70888

>  <SCORE.INTER.VDW>
-18.0394

>  <SCORE.INTER.norm>
-1.93046

>  <SCORE.INTRA>
0

>  <SCORE.INTRA.DIHEDRAL>
0

>  <SCORE.INTRA.DIHEDRAL.0>
0

>  <SCORE.INTRA.POLAR>
0

>  <SCORE.INTRA.POLAR.0>
0

>  <SCORE.INTRA.REPUL>
0

>  <SCORE.INTRA.REPUL.0>
0

>  <SCORE.INTRA.SOLV>
0

>  <SCORE.INTRA.SOLV.lig_0>
-4.25352

>  <SCORE.INTRA.VDW>
0

>  <SCORE.INTRA.VDW.0>
0

>  <SCORE.INTRA.norm>
0

>  <SCORE.RESTR>
0

>  <SCORE.RESTR.CAVITY>
0

>  <SCORE.RESTR.norm>
0

>  <SCORE.SYSTEM>
0

>  <SCORE.SYSTEM.CONST>
0

>  <SCORE.SYSTEM.DIHEDRAL>
0

>  <SCORE.SYSTEM.SOLV>
0

>  <SCORE.SYSTEM.norm>
0

>  <SCORE.heavy>
10

>  <SCORE.norm>
-1.93046

>  <RMSD>
2.410

$$$$
ligand
 OpenBabel11021811423D
libRbt.so/2013.1/901 2013/11/27
 10 11  0  0  0  0  0  0  0  0999 V2000
   53.5343  -13.3815    9.0569 N   0  0  0  0  0  0  0  0  0  0  0  0
   53.4237  -12.1987    8.3830 C   0  0  0  0  0  0  0  0  0  0  0  0
   53.6002  -12.1207    7.0382 N   0  0  0  0  0  0  0  0  0  0  0  0
   53.8819  -13.3271    6.4668 C   0  0  0  0  0  0  0  0  0  0  0  0
   54.0013  -14.5430    7.0977 C   0  0  0  0  0  0  0  0  0  0  0  0
   53.8284  -14.6302    8.4820 C   0  0  0  0  0  0  0  0  0  0  0  0
   53.8971  -15.5997    9.2082 O   0  0  0  0  0  0  0  0  0  0  0  0
   54.2892  -15.4959    6.1583 N   0  0  0  0  0  0  0  0  0  0  0  0
   54.3439  -14.8751    4.9846 C   0  0  0  0  0  0  0  0  0  0  0  0
   54.0991  -13.5219    5.1255 N   0  0  0  0  0  0  0  0  0  0  0  0
  1  2  1  0  0  0  0
  1  6  1  0  0  0  0
  2  3  2  0  0  0  0
  3  4  1  0  0  0  0
  4  5  2  0  0  0  0
  4 10  1  0  0  0  0
  5  6  1  0  0  0  0
  5  8  1  0  0  0  0
  6  7  2  0  0  0  0
  8  9  1  0  0  0  0
  9 10  2  0  0  0  0
M  END
>  <CHROM.1>
53.88958800,-13.99809264,7.23929623,2.32583350,-1.35607334,2.24577236

>  <Name>
ligand

>  <RI>
0

>  <Rbt.Current_Directory>
/home/itssahil/PROJECTS/Mol_Feturizer/New_Systems/rnas/2EEV

>  <Rbt.Executable>
rbdock ($Id: //depot/dev/client3/rdock/2013.1/src/exe/rbdock.cxx#4 $)

>  <Rbt.Library>
libRbt.so (2013.1, Build901 2013/11/27)

>  <Rbt.Parameter_File>
/export/apps/rDock/src/rDock_2013.1_src/data/scripts/dock_solv.prm

>  <Rbt.Receptor>
prm/pocket_docking_8.prm

>  <SCORE>
-19.2842

>  <SCORE.INTER>
-19.2842

>  <SCORE.INTER.CONST>
1

>  <SCORE.INTER.POLAR>
0

>  <SCORE.INTER.ROT>
0

>  <SCORE.INTER.SOLV>
4.72458

>  <SCORE.INTER.VDW>
-18.031

>  <SCORE.INTER.norm>
-1.92842

>  <SCORE.INTRA>
0

>  <SCORE.INTRA.DIHEDRAL>
0

>  <SCORE.INTRA.DIHEDRAL.0>
0

>  <SCORE.INTRA.POLAR>
0

>  <SCORE.INTRA.POLAR.0>
0

>  <SCORE.INTRA.REPUL>
0

>  <SCORE.INTRA.REPUL.0>
0

>  <SCORE.INTRA.SOLV>
0

>  <SCORE.INTRA.SOLV.lig_0>
-4.25352

>  <SCORE.INTRA.VDW>
0

>  <SCORE.INTRA.VDW.0>
0

>  <SCORE.INTRA.norm>
0

>  <SCORE.RESTR>
0

>  <SCORE.RESTR.CAVITY>
0

>  <SCORE.RESTR.norm>
0

>  <SCORE.SYSTEM>
0

>  <SCORE.SYSTEM.CONST>
0

>  <SCORE.SYSTEM.DIHEDRAL>
0

>  <SCORE.SYSTEM.SOLV>
0

>  <SCORE.SYSTEM.norm>
0

>  <SCORE.heavy>
10

>  <SCORE.norm>
-1.92842

>  <RMSD>
2.410

$$$$
ligand
 OpenBabel11021811423D
libRbt.so/2013.1/901 2013/11/27
 10 11  0  0  0  0  0  0  0  0999 V2000
   53.5311  -13.3810    9.0551 N   0  0  0  0  0  0  0  0  0  0  0  0
   53.4101  -12.2005    8.3790 C   0  0  0  0  0  0  0  0  0  0  0  0
   53.5835  -12.1238    7.0338 N   0  0  0  0  0  0  0  0  0  0  0  0
   53.8735  -13.3291    6.4642 C   0  0  0  0  0  0  0  0  0  0  0  0
   54.0035  -14.5428    7.0973 C   0  0  0  0  0  0  0  0  0  0  0  0
   53.8338  -14.6286    8.4821 C   0  0  0  0  0  0  0  0  0  0  0  0
   53.9113  -15.5961    9.2101 O   0  0  0  0  0  0  0  0  0  0  0  0
   54.2970  -15.4953    6.1592 N   0  0  0  0  0  0  0  0  0  0  0  0
   54.3447  -14.8764    4.9842 C   0  0  0  0  0  0  0  0  0  0  0  0
   54.0897  -13.5249    5.1229 N   0  0  0  0  0  0  0  0  0  0  0  0
  1  2  1  0  0  0  0
  1  6  1  0  0  0  0
  2  3  2  0  0  0  0
  3  4  1  0  0  0  0
  4  5  2  0  0  0  0
  4 10  1  0  0  0  0
  5  6  1  0  0  0  0
  5  8  1  0  0  0  0
  6  7  2  0  0  0  0
  8  9  1  0  0  0  0
  9 10  2  0  0  0  0
M  END
>  <CHROM.1>
53.88777844,-13.99849150,7.23800558,2.29705593,-1.35109601,2.21567059

>  <Name>
ligand

>  <RI>
0

>  <Rbt.Current_Directory>
/home/itssahil/PROJECTS/Mol_Feturizer/New_Systems/rnas/2EEV

>  <Rbt.Executable>
rbdock ($Id: //depot/dev/client3/rdock/2013.1/src/exe/rbdock.cxx#4 $)

>  <Rbt.Library>
libRbt.so (2013.1, Build901 2013/11/27)

>  <Rbt.Parameter_File>
/export/apps/rDock/src/rDock_2013.1_src/data/scripts/dock_solv.prm

>  <Rbt.Receptor>
prm/pocket_docking_8.prm

>  <SCORE>
-19.3047

>  <SCORE.INTER>
-19.3047

>  <SCORE.INTER.CONST>
1

>  <SCORE.INTER.POLAR>
0

>  <SCORE.INTER.ROT>
0

>  <SCORE.INTER.SOLV>
4.7095

>  <SCORE.INTER.VDW>
-18.0397

>  <SCORE.INTER.norm>
-1.93047

>  <SCORE.INTRA>
0

>  <SCORE.INTRA.DIHEDRAL>
0

>  <SCORE.INTRA.DIHEDRAL.0>
0

>  <SCORE.INTRA.POLAR>
0

>  <SCORE.INTRA.POLAR.0>
0

>  <SCORE.INTRA.REPUL>
0

>  <SCORE.INTRA.REPUL.0>
0

>  <SCORE.INTRA.SOLV>
0

>  <SCORE.INTRA.SOLV.lig_0>
-4.25352

>  <SCORE.INTRA.VDW>
0

>  <SCORE.INTRA.VDW.0>
0

>  <SCORE.INTRA.norm>
0

>  <SCORE.RESTR>
0

>  <SCORE.RESTR.CAVITY>
0

>  <SCORE.RESTR.norm>
0

>  <SCORE.SYSTEM>
0

>  <SCORE.SYSTEM.CONST>
0

>  <SCORE.SYSTEM.DIHEDRAL>
0

>  <SCORE.SYSTEM.SOLV>
0

>  <SCORE.SYSTEM.norm>
0

>  <SCORE.heavy>
10

>  <SCORE.norm>
-1.93047

>  <RMSD>
2.410

$$$$
ligand
 OpenBabel11021811423D
libRbt.so/2013.1/901 2013/11/27
 10 11  0  0  0  0  0  0  0  0999 V2000
   53.5388  -13.3832    9.0512 N   0  0  0  0  0  0  0  0  0  0  0  0
   53.4173  -12.2018    8.3768 C   0  0  0  0  0  0  0  0  0  0  0  0
   53.5902  -12.1232    7.0316 N   0  0  0  0  0  0  0  0  0  0  0  0
   53.8804  -13.3276    6.4603 C   0  0  0  0  0  0  0  0  0  0  0  0
   54.0110  -14.5421    7.0917 C   0  0  0  0  0  0  0  0  0  0  0  0
   53.8417  -14.6299    8.4764 C   0  0  0  0  0  0  0  0  0  0  0  0
   53.9198  -15.5984    9.2030 O   0  0  0  0  0  0  0  0  0  0  0  0
   54.3045  -15.4933    6.1522 N   0  0  0  0  0  0  0  0  0  0  0  0
   54.3517  -14.8727    4.9780 C   0  0  0  0  0  0  0  0  0  0  0  0
   54.0963  -13.5215    5.1187 N   0  0  0  0  0  0  0  0  0  0  0  0
  1  2  1  0  0  0  0
  1  6  1  0  0  0  0
  2  3  2  0  0  0  0
  3  4  1  0  0  0  0
  4  5  2  0  0  0  0
  4 10  1  0  0  0  0
  5  6  1  0  0  0  0
  5  8  1  0  0  0  0
  6  7  2  0  0  0  0
  8  9  1  0  0  0  0
  9 10  2  0  0  0  0
M  END
>  <CHROM.1>
53.89515285,-13.99807536,7.23315380,2.29515560,-1.35102003,2.21522133

>  <Name>
ligand

>  <RI>
0

>  <Rbt.Current_Directory>
/home/itssahil/PROJECTS/Mol_Feturizer/New_Systems/rnas/2EEV

>  <Rbt.Executable>
rbdock ($Id: //depot/dev/client3/rdock/2013.1/src/exe/rbdock.cxx#4 $)

>  <Rbt.Library>
libRbt.so (2013.1, Build901 2013/11/27)

>  <Rbt.Parameter_File>
/export/apps/rDock/src/rDock_2013.1_src/data/scripts/dock_solv.prm

>  <Rbt.Receptor>
prm/blind_docking_100.prm

>  <SCORE>
-19.3049

>  <SCORE.INTER>
-19.3049

>  <SCORE.INTER.CONST>
1

>  <SCORE.INTER.POLAR>
0

>  <SCORE.INTER.ROT>
0

>  <SCORE.INTER.SOLV>
4.70106

>  <SCORE.INTER.VDW>
-18.037

>  <SCORE.INTER.norm>
-1.93049

>  <SCORE.INTRA>
0

>  <SCORE.INTRA.DIHEDRAL>
0

>  <SCORE.INTRA.DIHEDRAL.0>
0

>  <SCORE.INTRA.POLAR>
0

>  <SCORE.INTRA.POLAR.0>
0

>  <SCORE.INTRA.REPUL>
0

>  <SCORE.INTRA.REPUL.0>
0

>  <SCORE.INTRA.SOLV>
0

>  <SCORE.INTRA.SOLV.lig_0>
-4.25352

>  <SCORE.INTRA.VDW>
0

>  <SCORE.INTRA.VDW.0>
0

>  <SCORE.INTRA.norm>
0

>  <SCORE.RESTR>
0

>  <SCORE.RESTR.CAVITY>
0

>  <SCORE.RESTR.norm>
0

>  <SCORE.SYSTEM>
0

>  <SCORE.SYSTEM.CONST>
0

>  <SCORE.SYSTEM.DIHEDRAL>
0

>  <SCORE.SYSTEM.SOLV>
0

>  <SCORE.SYSTEM.norm>
0

>  <SCORE.heavy>
10

>  <SCORE.norm>
-1.93049

>  <RMSD>
2.411

$$$$
ligand
 OpenBabel11021811423D
libRbt.so/2013.1/901 2013/11/27
 10 11  0  0  0  0  0  0  0  0999 V2000
   53.5266  -13.3841    9.0584 N   0  0  0  0  0  0  0  0  0  0  0  0
   53.3964  -12.2056    8.3806 C   0  0  0  0  0  0  0  0  0  0  0  0
   53.5630  -12.1307    7.0344 N   0  0  0  0  0  0  0  0  0  0  0  0
   53.8566  -13.3357    6.4659 C   0  0  0  0  0  0  0  0  0  0  0  0
   53.9958  -14.5474    7.1008 C   0  0  0  0  0  0  0  0  0  0  0  0
   53.8331  -14.6313    8.4866 C   0  0  0  0  0  0  0  0  0  0  0  0
   53.9190  -15.5969    9.2161 O   0  0  0  0  0  0  0  0  0  0  0  0
   54.2898  -15.5003    6.1633 N   0  0  0  0  0  0  0  0  0  0  0  0
   54.3288  -14.8836    4.9868 C   0  0  0  0  0  0  0  0  0  0  0  0
   54.0675  -13.5331    5.1240 N   0  0  0  0  0  0  0  0  0  0  0  0
  1  2  1  0  0  0  0
  1  6  1  0  0  0  0
  2  3  2  0  0  0  0
  3  4  1  0  0  0  0
  4  5  2  0  0  0  0
  4 10  1  0  0  0  0
  5  6  1  0  0  0  0
  5  8  1  0  0  0  0
  6  7  2  0  0  0  0
  8  9  1  0  0  0  0
  9 10  2  0  0  0  0
M  END
>  <CHROM.1>
53.87795759,-14.00344711,7.24097110,2.26574612,-1.34969301,2.18310539

>  <Name>
ligand

>  <RI>
0

>  <Rbt.Current_Directory>
/home/itssahil/PROJECTS/Mol_Feturizer/New_Systems/rnas/2EEV

>  <Rbt.Executable>
rbdock ($Id: //depot/dev/client3/rdock/2013.1/src/exe/rbdock.cxx#4 $)

>  <Rbt.Library>
libRbt.so (2013.1, Build901 2013/11/27)

>  <Rbt.Parameter_File>
/export/apps/rDock/src/rDock_2013.1_src/data/scripts/dock_solv.prm

>  <Rbt.Receptor>
prm/blind_docking_60.prm

>  <SCORE>
-19.2882

>  <SCORE.INTER>
-19.2882

>  <SCORE.INTER.CONST>
1

>  <SCORE.INTER.POLAR>
0

>  <SCORE.INTER.ROT>
0

>  <SCORE.INTER.SOLV>
4.70949

>  <SCORE.INTER.VDW>
-18.0287

>  <SCORE.INTER.norm>
-1.92882

>  <SCORE.INTRA>
0

>  <SCORE.INTRA.DIHEDRAL>
0

>  <SCORE.INTRA.DIHEDRAL.0>
0

>  <SCORE.INTRA.POLAR>
0

>  <SCORE.INTRA.POLAR.0>
0

>  <SCORE.INTRA.REPUL>
0

>  <SCORE.INTRA.REPUL.0>
0

>  <SCORE.INTRA.SOLV>
0

>  <SCORE.INTRA.SOLV.lig_0>
-4.25352

>  <SCORE.INTRA.VDW>
0

>  <SCORE.INTRA.VDW.0>
0

>  <SCORE.INTRA.norm>
0

>  <SCORE.RESTR>
0

>  <SCORE.RESTR.CAVITY>
0

>  <SCORE.RESTR.norm>
0

>  <SCORE.SYSTEM>
0

>  <SCORE.SYSTEM.CONST>
0

>  <SCORE.SYSTEM.DIHEDRAL>
0

>  <SCORE.SYSTEM.SOLV>
0

>  <SCORE.SYSTEM.norm>
0

>  <SCORE.heavy>
10

>  <SCORE.norm>
-1.92882

>  <RMSD>
2.411

$$$$
ligand
 OpenBabel11021811423D
libRbt.so/2013.1/901 2013/11/27
 10 11  0  0  0  0  0  0  0  0999 V2000
   53.5294  -13.3852    9.0564 N   0  0  0  0  0  0  0  0  0  0  0  0
   53.4034  -12.2043    8.3819 C   0  0  0  0  0  0  0  0  0  0  0  0
   53.5752  -12.1253    7.0365 N   0  0  0  0  0  0  0  0  0  0  0  0
   53.8689  -13.3289    6.4652 C   0  0  0  0  0  0  0  0  0  0  0  0
   54.0040  -14.5429    7.0967 C   0  0  0  0  0  0  0  0  0  0  0  0
   53.8360  -14.6310    8.4816 C   0  0  0  0  0  0  0  0  0  0  0  0
   53.9178  -15.5991    9.2083 O   0  0  0  0  0  0  0  0  0  0  0  0
   54.3000  -15.4932    6.1572 N   0  0  0  0  0  0  0  0  0  0  0  0
   54.3442  -14.8727    4.9828 C   0  0  0  0  0  0  0  0  0  0  0  0
   54.0845  -13.5223    5.1235 N   0  0  0  0  0  0  0  0  0  0  0  0
  1  2  1  0  0  0  0
  1  6  1  0  0  0  0
  2  3  2  0  0  0  0
  3  4  1  0  0  0  0
  4  5  2  0  0  0  0
  4 10  1  0  0  0  0
  5  6  1  0  0  0  0
  5  8  1  0  0  0  0
  6  7  2  0  0  0  0
  8  9  1  0  0  0  0
  9 10  2  0  0  0  0
M  END
>  <CHROM.1>
53.88642518,-13.99917444,7.23819356,2.28348279,-1.34879750,2.20364553

>  <Name>
ligand

>  <RI>
0

>  <Rbt.Current_Directory>
/home/itssahil/PROJECTS/Mol_Feturizer/New_Systems/rnas/2EEV

>  <Rbt.Executable>
rbdock ($Id: //depot/dev/client3/rdock/2013.1/src/exe/rbdock.cxx#4 $)

>  <Rbt.Library>
libRbt.so (2013.1, Build901 2013/11/27)

>  <Rbt.Parameter_File>
/export/apps/rDock/src/rDock_2013.1_src/data/scripts/dock_solv.prm

>  <Rbt.Receptor>
prm/blind_docking_60.prm

>  <SCORE>
-19.3016

>  <SCORE.INTER>
-19.3016

>  <SCORE.INTER.CONST>
1

>  <SCORE.INTER.POLAR>
0

>  <SCORE.INTER.ROT>
0

>  <SCORE.INTER.SOLV>
4.7058

>  <SCORE.INTER.VDW>
-18.0364

>  <SCORE.INTER.norm>
-1.93016

>  <SCORE.INTRA>
0

>  <SCORE.INTRA.DIHEDRAL>
0

>  <SCORE.INTRA.DIHEDRAL.0>
0

>  <SCORE.INTRA.POLAR>
0

>  <SCORE.INTRA.POLAR.0>
0

>  <SCORE.INTRA.REPUL>
0

>  <SCORE.INTRA.REPUL.0>
0

>  <SCORE.INTRA.SOLV>
0

>  <SCORE.INTRA.SOLV.lig_0>
-4.25352

>  <SCORE.INTRA.VDW>
0

>  <SCORE.INTRA.VDW.0>
0

>  <SCORE.INTRA.norm>
0

>  <SCORE.RESTR>
0

>  <SCORE.RESTR.CAVITY>
0

>  <SCORE.RESTR.norm>
0

>  <SCORE.SYSTEM>
0

>  <SCORE.SYSTEM.CONST>
0

>  <SCORE.SYSTEM.DIHEDRAL>
0

>  <SCORE.SYSTEM.SOLV>
0

>  <SCORE.SYSTEM.norm>
0

>  <SCORE.heavy>
10

>  <SCORE.norm>
-1.93016

>  <RMSD>
2.411

$$$$
ligand
 OpenBabel11021811423D
libRbt.so/2013.1/901 2013/11/27
 10 11  0  0  0  0  0  0  0  0999 V2000
   53.5391  -13.3813    9.0540 N   0  0  0  0  0  0  0  0  0  0  0  0
   53.4195  -12.2003    8.3787 C   0  0  0  0  0  0  0  0  0  0  0  0
   53.5908  -12.1234    7.0331 N   0  0  0  0  0  0  0  0  0  0  0  0
   53.8774  -13.3290    6.4626 C   0  0  0  0  0  0  0  0  0  0  0  0
   54.0060  -14.5433    7.0950 C   0  0  0  0  0  0  0  0  0  0  0  0
   53.8383  -14.6293    8.4801 C   0  0  0  0  0  0  0  0  0  0  0  0
   53.9151  -15.5972    9.2075 O   0  0  0  0  0  0  0  0  0  0  0  0
   54.2960  -15.4960    6.1561 N   0  0  0  0  0  0  0  0  0  0  0  0
   54.3431  -14.8768    4.9812 C   0  0  0  0  0  0  0  0  0  0  0  0
   54.0910  -13.5248    5.1209 N   0  0  0  0  0  0  0  0  0  0  0  0
  1  2  1  0  0  0  0
  1  6  1  0  0  0  0
  2  3  2  0  0  0  0
  3  4  1  0  0  0  0
  4  5  2  0  0  0  0
  4 10  1  0  0  0  0
  5  6  1  0  0  0  0
  5  8  1  0  0  0  0
  6  7  2  0  0  0  0
  8  9  1  0  0  0  0
  9 10  2  0  0  0  0
M  END
>  <CHROM.1>
53.89158774,-13.99880428,7.23613345,2.29667120,-1.35369405,2.21570817

>  <Name>
ligand

>  <RI>
0

>  <Rbt.Current_Directory>
/home/itssahil/PROJECTS/Mol_Feturizer/New_Systems/rnas/2EEV

>  <Rbt.Executable>
rbdock ($Id: //depot/dev/client3/rdock/2013.1/src/exe/rbdock.cxx#4 $)

>  <Rbt.Library>
libRbt.so (2013.1, Build901 2013/11/27)

>  <Rbt.Parameter_File>
/export/apps/rDock/src/rDock_2013.1_src/data/scripts/dock_solv.prm

>  <Rbt.Receptor>
prm/blind_docking_60.prm

>  <SCORE>
-19.3054

>  <SCORE.INTER>
-19.3054

>  <SCORE.INTER.CONST>
1

>  <SCORE.INTER.POLAR>
0

>  <SCORE.INTER.ROT>
0

>  <SCORE.INTER.SOLV>
4.7079

>  <SCORE.INTER.VDW>
-18.0396

>  <SCORE.INTER.norm>
-1.93054

>  <SCORE.INTRA>
0

>  <SCORE.INTRA.DIHEDRAL>
0

>  <SCORE.INTRA.DIHEDRAL.0>
0

>  <SCORE.INTRA.POLAR>
0

>  <SCORE.INTRA.POLAR.0>
0

>  <SCORE.INTRA.REPUL>
0

>  <SCORE.INTRA.REPUL.0>
0

>  <SCORE.INTRA.SOLV>
0

>  <SCORE.INTRA.SOLV.lig_0>
-4.25352

>  <SCORE.INTRA.VDW>
0

>  <SCORE.INTRA.VDW.0>
0

>  <SCORE.INTRA.norm>
0

>  <SCORE.RESTR>
0

>  <SCORE.RESTR.CAVITY>
0

>  <SCORE.RESTR.norm>
0

>  <SCORE.SYSTEM>
0

>  <SCORE.SYSTEM.CONST>
0

>  <SCORE.SYSTEM.DIHEDRAL>
0

>  <SCORE.SYSTEM.SOLV>
0

>  <SCORE.SYSTEM.norm>
0

>  <SCORE.heavy>
10

>  <SCORE.norm>
-1.93054

>  <RMSD>
2.411

$$$$
ligand
 OpenBabel11021811423D
libRbt.so/2013.1/901 2013/11/27
 10 11  0  0  0  0  0  0  0  0999 V2000
   53.5363  -13.3854    9.0532 N   0  0  0  0  0  0  0  0  0  0  0  0
   53.4064  -12.2065    8.3760 C   0  0  0  0  0  0  0  0  0  0  0  0
   53.5715  -12.1313    7.0296 N   0  0  0  0  0  0  0  0  0  0  0  0
   53.8633  -13.3363    6.4603 C   0  0  0  0  0  0  0  0  0  0  0  0
   54.0023  -14.5484    7.0946 C   0  0  0  0  0  0  0  0  0  0  0  0
   53.8411  -14.6326    8.4805 C   0  0  0  0  0  0  0  0  0  0  0  0
   53.9270  -15.5986    9.2096 O   0  0  0  0  0  0  0  0  0  0  0  0
   54.2944  -15.5012    6.1564 N   0  0  0  0  0  0  0  0  0  0  0  0
   54.3325  -14.8841    4.9800 C   0  0  0  0  0  0  0  0  0  0  0  0
   54.0725  -13.5334    5.1181 N   0  0  0  0  0  0  0  0  0  0  0  0
  1  2  1  0  0  0  0
  1  6  1  0  0  0  0
  2  3  2  0  0  0  0
  3  4  1  0  0  0  0
  4  5  2  0  0  0  0
  4 10  1  0  0  0  0
  5  6  1  0  0  0  0
  5  8  1  0  0  0  0
  6  7  2  0  0  0  0
  8  9  1  0  0  0  0
  9 10  2  0  0  0  0
M  END
>  <CHROM.1>
53.88504314,-14.00435328,7.23508423,2.26368971,-1.35105657,2.18147039

>  <Name>
ligand

>  <RI>
0

>  <Rbt.Current_Directory>
/home/itssahil/PROJECTS/Mol_Feturizer/New_Systems/rnas/2EEV

>  <Rbt.Executable>
rbdock ($Id: //depot/dev/client3/rdock/2013.1/src/exe/rbdock.cxx#4 $)

>  <Rbt.Library>
libRbt.so (2013.1, Build901 2013/11/27)

>  <Rbt.Parameter_File>
/export/apps/rDock/src/rDock_2013.1_src/data/scripts/dock_solv.prm

>  <Rbt.Receptor>
prm/blind_docking_80.prm

>  <SCORE>
-19.2902

>  <SCORE.INTER>
-19.2902

>  <SCORE.INTER.CONST>
1

>  <SCORE.INTER.POLAR>
0

>  <SCORE.INTER.ROT>
0

>  <SCORE.INTER.SOLV>
4.70204

>  <SCORE.INTER.VDW>
-18.0275

>  <SCORE.INTER.norm>
-1.92902

>  <SCORE.INTRA>
0

>  <SCORE.INTRA.DIHEDRAL>
0

>  <SCORE.INTRA.DIHEDRAL.0>
0

>  <SCORE.INTRA.POLAR>
0

>  <SCORE.INTRA.POLAR.0>
0

>  <SCORE.INTRA.REPUL>
0

>  <SCORE.INTRA.REPUL.0>
0

>  <SCORE.INTRA.SOLV>
0

>  <SCORE.INTRA.SOLV.lig_0>
-4.25352

>  <SCORE.INTRA.VDW>
0

>  <SCORE.INTRA.VDW.0>
0

>  <SCORE.INTRA.norm>
0

>  <SCORE.RESTR>
0

>  <SCORE.RESTR.CAVITY>
0

>  <SCORE.RESTR.norm>
0

>  <SCORE.SYSTEM>
0

>  <SCORE.SYSTEM.CONST>
0

>  <SCORE.SYSTEM.DIHEDRAL>
0

>  <SCORE.SYSTEM.SOLV>
0

>  <SCORE.SYSTEM.norm>
0

>  <SCORE.heavy>
10

>  <SCORE.norm>
-1.92902

>  <RMSD>
2.411

$$$$
ligand
 OpenBabel11021811423D
libRbt.so/2013.1/901 2013/11/27
 10 11  0  0  0  0  0  0  0  0999 V2000
   53.5331  -13.3839    9.0523 N   0  0  0  0  0  0  0  0  0  0  0  0
   53.4044  -12.2044    8.3760 C   0  0  0  0  0  0  0  0  0  0  0  0
   53.5742  -12.1273    7.0303 N   0  0  0  0  0  0  0  0  0  0  0  0
   53.8691  -13.3314    6.4606 C   0  0  0  0  0  0  0  0  0  0  0  0
   54.0070  -14.5441    7.0939 C   0  0  0  0  0  0  0  0  0  0  0  0
   53.8410  -14.6302    8.4791 C   0  0  0  0  0  0  0  0  0  0  0  0
   53.9253  -15.5969    9.2074 O   0  0  0  0  0  0  0  0  0  0  0  0
   54.3033  -15.4955    6.1555 N   0  0  0  0  0  0  0  0  0  0  0  0
   54.3450  -14.8769    4.9801 C   0  0  0  0  0  0  0  0  0  0  0  0
   54.0832  -13.5267    5.1189 N   0  0  0  0  0  0  0  0  0  0  0  0
  1  2  1  0  0  0  0
  1  6  1  0  0  0  0
  2  3  2  0  0  0  0
  3  4  1  0  0  0  0
  4  5  2  0  0  0  0
  4 10  1  0  0  0  0
  5  6  1  0  0  0  0
  5  8  1  0  0  0  0
  6  7  2  0  0  0  0
  8  9  1  0  0  0  0
  9 10  2  0  0  0  0
M  END
>  <CHROM.1>
53.88874885,-14.00036490,7.23464595,2.27423726,-1.34826740,2.19297933

>  <Name>
ligand

>  <RI>
0

>  <Rbt.Current_Directory>
/home/itssahil/PROJECTS/Mol_Feturizer/New_Systems/rnas/2EEV

>  <Rbt.Executable>
rbdock ($Id: //depot/dev/client3/rdock/2013.1/src/exe/rbdock.cxx#4 $)

>  <Rbt.Library>
libRbt.so (2013.1, Build901 2013/11/27)

>  <Rbt.Parameter_File>
/export/apps/rDock/src/rDock_2013.1_src/data/scripts/dock_solv.prm

>  <Rbt.Receptor>
prm/blind_docking_80.prm

>  <SCORE>
-19.2967

>  <SCORE.INTER>
-19.2967

>  <SCORE.INTER.CONST>
1

>  <SCORE.INTER.POLAR>
0

>  <SCORE.INTER.ROT>
0

>  <SCORE.INTER.SOLV>
4.69745

>  <SCORE.INTER.VDW>
-18.0303

>  <SCORE.INTER.norm>
-1.92967

>  <SCORE.INTRA>
0

>  <SCORE.INTRA.DIHEDRAL>
0

>  <SCORE.INTRA.DIHEDRAL.0>
0

>  <SCORE.INTRA.POLAR>
0

>  <SCORE.INTRA.POLAR.0>
0

>  <SCORE.INTRA.REPUL>
0

>  <SCORE.INTRA.REPUL.0>
0

>  <SCORE.INTRA.SOLV>
0

>  <SCORE.INTRA.SOLV.lig_0>
-4.25352

>  <SCORE.INTRA.VDW>
0

>  <SCORE.INTRA.VDW.0>
0

>  <SCORE.INTRA.norm>
0

>  <SCORE.RESTR>
0

>  <SCORE.RESTR.CAVITY>
0

>  <SCORE.RESTR.norm>
0

>  <SCORE.SYSTEM>
0

>  <SCORE.SYSTEM.CONST>
0

>  <SCORE.SYSTEM.DIHEDRAL>
0

>  <SCORE.SYSTEM.SOLV>
0

>  <SCORE.SYSTEM.norm>
0

>  <SCORE.heavy>
10

>  <SCORE.norm>
-1.92967

>  <RMSD>
2.411

$$$$
ligand
 OpenBabel11021811423D
libRbt.so/2013.1/901 2013/11/27
 10 11  0  0  0  0  0  0  0  0999 V2000
   53.5482  -13.3825    9.0532 N   0  0  0  0  0  0  0  0  0  0  0  0
   53.4260  -12.2004    8.3802 C   0  0  0  0  0  0  0  0  0  0  0  0
   53.5951  -12.1209    7.0346 N   0  0  0  0  0  0  0  0  0  0  0  0
   53.8823  -13.3251    6.4614 C   0  0  0  0  0  0  0  0  0  0  0  0
   54.0134  -14.5403    7.0914 C   0  0  0  0  0  0  0  0  0  0  0  0
   53.8481  -14.6291    8.4766 C   0  0  0  0  0  0  0  0  0  0  0  0
   53.9273  -15.5982    9.2022 O   0  0  0  0  0  0  0  0  0  0  0  0
   54.3032  -15.4910    6.1503 N   0  0  0  0  0  0  0  0  0  0  0  0
   54.3475  -14.8696    4.9764 C   0  0  0  0  0  0  0  0  0  0  0  0
   54.0940  -13.5182    5.1190 N   0  0  0  0  0  0  0  0  0  0  0  0
  1  2  1  0  0  0  0
  1  6  1  0  0  0  0
  2  3  2  0  0  0  0
  3  4  1  0  0  0  0
  4  5  2  0  0  0  0
  4 10  1  0  0  0  0
  5  6  1  0  0  0  0
  5  8  1  0  0  0  0
  6  7  2  0  0  0  0
  8  9  1  0  0  0  0
  9 10  2  0  0  0  0
M  END
>  <CHROM.1>
53.89856392,-13.99626628,7.23369055,2.28714456,-1.35364855,2.20821085

>  <Name>
ligand

>  <RI>
0

>  <Rbt.Current_Directory>
/home/itssahil/PROJECTS/Mol_Feturizer/New_Systems/rnas/2EEV

>  <Rbt.Executable>
rbdock ($Id: //depot/dev/client3/rdock/2013.1/src/exe/rbdock.cxx#4 $)

>  <Rbt.Library>
libRbt.so (2013.1, Build901 2013/11/27)

>  <Rbt.Parameter_File>
/export/apps/rDock/src/rDock_2013.1_src/data/scripts/dock_solv.prm

>  <Rbt.Receptor>
prm/blind_docking_80.prm

>  <SCORE>
-19.3029

>  <SCORE.INTER>
-19.3029

>  <SCORE.INTER.CONST>
1

>  <SCORE.INTER.POLAR>
0

>  <SCORE.INTER.ROT>
0

>  <SCORE.INTER.SOLV>
4.69719

>  <SCORE.INTER.VDW>
-18.0343

>  <SCORE.INTER.norm>
-1.93029

>  <SCORE.INTRA>
0

>  <SCORE.INTRA.DIHEDRAL>
0

>  <SCORE.INTRA.DIHEDRAL.0>
0

>  <SCORE.INTRA.POLAR>
0

>  <SCORE.INTRA.POLAR.0>
0

>  <SCORE.INTRA.REPUL>
0

>  <SCORE.INTRA.REPUL.0>
0

>  <SCORE.INTRA.SOLV>
0

>  <SCORE.INTRA.SOLV.lig_0>
-4.25352

>  <SCORE.INTRA.VDW>
0

>  <SCORE.INTRA.VDW.0>
0

>  <SCORE.INTRA.norm>
0

>  <SCORE.RESTR>
0

>  <SCORE.RESTR.CAVITY>
0

>  <SCORE.RESTR.norm>
0

>  <SCORE.SYSTEM>
0

>  <SCORE.SYSTEM.CONST>
0

>  <SCORE.SYSTEM.DIHEDRAL>
0

>  <SCORE.SYSTEM.SOLV>
0

>  <SCORE.SYSTEM.norm>
0

>  <SCORE.heavy>
10

>  <SCORE.norm>
-1.93029

>  <RMSD>
2.411

$$$$
ligand
 OpenBabel11021811423D
libRbt.so/2013.1/901 2013/11/27
 10 11  0  0  0  0  0  0  0  0999 V2000
   53.5393  -13.3849    9.0566 N   0  0  0  0  0  0  0  0  0  0  0  0
   53.4146  -12.2034    8.3831 C   0  0  0  0  0  0  0  0  0  0  0  0
   53.5832  -12.1240    7.0374 N   0  0  0  0  0  0  0  0  0  0  0  0
   53.8726  -13.3280    6.4647 C   0  0  0  0  0  0  0  0  0  0  0  0
   54.0061  -14.5427    7.0952 C   0  0  0  0  0  0  0  0  0  0  0  0
   53.8414  -14.6312    8.4804 C   0  0  0  0  0  0  0  0  0  0  0  0
   53.9225  -15.5999    9.2063 O   0  0  0  0  0  0  0  0  0  0  0  0
   54.2975  -15.4932    6.1543 N   0  0  0  0  0  0  0  0  0  0  0  0
   54.3404  -14.8722    4.9802 C   0  0  0  0  0  0  0  0  0  0  0  0
   54.0843  -13.5212    5.1223 N   0  0  0  0  0  0  0  0  0  0  0  0
  1  2  1  0  0  0  0
  1  6  1  0  0  0  0
  2  3  2  0  0  0  0
  3  4  1  0  0  0  0
  4  5  2  0  0  0  0
  4 10  1  0  0  0  0
  5  6  1  0  0  0  0
  5  8  1  0  0  0  0
  6  7  2  0  0  0  0
  8  9  1  0  0  0  0
  9 10  2  0  0  0  0
M  END
>  <CHROM.1>
53.89031856,-13.99879028,7.23722685,2.28108612,-1.35225875,2.20187880

>  <Name>
ligand

>  <RI>
0

>  <Rbt.Current_Directory>
/home/itssahil/PROJECTS/Mol_Feturizer/New_Systems/rnas/2EEV

>  <Rbt.Executable>
rbdock ($Id: //depot/dev/client3/rdock/2013.1/src/exe/rbdock.cxx#4 $)

>  <Rbt.Library>
libRbt.so (2013.1, Build901 2013/11/27)

>  <Rbt.Parameter_File>
/export/apps/rDock/src/rDock_2013.1_src/data/scripts/dock_solv.prm

>  <Rbt.Receptor>
prm/blind_docking_80.prm

>  <SCORE>
-19.302

>  <SCORE.INTER>
-19.302

>  <SCORE.INTER.CONST>
1

>  <SCORE.INTER.POLAR>
0

>  <SCORE.INTER.ROT>
0

>  <SCORE.INTER.SOLV>
4.70442

>  <SCORE.INTER.VDW>
-18.0362

>  <SCORE.INTER.norm>
-1.9302

>  <SCORE.INTRA>
0

>  <SCORE.INTRA.DIHEDRAL>
0

>  <SCORE.INTRA.DIHEDRAL.0>
0

>  <SCORE.INTRA.POLAR>
0

>  <SCORE.INTRA.POLAR.0>
0

>  <SCORE.INTRA.REPUL>
0

>  <SCORE.INTRA.REPUL.0>
0

>  <SCORE.INTRA.SOLV>
0

>  <SCORE.INTRA.SOLV.lig_0>
-4.25352

>  <SCORE.INTRA.VDW>
0

>  <SCORE.INTRA.VDW.0>
0

>  <SCORE.INTRA.norm>
0

>  <SCORE.RESTR>
0

>  <SCORE.RESTR.CAVITY>
0

>  <SCORE.RESTR.norm>
0

>  <SCORE.SYSTEM>
0

>  <SCORE.SYSTEM.CONST>
0

>  <SCORE.SYSTEM.DIHEDRAL>
0

>  <SCORE.SYSTEM.SOLV>
0

>  <SCORE.SYSTEM.norm>
0

>  <SCORE.heavy>
10

>  <SCORE.norm>
-1.9302

>  <RMSD>
2.411

$$$$
ligand
 OpenBabel11021811423D
libRbt.so/2013.1/901 2013/11/27
 10 11  0  0  0  0  0  0  0  0999 V2000
   53.5457  -13.3791    9.0485 N   0  0  0  0  0  0  0  0  0  0  0  0
   53.4310  -12.1984    8.3717 C   0  0  0  0  0  0  0  0  0  0  0  0
   53.6035  -12.1237    7.0262 N   0  0  0  0  0  0  0  0  0  0  0  0
   53.8859  -13.3312    6.4573 C   0  0  0  0  0  0  0  0  0  0  0  0
   54.0094  -14.5451    7.0912 C   0  0  0  0  0  0  0  0  0  0  0  0
   53.8406  -14.6289    8.4762 C   0  0  0  0  0  0  0  0  0  0  0  0
   53.9132  -15.5962    9.2049 O   0  0  0  0  0  0  0  0  0  0  0  0
   54.2965  -15.5001    6.1536 N   0  0  0  0  0  0  0  0  0  0  0  0
   54.3466  -14.8824    4.9780 C   0  0  0  0  0  0  0  0  0  0  0  0
   54.0997  -13.5293    5.1159 N   0  0  0  0  0  0  0  0  0  0  0  0
  1  2  1  0  0  0  0
  1  6  1  0  0  0  0
  2  3  2  0  0  0  0
  3  4  1  0  0  0  0
  4  5  2  0  0  0  0
  4 10  1  0  0  0  0
  5  6  1  0  0  0  0
  5  8  1  0  0  0  0
  6  7  2  0  0  0  0
  8  9  1  0  0  0  0
  9 10  2  0  0  0  0
M  END
>  <CHROM.1>
53.89702955,-14.00004797,7.23159330,2.30991269,-1.35633420,2.22745570

>  <Name>
ligand

>  <RI>
0

>  <Rbt.Current_Directory>
/home/itssahil/PROJECTS/Mol_Feturizer/New_Systems/rnas/2EEV

>  <Rbt.Executable>
rbdock ($Id: //depot/dev/client3/rdock/2013.1/src/exe/rbdock.cxx#4 $)

>  <Rbt.Library>
libRbt.so (2013.1, Build901 2013/11/27)

>  <Rbt.Parameter_File>
/export/apps/rDock/src/rDock_2013.1_src/data/scripts/dock_solv.prm

>  <Rbt.Receptor>
prm/blind_docking_80.prm

>  <SCORE>
-19.3055

>  <SCORE.INTER>
-19.3055

>  <SCORE.INTER.CONST>
1

>  <SCORE.INTER.POLAR>
0

>  <SCORE.INTER.ROT>
0

>  <SCORE.INTER.SOLV>
4.70757

>  <SCORE.INTER.VDW>
-18.0395

>  <SCORE.INTER.norm>
-1.93055

>  <SCORE.INTRA>
0

>  <SCORE.INTRA.DIHEDRAL>
0

>  <SCORE.INTRA.DIHEDRAL.0>
0

>  <SCORE.INTRA.POLAR>
0

>  <SCORE.INTRA.POLAR.0>
0

>  <SCORE.INTRA.REPUL>
0

>  <SCORE.INTRA.REPUL.0>
0

>  <SCORE.INTRA.SOLV>
0

>  <SCORE.INTRA.SOLV.lig_0>
-4.25352

>  <SCORE.INTRA.VDW>
0

>  <SCORE.INTRA.VDW.0>
0

>  <SCORE.INTRA.norm>
0

>  <SCORE.RESTR>
0

>  <SCORE.RESTR.CAVITY>
0

>  <SCORE.RESTR.norm>
0

>  <SCORE.SYSTEM>
0

>  <SCORE.SYSTEM.CONST>
0

>  <SCORE.SYSTEM.DIHEDRAL>
0

>  <SCORE.SYSTEM.SOLV>
0

>  <SCORE.SYSTEM.norm>
0

>  <SCORE.heavy>
10

>  <SCORE.norm>
-1.93055

>  <RMSD>
2.411

$$$$
ligand
 OpenBabel11021811423D
libRbt.so/2013.1/901 2013/11/27
 10 11  0  0  0  0  0  0  0  0999 V2000
   53.5391  -13.3840    9.0522 N   0  0  0  0  0  0  0  0  0  0  0  0
   53.4183  -12.2024    8.3780 C   0  0  0  0  0  0  0  0  0  0  0  0
   53.5900  -12.1240    7.0326 N   0  0  0  0  0  0  0  0  0  0  0  0
   53.8782  -13.3287    6.4610 C   0  0  0  0  0  0  0  0  0  0  0  0
   54.0080  -14.5434    7.0923 C   0  0  0  0  0  0  0  0  0  0  0  0
   53.8400  -14.6310    8.4771 C   0  0  0  0  0  0  0  0  0  0  0  0
   53.9176  -15.5996    9.2037 O   0  0  0  0  0  0  0  0  0  0  0  0
   54.2995  -15.4949    6.1525 N   0  0  0  0  0  0  0  0  0  0  0  0
   54.3462  -14.8744    4.9782 C   0  0  0  0  0  0  0  0  0  0  0  0
   54.0925  -13.5229    5.1192 N   0  0  0  0  0  0  0  0  0  0  0  0
  1  2  1  0  0  0  0
  1  6  1  0  0  0  0
  2  3  2  0  0  0  0
  3  4  1  0  0  0  0
  4  5  2  0  0  0  0
  4 10  1  0  0  0  0
  5  6  1  0  0  0  0
  5  8  1  0  0  0  0
  6  7  2  0  0  0  0
  8  9  1  0  0  0  0
  9 10  2  0  0  0  0
M  END
>  <CHROM.1>
53.89290504,-13.99923683,7.23385707,2.29472374,-1.35255570,2.21480059

>  <Name>
ligand

>  <RI>
0

>  <Rbt.Current_Directory>
/home/itssahil/PROJECTS/Mol_Feturizer/New_Systems/rnas/2EEV

>  <Rbt.Executable>
rbdock ($Id: //depot/dev/client3/rdock/2013.1/src/exe/rbdock.cxx#4 $)

>  <Rbt.Library>
libRbt.so (2013.1, Build901 2013/11/27)

>  <Rbt.Parameter_File>
/export/apps/rDock/src/rDock_2013.1_src/data/scripts/dock_solv.prm

>  <Rbt.Receptor>
prm/blind_docking_80.prm

>  <SCORE>
-19.3051

>  <SCORE.INTER>
-19.3051

>  <SCORE.INTER.CONST>
1

>  <SCORE.INTER.POLAR>
0

>  <SCORE.INTER.ROT>
0

>  <SCORE.INTER.SOLV>
4.70591

>  <SCORE.INTER.VDW>
-18.0387

>  <SCORE.INTER.norm>
-1.93051

>  <SCORE.INTRA>
0

>  <SCORE.INTRA.DIHEDRAL>
0

>  <SCORE.INTRA.DIHEDRAL.0>
0

>  <SCORE.INTRA.POLAR>
0

>  <SCORE.INTRA.POLAR.0>
0

>  <SCORE.INTRA.REPUL>
0

>  <SCORE.INTRA.REPUL.0>
0

>  <SCORE.INTRA.SOLV>
0

>  <SCORE.INTRA.SOLV.lig_0>
-4.25352

>  <SCORE.INTRA.VDW>
0

>  <SCORE.INTRA.VDW.0>
0

>  <SCORE.INTRA.norm>
0

>  <SCORE.RESTR>
0

>  <SCORE.RESTR.CAVITY>
0

>  <SCORE.RESTR.norm>
0

>  <SCORE.SYSTEM>
0

>  <SCORE.SYSTEM.CONST>
0

>  <SCORE.SYSTEM.DIHEDRAL>
0

>  <SCORE.SYSTEM.SOLV>
0

>  <SCORE.SYSTEM.norm>
0

>  <SCORE.heavy>
10

>  <SCORE.norm>
-1.93051

>  <RMSD>
2.411

$$$$
ligand
 OpenBabel11021811423D
libRbt.so/2013.1/901 2013/11/27
 10 11  0  0  0  0  0  0  0  0999 V2000
   53.5440  -13.3830    9.0531 N   0  0  0  0  0  0  0  0  0  0  0  0
   53.4192  -12.2020    8.3787 C   0  0  0  0  0  0  0  0  0  0  0  0
   53.5874  -12.1238    7.0329 N   0  0  0  0  0  0  0  0  0  0  0  0
   53.8767  -13.3282    6.4611 C   0  0  0  0  0  0  0  0  0  0  0  0
   54.0104  -14.5424    7.0925 C   0  0  0  0  0  0  0  0  0  0  0  0
   53.8460  -14.6297    8.4778 C   0  0  0  0  0  0  0  0  0  0  0  0
   53.9273  -15.5978    9.2046 O   0  0  0  0  0  0  0  0  0  0  0  0
   54.3015  -15.4937    6.1524 N   0  0  0  0  0  0  0  0  0  0  0  0
   54.3440  -14.8736    4.9778 C   0  0  0  0  0  0  0  0  0  0  0  0
   54.0880  -13.5225    5.1188 N   0  0  0  0  0  0  0  0  0  0  0  0
  1  2  1  0  0  0  0
  1  6  1  0  0  0  0
  2  3  2  0  0  0  0
  3  4  1  0  0  0  0
  4  5  2  0  0  0  0
  4 10  1  0  0  0  0
  5  6  1  0  0  0  0
  5  8  1  0  0  0  0
  6  7  2  0  0  0  0
  8  9  1  0  0  0  0
  9 10  2  0  0  0  0
M  END
>  <CHROM.1>
53.89459106,-13.99833865,7.23415179,2.28006620,-1.35242132,2.20006357

>  <Name>
ligand

>  <RI>
0

>  <Rbt.Current_Directory>
/home/itssahil/PROJECTS/Mol_Feturizer/New_Systems/rnas/2EEV

>  <Rbt.Executable>
rbdock ($Id: //depot/dev/client3/rdock/2013.1/src/exe/rbdock.cxx#4 $)

>  <Rbt.Library>
libRbt.so (2013.1, Build901 2013/11/27)

>  <Rbt.Parameter_File>
/export/apps/rDock/src/rDock_2013.1_src/data/scripts/dock_solv.prm

>  <Rbt.Receptor>
prm/pocket_docking_3.prm

>  <SCORE>
-19.3009

>  <SCORE.INTER>
-19.3009

>  <SCORE.INTER.CONST>
1

>  <SCORE.INTER.POLAR>
0

>  <SCORE.INTER.ROT>
0

>  <SCORE.INTER.SOLV>
4.69746

>  <SCORE.INTER.VDW>
-18.0331

>  <SCORE.INTER.norm>
-1.93009

>  <SCORE.INTRA>
0

>  <SCORE.INTRA.DIHEDRAL>
0

>  <SCORE.INTRA.DIHEDRAL.0>
0

>  <SCORE.INTRA.POLAR>
0

>  <SCORE.INTRA.POLAR.0>
0

>  <SCORE.INTRA.REPUL>
0

>  <SCORE.INTRA.REPUL.0>
0

>  <SCORE.INTRA.SOLV>
0

>  <SCORE.INTRA.SOLV.lig_0>
-4.25352

>  <SCORE.INTRA.VDW>
0

>  <SCORE.INTRA.VDW.0>
0

>  <SCORE.INTRA.norm>
0

>  <SCORE.RESTR>
0

>  <SCORE.RESTR.CAVITY>
0

>  <SCORE.RESTR.norm>
0

>  <SCORE.SYSTEM>
0

>  <SCORE.SYSTEM.CONST>
0

>  <SCORE.SYSTEM.DIHEDRAL>
0

>  <SCORE.SYSTEM.SOLV>
0

>  <SCORE.SYSTEM.norm>
0

>  <SCORE.heavy>
10

>  <SCORE.norm>
-1.93009

>  <RMSD>
2.411

$$$$
ligand
 OpenBabel11021811423D
libRbt.so/2013.1/901 2013/11/27
 10 11  0  0  0  0  0  0  0  0999 V2000
   53.5405  -13.3832    9.0539 N   0  0  0  0  0  0  0  0  0  0  0  0
   53.4191  -12.2013    8.3804 C   0  0  0  0  0  0  0  0  0  0  0  0
   53.5908  -12.1220    7.0351 N   0  0  0  0  0  0  0  0  0  0  0  0
   53.8796  -13.3263    6.4627 C   0  0  0  0  0  0  0  0  0  0  0  0
   54.0100  -14.5413    7.0933 C   0  0  0  0  0  0  0  0  0  0  0  0
   53.8420  -14.6298    8.4781 C   0  0  0  0  0  0  0  0  0  0  0  0
   53.9201  -15.5987    9.2041 O   0  0  0  0  0  0  0  0  0  0  0  0
   54.3020  -15.4920    6.1529 N   0  0  0  0  0  0  0  0  0  0  0  0
   54.3484  -14.8708    4.9790 C   0  0  0  0  0  0  0  0  0  0  0  0
   54.0940  -13.5195    5.1208 N   0  0  0  0  0  0  0  0  0  0  0  0
  1  2  1  0  0  0  0
  1  6  1  0  0  0  0
  2  3  2  0  0  0  0
  3  4  1  0  0  0  0
  4  5  2  0  0  0  0
  4 10  1  0  0  0  0
  5  6  1  0  0  0  0
  5  8  1  0  0  0  0
  6  7  2  0  0  0  0
  8  9  1  0  0  0  0
  9 10  2  0  0  0  0
M  END
>  <CHROM.1>
53.89463757,-13.99721377,7.23518367,2.29333099,-1.35213965,2.21403010

>  <Name>
ligand

>  <RI>
0

>  <Rbt.Current_Directory>
/home/itssahil/PROJECTS/Mol_Feturizer/New_Systems/rnas/2EEV

>  <Rbt.Executable>
rbdock ($Id: //depot/dev/client3/rdock/2013.1/src/exe/rbdock.cxx#4 $)

>  <Rbt.Library>
libRbt.so (2013.1, Build901 2013/11/27)

>  <Rbt.Parameter_File>
/export/apps/rDock/src/rDock_2013.1_src/data/scripts/dock_solv.prm

>  <Rbt.Receptor>
prm/pocket_docking_4.prm

>  <SCORE>
-19.3055

>  <SCORE.INTER>
-19.3055

>  <SCORE.INTER.CONST>
1

>  <SCORE.INTER.POLAR>
0

>  <SCORE.INTER.ROT>
0

>  <SCORE.INTER.SOLV>
4.70256

>  <SCORE.INTER.VDW>
-18.0379

>  <SCORE.INTER.norm>
-1.93055

>  <SCORE.INTRA>
0

>  <SCORE.INTRA.DIHEDRAL>
0

>  <SCORE.INTRA.DIHEDRAL.0>
0

>  <SCORE.INTRA.POLAR>
0

>  <SCORE.INTRA.POLAR.0>
0

>  <SCORE.INTRA.REPUL>
0

>  <SCORE.INTRA.REPUL.0>
0

>  <SCORE.INTRA.SOLV>
0

>  <SCORE.INTRA.SOLV.lig_0>
-4.25352

>  <SCORE.INTRA.VDW>
0

>  <SCORE.INTRA.VDW.0>
0

>  <SCORE.INTRA.norm>
0

>  <SCORE.RESTR>
0

>  <SCORE.RESTR.CAVITY>
0

>  <SCORE.RESTR.norm>
0

>  <SCORE.SYSTEM>
0

>  <SCORE.SYSTEM.CONST>
0

>  <SCORE.SYSTEM.DIHEDRAL>
0

>  <SCORE.SYSTEM.SOLV>
0

>  <SCORE.SYSTEM.norm>
0

>  <SCORE.heavy>
10

>  <SCORE.norm>
-1.93055

>  <RMSD>
2.411

$$$$
ligand
 OpenBabel11021811423D
libRbt.so/2013.1/901 2013/11/27
 10 11  0  0  0  0  0  0  0  0999 V2000
   53.5334  -13.3852    9.0564 N   0  0  0  0  0  0  0  0  0  0  0  0
   53.4043  -12.2065    8.3788 C   0  0  0  0  0  0  0  0  0  0  0  0
   53.5691  -12.1320    7.0323 N   0  0  0  0  0  0  0  0  0  0  0  0
   53.8596  -13.3375    6.4634 C   0  0  0  0  0  0  0  0  0  0  0  0
   53.9975  -14.5494    7.0981 C   0  0  0  0  0  0  0  0  0  0  0  0
   53.8367  -14.6330    8.4841 C   0  0  0  0  0  0  0  0  0  0  0  0
   53.9220  -15.5987    9.2136 O   0  0  0  0  0  0  0  0  0  0  0  0
   54.2884  -15.5029    6.1601 N   0  0  0  0  0  0  0  0  0  0  0  0
   54.3268  -14.8863    4.9836 C   0  0  0  0  0  0  0  0  0  0  0  0
   54.0681  -13.5353    5.1212 N   0  0  0  0  0  0  0  0  0  0  0  0
  1  2  1  0  0  0  0
  1  6  1  0  0  0  0
  2  3  2  0  0  0  0
  3  4  1  0  0  0  0
  4  5  2  0  0  0  0
  4 10  1  0  0  0  0
  5  6  1  0  0  0  0
  5  8  1  0  0  0  0
  6  7  2  0  0  0  0
  8  9  1  0  0  0  0
  9 10  2  0  0  0  0
M  END
>  <CHROM.1>
53.88088095,-14.00523922,7.23842713,2.26494242,-1.35204023,2.18229848

>  <Name>
ligand

>  <RI>
0

>  <Rbt.Current_Directory>
/home/itssahil/PROJECTS/Mol_Feturizer/New_Systems/rnas/2EEV

>  <Rbt.Executable>
rbdock ($Id: //depot/dev/client3/rdock/2013.1/src/exe/rbdock.cxx#4 $)

>  <Rbt.Library>
libRbt.so (2013.1, Build901 2013/11/27)

>  <Rbt.Parameter_File>
/export/apps/rDock/src/rDock_2013.1_src/data/scripts/dock_solv.prm

>  <Rbt.Receptor>
prm/pocket_docking_4.prm

>  <SCORE>
-19.2889

>  <SCORE.INTER>
-19.2889

>  <SCORE.INTER.CONST>
1

>  <SCORE.INTER.POLAR>
0

>  <SCORE.INTER.ROT>
0

>  <SCORE.INTER.SOLV>
4.70902

>  <SCORE.INTER.VDW>
-18.029

>  <SCORE.INTER.norm>
-1.92889

>  <SCORE.INTRA>
0

>  <SCORE.INTRA.DIHEDRAL>
0

>  <SCORE.INTRA.DIHEDRAL.0>
0

>  <SCORE.INTRA.POLAR>
0

>  <SCORE.INTRA.POLAR.0>
0

>  <SCORE.INTRA.REPUL>
0

>  <SCORE.INTRA.REPUL.0>
0

>  <SCORE.INTRA.SOLV>
0

>  <SCORE.INTRA.SOLV.lig_0>
-4.25352

>  <SCORE.INTRA.VDW>
0

>  <SCORE.INTRA.VDW.0>
0

>  <SCORE.INTRA.norm>
0

>  <SCORE.RESTR>
0

>  <SCORE.RESTR.CAVITY>
0

>  <SCORE.RESTR.norm>
0

>  <SCORE.SYSTEM>
0

>  <SCORE.SYSTEM.CONST>
0

>  <SCORE.SYSTEM.DIHEDRAL>
0

>  <SCORE.SYSTEM.SOLV>
0

>  <SCORE.SYSTEM.norm>
0

>  <SCORE.heavy>
10

>  <SCORE.norm>
-1.92889

>  <RMSD>
2.411

$$$$
ligand
 OpenBabel11021811423D
libRbt.so/2013.1/901 2013/11/27
 10 11  0  0  0  0  0  0  0  0999 V2000
   53.5413  -13.3806    9.0547 N   0  0  0  0  0  0  0  0  0  0  0  0
   53.4210  -12.1991    8.3803 C   0  0  0  0  0  0  0  0  0  0  0  0
   53.5924  -12.1210    7.0348 N   0  0  0  0  0  0  0  0  0  0  0  0
   53.8797  -13.3261    6.4634 C   0  0  0  0  0  0  0  0  0  0  0  0
   54.0088  -14.5408    7.0948 C   0  0  0  0  0  0  0  0  0  0  0  0
   53.8412  -14.6280    8.4798 C   0  0  0  0  0  0  0  0  0  0  0  0
   53.9184  -15.5964    9.2065 O   0  0  0  0  0  0  0  0  0  0  0  0
   54.2994  -15.4926    6.1552 N   0  0  0  0  0  0  0  0  0  0  0  0
   54.3462  -14.8724    4.9808 C   0  0  0  0  0  0  0  0  0  0  0  0
   54.0935  -13.5207    5.1215 N   0  0  0  0  0  0  0  0  0  0  0  0
  1  2  1  0  0  0  0
  1  6  1  0  0  0  0
  2  3  2  0  0  0  0
  3  4  1  0  0  0  0
  4  5  2  0  0  0  0
  4 10  1  0  0  0  0
  5  6  1  0  0  0  0
  5  8  1  0  0  0  0
  6  7  2  0  0  0  0
  8  9  1  0  0  0  0
  9 10  2  0  0  0  0
M  END
>  <CHROM.1>
53.89415256,-13.99646604,7.23636147,2.29548094,-1.35325532,2.21532677

>  <Name>
ligand

>  <RI>
0

>  <Rbt.Current_Directory>
/home/itssahil/PROJECTS/Mol_Feturizer/New_Systems/rnas/2EEV

>  <Rbt.Executable>
rbdock ($Id: //depot/dev/client3/rdock/2013.1/src/exe/rbdock.cxx#4 $)

>  <Rbt.Library>
libRbt.so (2013.1, Build901 2013/11/27)

>  <Rbt.Parameter_File>
/export/apps/rDock/src/rDock_2013.1_src/data/scripts/dock_solv.prm

>  <Rbt.Receptor>
prm/pocket_docking_4.prm

>  <SCORE>
-19.3055

>  <SCORE.INTER>
-19.3055

>  <SCORE.INTER.CONST>
1

>  <SCORE.INTER.POLAR>
0

>  <SCORE.INTER.ROT>
0

>  <SCORE.INTER.SOLV>
4.70352

>  <SCORE.INTER.VDW>
-18.0382

>  <SCORE.INTER.norm>
-1.93055

>  <SCORE.INTRA>
0

>  <SCORE.INTRA.DIHEDRAL>
0

>  <SCORE.INTRA.DIHEDRAL.0>
0

>  <SCORE.INTRA.POLAR>
0

>  <SCORE.INTRA.POLAR.0>
0

>  <SCORE.INTRA.REPUL>
0

>  <SCORE.INTRA.REPUL.0>
0

>  <SCORE.INTRA.SOLV>
0

>  <SCORE.INTRA.SOLV.lig_0>
-4.25352

>  <SCORE.INTRA.VDW>
0

>  <SCORE.INTRA.VDW.0>
0

>  <SCORE.INTRA.norm>
0

>  <SCORE.RESTR>
0

>  <SCORE.RESTR.CAVITY>
0

>  <SCORE.RESTR.norm>
0

>  <SCORE.SYSTEM>
0

>  <SCORE.SYSTEM.CONST>
0

>  <SCORE.SYSTEM.DIHEDRAL>
0

>  <SCORE.SYSTEM.SOLV>
0

>  <SCORE.SYSTEM.norm>
0

>  <SCORE.heavy>
10

>  <SCORE.norm>
-1.93055

>  <RMSD>
2.411

$$$$
ligand
 OpenBabel11021811423D
libRbt.so/2013.1/901 2013/11/27
 10 11  0  0  0  0  0  0  0  0999 V2000
   53.5401  -13.3826    9.0445 N   0  0  0  0  0  0  0  0  0  0  0  0
   53.4228  -12.2013    8.3692 C   0  0  0  0  0  0  0  0  0  0  0  0
   53.5997  -12.1237    7.0244 N   0  0  0  0  0  0  0  0  0  0  0  0
   53.8891  -13.3291    6.4546 C   0  0  0  0  0  0  0  0  0  0  0  0
   54.0155  -14.5435    7.0870 C   0  0  0  0  0  0  0  0  0  0  0  0
   53.8422  -14.6302    8.4713 C   0  0  0  0  0  0  0  0  0  0  0  0
   53.9163  -15.5984    9.1987 O   0  0  0  0  0  0  0  0  0  0  0  0
   54.3099  -15.4957    6.1489 N   0  0  0  0  0  0  0  0  0  0  0  0
   54.3615  -14.8760    4.9745 C   0  0  0  0  0  0  0  0  0  0  0  0
   54.1084  -13.5242    5.1137 N   0  0  0  0  0  0  0  0  0  0  0  0
  1  2  1  0  0  0  0
  1  6  1  0  0  0  0
  2  3  2  0  0  0  0
  3  4  1  0  0  0  0
  4  5  2  0  0  0  0
  4 10  1  0  0  0  0
  5  6  1  0  0  0  0
  5  8  1  0  0  0  0
  6  7  2  0  0  0  0
  8  9  1  0  0  0  0
  9 10  2  0  0  0  0
M  END
>  <CHROM.1>
53.90036774,-13.99914946,7.22786454,2.31083040,-1.35086774,2.22995396

>  <Name>
ligand

>  <RI>
0

>  <Rbt.Current_Directory>
/home/itssahil/PROJECTS/Mol_Feturizer/New_Systems/rnas/2EEV

>  <Rbt.Executable>
rbdock ($Id: //depot/dev/client3/rdock/2013.1/src/exe/rbdock.cxx#4 $)

>  <Rbt.Library>
libRbt.so (2013.1, Build901 2013/11/27)

>  <Rbt.Parameter_File>
/export/apps/rDock/src/rDock_2013.1_src/data/scripts/dock_solv.prm

>  <Rbt.Receptor>
prm/pocket_docking_4.prm

>  <SCORE>
-19.3042

>  <SCORE.INTER>
-19.3042

>  <SCORE.INTER.CONST>
1

>  <SCORE.INTER.POLAR>
0

>  <SCORE.INTER.ROT>
0

>  <SCORE.INTER.SOLV>
4.69994

>  <SCORE.INTER.VDW>
-18.0361

>  <SCORE.INTER.norm>
-1.93042

>  <SCORE.INTRA>
0

>  <SCORE.INTRA.DIHEDRAL>
0

>  <SCORE.INTRA.DIHEDRAL.0>
0

>  <SCORE.INTRA.POLAR>
0

>  <SCORE.INTRA.POLAR.0>
0

>  <SCORE.INTRA.REPUL>
0

>  <SCORE.INTRA.REPUL.0>
0

>  <SCORE.INTRA.SOLV>
0

>  <SCORE.INTRA.SOLV.lig_0>
-4.25352

>  <SCORE.INTRA.VDW>
0

>  <SCORE.INTRA.VDW.0>
0

>  <SCORE.INTRA.norm>
0

>  <SCORE.RESTR>
0

>  <SCORE.RESTR.CAVITY>
0

>  <SCORE.RESTR.norm>
0

>  <SCORE.SYSTEM>
0

>  <SCORE.SYSTEM.CONST>
0

>  <SCORE.SYSTEM.DIHEDRAL>
0

>  <SCORE.SYSTEM.SOLV>
0

>  <SCORE.SYSTEM.norm>
0

>  <SCORE.heavy>
10

>  <SCORE.norm>
-1.93042

>  <RMSD>
2.411

$$$$
ligand
 OpenBabel11021811423D
libRbt.so/2013.1/901 2013/11/27
 10 11  0  0  0  0  0  0  0  0999 V2000
   53.5376  -13.3822    9.0506 N   0  0  0  0  0  0  0  0  0  0  0  0
   53.4165  -12.2009    8.3760 C   0  0  0  0  0  0  0  0  0  0  0  0
   53.5908  -12.1222    7.0310 N   0  0  0  0  0  0  0  0  0  0  0  0
   53.8819  -13.3266    6.4600 C   0  0  0  0  0  0  0  0  0  0  0  0
   54.0121  -14.5411    7.0916 C   0  0  0  0  0  0  0  0  0  0  0  0
   53.8415  -14.6289    8.4762 C   0  0  0  0  0  0  0  0  0  0  0  0
   53.9190  -15.5973    9.2029 O   0  0  0  0  0  0  0  0  0  0  0  0
   54.3069  -15.4922    6.1525 N   0  0  0  0  0  0  0  0  0  0  0  0
   54.3551  -14.8717    4.9783 C   0  0  0  0  0  0  0  0  0  0  0  0
   54.0992  -13.5206    5.1186 N   0  0  0  0  0  0  0  0  0  0  0  0
  1  2  1  0  0  0  0
  1  6  1  0  0  0  0
  2  3  2  0  0  0  0
  3  4  1  0  0  0  0
  4  5  2  0  0  0  0
  4 10  1  0  0  0  0
  5  6  1  0  0  0  0
  5  8  1  0  0  0  0
  6  7  2  0  0  0  0
  8  9  1  0  0  0  0
  9 10  2  0  0  0  0
M  END
>  <CHROM.1>
53.89600888,-13.99706115,7.23294228,2.29817446,-1.35018886,2.21810433

>  <Name>
ligand

>  <RI>
0

>  <Rbt.Current_Directory>
/home/itssahil/PROJECTS/Mol_Feturizer/New_Systems/rnas/2EEV

>  <Rbt.Executable>
rbdock ($Id: //depot/dev/client3/rdock/2013.1/src/exe/rbdock.cxx#4 $)

>  <Rbt.Library>
libRbt.so (2013.1, Build901 2013/11/27)

>  <Rbt.Parameter_File>
/export/apps/rDock/src/rDock_2013.1_src/data/scripts/dock_solv.prm

>  <Rbt.Receptor>
prm/pocket_docking_4.prm

>  <SCORE>
-19.305

>  <SCORE.INTER>
-19.305

>  <SCORE.INTER.CONST>
1

>  <SCORE.INTER.POLAR>
0

>  <SCORE.INTER.ROT>
0

>  <SCORE.INTER.SOLV>
4.69937

>  <SCORE.INTER.VDW>
-18.0364

>  <SCORE.INTER.norm>
-1.9305

>  <SCORE.INTRA>
0

>  <SCORE.INTRA.DIHEDRAL>
0

>  <SCORE.INTRA.DIHEDRAL.0>
0

>  <SCORE.INTRA.POLAR>
0

>  <SCORE.INTRA.POLAR.0>
0

>  <SCORE.INTRA.REPUL>
0

>  <SCORE.INTRA.REPUL.0>
0

>  <SCORE.INTRA.SOLV>
0

>  <SCORE.INTRA.SOLV.lig_0>
-4.25352

>  <SCORE.INTRA.VDW>
0

>  <SCORE.INTRA.VDW.0>
0

>  <SCORE.INTRA.norm>
0

>  <SCORE.RESTR>
0

>  <SCORE.RESTR.CAVITY>
0

>  <SCORE.RESTR.norm>
0

>  <SCORE.SYSTEM>
0

>  <SCORE.SYSTEM.CONST>
0

>  <SCORE.SYSTEM.DIHEDRAL>
0

>  <SCORE.SYSTEM.SOLV>
0

>  <SCORE.SYSTEM.norm>
0

>  <SCORE.heavy>
10

>  <SCORE.norm>
-1.9305

>  <RMSD>
2.411

$$$$
ligand
 OpenBabel11021811423D
libRbt.so/2013.1/901 2013/11/27
 10 11  0  0  0  0  0  0  0  0999 V2000
   53.5392  -13.3827    9.0567 N   0  0  0  0  0  0  0  0  0  0  0  0
   53.4186  -12.2003    8.3841 C   0  0  0  0  0  0  0  0  0  0  0  0
   53.5896  -12.1202    7.0387 N   0  0  0  0  0  0  0  0  0  0  0  0
   53.8769  -13.3243    6.4654 C   0  0  0  0  0  0  0  0  0  0  0  0
   54.0065  -14.5399    7.0950 C   0  0  0  0  0  0  0  0  0  0  0  0
   53.8393  -14.6292    8.4798 C   0  0  0  0  0  0  0  0  0  0  0  0
   53.9169  -15.5987    9.2051 O   0  0  0  0  0  0  0  0  0  0  0  0
   54.2971  -15.4903    6.1538 N   0  0  0  0  0  0  0  0  0  0  0  0
   54.3434  -14.8683    4.9803 C   0  0  0  0  0  0  0  0  0  0  0  0
   54.0904  -13.5168    5.1232 N   0  0  0  0  0  0  0  0  0  0  0  0
  1  2  1  0  0  0  0
  1  6  1  0  0  0  0
  2  3  2  0  0  0  0
  3  4  1  0  0  0  0
  4  5  2  0  0  0  0
  4 10  1  0  0  0  0
  5  6  1  0  0  0  0
  5  8  1  0  0  0  0
  6  7  2  0  0  0  0
  8  9  1  0  0  0  0
  9 10  2  0  0  0  0
M  END
>  <CHROM.1>
53.89178243,-13.99581784,7.23734671,2.29385683,-1.35323362,2.21523723

>  <Name>
ligand

>  <RI>
0

>  <Rbt.Current_Directory>
/home/itssahil/PROJECTS/Mol_Feturizer/New_Systems/rnas/2EEV

>  <Rbt.Executable>
rbdock ($Id: //depot/dev/client3/rdock/2013.1/src/exe/rbdock.cxx#4 $)

>  <Rbt.Library>
libRbt.so (2013.1, Build901 2013/11/27)

>  <Rbt.Parameter_File>
/export/apps/rDock/src/rDock_2013.1_src/data/scripts/dock_solv.prm

>  <Rbt.Receptor>
prm/pocket_docking_5.prm

>  <SCORE>
-19.3051

>  <SCORE.INTER>
-19.3051

>  <SCORE.INTER.CONST>
1

>  <SCORE.INTER.POLAR>
0

>  <SCORE.INTER.ROT>
0

>  <SCORE.INTER.SOLV>
4.70704

>  <SCORE.INTER.VDW>
-18.0391

>  <SCORE.INTER.norm>
-1.93051

>  <SCORE.INTRA>
0

>  <SCORE.INTRA.DIHEDRAL>
0

>  <SCORE.INTRA.DIHEDRAL.0>
0

>  <SCORE.INTRA.POLAR>
0

>  <SCORE.INTRA.POLAR.0>
0

>  <SCORE.INTRA.REPUL>
0

>  <SCORE.INTRA.REPUL.0>
0

>  <SCORE.INTRA.SOLV>
0

>  <SCORE.INTRA.SOLV.lig_0>
-4.25352

>  <SCORE.INTRA.VDW>
0

>  <SCORE.INTRA.VDW.0>
0

>  <SCORE.INTRA.norm>
0

>  <SCORE.RESTR>
0

>  <SCORE.RESTR.CAVITY>
0

>  <SCORE.RESTR.norm>
0

>  <SCORE.SYSTEM>
0

>  <SCORE.SYSTEM.CONST>
0

>  <SCORE.SYSTEM.DIHEDRAL>
0

>  <SCORE.SYSTEM.SOLV>
0

>  <SCORE.SYSTEM.norm>
0

>  <SCORE.heavy>
10

>  <SCORE.norm>
-1.93051

>  <RMSD>
2.411

$$$$
ligand
 OpenBabel11021811423D
libRbt.so/2013.1/901 2013/11/27
 10 11  0  0  0  0  0  0  0  0999 V2000
   53.5460  -13.3824    9.0541 N   0  0  0  0  0  0  0  0  0  0  0  0
   53.4269  -12.2001    8.3809 C   0  0  0  0  0  0  0  0  0  0  0  0
   53.5974  -12.1210    7.0354 N   0  0  0  0  0  0  0  0  0  0  0  0
   53.8826  -13.3259    6.4626 C   0  0  0  0  0  0  0  0  0  0  0  0
   54.0106  -14.5413    7.0928 C   0  0  0  0  0  0  0  0  0  0  0  0
   53.8438  -14.6297    8.4778 C   0  0  0  0  0  0  0  0  0  0  0  0
   53.9202  -15.5990    9.2035 O   0  0  0  0  0  0  0  0  0  0  0  0
   54.2992  -15.4927    6.1520 N   0  0  0  0  0  0  0  0  0  0  0  0
   54.3460  -14.8714    4.9781 C   0  0  0  0  0  0  0  0  0  0  0  0
   54.0952  -13.5194    5.1204 N   0  0  0  0  0  0  0  0  0  0  0  0
  1  2  1  0  0  0  0
  1  6  1  0  0  0  0
  2  3  2  0  0  0  0
  3  4  1  0  0  0  0
  4  5  2  0  0  0  0
  4 10  1  0  0  0  0
  5  6  1  0  0  0  0
  5  8  1  0  0  0  0
  6  7  2  0  0  0  0
  8  9  1  0  0  0  0
  9 10  2  0  0  0  0
M  END
>  <CHROM.1>
53.89676837,-13.99702208,7.23491691,2.29658820,-1.35476734,2.21738814

>  <Name>
ligand

>  <RI>
0

>  <Rbt.Current_Directory>
/home/itssahil/PROJECTS/Mol_Feturizer/New_Systems/rnas/2EEV

>  <Rbt.Executable>
rbdock ($Id: //depot/dev/client3/rdock/2013.1/src/exe/rbdock.cxx#4 $)

>  <Rbt.Library>
libRbt.so (2013.1, Build901 2013/11/27)

>  <Rbt.Parameter_File>
/export/apps/rDock/src/rDock_2013.1_src/data/scripts/dock_solv.prm

>  <Rbt.Receptor>
prm/pocket_docking_5.prm

>  <SCORE>
-19.3062

>  <SCORE.INTER>
-19.3062

>  <SCORE.INTER.CONST>
1

>  <SCORE.INTER.POLAR>
0

>  <SCORE.INTER.ROT>
0

>  <SCORE.INTER.SOLV>
4.70396

>  <SCORE.INTER.VDW>
-18.0388

>  <SCORE.INTER.norm>
-1.93062

>  <SCORE.INTRA>
0

>  <SCORE.INTRA.DIHEDRAL>
0

>  <SCORE.INTRA.DIHEDRAL.0>
0

>  <SCORE.INTRA.POLAR>
0

>  <SCORE.INTRA.POLAR.0>
0

>  <SCORE.INTRA.REPUL>
0

>  <SCORE.INTRA.REPUL.0>
0

>  <SCORE.INTRA.SOLV>
0

>  <SCORE.INTRA.SOLV.lig_0>
-4.25352

>  <SCORE.INTRA.VDW>
0

>  <SCORE.INTRA.VDW.0>
0

>  <SCORE.INTRA.norm>
0

>  <SCORE.RESTR>
0

>  <SCORE.RESTR.CAVITY>
0

>  <SCORE.RESTR.norm>
0

>  <SCORE.SYSTEM>
0

>  <SCORE.SYSTEM.CONST>
0

>  <SCORE.SYSTEM.DIHEDRAL>
0

>  <SCORE.SYSTEM.SOLV>
0

>  <SCORE.SYSTEM.norm>
0

>  <SCORE.heavy>
10

>  <SCORE.norm>
-1.93062

>  <RMSD>
2.411

$$$$
ligand
 OpenBabel11021811423D
libRbt.so/2013.1/901 2013/11/27
 10 11  0  0  0  0  0  0  0  0999 V2000
   53.5420  -13.3820    9.0547 N   0  0  0  0  0  0  0  0  0  0  0  0
   53.4237  -12.1998    8.3812 C   0  0  0  0  0  0  0  0  0  0  0  0
   53.5953  -12.1210    7.0358 N   0  0  0  0  0  0  0  0  0  0  0  0
   53.8807  -13.3261    6.4635 C   0  0  0  0  0  0  0  0  0  0  0  0
   54.0078  -14.5414    7.0940 C   0  0  0  0  0  0  0  0  0  0  0  0
   53.8399  -14.6294    8.4789 C   0  0  0  0  0  0  0  0  0  0  0  0
   53.9155  -15.5985    9.2049 O   0  0  0  0  0  0  0  0  0  0  0  0
   54.2969  -15.4931    6.1537 N   0  0  0  0  0  0  0  0  0  0  0  0
   54.3448  -14.8720    4.9797 C   0  0  0  0  0  0  0  0  0  0  0  0
   54.0943  -13.5200    5.1215 N   0  0  0  0  0  0  0  0  0  0  0  0
  1  2  1  0  0  0  0
  1  6  1  0  0  0  0
  2  3  2  0  0  0  0
  3  4  1  0  0  0  0
  4  5  2  0  0  0  0
  4 10  1  0  0  0  0
  5  6  1  0  0  0  0
  5  8  1  0  0  0  0
  6  7  2  0  0  0  0
  8  9  1  0  0  0  0
  9 10  2  0  0  0  0
M  END
>  <CHROM.1>
53.89400952,-13.99704368,7.23594723,2.30033170,-1.35449629,2.22081496

>  <Name>
ligand

>  <RI>
0

>  <Rbt.Current_Directory>
/home/itssahil/PROJECTS/Mol_Feturizer/New_Systems/rnas/2EEV

>  <Rbt.Executable>
rbdock ($Id: //depot/dev/client3/rdock/2013.1/src/exe/rbdock.cxx#4 $)

>  <Rbt.Library>
libRbt.so (2013.1, Build901 2013/11/27)

>  <Rbt.Parameter_File>
/export/apps/rDock/src/rDock_2013.1_src/data/scripts/dock_solv.prm

>  <Rbt.Receptor>
prm/pocket_docking_5.prm

>  <SCORE>
-19.307

>  <SCORE.INTER>
-19.307

>  <SCORE.INTER.CONST>
1

>  <SCORE.INTER.POLAR>
0

>  <SCORE.INTER.ROT>
0

>  <SCORE.INTER.SOLV>
4.70774

>  <SCORE.INTER.VDW>
-18.0405

>  <SCORE.INTER.norm>
-1.9307

>  <SCORE.INTRA>
0

>  <SCORE.INTRA.DIHEDRAL>
0

>  <SCORE.INTRA.DIHEDRAL.0>
0

>  <SCORE.INTRA.POLAR>
0

>  <SCORE.INTRA.POLAR.0>
0

>  <SCORE.INTRA.REPUL>
0

>  <SCORE.INTRA.REPUL.0>
0

>  <SCORE.INTRA.SOLV>
0

>  <SCORE.INTRA.SOLV.lig_0>
-4.25352

>  <SCORE.INTRA.VDW>
0

>  <SCORE.INTRA.VDW.0>
0

>  <SCORE.INTRA.norm>
0

>  <SCORE.RESTR>
0

>  <SCORE.RESTR.CAVITY>
0

>  <SCORE.RESTR.norm>
0

>  <SCORE.SYSTEM>
0

>  <SCORE.SYSTEM.CONST>
0

>  <SCORE.SYSTEM.DIHEDRAL>
0

>  <SCORE.SYSTEM.SOLV>
0

>  <SCORE.SYSTEM.norm>
0

>  <SCORE.heavy>
10

>  <SCORE.norm>
-1.9307

>  <RMSD>
2.411

$$$$
ligand
 OpenBabel11021811423D
libRbt.so/2013.1/901 2013/11/27
 10 11  0  0  0  0  0  0  0  0999 V2000
   53.5297  -13.3872    9.0572 N   0  0  0  0  0  0  0  0  0  0  0  0
   53.3959  -12.2081    8.3811 C   0  0  0  0  0  0  0  0  0  0  0  0
   53.5611  -12.1309    7.0349 N   0  0  0  0  0  0  0  0  0  0  0  0
   53.8571  -13.3343    6.4644 C   0  0  0  0  0  0  0  0  0  0  0  0
   53.9999  -14.5466    7.0975 C   0  0  0  0  0  0  0  0  0  0  0  0
   53.8387  -14.6328    8.4832 C   0  0  0  0  0  0  0  0  0  0  0  0
   53.9277  -15.5992    9.2113 O   0  0  0  0  0  0  0  0  0  0  0  0
   54.2955  -15.4974    6.1583 N   0  0  0  0  0  0  0  0  0  0  0  0
   54.3318  -14.8789    4.9826 C   0  0  0  0  0  0  0  0  0  0  0  0
   54.0673  -13.5293    5.1220 N   0  0  0  0  0  0  0  0  0  0  0  0
  1  2  1  0  0  0  0
  1  6  1  0  0  0  0
  2  3  2  0  0  0  0
  3  4  1  0  0  0  0
  4  5  2  0  0  0  0
  4 10  1  0  0  0  0
  5  6  1  0  0  0  0
  5  8  1  0  0  0  0
  6  7  2  0  0  0  0
  8  9  1  0  0  0  0
  9 10  2  0  0  0  0
M  END
>  <CHROM.1>
53.88086364,-14.00309114,7.23849113,2.25584131,-1.34817590,2.17485688

>  <Name>
ligand

>  <RI>
0

>  <Rbt.Current_Directory>
/home/itssahil/PROJECTS/Mol_Feturizer/New_Systems/rnas/2EEV

>  <Rbt.Executable>
rbdock ($Id: //depot/dev/client3/rdock/2013.1/src/exe/rbdock.cxx#4 $)

>  <Rbt.Library>
libRbt.so (2013.1, Build901 2013/11/27)

>  <Rbt.Parameter_File>
/export/apps/rDock/src/rDock_2013.1_src/data/scripts/dock_solv.prm

>  <Rbt.Receptor>
prm/pocket_docking_5.prm

>  <SCORE>
-19.2862

>  <SCORE.INTER>
-19.2862

>  <SCORE.INTER.CONST>
1

>  <SCORE.INTER.POLAR>
0

>  <SCORE.INTER.ROT>
0

>  <SCORE.INTER.SOLV>
4.70197

>  <SCORE.INTER.VDW>
-18.0248

>  <SCORE.INTER.norm>
-1.92862

>  <SCORE.INTRA>
0

>  <SCORE.INTRA.DIHEDRAL>
0

>  <SCORE.INTRA.DIHEDRAL.0>
0

>  <SCORE.INTRA.POLAR>
0

>  <SCORE.INTRA.POLAR.0>
0

>  <SCORE.INTRA.REPUL>
0

>  <SCORE.INTRA.REPUL.0>
0

>  <SCORE.INTRA.SOLV>
0

>  <SCORE.INTRA.SOLV.lig_0>
-4.25352

>  <SCORE.INTRA.VDW>
0

>  <SCORE.INTRA.VDW.0>
0

>  <SCORE.INTRA.norm>
0

>  <SCORE.RESTR>
0

>  <SCORE.RESTR.CAVITY>
0

>  <SCORE.RESTR.norm>
0

>  <SCORE.SYSTEM>
0

>  <SCORE.SYSTEM.CONST>
0

>  <SCORE.SYSTEM.DIHEDRAL>
0

>  <SCORE.SYSTEM.SOLV>
0

>  <SCORE.SYSTEM.norm>
0

>  <SCORE.heavy>
10

>  <SCORE.norm>
-1.92862

>  <RMSD>
2.411

$$$$
ligand
 OpenBabel11021811423D
libRbt.so/2013.1/901 2013/11/27
 10 11  0  0  0  0  0  0  0  0999 V2000
   53.5416  -13.3836    9.0528 N   0  0  0  0  0  0  0  0  0  0  0  0
   53.4229  -12.2016    8.3790 C   0  0  0  0  0  0  0  0  0  0  0  0
   53.5948  -12.1229    7.0337 N   0  0  0  0  0  0  0  0  0  0  0  0
   53.8810  -13.3279    6.4616 C   0  0  0  0  0  0  0  0  0  0  0  0
   54.0085  -14.5431    7.0923 C   0  0  0  0  0  0  0  0  0  0  0  0
   53.8403  -14.6310    8.4772 C   0  0  0  0  0  0  0  0  0  0  0  0
   53.9162  -15.6000    9.2033 O   0  0  0  0  0  0  0  0  0  0  0  0
   54.2984  -15.4947    6.1522 N   0  0  0  0  0  0  0  0  0  0  0  0
   54.3463  -14.8738    4.9782 C   0  0  0  0  0  0  0  0  0  0  0  0
   54.0950  -13.5219    5.1197 N   0  0  0  0  0  0  0  0  0  0  0  0
  1  2  1  0  0  0  0
  1  6  1  0  0  0  0
  2  3  2  0  0  0  0
  3  4  1  0  0  0  0
  4  5  2  0  0  0  0
  4 10  1  0  0  0  0
  5  6  1  0  0  0  0
  5  8  1  0  0  0  0
  6  7  2  0  0  0  0
  8  9  1  0  0  0  0
  9 10  2  0  0  0  0
M  END
>  <CHROM.1>
53.89443201,-13.99877389,7.23415123,2.29981498,-1.35393664,2.22017818

>  <Name>
ligand

>  <RI>
0

>  <Rbt.Current_Directory>
/home/itssahil/PROJECTS/Mol_Feturizer/New_Systems/rnas/2EEV

>  <Rbt.Executable>
rbdock ($Id: //depot/dev/client3/rdock/2013.1/src/exe/rbdock.cxx#4 $)

>  <Rbt.Library>
libRbt.so (2013.1, Build901 2013/11/27)

>  <Rbt.Parameter_File>
/export/apps/rDock/src/rDock_2013.1_src/data/scripts/dock_solv.prm

>  <Rbt.Receptor>
prm/pocket_docking_5.prm

>  <SCORE>
-19.3068

>  <SCORE.INTER>
-19.3068

>  <SCORE.INTER.CONST>
1

>  <SCORE.INTER.POLAR>
0

>  <SCORE.INTER.ROT>
0

>  <SCORE.INTER.SOLV>
4.70763

>  <SCORE.INTER.VDW>
-18.0404

>  <SCORE.INTER.norm>
-1.93068

>  <SCORE.INTRA>
0

>  <SCORE.INTRA.DIHEDRAL>
0

>  <SCORE.INTRA.DIHEDRAL.0>
0

>  <SCORE.INTRA.POLAR>
0

>  <SCORE.INTRA.POLAR.0>
0

>  <SCORE.INTRA.REPUL>
0

>  <SCORE.INTRA.REPUL.0>
0

>  <SCORE.INTRA.SOLV>
0

>  <SCORE.INTRA.SOLV.lig_0>
-4.25352

>  <SCORE.INTRA.VDW>
0

>  <SCORE.INTRA.VDW.0>
0

>  <SCORE.INTRA.norm>
0

>  <SCORE.RESTR>
0

>  <SCORE.RESTR.CAVITY>
0

>  <SCORE.RESTR.norm>
0

>  <SCORE.SYSTEM>
0

>  <SCORE.SYSTEM.CONST>
0

>  <SCORE.SYSTEM.DIHEDRAL>
0

>  <SCORE.SYSTEM.SOLV>
0

>  <SCORE.SYSTEM.norm>
0

>  <SCORE.heavy>
10

>  <SCORE.norm>
-1.93068

>  <RMSD>
2.411

$$$$
ligand
 OpenBabel11021811423D
libRbt.so/2013.1/901 2013/11/27
 10 11  0  0  0  0  0  0  0  0999 V2000
   53.5448  -13.3837    9.0556 N   0  0  0  0  0  0  0  0  0  0  0  0
   53.4176  -12.2030    8.3811 C   0  0  0  0  0  0  0  0  0  0  0  0
   53.5827  -12.1250    7.0349 N   0  0  0  0  0  0  0  0  0  0  0  0
   53.8715  -13.3293    6.4628 C   0  0  0  0  0  0  0  0  0  0  0  0
   54.0075  -14.5433    7.0942 C   0  0  0  0  0  0  0  0  0  0  0  0
   53.8463  -14.6304    8.4799 C   0  0  0  0  0  0  0  0  0  0  0  0
   53.9300  -15.5982    9.2067 O   0  0  0  0  0  0  0  0  0  0  0  0
   54.2972  -15.4946    6.1537 N   0  0  0  0  0  0  0  0  0  0  0  0
   54.3367  -14.8748    4.9788 C   0  0  0  0  0  0  0  0  0  0  0  0
   54.0800  -13.5238    5.1201 N   0  0  0  0  0  0  0  0  0  0  0  0
  1  2  1  0  0  0  0
  1  6  1  0  0  0  0
  2  3  2  0  0  0  0
  3  4  1  0  0  0  0
  4  5  2  0  0  0  0
  4 10  1  0  0  0  0
  5  6  1  0  0  0  0
  5  8  1  0  0  0  0
  6  7  2  0  0  0  0
  8  9  1  0  0  0  0
  9 10  2  0  0  0  0
M  END
>  <CHROM.1>
53.89168099,-13.99927249,7.23597593,2.26970984,-1.35315419,2.18970171

>  <Name>
ligand

>  <RI>
0

>  <Rbt.Current_Directory>
/home/itssahil/PROJECTS/Mol_Feturizer/New_Systems/rnas/2EEV

>  <Rbt.Executable>
rbdock ($Id: //depot/dev/client3/rdock/2013.1/src/exe/rbdock.cxx#4 $)

>  <Rbt.Library>
libRbt.so (2013.1, Build901 2013/11/27)

>  <Rbt.Parameter_File>
/export/apps/rDock/src/rDock_2013.1_src/data/scripts/dock_solv.prm

>  <Rbt.Receptor>
prm/pocket_docking_5.prm

>  <SCORE>
-19.297

>  <SCORE.INTER>
-19.297

>  <SCORE.INTER.CONST>
1

>  <SCORE.INTER.POLAR>
0

>  <SCORE.INTER.ROT>
0

>  <SCORE.INTER.SOLV>
4.69841

>  <SCORE.INTER.VDW>
-18.0308

>  <SCORE.INTER.norm>
-1.9297

>  <SCORE.INTRA>
0

>  <SCORE.INTRA.DIHEDRAL>
0

>  <SCORE.INTRA.DIHEDRAL.0>
0

>  <SCORE.INTRA.POLAR>
0

>  <SCORE.INTRA.POLAR.0>
0

>  <SCORE.INTRA.REPUL>
0

>  <SCORE.INTRA.REPUL.0>
0

>  <SCORE.INTRA.SOLV>
0

>  <SCORE.INTRA.SOLV.lig_0>
-4.25352

>  <SCORE.INTRA.VDW>
0

>  <SCORE.INTRA.VDW.0>
0

>  <SCORE.INTRA.norm>
0

>  <SCORE.RESTR>
0

>  <SCORE.RESTR.CAVITY>
0

>  <SCORE.RESTR.norm>
0

>  <SCORE.SYSTEM>
0

>  <SCORE.SYSTEM.CONST>
0

>  <SCORE.SYSTEM.DIHEDRAL>
0

>  <SCORE.SYSTEM.SOLV>
0

>  <SCORE.SYSTEM.norm>
0

>  <SCORE.heavy>
10

>  <SCORE.norm>
-1.9297

>  <RMSD>
2.411

$$$$
ligand
 OpenBabel11021811423D
libRbt.so/2013.1/901 2013/11/27
 10 11  0  0  0  0  0  0  0  0999 V2000
   53.5387  -13.3849    9.0567 N   0  0  0  0  0  0  0  0  0  0  0  0
   53.4094  -12.2050    8.3811 C   0  0  0  0  0  0  0  0  0  0  0  0
   53.5740  -12.1281    7.0348 N   0  0  0  0  0  0  0  0  0  0  0  0
   53.8647  -13.3325    6.4637 C   0  0  0  0  0  0  0  0  0  0  0  0
   54.0029  -14.5456    7.0963 C   0  0  0  0  0  0  0  0  0  0  0  0
   53.8422  -14.6316    8.4822 C   0  0  0  0  0  0  0  0  0  0  0  0
   53.9277  -15.5986    9.2099 O   0  0  0  0  0  0  0  0  0  0  0  0
   54.2939  -15.4974    6.1567 N   0  0  0  0  0  0  0  0  0  0  0  0
   54.3320  -14.8787    4.9812 C   0  0  0  0  0  0  0  0  0  0  0  0
   54.0731  -13.5280    5.1212 N   0  0  0  0  0  0  0  0  0  0  0  0
  1  2  1  0  0  0  0
  1  6  1  0  0  0  0
  2  3  2  0  0  0  0
  3  4  1  0  0  0  0
  4  5  2  0  0  0  0
  4 10  1  0  0  0  0
  5  6  1  0  0  0  0
  5  8  1  0  0  0  0
  6  7  2  0  0  0  0
  8  9  1  0  0  0  0
  9 10  2  0  0  0  0
M  END
>  <CHROM.1>
53.88615753,-14.00168598,7.23759626,2.26421752,-1.35194902,2.18334909

>  <Name>
ligand

>  <RI>
0

>  <Rbt.Current_Directory>
/home/itssahil/PROJECTS/Mol_Feturizer/New_Systems/rnas/2EEV

>  <Rbt.Executable>
rbdock ($Id: //depot/dev/client3/rdock/2013.1/src/exe/rbdock.cxx#4 $)

>  <Rbt.Library>
libRbt.so (2013.1, Build901 2013/11/27)

>  <Rbt.Parameter_File>
/export/apps/rDock/src/rDock_2013.1_src/data/scripts/dock_solv.prm

>  <Rbt.Receptor>
prm/pocket_docking_5.prm

>  <SCORE>
-19.2929

>  <SCORE.INTER>
-19.2929

>  <SCORE.INTER.CONST>
1

>  <SCORE.INTER.POLAR>
0

>  <SCORE.INTER.ROT>
0

>  <SCORE.INTER.SOLV>
4.70223

>  <SCORE.INTER.VDW>
-18.0294

>  <SCORE.INTER.norm>
-1.92929

>  <SCORE.INTRA>
0

>  <SCORE.INTRA.DIHEDRAL>
0

>  <SCORE.INTRA.DIHEDRAL.0>
0

>  <SCORE.INTRA.POLAR>
0

>  <SCORE.INTRA.POLAR.0>
0

>  <SCORE.INTRA.REPUL>
0

>  <SCORE.INTRA.REPUL.0>
0

>  <SCORE.INTRA.SOLV>
0

>  <SCORE.INTRA.SOLV.lig_0>
-4.25352

>  <SCORE.INTRA.VDW>
0

>  <SCORE.INTRA.VDW.0>
0

>  <SCORE.INTRA.norm>
0

>  <SCORE.RESTR>
0

>  <SCORE.RESTR.CAVITY>
0

>  <SCORE.RESTR.norm>
0

>  <SCORE.SYSTEM>
0

>  <SCORE.SYSTEM.CONST>
0

>  <SCORE.SYSTEM.DIHEDRAL>
0

>  <SCORE.SYSTEM.SOLV>
0

>  <SCORE.SYSTEM.norm>
0

>  <SCORE.heavy>
10

>  <SCORE.norm>
-1.92929

>  <RMSD>
2.411

$$$$
ligand
 OpenBabel11021811423D
libRbt.so/2013.1/901 2013/11/27
 10 11  0  0  0  0  0  0  0  0999 V2000
   53.5557  -13.3836    9.0432 N   0  0  0  0  0  0  0  0  0  0  0  0
   53.4356  -12.2027    8.3677 C   0  0  0  0  0  0  0  0  0  0  0  0
   53.6044  -12.1264    7.0218 N   0  0  0  0  0  0  0  0  0  0  0  0
   53.8891  -13.3324    6.4511 C   0  0  0  0  0  0  0  0  0  0  0  0
   54.0181  -14.5465    7.0837 C   0  0  0  0  0  0  0  0  0  0  0  0
   53.8530  -14.6320    8.4691 C   0  0  0  0  0  0  0  0  0  0  0  0
   53.9305  -15.5997    9.1968 O   0  0  0  0  0  0  0  0  0  0  0  0
   54.3057  -15.4998    6.1446 N   0  0  0  0  0  0  0  0  0  0  0  0
   54.3510  -14.8809    4.9694 C   0  0  0  0  0  0  0  0  0  0  0  0
   54.1001  -13.5288    5.1091 N   0  0  0  0  0  0  0  0  0  0  0  0
  1  2  1  0  0  0  0
  1  6  1  0  0  0  0
  2  3  2  0  0  0  0
  3  4  1  0  0  0  0
  4  5  2  0  0  0  0
  4 10  1  0  0  0  0
  5  6  1  0  0  0  0
  5  8  1  0  0  0  0
  6  7  2  0  0  0  0
  8  9  1  0  0  0  0
  9 10  2  0  0  0  0
M  END
>  <CHROM.1>
53.90433403,-14.00191522,7.22486225,2.29147038,-1.35536218,2.21028378

>  <Name>
ligand

>  <RI>
0

>  <Rbt.Current_Directory>
/home/itssahil/PROJECTS/Mol_Feturizer/New_Systems/rnas/2EEV

>  <Rbt.Executable>
rbdock ($Id: //depot/dev/client3/rdock/2013.1/src/exe/rbdock.cxx#4 $)

>  <Rbt.Library>
libRbt.so (2013.1, Build901 2013/11/27)

>  <Rbt.Parameter_File>
/export/apps/rDock/src/rDock_2013.1_src/data/scripts/dock_solv.prm

>  <Rbt.Receptor>
prm/pocket_docking_6.prm

>  <SCORE>
-19.2979

>  <SCORE.INTER>
-19.2979

>  <SCORE.INTER.CONST>
1

>  <SCORE.INTER.POLAR>
0

>  <SCORE.INTER.ROT>
0

>  <SCORE.INTER.SOLV>
4.69549

>  <SCORE.INTER.VDW>
-18.0305

>  <SCORE.INTER.norm>
-1.92979

>  <SCORE.INTRA>
0

>  <SCORE.INTRA.DIHEDRAL>
0

>  <SCORE.INTRA.DIHEDRAL.0>
0

>  <SCORE.INTRA.POLAR>
0

>  <SCORE.INTRA.POLAR.0>
0

>  <SCORE.INTRA.REPUL>
0

>  <SCORE.INTRA.REPUL.0>
0

>  <SCORE.INTRA.SOLV>
0

>  <SCORE.INTRA.SOLV.lig_0>
-4.25352

>  <SCORE.INTRA.VDW>
0

>  <SCORE.INTRA.VDW.0>
0

>  <SCORE.INTRA.norm>
0

>  <SCORE.RESTR>
0

>  <SCORE.RESTR.CAVITY>
0

>  <SCORE.RESTR.norm>
0

>  <SCORE.SYSTEM>
0

>  <SCORE.SYSTEM.CONST>
0

>  <SCORE.SYSTEM.DIHEDRAL>
0

>  <SCORE.SYSTEM.SOLV>
0

>  <SCORE.SYSTEM.norm>
0

>  <SCORE.heavy>
10

>  <SCORE.norm>
-1.92979

>  <RMSD>
2.411

$$$$
ligand
 OpenBabel11021811423D
libRbt.so/2013.1/901 2013/11/27
 10 11  0  0  0  0  0  0  0  0999 V2000
   53.5381  -13.3823    9.0495 N   0  0  0  0  0  0  0  0  0  0  0  0
   53.4178  -12.2024    8.3723 C   0  0  0  0  0  0  0  0  0  0  0  0
   53.5889  -12.1275    7.0267 N   0  0  0  0  0  0  0  0  0  0  0  0
   53.8759  -13.3339    6.4580 C   0  0  0  0  0  0  0  0  0  0  0  0
   54.0050  -14.5471    7.0922 C   0  0  0  0  0  0  0  0  0  0  0  0
   53.8377  -14.6311    8.4774 C   0  0  0  0  0  0  0  0  0  0  0  0
   53.9150  -15.5979    9.2063 O   0  0  0  0  0  0  0  0  0  0  0  0
   54.2953  -15.5011    6.1546 N   0  0  0  0  0  0  0  0  0  0  0  0
   54.3419  -14.8837    4.9788 C   0  0  0  0  0  0  0  0  0  0  0  0
   54.0893  -13.5316    5.1165 N   0  0  0  0  0  0  0  0  0  0  0  0
  1  2  1  0  0  0  0
  1  6  1  0  0  0  0
  2  3  2  0  0  0  0
  3  4  1  0  0  0  0
  4  5  2  0  0  0  0
  4 10  1  0  0  0  0
  5  6  1  0  0  0  0
  5  8  1  0  0  0  0
  6  7  2  0  0  0  0
  8  9  1  0  0  0  0
  9 10  2  0  0  0  0
M  END
>  <CHROM.1>
53.89047647,-14.00244542,7.23248843,2.29484831,-1.35347619,2.21239693

>  <Name>
ligand

>  <RI>
0

>  <Rbt.Current_Directory>
/home/itssahil/PROJECTS/Mol_Feturizer/New_Systems/rnas/2EEV

>  <Rbt.Executable>
rbdock ($Id: //depot/dev/client3/rdock/2013.1/src/exe/rbdock.cxx#4 $)

>  <Rbt.Library>
libRbt.so (2013.1, Build901 2013/11/27)

>  <Rbt.Parameter_File>
/export/apps/rDock/src/rDock_2013.1_src/data/scripts/dock_solv.prm

>  <Rbt.Receptor>
prm/pocket_docking_6.prm

>  <SCORE>
-19.3022

>  <SCORE.INTER>
-19.3022

>  <SCORE.INTER.CONST>
1

>  <SCORE.INTER.POLAR>
0

>  <SCORE.INTER.ROT>
0

>  <SCORE.INTER.SOLV>
4.70814

>  <SCORE.INTER.VDW>
-18.0375

>  <SCORE.INTER.norm>
-1.93022

>  <SCORE.INTRA>
0

>  <SCORE.INTRA.DIHEDRAL>
0

>  <SCORE.INTRA.DIHEDRAL.0>
0

>  <SCORE.INTRA.POLAR>
0

>  <SCORE.INTRA.POLAR.0>
0

>  <SCORE.INTRA.REPUL>
0

>  <SCORE.INTRA.REPUL.0>
0

>  <SCORE.INTRA.SOLV>
0

>  <SCORE.INTRA.SOLV.lig_0>
-4.25352

>  <SCORE.INTRA.VDW>
0

>  <SCORE.INTRA.VDW.0>
0

>  <SCORE.INTRA.norm>
0

>  <SCORE.RESTR>
0

>  <SCORE.RESTR.CAVITY>
0

>  <SCORE.RESTR.norm>
0

>  <SCORE.SYSTEM>
0

>  <SCORE.SYSTEM.CONST>
0

>  <SCORE.SYSTEM.DIHEDRAL>
0

>  <SCORE.SYSTEM.SOLV>
0

>  <SCORE.SYSTEM.norm>
0

>  <SCORE.heavy>
10

>  <SCORE.norm>
-1.93022

>  <RMSD>
2.411

$$$$
ligand
 OpenBabel11021811423D
libRbt.so/2013.1/901 2013/11/27
 10 11  0  0  0  0  0  0  0  0999 V2000
   53.5380  -13.3856    9.0570 N   0  0  0  0  0  0  0  0  0  0  0  0
   53.4078  -12.2056    8.3818 C   0  0  0  0  0  0  0  0  0  0  0  0
   53.5724  -12.1282    7.0354 N   0  0  0  0  0  0  0  0  0  0  0  0
   53.8640  -13.3323    6.4641 C   0  0  0  0  0  0  0  0  0  0  0  0
   54.0031  -14.5454    7.0964 C   0  0  0  0  0  0  0  0  0  0  0  0
   53.8424  -14.6319    8.4822 C   0  0  0  0  0  0  0  0  0  0  0  0
   53.9287  -15.5990    9.2097 O   0  0  0  0  0  0  0  0  0  0  0  0
   54.2948  -15.4968    6.1565 N   0  0  0  0  0  0  0  0  0  0  0  0
   54.3325  -14.8777    4.9812 C   0  0  0  0  0  0  0  0  0  0  0  0
   54.0727  -13.5273    5.1215 N   0  0  0  0  0  0  0  0  0  0  0  0
  1  2  1  0  0  0  0
  1  6  1  0  0  0  0
  2  3  2  0  0  0  0
  3  4  1  0  0  0  0
  4  5  2  0  0  0  0
  4 10  1  0  0  0  0
  5  6  1  0  0  0  0
  5  8  1  0  0  0  0
  6  7  2  0  0  0  0
  8  9  1  0  0  0  0
  9 10  2  0  0  0  0
M  END
>  <CHROM.1>
53.88597271,-14.00164136,7.23779756,2.26233200,-1.35131228,2.18175663

>  <Name>
ligand

>  <RI>
0

>  <Rbt.Current_Directory>
/home/itssahil/PROJECTS/Mol_Feturizer/New_Systems/rnas/2EEV

>  <Rbt.Executable>
rbdock ($Id: //depot/dev/client3/rdock/2013.1/src/exe/rbdock.cxx#4 $)

>  <Rbt.Library>
libRbt.so (2013.1, Build901 2013/11/27)

>  <Rbt.Parameter_File>
/export/apps/rDock/src/rDock_2013.1_src/data/scripts/dock_solv.prm

>  <Rbt.Receptor>
prm/pocket_docking_6.prm

>  <SCORE>
-19.2925

>  <SCORE.INTER>
-19.2925

>  <SCORE.INTER.CONST>
1

>  <SCORE.INTER.POLAR>
0

>  <SCORE.INTER.ROT>
0

>  <SCORE.INTER.SOLV>
4.70142

>  <SCORE.INTER.VDW>
-18.0288

>  <SCORE.INTER.norm>
-1.92925

>  <SCORE.INTRA>
0

>  <SCORE.INTRA.DIHEDRAL>
0

>  <SCORE.INTRA.DIHEDRAL.0>
0

>  <SCORE.INTRA.POLAR>
0

>  <SCORE.INTRA.POLAR.0>
0

>  <SCORE.INTRA.REPUL>
0

>  <SCORE.INTRA.REPUL.0>
0

>  <SCORE.INTRA.SOLV>
0

>  <SCORE.INTRA.SOLV.lig_0>
-4.25352

>  <SCORE.INTRA.VDW>
0

>  <SCORE.INTRA.VDW.0>
0

>  <SCORE.INTRA.norm>
0

>  <SCORE.RESTR>
0

>  <SCORE.RESTR.CAVITY>
0

>  <SCORE.RESTR.norm>
0

>  <SCORE.SYSTEM>
0

>  <SCORE.SYSTEM.CONST>
0

>  <SCORE.SYSTEM.DIHEDRAL>
0

>  <SCORE.SYSTEM.SOLV>
0

>  <SCORE.SYSTEM.norm>
0

>  <SCORE.heavy>
10

>  <SCORE.norm>
-1.92925

>  <RMSD>
2.411

$$$$
ligand
 OpenBabel11021811423D
libRbt.so/2013.1/901 2013/11/27
 10 11  0  0  0  0  0  0  0  0999 V2000
   53.5410  -13.3806    9.0502 N   0  0  0  0  0  0  0  0  0  0  0  0
   53.4245  -12.1998    8.3739 C   0  0  0  0  0  0  0  0  0  0  0  0
   53.5969  -12.1243    7.0284 N   0  0  0  0  0  0  0  0  0  0  0  0
   53.8812  -13.3311    6.4590 C   0  0  0  0  0  0  0  0  0  0  0  0
   54.0065  -14.5451    7.0924 C   0  0  0  0  0  0  0  0  0  0  0  0
   53.8378  -14.6297    8.4774 C   0  0  0  0  0  0  0  0  0  0  0  0
   53.9119  -15.5973    9.2057 O   0  0  0  0  0  0  0  0  0  0  0  0
   54.2951  -15.4992    6.1544 N   0  0  0  0  0  0  0  0  0  0  0  0
   54.3443  -14.8810    4.9791 C   0  0  0  0  0  0  0  0  0  0  0  0
   54.0952  -13.5283    5.1176 N   0  0  0  0  0  0  0  0  0  0  0  0
  1  2  1  0  0  0  0
  1  6  1  0  0  0  0
  2  3  2  0  0  0  0
  3  4  1  0  0  0  0
  4  5  2  0  0  0  0
  4 10  1  0  0  0  0
  5  6  1  0  0  0  0
  5  8  1  0  0  0  0
  6  7  2  0  0  0  0
  8  9  1  0  0  0  0
  9 10  2  0  0  0  0
M  END
>  <CHROM.1>
53.89330615,-14.00029006,7.23304560,2.30556113,-1.35511052,2.22362533

>  <Name>
ligand

>  <RI>
0

>  <Rbt.Current_Directory>
/home/itssahil/PROJECTS/Mol_Feturizer/New_Systems/rnas/2EEV

>  <Rbt.Executable>
rbdock ($Id: //depot/dev/client3/rdock/2013.1/src/exe/rbdock.cxx#4 $)

>  <Rbt.Library>
libRbt.so (2013.1, Build901 2013/11/27)

>  <Rbt.Parameter_File>
/export/apps/rDock/src/rDock_2013.1_src/data/scripts/dock_solv.prm

>  <Rbt.Receptor>
prm/pocket_docking_6.prm

>  <SCORE>
-19.3057

>  <SCORE.INTER>
-19.3057

>  <SCORE.INTER.CONST>
1

>  <SCORE.INTER.POLAR>
0

>  <SCORE.INTER.ROT>
0

>  <SCORE.INTER.SOLV>
4.70985

>  <SCORE.INTER.VDW>
-18.0404

>  <SCORE.INTER.norm>
-1.93057

>  <SCORE.INTRA>
0

>  <SCORE.INTRA.DIHEDRAL>
0

>  <SCORE.INTRA.DIHEDRAL.0>
0

>  <SCORE.INTRA.POLAR>
0

>  <SCORE.INTRA.POLAR.0>
0

>  <SCORE.INTRA.REPUL>
0

>  <SCORE.INTRA.REPUL.0>
0

>  <SCORE.INTRA.SOLV>
0

>  <SCORE.INTRA.SOLV.lig_0>
-4.25352

>  <SCORE.INTRA.VDW>
0

>  <SCORE.INTRA.VDW.0>
0

>  <SCORE.INTRA.norm>
0

>  <SCORE.RESTR>
0

>  <SCORE.RESTR.CAVITY>
0

>  <SCORE.RESTR.norm>
0

>  <SCORE.SYSTEM>
0

>  <SCORE.SYSTEM.CONST>
0

>  <SCORE.SYSTEM.DIHEDRAL>
0

>  <SCORE.SYSTEM.SOLV>
0

>  <SCORE.SYSTEM.norm>
0

>  <SCORE.heavy>
10

>  <SCORE.norm>
-1.93057

>  <RMSD>
2.411

$$$$
ligand
 OpenBabel11021811423D
libRbt.so/2013.1/901 2013/11/27
 10 11  0  0  0  0  0  0  0  0999 V2000
   53.5731  -13.3680    9.0205 N   0  0  0  0  0  0  0  0  0  0  0  0
   53.4758  -12.1935    8.3304 C   0  0  0  0  0  0  0  0  0  0  0  0
   53.6449  -12.1373    6.9836 N   0  0  0  0  0  0  0  0  0  0  0  0
   53.9051  -13.3558    6.4278 C   0  0  0  0  0  0  0  0  0  0  0  0
   54.0105  -14.5642    7.0754 C   0  0  0  0  0  0  0  0  0  0  0  0
   53.8450  -14.6291    8.4619 C   0  0  0  0  0  0  0  0  0  0  0  0
   53.9039  -15.5891    9.2015 O   0  0  0  0  0  0  0  0  0  0  0  0
   54.2783  -15.5346    6.1480 N   0  0  0  0  0  0  0  0  0  0  0  0
   54.3348  -14.9315    4.9652 C   0  0  0  0  0  0  0  0  0  0  0  0
   54.1109  -13.5730    5.0882 N   0  0  0  0  0  0  0  0  0  0  0  0
  1  2  1  0  0  0  0
  1  6  1  0  0  0  0
  2  3  2  0  0  0  0
  3  4  1  0  0  0  0
  4  5  2  0  0  0  0
  4 10  1  0  0  0  0
  5  6  1  0  0  0  0
  5  8  1  0  0  0  0
  6  7  2  0  0  0  0
  8  9  1  0  0  0  0
  9 10  2  0  0  0  0
M  END
>  <CHROM.1>
53.90770481,-14.01574987,7.20981812,2.34772081,-1.37152163,2.25286869

>  <Name>
ligand

>  <RI>
0

>  <Rbt.Current_Directory>
/home/itssahil/PROJECTS/Mol_Feturizer/New_Systems/rnas/2EEV

>  <Rbt.Executable>
rbdock ($Id: //depot/dev/client3/rdock/2013.1/src/exe/rbdock.cxx#4 $)

>  <Rbt.Library>
libRbt.so (2013.1, Build901 2013/11/27)

>  <Rbt.Parameter_File>
/export/apps/rDock/src/rDock_2013.1_src/data/scripts/dock_solv.prm

>  <Rbt.Receptor>
prm/pocket_docking_6.prm

>  <SCORE>
-19.2519

>  <SCORE.INTER>
-19.2519

>  <SCORE.INTER.CONST>
1

>  <SCORE.INTER.POLAR>
0

>  <SCORE.INTER.ROT>
0

>  <SCORE.INTER.SOLV>
4.7238

>  <SCORE.INTER.VDW>
-18.0092

>  <SCORE.INTER.norm>
-1.92519

>  <SCORE.INTRA>
0

>  <SCORE.INTRA.DIHEDRAL>
0

>  <SCORE.INTRA.DIHEDRAL.0>
0

>  <SCORE.INTRA.POLAR>
0

>  <SCORE.INTRA.POLAR.0>
0

>  <SCORE.INTRA.REPUL>
0

>  <SCORE.INTRA.REPUL.0>
0

>  <SCORE.INTRA.SOLV>
0

>  <SCORE.INTRA.SOLV.lig_0>
-4.25352

>  <SCORE.INTRA.VDW>
0

>  <SCORE.INTRA.VDW.0>
0

>  <SCORE.INTRA.norm>
0

>  <SCORE.RESTR>
0

>  <SCORE.RESTR.CAVITY>
0

>  <SCORE.RESTR.norm>
0

>  <SCORE.SYSTEM>
0

>  <SCORE.SYSTEM.CONST>
0

>  <SCORE.SYSTEM.DIHEDRAL>
0

>  <SCORE.SYSTEM.SOLV>
0

>  <SCORE.SYSTEM.norm>
0

>  <SCORE.heavy>
10

>  <SCORE.norm>
-1.92519

>  <RMSD>
2.411

$$$$
ligand
 OpenBabel11021811423D
libRbt.so/2013.1/901 2013/11/27
 10 11  0  0  0  0  0  0  0  0999 V2000
   53.5409  -13.3803    9.0525 N   0  0  0  0  0  0  0  0  0  0  0  0
   53.4239  -12.1988    8.3777 C   0  0  0  0  0  0  0  0  0  0  0  0
   53.5972  -12.1213    7.0325 N   0  0  0  0  0  0  0  0  0  0  0  0
   53.8831  -13.3270    6.4617 C   0  0  0  0  0  0  0  0  0  0  0  0
   54.0091  -14.5418    7.0936 C   0  0  0  0  0  0  0  0  0  0  0  0
   53.8393  -14.6284    8.4783 C   0  0  0  0  0  0  0  0  0  0  0  0
   53.9137  -15.5968    9.2053 O   0  0  0  0  0  0  0  0  0  0  0  0
   54.2992  -15.4944    6.1545 N   0  0  0  0  0  0  0  0  0  0  0  0
   54.3488  -14.8745    4.9800 C   0  0  0  0  0  0  0  0  0  0  0  0
   54.0984  -13.5223    5.1201 N   0  0  0  0  0  0  0  0  0  0  0  0
  1  2  1  0  0  0  0
  1  6  1  0  0  0  0
  2  3  2  0  0  0  0
  3  4  1  0  0  0  0
  4  5  2  0  0  0  0
  4 10  1  0  0  0  0
  5  6  1  0  0  0  0
  5  8  1  0  0  0  0
  6  7  2  0  0  0  0
  8  9  1  0  0  0  0
  9 10  2  0  0  0  0
M  END
>  <CHROM.1>
53.89523188,-13.99723521,7.23480607,2.30583044,-1.35388638,2.22522999

>  <Name>
ligand

>  <RI>
0

>  <Rbt.Current_Directory>
/home/itssahil/PROJECTS/Mol_Feturizer/New_Systems/rnas/2EEV

>  <Rbt.Executable>
rbdock ($Id: //depot/dev/client3/rdock/2013.1/src/exe/rbdock.cxx#4 $)

>  <Rbt.Library>
libRbt.so (2013.1, Build901 2013/11/27)

>  <Rbt.Parameter_File>
/export/apps/rDock/src/rDock_2013.1_src/data/scripts/dock_solv.prm

>  <Rbt.Receptor>
prm/pocket_docking_7.prm

>  <SCORE>
-19.3073

>  <SCORE.INTER>
-19.3073

>  <SCORE.INTER.CONST>
1

>  <SCORE.INTER.POLAR>
0

>  <SCORE.INTER.ROT>
0

>  <SCORE.INTER.SOLV>
4.70652

>  <SCORE.INTER.VDW>
-18.0404

>  <SCORE.INTER.norm>
-1.93073

>  <SCORE.INTRA>
0

>  <SCORE.INTRA.DIHEDRAL>
0

>  <SCORE.INTRA.DIHEDRAL.0>
0

>  <SCORE.INTRA.POLAR>
0

>  <SCORE.INTRA.POLAR.0>
0

>  <SCORE.INTRA.REPUL>
0

>  <SCORE.INTRA.REPUL.0>
0

>  <SCORE.INTRA.SOLV>
0

>  <SCORE.INTRA.SOLV.lig_0>
-4.25352

>  <SCORE.INTRA.VDW>
0

>  <SCORE.INTRA.VDW.0>
0

>  <SCORE.INTRA.norm>
0

>  <SCORE.RESTR>
0

>  <SCORE.RESTR.CAVITY>
0

>  <SCORE.RESTR.norm>
0

>  <SCORE.SYSTEM>
0

>  <SCORE.SYSTEM.CONST>
0

>  <SCORE.SYSTEM.DIHEDRAL>
0

>  <SCORE.SYSTEM.SOLV>
0

>  <SCORE.SYSTEM.norm>
0

>  <SCORE.heavy>
10

>  <SCORE.norm>
-1.93073

>  <RMSD>
2.411

$$$$
ligand
 OpenBabel11021811423D
libRbt.so/2013.1/901 2013/11/27
 10 11  0  0  0  0  0  0  0  0999 V2000
   53.5297  -13.3845    9.0550 N   0  0  0  0  0  0  0  0  0  0  0  0
   53.4053  -12.2032    8.3808 C   0  0  0  0  0  0  0  0  0  0  0  0
   53.5782  -12.1239    7.0357 N   0  0  0  0  0  0  0  0  0  0  0  0
   53.8713  -13.3275    6.4641 C   0  0  0  0  0  0  0  0  0  0  0  0
   54.0048  -14.5419    7.0953 C   0  0  0  0  0  0  0  0  0  0  0  0
   53.8356  -14.6303    8.4800 C   0  0  0  0  0  0  0  0  0  0  0  0
   53.9160  -15.5988    9.2064 O   0  0  0  0  0  0  0  0  0  0  0  0
   54.3007  -15.4921    6.1556 N   0  0  0  0  0  0  0  0  0  0  0  0
   54.3464  -14.8712    4.9815 C   0  0  0  0  0  0  0  0  0  0  0  0
   54.0877  -13.5207    5.1225 N   0  0  0  0  0  0  0  0  0  0  0  0
  1  2  1  0  0  0  0
  1  6  1  0  0  0  0
  2  3  2  0  0  0  0
  3  4  1  0  0  0  0
  4  5  2  0  0  0  0
  4 10  1  0  0  0  0
  5  6  1  0  0  0  0
  5  8  1  0  0  0  0
  6  7  2  0  0  0  0
  8  9  1  0  0  0  0
  9 10  2  0  0  0  0
M  END
>  <CHROM.1>
53.88761679,-13.99811898,7.23685380,2.28872296,-1.34905036,2.20913006

>  <Name>
ligand

>  <RI>
0

>  <Rbt.Current_Directory>
/home/itssahil/PROJECTS/Mol_Feturizer/New_Systems/rnas/2EEV

>  <Rbt.Executable>
rbdock ($Id: //depot/dev/client3/rdock/2013.1/src/exe/rbdock.cxx#4 $)

>  <Rbt.Library>
libRbt.so (2013.1, Build901 2013/11/27)

>  <Rbt.Parameter_File>
/export/apps/rDock/src/rDock_2013.1_src/data/scripts/dock_solv.prm

>  <Rbt.Receptor>
prm/pocket_docking_7.prm

>  <SCORE>
-19.3027

>  <SCORE.INTER>
-19.3027

>  <SCORE.INTER.CONST>
1

>  <SCORE.INTER.POLAR>
0

>  <SCORE.INTER.ROT>
0

>  <SCORE.INTER.SOLV>
4.70595

>  <SCORE.INTER.VDW>
-18.0371

>  <SCORE.INTER.norm>
-1.93027

>  <SCORE.INTRA>
0

>  <SCORE.INTRA.DIHEDRAL>
0

>  <SCORE.INTRA.DIHEDRAL.0>
0

>  <SCORE.INTRA.POLAR>
0

>  <SCORE.INTRA.POLAR.0>
0

>  <SCORE.INTRA.REPUL>
0

>  <SCORE.INTRA.REPUL.0>
0

>  <SCORE.INTRA.SOLV>
0

>  <SCORE.INTRA.SOLV.lig_0>
-4.25352

>  <SCORE.INTRA.VDW>
0

>  <SCORE.INTRA.VDW.0>
0

>  <SCORE.INTRA.norm>
0

>  <SCORE.RESTR>
0

>  <SCORE.RESTR.CAVITY>
0

>  <SCORE.RESTR.norm>
0

>  <SCORE.SYSTEM>
0

>  <SCORE.SYSTEM.CONST>
0

>  <SCORE.SYSTEM.DIHEDRAL>
0

>  <SCORE.SYSTEM.SOLV>
0

>  <SCORE.SYSTEM.norm>
0

>  <SCORE.heavy>
10

>  <SCORE.norm>
-1.93027

>  <RMSD>
2.411

$$$$
ligand
 OpenBabel11021811423D
libRbt.so/2013.1/901 2013/11/27
 10 11  0  0  0  0  0  0  0  0999 V2000
   53.5278  -13.3860    9.0590 N   0  0  0  0  0  0  0  0  0  0  0  0
   53.3991  -12.2068    8.3822 C   0  0  0  0  0  0  0  0  0  0  0  0
   53.5657  -12.1310    7.0360 N   0  0  0  0  0  0  0  0  0  0  0  0
   53.8577  -13.3358    6.4665 C   0  0  0  0  0  0  0  0  0  0  0  0
   53.9953  -14.5483    7.1004 C   0  0  0  0  0  0  0  0  0  0  0  0
   53.8326  -14.6331    8.4861 C   0  0  0  0  0  0  0  0  0  0  0  0
   53.9173  -15.5994    9.2148 O   0  0  0  0  0  0  0  0  0  0  0  0
   54.2881  -15.5008    6.1620 N   0  0  0  0  0  0  0  0  0  0  0  0
   54.3278  -14.8831    4.9860 C   0  0  0  0  0  0  0  0  0  0  0  0
   54.0682  -13.5324    5.1244 N   0  0  0  0  0  0  0  0  0  0  0  0
  1  2  1  0  0  0  0
  1  6  1  0  0  0  0
  2  3  2  0  0  0  0
  3  4  1  0  0  0  0
  4  5  2  0  0  0  0
  4 10  1  0  0  0  0
  5  6  1  0  0  0  0
  5  8  1  0  0  0  0
  6  7  2  0  0  0  0
  8  9  1  0  0  0  0
  9 10  2  0  0  0  0
M  END
>  <CHROM.1>
53.87820465,-14.00427865,7.24100972,2.26900361,-1.35079815,2.18713094

>  <Name>
ligand

>  <RI>
0

>  <Rbt.Current_Directory>
/home/itssahil/PROJECTS/Mol_Feturizer/New_Systems/rnas/2EEV

>  <Rbt.Executable>
rbdock ($Id: //depot/dev/client3/rdock/2013.1/src/exe/rbdock.cxx#4 $)

>  <Rbt.Library>
libRbt.so (2013.1, Build901 2013/11/27)

>  <Rbt.Parameter_File>
/export/apps/rDock/src/rDock_2013.1_src/data/scripts/dock_solv.prm

>  <Rbt.Receptor>
prm/pocket_docking_7.prm

>  <SCORE>
-19.2908

>  <SCORE.INTER>
-19.2908

>  <SCORE.INTER.CONST>
1

>  <SCORE.INTER.POLAR>
0

>  <SCORE.INTER.ROT>
0

>  <SCORE.INTER.SOLV>
4.71308

>  <SCORE.INTER.VDW>
-18.0315

>  <SCORE.INTER.norm>
-1.92908

>  <SCORE.INTRA>
0

>  <SCORE.INTRA.DIHEDRAL>
0

>  <SCORE.INTRA.DIHEDRAL.0>
0

>  <SCORE.INTRA.POLAR>
0

>  <SCORE.INTRA.POLAR.0>
0

>  <SCORE.INTRA.REPUL>
0

>  <SCORE.INTRA.REPUL.0>
0

>  <SCORE.INTRA.SOLV>
0

>  <SCORE.INTRA.SOLV.lig_0>
-4.25352

>  <SCORE.INTRA.VDW>
0

>  <SCORE.INTRA.VDW.0>
0

>  <SCORE.INTRA.norm>
0

>  <SCORE.RESTR>
0

>  <SCORE.RESTR.CAVITY>
0

>  <SCORE.RESTR.norm>
0

>  <SCORE.SYSTEM>
0

>  <SCORE.SYSTEM.CONST>
0

>  <SCORE.SYSTEM.DIHEDRAL>
0

>  <SCORE.SYSTEM.SOLV>
0

>  <SCORE.SYSTEM.norm>
0

>  <SCORE.heavy>
10

>  <SCORE.norm>
-1.92908

>  <RMSD>
2.411

$$$$
ligand
 OpenBabel11021811423D
libRbt.so/2013.1/901 2013/11/27
 10 11  0  0  0  0  0  0  0  0999 V2000
   53.5366  -13.3863    9.0582 N   0  0  0  0  0  0  0  0  0  0  0  0
   53.4053  -12.2062    8.3834 C   0  0  0  0  0  0  0  0  0  0  0  0
   53.5696  -12.1281    7.0371 N   0  0  0  0  0  0  0  0  0  0  0  0
   53.8622  -13.3317    6.4652 C   0  0  0  0  0  0  0  0  0  0  0  0
   54.0025  -14.5450    7.0970 C   0  0  0  0  0  0  0  0  0  0  0  0
   53.8421  -14.6322    8.4828 C   0  0  0  0  0  0  0  0  0  0  0  0
   53.9292  -15.5995    9.2099 O   0  0  0  0  0  0  0  0  0  0  0  0
   54.2949  -15.4957    6.1567 N   0  0  0  0  0  0  0  0  0  0  0  0
   54.3319  -14.8761    4.9816 C   0  0  0  0  0  0  0  0  0  0  0  0
   54.0708  -13.5260    5.1225 N   0  0  0  0  0  0  0  0  0  0  0  0
  1  2  1  0  0  0  0
  1  6  1  0  0  0  0
  2  3  2  0  0  0  0
  3  4  1  0  0  0  0
  4  5  2  0  0  0  0
  4 10  1  0  0  0  0
  5  6  1  0  0  0  0
  5  8  1  0  0  0  0
  6  7  2  0  0  0  0
  8  9  1  0  0  0  0
  9 10  2  0  0  0  0
M  END
>  <CHROM.1>
53.88486060,-14.00134886,7.23865546,2.25950065,-1.35066631,2.17939333

>  <Name>
ligand

>  <RI>
0

>  <Rbt.Current_Directory>
/home/itssahil/PROJECTS/Mol_Feturizer/New_Systems/rnas/2EEV

>  <Rbt.Executable>
rbdock ($Id: //depot/dev/client3/rdock/2013.1/src/exe/rbdock.cxx#4 $)

>  <Rbt.Library>
libRbt.so (2013.1, Build901 2013/11/27)

>  <Rbt.Parameter_File>
/export/apps/rDock/src/rDock_2013.1_src/data/scripts/dock_solv.prm

>  <Rbt.Receptor>
prm/pocket_docking_7.prm

>  <SCORE>
-19.2911

>  <SCORE.INTER>
-19.2911

>  <SCORE.INTER.CONST>
1

>  <SCORE.INTER.POLAR>
0

>  <SCORE.INTER.ROT>
0

>  <SCORE.INTER.SOLV>
4.70142

>  <SCORE.INTER.VDW>
-18.0279

>  <SCORE.INTER.norm>
-1.92911

>  <SCORE.INTRA>
0

>  <SCORE.INTRA.DIHEDRAL>
0

>  <SCORE.INTRA.DIHEDRAL.0>
0

>  <SCORE.INTRA.POLAR>
0

>  <SCORE.INTRA.POLAR.0>
0

>  <SCORE.INTRA.REPUL>
0

>  <SCORE.INTRA.REPUL.0>
0

>  <SCORE.INTRA.SOLV>
0

>  <SCORE.INTRA.SOLV.lig_0>
-4.25352

>  <SCORE.INTRA.VDW>
0

>  <SCORE.INTRA.VDW.0>
0

>  <SCORE.INTRA.norm>
0

>  <SCORE.RESTR>
0

>  <SCORE.RESTR.CAVITY>
0

>  <SCORE.RESTR.norm>
0

>  <SCORE.SYSTEM>
0

>  <SCORE.SYSTEM.CONST>
0

>  <SCORE.SYSTEM.DIHEDRAL>
0

>  <SCORE.SYSTEM.SOLV>
0

>  <SCORE.SYSTEM.norm>
0

>  <SCORE.heavy>
10

>  <SCORE.norm>
-1.92911

>  <RMSD>
2.411

$$$$
ligand
 OpenBabel11021811423D
libRbt.so/2013.1/901 2013/11/27
 10 11  0  0  0  0  0  0  0  0999 V2000
   53.5321  -13.3863    9.0563 N   0  0  0  0  0  0  0  0  0  0  0  0
   53.4043  -12.2053    8.3825 C   0  0  0  0  0  0  0  0  0  0  0  0
   53.5746  -12.1256    7.0370 N   0  0  0  0  0  0  0  0  0  0  0  0
   53.8691  -13.3286    6.4649 C   0  0  0  0  0  0  0  0  0  0  0  0
   54.0059  -14.5427    7.0957 C   0  0  0  0  0  0  0  0  0  0  0  0
   53.8394  -14.6316    8.4807 C   0  0  0  0  0  0  0  0  0  0  0  0
   53.9229  -15.5999    9.2069 O   0  0  0  0  0  0  0  0  0  0  0  0
   54.3020  -15.4923    6.1555 N   0  0  0  0  0  0  0  0  0  0  0  0
   54.3445  -14.8713    4.9814 C   0  0  0  0  0  0  0  0  0  0  0  0
   54.0835  -13.5212    5.1228 N   0  0  0  0  0  0  0  0  0  0  0  0
  1  2  1  0  0  0  0
  1  6  1  0  0  0  0
  2  3  2  0  0  0  0
  3  4  1  0  0  0  0
  4  5  2  0  0  0  0
  4 10  1  0  0  0  0
  5  6  1  0  0  0  0
  5  8  1  0  0  0  0
  6  7  2  0  0  0  0
  8  9  1  0  0  0  0
  9 10  2  0  0  0  0
M  END
>  <CHROM.1>
53.88799060,-13.99918695,7.23753395,2.27713082,-1.34854264,2.19786979

>  <Name>
ligand

>  <RI>
0

>  <Rbt.Current_Directory>
/home/itssahil/PROJECTS/Mol_Feturizer/New_Systems/rnas/2EEV

>  <Rbt.Executable>
rbdock ($Id: //depot/dev/client3/rdock/2013.1/src/exe/rbdock.cxx#4 $)

>  <Rbt.Library>
libRbt.so (2013.1, Build901 2013/11/27)

>  <Rbt.Parameter_File>
/export/apps/rDock/src/rDock_2013.1_src/data/scripts/dock_solv.prm

>  <Rbt.Receptor>
prm/pocket_docking_7.prm

>  <SCORE>
-19.3003

>  <SCORE.INTER>
-19.3003

>  <SCORE.INTER.CONST>
1

>  <SCORE.INTER.POLAR>
0

>  <SCORE.INTER.ROT>
0

>  <SCORE.INTER.SOLV>
4.70201

>  <SCORE.INTER.VDW>
-18.0342

>  <SCORE.INTER.norm>
-1.93003

>  <SCORE.INTRA>
0

>  <SCORE.INTRA.DIHEDRAL>
0

>  <SCORE.INTRA.DIHEDRAL.0>
0

>  <SCORE.INTRA.POLAR>
0

>  <SCORE.INTRA.POLAR.0>
0

>  <SCORE.INTRA.REPUL>
0

>  <SCORE.INTRA.REPUL.0>
0

>  <SCORE.INTRA.SOLV>
0

>  <SCORE.INTRA.SOLV.lig_0>
-4.25352

>  <SCORE.INTRA.VDW>
0

>  <SCORE.INTRA.VDW.0>
0

>  <SCORE.INTRA.norm>
0

>  <SCORE.RESTR>
0

>  <SCORE.RESTR.CAVITY>
0

>  <SCORE.RESTR.norm>
0

>  <SCORE.SYSTEM>
0

>  <SCORE.SYSTEM.CONST>
0

>  <SCORE.SYSTEM.DIHEDRAL>
0

>  <SCORE.SYSTEM.SOLV>
0

>  <SCORE.SYSTEM.norm>
0

>  <SCORE.heavy>
10

>  <SCORE.norm>
-1.93003

>  <RMSD>
2.411

$$$$
ligand
 OpenBabel11021811423D
libRbt.so/2013.1/901 2013/11/27
 10 11  0  0  0  0  0  0  0  0999 V2000
   53.5422  -13.3806    9.0545 N   0  0  0  0  0  0  0  0  0  0  0  0
   53.4236  -12.1993    8.3794 C   0  0  0  0  0  0  0  0  0  0  0  0
   53.5943  -12.1224    7.0338 N   0  0  0  0  0  0  0  0  0  0  0  0
   53.8791  -13.3284    6.4629 C   0  0  0  0  0  0  0  0  0  0  0  0
   54.0065  -14.5429    7.0951 C   0  0  0  0  0  0  0  0  0  0  0  0
   53.8395  -14.6289    8.4802 C   0  0  0  0  0  0  0  0  0  0  0  0
   53.9155  -15.5970    9.2075 O   0  0  0  0  0  0  0  0  0  0  0  0
   54.2949  -15.4958    6.1559 N   0  0  0  0  0  0  0  0  0  0  0  0
   54.3420  -14.8765    4.9811 C   0  0  0  0  0  0  0  0  0  0  0  0
   54.0917  -13.5242    5.1211 N   0  0  0  0  0  0  0  0  0  0  0  0
  1  2  1  0  0  0  0
  1  6  1  0  0  0  0
  2  3  2  0  0  0  0
  3  4  1  0  0  0  0
  4  5  2  0  0  0  0
  4 10  1  0  0  0  0
  5  6  1  0  0  0  0
  5  8  1  0  0  0  0
  6  7  2  0  0  0  0
  8  9  1  0  0  0  0
  9 10  2  0  0  0  0
M  END
>  <CHROM.1>
53.89287640,-13.99827369,7.23635311,2.29808865,-1.35501991,2.21722546

>  <Name>
ligand

>  <RI>
0

>  <Rbt.Current_Directory>
/home/itssahil/PROJECTS/Mol_Feturizer/New_Systems/rnas/2EEV

>  <Rbt.Executable>
rbdock ($Id: //depot/dev/client3/rdock/2013.1/src/exe/rbdock.cxx#4 $)

>  <Rbt.Library>
libRbt.so (2013.1, Build901 2013/11/27)

>  <Rbt.Parameter_File>
/export/apps/rDock/src/rDock_2013.1_src/data/scripts/dock_solv.prm

>  <Rbt.Receptor>
prm/pocket_docking_7.prm

>  <SCORE>
-19.3058

>  <SCORE.INTER>
-19.3058

>  <SCORE.INTER.CONST>
1

>  <SCORE.INTER.POLAR>
0

>  <SCORE.INTER.ROT>
0

>  <SCORE.INTER.SOLV>
4.70806

>  <SCORE.INTER.VDW>
-18.0399

>  <SCORE.INTER.norm>
-1.93058

>  <SCORE.INTRA>
0

>  <SCORE.INTRA.DIHEDRAL>
0

>  <SCORE.INTRA.DIHEDRAL.0>
0

>  <SCORE.INTRA.POLAR>
0

>  <SCORE.INTRA.POLAR.0>
0

>  <SCORE.INTRA.REPUL>
0

>  <SCORE.INTRA.REPUL.0>
0

>  <SCORE.INTRA.SOLV>
0

>  <SCORE.INTRA.SOLV.lig_0>
-4.25352

>  <SCORE.INTRA.VDW>
0

>  <SCORE.INTRA.VDW.0>
0

>  <SCORE.INTRA.norm>
0

>  <SCORE.RESTR>
0

>  <SCORE.RESTR.CAVITY>
0

>  <SCORE.RESTR.norm>
0

>  <SCORE.SYSTEM>
0

>  <SCORE.SYSTEM.CONST>
0

>  <SCORE.SYSTEM.DIHEDRAL>
0

>  <SCORE.SYSTEM.SOLV>
0

>  <SCORE.SYSTEM.norm>
0

>  <SCORE.heavy>
10

>  <SCORE.norm>
-1.93058

>  <RMSD>
2.411

$$$$
ligand
 OpenBabel11021811423D
libRbt.so/2013.1/901 2013/11/27
 10 11  0  0  0  0  0  0  0  0999 V2000
   53.5253  -13.3769    9.0520 N   0  0  0  0  0  0  0  0  0  0  0  0
   53.4120  -12.1950    8.3770 C   0  0  0  0  0  0  0  0  0  0  0  0
   53.5896  -12.1175    7.0324 N   0  0  0  0  0  0  0  0  0  0  0  0
   53.8754  -13.3235    6.4622 C   0  0  0  0  0  0  0  0  0  0  0  0
   53.9977  -14.5386    7.0942 C   0  0  0  0  0  0  0  0  0  0  0  0
   53.8236  -14.6252    8.4784 C   0  0  0  0  0  0  0  0  0  0  0  0
   53.8943  -15.5940    9.2054 O   0  0  0  0  0  0  0  0  0  0  0  0
   54.2893  -15.4914    6.1558 N   0  0  0  0  0  0  0  0  0  0  0  0
   54.3434  -14.8714    4.9816 C   0  0  0  0  0  0  0  0  0  0  0  0
   54.0945  -13.5188    5.1213 N   0  0  0  0  0  0  0  0  0  0  0  0
  1  2  1  0  0  0  0
  1  6  1  0  0  0  0
  2  3  2  0  0  0  0
  3  4  1  0  0  0  0
  4  5  2  0  0  0  0
  4 10  1  0  0  0  0
  5  6  1  0  0  0  0
  5  8  1  0  0  0  0
  6  7  2  0  0  0  0
  8  9  1  0  0  0  0
  9 10  2  0  0  0  0
M  END
>  <CHROM.1>
53.88421902,-13.99391070,7.23521296,2.32125707,-1.35318418,2.24051135

>  <Name>
ligand

>  <RI>
0

>  <Rbt.Current_Directory>
/home/itssahil/PROJECTS/Mol_Feturizer/New_Systems/rnas/2EEV

>  <Rbt.Executable>
rbdock ($Id: //depot/dev/client3/rdock/2013.1/src/exe/rbdock.cxx#4 $)

>  <Rbt.Library>
libRbt.so (2013.1, Build901 2013/11/27)

>  <Rbt.Parameter_File>
/export/apps/rDock/src/rDock_2013.1_src/data/scripts/dock_solv.prm

>  <Rbt.Receptor>
prm/pocket_docking_7.prm

>  <SCORE>
-19.2745

>  <SCORE.INTER>
-19.2745

>  <SCORE.INTER.CONST>
1

>  <SCORE.INTER.POLAR>
0

>  <SCORE.INTER.ROT>
0

>  <SCORE.INTER.SOLV>
4.72114

>  <SCORE.INTER.VDW>
-18.0234

>  <SCORE.INTER.norm>
-1.92745

>  <SCORE.INTRA>
0

>  <SCORE.INTRA.DIHEDRAL>
0

>  <SCORE.INTRA.DIHEDRAL.0>
0

>  <SCORE.INTRA.POLAR>
0

>  <SCORE.INTRA.POLAR.0>
0

>  <SCORE.INTRA.REPUL>
0

>  <SCORE.INTRA.REPUL.0>
0

>  <SCORE.INTRA.SOLV>
0

>  <SCORE.INTRA.SOLV.lig_0>
-4.25352

>  <SCORE.INTRA.VDW>
0

>  <SCORE.INTRA.VDW.0>
0

>  <SCORE.INTRA.norm>
0

>  <SCORE.RESTR>
0

>  <SCORE.RESTR.CAVITY>
0

>  <SCORE.RESTR.norm>
0

>  <SCORE.SYSTEM>
0

>  <SCORE.SYSTEM.CONST>
0

>  <SCORE.SYSTEM.DIHEDRAL>
0

>  <SCORE.SYSTEM.SOLV>
0

>  <SCORE.SYSTEM.norm>
0

>  <SCORE.heavy>
10

>  <SCORE.norm>
-1.92745

>  <RMSD>
2.411

$$$$
ligand
 OpenBabel11021811423D
libRbt.so/2013.1/901 2013/11/27
 10 11  0  0  0  0  0  0  0  0999 V2000
   53.5267  -13.3863    9.0522 N   0  0  0  0  0  0  0  0  0  0  0  0
   53.3946  -12.2075    8.3753 C   0  0  0  0  0  0  0  0  0  0  0  0
   53.5644  -12.1307    7.0295 N   0  0  0  0  0  0  0  0  0  0  0  0
   53.8630  -13.3342    6.4605 C   0  0  0  0  0  0  0  0  0  0  0  0
   54.0043  -14.5462    7.0946 C   0  0  0  0  0  0  0  0  0  0  0  0
   53.8383  -14.6320    8.4798 C   0  0  0  0  0  0  0  0  0  0  0  0
   53.9254  -15.5980    9.2086 O   0  0  0  0  0  0  0  0  0  0  0  0
   54.3036  -15.4972    6.1568 N   0  0  0  0  0  0  0  0  0  0  0  0
   54.3436  -14.8792    4.9810 C   0  0  0  0  0  0  0  0  0  0  0  0
   54.0779  -13.5296    5.1190 N   0  0  0  0  0  0  0  0  0  0  0  0
  1  2  1  0  0  0  0
  1  6  1  0  0  0  0
  2  3  2  0  0  0  0
  3  4  1  0  0  0  0
  4  5  2  0  0  0  0
  4 10  1  0  0  0  0
  5  6  1  0  0  0  0
  5  8  1  0  0  0  0
  6  7  2  0  0  0  0
  8  9  1  0  0  0  0
  9 10  2  0  0  0  0
M  END
>  <CHROM.1>
53.88445878,-14.00270060,7.23498328,2.26714916,-1.34575908,2.18550076

>  <Name>
ligand

>  <RI>
0

>  <Rbt.Current_Directory>
/home/itssahil/PROJECTS/Mol_Feturizer/New_Systems/rnas/2EEV

>  <Rbt.Executable>
rbdock ($Id: //depot/dev/client3/rdock/2013.1/src/exe/rbdock.cxx#4 $)

>  <Rbt.Library>
libRbt.so (2013.1, Build901 2013/11/27)

>  <Rbt.Parameter_File>
/export/apps/rDock/src/rDock_2013.1_src/data/scripts/dock_solv.prm

>  <Rbt.Receptor>
prm/pocket_docking_8.prm

>  <SCORE>
-19.2917

>  <SCORE.INTER>
-19.2917

>  <SCORE.INTER.CONST>
1

>  <SCORE.INTER.POLAR>
0

>  <SCORE.INTER.ROT>
0

>  <SCORE.INTER.SOLV>
4.69809

>  <SCORE.INTER.VDW>
-18.0272

>  <SCORE.INTER.norm>
-1.92917

>  <SCORE.INTRA>
0

>  <SCORE.INTRA.DIHEDRAL>
0

>  <SCORE.INTRA.DIHEDRAL.0>
0

>  <SCORE.INTRA.POLAR>
0

>  <SCORE.INTRA.POLAR.0>
0

>  <SCORE.INTRA.REPUL>
0

>  <SCORE.INTRA.REPUL.0>
0

>  <SCORE.INTRA.SOLV>
0

>  <SCORE.INTRA.SOLV.lig_0>
-4.25352

>  <SCORE.INTRA.VDW>
0

>  <SCORE.INTRA.VDW.0>
0

>  <SCORE.INTRA.norm>
0

>  <SCORE.RESTR>
0

>  <SCORE.RESTR.CAVITY>
0

>  <SCORE.RESTR.norm>
0

>  <SCORE.SYSTEM>
0

>  <SCORE.SYSTEM.CONST>
0

>  <SCORE.SYSTEM.DIHEDRAL>
0

>  <SCORE.SYSTEM.SOLV>
0

>  <SCORE.SYSTEM.norm>
0

>  <SCORE.heavy>
10

>  <SCORE.norm>
-1.92917

>  <RMSD>
2.411

$$$$
ligand
 OpenBabel11021811423D
libRbt.so/2013.1/901 2013/11/27
 10 11  0  0  0  0  0  0  0  0999 V2000
   53.5280  -13.3822    9.0540 N   0  0  0  0  0  0  0  0  0  0  0  0
   53.3953  -12.2045    8.3754 C   0  0  0  0  0  0  0  0  0  0  0  0
   53.5622  -12.1301    7.0292 N   0  0  0  0  0  0  0  0  0  0  0  0
   53.8587  -13.3348    6.4616 C   0  0  0  0  0  0  0  0  0  0  0  0
   54.0005  -14.5458    7.0974 C   0  0  0  0  0  0  0  0  0  0  0  0
   53.8375  -14.6291    8.4831 C   0  0  0  0  0  0  0  0  0  0  0  0
   53.9254  -15.5940    9.2133 O   0  0  0  0  0  0  0  0  0  0  0  0
   54.2970  -15.4986    6.1605 N   0  0  0  0  0  0  0  0  0  0  0  0
   54.3349  -14.8826    4.9836 C   0  0  0  0  0  0  0  0  0  0  0  0
   54.0704  -13.5326    5.1199 N   0  0  0  0  0  0  0  0  0  0  0  0
  1  2  1  0  0  0  0
  1  6  1  0  0  0  0
  2  3  2  0  0  0  0
  3  4  1  0  0  0  0
  4  5  2  0  0  0  0
  4 10  1  0  0  0  0
  5  6  1  0  0  0  0
  5  8  1  0  0  0  0
  6  7  2  0  0  0  0
  8  9  1  0  0  0  0
  9 10  2  0  0  0  0
M  END
>  <CHROM.1>
53.88132332,-14.00196771,7.23710086,2.26099939,-1.34762841,2.17781173

>  <Name>
ligand

>  <RI>
0

>  <Rbt.Current_Directory>
/home/itssahil/PROJECTS/Mol_Feturizer/New_Systems/rnas/2EEV

>  <Rbt.Executable>
rbdock ($Id: //depot/dev/client3/rdock/2013.1/src/exe/rbdock.cxx#4 $)

>  <Rbt.Library>
libRbt.so (2013.1, Build901 2013/11/27)

>  <Rbt.Parameter_File>
/export/apps/rDock/src/rDock_2013.1_src/data/scripts/dock_solv.prm

>  <Rbt.Receptor>
prm/pocket_docking_8.prm

>  <SCORE>
-19.2857

>  <SCORE.INTER>
-19.2857

>  <SCORE.INTER.CONST>
1

>  <SCORE.INTER.POLAR>
0

>  <SCORE.INTER.ROT>
0

>  <SCORE.INTER.SOLV>
4.69922

>  <SCORE.INTER.VDW>
-18.0236

>  <SCORE.INTER.norm>
-1.92857

>  <SCORE.INTRA>
0

>  <SCORE.INTRA.DIHEDRAL>
0

>  <SCORE.INTRA.DIHEDRAL.0>
0

>  <SCORE.INTRA.POLAR>
0

>  <SCORE.INTRA.POLAR.0>
0

>  <SCORE.INTRA.REPUL>
0

>  <SCORE.INTRA.REPUL.0>
0

>  <SCORE.INTRA.SOLV>
0

>  <SCORE.INTRA.SOLV.lig_0>
-4.25352

>  <SCORE.INTRA.VDW>
0

>  <SCORE.INTRA.VDW.0>
0

>  <SCORE.INTRA.norm>
0

>  <SCORE.RESTR>
0

>  <SCORE.RESTR.CAVITY>
0

>  <SCORE.RESTR.norm>
0

>  <SCORE.SYSTEM>
0

>  <SCORE.SYSTEM.CONST>
0

>  <SCORE.SYSTEM.DIHEDRAL>
0

>  <SCORE.SYSTEM.SOLV>
0

>  <SCORE.SYSTEM.norm>
0

>  <SCORE.heavy>
10

>  <SCORE.norm>
-1.92857

>  <RMSD>
2.411

$$$$
ligand
 OpenBabel11021811423D
libRbt.so/2013.1/901 2013/11/27
 10 11  0  0  0  0  0  0  0  0999 V2000
   53.5361  -13.3847    9.0563 N   0  0  0  0  0  0  0  0  0  0  0  0
   53.4119  -12.2025    8.3838 C   0  0  0  0  0  0  0  0  0  0  0  0
   53.5838  -12.1216    7.0386 N   0  0  0  0  0  0  0  0  0  0  0  0
   53.8759  -13.3246    6.4653 C   0  0  0  0  0  0  0  0  0  0  0  0
   54.0092  -14.5398    7.0948 C   0  0  0  0  0  0  0  0  0  0  0  0
   53.8410  -14.6300    8.4795 C   0  0  0  0  0  0  0  0  0  0  0  0
   53.9214  -15.5994    9.2046 O   0  0  0  0  0  0  0  0  0  0  0  0
   54.3039  -15.4890    6.1537 N   0  0  0  0  0  0  0  0  0  0  0  0
   54.3491  -14.8667    4.9804 C   0  0  0  0  0  0  0  0  0  0  0  0
   54.0912  -13.5161    5.1233 N   0  0  0  0  0  0  0  0  0  0  0  0
  1  2  1  0  0  0  0
  1  6  1  0  0  0  0
  2  3  2  0  0  0  0
  3  4  1  0  0  0  0
  4  5  2  0  0  0  0
  4 10  1  0  0  0  0
  5  6  1  0  0  0  0
  5  8  1  0  0  0  0
  6  7  2  0  0  0  0
  8  9  1  0  0  0  0
  9 10  2  0  0  0  0
M  END
>  <CHROM.1>
53.89241718,-13.99621260,7.23717516,2.28746419,-1.34990370,2.20918843

>  <Name>
ligand

>  <RI>
0

>  <Rbt.Current_Directory>
/home/itssahil/PROJECTS/Mol_Feturizer/New_Systems/rnas/2EEV

>  <Rbt.Executable>
rbdock ($Id: //depot/dev/client3/rdock/2013.1/src/exe/rbdock.cxx#4 $)

>  <Rbt.Library>
libRbt.so (2013.1, Build901 2013/11/27)

>  <Rbt.Parameter_File>
/export/apps/rDock/src/rDock_2013.1_src/data/scripts/dock_solv.prm

>  <Rbt.Receptor>
prm/pocket_docking_8.prm

>  <SCORE>
-19.3044

>  <SCORE.INTER>
-19.3044

>  <SCORE.INTER.CONST>
1

>  <SCORE.INTER.POLAR>
0

>  <SCORE.INTER.ROT>
0

>  <SCORE.INTER.SOLV>
4.70158

>  <SCORE.INTER.VDW>
-18.0368

>  <SCORE.INTER.norm>
-1.93044

>  <SCORE.INTRA>
0

>  <SCORE.INTRA.DIHEDRAL>
0

>  <SCORE.INTRA.DIHEDRAL.0>
0

>  <SCORE.INTRA.POLAR>
0

>  <SCORE.INTRA.POLAR.0>
0

>  <SCORE.INTRA.REPUL>
0

>  <SCORE.INTRA.REPUL.0>
0

>  <SCORE.INTRA.SOLV>
0

>  <SCORE.INTRA.SOLV.lig_0>
-4.25352

>  <SCORE.INTRA.VDW>
0

>  <SCORE.INTRA.VDW.0>
0

>  <SCORE.INTRA.norm>
0

>  <SCORE.RESTR>
0

>  <SCORE.RESTR.CAVITY>
0

>  <SCORE.RESTR.norm>
0

>  <SCORE.SYSTEM>
0

>  <SCORE.SYSTEM.CONST>
0

>  <SCORE.SYSTEM.DIHEDRAL>
0

>  <SCORE.SYSTEM.SOLV>
0

>  <SCORE.SYSTEM.norm>
0

>  <SCORE.heavy>
10

>  <SCORE.norm>
-1.93044

>  <RMSD>
2.411

$$$$
ligand
 OpenBabel11021811423D
libRbt.so/2013.1/901 2013/11/27
 10 11  0  0  0  0  0  0  0  0999 V2000
   53.5222  -13.3878    9.0541 N   0  0  0  0  0  0  0  0  0  0  0  0
   53.3892  -12.2082    8.3788 C   0  0  0  0  0  0  0  0  0  0  0  0
   53.5608  -12.1291    7.0334 N   0  0  0  0  0  0  0  0  0  0  0  0
   53.8622  -13.3312    6.4630 C   0  0  0  0  0  0  0  0  0  0  0  0
   54.0046  -14.5439    7.0954 C   0  0  0  0  0  0  0  0  0  0  0  0
   53.8368  -14.6321    8.4802 C   0  0  0  0  0  0  0  0  0  0  0  0
   53.9244  -15.5992    9.2076 O   0  0  0  0  0  0  0  0  0  0  0  0
   54.3068  -15.4930    6.1565 N   0  0  0  0  0  0  0  0  0  0  0  0
   54.3476  -14.8730    4.9818 C   0  0  0  0  0  0  0  0  0  0  0  0
   54.0794  -13.5242    5.1215 N   0  0  0  0  0  0  0  0  0  0  0  0
  1  2  1  0  0  0  0
  1  6  1  0  0  0  0
  2  3  2  0  0  0  0
  3  4  1  0  0  0  0
  4  5  2  0  0  0  0
  4 10  1  0  0  0  0
  5  6  1  0  0  0  0
  5  8  1  0  0  0  0
  6  7  2  0  0  0  0
  8  9  1  0  0  0  0
  9 10  2  0  0  0  0
M  END
>  <CHROM.1>
53.88366546,-14.00083604,7.23643688,2.26819312,-1.34356709,2.18806525

>  <Name>
ligand

>  <RI>
0

>  <Rbt.Current_Directory>
/home/itssahil/PROJECTS/Mol_Feturizer/New_Systems/rnas/2EEV

>  <Rbt.Executable>
rbdock ($Id: //depot/dev/client3/rdock/2013.1/src/exe/rbdock.cxx#4 $)

>  <Rbt.Library>
libRbt.so (2013.1, Build901 2013/11/27)

>  <Rbt.Parameter_File>
/export/apps/rDock/src/rDock_2013.1_src/data/scripts/dock_solv.prm

>  <Rbt.Receptor>
prm/pocket_docking_8.prm

>  <SCORE>
-19.2927

>  <SCORE.INTER>
-19.2927

>  <SCORE.INTER.CONST>
1

>  <SCORE.INTER.POLAR>
0

>  <SCORE.INTER.ROT>
0

>  <SCORE.INTER.SOLV>
4.69789

>  <SCORE.INTER.VDW>
-18.0277

>  <SCORE.INTER.norm>
-1.92927

>  <SCORE.INTRA>
0

>  <SCORE.INTRA.DIHEDRAL>
0

>  <SCORE.INTRA.DIHEDRAL.0>
0

>  <SCORE.INTRA.POLAR>
0

>  <SCORE.INTRA.POLAR.0>
0

>  <SCORE.INTRA.REPUL>
0

>  <SCORE.INTRA.REPUL.0>
0

>  <SCORE.INTRA.SOLV>
0

>  <SCORE.INTRA.SOLV.lig_0>
-4.25352

>  <SCORE.INTRA.VDW>
0

>  <SCORE.INTRA.VDW.0>
0

>  <SCORE.INTRA.norm>
0

>  <SCORE.RESTR>
0

>  <SCORE.RESTR.CAVITY>
0

>  <SCORE.RESTR.norm>
0

>  <SCORE.SYSTEM>
0

>  <SCORE.SYSTEM.CONST>
0

>  <SCORE.SYSTEM.DIHEDRAL>
0

>  <SCORE.SYSTEM.SOLV>
0

>  <SCORE.SYSTEM.norm>
0

>  <SCORE.heavy>
10

>  <SCORE.norm>
-1.92927

>  <RMSD>
2.411

$$$$
ligand
 OpenBabel11021811423D
libRbt.so/2013.1/901 2013/11/27
 10 11  0  0  0  0  0  0  0  0999 V2000
   53.5454  -13.3880    9.0523 N   0  0  0  0  0  0  0  0  0  0  0  0
   53.4074  -12.2091    8.3768 C   0  0  0  0  0  0  0  0  0  0  0  0
   53.5670  -12.1317    7.0298 N   0  0  0  0  0  0  0  0  0  0  0  0
   53.8622  -13.3348    6.4582 C   0  0  0  0  0  0  0  0  0  0  0  0
   54.0092  -14.5468    7.0907 C   0  0  0  0  0  0  0  0  0  0  0  0
   53.8537  -14.6332    8.4771 C   0  0  0  0  0  0  0  0  0  0  0  0
   53.9469  -15.5995    9.2049 O   0  0  0  0  0  0  0  0  0  0  0  0
   54.3021  -15.4974    6.1504 N   0  0  0  0  0  0  0  0  0  0  0  0
   54.3328  -14.8789    4.9746 C   0  0  0  0  0  0  0  0  0  0  0  0
   54.0671  -13.5296    5.1150 N   0  0  0  0  0  0  0  0  0  0  0  0
  1  2  1  0  0  0  0
  1  6  1  0  0  0  0
  2  3  2  0  0  0  0
  3  4  1  0  0  0  0
  4  5  2  0  0  0  0
  4 10  1  0  0  0  0
  5  6  1  0  0  0  0
  5  8  1  0  0  0  0
  6  7  2  0  0  0  0
  8  9  1  0  0  0  0
  9 10  2  0  0  0  0
M  END
>  <CHROM.1>
53.88996794,-14.00350526,7.23220368,2.23730070,-1.34941777,2.15673826

>  <Name>
ligand

>  <RI>
0

>  <Rbt.Current_Directory>
/home/itssahil/PROJECTS/Mol_Feturizer/New_Systems/rnas/2EEV

>  <Rbt.Executable>
rbdock ($Id: //depot/dev/client3/rdock/2013.1/src/exe/rbdock.cxx#4 $)

>  <Rbt.Library>
libRbt.so (2013.1, Build901 2013/11/27)

>  <Rbt.Parameter_File>
/export/apps/rDock/src/rDock_2013.1_src/data/scripts/dock_solv.prm

>  <Rbt.Receptor>
prm/blind_docking_100.prm

>  <SCORE>
-19.2791

>  <SCORE.INTER>
-19.2791

>  <SCORE.INTER.CONST>
1

>  <SCORE.INTER.POLAR>
0

>  <SCORE.INTER.ROT>
0

>  <SCORE.INTER.SOLV>
4.6862

>  <SCORE.INTER.VDW>
-18.0148

>  <SCORE.INTER.norm>
-1.92791

>  <SCORE.INTRA>
0

>  <SCORE.INTRA.DIHEDRAL>
0

>  <SCORE.INTRA.DIHEDRAL.0>
0

>  <SCORE.INTRA.POLAR>
0

>  <SCORE.INTRA.POLAR.0>
0

>  <SCORE.INTRA.REPUL>
0

>  <SCORE.INTRA.REPUL.0>
0

>  <SCORE.INTRA.SOLV>
0

>  <SCORE.INTRA.SOLV.lig_0>
-4.25352

>  <SCORE.INTRA.VDW>
0

>  <SCORE.INTRA.VDW.0>
0

>  <SCORE.INTRA.norm>
0

>  <SCORE.RESTR>
0

>  <SCORE.RESTR.CAVITY>
0

>  <SCORE.RESTR.norm>
0

>  <SCORE.SYSTEM>
0

>  <SCORE.SYSTEM.CONST>
0

>  <SCORE.SYSTEM.DIHEDRAL>
0

>  <SCORE.SYSTEM.SOLV>
0

>  <SCORE.SYSTEM.norm>
0

>  <SCORE.heavy>
10

>  <SCORE.norm>
-1.92791

>  <RMSD>
2.412

$$$$
ligand
 OpenBabel11021811423D
libRbt.so/2013.1/901 2013/11/27
 10 11  0  0  0  0  0  0  0  0999 V2000
   53.5361  -13.3849    9.0497 N   0  0  0  0  0  0  0  0  0  0  0  0
   53.3986  -12.2083    8.3700 C   0  0  0  0  0  0  0  0  0  0  0  0
   53.5605  -12.1353    7.0231 N   0  0  0  0  0  0  0  0  0  0  0  0
   53.8573  -13.3401    6.4560 C   0  0  0  0  0  0  0  0  0  0  0  0
   54.0038  -14.5500    7.0927 C   0  0  0  0  0  0  0  0  0  0  0  0
   53.8460  -14.6319    8.4792 C   0  0  0  0  0  0  0  0  0  0  0  0
   53.9385  -15.5957    9.2103 O   0  0  0  0  0  0  0  0  0  0  0  0
   54.2988  -15.5035    6.1560 N   0  0  0  0  0  0  0  0  0  0  0  0
   54.3312  -14.8888    4.9782 C   0  0  0  0  0  0  0  0  0  0  0  0
   54.0646  -13.5392    5.1138 N   0  0  0  0  0  0  0  0  0  0  0  0
  1  2  1  0  0  0  0
  1  6  1  0  0  0  0
  2  3  2  0  0  0  0
  3  4  1  0  0  0  0
  4  5  2  0  0  0  0
  4 10  1  0  0  0  0
  5  6  1  0  0  0  0
  5  8  1  0  0  0  0
  6  7  2  0  0  0  0
  8  9  1  0  0  0  0
  9 10  2  0  0  0  0
M  END
>  <CHROM.1>
53.88407808,-14.00628462,7.23223278,2.24234891,-1.34803347,2.15836570

>  <Name>
ligand

>  <RI>
0

>  <Rbt.Current_Directory>
/home/itssahil/PROJECTS/Mol_Feturizer/New_Systems/rnas/2EEV

>  <Rbt.Executable>
rbdock ($Id: //depot/dev/client3/rdock/2013.1/src/exe/rbdock.cxx#4 $)

>  <Rbt.Library>
libRbt.so (2013.1, Build901 2013/11/27)

>  <Rbt.Parameter_File>
/export/apps/rDock/src/rDock_2013.1_src/data/scripts/dock_solv.prm

>  <Rbt.Receptor>
prm/blind_docking_100.prm

>  <SCORE>
-19.2751

>  <SCORE.INTER>
-19.2751

>  <SCORE.INTER.CONST>
1

>  <SCORE.INTER.POLAR>
0

>  <SCORE.INTER.ROT>
0

>  <SCORE.INTER.SOLV>
4.69022

>  <SCORE.INTER.VDW>
-18.0135

>  <SCORE.INTER.norm>
-1.92751

>  <SCORE.INTRA>
0

>  <SCORE.INTRA.DIHEDRAL>
0

>  <SCORE.INTRA.DIHEDRAL.0>
0

>  <SCORE.INTRA.POLAR>
0

>  <SCORE.INTRA.POLAR.0>
0

>  <SCORE.INTRA.REPUL>
0

>  <SCORE.INTRA.REPUL.0>
0

>  <SCORE.INTRA.SOLV>
0

>  <SCORE.INTRA.SOLV.lig_0>
-4.25352

>  <SCORE.INTRA.VDW>
0

>  <SCORE.INTRA.VDW.0>
0

>  <SCORE.INTRA.norm>
0

>  <SCORE.RESTR>
0

>  <SCORE.RESTR.CAVITY>
0

>  <SCORE.RESTR.norm>
0

>  <SCORE.SYSTEM>
0

>  <SCORE.SYSTEM.CONST>
0

>  <SCORE.SYSTEM.DIHEDRAL>
0

>  <SCORE.SYSTEM.SOLV>
0

>  <SCORE.SYSTEM.norm>
0

>  <SCORE.heavy>
10

>  <SCORE.norm>
-1.92751

>  <RMSD>
2.412

$$$$
ligand
 OpenBabel11021811423D
libRbt.so/2013.1/901 2013/11/27
 10 11  0  0  0  0  0  0  0  0999 V2000
   53.5410  -13.3847    9.0476 N   0  0  0  0  0  0  0  0  0  0  0  0
   53.4148  -12.2031    8.3744 C   0  0  0  0  0  0  0  0  0  0  0  0
   53.5867  -12.1225    7.0292 N   0  0  0  0  0  0  0  0  0  0  0  0
   53.8810  -13.3253    6.4565 C   0  0  0  0  0  0  0  0  0  0  0  0
   54.0163  -14.5400    7.0867 C   0  0  0  0  0  0  0  0  0  0  0  0
   53.8481  -14.6298    8.4714 C   0  0  0  0  0  0  0  0  0  0  0  0
   53.9301  -15.5987    9.1970 O   0  0  0  0  0  0  0  0  0  0  0  0
   54.3128  -15.4891    6.1461 N   0  0  0  0  0  0  0  0  0  0  0  0
   54.3571  -14.8673    4.9725 C   0  0  0  0  0  0  0  0  0  0  0  0
   54.0969  -13.5171    5.1146 N   0  0  0  0  0  0  0  0  0  0  0  0
  1  2  1  0  0  0  0
  1  6  1  0  0  0  0
  2  3  2  0  0  0  0
  3  4  1  0  0  0  0
  4  5  2  0  0  0  0
  4 10  1  0  0  0  0
  5  6  1  0  0  0  0
  5  8  1  0  0  0  0
  6  7  2  0  0  0  0
  8  9  1  0  0  0  0
  9 10  2  0  0  0  0
M  END
>  <CHROM.1>
53.89859143,-13.99651610,7.22874615,2.28326561,-1.34841657,2.20459853

>  <Name>
ligand

>  <RI>
0

>  <Rbt.Current_Directory>
/home/itssahil/PROJECTS/Mol_Feturizer/New_Systems/rnas/2EEV

>  <Rbt.Executable>
rbdock ($Id: //depot/dev/client3/rdock/2013.1/src/exe/rbdock.cxx#4 $)

>  <Rbt.Library>
libRbt.so (2013.1, Build901 2013/11/27)

>  <Rbt.Parameter_File>
/export/apps/rDock/src/rDock_2013.1_src/data/scripts/dock_solv.prm

>  <Rbt.Receptor>
prm/blind_docking_80.prm

>  <SCORE>
-19.2983

>  <SCORE.INTER>
-19.2983

>  <SCORE.INTER.CONST>
1

>  <SCORE.INTER.POLAR>
0

>  <SCORE.INTER.ROT>
0

>  <SCORE.INTER.SOLV>
4.69019

>  <SCORE.INTER.VDW>
-18.0289

>  <SCORE.INTER.norm>
-1.92983

>  <SCORE.INTRA>
0

>  <SCORE.INTRA.DIHEDRAL>
0

>  <SCORE.INTRA.DIHEDRAL.0>
0

>  <SCORE.INTRA.POLAR>
0

>  <SCORE.INTRA.POLAR.0>
0

>  <SCORE.INTRA.REPUL>
0

>  <SCORE.INTRA.REPUL.0>
0

>  <SCORE.INTRA.SOLV>
0

>  <SCORE.INTRA.SOLV.lig_0>
-4.25352

>  <SCORE.INTRA.VDW>
0

>  <SCORE.INTRA.VDW.0>
0

>  <SCORE.INTRA.norm>
0

>  <SCORE.RESTR>
0

>  <SCORE.RESTR.CAVITY>
0

>  <SCORE.RESTR.norm>
0

>  <SCORE.SYSTEM>
0

>  <SCORE.SYSTEM.CONST>
0

>  <SCORE.SYSTEM.DIHEDRAL>
0

>  <SCORE.SYSTEM.SOLV>
0

>  <SCORE.SYSTEM.norm>
0

>  <SCORE.heavy>
10

>  <SCORE.norm>
-1.92983

>  <RMSD>
2.412

$$$$
ligand
 OpenBabel11021811423D
libRbt.so/2013.1/901 2013/11/27
 10 11  0  0  0  0  0  0  0  0999 V2000
   53.5454  -13.3840    9.0464 N   0  0  0  0  0  0  0  0  0  0  0  0
   53.4095  -12.2060    8.3689 C   0  0  0  0  0  0  0  0  0  0  0  0
   53.5726  -12.1306    7.0222 N   0  0  0  0  0  0  0  0  0  0  0  0
   53.8688  -13.3346    6.4530 C   0  0  0  0  0  0  0  0  0  0  0  0
   54.0136  -14.5458    7.0877 C   0  0  0  0  0  0  0  0  0  0  0  0
   53.8546  -14.6302    8.4738 C   0  0  0  0  0  0  0  0  0  0  0  0
   53.9456  -15.5955    9.2032 O   0  0  0  0  0  0  0  0  0  0  0  0
   54.3086  -15.4978    6.1494 N   0  0  0  0  0  0  0  0  0  0  0  0
   54.3426  -14.8810    4.9728 C   0  0  0  0  0  0  0  0  0  0  0  0
   54.0770  -13.5314    5.1106 N   0  0  0  0  0  0  0  0  0  0  0  0
  1  2  1  0  0  0  0
  1  6  1  0  0  0  0
  2  3  2  0  0  0  0
  3  4  1  0  0  0  0
  4  5  2  0  0  0  0
  4 10  1  0  0  0  0
  5  6  1  0  0  0  0
  5  8  1  0  0  0  0
  6  7  2  0  0  0  0
  8  9  1  0  0  0  0
  9 10  2  0  0  0  0
M  END
>  <CHROM.1>
53.89430295,-14.00226161,7.22806981,2.24787809,-1.34831365,2.16564689

>  <Name>
ligand

>  <RI>
0

>  <Rbt.Current_Directory>
/home/itssahil/PROJECTS/Mol_Feturizer/New_Systems/rnas/2EEV

>  <Rbt.Executable>
rbdock ($Id: //depot/dev/client3/rdock/2013.1/src/exe/rbdock.cxx#4 $)

>  <Rbt.Library>
libRbt.so (2013.1, Build901 2013/11/27)

>  <Rbt.Parameter_File>
/export/apps/rDock/src/rDock_2013.1_src/data/scripts/dock_solv.prm

>  <Rbt.Receptor>
prm/blind_docking_80.prm

>  <SCORE>
-19.2824

>  <SCORE.INTER>
-19.2824

>  <SCORE.INTER.CONST>
1

>  <SCORE.INTER.POLAR>
0

>  <SCORE.INTER.ROT>
0

>  <SCORE.INTER.SOLV>
4.68028

>  <SCORE.INTER.VDW>
-18.015

>  <SCORE.INTER.norm>
-1.92824

>  <SCORE.INTRA>
0

>  <SCORE.INTRA.DIHEDRAL>
0

>  <SCORE.INTRA.DIHEDRAL.0>
0

>  <SCORE.INTRA.POLAR>
0

>  <SCORE.INTRA.POLAR.0>
0

>  <SCORE.INTRA.REPUL>
0

>  <SCORE.INTRA.REPUL.0>
0

>  <SCORE.INTRA.SOLV>
0

>  <SCORE.INTRA.SOLV.lig_0>
-4.25352

>  <SCORE.INTRA.VDW>
0

>  <SCORE.INTRA.VDW.0>
0

>  <SCORE.INTRA.norm>
0

>  <SCORE.RESTR>
0

>  <SCORE.RESTR.CAVITY>
0

>  <SCORE.RESTR.norm>
0

>  <SCORE.SYSTEM>
0

>  <SCORE.SYSTEM.CONST>
0

>  <SCORE.SYSTEM.DIHEDRAL>
0

>  <SCORE.SYSTEM.SOLV>
0

>  <SCORE.SYSTEM.norm>
0

>  <SCORE.heavy>
10

>  <SCORE.norm>
-1.92824

>  <RMSD>
2.412

$$$$
ligand
 OpenBabel11021811423D
libRbt.so/2013.1/901 2013/11/27
 10 11  0  0  0  0  0  0  0  0999 V2000
   53.5386  -13.3874    9.0593 N   0  0  0  0  0  0  0  0  0  0  0  0
   53.4043  -12.2064    8.3867 C   0  0  0  0  0  0  0  0  0  0  0  0
   53.5682  -12.1255    7.0405 N   0  0  0  0  0  0  0  0  0  0  0  0
   53.8635  -13.3273    6.4664 C   0  0  0  0  0  0  0  0  0  0  0  0
   54.0068  -14.5414    7.0960 C   0  0  0  0  0  0  0  0  0  0  0  0
   53.8469  -14.6314    8.4816 C   0  0  0  0  0  0  0  0  0  0  0  0
   53.9366  -15.5999    9.2070 O   0  0  0  0  0  0  0  0  0  0  0  0
   54.3014  -15.4896    6.1539 N   0  0  0  0  0  0  0  0  0  0  0  0
   54.3367  -14.8679    4.9799 C   0  0  0  0  0  0  0  0  0  0  0  0
   54.0724  -13.5186    5.1233 N   0  0  0  0  0  0  0  0  0  0  0  0
  1  2  1  0  0  0  0
  1  6  1  0  0  0  0
  2  3  2  0  0  0  0
  3  4  1  0  0  0  0
  4  5  2  0  0  0  0
  4 10  1  0  0  0  0
  5  6  1  0  0  0  0
  5  8  1  0  0  0  0
  6  7  2  0  0  0  0
  8  9  1  0  0  0  0
  9 10  2  0  0  0  0
M  END
>  <CHROM.1>
53.88795986,-13.99826172,7.23860208,2.25251398,-1.34879599,2.17438894

>  <Name>
ligand

>  <RI>
0

>  <Rbt.Current_Directory>
/home/itssahil/PROJECTS/Mol_Feturizer/New_Systems/rnas/2EEV

>  <Rbt.Executable>
rbdock ($Id: //depot/dev/client3/rdock/2013.1/src/exe/rbdock.cxx#4 $)

>  <Rbt.Library>
libRbt.so (2013.1, Build901 2013/11/27)

>  <Rbt.Parameter_File>
/export/apps/rDock/src/rDock_2013.1_src/data/scripts/dock_solv.prm

>  <Rbt.Receptor>
prm/pocket_docking_3.prm

>  <SCORE>
-19.2897

>  <SCORE.INTER>
-19.2897

>  <SCORE.INTER.CONST>
1

>  <SCORE.INTER.POLAR>
0

>  <SCORE.INTER.ROT>
0

>  <SCORE.INTER.SOLV>
4.69384

>  <SCORE.INTER.VDW>
-18.0244

>  <SCORE.INTER.norm>
-1.92897

>  <SCORE.INTRA>
0

>  <SCORE.INTRA.DIHEDRAL>
0

>  <SCORE.INTRA.DIHEDRAL.0>
0

>  <SCORE.INTRA.POLAR>
0

>  <SCORE.INTRA.POLAR.0>
0

>  <SCORE.INTRA.REPUL>
0

>  <SCORE.INTRA.REPUL.0>
0

>  <SCORE.INTRA.SOLV>
0

>  <SCORE.INTRA.SOLV.lig_0>
-4.25352

>  <SCORE.INTRA.VDW>
0

>  <SCORE.INTRA.VDW.0>
0

>  <SCORE.INTRA.norm>
0

>  <SCORE.RESTR>
0

>  <SCORE.RESTR.CAVITY>
0

>  <SCORE.RESTR.norm>
0

>  <SCORE.SYSTEM>
0

>  <SCORE.SYSTEM.CONST>
0

>  <SCORE.SYSTEM.DIHEDRAL>
0

>  <SCORE.SYSTEM.SOLV>
0

>  <SCORE.SYSTEM.norm>
0

>  <SCORE.heavy>
10

>  <SCORE.norm>
-1.92897

>  <RMSD>
2.412

$$$$
ligand
 OpenBabel11021811423D
libRbt.so/2013.1/901 2013/11/27
 10 11  0  0  0  0  0  0  0  0999 V2000
   53.5456  -13.3840    9.0514 N   0  0  0  0  0  0  0  0  0  0  0  0
   53.4117  -12.2056    8.3743 C   0  0  0  0  0  0  0  0  0  0  0  0
   53.5725  -12.1304    7.0274 N   0  0  0  0  0  0  0  0  0  0  0  0
   53.8643  -13.3352    6.4575 C   0  0  0  0  0  0  0  0  0  0  0  0
   54.0071  -14.5469    7.0917 C   0  0  0  0  0  0  0  0  0  0  0  0
   53.8504  -14.6310    8.4781 C   0  0  0  0  0  0  0  0  0  0  0  0
   53.9401  -15.5966    9.2072 O   0  0  0  0  0  0  0  0  0  0  0  0
   54.2976  -15.4995    6.1527 N   0  0  0  0  0  0  0  0  0  0  0  0
   54.3311  -14.8826    4.9761 C   0  0  0  0  0  0  0  0  0  0  0  0
   54.0695  -13.5324    5.1147 N   0  0  0  0  0  0  0  0  0  0  0  0
  1  2  1  0  0  0  0
  1  6  1  0  0  0  0
  2  3  2  0  0  0  0
  3  4  1  0  0  0  0
  4  5  2  0  0  0  0
  4 10  1  0  0  0  0
  5  6  1  0  0  0  0
  5  8  1  0  0  0  0
  6  7  2  0  0  0  0
  8  9  1  0  0  0  0
  9 10  2  0  0  0  0
M  END
>  <CHROM.1>
53.88946702,-14.00298709,7.23237351,2.24773547,-1.35162895,2.16562750

>  <Name>
ligand

>  <RI>
0

>  <Rbt.Current_Directory>
/home/itssahil/PROJECTS/Mol_Feturizer/New_Systems/rnas/2EEV

>  <Rbt.Executable>
rbdock ($Id: //depot/dev/client3/rdock/2013.1/src/exe/rbdock.cxx#4 $)

>  <Rbt.Library>
libRbt.so (2013.1, Build901 2013/11/27)

>  <Rbt.Parameter_File>
/export/apps/rDock/src/rDock_2013.1_src/data/scripts/dock_solv.prm

>  <Rbt.Receptor>
prm/pocket_docking_5.prm

>  <SCORE>
-19.2828

>  <SCORE.INTER>
-19.2828

>  <SCORE.INTER.CONST>
1

>  <SCORE.INTER.POLAR>
0

>  <SCORE.INTER.ROT>
0

>  <SCORE.INTER.SOLV>
4.69017

>  <SCORE.INTER.VDW>
-18.0186

>  <SCORE.INTER.norm>
-1.92828

>  <SCORE.INTRA>
0

>  <SCORE.INTRA.DIHEDRAL>
0

>  <SCORE.INTRA.DIHEDRAL.0>
0

>  <SCORE.INTRA.POLAR>
0

>  <SCORE.INTRA.POLAR.0>
0

>  <SCORE.INTRA.REPUL>
0

>  <SCORE.INTRA.REPUL.0>
0

>  <SCORE.INTRA.SOLV>
0

>  <SCORE.INTRA.SOLV.lig_0>
-4.25352

>  <SCORE.INTRA.VDW>
0

>  <SCORE.INTRA.VDW.0>
0

>  <SCORE.INTRA.norm>
0

>  <SCORE.RESTR>
0

>  <SCORE.RESTR.CAVITY>
0

>  <SCORE.RESTR.norm>
0

>  <SCORE.SYSTEM>
0

>  <SCORE.SYSTEM.CONST>
0

>  <SCORE.SYSTEM.DIHEDRAL>
0

>  <SCORE.SYSTEM.SOLV>
0

>  <SCORE.SYSTEM.norm>
0

>  <SCORE.heavy>
10

>  <SCORE.norm>
-1.92828

>  <RMSD>
2.412

$$$$
ligand
 OpenBabel11021811423D
libRbt.so/2013.1/901 2013/11/27
 10 11  0  0  0  0  0  0  0  0999 V2000
   53.5418  -13.3857    9.0490 N   0  0  0  0  0  0  0  0  0  0  0  0
   53.4042  -12.2084    8.3706 C   0  0  0  0  0  0  0  0  0  0  0  0
   53.5650  -12.1343    7.0236 N   0  0  0  0  0  0  0  0  0  0  0  0
   53.8609  -13.3387    6.4551 C   0  0  0  0  0  0  0  0  0  0  0  0
   54.0074  -14.5492    7.0906 C   0  0  0  0  0  0  0  0  0  0  0  0
   53.8507  -14.6323    8.4771 C   0  0  0  0  0  0  0  0  0  0  0  0
   53.9434  -15.5968    9.2073 O   0  0  0  0  0  0  0  0  0  0  0  0
   54.3013  -15.5019    6.1528 N   0  0  0  0  0  0  0  0  0  0  0  0
   54.3330  -14.8862    4.9756 C   0  0  0  0  0  0  0  0  0  0  0  0
   54.0670  -13.5366    5.1125 N   0  0  0  0  0  0  0  0  0  0  0  0
  1  2  1  0  0  0  0
  1  6  1  0  0  0  0
  2  3  2  0  0  0  0
  3  4  1  0  0  0  0
  4  5  2  0  0  0  0
  4 10  1  0  0  0  0
  5  6  1  0  0  0  0
  5  8  1  0  0  0  0
  6  7  2  0  0  0  0
  8  9  1  0  0  0  0
  9 10  2  0  0  0  0
M  END
>  <CHROM.1>
53.88801356,-14.00554911,7.23072422,2.24036805,-1.34881357,2.15735177

>  <Name>
ligand

>  <RI>
0

>  <Rbt.Current_Directory>
/home/itssahil/PROJECTS/Mol_Feturizer/New_Systems/rnas/2EEV

>  <Rbt.Executable>
rbdock ($Id: //depot/dev/client3/rdock/2013.1/src/exe/rbdock.cxx#4 $)

>  <Rbt.Library>
libRbt.so (2013.1, Build901 2013/11/27)

>  <Rbt.Parameter_File>
/export/apps/rDock/src/rDock_2013.1_src/data/scripts/dock_solv.prm

>  <Rbt.Receptor>
prm/pocket_docking_7.prm

>  <SCORE>
-19.277

>  <SCORE.INTER>
-19.277

>  <SCORE.INTER.CONST>
1

>  <SCORE.INTER.POLAR>
0

>  <SCORE.INTER.ROT>
0

>  <SCORE.INTER.SOLV>
4.68624

>  <SCORE.INTER.VDW>
-18.0134

>  <SCORE.INTER.norm>
-1.9277

>  <SCORE.INTRA>
0

>  <SCORE.INTRA.DIHEDRAL>
0

>  <SCORE.INTRA.DIHEDRAL.0>
0

>  <SCORE.INTRA.POLAR>
0

>  <SCORE.INTRA.POLAR.0>
0

>  <SCORE.INTRA.REPUL>
0

>  <SCORE.INTRA.REPUL.0>
0

>  <SCORE.INTRA.SOLV>
0

>  <SCORE.INTRA.SOLV.lig_0>
-4.25352

>  <SCORE.INTRA.VDW>
0

>  <SCORE.INTRA.VDW.0>
0

>  <SCORE.INTRA.norm>
0

>  <SCORE.RESTR>
0

>  <SCORE.RESTR.CAVITY>
0

>  <SCORE.RESTR.norm>
0

>  <SCORE.SYSTEM>
0

>  <SCORE.SYSTEM.CONST>
0

>  <SCORE.SYSTEM.DIHEDRAL>
0

>  <SCORE.SYSTEM.SOLV>
0

>  <SCORE.SYSTEM.norm>
0

>  <SCORE.heavy>
10

>  <SCORE.norm>
-1.9277

>  <RMSD>
2.412

$$$$
ligand
 OpenBabel11021811423D
libRbt.so/2013.1/901 2013/11/27
 10 11  0  0  0  0  0  0  0  0999 V2000
   53.5443  -13.3866    9.0562 N   0  0  0  0  0  0  0  0  0  0  0  0
   53.4085  -12.2066    8.3822 C   0  0  0  0  0  0  0  0  0  0  0  0
   53.5692  -12.1277    7.0355 N   0  0  0  0  0  0  0  0  0  0  0  0
   53.8630  -13.3304    6.4625 C   0  0  0  0  0  0  0  0  0  0  0  0
   54.0078  -14.5435    7.0935 C   0  0  0  0  0  0  0  0  0  0  0  0
   53.8511  -14.6316    8.4797 C   0  0  0  0  0  0  0  0  0  0  0  0
   53.9424  -15.5989    9.2062 O   0  0  0  0  0  0  0  0  0  0  0  0
   54.3000  -15.4932    6.1521 N   0  0  0  0  0  0  0  0  0  0  0  0
   54.3325  -14.8731    4.9771 C   0  0  0  0  0  0  0  0  0  0  0  0
   54.0687  -13.5237    5.1191 N   0  0  0  0  0  0  0  0  0  0  0  0
  1  2  1  0  0  0  0
  1  6  1  0  0  0  0
  2  3  2  0  0  0  0
  3  4  1  0  0  0  0
  4  5  2  0  0  0  0
  4 10  1  0  0  0  0
  5  6  1  0  0  0  0
  5  8  1  0  0  0  0
  6  7  2  0  0  0  0
  8  9  1  0  0  0  0
  9 10  2  0  0  0  0
M  END
>  <CHROM.1>
53.88926741,-14.00020064,7.23560194,2.24374471,-1.35021450,2.16437773

>  <Name>
ligand

>  <RI>
0

>  <Rbt.Current_Directory>
/home/itssahil/PROJECTS/Mol_Feturizer/New_Systems/rnas/2EEV

>  <Rbt.Executable>
rbdock ($Id: //depot/dev/client3/rdock/2013.1/src/exe/rbdock.cxx#4 $)

>  <Rbt.Library>
libRbt.so (2013.1, Build901 2013/11/27)

>  <Rbt.Parameter_File>
/export/apps/rDock/src/rDock_2013.1_src/data/scripts/dock_solv.prm

>  <Rbt.Receptor>
prm/pocket_docking_7.prm

>  <SCORE>
-19.284

>  <SCORE.INTER>
-19.284

>  <SCORE.INTER.CONST>
1

>  <SCORE.INTER.POLAR>
0

>  <SCORE.INTER.ROT>
0

>  <SCORE.INTER.SOLV>
4.68975

>  <SCORE.INTER.VDW>
-18.0192

>  <SCORE.INTER.norm>
-1.9284

>  <SCORE.INTRA>
0

>  <SCORE.INTRA.DIHEDRAL>
0

>  <SCORE.INTRA.DIHEDRAL.0>
0

>  <SCORE.INTRA.POLAR>
0

>  <SCORE.INTRA.POLAR.0>
0

>  <SCORE.INTRA.REPUL>
0

>  <SCORE.INTRA.REPUL.0>
0

>  <SCORE.INTRA.SOLV>
0

>  <SCORE.INTRA.SOLV.lig_0>
-4.25352

>  <SCORE.INTRA.VDW>
0

>  <SCORE.INTRA.VDW.0>
0

>  <SCORE.INTRA.norm>
0

>  <SCORE.RESTR>
0

>  <SCORE.RESTR.CAVITY>
0

>  <SCORE.RESTR.norm>
0

>  <SCORE.SYSTEM>
0

>  <SCORE.SYSTEM.CONST>
0

>  <SCORE.SYSTEM.DIHEDRAL>
0

>  <SCORE.SYSTEM.SOLV>
0

>  <SCORE.SYSTEM.norm>
0

>  <SCORE.heavy>
10

>  <SCORE.norm>
-1.9284

>  <RMSD>
2.412

$$$$
ligand
 OpenBabel11021811423D
libRbt.so/2013.1/901 2013/11/27
 10 11  0  0  0  0  0  0  0  0999 V2000
   53.5468  -13.3896    9.0503 N   0  0  0  0  0  0  0  0  0  0  0  0
   53.3988  -12.2131    8.3727 C   0  0  0  0  0  0  0  0  0  0  0  0
   53.5509  -12.1382    7.0248 N   0  0  0  0  0  0  0  0  0  0  0  0
   53.8498  -13.3411    6.4545 C   0  0  0  0  0  0  0  0  0  0  0  0
   54.0067  -14.5507    7.0892 C   0  0  0  0  0  0  0  0  0  0  0  0
   53.8589  -14.6346    8.4766 C   0  0  0  0  0  0  0  0  0  0  0  0
   53.9613  -15.5985    9.2063 O   0  0  0  0  0  0  0  0  0  0  0  0
   54.2999  -15.5019    6.1497 N   0  0  0  0  0  0  0  0  0  0  0  0
   54.3211  -14.8862    4.9722 C   0  0  0  0  0  0  0  0  0  0  0  0
   54.0487  -13.5381    5.1107 N   0  0  0  0  0  0  0  0  0  0  0  0
  1  2  1  0  0  0  0
  1  6  1  0  0  0  0
  2  3  2  0  0  0  0
  3  4  1  0  0  0  0
  4  5  2  0  0  0  0
  4 10  1  0  0  0  0
  5  6  1  0  0  0  0
  5  8  1  0  0  0  0
  6  7  2  0  0  0  0
  8  9  1  0  0  0  0
  9 10  2  0  0  0  0
M  END
>  <CHROM.1>
53.88524931,-14.00772406,7.23000815,2.20384192,-1.34758700,2.12164629

>  <Name>
ligand

>  <RI>
0

>  <Rbt.Current_Directory>
/home/itssahil/PROJECTS/Mol_Feturizer/New_Systems/rnas/2EEV

>  <Rbt.Executable>
rbdock ($Id: //depot/dev/client3/rdock/2013.1/src/exe/rbdock.cxx#4 $)

>  <Rbt.Library>
libRbt.so (2013.1, Build901 2013/11/27)

>  <Rbt.Parameter_File>
/export/apps/rDock/src/rDock_2013.1_src/data/scripts/dock_solv.prm

>  <Rbt.Receptor>
prm/blind_docking_80.prm

>  <SCORE>
-19.2493

>  <SCORE.INTER>
-19.2493

>  <SCORE.INTER.CONST>
1

>  <SCORE.INTER.POLAR>
0

>  <SCORE.INTER.ROT>
0

>  <SCORE.INTER.SOLV>
4.67716

>  <SCORE.INTER.VDW>
-17.9919

>  <SCORE.INTER.norm>
-1.92493

>  <SCORE.INTRA>
0

>  <SCORE.INTRA.DIHEDRAL>
0

>  <SCORE.INTRA.DIHEDRAL.0>
0

>  <SCORE.INTRA.POLAR>
0

>  <SCORE.INTRA.POLAR.0>
0

>  <SCORE.INTRA.REPUL>
0

>  <SCORE.INTRA.REPUL.0>
0

>  <SCORE.INTRA.SOLV>
0

>  <SCORE.INTRA.SOLV.lig_0>
-4.25352

>  <SCORE.INTRA.VDW>
0

>  <SCORE.INTRA.VDW.0>
0

>  <SCORE.INTRA.norm>
0

>  <SCORE.RESTR>
0

>  <SCORE.RESTR.CAVITY>
0

>  <SCORE.RESTR.norm>
0

>  <SCORE.SYSTEM>
0

>  <SCORE.SYSTEM.CONST>
0

>  <SCORE.SYSTEM.DIHEDRAL>
0

>  <SCORE.SYSTEM.SOLV>
0

>  <SCORE.SYSTEM.norm>
0

>  <SCORE.heavy>
10

>  <SCORE.norm>
-1.92493

>  <RMSD>
2.413

$$$$
ligand
 OpenBabel11021811423D
libRbt.so/2013.1/901 2013/11/27
 10 11  0  0  0  0  0  0  0  0999 V2000
   53.5503  -13.3901    9.0484 N   0  0  0  0  0  0  0  0  0  0  0  0
   53.4038  -12.2119    8.3733 C   0  0  0  0  0  0  0  0  0  0  0  0
   53.5585  -12.1338    7.0259 N   0  0  0  0  0  0  0  0  0  0  0  0
   53.8580  -13.3354    6.4533 C   0  0  0  0  0  0  0  0  0  0  0  0
   54.0134  -14.5466    7.0853 C   0  0  0  0  0  0  0  0  0  0  0  0
   53.8631  -14.6337    8.4723 C   0  0  0  0  0  0  0  0  0  0  0  0
   53.9638  -15.5995    9.1998 O   0  0  0  0  0  0  0  0  0  0  0  0
   54.3081  -15.4956    6.1440 N   0  0  0  0  0  0  0  0  0  0  0  0
   54.3317  -14.8770    4.9681 C   0  0  0  0  0  0  0  0  0  0  0  0
   54.0594  -13.5292    5.1094 N   0  0  0  0  0  0  0  0  0  0  0  0
  1  2  1  0  0  0  0
  1  6  1  0  0  0  0
  2  3  2  0  0  0  0
  3  4  1  0  0  0  0
  4  5  2  0  0  0  0
  4 10  1  0  0  0  0
  5  6  1  0  0  0  0
  5  8  1  0  0  0  0
  6  7  2  0  0  0  0
  8  9  1  0  0  0  0
  9 10  2  0  0  0  0
M  END
>  <CHROM.1>
53.89190202,-14.00390356,7.22721747,2.21161334,-1.34686617,2.13164526

>  <Name>
ligand

>  <RI>
0

>  <Rbt.Current_Directory>
/home/itssahil/PROJECTS/Mol_Feturizer/New_Systems/rnas/2EEV

>  <Rbt.Executable>
rbdock ($Id: //depot/dev/client3/rdock/2013.1/src/exe/rbdock.cxx#4 $)

>  <Rbt.Library>
libRbt.so (2013.1, Build901 2013/11/27)

>  <Rbt.Parameter_File>
/export/apps/rDock/src/rDock_2013.1_src/data/scripts/dock_solv.prm

>  <Rbt.Receptor>
prm/pocket_docking_4.prm

>  <SCORE>
-19.2595

>  <SCORE.INTER>
-19.2595

>  <SCORE.INTER.CONST>
1

>  <SCORE.INTER.POLAR>
0

>  <SCORE.INTER.ROT>
0

>  <SCORE.INTER.SOLV>
4.67247

>  <SCORE.INTER.VDW>
-17.9972

>  <SCORE.INTER.norm>
-1.92595

>  <SCORE.INTRA>
0

>  <SCORE.INTRA.DIHEDRAL>
0

>  <SCORE.INTRA.DIHEDRAL.0>
0

>  <SCORE.INTRA.POLAR>
0

>  <SCORE.INTRA.POLAR.0>
0

>  <SCORE.INTRA.REPUL>
0

>  <SCORE.INTRA.REPUL.0>
0

>  <SCORE.INTRA.SOLV>
0

>  <SCORE.INTRA.SOLV.lig_0>
-4.25352

>  <SCORE.INTRA.VDW>
0

>  <SCORE.INTRA.VDW.0>
0

>  <SCORE.INTRA.norm>
0

>  <SCORE.RESTR>
0

>  <SCORE.RESTR.CAVITY>
0

>  <SCORE.RESTR.norm>
0

>  <SCORE.SYSTEM>
0

>  <SCORE.SYSTEM.CONST>
0

>  <SCORE.SYSTEM.DIHEDRAL>
0

>  <SCORE.SYSTEM.SOLV>
0

>  <SCORE.SYSTEM.norm>
0

>  <SCORE.heavy>
10

>  <SCORE.norm>
-1.92595

>  <RMSD>
2.413

$$$$
ligand
 OpenBabel11021811423D
libRbt.so/2013.1/901 2013/11/27
 10 11  0  0  0  0  0  0  0  0999 V2000
   53.5550  -13.3875    9.0482 N   0  0  0  0  0  0  0  0  0  0  0  0
   53.4149  -12.2099    8.3708 C   0  0  0  0  0  0  0  0  0  0  0  0
   53.5691  -12.1355    7.0231 N   0  0  0  0  0  0  0  0  0  0  0  0
   53.8613  -13.3399    6.4528 C   0  0  0  0  0  0  0  0  0  0  0  0
   54.0101  -14.5508    7.0873 C   0  0  0  0  0  0  0  0  0  0  0  0
   53.8602  -14.6341    8.4745 C   0  0  0  0  0  0  0  0  0  0  0  0
   53.9559  -15.5989    9.2039 O   0  0  0  0  0  0  0  0  0  0  0  0
   54.2986  -15.5034    6.1478 N   0  0  0  0  0  0  0  0  0  0  0  0
   54.3250  -14.8874    4.9705 C   0  0  0  0  0  0  0  0  0  0  0  0
   54.0606  -13.5377    5.1092 N   0  0  0  0  0  0  0  0  0  0  0  0
  1  2  1  0  0  0  0
  1  6  1  0  0  0  0
  2  3  2  0  0  0  0
  3  4  1  0  0  0  0
  4  5  2  0  0  0  0
  4 10  1  0  0  0  0
  5  6  1  0  0  0  0
  5  8  1  0  0  0  0
  6  7  2  0  0  0  0
  8  9  1  0  0  0  0
  9 10  2  0  0  0  0
M  END
>  <CHROM.1>
53.89179344,-14.00705544,7.22809106,2.22308468,-1.35211391,2.14074987

>  <Name>
ligand

>  <RI>
0

>  <Rbt.Current_Directory>
/home/itssahil/PROJECTS/Mol_Feturizer/New_Systems/rnas/2EEV

>  <Rbt.Executable>
rbdock ($Id: //depot/dev/client3/rdock/2013.1/src/exe/rbdock.cxx#4 $)

>  <Rbt.Library>
libRbt.so (2013.1, Build901 2013/11/27)

>  <Rbt.Parameter_File>
/export/apps/rDock/src/rDock_2013.1_src/data/scripts/dock_solv.prm

>  <Rbt.Receptor>
prm/pocket_docking_7.prm

>  <SCORE>
-19.2658

>  <SCORE.INTER>
-19.2658

>  <SCORE.INTER.CONST>
1

>  <SCORE.INTER.POLAR>
0

>  <SCORE.INTER.ROT>
0

>  <SCORE.INTER.SOLV>
4.68235

>  <SCORE.INTER.VDW>
-18.0047

>  <SCORE.INTER.norm>
-1.92658

>  <SCORE.INTRA>
0

>  <SCORE.INTRA.DIHEDRAL>
0

>  <SCORE.INTRA.DIHEDRAL.0>
0

>  <SCORE.INTRA.POLAR>
0

>  <SCORE.INTRA.POLAR.0>
0

>  <SCORE.INTRA.REPUL>
0

>  <SCORE.INTRA.REPUL.0>
0

>  <SCORE.INTRA.SOLV>
0

>  <SCORE.INTRA.SOLV.lig_0>
-4.25352

>  <SCORE.INTRA.VDW>
0

>  <SCORE.INTRA.VDW.0>
0

>  <SCORE.INTRA.norm>
0

>  <SCORE.RESTR>
0

>  <SCORE.RESTR.CAVITY>
0

>  <SCORE.RESTR.norm>
0

>  <SCORE.SYSTEM>
0

>  <SCORE.SYSTEM.CONST>
0

>  <SCORE.SYSTEM.DIHEDRAL>
0

>  <SCORE.SYSTEM.SOLV>
0

>  <SCORE.SYSTEM.norm>
0

>  <SCORE.heavy>
10

>  <SCORE.norm>
-1.92658

>  <RMSD>
2.413

$$$$
ligand
 OpenBabel11021811423D
libRbt.so/2013.1/901 2013/11/27
 10 11  0  0  0  0  0  0  0  0999 V2000
   53.9858  -13.2029    5.7856 N   0  0  0  0  0  0  0  0  0  0  0  0
   54.3479  -14.4943    5.5280 C   0  0  0  0  0  0  0  0  0  0  0  0
   54.3900  -15.4358    6.5065 N   0  0  0  0  0  0  0  0  0  0  0  0
   54.0305  -14.9498    7.7296 C   0  0  0  0  0  0  0  0  0  0  0  0
   53.6565  -13.6636    8.0406 C   0  0  0  0  0  0  0  0  0  0  0  0
   53.6177  -12.6876    7.0408 C   0  0  0  0  0  0  0  0  0  0  0  0
   53.3208  -11.5139    7.1199 O   0  0  0  0  0  0  0  0  0  0  0  0
   53.3761  -13.6020    9.3790 N   0  0  0  0  0  0  0  0  0  0  0  0
   53.5749  -14.8207    9.8703 C   0  0  0  0  0  0  0  0  0  0  0  0
   53.9857  -15.6950    8.8814 N   0  0  0  0  0  0  0  0  0  0  0  0
  1  2  1  0  0  0  0
  1  6  1  0  0  0  0
  2  3  2  0  0  0  0
  3  4  1  0  0  0  0
  4  5  2  0  0  0  0
  4 10  1  0  0  0  0
  5  6  1  0  0  0  0
  5  8  1  0  0  0  0
  6  7  2  0  0  0  0
  8  9  1  0  0  0  0
  9 10  2  0  0  0  0
M  END
>  <CHROM.1>
53.81963417,-13.96012877,7.57705332,-1.53401056,-1.26862041,2.25290050

>  <Name>
ligand

>  <RI>
0

>  <Rbt.Current_Directory>
/home/itssahil/PROJECTS/Mol_Feturizer/New_Systems/rnas/2EEV

>  <Rbt.Executable>
rbdock ($Id: //depot/dev/client3/rdock/2013.1/src/exe/rbdock.cxx#4 $)

>  <Rbt.Library>
libRbt.so (2013.1, Build901 2013/11/27)

>  <Rbt.Parameter_File>
/export/apps/rDock/src/rDock_2013.1_src/data/scripts/dock_solv.prm

>  <Rbt.Receptor>
prm/blind_docking_100.prm

>  <SCORE>
-18.0955

>  <SCORE.INTER>
-18.1442

>  <SCORE.INTER.CONST>
1

>  <SCORE.INTER.POLAR>
0

>  <SCORE.INTER.ROT>
0

>  <SCORE.INTER.SOLV>
4.28828

>  <SCORE.INTER.VDW>
-17.1256

>  <SCORE.INTER.norm>
-1.81442

>  <SCORE.INTRA>
0

>  <SCORE.INTRA.DIHEDRAL>
0

>  <SCORE.INTRA.DIHEDRAL.0>
0

>  <SCORE.INTRA.POLAR>
0

>  <SCORE.INTRA.POLAR.0>
0

>  <SCORE.INTRA.REPUL>
0

>  <SCORE.INTRA.REPUL.0>
0

>  <SCORE.INTRA.SOLV>
0

>  <SCORE.INTRA.SOLV.lig_0>
-4.25352

>  <SCORE.INTRA.VDW>
0

>  <SCORE.INTRA.VDW.0>
0

>  <SCORE.INTRA.norm>
0

>  <SCORE.RESTR>
0.0487335

>  <SCORE.RESTR.CAVITY>
0.0487335

>  <SCORE.RESTR.norm>
0.00487335

>  <SCORE.SYSTEM>
0

>  <SCORE.SYSTEM.CONST>
0

>  <SCORE.SYSTEM.DIHEDRAL>
0

>  <SCORE.SYSTEM.SOLV>
0

>  <SCORE.SYSTEM.norm>
0

>  <SCORE.heavy>
10

>  <SCORE.norm>
-1.80955

>  <RMSD>
2.863

$$$$
ligand
 OpenBabel11021811423D
libRbt.so/2013.1/901 2013/11/27
 10 11  0  0  0  0  0  0  0  0999 V2000
   54.0072  -13.1539    5.8058 N   0  0  0  0  0  0  0  0  0  0  0  0
   54.3289  -14.4526    5.5316 C   0  0  0  0  0  0  0  0  0  0  0  0
   54.3374  -15.4082    6.4973 N   0  0  0  0  0  0  0  0  0  0  0  0
   53.9890  -14.9276    7.7257 C   0  0  0  0  0  0  0  0  0  0  0  0
   53.6551  -13.6345    8.0532 C   0  0  0  0  0  0  0  0  0  0  0  0
   53.6511  -12.6442    7.0667 C   0  0  0  0  0  0  0  0  0  0  0  0
   53.3915  -11.4628    7.1609 O   0  0  0  0  0  0  0  0  0  0  0  0
   53.3720  -13.5822    9.3913 N   0  0  0  0  0  0  0  0  0  0  0  0
   53.5299  -14.8132    9.8665 C   0  0  0  0  0  0  0  0  0  0  0  0
   53.9163  -15.6866    8.8671 N   0  0  0  0  0  0  0  0  0  0  0  0
  1  2  1  0  0  0  0
  1  6  1  0  0  0  0
  2  3  2  0  0  0  0
  3  4  1  0  0  0  0
  4  5  2  0  0  0  0
  4 10  1  0  0  0  0
  5  6  1  0  0  0  0
  5  8  1  0  0  0  0
  6  7  2  0  0  0  0
  8  9  1  0  0  0  0
  9 10  2  0  0  0  0
M  END
>  <CHROM.1>
53.81042626,-13.92973955,7.58609039,-1.45106779,-1.29015455,2.34602247

>  <Name>
ligand

>  <RI>
0

>  <Rbt.Current_Directory>
/home/itssahil/PROJECTS/Mol_Feturizer/New_Systems/rnas/2EEV

>  <Rbt.Executable>
rbdock ($Id: //depot/dev/client3/rdock/2013.1/src/exe/rbdock.cxx#4 $)

>  <Rbt.Library>
libRbt.so (2013.1, Build901 2013/11/27)

>  <Rbt.Parameter_File>
/export/apps/rDock/src/rDock_2013.1_src/data/scripts/dock_solv.prm

>  <Rbt.Receptor>
prm/pocket_docking_5.prm

>  <SCORE>
-18.0314

>  <SCORE.INTER>
-18.0683

>  <SCORE.INTER.CONST>
1

>  <SCORE.INTER.POLAR>
0

>  <SCORE.INTER.ROT>
0

>  <SCORE.INTER.SOLV>
4.37487

>  <SCORE.INTER.VDW>
-17.1038

>  <SCORE.INTER.norm>
-1.80683

>  <SCORE.INTRA>
0

>  <SCORE.INTRA.DIHEDRAL>
0

>  <SCORE.INTRA.DIHEDRAL.0>
0

>  <SCORE.INTRA.POLAR>
0

>  <SCORE.INTRA.POLAR.0>
0

>  <SCORE.INTRA.REPUL>
0

>  <SCORE.INTRA.REPUL.0>
0

>  <SCORE.INTRA.SOLV>
0

>  <SCORE.INTRA.SOLV.lig_0>
-4.25352

>  <SCORE.INTRA.VDW>
0

>  <SCORE.INTRA.VDW.0>
0

>  <SCORE.INTRA.norm>
0

>  <SCORE.RESTR>
0.036982

>  <SCORE.RESTR.CAVITY>
0.036982

>  <SCORE.RESTR.norm>
0.0036982

>  <SCORE.SYSTEM>
0

>  <SCORE.SYSTEM.CONST>
0

>  <SCORE.SYSTEM.DIHEDRAL>
0

>  <SCORE.SYSTEM.SOLV>
0

>  <SCORE.SYSTEM.norm>
0

>  <SCORE.heavy>
10

>  <SCORE.norm>
-1.80314

>  <RMSD>
2.864

$$$$
ligand
 OpenBabel11021811423D
libRbt.so/2013.1/901 2013/11/27
 10 11  0  0  0  0  0  0  0  0999 V2000
   53.9899  -13.1782    5.7655 N   0  0  0  0  0  0  0  0  0  0  0  0
   54.3211  -14.4775    5.5058 C   0  0  0  0  0  0  0  0  0  0  0  0
   54.3512  -15.4190    6.4847 N   0  0  0  0  0  0  0  0  0  0  0  0
   54.0135  -14.9243    7.7105 C   0  0  0  0  0  0  0  0  0  0  0  0
   53.6707  -13.6300    8.0237 C   0  0  0  0  0  0  0  0  0  0  0  0
   53.6445  -12.6540    7.0234 C   0  0  0  0  0  0  0  0  0  0  0  0
   53.3744  -11.4740    7.1041 O   0  0  0  0  0  0  0  0  0  0  0  0
   53.4038  -13.5613    9.3645 N   0  0  0  0  0  0  0  0  0  0  0  0
   53.5800  -14.7837    9.8551 C   0  0  0  0  0  0  0  0  0  0  0  0
   53.9625  -15.6675    8.8634 N   0  0  0  0  0  0  0  0  0  0  0  0
  1  2  1  0  0  0  0
  1  6  1  0  0  0  0
  2  3  2  0  0  0  0
  3  4  1  0  0  0  0
  4  5  2  0  0  0  0
  4 10  1  0  0  0  0
  5  6  1  0  0  0  0
  5  8  1  0  0  0  0
  6  7  2  0  0  0  0
  8  9  1  0  0  0  0
  9 10  2  0  0  0  0
M  END
>  <CHROM.1>
53.82315988,-13.93035292,7.55899158,-1.50877277,-1.29133183,2.27627794

>  <Name>
ligand

>  <RI>
0

>  <Rbt.Current_Directory>
/home/itssahil/PROJECTS/Mol_Feturizer/New_Systems/rnas/2EEV

>  <Rbt.Executable>
rbdock ($Id: //depot/dev/client3/rdock/2013.1/src/exe/rbdock.cxx#4 $)

>  <Rbt.Library>
libRbt.so (2013.1, Build901 2013/11/27)

>  <Rbt.Parameter_File>
/export/apps/rDock/src/rDock_2013.1_src/data/scripts/dock_solv.prm

>  <Rbt.Receptor>
prm/pocket_docking_6.prm

>  <SCORE>
-18.0254

>  <SCORE.INTER>
-18.0471

>  <SCORE.INTER.CONST>
1

>  <SCORE.INTER.POLAR>
0

>  <SCORE.INTER.ROT>
0

>  <SCORE.INTER.SOLV>
4.33504

>  <SCORE.INTER.VDW>
-17.0764

>  <SCORE.INTER.norm>
-1.80471

>  <SCORE.INTRA>
0

>  <SCORE.INTRA.DIHEDRAL>
0

>  <SCORE.INTRA.DIHEDRAL.0>
0

>  <SCORE.INTRA.POLAR>
0

>  <SCORE.INTRA.POLAR.0>
0

>  <SCORE.INTRA.REPUL>
0

>  <SCORE.INTRA.REPUL.0>
0

>  <SCORE.INTRA.SOLV>
0

>  <SCORE.INTRA.SOLV.lig_0>
-4.25352

>  <SCORE.INTRA.VDW>
0

>  <SCORE.INTRA.VDW.0>
0

>  <SCORE.INTRA.norm>
0

>  <SCORE.RESTR>
0.02175

>  <SCORE.RESTR.CAVITY>
0.02175

>  <SCORE.RESTR.norm>
0.002175

>  <SCORE.SYSTEM>
0

>  <SCORE.SYSTEM.CONST>
0

>  <SCORE.SYSTEM.DIHEDRAL>
0

>  <SCORE.SYSTEM.SOLV>
0

>  <SCORE.SYSTEM.norm>
0

>  <SCORE.heavy>
10

>  <SCORE.norm>
-1.80254

>  <RMSD>
2.864

$$$$
ligand
 OpenBabel11021811423D
libRbt.so/2013.1/901 2013/11/27
 10 11  0  0  0  0  0  0  0  0999 V2000
   54.0011  -13.1770    5.7609 N   0  0  0  0  0  0  0  0  0  0  0  0
   54.3251  -14.4783    5.5025 C   0  0  0  0  0  0  0  0  0  0  0  0
   54.3427  -15.4206    6.4810 N   0  0  0  0  0  0  0  0  0  0  0  0
   54.0005  -14.9243    7.7049 C   0  0  0  0  0  0  0  0  0  0  0  0
   53.6645  -13.6279    8.0167 C   0  0  0  0  0  0  0  0  0  0  0  0
   53.6512  -12.6513    7.0169 C   0  0  0  0  0  0  0  0  0  0  0  0
   53.3884  -11.4695    7.0966 O   0  0  0  0  0  0  0  0  0  0  0  0
   53.3895  -13.5582    9.3558 N   0  0  0  0  0  0  0  0  0  0  0  0
   53.5543  -14.7821    9.8468 C   0  0  0  0  0  0  0  0  0  0  0  0
   53.9372  -15.6679    8.8570 N   0  0  0  0  0  0  0  0  0  0  0  0
  1  2  1  0  0  0  0
  1  6  1  0  0  0  0
  2  3  2  0  0  0  0
  3  4  1  0  0  0  0
  4  5  2  0  0  0  0
  4 10  1  0  0  0  0
  5  6  1  0  0  0  0
  5  8  1  0  0  0  0
  6  7  2  0  0  0  0
  8  9  1  0  0  0  0
  9 10  2  0  0  0  0
M  END
>  <CHROM.1>
53.81781496,-13.92905329,7.55279591,-1.47534281,-1.29214935,2.30902331

>  <Name>
ligand

>  <RI>
0

>  <Rbt.Current_Directory>
/home/itssahil/PROJECTS/Mol_Feturizer/New_Systems/rnas/2EEV

>  <Rbt.Executable>
rbdock ($Id: //depot/dev/client3/rdock/2013.1/src/exe/rbdock.cxx#4 $)

>  <Rbt.Library>
libRbt.so (2013.1, Build901 2013/11/27)

>  <Rbt.Parameter_File>
/export/apps/rDock/src/rDock_2013.1_src/data/scripts/dock_solv.prm

>  <Rbt.Receptor>
prm/blind_docking_60.prm

>  <SCORE>
-18.0225

>  <SCORE.INTER>
-18.0424

>  <SCORE.INTER.CONST>
1

>  <SCORE.INTER.POLAR>
0

>  <SCORE.INTER.ROT>
0

>  <SCORE.INTER.SOLV>
4.36268

>  <SCORE.INTER.VDW>
-17.0825

>  <SCORE.INTER.norm>
-1.80424

>  <SCORE.INTRA>
0

>  <SCORE.INTRA.DIHEDRAL>
0

>  <SCORE.INTRA.DIHEDRAL.0>
0

>  <SCORE.INTRA.POLAR>
0

>  <SCORE.INTRA.POLAR.0>
0

>  <SCORE.INTRA.REPUL>
0

>  <SCORE.INTRA.REPUL.0>
0

>  <SCORE.INTRA.SOLV>
0

>  <SCORE.INTRA.SOLV.lig_0>
-4.25352

>  <SCORE.INTRA.VDW>
0

>  <SCORE.INTRA.VDW.0>
0

>  <SCORE.INTRA.norm>
0

>  <SCORE.RESTR>
0.0198536

>  <SCORE.RESTR.CAVITY>
0.0198536

>  <SCORE.RESTR.norm>
0.00198536

>  <SCORE.SYSTEM>
0

>  <SCORE.SYSTEM.CONST>
0

>  <SCORE.SYSTEM.DIHEDRAL>
0

>  <SCORE.SYSTEM.SOLV>
0

>  <SCORE.SYSTEM.norm>
0

>  <SCORE.heavy>
10

>  <SCORE.norm>
-1.80225

>  <RMSD>
2.865

$$$$
ligand
 OpenBabel11021811423D
libRbt.so/2013.1/901 2013/11/27
 10 11  0  0  0  0  0  0  0  0999 V2000
   54.0091  -13.1999    5.7674 N   0  0  0  0  0  0  0  0  0  0  0  0
   54.3409  -14.5006    5.5157 C   0  0  0  0  0  0  0  0  0  0  0  0
   54.3617  -15.4382    6.4987 N   0  0  0  0  0  0  0  0  0  0  0  0
   54.0142  -14.9381    7.7195 C   0  0  0  0  0  0  0  0  0  0  0  0
   53.6703  -13.6422    8.0247 C   0  0  0  0  0  0  0  0  0  0  0  0
   53.6537  -12.6702    7.0202 C   0  0  0  0  0  0  0  0  0  0  0  0
   53.3842  -11.4896    7.0939 O   0  0  0  0  0  0  0  0  0  0  0  0
   53.3922  -13.5678    9.3628 N   0  0  0  0  0  0  0  0  0  0  0  0
   53.5628  -14.7884    9.8598 C   0  0  0  0  0  0  0  0  0  0  0  0
   53.9527  -15.6766    8.8749 N   0  0  0  0  0  0  0  0  0  0  0  0
  1  2  1  0  0  0  0
  1  6  1  0  0  0  0
  2  3  2  0  0  0  0
  3  4  1  0  0  0  0
  4  5  2  0  0  0  0
  4 10  1  0  0  0  0
  5  6  1  0  0  0  0
  5  8  1  0  0  0  0
  6  7  2  0  0  0  0
  8  9  1  0  0  0  0
  9 10  2  0  0  0  0
M  END
>  <CHROM.1>
53.82633523,-13.94459298,7.56243247,-1.48314391,-1.28665003,2.29687819

>  <Name>
ligand

>  <RI>
0

>  <Rbt.Current_Directory>
/home/itssahil/PROJECTS/Mol_Feturizer/New_Systems/rnas/2EEV

>  <Rbt.Executable>
rbdock ($Id: //depot/dev/client3/rdock/2013.1/src/exe/rbdock.cxx#4 $)

>  <Rbt.Library>
libRbt.so (2013.1, Build901 2013/11/27)

>  <Rbt.Parameter_File>
/export/apps/rDock/src/rDock_2013.1_src/data/scripts/dock_solv.prm

>  <Rbt.Receptor>
prm/blind_docking_60.prm

>  <SCORE>
-18.0646

>  <SCORE.INTER>
-18.0971

>  <SCORE.INTER.CONST>
1

>  <SCORE.INTER.POLAR>
0

>  <SCORE.INTER.ROT>
0

>  <SCORE.INTER.SOLV>
4.34831

>  <SCORE.INTER.VDW>
-17.1142

>  <SCORE.INTER.norm>
-1.80971

>  <SCORE.INTRA>
0

>  <SCORE.INTRA.DIHEDRAL>
0

>  <SCORE.INTRA.DIHEDRAL.0>
0

>  <SCORE.INTRA.POLAR>
0

>  <SCORE.INTRA.POLAR.0>
0

>  <SCORE.INTRA.REPUL>
0

>  <SCORE.INTRA.REPUL.0>
0

>  <SCORE.INTRA.SOLV>
0

>  <SCORE.INTRA.SOLV.lig_0>
-4.25352

>  <SCORE.INTRA.VDW>
0

>  <SCORE.INTRA.VDW.0>
0

>  <SCORE.INTRA.norm>
0

>  <SCORE.RESTR>
0.0324638

>  <SCORE.RESTR.CAVITY>
0.0324638

>  <SCORE.RESTR.norm>
0.00324638

>  <SCORE.SYSTEM>
0

>  <SCORE.SYSTEM.CONST>
0

>  <SCORE.SYSTEM.DIHEDRAL>
0

>  <SCORE.SYSTEM.SOLV>
0

>  <SCORE.SYSTEM.norm>
0

>  <SCORE.heavy>
10

>  <SCORE.norm>
-1.80646

>  <RMSD>
2.865

$$$$
ligand
 OpenBabel11021811423D
libRbt.so/2013.1/901 2013/11/27
 10 11  0  0  0  0  0  0  0  0999 V2000
   54.0036  -13.1992    5.7678 N   0  0  0  0  0  0  0  0  0  0  0  0
   54.3362  -14.4995    5.5152 C   0  0  0  0  0  0  0  0  0  0  0  0
   54.3611  -15.4369    6.4982 N   0  0  0  0  0  0  0  0  0  0  0  0
   54.0167  -14.9372    7.7201 C   0  0  0  0  0  0  0  0  0  0  0  0
   53.6722  -13.6417    8.0261 C   0  0  0  0  0  0  0  0  0  0  0  0
   53.6514  -12.6699    7.0217 C   0  0  0  0  0  0  0  0  0  0  0  0
   53.3807  -11.4895    7.0961 O   0  0  0  0  0  0  0  0  0  0  0  0
   53.3981  -13.5675    9.3651 N   0  0  0  0  0  0  0  0  0  0  0  0
   53.5717  -14.7879    9.8617 C   0  0  0  0  0  0  0  0  0  0  0  0
   53.9596  -15.6757    8.8757 N   0  0  0  0  0  0  0  0  0  0  0  0
  1  2  1  0  0  0  0
  1  6  1  0  0  0  0
  2  3  2  0  0  0  0
  3  4  1  0  0  0  0
  4  5  2  0  0  0  0
  4 10  1  0  0  0  0
  5  6  1  0  0  0  0
  5  8  1  0  0  0  0
  6  7  2  0  0  0  0
  8  9  1  0  0  0  0
  9 10  2  0  0  0  0
M  END
>  <CHROM.1>
53.82715653,-13.94394573,7.56343690,-1.49416096,-1.28775385,2.28621907

>  <Name>
ligand

>  <RI>
0

>  <Rbt.Current_Directory>
/home/itssahil/PROJECTS/Mol_Feturizer/New_Systems/rnas/2EEV

>  <Rbt.Executable>
rbdock ($Id: //depot/dev/client3/rdock/2013.1/src/exe/rbdock.cxx#4 $)

>  <Rbt.Library>
libRbt.so (2013.1, Build901 2013/11/27)

>  <Rbt.Parameter_File>
/export/apps/rDock/src/rDock_2013.1_src/data/scripts/dock_solv.prm

>  <Rbt.Receptor>
prm/blind_docking_60.prm

>  <SCORE>
-18.0625

>  <SCORE.INTER>
-18.0946

>  <SCORE.INTER.CONST>
1

>  <SCORE.INTER.POLAR>
0

>  <SCORE.INTER.ROT>
0

>  <SCORE.INTER.SOLV>
4.34117

>  <SCORE.INTER.VDW>
-17.1101

>  <SCORE.INTER.norm>
-1.80946

>  <SCORE.INTRA>
0

>  <SCORE.INTRA.DIHEDRAL>
0

>  <SCORE.INTRA.DIHEDRAL.0>
0

>  <SCORE.INTRA.POLAR>
0

>  <SCORE.INTRA.POLAR.0>
0

>  <SCORE.INTRA.REPUL>
0

>  <SCORE.INTRA.REPUL.0>
0

>  <SCORE.INTRA.SOLV>
0

>  <SCORE.INTRA.SOLV.lig_0>
-4.25352

>  <SCORE.INTRA.VDW>
0

>  <SCORE.INTRA.VDW.0>
0

>  <SCORE.INTRA.norm>
0

>  <SCORE.RESTR>
0.0320453

>  <SCORE.RESTR.CAVITY>
0.0320453

>  <SCORE.RESTR.norm>
0.00320453

>  <SCORE.SYSTEM>
0

>  <SCORE.SYSTEM.CONST>
0

>  <SCORE.SYSTEM.DIHEDRAL>
0

>  <SCORE.SYSTEM.SOLV>
0

>  <SCORE.SYSTEM.norm>
0

>  <SCORE.heavy>
10

>  <SCORE.norm>
-1.80625

>  <RMSD>
2.865

$$$$
ligand
 OpenBabel11021811423D
libRbt.so/2013.1/901 2013/11/27
 10 11  0  0  0  0  0  0  0  0999 V2000
   54.0078  -13.1987    5.7673 N   0  0  0  0  0  0  0  0  0  0  0  0
   54.3400  -14.4992    5.5155 C   0  0  0  0  0  0  0  0  0  0  0  0
   54.3599  -15.4372    6.4981 N   0  0  0  0  0  0  0  0  0  0  0  0
   54.0111  -14.9377    7.7188 C   0  0  0  0  0  0  0  0  0  0  0  0
   53.6668  -13.6418    8.0241 C   0  0  0  0  0  0  0  0  0  0  0  0
   53.6511  -12.6695    7.0200 C   0  0  0  0  0  0  0  0  0  0  0  0
   53.3814  -11.4889    7.0939 O   0  0  0  0  0  0  0  0  0  0  0  0
   53.3873  -13.5680    9.3620 N   0  0  0  0  0  0  0  0  0  0  0  0
   53.5576  -14.7888    9.8587 C   0  0  0  0  0  0  0  0  0  0  0  0
   53.9485  -15.6766    8.8739 N   0  0  0  0  0  0  0  0  0  0  0  0
  1  2  1  0  0  0  0
  1  6  1  0  0  0  0
  2  3  2  0  0  0  0
  3  4  1  0  0  0  0
  4  5  2  0  0  0  0
  4 10  1  0  0  0  0
  5  6  1  0  0  0  0
  5  8  1  0  0  0  0
  6  7  2  0  0  0  0
  8  9  1  0  0  0  0
  9 10  2  0  0  0  0
M  END
>  <CHROM.1>
53.82330758,-13.94407258,7.56190814,-1.48069085,-1.28590387,2.29959470

>  <Name>
ligand

>  <RI>
0

>  <Rbt.Current_Directory>
/home/itssahil/PROJECTS/Mol_Feturizer/New_Systems/rnas/2EEV

>  <Rbt.Executable>
rbdock ($Id: //depot/dev/client3/rdock/2013.1/src/exe/rbdock.cxx#4 $)

>  <Rbt.Library>
libRbt.so (2013.1, Build901 2013/11/27)

>  <Rbt.Parameter_File>
/export/apps/rDock/src/rDock_2013.1_src/data/scripts/dock_solv.prm

>  <Rbt.Receptor>
prm/blind_docking_80.prm

>  <SCORE>
-18.0637

>  <SCORE.INTER>
-18.0957

>  <SCORE.INTER.CONST>
1

>  <SCORE.INTER.POLAR>
0

>  <SCORE.INTER.ROT>
0

>  <SCORE.INTER.SOLV>
4.34958

>  <SCORE.INTER.VDW>
-17.1137

>  <SCORE.INTER.norm>
-1.80957

>  <SCORE.INTRA>
0

>  <SCORE.INTRA.DIHEDRAL>
0

>  <SCORE.INTRA.DIHEDRAL.0>
0

>  <SCORE.INTRA.POLAR>
0

>  <SCORE.INTRA.POLAR.0>
0

>  <SCORE.INTRA.REPUL>
0

>  <SCORE.INTRA.REPUL.0>
0

>  <SCORE.INTRA.SOLV>
0

>  <SCORE.INTRA.SOLV.lig_0>
-4.25352

>  <SCORE.INTRA.VDW>
0

>  <SCORE.INTRA.VDW.0>
0

>  <SCORE.INTRA.norm>
0

>  <SCORE.RESTR>
0.0320586

>  <SCORE.RESTR.CAVITY>
0.0320586

>  <SCORE.RESTR.norm>
0.00320586

>  <SCORE.SYSTEM>
0

>  <SCORE.SYSTEM.CONST>
0

>  <SCORE.SYSTEM.DIHEDRAL>
0

>  <SCORE.SYSTEM.SOLV>
0

>  <SCORE.SYSTEM.norm>
0

>  <SCORE.heavy>
10

>  <SCORE.norm>
-1.80637

>  <RMSD>
2.865

$$$$
ligand
 OpenBabel11021811423D
libRbt.so/2013.1/901 2013/11/27
 10 11  0  0  0  0  0  0  0  0999 V2000
   54.0059  -13.1783    5.7609 N   0  0  0  0  0  0  0  0  0  0  0  0
   54.3274  -14.4804    5.5032 C   0  0  0  0  0  0  0  0  0  0  0  0
   54.3445  -15.4219    6.4825 N   0  0  0  0  0  0  0  0  0  0  0  0
   54.0046  -14.9241    7.7064 C   0  0  0  0  0  0  0  0  0  0  0  0
   53.6711  -13.6268    8.0175 C   0  0  0  0  0  0  0  0  0  0  0  0
   53.6583  -12.6510    7.0169 C   0  0  0  0  0  0  0  0  0  0  0  0
   53.3976  -11.4687    7.0960 O   0  0  0  0  0  0  0  0  0  0  0  0
   53.3978  -13.5556    9.3568 N   0  0  0  0  0  0  0  0  0  0  0  0
   53.5612  -14.7793    9.8486 C   0  0  0  0  0  0  0  0  0  0  0  0
   53.9414  -15.6665    8.8591 N   0  0  0  0  0  0  0  0  0  0  0  0
  1  2  1  0  0  0  0
  1  6  1  0  0  0  0
  2  3  2  0  0  0  0
  3  4  1  0  0  0  0
  4  5  2  0  0  0  0
  4 10  1  0  0  0  0
  5  6  1  0  0  0  0
  5  8  1  0  0  0  0
  6  7  2  0  0  0  0
  8  9  1  0  0  0  0
  9 10  2  0  0  0  0
M  END
>  <CHROM.1>
53.82342714,-13.92858183,7.55366076,-1.47429071,-1.29418988,2.30920522

>  <Name>
ligand

>  <RI>
0

>  <Rbt.Current_Directory>
/home/itssahil/PROJECTS/Mol_Feturizer/New_Systems/rnas/2EEV

>  <Rbt.Executable>
rbdock ($Id: //depot/dev/client3/rdock/2013.1/src/exe/rbdock.cxx#4 $)

>  <Rbt.Library>
libRbt.so (2013.1, Build901 2013/11/27)

>  <Rbt.Parameter_File>
/export/apps/rDock/src/rDock_2013.1_src/data/scripts/dock_solv.prm

>  <Rbt.Receptor>
prm/blind_docking_80.prm

>  <SCORE>
-18.0219

>  <SCORE.INTER>
-18.0415

>  <SCORE.INTER.CONST>
1

>  <SCORE.INTER.POLAR>
0

>  <SCORE.INTER.ROT>
0

>  <SCORE.INTER.SOLV>
4.36573

>  <SCORE.INTER.VDW>
-17.0829

>  <SCORE.INTER.norm>
-1.80415

>  <SCORE.INTRA>
0

>  <SCORE.INTRA.DIHEDRAL>
0

>  <SCORE.INTRA.DIHEDRAL.0>
0

>  <SCORE.INTRA.POLAR>
0

>  <SCORE.INTRA.POLAR.0>
0

>  <SCORE.INTRA.REPUL>
0

>  <SCORE.INTRA.REPUL.0>
0

>  <SCORE.INTRA.SOLV>
0

>  <SCORE.INTRA.SOLV.lig_0>
-4.25352

>  <SCORE.INTRA.VDW>
0

>  <SCORE.INTRA.VDW.0>
0

>  <SCORE.INTRA.norm>
0

>  <SCORE.RESTR>
0.0196109

>  <SCORE.RESTR.CAVITY>
0.0196109

>  <SCORE.RESTR.norm>
0.00196109

>  <SCORE.SYSTEM>
0

>  <SCORE.SYSTEM.CONST>
0

>  <SCORE.SYSTEM.DIHEDRAL>
0

>  <SCORE.SYSTEM.SOLV>
0

>  <SCORE.SYSTEM.norm>
0

>  <SCORE.heavy>
10

>  <SCORE.norm>
-1.80219

>  <RMSD>
2.865

$$$$
ligand
 OpenBabel11021811423D
libRbt.so/2013.1/901 2013/11/27
 10 11  0  0  0  0  0  0  0  0999 V2000
   54.0015  -13.1948    5.7686 N   0  0  0  0  0  0  0  0  0  0  0  0
   54.3396  -14.4940    5.5177 C   0  0  0  0  0  0  0  0  0  0  0  0
   54.3667  -15.4305    6.5015 N   0  0  0  0  0  0  0  0  0  0  0  0
   54.0186  -14.9311    7.7224 C   0  0  0  0  0  0  0  0  0  0  0  0
   53.6687  -13.6366    8.0269 C   0  0  0  0  0  0  0  0  0  0  0  0
   53.6455  -12.6658    7.0215 C   0  0  0  0  0  0  0  0  0  0  0  0
   53.3701  -11.4864    7.0945 O   0  0  0  0  0  0  0  0  0  0  0  0
   53.3923  -13.5623    9.3654 N   0  0  0  0  0  0  0  0  0  0  0  0
   53.5699  -14.7816    9.8633 C   0  0  0  0  0  0  0  0  0  0  0  0
   53.9627  -15.6688    8.8787 N   0  0  0  0  0  0  0  0  0  0  0  0
  1  2  1  0  0  0  0
  1  6  1  0  0  0  0
  2  3  2  0  0  0  0
  3  4  1  0  0  0  0
  4  5  2  0  0  0  0
  4 10  1  0  0  0  0
  5  6  1  0  0  0  0
  5  8  1  0  0  0  0
  6  7  2  0  0  0  0
  8  9  1  0  0  0  0
  9 10  2  0  0  0  0
M  END
>  <CHROM.1>
53.82543991,-13.93867870,7.56467483,-1.49937287,-1.28386107,2.28033099

>  <Name>
ligand

>  <RI>
0

>  <Rbt.Current_Directory>
/home/itssahil/PROJECTS/Mol_Feturizer/New_Systems/rnas/2EEV

>  <Rbt.Executable>
rbdock ($Id: //depot/dev/client3/rdock/2013.1/src/exe/rbdock.cxx#4 $)

>  <Rbt.Library>
libRbt.so (2013.1, Build901 2013/11/27)

>  <Rbt.Parameter_File>
/export/apps/rDock/src/rDock_2013.1_src/data/scripts/dock_solv.prm

>  <Rbt.Receptor>
prm/pocket_docking_7.prm

>  <SCORE>
-18.0426

>  <SCORE.INTER>
-18.0704

>  <SCORE.INTER.CONST>
1

>  <SCORE.INTER.POLAR>
0

>  <SCORE.INTER.ROT>
0

>  <SCORE.INTER.SOLV>
4.33045

>  <SCORE.INTER.VDW>
-17.0904

>  <SCORE.INTER.norm>
-1.80704

>  <SCORE.INTRA>
0

>  <SCORE.INTRA.DIHEDRAL>
0

>  <SCORE.INTRA.DIHEDRAL.0>
0

>  <SCORE.INTRA.POLAR>
0

>  <SCORE.INTRA.POLAR.0>
0

>  <SCORE.INTRA.REPUL>
0

>  <SCORE.INTRA.REPUL.0>
0

>  <SCORE.INTRA.SOLV>
0

>  <SCORE.INTRA.SOLV.lig_0>
-4.25352

>  <SCORE.INTRA.VDW>
0

>  <SCORE.INTRA.VDW.0>
0

>  <SCORE.INTRA.norm>
0

>  <SCORE.RESTR>
0.0278188

>  <SCORE.RESTR.CAVITY>
0.0278188

>  <SCORE.RESTR.norm>
0.00278188

>  <SCORE.SYSTEM>
0

>  <SCORE.SYSTEM.CONST>
0

>  <SCORE.SYSTEM.DIHEDRAL>
0

>  <SCORE.SYSTEM.SOLV>
0

>  <SCORE.SYSTEM.norm>
0

>  <SCORE.heavy>
10

>  <SCORE.norm>
-1.80426

>  <RMSD>
2.865

$$$$
ligand
 OpenBabel11021811423D
libRbt.so/2013.1/901 2013/11/27
 10 11  0  0  0  0  0  0  0  0999 V2000
   54.0174  -13.1985    5.7653 N   0  0  0  0  0  0  0  0  0  0  0  0
   54.3473  -14.4999    5.5144 C   0  0  0  0  0  0  0  0  0  0  0  0
   54.3623  -15.4379    6.4970 N   0  0  0  0  0  0  0  0  0  0  0  0
   54.0114  -14.9376    7.7168 C   0  0  0  0  0  0  0  0  0  0  0  0
   53.6693  -13.6410    8.0211 C   0  0  0  0  0  0  0  0  0  0  0  0
   53.6585  -12.6686    7.0170 C   0  0  0  0  0  0  0  0  0  0  0  0
   53.3914  -11.4874    7.0902 O   0  0  0  0  0  0  0  0  0  0  0  0
   53.3864  -13.5665    9.3583 N   0  0  0  0  0  0  0  0  0  0  0  0
   53.5525  -14.7877    9.8554 C   0  0  0  0  0  0  0  0  0  0  0  0
   53.9440  -15.6764    8.8717 N   0  0  0  0  0  0  0  0  0  0  0  0
  1  2  1  0  0  0  0
  1  6  1  0  0  0  0
  2  3  2  0  0  0  0
  3  4  1  0  0  0  0
  4  5  2  0  0  0  0
  4 10  1  0  0  0  0
  5  6  1  0  0  0  0
  5  8  1  0  0  0  0
  6  7  2  0  0  0  0
  8  9  1  0  0  0  0
  9 10  2  0  0  0  0
M  END
>  <CHROM.1>
53.82632790,-13.94356497,7.55937561,-1.46809494,-1.28580496,2.31171330

>  <Name>
ligand

>  <RI>
0

>  <Rbt.Current_Directory>
/home/itssahil/PROJECTS/Mol_Feturizer/New_Systems/rnas/2EEV

>  <Rbt.Executable>
rbdock ($Id: //depot/dev/client3/rdock/2013.1/src/exe/rbdock.cxx#4 $)

>  <Rbt.Library>
libRbt.so (2013.1, Build901 2013/11/27)

>  <Rbt.Parameter_File>
/export/apps/rDock/src/rDock_2013.1_src/data/scripts/dock_solv.prm

>  <Rbt.Receptor>
prm/pocket_docking_8.prm

>  <SCORE>
-18.0599

>  <SCORE.INTER>
-18.0911

>  <SCORE.INTER.CONST>
1

>  <SCORE.INTER.POLAR>
0

>  <SCORE.INTER.ROT>
0

>  <SCORE.INTER.SOLV>
4.35908

>  <SCORE.INTER.VDW>
-17.1137

>  <SCORE.INTER.norm>
-1.80911

>  <SCORE.INTRA>
0

>  <SCORE.INTRA.DIHEDRAL>
0

>  <SCORE.INTRA.DIHEDRAL.0>
0

>  <SCORE.INTRA.POLAR>
0

>  <SCORE.INTRA.POLAR.0>
0

>  <SCORE.INTRA.REPUL>
0

>  <SCORE.INTRA.REPUL.0>
0

>  <SCORE.INTRA.SOLV>
0

>  <SCORE.INTRA.SOLV.lig_0>
-4.25352

>  <SCORE.INTRA.VDW>
0

>  <SCORE.INTRA.VDW.0>
0

>  <SCORE.INTRA.norm>
0

>  <SCORE.RESTR>
0.0311211

>  <SCORE.RESTR.CAVITY>
0.0311211

>  <SCORE.RESTR.norm>
0.00311211

>  <SCORE.SYSTEM>
0

>  <SCORE.SYSTEM.CONST>
0

>  <SCORE.SYSTEM.DIHEDRAL>
0

>  <SCORE.SYSTEM.SOLV>
0

>  <SCORE.SYSTEM.norm>
0

>  <SCORE.heavy>
10

>  <SCORE.norm>
-1.80599

>  <RMSD>
2.865

$$$$
ligand
 OpenBabel11021811423D
libRbt.so/2013.1/901 2013/11/27
 10 11  0  0  0  0  0  0  0  0999 V2000
   54.0067  -13.1744    5.7656 N   0  0  0  0  0  0  0  0  0  0  0  0
   54.3288  -14.4757    5.5050 C   0  0  0  0  0  0  0  0  0  0  0  0
   54.3463  -15.4194    6.4821 N   0  0  0  0  0  0  0  0  0  0  0  0
   54.0060  -14.9245    7.7071 C   0  0  0  0  0  0  0  0  0  0  0  0
   53.6720  -13.6282    8.0212 C   0  0  0  0  0  0  0  0  0  0  0  0
   53.6589  -12.6500    7.0228 C   0  0  0  0  0  0  0  0  0  0  0  0
   53.3977  -11.4680    7.1046 O   0  0  0  0  0  0  0  0  0  0  0  0
   53.3987  -13.5601    9.3607 N   0  0  0  0  0  0  0  0  0  0  0  0
   53.5625  -14.7848    9.8497 C   0  0  0  0  0  0  0  0  0  0  0  0
   53.9431  -15.6697    8.8582 N   0  0  0  0  0  0  0  0  0  0  0  0
  1  2  1  0  0  0  0
  1  6  1  0  0  0  0
  2  3  2  0  0  0  0
  3  4  1  0  0  0  0
  4  5  2  0  0  0  0
  4 10  1  0  0  0  0
  5  6  1  0  0  0  0
  5  8  1  0  0  0  0
  6  7  2  0  0  0  0
  8  9  1  0  0  0  0
  9 10  2  0  0  0  0
M  END
>  <CHROM.1>
53.82449811,-13.92880047,7.55665373,-1.47517831,-1.29385385,2.31063716

>  <Name>
ligand

>  <RI>
0

>  <Rbt.Current_Directory>
/home/itssahil/PROJECTS/Mol_Feturizer/New_Systems/rnas/2EEV

>  <Rbt.Executable>
rbdock ($Id: //depot/dev/client3/rdock/2013.1/src/exe/rbdock.cxx#4 $)

>  <Rbt.Library>
libRbt.so (2013.1, Build901 2013/11/27)

>  <Rbt.Parameter_File>
/export/apps/rDock/src/rDock_2013.1_src/data/scripts/dock_solv.prm

>  <Rbt.Receptor>
prm/pocket_docking_8.prm

>  <SCORE>
-18.029

>  <SCORE.INTER>
-18.0505

>  <SCORE.INTER.CONST>
1

>  <SCORE.INTER.POLAR>
0

>  <SCORE.INTER.ROT>
0

>  <SCORE.INTER.SOLV>
4.36329

>  <SCORE.INTER.VDW>
-17.0881

>  <SCORE.INTER.norm>
-1.80505

>  <SCORE.INTRA>
0

>  <SCORE.INTRA.DIHEDRAL>
0

>  <SCORE.INTRA.DIHEDRAL.0>
0

>  <SCORE.INTRA.POLAR>
0

>  <SCORE.INTRA.POLAR.0>
0

>  <SCORE.INTRA.REPUL>
0

>  <SCORE.INTRA.REPUL.0>
0

>  <SCORE.INTRA.SOLV>
0

>  <SCORE.INTRA.SOLV.lig_0>
-4.25352

>  <SCORE.INTRA.VDW>
0

>  <SCORE.INTRA.VDW.0>
0

>  <SCORE.INTRA.norm>
0

>  <SCORE.RESTR>
0.0215414

>  <SCORE.RESTR.CAVITY>
0.0215414

>  <SCORE.RESTR.norm>
0.00215414

>  <SCORE.SYSTEM>
0

>  <SCORE.SYSTEM.CONST>
0

>  <SCORE.SYSTEM.DIHEDRAL>
0

>  <SCORE.SYSTEM.SOLV>
0

>  <SCORE.SYSTEM.norm>
0

>  <SCORE.heavy>
10

>  <SCORE.norm>
-1.8029

>  <RMSD>
2.865

$$$$
ligand
 OpenBabel11021811423D
libRbt.so/2013.1/901 2013/11/27
 10 11  0  0  0  0  0  0  0  0999 V2000
   54.0163  -13.1996    5.7621 N   0  0  0  0  0  0  0  0  0  0  0  0
   54.3446  -14.5018    5.5140 C   0  0  0  0  0  0  0  0  0  0  0  0
   54.3600  -15.4374    6.4989 N   0  0  0  0  0  0  0  0  0  0  0  0
   54.0111  -14.9337    7.7179 C   0  0  0  0  0  0  0  0  0  0  0  0
   53.6705  -13.6360    8.0194 C   0  0  0  0  0  0  0  0  0  0  0  0
   53.6594  -12.6662    7.0129 C   0  0  0  0  0  0  0  0  0  0  0  0
   53.3934  -11.4845    7.0834 O   0  0  0  0  0  0  0  0  0  0  0  0
   53.3893  -13.5579    9.3567 N   0  0  0  0  0  0  0  0  0  0  0  0
   53.5549  -14.7780    9.8567 C   0  0  0  0  0  0  0  0  0  0  0  0
   53.9444  -15.6695    8.8747 N   0  0  0  0  0  0  0  0  0  0  0  0
  1  2  1  0  0  0  0
  1  6  1  0  0  0  0
  2  3  2  0  0  0  0
  3  4  1  0  0  0  0
  4  5  2  0  0  0  0
  4 10  1  0  0  0  0
  5  6  1  0  0  0  0
  5  8  1  0  0  0  0
  6  7  2  0  0  0  0
  8  9  1  0  0  0  0
  9 10  2  0  0  0  0
M  END
>  <CHROM.1>
53.82671205,-13.93989532,7.55820658,-1.46914294,-1.28731698,2.30820248

>  <Name>
ligand

>  <RI>
0

>  <Rbt.Current_Directory>
/home/itssahil/PROJECTS/Mol_Feturizer/New_Systems/rnas/2EEV

>  <Rbt.Executable>
rbdock ($Id: //depot/dev/client3/rdock/2013.1/src/exe/rbdock.cxx#4 $)

>  <Rbt.Library>
libRbt.so (2013.1, Build901 2013/11/27)

>  <Rbt.Parameter_File>
/export/apps/rDock/src/rDock_2013.1_src/data/scripts/dock_solv.prm

>  <Rbt.Receptor>
prm/pocket_docking_5.prm

>  <SCORE>
-18.0439

>  <SCORE.INTER>
-18.0709

>  <SCORE.INTER.CONST>
1

>  <SCORE.INTER.POLAR>
0

>  <SCORE.INTER.ROT>
0

>  <SCORE.INTER.SOLV>
4.36036

>  <SCORE.INTER.VDW>
-17.1007

>  <SCORE.INTER.norm>
-1.80709

>  <SCORE.INTRA>
0

>  <SCORE.INTRA.DIHEDRAL>
0

>  <SCORE.INTRA.DIHEDRAL.0>
0

>  <SCORE.INTRA.POLAR>
0

>  <SCORE.INTRA.POLAR.0>
0

>  <SCORE.INTRA.REPUL>
0

>  <SCORE.INTRA.REPUL.0>
0

>  <SCORE.INTRA.SOLV>
0

>  <SCORE.INTRA.SOLV.lig_0>
-4.25352

>  <SCORE.INTRA.VDW>
0

>  <SCORE.INTRA.VDW.0>
0

>  <SCORE.INTRA.norm>
0

>  <SCORE.RESTR>
0.0270514

>  <SCORE.RESTR.CAVITY>
0.0270514

>  <SCORE.RESTR.norm>
0.00270514

>  <SCORE.SYSTEM>
0

>  <SCORE.SYSTEM.CONST>
0

>  <SCORE.SYSTEM.DIHEDRAL>
0

>  <SCORE.SYSTEM.SOLV>
0

>  <SCORE.SYSTEM.norm>
0

>  <SCORE.heavy>
10

>  <SCORE.norm>
-1.80439

>  <RMSD>
2.866

$$$$
ligand
 OpenBabel11021811423D
libRbt.so/2013.1/901 2013/11/27
 10 11  0  0  0  0  0  0  0  0999 V2000
   54.0195  -13.1978    5.7617 N   0  0  0  0  0  0  0  0  0  0  0  0
   54.3479  -14.5002    5.5143 C   0  0  0  0  0  0  0  0  0  0  0  0
   54.3614  -15.4356    6.4995 N   0  0  0  0  0  0  0  0  0  0  0  0
   54.0107  -14.9316    7.7178 C   0  0  0  0  0  0  0  0  0  0  0  0
   53.6700  -13.6338    8.0186 C   0  0  0  0  0  0  0  0  0  0  0  0
   53.6608  -12.6641    7.0119 C   0  0  0  0  0  0  0  0  0  0  0  0
   53.3951  -11.4824    7.0819 O   0  0  0  0  0  0  0  0  0  0  0  0
   53.3867  -13.5555    9.3554 N   0  0  0  0  0  0  0  0  0  0  0  0
   53.5511  -14.7755    9.8558 C   0  0  0  0  0  0  0  0  0  0  0  0
   53.9419  -15.6673    8.8746 N   0  0  0  0  0  0  0  0  0  0  0  0
  1  2  1  0  0  0  0
  1  6  1  0  0  0  0
  2  3  2  0  0  0  0
  3  4  1  0  0  0  0
  4  5  2  0  0  0  0
  4 10  1  0  0  0  0
  5  6  1  0  0  0  0
  5  8  1  0  0  0  0
  6  7  2  0  0  0  0
  8  9  1  0  0  0  0
  9 10  2  0  0  0  0
M  END
>  <CHROM.1>
53.82684218,-13.93782719,7.55766915,-1.46418530,-1.28645123,2.31281834

>  <Name>
ligand

>  <RI>
0

>  <Rbt.Current_Directory>
/home/itssahil/PROJECTS/Mol_Feturizer/New_Systems/rnas/2EEV

>  <Rbt.Executable>
rbdock ($Id: //depot/dev/client3/rdock/2013.1/src/exe/rbdock.cxx#4 $)

>  <Rbt.Library>
libRbt.so (2013.1, Build901 2013/11/27)

>  <Rbt.Parameter_File>
/export/apps/rDock/src/rDock_2013.1_src/data/scripts/dock_solv.prm

>  <Rbt.Receptor>
prm/pocket_docking_7.prm

>  <SCORE>
-18.0359

>  <SCORE.INTER>
-18.0612

>  <SCORE.INTER.CONST>
1

>  <SCORE.INTER.POLAR>
0

>  <SCORE.INTER.ROT>
0

>  <SCORE.INTER.SOLV>
4.36247

>  <SCORE.INTER.VDW>
-17.095

>  <SCORE.INTER.norm>
-1.80612

>  <SCORE.INTRA>
0

>  <SCORE.INTRA.DIHEDRAL>
0

>  <SCORE.INTRA.DIHEDRAL.0>
0

>  <SCORE.INTRA.POLAR>
0

>  <SCORE.INTRA.POLAR.0>
0

>  <SCORE.INTRA.REPUL>
0

>  <SCORE.INTRA.REPUL.0>
0

>  <SCORE.INTRA.SOLV>
0

>  <SCORE.INTRA.SOLV.lig_0>
-4.25352

>  <SCORE.INTRA.VDW>
0

>  <SCORE.INTRA.VDW.0>
0

>  <SCORE.INTRA.norm>
0

>  <SCORE.RESTR>
0.0253519

>  <SCORE.RESTR.CAVITY>
0.0253519

>  <SCORE.RESTR.norm>
0.00253519

>  <SCORE.SYSTEM>
0

>  <SCORE.SYSTEM.CONST>
0

>  <SCORE.SYSTEM.DIHEDRAL>
0

>  <SCORE.SYSTEM.SOLV>
0

>  <SCORE.SYSTEM.norm>
0

>  <SCORE.heavy>
10

>  <SCORE.norm>
-1.80359

>  <RMSD>
2.866

$$$$
ligand
 OpenBabel11021811423D
libRbt.so/2013.1/901 2013/11/27
 10 11  0  0  0  0  0  0  0  0999 V2000
   54.0417  -13.1953    5.7579 N   0  0  0  0  0  0  0  0  0  0  0  0
   54.3686  -14.4983    5.5119 C   0  0  0  0  0  0  0  0  0  0  0  0
   54.3717  -15.4347    6.4961 N   0  0  0  0  0  0  0  0  0  0  0  0
   54.0123  -14.9311    7.7120 C   0  0  0  0  0  0  0  0  0  0  0  0
   53.6726  -13.6327    8.0114 C   0  0  0  0  0  0  0  0  0  0  0  0
   53.6742  -12.6619    7.0056 C   0  0  0  0  0  0  0  0  0  0  0  0
   53.4110  -11.4796    7.0746 O   0  0  0  0  0  0  0  0  0  0  0  0
   53.3786  -13.5549    9.3459 N   0  0  0  0  0  0  0  0  0  0  0  0
   53.5357  -14.7759    9.8464 C   0  0  0  0  0  0  0  0  0  0  0  0
   53.9322  -15.6677    8.8675 N   0  0  0  0  0  0  0  0  0  0  0  0
  1  2  1  0  0  0  0
  1  6  1  0  0  0  0
  2  3  2  0  0  0  0
  3  4  1  0  0  0  0
  4  5  2  0  0  0  0
  4 10  1  0  0  0  0
  5  6  1  0  0  0  0
  5  8  1  0  0  0  0
  6  7  2  0  0  0  0
  8  9  1  0  0  0  0
  9 10  2  0  0  0  0
M  END
>  <CHROM.1>
53.83241352,-13.93661176,7.55144014,-1.43672891,-1.28278015,2.34017700

>  <Name>
ligand

>  <RI>
0

>  <Rbt.Current_Directory>
/home/itssahil/PROJECTS/Mol_Feturizer/New_Systems/rnas/2EEV

>  <Rbt.Executable>
rbdock ($Id: //depot/dev/client3/rdock/2013.1/src/exe/rbdock.cxx#4 $)

>  <Rbt.Library>
libRbt.so (2013.1, Build901 2013/11/27)

>  <Rbt.Parameter_File>
/export/apps/rDock/src/rDock_2013.1_src/data/scripts/dock_solv.prm

>  <Rbt.Receptor>
prm/pocket_docking_7.prm

>  <SCORE>
-18.0547

>  <SCORE.INTER>
-18.078

>  <SCORE.INTER.CONST>
1

>  <SCORE.INTER.POLAR>
0

>  <SCORE.INTER.ROT>
0

>  <SCORE.INTER.SOLV>
4.38106

>  <SCORE.INTER.VDW>
-17.1124

>  <SCORE.INTER.norm>
-1.8078

>  <SCORE.INTRA>
0

>  <SCORE.INTRA.DIHEDRAL>
0

>  <SCORE.INTRA.DIHEDRAL.0>
0

>  <SCORE.INTRA.POLAR>
0

>  <SCORE.INTRA.POLAR.0>
0

>  <SCORE.INTRA.REPUL>
0

>  <SCORE.INTRA.REPUL.0>
0

>  <SCORE.INTRA.SOLV>
0

>  <SCORE.INTRA.SOLV.lig_0>
-4.25352

>  <SCORE.INTRA.VDW>
0

>  <SCORE.INTRA.VDW.0>
0

>  <SCORE.INTRA.norm>
0

>  <SCORE.RESTR>
0.0232717

>  <SCORE.RESTR.CAVITY>
0.0232717

>  <SCORE.RESTR.norm>
0.00232717

>  <SCORE.SYSTEM>
0

>  <SCORE.SYSTEM.CONST>
0

>  <SCORE.SYSTEM.DIHEDRAL>
0

>  <SCORE.SYSTEM.SOLV>
0

>  <SCORE.SYSTEM.norm>
0

>  <SCORE.heavy>
10

>  <SCORE.norm>
-1.80547

>  <RMSD>
2.866

$$$$
ligand
 OpenBabel11021811423D
libRbt.so/2013.1/901 2013/11/27
 10 11  0  0  0  0  0  0  0  0999 V2000
   54.3237  -15.2695    6.1585 N   0  0  0  0  0  0  0  0  0  0  0  0
   54.2431  -15.8059    7.4119 C   0  0  0  0  0  0  0  0  0  0  0  0
   53.9157  -15.0529    8.4942 N   0  0  0  0  0  0  0  0  0  0  0  0
   53.6781  -13.7462    8.1822 C   0  0  0  0  0  0  0  0  0  0  0  0
   53.7429  -13.1585    6.9407 C   0  0  0  0  0  0  0  0  0  0  0  0
   54.0862  -13.9250    5.8234 C   0  0  0  0  0  0  0  0  0  0  0  0
   54.1977  -13.5895    4.6628 O   0  0  0  0  0  0  0  0  0  0  0  0
   53.4311  -11.8319    7.0690 N   0  0  0  0  0  0  0  0  0  0  0  0
   53.1828  -11.6176    8.3568 C   0  0  0  0  0  0  0  0  0  0  0  0
   53.3260  -12.7799    9.0912 N   0  0  0  0  0  0  0  0  0  0  0  0
  1  2  1  0  0  0  0
  1  6  1  0  0  0  0
  2  3  2  0  0  0  0
  3  4  1  0  0  0  0
  4  5  2  0  0  0  0
  4 10  1  0  0  0  0
  5  6  1  0  0  0  0
  5  8  1  0  0  0  0
  6  7  2  0  0  0  0
  8  9  1  0  0  0  0
  9 10  2  0  0  0  0
M  END
>  <CHROM.1>
53.82050101,-13.67841357,7.17113495,-0.20291218,-1.30835819,2.19423281

>  <Name>
ligand

>  <RI>
0

>  <Rbt.Current_Directory>
/home/itssahil/PROJECTS/Mol_Feturizer/New_Systems/rnas/2EEV

>  <Rbt.Executable>
rbdock ($Id: //depot/dev/client3/rdock/2013.1/src/exe/rbdock.cxx#4 $)

>  <Rbt.Library>
libRbt.so (2013.1, Build901 2013/11/27)

>  <Rbt.Parameter_File>
/export/apps/rDock/src/rDock_2013.1_src/data/scripts/dock_solv.prm

>  <Rbt.Receptor>
prm/pocket_docking_8.prm

>  <SCORE>
-17.3373

>  <SCORE.INTER>
-17.3373

>  <SCORE.INTER.CONST>
1

>  <SCORE.INTER.POLAR>
0

>  <SCORE.INTER.ROT>
0

>  <SCORE.INTER.SOLV>
5.29005

>  <SCORE.INTER.VDW>
-16.9215

>  <SCORE.INTER.norm>
-1.73373

>  <SCORE.INTRA>
0

>  <SCORE.INTRA.DIHEDRAL>
0

>  <SCORE.INTRA.DIHEDRAL.0>
0

>  <SCORE.INTRA.POLAR>
0

>  <SCORE.INTRA.POLAR.0>
0

>  <SCORE.INTRA.REPUL>
0

>  <SCORE.INTRA.REPUL.0>
0

>  <SCORE.INTRA.SOLV>
0

>  <SCORE.INTRA.SOLV.lig_0>
-4.25352

>  <SCORE.INTRA.VDW>
0

>  <SCORE.INTRA.VDW.0>
0

>  <SCORE.INTRA.norm>
0

>  <SCORE.RESTR>
0

>  <SCORE.RESTR.CAVITY>
0

>  <SCORE.RESTR.norm>
0

>  <SCORE.SYSTEM>
0

>  <SCORE.SYSTEM.CONST>
0

>  <SCORE.SYSTEM.DIHEDRAL>
0

>  <SCORE.SYSTEM.SOLV>
0

>  <SCORE.SYSTEM.norm>
0

>  <SCORE.heavy>
10

>  <SCORE.norm>
-1.73373

>  <RMSD>
2.991

$$$$
ligand
 OpenBabel11021811423D
libRbt.so/2013.1/901 2013/11/27
 10 11  0  0  0  0  0  0  0  0999 V2000
   54.1831  -15.8242    7.4706 N   0  0  0  0  0  0  0  0  0  0  0  0
   54.1706  -15.3747    6.1810 C   0  0  0  0  0  0  0  0  0  0  0  0
   53.9134  -14.0758    5.8771 N   0  0  0  0  0  0  0  0  0  0  0  0
   53.6868  -13.3052    6.9799 C   0  0  0  0  0  0  0  0  0  0  0  0
   53.6904  -13.7068    8.2950 C   0  0  0  0  0  0  0  0  0  0  0  0
   53.9470  -15.0430    8.6153 C   0  0  0  0  0  0  0  0  0  0  0  0
   53.9889  -15.5812    9.7019 O   0  0  0  0  0  0  0  0  0  0  0  0
   53.4188  -12.6216    9.0836 N   0  0  0  0  0  0  0  0  0  0  0  0
   53.2537  -11.5851    8.2684 C   0  0  0  0  0  0  0  0  0  0  0  0
   53.4087  -11.9615    6.9474 N   0  0  0  0  0  0  0  0  0  0  0  0
  1  2  1  0  0  0  0
  1  6  1  0  0  0  0
  2  3  2  0  0  0  0
  3  4  1  0  0  0  0
  4  5  2  0  0  0  0
  4 10  1  0  0  0  0
  5  6  1  0  0  0  0
  5  8  1  0  0  0  0
  6  7  2  0  0  0  0
  8  9  1  0  0  0  0
  9 10  2  0  0  0  0
M  END
>  <CHROM.1>
53.77075763,-13.94109544,7.77718567,-0.38305692,1.35753690,-1.28109713

>  <Name>
ligand

>  <RI>
0

>  <Rbt.Current_Directory>
/home/itssahil/PROJECTS/Mol_Feturizer/New_Systems/rnas/2EEV

>  <Rbt.Executable>
rbdock ($Id: //depot/dev/client3/rdock/2013.1/src/exe/rbdock.cxx#4 $)

>  <Rbt.Library>
libRbt.so (2013.1, Build901 2013/11/27)

>  <Rbt.Parameter_File>
/export/apps/rDock/src/rDock_2013.1_src/data/scripts/dock_solv.prm

>  <Rbt.Receptor>
prm/blind_docking_100.prm

>  <SCORE>
-17.0411

>  <SCORE.INTER>
-17.0411

>  <SCORE.INTER.CONST>
1

>  <SCORE.INTER.POLAR>
0

>  <SCORE.INTER.ROT>
0

>  <SCORE.INTER.SOLV>
4.91745

>  <SCORE.INTER.VDW>
-16.5999

>  <SCORE.INTER.norm>
-1.70411

>  <SCORE.INTRA>
0

>  <SCORE.INTRA.DIHEDRAL>
0

>  <SCORE.INTRA.DIHEDRAL.0>
0

>  <SCORE.INTRA.POLAR>
0

>  <SCORE.INTRA.POLAR.0>
0

>  <SCORE.INTRA.REPUL>
0

>  <SCORE.INTRA.REPUL.0>
0

>  <SCORE.INTRA.SOLV>
0

>  <SCORE.INTRA.SOLV.lig_0>
-4.25352

>  <SCORE.INTRA.VDW>
0

>  <SCORE.INTRA.VDW.0>
0

>  <SCORE.INTRA.norm>
0

>  <SCORE.RESTR>
0

>  <SCORE.RESTR.CAVITY>
0

>  <SCORE.RESTR.norm>
0

>  <SCORE.SYSTEM>
0

>  <SCORE.SYSTEM.CONST>
0

>  <SCORE.SYSTEM.DIHEDRAL>
0

>  <SCORE.SYSTEM.SOLV>
0

>  <SCORE.SYSTEM.norm>
0

>  <SCORE.heavy>
10

>  <SCORE.norm>
-1.70411

>  <RMSD>
3.273

$$$$
ligand
 OpenBabel11021811423D
libRbt.so/2013.1/901 2013/11/27
 10 11  0  0  0  0  0  0  0  0999 V2000
   54.2449  -15.7638    7.3956 N   0  0  0  0  0  0  0  0  0  0  0  0
   54.2996  -15.2723    6.1225 C   0  0  0  0  0  0  0  0  0  0  0  0
   54.0253  -13.9711    5.8441 N   0  0  0  0  0  0  0  0  0  0  0  0
   53.7095  -13.2437    6.9542 C   0  0  0  0  0  0  0  0  0  0  0  0
   53.6431  -13.6885    8.2537 C   0  0  0  0  0  0  0  0  0  0  0  0
   53.9168  -15.0274    8.5473 C   0  0  0  0  0  0  0  0  0  0  0  0
   53.9065  -15.6001    9.6168 O   0  0  0  0  0  0  0  0  0  0  0  0
   53.2929  -12.6374    9.0575 N   0  0  0  0  0  0  0  0  0  0  0  0
   53.1495  -11.5791    8.2666 C   0  0  0  0  0  0  0  0  0  0  0  0
   53.3964  -11.9073    6.9467 N   0  0  0  0  0  0  0  0  0  0  0  0
  1  2  1  0  0  0  0
  1  6  1  0  0  0  0
  2  3  2  0  0  0  0
  3  4  1  0  0  0  0
  4  5  2  0  0  0  0
  4 10  1  0  0  0  0
  5  6  1  0  0  0  0
  5  8  1  0  0  0  0
  6  7  2  0  0  0  0
  8  9  1  0  0  0  0
  9 10  2  0  0  0  0
M  END
>  <CHROM.1>
53.76178810,-13.90324958,7.73482433,-0.58148781,1.30800837,-1.05579496

>  <Name>
ligand

>  <RI>
0

>  <Rbt.Current_Directory>
/home/itssahil/PROJECTS/Mol_Feturizer/New_Systems/rnas/2EEV

>  <Rbt.Executable>
rbdock ($Id: //depot/dev/client3/rdock/2013.1/src/exe/rbdock.cxx#4 $)

>  <Rbt.Library>
libRbt.so (2013.1, Build901 2013/11/27)

>  <Rbt.Parameter_File>
/export/apps/rDock/src/rDock_2013.1_src/data/scripts/dock_solv.prm

>  <Rbt.Receptor>
prm/blind_docking_60.prm

>  <SCORE>
-17.1335

>  <SCORE.INTER>
-17.1336

>  <SCORE.INTER.CONST>
1

>  <SCORE.INTER.POLAR>
0

>  <SCORE.INTER.ROT>
0

>  <SCORE.INTER.SOLV>
4.92506

>  <SCORE.INTER.VDW>
-16.6641

>  <SCORE.INTER.norm>
-1.71336

>  <SCORE.INTRA>
0

>  <SCORE.INTRA.DIHEDRAL>
0

>  <SCORE.INTRA.DIHEDRAL.0>
0

>  <SCORE.INTRA.POLAR>
0

>  <SCORE.INTRA.POLAR.0>
0

>  <SCORE.INTRA.REPUL>
0

>  <SCORE.INTRA.REPUL.0>
0

>  <SCORE.INTRA.SOLV>
0

>  <SCORE.INTRA.SOLV.lig_0>
-4.25352

>  <SCORE.INTRA.VDW>
0

>  <SCORE.INTRA.VDW.0>
0

>  <SCORE.INTRA.norm>
0

>  <SCORE.RESTR>
6.07023e-05

>  <SCORE.RESTR.CAVITY>
6.07023e-05

>  <SCORE.RESTR.norm>
6.07023e-06

>  <SCORE.SYSTEM>
0

>  <SCORE.SYSTEM.CONST>
0

>  <SCORE.SYSTEM.DIHEDRAL>
0

>  <SCORE.SYSTEM.SOLV>
0

>  <SCORE.SYSTEM.norm>
0

>  <SCORE.heavy>
10

>  <SCORE.norm>
-1.71335

>  <RMSD>
3.292

$$$$
ligand
 OpenBabel11021811423D
libRbt.so/2013.1/901 2013/11/27
 10 11  0  0  0  0  0  0  0  0999 V2000
   54.2427  -15.7200    7.3451 N   0  0  0  0  0  0  0  0  0  0  0  0
   54.2919  -15.2038    6.0816 C   0  0  0  0  0  0  0  0  0  0  0  0
   54.0141  -13.8981    5.8293 N   0  0  0  0  0  0  0  0  0  0  0  0
   53.7007  -13.1929    6.9544 C   0  0  0  0  0  0  0  0  0  0  0  0
   53.6397  -13.6628    8.2453 C   0  0  0  0  0  0  0  0  0  0  0  0
   53.9170  -15.0066    8.5119 C   0  0  0  0  0  0  0  0  0  0  0  0
   53.9116  -15.5999    9.5702 O   0  0  0  0  0  0  0  0  0  0  0  0
   53.2902  -12.6282    9.0705 N   0  0  0  0  0  0  0  0  0  0  0  0
   53.1420  -11.5552    8.3007 C   0  0  0  0  0  0  0  0  0  0  0  0
   53.3849  -11.8572    6.9738 N   0  0  0  0  0  0  0  0  0  0  0  0
  1  2  1  0  0  0  0
  1  6  1  0  0  0  0
  2  3  2  0  0  0  0
  3  4  1  0  0  0  0
  4  5  2  0  0  0  0
  4 10  1  0  0  0  0
  5  6  1  0  0  0  0
  5  8  1  0  0  0  0
  6  7  2  0  0  0  0
  8  9  1  0  0  0  0
  9 10  2  0  0  0  0
M  END
>  <CHROM.1>
53.75701148,-13.86732668,7.72194012,-0.56605734,1.30797562,-1.05136042

>  <Name>
ligand

>  <RI>
0

>  <Rbt.Current_Directory>
/home/itssahil/PROJECTS/Mol_Feturizer/New_Systems/rnas/2EEV

>  <Rbt.Executable>
rbdock ($Id: //depot/dev/client3/rdock/2013.1/src/exe/rbdock.cxx#4 $)

>  <Rbt.Library>
libRbt.so (2013.1, Build901 2013/11/27)

>  <Rbt.Parameter_File>
/export/apps/rDock/src/rDock_2013.1_src/data/scripts/dock_solv.prm

>  <Rbt.Receptor>
prm/blind_docking_60.prm

>  <SCORE>
-17.1102

>  <SCORE.INTER>
-17.1102

>  <SCORE.INTER.CONST>
1

>  <SCORE.INTER.POLAR>
0

>  <SCORE.INTER.ROT>
0

>  <SCORE.INTER.SOLV>
4.92285

>  <SCORE.INTER.VDW>
-16.6477

>  <SCORE.INTER.norm>
-1.71102

>  <SCORE.INTRA>
0

>  <SCORE.INTRA.DIHEDRAL>
0

>  <SCORE.INTRA.DIHEDRAL.0>
0

>  <SCORE.INTRA.POLAR>
0

>  <SCORE.INTRA.POLAR.0>
0

>  <SCORE.INTRA.REPUL>
0

>  <SCORE.INTRA.REPUL.0>
0

>  <SCORE.INTRA.SOLV>
0

>  <SCORE.INTRA.SOLV.lig_0>
-4.25352

>  <SCORE.INTRA.VDW>
0

>  <SCORE.INTRA.VDW.0>
0

>  <SCORE.INTRA.norm>
0

>  <SCORE.RESTR>
0

>  <SCORE.RESTR.CAVITY>
0

>  <SCORE.RESTR.norm>
0

>  <SCORE.SYSTEM>
0

>  <SCORE.SYSTEM.CONST>
0

>  <SCORE.SYSTEM.DIHEDRAL>
0

>  <SCORE.SYSTEM.SOLV>
0

>  <SCORE.SYSTEM.norm>
0

>  <SCORE.heavy>
10

>  <SCORE.norm>
-1.71102

>  <RMSD>
3.313

$$$$
ligand
 OpenBabel11021811423D
libRbt.so/2013.1/901 2013/11/27
 10 11  0  0  0  0  0  0  0  0999 V2000
   53.8564  -12.7815    6.2853 N   0  0  0  0  0  0  0  0  0  0  0  0
   53.4378  -11.9048    7.2452 C   0  0  0  0  0  0  0  0  0  0  0  0
   53.2371  -12.2924    8.5317 N   0  0  0  0  0  0  0  0  0  0  0  0
   53.5045  -13.6143    8.7379 C   0  0  0  0  0  0  0  0  0  0  0  0
   53.9293  -14.5356    7.8097 C   0  0  0  0  0  0  0  0  0  0  0  0
   54.1311  -14.1461    6.4825 C   0  0  0  0  0  0  0  0  0  0  0  0
   54.4950  -14.8063    5.5319 O   0  0  0  0  0  0  0  0  0  0  0  0
   54.0787  -15.7454    8.4322 N   0  0  0  0  0  0  0  0  0  0  0  0
   53.7527  -15.5648    9.7077 C   0  0  0  0  0  0  0  0  0  0  0  0
   53.3857  -14.2537    9.9467 N   0  0  0  0  0  0  0  0  0  0  0  0
  1  2  1  0  0  0  0
  1  6  1  0  0  0  0
  2  3  2  0  0  0  0
  3  4  1  0  0  0  0
  4  5  2  0  0  0  0
  4 10  1  0  0  0  0
  5  6  1  0  0  0  0
  5  8  1  0  0  0  0
  6  7  2  0  0  0  0
  8  9  1  0  0  0  0
  9 10  2  0  0  0  0
M  END
>  <CHROM.1>
53.79384531,-13.97805788,7.82630736,1.21285688,1.25772484,-0.81550612

>  <Name>
ligand

>  <RI>
0

>  <Rbt.Current_Directory>
/home/itssahil/PROJECTS/Mol_Feturizer/New_Systems/rnas/2EEV

>  <Rbt.Executable>
rbdock ($Id: //depot/dev/client3/rdock/2013.1/src/exe/rbdock.cxx#4 $)

>  <Rbt.Library>
libRbt.so (2013.1, Build901 2013/11/27)

>  <Rbt.Parameter_File>
/export/apps/rDock/src/rDock_2013.1_src/data/scripts/dock_solv.prm

>  <Rbt.Receptor>
prm/blind_docking_80.prm

>  <SCORE>
-16.6224

>  <SCORE.INTER>
-16.6224

>  <SCORE.INTER.CONST>
1

>  <SCORE.INTER.POLAR>
0

>  <SCORE.INTER.ROT>
0

>  <SCORE.INTER.SOLV>
4.32651

>  <SCORE.INTER.VDW>
-16.1238

>  <SCORE.INTER.norm>
-1.66224

>  <SCORE.INTRA>
0

>  <SCORE.INTRA.DIHEDRAL>
0

>  <SCORE.INTRA.DIHEDRAL.0>
0

>  <SCORE.INTRA.POLAR>
0

>  <SCORE.INTRA.POLAR.0>
0

>  <SCORE.INTRA.REPUL>
0

>  <SCORE.INTRA.REPUL.0>
0

>  <SCORE.INTRA.SOLV>
0

>  <SCORE.INTRA.SOLV.lig_0>
-4.25352

>  <SCORE.INTRA.VDW>
0

>  <SCORE.INTRA.VDW.0>
0

>  <SCORE.INTRA.norm>
0

>  <SCORE.RESTR>
0

>  <SCORE.RESTR.CAVITY>
0

>  <SCORE.RESTR.norm>
0

>  <SCORE.SYSTEM>
0

>  <SCORE.SYSTEM.CONST>
0

>  <SCORE.SYSTEM.DIHEDRAL>
0

>  <SCORE.SYSTEM.SOLV>
0

>  <SCORE.SYSTEM.norm>
0

>  <SCORE.heavy>
10

>  <SCORE.norm>
-1.66224

>  <RMSD>
3.427

$$$$
ligand
 OpenBabel11021811423D
libRbt.so/2013.1/901 2013/11/27
 10 11  0  0  0  0  0  0  0  0999 V2000
   53.7859  -12.9478    6.2080 N   0  0  0  0  0  0  0  0  0  0  0  0
   53.5032  -12.0041    7.1539 C   0  0  0  0  0  0  0  0  0  0  0  0
   53.3754  -12.3226    8.4684 N   0  0  0  0  0  0  0  0  0  0  0  0
   53.5662  -13.6506    8.7160 C   0  0  0  0  0  0  0  0  0  0  0  0
   53.8544  -14.6378    7.8032 C   0  0  0  0  0  0  0  0  0  0  0  0
   53.9803  -14.3193    6.4481 C   0  0  0  0  0  0  0  0  0  0  0  0
   54.2241  -15.0429    5.5052 O   0  0  0  0  0  0  0  0  0  0  0  0
   53.9675  -15.8284    8.4689 N   0  0  0  0  0  0  0  0  0  0  0  0
   53.7533  -15.5721    9.7552 C   0  0  0  0  0  0  0  0  0  0  0  0
   53.4967  -14.2291    9.9588 N   0  0  0  0  0  0  0  0  0  0  0  0
  1  2  1  0  0  0  0
  1  6  1  0  0  0  0
  2  3  2  0  0  0  0
  3  4  1  0  0  0  0
  4  5  2  0  0  0  0
  4 10  1  0  0  0  0
  5  6  1  0  0  0  0
  5  8  1  0  0  0  0
  6  7  2  0  0  0  0
  8  9  1  0  0  0  0
  9 10  2  0  0  0  0
M  END
>  <CHROM.1>
53.75929488,-14.07179830,7.80364096,1.25406861,1.36026618,-0.89961027

>  <Name>
ligand

>  <RI>
0

>  <Rbt.Current_Directory>
/home/itssahil/PROJECTS/Mol_Feturizer/New_Systems/rnas/2EEV

>  <Rbt.Executable>
rbdock ($Id: //depot/dev/client3/rdock/2013.1/src/exe/rbdock.cxx#4 $)

>  <Rbt.Library>
libRbt.so (2013.1, Build901 2013/11/27)

>  <Rbt.Parameter_File>
/export/apps/rDock/src/rDock_2013.1_src/data/scripts/dock_solv.prm

>  <Rbt.Receptor>
prm/blind_docking_100.prm

>  <SCORE>
-16.6776

>  <SCORE.INTER>
-16.6776

>  <SCORE.INTER.CONST>
1

>  <SCORE.INTER.POLAR>
0

>  <SCORE.INTER.ROT>
0

>  <SCORE.INTER.SOLV>
4.59123

>  <SCORE.INTER.VDW>
-16.2488

>  <SCORE.INTER.norm>
-1.66776

>  <SCORE.INTRA>
0

>  <SCORE.INTRA.DIHEDRAL>
0

>  <SCORE.INTRA.DIHEDRAL.0>
0

>  <SCORE.INTRA.POLAR>
0

>  <SCORE.INTRA.POLAR.0>
0

>  <SCORE.INTRA.REPUL>
0

>  <SCORE.INTRA.REPUL.0>
0

>  <SCORE.INTRA.SOLV>
0

>  <SCORE.INTRA.SOLV.lig_0>
-4.25352

>  <SCORE.INTRA.VDW>
0

>  <SCORE.INTRA.VDW.0>
0

>  <SCORE.INTRA.norm>
0

>  <SCORE.RESTR>
0

>  <SCORE.RESTR.CAVITY>
0

>  <SCORE.RESTR.norm>
0

>  <SCORE.SYSTEM>
0

>  <SCORE.SYSTEM.CONST>
0

>  <SCORE.SYSTEM.DIHEDRAL>
0

>  <SCORE.SYSTEM.SOLV>
0

>  <SCORE.SYSTEM.norm>
0

>  <SCORE.heavy>
10

>  <SCORE.norm>
-1.66776

>  <RMSD>
3.452

$$$$
ligand
 OpenBabel11021811423D
libRbt.so/2013.1/901 2013/11/27
 10 11  0  0  0  0  0  0  0  0999 V2000
   53.8194  -13.0192    6.1495 N   0  0  0  0  0  0  0  0  0  0  0  0
   53.5532  -12.0408    7.0644 C   0  0  0  0  0  0  0  0  0  0  0  0
   53.4305  -12.3129    8.3898 N   0  0  0  0  0  0  0  0  0  0  0  0
   53.6088  -13.6337    8.6814 C   0  0  0  0  0  0  0  0  0  0  0  0
   53.8803  -14.6545    7.8011 C   0  0  0  0  0  0  0  0  0  0  0  0
   54.0007  -14.3838    6.4351 C   0  0  0  0  0  0  0  0  0  0  0  0
   54.2306  -15.1417    5.5160 O   0  0  0  0  0  0  0  0  0  0  0  0
   53.9850  -15.8229    8.5064 N   0  0  0  0  0  0  0  0  0  0  0  0
   53.7820  -15.5206    9.7844 C   0  0  0  0  0  0  0  0  0  0  0  0
   53.5412  -14.1687    9.9437 N   0  0  0  0  0  0  0  0  0  0  0  0
  1  2  1  0  0  0  0
  1  6  1  0  0  0  0
  2  3  2  0  0  0  0
  3  4  1  0  0  0  0
  4  5  2  0  0  0  0
  4 10  1  0  0  0  0
  5  6  1  0  0  0  0
  5  8  1  0  0  0  0
  6  7  2  0  0  0  0
  8  9  1  0  0  0  0
  9 10  2  0  0  0  0
M  END
>  <CHROM.1>
53.79129045,-14.08781682,7.78276972,1.24631981,1.37274209,-0.92616218

>  <Name>
ligand

>  <RI>
0

>  <Rbt.Current_Directory>
/home/itssahil/PROJECTS/Mol_Feturizer/New_Systems/rnas/2EEV

>  <Rbt.Executable>
rbdock ($Id: //depot/dev/client3/rdock/2013.1/src/exe/rbdock.cxx#4 $)

>  <Rbt.Library>
libRbt.so (2013.1, Build901 2013/11/27)

>  <Rbt.Parameter_File>
/export/apps/rDock/src/rDock_2013.1_src/data/scripts/dock_solv.prm

>  <Rbt.Receptor>
prm/blind_docking_80.prm

>  <SCORE>
-16.6382

>  <SCORE.INTER>
-16.6382

>  <SCORE.INTER.CONST>
1

>  <SCORE.INTER.POLAR>
0

>  <SCORE.INTER.ROT>
0

>  <SCORE.INTER.SOLV>
4.59328

>  <SCORE.INTER.VDW>
-16.2232

>  <SCORE.INTER.norm>
-1.66382

>  <SCORE.INTRA>
0

>  <SCORE.INTRA.DIHEDRAL>
0

>  <SCORE.INTRA.DIHEDRAL.0>
0

>  <SCORE.INTRA.POLAR>
0

>  <SCORE.INTRA.POLAR.0>
0

>  <SCORE.INTRA.REPUL>
0

>  <SCORE.INTRA.REPUL.0>
0

>  <SCORE.INTRA.SOLV>
0

>  <SCORE.INTRA.SOLV.lig_0>
-4.25352

>  <SCORE.INTRA.VDW>
0

>  <SCORE.INTRA.VDW.0>
0

>  <SCORE.INTRA.norm>
0

>  <SCORE.RESTR>
0

>  <SCORE.RESTR.CAVITY>
0

>  <SCORE.RESTR.norm>
0

>  <SCORE.SYSTEM>
0

>  <SCORE.SYSTEM.CONST>
0

>  <SCORE.SYSTEM.DIHEDRAL>
0

>  <SCORE.SYSTEM.SOLV>
0

>  <SCORE.SYSTEM.norm>
0

>  <SCORE.heavy>
10

>  <SCORE.norm>
-1.66382

>  <RMSD>
3.475

$$$$
ligand
 OpenBabel11021811423D
libRbt.so/2013.1/901 2013/11/27
 10 11  0  0  0  0  0  0  0  0999 V2000
   54.0798  -14.5542    5.2170 N   0  0  0  0  0  0  0  0  0  0  0  0
   54.1200  -13.2187    5.5000 C   0  0  0  0  0  0  0  0  0  0  0  0
   54.0649  -12.7543    6.7755 N   0  0  0  0  0  0  0  0  0  0  0  0
   53.9769  -13.7515    7.7025 C   0  0  0  0  0  0  0  0  0  0  0  0
   53.9358  -15.1063    7.4709 C   0  0  0  0  0  0  0  0  0  0  0  0
   53.9846  -15.5916    6.1610 C   0  0  0  0  0  0  0  0  0  0  0  0
   53.9568  -16.7368    5.7613 O   0  0  0  0  0  0  0  0  0  0  0  0
   53.8481  -15.7524    8.6744 N   0  0  0  0  0  0  0  0  0  0  0  0
   53.8360  -14.8138    9.6151 C   0  0  0  0  0  0  0  0  0  0  0  0
   53.9120  -13.5507    9.0588 N   0  0  0  0  0  0  0  0  0  0  0  0
  1  2  1  0  0  0  0
  1  6  1  0  0  0  0
  2  3  2  0  0  0  0
  3  4  1  0  0  0  0
  4  5  2  0  0  0  0
  4 10  1  0  0  0  0
  5  6  1  0  0  0  0
  5  8  1  0  0  0  0
  6  7  2  0  0  0  0
  8  9  1  0  0  0  0
  9 10  2  0  0  0  0
M  END
>  <CHROM.1>
53.97131151,-14.62206101,7.16476651,-0.87518316,1.50417676,0.65347171

>  <Name>
ligand

>  <RI>
0

>  <Rbt.Current_Directory>
/home/itssahil/PROJECTS/Mol_Feturizer/New_Systems/rnas/2EEV

>  <Rbt.Executable>
rbdock ($Id: //depot/dev/client3/rdock/2013.1/src/exe/rbdock.cxx#4 $)

>  <Rbt.Library>
libRbt.so (2013.1, Build901 2013/11/27)

>  <Rbt.Parameter_File>
/export/apps/rDock/src/rDock_2013.1_src/data/scripts/dock_solv.prm

>  <Rbt.Receptor>
prm/blind_docking_80.prm

>  <SCORE>
-16.3029

>  <SCORE.INTER>
-16.3029

>  <SCORE.INTER.CONST>
1

>  <SCORE.INTER.POLAR>
0

>  <SCORE.INTER.ROT>
0

>  <SCORE.INTER.SOLV>
5.70453

>  <SCORE.INTER.VDW>
-16.3701

>  <SCORE.INTER.norm>
-1.63029

>  <SCORE.INTRA>
0

>  <SCORE.INTRA.DIHEDRAL>
0

>  <SCORE.INTRA.DIHEDRAL.0>
0

>  <SCORE.INTRA.POLAR>
0

>  <SCORE.INTRA.POLAR.0>
0

>  <SCORE.INTRA.REPUL>
0

>  <SCORE.INTRA.REPUL.0>
0

>  <SCORE.INTRA.SOLV>
0

>  <SCORE.INTRA.SOLV.lig_0>
-4.25352

>  <SCORE.INTRA.VDW>
0

>  <SCORE.INTRA.VDW.0>
0

>  <SCORE.INTRA.norm>
0

>  <SCORE.RESTR>
0

>  <SCORE.RESTR.CAVITY>
0

>  <SCORE.RESTR.norm>
0

>  <SCORE.SYSTEM>
0

>  <SCORE.SYSTEM.CONST>
0

>  <SCORE.SYSTEM.DIHEDRAL>
0

>  <SCORE.SYSTEM.SOLV>
0

>  <SCORE.SYSTEM.norm>
0

>  <SCORE.heavy>
10

>  <SCORE.norm>
-1.63029

>  <RMSD>
3.776

$$$$
ligand
 OpenBabel11021811423D
libRbt.so/2013.1/901 2013/11/27
 10 11  0  0  0  0  0  0  0  0999 V2000
   38.6533  -16.8569   12.5102 N   0  0  0  0  0  0  0  0  0  0  0  0
   39.9103  -17.3909   12.5162 C   0  0  0  0  0  0  0  0  0  0  0  0
   40.1462  -18.6646   12.9258 N   0  0  0  0  0  0  0  0  0  0  0  0
   39.0122  -19.3204   13.3070 C   0  0  0  0  0  0  0  0  0  0  0  0
   37.7272  -18.8309   13.3173 C   0  0  0  0  0  0  0  0  0  0  0  0
   37.4774  -17.5192   12.9043 C   0  0  0  0  0  0  0  0  0  0  0  0
   36.4265  -16.9155   12.8473 O   0  0  0  0  0  0  0  0  0  0  0  0
   36.8890  -19.8145   13.7685 N   0  0  0  0  0  0  0  0  0  0  0  0
   37.6453  -20.8763   14.0265 C   0  0  0  0  0  0  0  0  0  0  0  0
   38.9760  -20.6168   13.7568 N   0  0  0  0  0  0  0  0  0  0  0  0
  1  2  1  0  0  0  0
  1  6  1  0  0  0  0
  2  3  2  0  0  0  0
  3  4  1  0  0  0  0
  4  5  2  0  0  0  0
  4 10  1  0  0  0  0
  5  6  1  0  0  0  0
  5  8  1  0  0  0  0
  6  7  2  0  0  0  0
  8  9  1  0  0  0  0
  9 10  2  0  0  0  0
M  END
>  <CHROM.1>
38.25313243,-18.64588268,13.18086639,-1.61999934,-0.13141575,2.81193910

>  <Name>
ligand

>  <RI>
0

>  <Rbt.Current_Directory>
/home/itssahil/PROJECTS/Mol_Feturizer/New_Systems/rnas/2EEV

>  <Rbt.Executable>
rbdock ($Id: //depot/dev/client3/rdock/2013.1/src/exe/rbdock.cxx#4 $)

>  <Rbt.Library>
libRbt.so (2013.1, Build901 2013/11/27)

>  <Rbt.Parameter_File>
/export/apps/rDock/src/rDock_2013.1_src/data/scripts/dock_solv.prm

>  <Rbt.Receptor>
prm/blind_docking_60.prm

>  <SCORE>
-8.57816

>  <SCORE.INTER>
-8.57816

>  <SCORE.INTER.CONST>
1

>  <SCORE.INTER.POLAR>
0

>  <SCORE.INTER.ROT>
0

>  <SCORE.INTER.SOLV>
0.999859

>  <SCORE.INTER.VDW>
-9.65206

>  <SCORE.INTER.norm>
-0.857816

>  <SCORE.INTRA>
0

>  <SCORE.INTRA.DIHEDRAL>
0

>  <SCORE.INTRA.DIHEDRAL.0>
0

>  <SCORE.INTRA.POLAR>
0

>  <SCORE.INTRA.POLAR.0>
0

>  <SCORE.INTRA.REPUL>
0

>  <SCORE.INTRA.REPUL.0>
0

>  <SCORE.INTRA.SOLV>
0

>  <SCORE.INTRA.SOLV.lig_0>
-4.25352

>  <SCORE.INTRA.VDW>
0

>  <SCORE.INTRA.VDW.0>
0

>  <SCORE.INTRA.norm>
0

>  <SCORE.RESTR>
0

>  <SCORE.RESTR.CAVITY>
0

>  <SCORE.RESTR.norm>
0

>  <SCORE.SYSTEM>
0

>  <SCORE.SYSTEM.CONST>
0

>  <SCORE.SYSTEM.DIHEDRAL>
0

>  <SCORE.SYSTEM.SOLV>
0

>  <SCORE.SYSTEM.norm>
0

>  <SCORE.heavy>
10

>  <SCORE.norm>
-0.857816

>  <RMSD>
17.489

$$$$
ligand
 OpenBabel11021811423D
libRbt.so/2013.1/901 2013/11/27
 10 11  0  0  0  0  0  0  0  0999 V2000
   34.7191  -13.9143   17.2804 N   0  0  0  0  0  0  0  0  0  0  0  0
   33.9811  -12.7970   17.5490 C   0  0  0  0  0  0  0  0  0  0  0  0
   33.5664  -11.9579   16.5643 N   0  0  0  0  0  0  0  0  0  0  0  0
   33.9571  -12.3611   15.3209 C   0  0  0  0  0  0  0  0  0  0  0  0
   34.6958  -13.4748   14.9974 C   0  0  0  0  0  0  0  0  0  0  0  0
   35.1324  -14.3391   16.0055 C   0  0  0  0  0  0  0  0  0  0  0  0
   35.7885  -15.3559   15.9190 O   0  0  0  0  0  0  0  0  0  0  0  0
   34.8639  -13.5078   13.6394 N   0  0  0  0  0  0  0  0  0  0  0  0
   34.2430  -12.4403   13.1486 C   0  0  0  0  0  0  0  0  0  0  0  0
   33.6645  -11.6935   14.1578 N   0  0  0  0  0  0  0  0  0  0  0  0
  1  2  1  0  0  0  0
  1  6  1  0  0  0  0
  2  3  2  0  0  0  0
  3  4  1  0  0  0  0
  4  5  2  0  0  0  0
  4 10  1  0  0  0  0
  5  6  1  0  0  0  0
  5  8  1  0  0  0  0
  6  7  2  0  0  0  0
  8  9  1  0  0  0  0
  9 10  2  0  0  0  0
M  END
>  <CHROM.1>
34.48568960,-13.22461646,15.46925614,1.08801707,-0.99976483,1.74361278

>  <Name>
ligand

>  <RI>
0

>  <Rbt.Current_Directory>
/home/itssahil/PROJECTS/Mol_Feturizer/New_Systems/rnas/2EEV

>  <Rbt.Executable>
rbdock ($Id: //depot/dev/client3/rdock/2013.1/src/exe/rbdock.cxx#4 $)

>  <Rbt.Library>
libRbt.so (2013.1, Build901 2013/11/27)

>  <Rbt.Parameter_File>
/export/apps/rDock/src/rDock_2013.1_src/data/scripts/dock_solv.prm

>  <Rbt.Receptor>
prm/blind_docking_100.prm

>  <SCORE>
-9.80964

>  <SCORE.INTER>
-9.80964

>  <SCORE.INTER.CONST>
1

>  <SCORE.INTER.POLAR>
0

>  <SCORE.INTER.ROT>
0

>  <SCORE.INTER.SOLV>
2.11525

>  <SCORE.INTER.VDW>
-10.8448

>  <SCORE.INTER.norm>
-0.980964

>  <SCORE.INTRA>
0

>  <SCORE.INTRA.DIHEDRAL>
0

>  <SCORE.INTRA.DIHEDRAL.0>
0

>  <SCORE.INTRA.POLAR>
0

>  <SCORE.INTRA.POLAR.0>
0

>  <SCORE.INTRA.REPUL>
0

>  <SCORE.INTRA.REPUL.0>
0

>  <SCORE.INTRA.SOLV>
0

>  <SCORE.INTRA.SOLV.lig_0>
-4.25352

>  <SCORE.INTRA.VDW>
0

>  <SCORE.INTRA.VDW.0>
0

>  <SCORE.INTRA.norm>
0

>  <SCORE.RESTR>
0

>  <SCORE.RESTR.CAVITY>
0

>  <SCORE.RESTR.norm>
0

>  <SCORE.SYSTEM>
0

>  <SCORE.SYSTEM.CONST>
0

>  <SCORE.SYSTEM.DIHEDRAL>
0

>  <SCORE.SYSTEM.SOLV>
0

>  <SCORE.SYSTEM.norm>
0

>  <SCORE.heavy>
10

>  <SCORE.norm>
-0.980964

>  <RMSD>
21.244

$$$$
ligand
 OpenBabel11021811423D
libRbt.so/2013.1/901 2013/11/27
 10 11  0  0  0  0  0  0  0  0999 V2000
   33.3164  -14.8067   10.2591 N   0  0  0  0  0  0  0  0  0  0  0  0
   32.8599  -15.1879   11.4886 C   0  0  0  0  0  0  0  0  0  0  0  0
   32.5241  -16.4758   11.7609 N   0  0  0  0  0  0  0  0  0  0  0  0
   32.7019  -17.3096   10.6957 C   0  0  0  0  0  0  0  0  0  0  0  0
   33.1594  -16.9778    9.4421 C   0  0  0  0  0  0  0  0  0  0  0  0
   33.5000  -15.6535    9.1520 C   0  0  0  0  0  0  0  0  0  0  0  0
   33.9127  -15.1723    8.1176 O   0  0  0  0  0  0  0  0  0  0  0  0
   33.1884  -18.1104    8.6740 N   0  0  0  0  0  0  0  0  0  0  0  0
   32.7589  -19.1068    9.4413 C   0  0  0  0  0  0  0  0  0  0  0  0
   32.4414  -18.6572   10.7093 N   0  0  0  0  0  0  0  0  0  0  0  0
  1  2  1  0  0  0  0
  1  6  1  0  0  0  0
  2  3  2  0  0  0  0
  3  4  1  0  0  0  0
  4  5  2  0  0  0  0
  4 10  1  0  0  0  0
  5  6  1  0  0  0  0
  5  8  1  0  0  0  0
  6  7  2  0  0  0  0
  8  9  1  0  0  0  0
  9 10  2  0  0  0  0
M  END
>  <CHROM.1>
33.05258779,-16.71439836,9.94078384,0.91297334,1.21979013,0.54303166

>  <Name>
ligand

>  <RI>
0

>  <Rbt.Current_Directory>
/home/itssahil/PROJECTS/Mol_Feturizer/New_Systems/rnas/2EEV

>  <Rbt.Executable>
rbdock ($Id: //depot/dev/client3/rdock/2013.1/src/exe/rbdock.cxx#4 $)

>  <Rbt.Library>
libRbt.so (2013.1, Build901 2013/11/27)

>  <Rbt.Parameter_File>
/export/apps/rDock/src/rDock_2013.1_src/data/scripts/dock_solv.prm

>  <Rbt.Receptor>
prm/blind_docking_40.prm

>  <SCORE>
-8.77367

>  <SCORE.INTER>
-8.77367

>  <SCORE.INTER.CONST>
1

>  <SCORE.INTER.POLAR>
0

>  <SCORE.INTER.ROT>
0

>  <SCORE.INTER.SOLV>
1.99952

>  <SCORE.INTER.VDW>
-10.1156

>  <SCORE.INTER.norm>
-0.877367

>  <SCORE.INTRA>
0

>  <SCORE.INTRA.DIHEDRAL>
0

>  <SCORE.INTRA.DIHEDRAL.0>
0

>  <SCORE.INTRA.POLAR>
0

>  <SCORE.INTRA.POLAR.0>
0

>  <SCORE.INTRA.REPUL>
0

>  <SCORE.INTRA.REPUL.0>
0

>  <SCORE.INTRA.SOLV>
0

>  <SCORE.INTRA.SOLV.lig_0>
-4.25352

>  <SCORE.INTRA.VDW>
0

>  <SCORE.INTRA.VDW.0>
0

>  <SCORE.INTRA.norm>
0

>  <SCORE.RESTR>
0

>  <SCORE.RESTR.CAVITY>
0

>  <SCORE.RESTR.norm>
0

>  <SCORE.SYSTEM>
0

>  <SCORE.SYSTEM.CONST>
0

>  <SCORE.SYSTEM.DIHEDRAL>
0

>  <SCORE.SYSTEM.SOLV>
0

>  <SCORE.SYSTEM.norm>
0

>  <SCORE.heavy>
10

>  <SCORE.norm>
-0.877367

>  <RMSD>
21.349

$$$$
ligand
 OpenBabel11021811423D
libRbt.so/2013.1/901 2013/11/27
 10 11  0  0  0  0  0  0  0  0999 V2000
   33.6182  -16.6409    8.3931 N   0  0  0  0  0  0  0  0  0  0  0  0
   34.0188  -15.3437    8.5410 C   0  0  0  0  0  0  0  0  0  0  0  0
   33.7908  -14.6491    9.6861 N   0  0  0  0  0  0  0  0  0  0  0  0
   33.1443  -15.3848   10.6359 C   0  0  0  0  0  0  0  0  0  0  0  0
   32.7232  -16.6902   10.5383 C   0  0  0  0  0  0  0  0  0  0  0  0
   32.9477  -17.4092    9.3608 C   0  0  0  0  0  0  0  0  0  0  0  0
   32.6507  -18.5533    9.0874 O   0  0  0  0  0  0  0  0  0  0  0  0
   32.1205  -17.0436   11.7154 N   0  0  0  0  0  0  0  0  0  0  0  0
   32.1733  -15.9794   12.5095 C   0  0  0  0  0  0  0  0  0  0  0  0
   32.8001  -14.9199   11.8806 N   0  0  0  0  0  0  0  0  0  0  0  0
  1  2  1  0  0  0  0
  1  6  1  0  0  0  0
  2  3  2  0  0  0  0
  3  4  1  0  0  0  0
  4  5  2  0  0  0  0
  4 10  1  0  0  0  0
  5  6  1  0  0  0  0
  5  8  1  0  0  0  0
  6  7  2  0  0  0  0
  8  9  1  0  0  0  0
  9 10  2  0  0  0  0
M  END
>  <CHROM.1>
32.99330049,-16.30354371,10.21127568,-1.09290129,1.07536636,0.71545261

>  <Name>
ligand

>  <RI>
0

>  <Rbt.Current_Directory>
/home/itssahil/PROJECTS/Mol_Feturizer/New_Systems/rnas/2EEV

>  <Rbt.Executable>
rbdock ($Id: //depot/dev/client3/rdock/2013.1/src/exe/rbdock.cxx#4 $)

>  <Rbt.Library>
libRbt.so (2013.1, Build901 2013/11/27)

>  <Rbt.Parameter_File>
/export/apps/rDock/src/rDock_2013.1_src/data/scripts/dock_solv.prm

>  <Rbt.Receptor>
prm/blind_docking_40.prm

>  <SCORE>
-9.11592

>  <SCORE.INTER>
-9.11592

>  <SCORE.INTER.CONST>
1

>  <SCORE.INTER.POLAR>
0

>  <SCORE.INTER.ROT>
0

>  <SCORE.INTER.SOLV>
1.86167

>  <SCORE.INTER.VDW>
-10.2978

>  <SCORE.INTER.norm>
-0.911592

>  <SCORE.INTRA>
0

>  <SCORE.INTRA.DIHEDRAL>
0

>  <SCORE.INTRA.DIHEDRAL.0>
0

>  <SCORE.INTRA.POLAR>
0

>  <SCORE.INTRA.POLAR.0>
0

>  <SCORE.INTRA.REPUL>
0

>  <SCORE.INTRA.REPUL.0>
0

>  <SCORE.INTRA.SOLV>
0

>  <SCORE.INTRA.SOLV.lig_0>
-4.25352

>  <SCORE.INTRA.VDW>
0

>  <SCORE.INTRA.VDW.0>
0

>  <SCORE.INTRA.norm>
0

>  <SCORE.RESTR>
0

>  <SCORE.RESTR.CAVITY>
0

>  <SCORE.RESTR.norm>
0

>  <SCORE.SYSTEM>
0

>  <SCORE.SYSTEM.CONST>
0

>  <SCORE.SYSTEM.DIHEDRAL>
0

>  <SCORE.SYSTEM.SOLV>
0

>  <SCORE.SYSTEM.norm>
0

>  <SCORE.heavy>
10

>  <SCORE.norm>
-0.911592

>  <RMSD>
21.577

$$$$
ligand
 OpenBabel11021811423D
libRbt.so/2013.1/901 2013/11/27
 10 11  0  0  0  0  0  0  0  0999 V2000
   32.9690  -17.8412    8.6082 N   0  0  0  0  0  0  0  0  0  0  0  0
   32.7506  -18.7767    9.5790 C   0  0  0  0  0  0  0  0  0  0  0  0
   32.5107  -18.4278   10.8698 N   0  0  0  0  0  0  0  0  0  0  0  0
   32.5067  -17.0775   11.0650 C   0  0  0  0  0  0  0  0  0  0  0  0
   32.7178  -16.0967   10.1245 C   0  0  0  0  0  0  0  0  0  0  0  0
   32.9724  -16.4479    8.7958 C   0  0  0  0  0  0  0  0  0  0  0  0
   33.1841  -15.7355    7.8368 O   0  0  0  0  0  0  0  0  0  0  0  0
   32.6266  -14.8766   10.7382 N   0  0  0  0  0  0  0  0  0  0  0  0
   32.3667  -15.1092   12.0205 C   0  0  0  0  0  0  0  0  0  0  0  0
   32.2849  -16.4658   12.2735 N   0  0  0  0  0  0  0  0  0  0  0  0
  1  2  1  0  0  0  0
  1  6  1  0  0  0  0
  2  3  2  0  0  0  0
  3  4  1  0  0  0  0
  4  5  2  0  0  0  0
  4 10  1  0  0  0  0
  5  6  1  0  0  0  0
  5  8  1  0  0  0  0
  6  7  2  0  0  0  0
  8  9  1  0  0  0  0
  9 10  2  0  0  0  0
M  END
>  <CHROM.1>
32.69839789,-16.66995061,10.14610911,0.51842692,-1.37347451,-3.00679604

>  <Name>
ligand

>  <RI>
0

>  <Rbt.Current_Directory>
/home/itssahil/PROJECTS/Mol_Feturizer/New_Systems/rnas/2EEV

>  <Rbt.Executable>
rbdock ($Id: //depot/dev/client3/rdock/2013.1/src/exe/rbdock.cxx#4 $)

>  <Rbt.Library>
libRbt.so (2013.1, Build901 2013/11/27)

>  <Rbt.Parameter_File>
/export/apps/rDock/src/rDock_2013.1_src/data/scripts/dock_solv.prm

>  <Rbt.Receptor>
prm/blind_docking_40.prm

>  <SCORE>
-10.6335

>  <SCORE.INTER>
-10.6335

>  <SCORE.INTER.CONST>
1

>  <SCORE.INTER.POLAR>
0

>  <SCORE.INTER.ROT>
0

>  <SCORE.INTER.SOLV>
2.88351

>  <SCORE.INTER.VDW>
-11.6502

>  <SCORE.INTER.norm>
-1.06335

>  <SCORE.INTRA>
0

>  <SCORE.INTRA.DIHEDRAL>
0

>  <SCORE.INTRA.DIHEDRAL.0>
0

>  <SCORE.INTRA.POLAR>
0

>  <SCORE.INTRA.POLAR.0>
0

>  <SCORE.INTRA.REPUL>
0

>  <SCORE.INTRA.REPUL.0>
0

>  <SCORE.INTRA.SOLV>
0

>  <SCORE.INTRA.SOLV.lig_0>
-4.25352

>  <SCORE.INTRA.VDW>
0

>  <SCORE.INTRA.VDW.0>
0

>  <SCORE.INTRA.norm>
0

>  <SCORE.RESTR>
0

>  <SCORE.RESTR.CAVITY>
0

>  <SCORE.RESTR.norm>
0

>  <SCORE.SYSTEM>
0

>  <SCORE.SYSTEM.CONST>
0

>  <SCORE.SYSTEM.DIHEDRAL>
0

>  <SCORE.SYSTEM.SOLV>
0

>  <SCORE.SYSTEM.norm>
0

>  <SCORE.heavy>
10

>  <SCORE.norm>
-1.06335

>  <RMSD>
21.807

$$$$
ligand
 OpenBabel11021811423D
libRbt.so/2013.1/901 2013/11/27
 10 11  0  0  0  0  0  0  0  0999 V2000
   32.9046  -17.8717    8.5846 N   0  0  0  0  0  0  0  0  0  0  0  0
   32.7121  -18.7997    9.5679 C   0  0  0  0  0  0  0  0  0  0  0  0
   32.5159  -18.4412   10.8636 N   0  0  0  0  0  0  0  0  0  0  0  0
   32.5261  -17.0897   11.0499 C   0  0  0  0  0  0  0  0  0  0  0  0
   32.7124  -16.1162   10.0968 C   0  0  0  0  0  0  0  0  0  0  0  0
   32.9221  -16.4773    8.7629 C   0  0  0  0  0  0  0  0  0  0  0  0
   33.1069  -15.7723    7.7930 O   0  0  0  0  0  0  0  0  0  0  0  0
   32.6481  -14.8917   10.7051 N   0  0  0  0  0  0  0  0  0  0  0  0
   32.4283  -15.1146   11.9967 C   0  0  0  0  0  0  0  0  0  0  0  0
   32.3469  -16.4690   12.2610 N   0  0  0  0  0  0  0  0  0  0  0  0
  1  2  1  0  0  0  0
  1  6  1  0  0  0  0
  2  3  2  0  0  0  0
  3  4  1  0  0  0  0
  4  5  2  0  0  0  0
  4 10  1  0  0  0  0
  5  6  1  0  0  0  0
  5  8  1  0  0  0  0
  6  7  2  0  0  0  0
  8  9  1  0  0  0  0
  9 10  2  0  0  0  0
M  END
>  <CHROM.1>
32.69042914,-16.68911079,10.12272884,0.57918442,-1.40431546,-2.95345315

>  <Name>
ligand

>  <RI>
0

>  <Rbt.Current_Directory>
/home/itssahil/PROJECTS/Mol_Feturizer/New_Systems/rnas/2EEV

>  <Rbt.Executable>
rbdock ($Id: //depot/dev/client3/rdock/2013.1/src/exe/rbdock.cxx#4 $)

>  <Rbt.Library>
libRbt.so (2013.1, Build901 2013/11/27)

>  <Rbt.Parameter_File>
/export/apps/rDock/src/rDock_2013.1_src/data/scripts/dock_solv.prm

>  <Rbt.Receptor>
prm/blind_docking_40.prm

>  <SCORE>
-10.6087

>  <SCORE.INTER>
-10.6087

>  <SCORE.INTER.CONST>
1

>  <SCORE.INTER.POLAR>
0

>  <SCORE.INTER.ROT>
0

>  <SCORE.INTER.SOLV>
2.99945

>  <SCORE.INTER.VDW>
-11.6723

>  <SCORE.INTER.norm>
-1.06087

>  <SCORE.INTRA>
0

>  <SCORE.INTRA.DIHEDRAL>
0

>  <SCORE.INTRA.DIHEDRAL.0>
0

>  <SCORE.INTRA.POLAR>
0

>  <SCORE.INTRA.POLAR.0>
0

>  <SCORE.INTRA.REPUL>
0

>  <SCORE.INTRA.REPUL.0>
0

>  <SCORE.INTRA.SOLV>
0

>  <SCORE.INTRA.SOLV.lig_0>
-4.25352

>  <SCORE.INTRA.VDW>
0

>  <SCORE.INTRA.VDW.0>
0

>  <SCORE.INTRA.norm>
0

>  <SCORE.RESTR>
0

>  <SCORE.RESTR.CAVITY>
0

>  <SCORE.RESTR.norm>
0

>  <SCORE.SYSTEM>
0

>  <SCORE.SYSTEM.CONST>
0

>  <SCORE.SYSTEM.DIHEDRAL>
0

>  <SCORE.SYSTEM.SOLV>
0

>  <SCORE.SYSTEM.norm>
0

>  <SCORE.heavy>
10

>  <SCORE.norm>
-1.06087

>  <RMSD>
21.812

$$$$
ligand
 OpenBabel11021811423D
libRbt.so/2013.1/901 2013/11/27
 10 11  0  0  0  0  0  0  0  0999 V2000
   33.0596  -17.9314    8.5690 N   0  0  0  0  0  0  0  0  0  0  0  0
   33.3442  -16.6699    8.1299 C   0  0  0  0  0  0  0  0  0  0  0  0
   33.2443  -15.5875    8.9449 N   0  0  0  0  0  0  0  0  0  0  0  0
   32.8481  -15.9081   10.2104 C   0  0  0  0  0  0  0  0  0  0  0  0
   32.5528  -17.1578   10.7022 C   0  0  0  0  0  0  0  0  0  0  0  0
   32.6462  -18.2754    9.8679 C   0  0  0  0  0  0  0  0  0  0  0  0
   32.4261  -19.4427   10.1150 O   0  0  0  0  0  0  0  0  0  0  0  0
   32.1989  -17.0363   12.0188 N   0  0  0  0  0  0  0  0  0  0  0  0
   32.2766  -15.7445   12.3207 C   0  0  0  0  0  0  0  0  0  0  0  0
   32.6749  -15.0007   11.2257 N   0  0  0  0  0  0  0  0  0  0  0  0
  1  2  1  0  0  0  0
  1  6  1  0  0  0  0
  2  3  2  0  0  0  0
  3  4  1  0  0  0  0
  4  5  2  0  0  0  0
  4 10  1  0  0  0  0
  5  6  1  0  0  0  0
  5  8  1  0  0  0  0
  6  7  2  0  0  0  0
  8  9  1  0  0  0  0
  9 10  2  0  0  0  0
M  END
>  <CHROM.1>
32.72213608,-16.92355316,10.20630286,-1.20876176,1.27076521,0.42110082

>  <Name>
ligand

>  <RI>
0

>  <Rbt.Current_Directory>
/home/itssahil/PROJECTS/Mol_Feturizer/New_Systems/rnas/2EEV

>  <Rbt.Executable>
rbdock ($Id: //depot/dev/client3/rdock/2013.1/src/exe/rbdock.cxx#4 $)

>  <Rbt.Library>
libRbt.so (2013.1, Build901 2013/11/27)

>  <Rbt.Parameter_File>
/export/apps/rDock/src/rDock_2013.1_src/data/scripts/dock_solv.prm

>  <Rbt.Receptor>
prm/blind_docking_40.prm

>  <SCORE>
-9.66269

>  <SCORE.INTER>
-9.66269

>  <SCORE.INTER.CONST>
1

>  <SCORE.INTER.POLAR>
0

>  <SCORE.INTER.ROT>
0

>  <SCORE.INTER.SOLV>
1.92793

>  <SCORE.INTER.VDW>
-10.6844

>  <SCORE.INTER.norm>
-0.966269

>  <SCORE.INTRA>
0

>  <SCORE.INTRA.DIHEDRAL>
0

>  <SCORE.INTRA.DIHEDRAL.0>
0

>  <SCORE.INTRA.POLAR>
0

>  <SCORE.INTRA.POLAR.0>
0

>  <SCORE.INTRA.REPUL>
0

>  <SCORE.INTRA.REPUL.0>
0

>  <SCORE.INTRA.SOLV>
0

>  <SCORE.INTRA.SOLV.lig_0>
-4.25352

>  <SCORE.INTRA.VDW>
0

>  <SCORE.INTRA.VDW.0>
0

>  <SCORE.INTRA.norm>
0

>  <SCORE.RESTR>
0

>  <SCORE.RESTR.CAVITY>
0

>  <SCORE.RESTR.norm>
0

>  <SCORE.SYSTEM>
0

>  <SCORE.SYSTEM.CONST>
0

>  <SCORE.SYSTEM.DIHEDRAL>
0

>  <SCORE.SYSTEM.SOLV>
0

>  <SCORE.SYSTEM.norm>
0

>  <SCORE.heavy>
10

>  <SCORE.norm>
-0.966269

>  <RMSD>
21.910

$$$$
ligand
 OpenBabel11021811423D
libRbt.so/2013.1/901 2013/11/27
 10 11  0  0  0  0  0  0  0  0999 V2000
   33.0308  -17.9265    8.5681 N   0  0  0  0  0  0  0  0  0  0  0  0
   33.3241  -16.6677    8.1270 C   0  0  0  0  0  0  0  0  0  0  0  0
   33.2443  -15.5851    8.9439 N   0  0  0  0  0  0  0  0  0  0  0  0
   32.8580  -15.9026   10.2132 C   0  0  0  0  0  0  0  0  0  0  0  0
   32.5547  -17.1495   10.7071 C   0  0  0  0  0  0  0  0  0  0  0  0
   32.6274  -18.2673    9.8710 C   0  0  0  0  0  0  0  0  0  0  0  0
   32.3976  -19.4324   10.1194 O   0  0  0  0  0  0  0  0  0  0  0  0
   32.2160  -17.0256   12.0275 N   0  0  0  0  0  0  0  0  0  0  0  0
   32.3106  -15.7349   12.3296 C   0  0  0  0  0  0  0  0  0  0  0  0
   32.7052  -14.9944   11.2311 N   0  0  0  0  0  0  0  0  0  0  0  0
  1  2  1  0  0  0  0
  1  6  1  0  0  0  0
  2  3  2  0  0  0  0
  3  4  1  0  0  0  0
  4  5  2  0  0  0  0
  4 10  1  0  0  0  0
  5  6  1  0  0  0  0
  5  8  1  0  0  0  0
  6  7  2  0  0  0  0
  8  9  1  0  0  0  0
  9 10  2  0  0  0  0
M  END
>  <CHROM.1>
32.72129090,-16.91668058,10.20964716,-1.25691728,1.27570859,0.46801185

>  <Name>
ligand

>  <RI>
0

>  <Rbt.Current_Directory>
/home/itssahil/PROJECTS/Mol_Feturizer/New_Systems/rnas/2EEV

>  <Rbt.Executable>
rbdock ($Id: //depot/dev/client3/rdock/2013.1/src/exe/rbdock.cxx#4 $)

>  <Rbt.Library>
libRbt.so (2013.1, Build901 2013/11/27)

>  <Rbt.Parameter_File>
/export/apps/rDock/src/rDock_2013.1_src/data/scripts/dock_solv.prm

>  <Rbt.Receptor>
prm/blind_docking_40.prm

>  <SCORE>
-9.65032

>  <SCORE.INTER>
-9.65032

>  <SCORE.INTER.CONST>
1

>  <SCORE.INTER.POLAR>
0

>  <SCORE.INTER.ROT>
0

>  <SCORE.INTER.SOLV>
1.95066

>  <SCORE.INTER.VDW>
-10.6838

>  <SCORE.INTER.norm>
-0.965032

>  <SCORE.INTRA>
0

>  <SCORE.INTRA.DIHEDRAL>
0

>  <SCORE.INTRA.DIHEDRAL.0>
0

>  <SCORE.INTRA.POLAR>
0

>  <SCORE.INTRA.POLAR.0>
0

>  <SCORE.INTRA.REPUL>
0

>  <SCORE.INTRA.REPUL.0>
0

>  <SCORE.INTRA.SOLV>
0

>  <SCORE.INTRA.SOLV.lig_0>
-4.25352

>  <SCORE.INTRA.VDW>
0

>  <SCORE.INTRA.VDW.0>
0

>  <SCORE.INTRA.norm>
0

>  <SCORE.RESTR>
0

>  <SCORE.RESTR.CAVITY>
0

>  <SCORE.RESTR.norm>
0

>  <SCORE.SYSTEM>
0

>  <SCORE.SYSTEM.CONST>
0

>  <SCORE.SYSTEM.DIHEDRAL>
0

>  <SCORE.SYSTEM.SOLV>
0

>  <SCORE.SYSTEM.norm>
0

>  <SCORE.heavy>
10

>  <SCORE.norm>
-0.965032

>  <RMSD>
21.910

$$$$
ligand
 OpenBabel11021811423D
libRbt.so/2013.1/901 2013/11/27
 10 11  0  0  0  0  0  0  0  0999 V2000
   32.9702  -17.9380    8.5607 N   0  0  0  0  0  0  0  0  0  0  0  0
   33.2427  -16.6775    8.1110 C   0  0  0  0  0  0  0  0  0  0  0  0
   33.1697  -15.5938    8.9271 N   0  0  0  0  0  0  0  0  0  0  0  0
   32.8125  -15.9120   10.2048 C   0  0  0  0  0  0  0  0  0  0  0  0
   32.5309  -17.1605   10.7074 C   0  0  0  0  0  0  0  0  0  0  0  0
   32.5967  -18.2795    9.8723 C   0  0  0  0  0  0  0  0  0  0  0  0
   32.3829  -19.4461   10.1279 O   0  0  0  0  0  0  0  0  0  0  0  0
   32.2181  -17.0367   12.0342 N   0  0  0  0  0  0  0  0  0  0  0  0
   32.3070  -15.7445   12.3316 C   0  0  0  0  0  0  0  0  0  0  0  0
   32.6721  -15.0029   11.2236 N   0  0  0  0  0  0  0  0  0  0  0  0
  1  2  1  0  0  0  0
  1  6  1  0  0  0  0
  2  3  2  0  0  0  0
  3  4  1  0  0  0  0
  4  5  2  0  0  0  0
  4 10  1  0  0  0  0
  5  6  1  0  0  0  0
  5  8  1  0  0  0  0
  6  7  2  0  0  0  0
  8  9  1  0  0  0  0
  9 10  2  0  0  0  0
M  END
>  <CHROM.1>
32.68506034,-16.92728686,10.20615082,-1.26057958,1.29817098,0.46932906

>  <Name>
ligand

>  <RI>
0

>  <Rbt.Current_Directory>
/home/itssahil/PROJECTS/Mol_Feturizer/New_Systems/rnas/2EEV

>  <Rbt.Executable>
rbdock ($Id: //depot/dev/client3/rdock/2013.1/src/exe/rbdock.cxx#4 $)

>  <Rbt.Library>
libRbt.so (2013.1, Build901 2013/11/27)

>  <Rbt.Parameter_File>
/export/apps/rDock/src/rDock_2013.1_src/data/scripts/dock_solv.prm

>  <Rbt.Receptor>
prm/blind_docking_40.prm

>  <SCORE>
-9.64422

>  <SCORE.INTER>
-9.64535

>  <SCORE.INTER.CONST>
1

>  <SCORE.INTER.POLAR>
0

>  <SCORE.INTER.ROT>
0

>  <SCORE.INTER.SOLV>
1.99336

>  <SCORE.INTER.VDW>
-10.6947

>  <SCORE.INTER.norm>
-0.964535

>  <SCORE.INTRA>
0

>  <SCORE.INTRA.DIHEDRAL>
0

>  <SCORE.INTRA.DIHEDRAL.0>
0

>  <SCORE.INTRA.POLAR>
0

>  <SCORE.INTRA.POLAR.0>
0

>  <SCORE.INTRA.REPUL>
0

>  <SCORE.INTRA.REPUL.0>
0

>  <SCORE.INTRA.SOLV>
0

>  <SCORE.INTRA.SOLV.lig_0>
-4.25352

>  <SCORE.INTRA.VDW>
0

>  <SCORE.INTRA.VDW.0>
0

>  <SCORE.INTRA.norm>
0

>  <SCORE.RESTR>
0.0011282

>  <SCORE.RESTR.CAVITY>
0.0011282

>  <SCORE.RESTR.norm>
0.00011282

>  <SCORE.SYSTEM>
0

>  <SCORE.SYSTEM.CONST>
0

>  <SCORE.SYSTEM.DIHEDRAL>
0

>  <SCORE.SYSTEM.SOLV>
0

>  <SCORE.SYSTEM.norm>
0

>  <SCORE.heavy>
10

>  <SCORE.norm>
-0.964422

>  <RMSD>
21.946

$$$$
ligand
 OpenBabel11021811423D
libRbt.so/2013.1/901 2013/11/27
 10 11  0  0  0  0  0  0  0  0999 V2000
   32.9808  -18.2761    8.9353 N   0  0  0  0  0  0  0  0  0  0  0  0
   33.0111  -17.1251    8.2008 C   0  0  0  0  0  0  0  0  0  0  0  0
   32.8065  -15.9074    8.7675 N   0  0  0  0  0  0  0  0  0  0  0  0
   32.5845  -15.9758   10.1119 C   0  0  0  0  0  0  0  0  0  0  0  0
   32.5466  -17.1047   10.8962 C   0  0  0  0  0  0  0  0  0  0  0  0
   32.7489  -18.3617   10.3193 C   0  0  0  0  0  0  0  0  0  0  0  0
   32.7490  -19.4579   10.8392 O   0  0  0  0  0  0  0  0  0  0  0  0
   32.2973  -16.7300   12.1889 N   0  0  0  0  0  0  0  0  0  0  0  0
   32.1861  -15.4058   12.1911 C   0  0  0  0  0  0  0  0  0  0  0  0
   32.3551  -14.8901   10.9198 N   0  0  0  0  0  0  0  0  0  0  0  0
  1  2  1  0  0  0  0
  1  6  1  0  0  0  0
  2  3  2  0  0  0  0
  3  4  1  0  0  0  0
  4  5  2  0  0  0  0
  4 10  1  0  0  0  0
  5  6  1  0  0  0  0
  5  8  1  0  0  0  0
  6  7  2  0  0  0  0
  8  9  1  0  0  0  0
  9 10  2  0  0  0  0
M  END
>  <CHROM.1>
32.62927949,-16.97144296,10.34406205,-0.54495671,1.38321971,-0.45482499

>  <Name>
ligand

>  <RI>
0

>  <Rbt.Current_Directory>
/home/itssahil/PROJECTS/Mol_Feturizer/New_Systems/rnas/2EEV

>  <Rbt.Executable>
rbdock ($Id: //depot/dev/client3/rdock/2013.1/src/exe/rbdock.cxx#4 $)

>  <Rbt.Library>
libRbt.so (2013.1, Build901 2013/11/27)

>  <Rbt.Parameter_File>
/export/apps/rDock/src/rDock_2013.1_src/data/scripts/dock_solv.prm

>  <Rbt.Receptor>
prm/blind_docking_80.prm

>  <SCORE>
-10.7522

>  <SCORE.INTER>
-10.7522

>  <SCORE.INTER.CONST>
1

>  <SCORE.INTER.POLAR>
0

>  <SCORE.INTER.ROT>
0

>  <SCORE.INTER.SOLV>
2.39887

>  <SCORE.INTER.VDW>
-11.5678

>  <SCORE.INTER.norm>
-1.07522

>  <SCORE.INTRA>
0

>  <SCORE.INTRA.DIHEDRAL>
0

>  <SCORE.INTRA.DIHEDRAL.0>
0

>  <SCORE.INTRA.POLAR>
0

>  <SCORE.INTRA.POLAR.0>
0

>  <SCORE.INTRA.REPUL>
0

>  <SCORE.INTRA.REPUL.0>
0

>  <SCORE.INTRA.SOLV>
0

>  <SCORE.INTRA.SOLV.lig_0>
-4.25352

>  <SCORE.INTRA.VDW>
0

>  <SCORE.INTRA.VDW.0>
0

>  <SCORE.INTRA.norm>
0

>  <SCORE.RESTR>
0

>  <SCORE.RESTR.CAVITY>
0

>  <SCORE.RESTR.norm>
0

>  <SCORE.SYSTEM>
0

>  <SCORE.SYSTEM.CONST>
0

>  <SCORE.SYSTEM.DIHEDRAL>
0

>  <SCORE.SYSTEM.SOLV>
0

>  <SCORE.SYSTEM.norm>
0

>  <SCORE.heavy>
10

>  <SCORE.norm>
-1.07522

>  <RMSD>
22.024

$$$$
ligand
 OpenBabel11021811423D
libRbt.so/2013.1/901 2013/11/27
 10 11  0  0  0  0  0  0  0  0999 V2000
   31.5746  -13.7722   14.7029 N   0  0  0  0  0  0  0  0  0  0  0  0
   30.7062  -14.8210   14.8089 C   0  0  0  0  0  0  0  0  0  0  0  0
   30.7430  -15.8719   13.9486 N   0  0  0  0  0  0  0  0  0  0  0  0
   31.7242  -15.7563   13.0078 C   0  0  0  0  0  0  0  0  0  0  0  0
   32.6229  -14.7261   12.8598 C   0  0  0  0  0  0  0  0  0  0  0  0
   32.5867  -13.6379   13.7364 C   0  0  0  0  0  0  0  0  0  0  0  0
   33.2846  -12.6459   13.7635 O   0  0  0  0  0  0  0  0  0  0  0  0
   33.4350  -15.0048   11.7938 N   0  0  0  0  0  0  0  0  0  0  0  0
   33.0400  -16.1758   11.3050 C   0  0  0  0  0  0  0  0  0  0  0  0
   31.9754  -16.6826   12.0265 N   0  0  0  0  0  0  0  0  0  0  0  0
  1  2  1  0  0  0  0
  1  6  1  0  0  0  0
  2  3  2  0  0  0  0
  3  4  1  0  0  0  0
  4  5  2  0  0  0  0
  4 10  1  0  0  0  0
  5  6  1  0  0  0  0
  5  8  1  0  0  0  0
  6  7  2  0  0  0  0
  8  9  1  0  0  0  0
  9 10  2  0  0  0  0
M  END
>  <CHROM.1>
32.18860358,-14.86668140,13.20779338,1.73613083,0.69458889,0.65735053

>  <Name>
ligand

>  <RI>
0

>  <Rbt.Current_Directory>
/home/itssahil/PROJECTS/Mol_Feturizer/New_Systems/rnas/2EEV

>  <Rbt.Executable>
rbdock ($Id: //depot/dev/client3/rdock/2013.1/src/exe/rbdock.cxx#4 $)

>  <Rbt.Library>
libRbt.so (2013.1, Build901 2013/11/27)

>  <Rbt.Parameter_File>
/export/apps/rDock/src/rDock_2013.1_src/data/scripts/dock_solv.prm

>  <Rbt.Receptor>
prm/blind_docking_40.prm

>  <SCORE>
-8.63331

>  <SCORE.INTER>
-8.63331

>  <SCORE.INTER.CONST>
1

>  <SCORE.INTER.POLAR>
0

>  <SCORE.INTER.ROT>
0

>  <SCORE.INTER.SOLV>
2.5966

>  <SCORE.INTER.VDW>
-10.2211

>  <SCORE.INTER.norm>
-0.863331

>  <SCORE.INTRA>
0

>  <SCORE.INTRA.DIHEDRAL>
0

>  <SCORE.INTRA.DIHEDRAL.0>
0

>  <SCORE.INTRA.POLAR>
0

>  <SCORE.INTRA.POLAR.0>
0

>  <SCORE.INTRA.REPUL>
0

>  <SCORE.INTRA.REPUL.0>
0

>  <SCORE.INTRA.SOLV>
0

>  <SCORE.INTRA.SOLV.lig_0>
-4.25352

>  <SCORE.INTRA.VDW>
0

>  <SCORE.INTRA.VDW.0>
0

>  <SCORE.INTRA.norm>
0

>  <SCORE.RESTR>
0

>  <SCORE.RESTR.CAVITY>
0

>  <SCORE.RESTR.norm>
0

>  <SCORE.SYSTEM>
0

>  <SCORE.SYSTEM.CONST>
0

>  <SCORE.SYSTEM.DIHEDRAL>
0

>  <SCORE.SYSTEM.SOLV>
0

>  <SCORE.SYSTEM.norm>
0

>  <SCORE.heavy>
10

>  <SCORE.norm>
-0.863331

>  <RMSD>
22.583

$$$$
ligand
 OpenBabel11021811423D
libRbt.so/2013.1/901 2013/11/27
 10 11  0  0  0  0  0  0  0  0999 V2000
   31.5532  -13.7202   14.7694 N   0  0  0  0  0  0  0  0  0  0  0  0
   30.7322  -14.8008   14.9221 C   0  0  0  0  0  0  0  0  0  0  0  0
   30.7644  -15.8527   14.0629 N   0  0  0  0  0  0  0  0  0  0  0  0
   31.6903  -15.7033   13.0721 C   0  0  0  0  0  0  0  0  0  0  0  0
   32.5402  -14.6402   12.8760 C   0  0  0  0  0  0  0  0  0  0  0  0
   32.5080  -13.5510   13.7515 C   0  0  0  0  0  0  0  0  0  0  0  0
   33.1680  -12.5331   13.7406 O   0  0  0  0  0  0  0  0  0  0  0  0
   33.3059  -14.8918   11.7697 N   0  0  0  0  0  0  0  0  0  0  0  0
   32.9312  -16.0787   11.3040 C   0  0  0  0  0  0  0  0  0  0  0  0
   31.9255  -16.6230   12.0806 N   0  0  0  0  0  0  0  0  0  0  0  0
  1  2  1  0  0  0  0
  1  6  1  0  0  0  0
  2  3  2  0  0  0  0
  3  4  1  0  0  0  0
  4  5  2  0  0  0  0
  4 10  1  0  0  0  0
  5  6  1  0  0  0  0
  5  8  1  0  0  0  0
  6  7  2  0  0  0  0
  8  9  1  0  0  0  0
  9 10  2  0  0  0  0
M  END
>  <CHROM.1>
32.13021200,-14.79595116,13.24629178,1.73410218,0.75898447,0.65604275

>  <Name>
ligand

>  <RI>
0

>  <Rbt.Current_Directory>
/home/itssahil/PROJECTS/Mol_Feturizer/New_Systems/rnas/2EEV

>  <Rbt.Executable>
rbdock ($Id: //depot/dev/client3/rdock/2013.1/src/exe/rbdock.cxx#4 $)

>  <Rbt.Library>
libRbt.so (2013.1, Build901 2013/11/27)

>  <Rbt.Parameter_File>
/export/apps/rDock/src/rDock_2013.1_src/data/scripts/dock_solv.prm

>  <Rbt.Receptor>
prm/blind_docking_40.prm

>  <SCORE>
-8.63761

>  <SCORE.INTER>
-8.63761

>  <SCORE.INTER.CONST>
1

>  <SCORE.INTER.POLAR>
0

>  <SCORE.INTER.ROT>
0

>  <SCORE.INTER.SOLV>
2.76574

>  <SCORE.INTER.VDW>
-10.2803

>  <SCORE.INTER.norm>
-0.863761

>  <SCORE.INTRA>
0

>  <SCORE.INTRA.DIHEDRAL>
0

>  <SCORE.INTRA.DIHEDRAL.0>
0

>  <SCORE.INTRA.POLAR>
0

>  <SCORE.INTRA.POLAR.0>
0

>  <SCORE.INTRA.REPUL>
0

>  <SCORE.INTRA.REPUL.0>
0

>  <SCORE.INTRA.SOLV>
0

>  <SCORE.INTRA.SOLV.lig_0>
-4.25352

>  <SCORE.INTRA.VDW>
0

>  <SCORE.INTRA.VDW.0>
0

>  <SCORE.INTRA.norm>
0

>  <SCORE.RESTR>
0

>  <SCORE.RESTR.CAVITY>
0

>  <SCORE.RESTR.norm>
0

>  <SCORE.SYSTEM>
0

>  <SCORE.SYSTEM.CONST>
0

>  <SCORE.SYSTEM.DIHEDRAL>
0

>  <SCORE.SYSTEM.SOLV>
0

>  <SCORE.SYSTEM.norm>
0

>  <SCORE.heavy>
10

>  <SCORE.norm>
-0.863761

>  <RMSD>
22.642

$$$$
ligand
 OpenBabel11021811423D
libRbt.so/2013.1/901 2013/11/27
 10 11  0  0  0  0  0  0  0  0999 V2000
   31.5533  -13.7158   14.7672 N   0  0  0  0  0  0  0  0  0  0  0  0
   30.7290  -14.7945   14.9169 C   0  0  0  0  0  0  0  0  0  0  0  0
   30.7588  -15.8444   14.0552 N   0  0  0  0  0  0  0  0  0  0  0  0
   31.6858  -15.6954   13.0654 C   0  0  0  0  0  0  0  0  0  0  0  0
   32.5388  -14.6343   12.8722 C   0  0  0  0  0  0  0  0  0  0  0  0
   32.5091  -13.5471   13.7502 C   0  0  0  0  0  0  0  0  0  0  0  0
   33.1721  -12.5310   13.7421 O   0  0  0  0  0  0  0  0  0  0  0  0
   33.3045  -14.8855   11.7659 N   0  0  0  0  0  0  0  0  0  0  0  0
   32.9267  -16.0702   11.2972 C   0  0  0  0  0  0  0  0  0  0  0  0
   31.9190  -16.6135   12.0719 N   0  0  0  0  0  0  0  0  0  0  0  0
  1  2  1  0  0  0  0
  1  6  1  0  0  0  0
  2  3  2  0  0  0  0
  3  4  1  0  0  0  0
  4  5  2  0  0  0  0
  4 10  1  0  0  0  0
  5  6  1  0  0  0  0
  5  8  1  0  0  0  0
  6  7  2  0  0  0  0
  8  9  1  0  0  0  0
  9 10  2  0  0  0  0
M  END
>  <CHROM.1>
32.12813523,-14.78973438,13.24192720,1.73153388,0.75674426,0.66011769

>  <Name>
ligand

>  <RI>
0

>  <Rbt.Current_Directory>
/home/itssahil/PROJECTS/Mol_Feturizer/New_Systems/rnas/2EEV

>  <Rbt.Executable>
rbdock ($Id: //depot/dev/client3/rdock/2013.1/src/exe/rbdock.cxx#4 $)

>  <Rbt.Library>
libRbt.so (2013.1, Build901 2013/11/27)

>  <Rbt.Parameter_File>
/export/apps/rDock/src/rDock_2013.1_src/data/scripts/dock_solv.prm

>  <Rbt.Receptor>
prm/blind_docking_40.prm

>  <SCORE>
-8.66043

>  <SCORE.INTER>
-8.66043

>  <SCORE.INTER.CONST>
1

>  <SCORE.INTER.POLAR>
0

>  <SCORE.INTER.ROT>
0

>  <SCORE.INTER.SOLV>
2.75041

>  <SCORE.INTER.VDW>
-10.2904

>  <SCORE.INTER.norm>
-0.866043

>  <SCORE.INTRA>
0

>  <SCORE.INTRA.DIHEDRAL>
0

>  <SCORE.INTRA.DIHEDRAL.0>
0

>  <SCORE.INTRA.POLAR>
0

>  <SCORE.INTRA.POLAR.0>
0

>  <SCORE.INTRA.REPUL>
0

>  <SCORE.INTRA.REPUL.0>
0

>  <SCORE.INTRA.SOLV>
0

>  <SCORE.INTRA.SOLV.lig_0>
-4.25352

>  <SCORE.INTRA.VDW>
0

>  <SCORE.INTRA.VDW.0>
0

>  <SCORE.INTRA.norm>
0

>  <SCORE.RESTR>
0

>  <SCORE.RESTR.CAVITY>
0

>  <SCORE.RESTR.norm>
0

>  <SCORE.SYSTEM>
0

>  <SCORE.SYSTEM.CONST>
0

>  <SCORE.SYSTEM.DIHEDRAL>
0

>  <SCORE.SYSTEM.SOLV>
0

>  <SCORE.SYSTEM.norm>
0

>  <SCORE.heavy>
10

>  <SCORE.norm>
-0.866043

>  <RMSD>
22.643

$$$$
ligand
 OpenBabel11021811423D
libRbt.so/2013.1/901 2013/11/27
 10 11  0  0  0  0  0  0  0  0999 V2000
   30.6545  -12.1258   16.4251 N   0  0  0  0  0  0  0  0  0  0  0  0
   32.0098  -12.0204   16.2943 C   0  0  0  0  0  0  0  0  0  0  0  0
   32.7236  -12.8753   15.5164 N   0  0  0  0  0  0  0  0  0  0  0  0
   31.9452  -13.8105   14.8992 C   0  0  0  0  0  0  0  0  0  0  0  0
   30.5814  -13.9576   14.9951 C   0  0  0  0  0  0  0  0  0  0  0  0
   29.8409  -13.0864   15.7992 C   0  0  0  0  0  0  0  0  0  0  0  0
   28.6466  -13.0597   16.0109 O   0  0  0  0  0  0  0  0  0  0  0  0
   30.2008  -15.0170   14.2164 N   0  0  0  0  0  0  0  0  0  0  0  0
   31.3058  -15.5028   13.6606 C   0  0  0  0  0  0  0  0  0  0  0  0
   32.4190  -14.7857   14.0574 N   0  0  0  0  0  0  0  0  0  0  0  0
  1  2  1  0  0  0  0
  1  6  1  0  0  0  0
  2  3  2  0  0  0  0
  3  4  1  0  0  0  0
  4  5  2  0  0  0  0
  4 10  1  0  0  0  0
  5  6  1  0  0  0  0
  5  8  1  0  0  0  0
  6  7  2  0  0  0  0
  8  9  1  0  0  0  0
  9 10  2  0  0  0  0
M  END
>  <CHROM.1>
30.98890893,-13.61172434,15.20424909,-2.00178827,-0.12254805,-2.47391507

>  <Name>
ligand

>  <RI>
0

>  <Rbt.Current_Directory>
/home/itssahil/PROJECTS/Mol_Feturizer/New_Systems/rnas/2EEV

>  <Rbt.Executable>
rbdock ($Id: //depot/dev/client3/rdock/2013.1/src/exe/rbdock.cxx#4 $)

>  <Rbt.Library>
libRbt.so (2013.1, Build901 2013/11/27)

>  <Rbt.Parameter_File>
/export/apps/rDock/src/rDock_2013.1_src/data/scripts/dock_solv.prm

>  <Rbt.Receptor>
prm/blind_docking_40.prm

>  <SCORE>
-6.89679

>  <SCORE.INTER>
-6.89679

>  <SCORE.INTER.CONST>
1

>  <SCORE.INTER.POLAR>
0

>  <SCORE.INTER.ROT>
0

>  <SCORE.INTER.SOLV>
2.55221

>  <SCORE.INTER.VDW>
-9.0486

>  <SCORE.INTER.norm>
-0.689679

>  <SCORE.INTRA>
0

>  <SCORE.INTRA.DIHEDRAL>
0

>  <SCORE.INTRA.DIHEDRAL.0>
0

>  <SCORE.INTRA.POLAR>
0

>  <SCORE.INTRA.POLAR.0>
0

>  <SCORE.INTRA.REPUL>
0

>  <SCORE.INTRA.REPUL.0>
0

>  <SCORE.INTRA.SOLV>
0

>  <SCORE.INTRA.SOLV.lig_0>
-4.25352

>  <SCORE.INTRA.VDW>
0

>  <SCORE.INTRA.VDW.0>
0

>  <SCORE.INTRA.norm>
0

>  <SCORE.RESTR>
0

>  <SCORE.RESTR.CAVITY>
0

>  <SCORE.RESTR.norm>
0

>  <SCORE.SYSTEM>
0

>  <SCORE.SYSTEM.CONST>
0

>  <SCORE.SYSTEM.DIHEDRAL>
0

>  <SCORE.SYSTEM.SOLV>
0

>  <SCORE.SYSTEM.norm>
0

>  <SCORE.heavy>
10

>  <SCORE.norm>
-0.689679

>  <RMSD>
24.266

$$$$
ligand
 OpenBabel11021811423D
libRbt.so/2013.1/901 2013/11/27
 10 11  0  0  0  0  0  0  0  0999 V2000
   31.2715  -20.7048    9.2926 N   0  0  0  0  0  0  0  0  0  0  0  0
   29.9412  -20.4521    9.1144 C   0  0  0  0  0  0  0  0  0  0  0  0
   29.0648  -21.4323    8.7727 N   0  0  0  0  0  0  0  0  0  0  0  0
   29.6564  -22.6549    8.6438 C   0  0  0  0  0  0  0  0  0  0  0  0
   30.9858  -22.9621    8.8143 C   0  0  0  0  0  0  0  0  0  0  0  0
   31.8949  -21.9577    9.1587 C   0  0  0  0  0  0  0  0  0  0  0  0
   33.0913  -22.0317    9.3464 O   0  0  0  0  0  0  0  0  0  0  0  0
   31.1563  -24.3019    8.5921 N   0  0  0  0  0  0  0  0  0  0  0  0
   29.9601  -24.7978    8.2936 C   0  0  0  0  0  0  0  0  0  0  0  0
   28.9934  -23.8098    8.3108 N   0  0  0  0  0  0  0  0  0  0  0  0
  1  2  1  0  0  0  0
  1  6  1  0  0  0  0
  2  3  2  0  0  0  0
  3  4  1  0  0  0  0
  4  5  2  0  0  0  0
  4 10  1  0  0  0  0
  5  6  1  0  0  0  0
  5  8  1  0  0  0  0
  6  7  2  0  0  0  0
  8  9  1  0  0  0  0
  9 10  2  0  0  0  0
M  END
>  <CHROM.1>
30.64774753,-22.49917655,8.84385970,0.98295037,-0.16620929,0.18709149

>  <Name>
ligand

>  <RI>
0

>  <Rbt.Current_Directory>
/home/itssahil/PROJECTS/Mol_Feturizer/New_Systems/rnas/2EEV

>  <Rbt.Executable>
rbdock ($Id: //depot/dev/client3/rdock/2013.1/src/exe/rbdock.cxx#4 $)

>  <Rbt.Library>
libRbt.so (2013.1, Build901 2013/11/27)

>  <Rbt.Parameter_File>
/export/apps/rDock/src/rDock_2013.1_src/data/scripts/dock_solv.prm

>  <Rbt.Receptor>
prm/blind_docking_80.prm

>  <SCORE>
-11.5063

>  <SCORE.INTER>
-11.5063

>  <SCORE.INTER.CONST>
1

>  <SCORE.INTER.POLAR>
0

>  <SCORE.INTER.ROT>
0

>  <SCORE.INTER.SOLV>
2.20332

>  <SCORE.INTER.VDW>
-12.0053

>  <SCORE.INTER.norm>
-1.15063

>  <SCORE.INTRA>
0

>  <SCORE.INTRA.DIHEDRAL>
0

>  <SCORE.INTRA.DIHEDRAL.0>
0

>  <SCORE.INTRA.POLAR>
0

>  <SCORE.INTRA.POLAR.0>
0

>  <SCORE.INTRA.REPUL>
0

>  <SCORE.INTRA.REPUL.0>
0

>  <SCORE.INTRA.SOLV>
0

>  <SCORE.INTRA.SOLV.lig_0>
-4.25352

>  <SCORE.INTRA.VDW>
0

>  <SCORE.INTRA.VDW.0>
0

>  <SCORE.INTRA.norm>
0

>  <SCORE.RESTR>
5.81751e-06

>  <SCORE.RESTR.CAVITY>
5.81751e-06

>  <SCORE.RESTR.norm>
5.81751e-07

>  <SCORE.SYSTEM>
0

>  <SCORE.SYSTEM.CONST>
0

>  <SCORE.SYSTEM.DIHEDRAL>
0

>  <SCORE.SYSTEM.SOLV>
0

>  <SCORE.SYSTEM.norm>
0

>  <SCORE.heavy>
10

>  <SCORE.norm>
-1.15063

>  <RMSD>
25.011

$$$$
ligand
 OpenBabel11021811423D
libRbt.so/2013.1/901 2013/11/27
 10 11  0  0  0  0  0  0  0  0999 V2000
   31.2663  -20.7125    9.2935 N   0  0  0  0  0  0  0  0  0  0  0  0
   29.9345  -20.4614    9.1250 C   0  0  0  0  0  0  0  0  0  0  0  0
   29.0570  -21.4424    8.7882 N   0  0  0  0  0  0  0  0  0  0  0  0
   29.6493  -22.6640    8.6536 C   0  0  0  0  0  0  0  0  0  0  0  0
   30.9804  -22.9695    8.8143 C   0  0  0  0  0  0  0  0  0  0  0  0
   31.8905  -21.9644    9.1537 C   0  0  0  0  0  0  0  0  0  0  0  0
   33.0883  -22.0370    9.3328 O   0  0  0  0  0  0  0  0  0  0  0  0
   31.1511  -24.3088    8.5893 N   0  0  0  0  0  0  0  0  0  0  0  0
   29.9535  -24.8060    8.2986 C   0  0  0  0  0  0  0  0  0  0  0  0
   28.9856  -23.8193    8.3238 N   0  0  0  0  0  0  0  0  0  0  0  0
  1  2  1  0  0  0  0
  1  6  1  0  0  0  0
  2  3  2  0  0  0  0
  3  4  1  0  0  0  0
  4  5  2  0  0  0  0
  4 10  1  0  0  0  0
  5  6  1  0  0  0  0
  5  8  1  0  0  0  0
  6  7  2  0  0  0  0
  8  9  1  0  0  0  0
  9 10  2  0  0  0  0
M  END
>  <CHROM.1>
30.64187794,-22.50715133,8.84688783,0.98298364,-0.15904444,0.18835802

>  <Name>
ligand

>  <RI>
0

>  <Rbt.Current_Directory>
/home/itssahil/PROJECTS/Mol_Feturizer/New_Systems/rnas/2EEV

>  <Rbt.Executable>
rbdock ($Id: //depot/dev/client3/rdock/2013.1/src/exe/rbdock.cxx#4 $)

>  <Rbt.Library>
libRbt.so (2013.1, Build901 2013/11/27)

>  <Rbt.Parameter_File>
/export/apps/rDock/src/rDock_2013.1_src/data/scripts/dock_solv.prm

>  <Rbt.Receptor>
prm/blind_docking_100.prm

>  <SCORE>
-11.501

>  <SCORE.INTER>
-11.501

>  <SCORE.INTER.CONST>
1

>  <SCORE.INTER.POLAR>
0

>  <SCORE.INTER.ROT>
0

>  <SCORE.INTER.SOLV>
2.20879

>  <SCORE.INTER.VDW>
-12.0036

>  <SCORE.INTER.norm>
-1.1501

>  <SCORE.INTRA>
0

>  <SCORE.INTRA.DIHEDRAL>
0

>  <SCORE.INTRA.DIHEDRAL.0>
0

>  <SCORE.INTRA.POLAR>
0

>  <SCORE.INTRA.POLAR.0>
0

>  <SCORE.INTRA.REPUL>
0

>  <SCORE.INTRA.REPUL.0>
0

>  <SCORE.INTRA.SOLV>
0

>  <SCORE.INTRA.SOLV.lig_0>
-4.25352

>  <SCORE.INTRA.VDW>
0

>  <SCORE.INTRA.VDW.0>
0

>  <SCORE.INTRA.norm>
0

>  <SCORE.RESTR>
0

>  <SCORE.RESTR.CAVITY>
0

>  <SCORE.RESTR.norm>
0

>  <SCORE.SYSTEM>
0

>  <SCORE.SYSTEM.CONST>
0

>  <SCORE.SYSTEM.DIHEDRAL>
0

>  <SCORE.SYSTEM.SOLV>
0

>  <SCORE.SYSTEM.norm>
0

>  <SCORE.heavy>
10

>  <SCORE.norm>
-1.1501

>  <RMSD>
25.020

$$$$
ligand
 OpenBabel11021811423D
libRbt.so/2013.1/901 2013/11/27
 10 11  0  0  0  0  0  0  0  0999 V2000
   30.8970  -22.0260   10.2168 N   0  0  0  0  0  0  0  0  0  0  0  0
   29.6393  -21.8630   10.7235 C   0  0  0  0  0  0  0  0  0  0  0  0
   28.5950  -22.6268   10.3092 N   0  0  0  0  0  0  0  0  0  0  0  0
   28.9489  -23.5473    9.3665 C   0  0  0  0  0  0  0  0  0  0  0  0
   30.1967  -23.7532    8.8268 C   0  0  0  0  0  0  0  0  0  0  0  0
   31.2748  -22.9666    9.2425 C   0  0  0  0  0  0  0  0  0  0  0  0
   32.4337  -22.9954    8.8847 O   0  0  0  0  0  0  0  0  0  0  0  0
   30.1161  -24.7728    7.9171 N   0  0  0  0  0  0  0  0  0  0  0  0
   28.8503  -25.1773    7.9035 C   0  0  0  0  0  0  0  0  0  0  0  0
   28.0836  -24.4423    8.7883 N   0  0  0  0  0  0  0  0  0  0  0  0
  1  2  1  0  0  0  0
  1  6  1  0  0  0  0
  2  3  2  0  0  0  0
  3  4  1  0  0  0  0
  4  5  2  0  0  0  0
  4 10  1  0  0  0  0
  5  6  1  0  0  0  0
  5  8  1  0  0  0  0
  6  7  2  0  0  0  0
  8  9  1  0  0  0  0
  9 10  2  0  0  0  0
M  END
>  <CHROM.1>
29.95090072,-23.40736073,9.21326738,0.79549254,0.20547538,0.74249853

>  <Name>
ligand

>  <RI>
0

>  <Rbt.Current_Directory>
/home/itssahil/PROJECTS/Mol_Feturizer/New_Systems/rnas/2EEV

>  <Rbt.Executable>
rbdock ($Id: //depot/dev/client3/rdock/2013.1/src/exe/rbdock.cxx#4 $)

>  <Rbt.Library>
libRbt.so (2013.1, Build901 2013/11/27)

>  <Rbt.Parameter_File>
/export/apps/rDock/src/rDock_2013.1_src/data/scripts/dock_solv.prm

>  <Rbt.Receptor>
prm/blind_docking_60.prm

>  <SCORE>
-9.99782

>  <SCORE.INTER>
-9.99782

>  <SCORE.INTER.CONST>
1

>  <SCORE.INTER.POLAR>
0

>  <SCORE.INTER.ROT>
0

>  <SCORE.INTER.SOLV>
3.22971

>  <SCORE.INTER.VDW>
-11.3418

>  <SCORE.INTER.norm>
-0.999782

>  <SCORE.INTRA>
0

>  <SCORE.INTRA.DIHEDRAL>
0

>  <SCORE.INTRA.DIHEDRAL.0>
0

>  <SCORE.INTRA.POLAR>
0

>  <SCORE.INTRA.POLAR.0>
0

>  <SCORE.INTRA.REPUL>
0

>  <SCORE.INTRA.REPUL.0>
0

>  <SCORE.INTRA.SOLV>
0

>  <SCORE.INTRA.SOLV.lig_0>
-4.25352

>  <SCORE.INTRA.VDW>
0

>  <SCORE.INTRA.VDW.0>
0

>  <SCORE.INTRA.norm>
0

>  <SCORE.RESTR>
0

>  <SCORE.RESTR.CAVITY>
0

>  <SCORE.RESTR.norm>
0

>  <SCORE.SYSTEM>
0

>  <SCORE.SYSTEM.CONST>
0

>  <SCORE.SYSTEM.DIHEDRAL>
0

>  <SCORE.SYSTEM.SOLV>
0

>  <SCORE.SYSTEM.norm>
0

>  <SCORE.heavy>
10

>  <SCORE.norm>
-0.999782

>  <RMSD>
25.972

$$$$
ligand
 OpenBabel11021811423D
libRbt.so/2013.1/901 2013/11/27
 10 11  0  0  0  0  0  0  0  0999 V2000
   28.9020  -20.7892   10.5060 N   0  0  0  0  0  0  0  0  0  0  0  0
   28.9470  -21.7213   11.5032 C   0  0  0  0  0  0  0  0  0  0  0  0
   29.1275  -23.0422   11.2421 N   0  0  0  0  0  0  0  0  0  0  0  0
   29.2618  -23.3089    9.9109 C   0  0  0  0  0  0  0  0  0  0  0  0
   29.2267  -22.4099    8.8710 C   0  0  0  0  0  0  0  0  0  0  0  0
   29.0342  -21.0501    9.1309 C   0  0  0  0  0  0  0  0  0  0  0  0
   28.9710  -20.1182    8.3565 O   0  0  0  0  0  0  0  0  0  0  0  0
   29.4028  -23.0925    7.6977 N   0  0  0  0  0  0  0  0  0  0  0  0
   29.5414  -24.3753    8.0158 C   0  0  0  0  0  0  0  0  0  0  0  0
   29.4585  -24.5606    9.3832 N   0  0  0  0  0  0  0  0  0  0  0  0
  1  2  1  0  0  0  0
  1  6  1  0  0  0  0
  2  3  2  0  0  0  0
  3  4  1  0  0  0  0
  4  5  2  0  0  0  0
  4 10  1  0  0  0  0
  5  6  1  0  0  0  0
  5  8  1  0  0  0  0
  6  7  2  0  0  0  0
  8  9  1  0  0  0  0
  9 10  2  0  0  0  0
M  END
>  <CHROM.1>
29.18289751,-22.40213834,9.44320074,2.93571749,1.42488713,-1.04049325

>  <Name>
ligand

>  <RI>
0

>  <Rbt.Current_Directory>
/home/itssahil/PROJECTS/Mol_Feturizer/New_Systems/rnas/2EEV

>  <Rbt.Executable>
rbdock ($Id: //depot/dev/client3/rdock/2013.1/src/exe/rbdock.cxx#4 $)

>  <Rbt.Library>
libRbt.so (2013.1, Build901 2013/11/27)

>  <Rbt.Parameter_File>
/export/apps/rDock/src/rDock_2013.1_src/data/scripts/dock_solv.prm

>  <Rbt.Receptor>
prm/blind_docking_40.prm

>  <SCORE>
-11.8205

>  <SCORE.INTER>
-11.8329

>  <SCORE.INTER.CONST>
1

>  <SCORE.INTER.POLAR>
0

>  <SCORE.INTER.ROT>
0

>  <SCORE.INTER.SOLV>
5.50734

>  <SCORE.INTER.VDW>
-13.3244

>  <SCORE.INTER.norm>
-1.18329

>  <SCORE.INTRA>
0

>  <SCORE.INTRA.DIHEDRAL>
0

>  <SCORE.INTRA.DIHEDRAL.0>
0

>  <SCORE.INTRA.POLAR>
0

>  <SCORE.INTRA.POLAR.0>
0

>  <SCORE.INTRA.REPUL>
0

>  <SCORE.INTRA.REPUL.0>
0

>  <SCORE.INTRA.SOLV>
0

>  <SCORE.INTRA.SOLV.lig_0>
-4.25352

>  <SCORE.INTRA.VDW>
0

>  <SCORE.INTRA.VDW.0>
0

>  <SCORE.INTRA.norm>
0

>  <SCORE.RESTR>
0.0124269

>  <SCORE.RESTR.CAVITY>
0.0124269

>  <SCORE.RESTR.norm>
0.00124269

>  <SCORE.SYSTEM>
0

>  <SCORE.SYSTEM.CONST>
0

>  <SCORE.SYSTEM.DIHEDRAL>
0

>  <SCORE.SYSTEM.SOLV>
0

>  <SCORE.SYSTEM.norm>
0

>  <SCORE.heavy>
10

>  <SCORE.norm>
-1.18205

>  <RMSD>
26.253

$$$$
ligand
 OpenBabel11021811423D
libRbt.so/2013.1/901 2013/11/27
 10 11  0  0  0  0  0  0  0  0999 V2000
   29.2086  -20.7524   10.0650 N   0  0  0  0  0  0  0  0  0  0  0  0
   29.0741  -20.4375    8.7428 C   0  0  0  0  0  0  0  0  0  0  0  0
   29.0815  -21.3904    7.7746 N   0  0  0  0  0  0  0  0  0  0  0  0
   29.2256  -22.6531    8.2707 C   0  0  0  0  0  0  0  0  0  0  0  0
   29.3617  -23.0228    9.5881 C   0  0  0  0  0  0  0  0  0  0  0  0
   29.3623  -22.0476   10.5895 C   0  0  0  0  0  0  0  0  0  0  0  0
   29.4730  -22.1759   11.7909 O   0  0  0  0  0  0  0  0  0  0  0  0
   29.4780  -24.3853    9.6495 N   0  0  0  0  0  0  0  0  0  0  0  0
   29.4145  -24.8336    8.4001 C   0  0  0  0  0  0  0  0  0  0  0  0
   29.2597  -23.7917    7.5049 N   0  0  0  0  0  0  0  0  0  0  0  0
  1  2  1  0  0  0  0
  1  6  1  0  0  0  0
  2  3  2  0  0  0  0
  3  4  1  0  0  0  0
  4  5  2  0  0  0  0
  4 10  1  0  0  0  0
  5  6  1  0  0  0  0
  5  8  1  0  0  0  0
  6  7  2  0  0  0  0
  8  9  1  0  0  0  0
  9 10  2  0  0  0  0
M  END
>  <CHROM.1>
29.29707020,-22.53964139,9.28515365,1.70407413,-1.45495120,0.79983827

>  <Name>
ligand

>  <RI>
0

>  <Rbt.Current_Directory>
/home/itssahil/PROJECTS/Mol_Feturizer/New_Systems/rnas/2EEV

>  <Rbt.Executable>
rbdock ($Id: //depot/dev/client3/rdock/2013.1/src/exe/rbdock.cxx#4 $)

>  <Rbt.Library>
libRbt.so (2013.1, Build901 2013/11/27)

>  <Rbt.Parameter_File>
/export/apps/rDock/src/rDock_2013.1_src/data/scripts/dock_solv.prm

>  <Rbt.Receptor>
prm/blind_docking_40.prm

>  <SCORE>
-12.088

>  <SCORE.INTER>
-12.2885

>  <SCORE.INTER.CONST>
1

>  <SCORE.INTER.POLAR>
0

>  <SCORE.INTER.ROT>
0

>  <SCORE.INTER.SOLV>
4.57222

>  <SCORE.INTER.VDW>
-13.3164

>  <SCORE.INTER.norm>
-1.22885

>  <SCORE.INTRA>
0

>  <SCORE.INTRA.DIHEDRAL>
0

>  <SCORE.INTRA.DIHEDRAL.0>
0

>  <SCORE.INTRA.POLAR>
0

>  <SCORE.INTRA.POLAR.0>
0

>  <SCORE.INTRA.REPUL>
0

>  <SCORE.INTRA.REPUL.0>
0

>  <SCORE.INTRA.SOLV>
0

>  <SCORE.INTRA.SOLV.lig_0>
-4.25352

>  <SCORE.INTRA.VDW>
0

>  <SCORE.INTRA.VDW.0>
0

>  <SCORE.INTRA.norm>
0

>  <SCORE.RESTR>
0.200463

>  <SCORE.RESTR.CAVITY>
0.200463

>  <SCORE.RESTR.norm>
0.0200463

>  <SCORE.SYSTEM>
0

>  <SCORE.SYSTEM.CONST>
0

>  <SCORE.SYSTEM.DIHEDRAL>
0

>  <SCORE.SYSTEM.SOLV>
0

>  <SCORE.SYSTEM.norm>
0

>  <SCORE.heavy>
10

>  <SCORE.norm>
-1.2088

>  <RMSD>
26.254

$$$$
ligand
 OpenBabel11021811423D
libRbt.so/2013.1/901 2013/11/27
 10 11  0  0  0  0  0  0  0  0999 V2000
   28.8951  -20.7868   10.5117 N   0  0  0  0  0  0  0  0  0  0  0  0
   28.9440  -21.7176   11.5099 C   0  0  0  0  0  0  0  0  0  0  0  0
   29.1290  -23.0382   11.2502 N   0  0  0  0  0  0  0  0  0  0  0  0
   29.2634  -23.3058    9.9192 C   0  0  0  0  0  0  0  0  0  0  0  0
   29.2245  -22.4082    8.8783 C   0  0  0  0  0  0  0  0  0  0  0  0
   29.0274  -21.0487    9.1368 C   0  0  0  0  0  0  0  0  0  0  0  0
   28.9605  -20.1180    8.3614 O   0  0  0  0  0  0  0  0  0  0  0  0
   29.4023  -23.0915    7.7057 N   0  0  0  0  0  0  0  0  0  0  0  0
   29.5456  -24.3734    8.0251 C   0  0  0  0  0  0  0  0  0  0  0  0
   29.4642  -24.5575    9.3927 N   0  0  0  0  0  0  0  0  0  0  0  0
  1  2  1  0  0  0  0
  1  6  1  0  0  0  0
  2  3  2  0  0  0  0
  3  4  1  0  0  0  0
  4  5  2  0  0  0  0
  4 10  1  0  0  0  0
  5  6  1  0  0  0  0
  5  8  1  0  0  0  0
  6  7  2  0  0  0  0
  8  9  1  0  0  0  0
  9 10  2  0  0  0  0
M  END
>  <CHROM.1>
29.18103990,-22.39992350,9.45053273,2.95120211,1.42214832,-1.05692723

>  <Name>
ligand

>  <RI>
0

>  <Rbt.Current_Directory>
/home/itssahil/PROJECTS/Mol_Feturizer/New_Systems/rnas/2EEV

>  <Rbt.Executable>
rbdock ($Id: //depot/dev/client3/rdock/2013.1/src/exe/rbdock.cxx#4 $)

>  <Rbt.Library>
libRbt.so (2013.1, Build901 2013/11/27)

>  <Rbt.Parameter_File>
/export/apps/rDock/src/rDock_2013.1_src/data/scripts/dock_solv.prm

>  <Rbt.Receptor>
prm/blind_docking_40.prm

>  <SCORE>
-11.8057

>  <SCORE.INTER>
-11.8142

>  <SCORE.INTER.CONST>
1

>  <SCORE.INTER.POLAR>
0

>  <SCORE.INTER.ROT>
0

>  <SCORE.INTER.SOLV>
5.51233

>  <SCORE.INTER.VDW>
-13.3135

>  <SCORE.INTER.norm>
-1.18142

>  <SCORE.INTRA>
0

>  <SCORE.INTRA.DIHEDRAL>
0

>  <SCORE.INTRA.DIHEDRAL.0>
0

>  <SCORE.INTRA.POLAR>
0

>  <SCORE.INTRA.POLAR.0>
0

>  <SCORE.INTRA.REPUL>
0

>  <SCORE.INTRA.REPUL.0>
0

>  <SCORE.INTRA.SOLV>
0

>  <SCORE.INTRA.SOLV.lig_0>
-4.25352

>  <SCORE.INTRA.VDW>
0

>  <SCORE.INTRA.VDW.0>
0

>  <SCORE.INTRA.norm>
0

>  <SCORE.RESTR>
0.00844969

>  <SCORE.RESTR.CAVITY>
0.00844969

>  <SCORE.RESTR.norm>
0.000844969

>  <SCORE.SYSTEM>
0

>  <SCORE.SYSTEM.CONST>
0

>  <SCORE.SYSTEM.DIHEDRAL>
0

>  <SCORE.SYSTEM.SOLV>
0

>  <SCORE.SYSTEM.norm>
0

>  <SCORE.heavy>
10

>  <SCORE.norm>
-1.18057

>  <RMSD>
26.255

$$$$
ligand
 OpenBabel11021811423D
libRbt.so/2013.1/901 2013/11/27
 10 11  0  0  0  0  0  0  0  0999 V2000
   28.9943  -20.8799   10.4873 N   0  0  0  0  0  0  0  0  0  0  0  0
   29.0551  -21.8339   11.4627 C   0  0  0  0  0  0  0  0  0  0  0  0
   29.1956  -23.1527   11.1679 N   0  0  0  0  0  0  0  0  0  0  0  0
   29.2741  -23.3936    9.8273 C   0  0  0  0  0  0  0  0  0  0  0  0
   29.2210  -22.4721    8.8082 C   0  0  0  0  0  0  0  0  0  0  0  0
   29.0693  -21.1142    9.1031 C   0  0  0  0  0  0  0  0  0  0  0  0
   28.9987  -20.1648    8.3509 O   0  0  0  0  0  0  0  0  0  0  0  0
   29.3377  -23.1331    7.6153 N   0  0  0  0  0  0  0  0  0  0  0  0
   29.4587  -24.4252    7.9015 C   0  0  0  0  0  0  0  0  0  0  0  0
   29.4225  -24.6379    9.2669 N   0  0  0  0  0  0  0  0  0  0  0  0
  1  2  1  0  0  0  0
  1  6  1  0  0  0  0
  2  3  2  0  0  0  0
  3  4  1  0  0  0  0
  4  5  2  0  0  0  0
  4 10  1  0  0  0  0
  5  6  1  0  0  0  0
  5  8  1  0  0  0  0
  6  7  2  0  0  0  0
  8  9  1  0  0  0  0
  9 10  2  0  0  0  0
M  END
>  <CHROM.1>
29.19864256,-22.47559068,9.38168245,3.12502109,1.46146503,-1.20730145

>  <Name>
ligand

>  <RI>
0

>  <Rbt.Current_Directory>
/home/itssahil/PROJECTS/Mol_Feturizer/New_Systems/rnas/2EEV

>  <Rbt.Executable>
rbdock ($Id: //depot/dev/client3/rdock/2013.1/src/exe/rbdock.cxx#4 $)

>  <Rbt.Library>
libRbt.so (2013.1, Build901 2013/11/27)

>  <Rbt.Parameter_File>
/export/apps/rDock/src/rDock_2013.1_src/data/scripts/dock_solv.prm

>  <Rbt.Receptor>
prm/blind_docking_100.prm

>  <SCORE>
-11.9622

>  <SCORE.INTER>
-11.9623

>  <SCORE.INTER.CONST>
1

>  <SCORE.INTER.POLAR>
0

>  <SCORE.INTER.ROT>
0

>  <SCORE.INTER.SOLV>
5.42513

>  <SCORE.INTER.VDW>
-13.3832

>  <SCORE.INTER.norm>
-1.19623

>  <SCORE.INTRA>
0

>  <SCORE.INTRA.DIHEDRAL>
0

>  <SCORE.INTRA.DIHEDRAL.0>
0

>  <SCORE.INTRA.POLAR>
0

>  <SCORE.INTRA.POLAR.0>
0

>  <SCORE.INTRA.REPUL>
0

>  <SCORE.INTRA.REPUL.0>
0

>  <SCORE.INTRA.SOLV>
0

>  <SCORE.INTRA.SOLV.lig_0>
-4.25352

>  <SCORE.INTRA.VDW>
0

>  <SCORE.INTRA.VDW.0>
0

>  <SCORE.INTRA.norm>
0

>  <SCORE.RESTR>
4.10024e-05

>  <SCORE.RESTR.CAVITY>
4.10024e-05

>  <SCORE.RESTR.norm>
4.10024e-06

>  <SCORE.SYSTEM>
0

>  <SCORE.SYSTEM.CONST>
0

>  <SCORE.SYSTEM.DIHEDRAL>
0

>  <SCORE.SYSTEM.SOLV>
0

>  <SCORE.SYSTEM.norm>
0

>  <SCORE.heavy>
10

>  <SCORE.norm>
-1.19622

>  <RMSD>
26.256

$$$$
ligand
 OpenBabel11021811423D
libRbt.so/2013.1/901 2013/11/27
 10 11  0  0  0  0  0  0  0  0999 V2000
   29.2275  -20.7644   10.0419 N   0  0  0  0  0  0  0  0  0  0  0  0
   29.0823  -20.4419    8.7228 C   0  0  0  0  0  0  0  0  0  0  0  0
   29.0738  -21.3900    7.7498 N   0  0  0  0  0  0  0  0  0  0  0  0
   29.2140  -22.6561    8.2382 C   0  0  0  0  0  0  0  0  0  0  0  0
   29.3603  -23.0334    9.5524 C   0  0  0  0  0  0  0  0  0  0  0  0
   29.3774  -22.0632   10.5585 C   0  0  0  0  0  0  0  0  0  0  0  0
   29.4989  -22.1984   11.7581 O   0  0  0  0  0  0  0  0  0  0  0  0
   29.4679  -24.3969    9.6058 N   0  0  0  0  0  0  0  0  0  0  0  0
   29.3892  -24.8385    8.3549 C   0  0  0  0  0  0  0  0  0  0  0  0
   29.2329  -23.7911    7.4664 N   0  0  0  0  0  0  0  0  0  0  0  0
  1  2  1  0  0  0  0
  1  6  1  0  0  0  0
  2  3  2  0  0  0  0
  3  4  1  0  0  0  0
  4  5  2  0  0  0  0
  4 10  1  0  0  0  0
  5  6  1  0  0  0  0
  5  8  1  0  0  0  0
  6  7  2  0  0  0  0
  8  9  1  0  0  0  0
  9 10  2  0  0  0  0
M  END
>  <CHROM.1>
29.29612551,-22.54824298,9.25243169,1.60437728,-1.45251556,0.70582590

>  <Name>
ligand

>  <RI>
0

>  <Rbt.Current_Directory>
/home/itssahil/PROJECTS/Mol_Feturizer/New_Systems/rnas/2EEV

>  <Rbt.Executable>
rbdock ($Id: //depot/dev/client3/rdock/2013.1/src/exe/rbdock.cxx#4 $)

>  <Rbt.Library>
libRbt.so (2013.1, Build901 2013/11/27)

>  <Rbt.Parameter_File>
/export/apps/rDock/src/rDock_2013.1_src/data/scripts/dock_solv.prm

>  <Rbt.Receptor>
prm/blind_docking_40.prm

>  <SCORE>
-11.9677

>  <SCORE.INTER>
-12.1358

>  <SCORE.INTER.CONST>
1

>  <SCORE.INTER.POLAR>
0

>  <SCORE.INTER.ROT>
0

>  <SCORE.INTER.SOLV>
4.53021

>  <SCORE.INTER.VDW>
-13.2006

>  <SCORE.INTER.norm>
-1.21358

>  <SCORE.INTRA>
0

>  <SCORE.INTRA.DIHEDRAL>
0

>  <SCORE.INTRA.DIHEDRAL.0>
0

>  <SCORE.INTRA.POLAR>
0

>  <SCORE.INTRA.POLAR.0>
0

>  <SCORE.INTRA.REPUL>
0

>  <SCORE.INTRA.REPUL.0>
0

>  <SCORE.INTRA.SOLV>
0

>  <SCORE.INTRA.SOLV.lig_0>
-4.25352

>  <SCORE.INTRA.VDW>
0

>  <SCORE.INTRA.VDW.0>
0

>  <SCORE.INTRA.norm>
0

>  <SCORE.RESTR>
0.168116

>  <SCORE.RESTR.CAVITY>
0.168116

>  <SCORE.RESTR.norm>
0.0168116

>  <SCORE.SYSTEM>
0

>  <SCORE.SYSTEM.CONST>
0

>  <SCORE.SYSTEM.DIHEDRAL>
0

>  <SCORE.SYSTEM.SOLV>
0

>  <SCORE.SYSTEM.norm>
0

>  <SCORE.heavy>
10

>  <SCORE.norm>
-1.19677

>  <RMSD>
26.256

$$$$
ligand
 OpenBabel11021811423D
libRbt.so/2013.1/901 2013/11/27
 10 11  0  0  0  0  0  0  0  0999 V2000
   28.9327  -20.7952   10.4661 N   0  0  0  0  0  0  0  0  0  0  0  0
   28.9737  -21.7183   11.4717 C   0  0  0  0  0  0  0  0  0  0  0  0
   29.1336  -23.0441   11.2218 N   0  0  0  0  0  0  0  0  0  0  0  0
   29.2525  -23.3252    9.8921 C   0  0  0  0  0  0  0  0  0  0  0  0
   29.2206  -22.4357    8.8439 C   0  0  0  0  0  0  0  0  0  0  0  0
   29.0491  -21.0709    9.0924 C   0  0  0  0  0  0  0  0  0  0  0  0
   28.9919  -20.1457    8.3097 O   0  0  0  0  0  0  0  0  0  0  0  0
   29.3769  -23.1318    7.6758 N   0  0  0  0  0  0  0  0  0  0  0  0
   29.5006  -24.4133    8.0050 C   0  0  0  0  0  0  0  0  0  0  0  0
   29.4272  -24.5845    9.3747 N   0  0  0  0  0  0  0  0  0  0  0  0
  1  2  1  0  0  0  0
  1  6  1  0  0  0  0
  2  3  2  0  0  0  0
  3  4  1  0  0  0  0
  4  5  2  0  0  0  0
  4 10  1  0  0  0  0
  5  6  1  0  0  0  0
  5  8  1  0  0  0  0
  6  7  2  0  0  0  0
  8  9  1  0  0  0  0
  9 10  2  0  0  0  0
M  END
>  <CHROM.1>
29.18193456,-22.42192005,9.41639658,2.94090780,1.44124371,-1.05519783

>  <Name>
ligand

>  <RI>
0

>  <Rbt.Current_Directory>
/home/itssahil/PROJECTS/Mol_Feturizer/New_Systems/rnas/2EEV

>  <Rbt.Executable>
rbdock ($Id: //depot/dev/client3/rdock/2013.1/src/exe/rbdock.cxx#4 $)

>  <Rbt.Library>
libRbt.so (2013.1, Build901 2013/11/27)

>  <Rbt.Parameter_File>
/export/apps/rDock/src/rDock_2013.1_src/data/scripts/dock_solv.prm

>  <Rbt.Receptor>
prm/blind_docking_40.prm

>  <SCORE>
-11.9309

>  <SCORE.INTER>
-11.967

>  <SCORE.INTER.CONST>
1

>  <SCORE.INTER.POLAR>
0

>  <SCORE.INTER.ROT>
0

>  <SCORE.INTER.SOLV>
5.49995

>  <SCORE.INTER.VDW>
-13.4113

>  <SCORE.INTER.norm>
-1.1967

>  <SCORE.INTRA>
0

>  <SCORE.INTRA.DIHEDRAL>
0

>  <SCORE.INTRA.DIHEDRAL.0>
0

>  <SCORE.INTRA.POLAR>
0

>  <SCORE.INTRA.POLAR.0>
0

>  <SCORE.INTRA.REPUL>
0

>  <SCORE.INTRA.REPUL.0>
0

>  <SCORE.INTRA.SOLV>
0

>  <SCORE.INTRA.SOLV.lig_0>
-4.25352

>  <SCORE.INTRA.VDW>
0

>  <SCORE.INTRA.VDW.0>
0

>  <SCORE.INTRA.norm>
0

>  <SCORE.RESTR>
0.0360322

>  <SCORE.RESTR.CAVITY>
0.0360322

>  <SCORE.RESTR.norm>
0.00360322

>  <SCORE.SYSTEM>
0

>  <SCORE.SYSTEM.CONST>
0

>  <SCORE.SYSTEM.DIHEDRAL>
0

>  <SCORE.SYSTEM.SOLV>
0

>  <SCORE.SYSTEM.norm>
0

>  <SCORE.heavy>
10

>  <SCORE.norm>
-1.19309

>  <RMSD>
26.260

$$$$
ligand
 OpenBabel11021811423D
libRbt.so/2013.1/901 2013/11/27
 10 11  0  0  0  0  0  0  0  0999 V2000
   28.9311  -20.7977   10.4663 N   0  0  0  0  0  0  0  0  0  0  0  0
   28.9696  -21.7222   11.4708 C   0  0  0  0  0  0  0  0  0  0  0  0
   29.1290  -23.0478   11.2193 N   0  0  0  0  0  0  0  0  0  0  0  0
   29.2499  -23.3271    9.8893 C   0  0  0  0  0  0  0  0  0  0  0  0
   29.2206  -22.4361    8.8424 C   0  0  0  0  0  0  0  0  0  0  0  0
   29.0497  -21.0716    9.0925 C   0  0  0  0  0  0  0  0  0  0  0  0
   28.9946  -20.1452    8.3110 O   0  0  0  0  0  0  0  0  0  0  0  0
   29.3783  -23.1307    7.6735 N   0  0  0  0  0  0  0  0  0  0  0  0
   29.5005  -24.4128    8.0011 C   0  0  0  0  0  0  0  0  0  0  0  0
   29.4246  -24.5858    9.3705 N   0  0  0  0  0  0  0  0  0  0  0  0
  1  2  1  0  0  0  0
  1  6  1  0  0  0  0
  2  3  2  0  0  0  0
  3  4  1  0  0  0  0
  4  5  2  0  0  0  0
  4 10  1  0  0  0  0
  5  6  1  0  0  0  0
  5  8  1  0  0  0  0
  6  7  2  0  0  0  0
  8  9  1  0  0  0  0
  9 10  2  0  0  0  0
M  END
>  <CHROM.1>
29.18090775,-22.42309651,9.41480989,2.92609072,1.44104278,-1.03908465

>  <Name>
ligand

>  <RI>
0

>  <Rbt.Current_Directory>
/home/itssahil/PROJECTS/Mol_Feturizer/New_Systems/rnas/2EEV

>  <Rbt.Executable>
rbdock ($Id: //depot/dev/client3/rdock/2013.1/src/exe/rbdock.cxx#4 $)

>  <Rbt.Library>
libRbt.so (2013.1, Build901 2013/11/27)

>  <Rbt.Parameter_File>
/export/apps/rDock/src/rDock_2013.1_src/data/scripts/dock_solv.prm

>  <Rbt.Receptor>
prm/blind_docking_40.prm

>  <SCORE>
-11.931

>  <SCORE.INTER>
-11.9668

>  <SCORE.INTER.CONST>
1

>  <SCORE.INTER.POLAR>
0

>  <SCORE.INTER.ROT>
0

>  <SCORE.INTER.SOLV>
5.50122

>  <SCORE.INTER.VDW>
-13.4116

>  <SCORE.INTER.norm>
-1.19668

>  <SCORE.INTRA>
0

>  <SCORE.INTRA.DIHEDRAL>
0

>  <SCORE.INTRA.DIHEDRAL.0>
0

>  <SCORE.INTRA.POLAR>
0

>  <SCORE.INTRA.POLAR.0>
0

>  <SCORE.INTRA.REPUL>
0

>  <SCORE.INTRA.REPUL.0>
0

>  <SCORE.INTRA.SOLV>
0

>  <SCORE.INTRA.SOLV.lig_0>
-4.25352

>  <SCORE.INTRA.VDW>
0

>  <SCORE.INTRA.VDW.0>
0

>  <SCORE.INTRA.norm>
0

>  <SCORE.RESTR>
0.0358533

>  <SCORE.RESTR.CAVITY>
0.0358533

>  <SCORE.RESTR.norm>
0.00358533

>  <SCORE.SYSTEM>
0

>  <SCORE.SYSTEM.CONST>
0

>  <SCORE.SYSTEM.DIHEDRAL>
0

>  <SCORE.SYSTEM.SOLV>
0

>  <SCORE.SYSTEM.norm>
0

>  <SCORE.heavy>
10

>  <SCORE.norm>
-1.1931

>  <RMSD>
26.261

$$$$
ligand
 OpenBabel11021811423D
libRbt.so/2013.1/901 2013/11/27
 10 11  0  0  0  0  0  0  0  0999 V2000
   28.9302  -20.7942   10.4731 N   0  0  0  0  0  0  0  0  0  0  0  0
   28.9702  -21.7178   11.4784 C   0  0  0  0  0  0  0  0  0  0  0  0
   29.1304  -23.0435   11.2280 N   0  0  0  0  0  0  0  0  0  0  0  0
   29.2506  -23.3239    9.8983 C   0  0  0  0  0  0  0  0  0  0  0  0
   29.2198  -22.4340    8.8505 C   0  0  0  0  0  0  0  0  0  0  0  0
   29.0481  -21.0693    9.0995 C   0  0  0  0  0  0  0  0  0  0  0  0
   28.9918  -20.1438    8.3171 O   0  0  0  0  0  0  0  0  0  0  0  0
   29.3773  -23.1296    7.6822 N   0  0  0  0  0  0  0  0  0  0  0  0
   29.5007  -24.4112    8.0110 C   0  0  0  0  0  0  0  0  0  0  0  0
   29.4259  -24.5830    9.3805 N   0  0  0  0  0  0  0  0  0  0  0  0
  1  2  1  0  0  0  0
  1  6  1  0  0  0  0
  2  3  2  0  0  0  0
  3  4  1  0  0  0  0
  4  5  2  0  0  0  0
  4 10  1  0  0  0  0
  5  6  1  0  0  0  0
  5  8  1  0  0  0  0
  6  7  2  0  0  0  0
  8  9  1  0  0  0  0
  9 10  2  0  0  0  0
M  END
>  <CHROM.1>
29.18057021,-22.42047521,9.42295030,2.93373206,1.44072944,-1.04761365

>  <Name>
ligand

>  <RI>
0

>  <Rbt.Current_Directory>
/home/itssahil/PROJECTS/Mol_Feturizer/New_Systems/rnas/2EEV

>  <Rbt.Executable>
rbdock ($Id: //depot/dev/client3/rdock/2013.1/src/exe/rbdock.cxx#4 $)

>  <Rbt.Library>
libRbt.so (2013.1, Build901 2013/11/27)

>  <Rbt.Parameter_File>
/export/apps/rDock/src/rDock_2013.1_src/data/scripts/dock_solv.prm

>  <Rbt.Receptor>
prm/blind_docking_40.prm

>  <SCORE>
-11.9116

>  <SCORE.INTER>
-11.9427

>  <SCORE.INTER.CONST>
1

>  <SCORE.INTER.POLAR>
0

>  <SCORE.INTER.ROT>
0

>  <SCORE.INTER.SOLV>
5.49681

>  <SCORE.INTER.VDW>
-13.3941

>  <SCORE.INTER.norm>
-1.19427

>  <SCORE.INTRA>
0

>  <SCORE.INTRA.DIHEDRAL>
0

>  <SCORE.INTRA.DIHEDRAL.0>
0

>  <SCORE.INTRA.POLAR>
0

>  <SCORE.INTRA.POLAR.0>
0

>  <SCORE.INTRA.REPUL>
0

>  <SCORE.INTRA.REPUL.0>
0

>  <SCORE.INTRA.SOLV>
0

>  <SCORE.INTRA.SOLV.lig_0>
-4.25352

>  <SCORE.INTRA.VDW>
0

>  <SCORE.INTRA.VDW.0>
0

>  <SCORE.INTRA.norm>
0

>  <SCORE.RESTR>
0.031179

>  <SCORE.RESTR.CAVITY>
0.031179

>  <SCORE.RESTR.norm>
0.0031179

>  <SCORE.SYSTEM>
0

>  <SCORE.SYSTEM.CONST>
0

>  <SCORE.SYSTEM.DIHEDRAL>
0

>  <SCORE.SYSTEM.SOLV>
0

>  <SCORE.SYSTEM.norm>
0

>  <SCORE.heavy>
10

>  <SCORE.norm>
-1.19116

>  <RMSD>
26.261

$$$$
ligand
 OpenBabel11021811423D
libRbt.so/2013.1/901 2013/11/27
 10 11  0  0  0  0  0  0  0  0999 V2000
   28.9291  -20.7928   10.4717 N   0  0  0  0  0  0  0  0  0  0  0  0
   28.9714  -21.7160   11.4773 C   0  0  0  0  0  0  0  0  0  0  0  0
   29.1327  -23.0415   11.2272 N   0  0  0  0  0  0  0  0  0  0  0  0
   29.2514  -23.3224    9.8974 C   0  0  0  0  0  0  0  0  0  0  0  0
   29.2182  -22.4329    8.8493 C   0  0  0  0  0  0  0  0  0  0  0  0
   29.0454  -21.0684    9.0980 C   0  0  0  0  0  0  0  0  0  0  0  0
   28.9870  -20.1432    8.3153 O   0  0  0  0  0  0  0  0  0  0  0  0
   29.3749  -23.1288    7.6811 N   0  0  0  0  0  0  0  0  0  0  0  0
   29.5000  -24.4102    8.0102 C   0  0  0  0  0  0  0  0  0  0  0  0
   29.4273  -24.5815    9.3800 N   0  0  0  0  0  0  0  0  0  0  0  0
  1  2  1  0  0  0  0
  1  6  1  0  0  0  0
  2  3  2  0  0  0  0
  3  4  1  0  0  0  0
  4  5  2  0  0  0  0
  4 10  1  0  0  0  0
  5  6  1  0  0  0  0
  5  8  1  0  0  0  0
  6  7  2  0  0  0  0
  8  9  1  0  0  0  0
  9 10  2  0  0  0  0
M  END
>  <CHROM.1>
29.17976487,-22.41922157,9.42183589,2.94696985,1.44048738,-1.06114215

>  <Name>
ligand

>  <RI>
0

>  <Rbt.Current_Directory>
/home/itssahil/PROJECTS/Mol_Feturizer/New_Systems/rnas/2EEV

>  <Rbt.Executable>
rbdock ($Id: //depot/dev/client3/rdock/2013.1/src/exe/rbdock.cxx#4 $)

>  <Rbt.Library>
libRbt.so (2013.1, Build901 2013/11/27)

>  <Rbt.Parameter_File>
/export/apps/rDock/src/rDock_2013.1_src/data/scripts/dock_solv.prm

>  <Rbt.Receptor>
prm/blind_docking_40.prm

>  <SCORE>
-11.9142

>  <SCORE.INTER>
-11.9474

>  <SCORE.INTER.CONST>
1

>  <SCORE.INTER.POLAR>
0

>  <SCORE.INTER.ROT>
0

>  <SCORE.INTER.SOLV>
5.50083

>  <SCORE.INTER.VDW>
-13.3985

>  <SCORE.INTER.norm>
-1.19474

>  <SCORE.INTRA>
0

>  <SCORE.INTRA.DIHEDRAL>
0

>  <SCORE.INTRA.DIHEDRAL.0>
0

>  <SCORE.INTRA.POLAR>
0

>  <SCORE.INTRA.POLAR.0>
0

>  <SCORE.INTRA.REPUL>
0

>  <SCORE.INTRA.REPUL.0>
0

>  <SCORE.INTRA.SOLV>
0

>  <SCORE.INTRA.SOLV.lig_0>
-4.25352

>  <SCORE.INTRA.VDW>
0

>  <SCORE.INTRA.VDW.0>
0

>  <SCORE.INTRA.norm>
0

>  <SCORE.RESTR>
0.0331688

>  <SCORE.RESTR.CAVITY>
0.0331688

>  <SCORE.RESTR.norm>
0.00331688

>  <SCORE.SYSTEM>
0

>  <SCORE.SYSTEM.CONST>
0

>  <SCORE.SYSTEM.DIHEDRAL>
0

>  <SCORE.SYSTEM.SOLV>
0

>  <SCORE.SYSTEM.norm>
0

>  <SCORE.heavy>
10

>  <SCORE.norm>
-1.19142

>  <RMSD>
26.261

$$$$
ligand
 OpenBabel11021811423D
libRbt.so/2013.1/901 2013/11/27
 10 11  0  0  0  0  0  0  0  0999 V2000
   28.9266  -20.7955   10.4714 N   0  0  0  0  0  0  0  0  0  0  0  0
   28.9669  -21.7197   11.4761 C   0  0  0  0  0  0  0  0  0  0  0  0
   29.1289  -23.0450   11.2250 N   0  0  0  0  0  0  0  0  0  0  0  0
   29.2504  -23.3245    9.8952 C   0  0  0  0  0  0  0  0  0  0  0  0
   29.2194  -22.4340    8.8479 C   0  0  0  0  0  0  0  0  0  0  0  0
   29.0458  -21.0697    9.0977 C   0  0  0  0  0  0  0  0  0  0  0  0
   28.9890  -20.1437    8.3158 O   0  0  0  0  0  0  0  0  0  0  0  0
   29.3786  -23.1286    7.6793 N   0  0  0  0  0  0  0  0  0  0  0  0
   29.5032  -24.4103    8.0074 C   0  0  0  0  0  0  0  0  0  0  0  0
   29.4276  -24.5831    9.3768 N   0  0  0  0  0  0  0  0  0  0  0  0
  1  2  1  0  0  0  0
  1  6  1  0  0  0  0
  2  3  2  0  0  0  0
  3  4  1  0  0  0  0
  4  5  2  0  0  0  0
  4 10  1  0  0  0  0
  5  6  1  0  0  0  0
  5  8  1  0  0  0  0
  6  7  2  0  0  0  0
  8  9  1  0  0  0  0
  9 10  2  0  0  0  0
M  END
>  <CHROM.1>
29.17969708,-22.42083106,9.42037036,2.93336170,1.43931460,-1.04661790

>  <Name>
ligand

>  <RI>
0

>  <Rbt.Current_Directory>
/home/itssahil/PROJECTS/Mol_Feturizer/New_Systems/rnas/2EEV

>  <Rbt.Executable>
rbdock ($Id: //depot/dev/client3/rdock/2013.1/src/exe/rbdock.cxx#4 $)

>  <Rbt.Library>
libRbt.so (2013.1, Build901 2013/11/27)

>  <Rbt.Parameter_File>
/export/apps/rDock/src/rDock_2013.1_src/data/scripts/dock_solv.prm

>  <Rbt.Receptor>
prm/blind_docking_40.prm

>  <SCORE>
-11.9191

>  <SCORE.INTER>
-11.9515

>  <SCORE.INTER.CONST>
1

>  <SCORE.INTER.POLAR>
0

>  <SCORE.INTER.ROT>
0

>  <SCORE.INTER.SOLV>
5.50282

>  <SCORE.INTER.VDW>
-13.402

>  <SCORE.INTER.norm>
-1.19515

>  <SCORE.INTRA>
0

>  <SCORE.INTRA.DIHEDRAL>
0

>  <SCORE.INTRA.DIHEDRAL.0>
0

>  <SCORE.INTRA.POLAR>
0

>  <SCORE.INTRA.POLAR.0>
0

>  <SCORE.INTRA.REPUL>
0

>  <SCORE.INTRA.REPUL.0>
0

>  <SCORE.INTRA.SOLV>
0

>  <SCORE.INTRA.SOLV.lig_0>
-4.25352

>  <SCORE.INTRA.VDW>
0

>  <SCORE.INTRA.VDW.0>
0

>  <SCORE.INTRA.norm>
0

>  <SCORE.RESTR>
0.0324393

>  <SCORE.RESTR.CAVITY>
0.0324393

>  <SCORE.RESTR.norm>
0.00324393

>  <SCORE.SYSTEM>
0

>  <SCORE.SYSTEM.CONST>
0

>  <SCORE.SYSTEM.DIHEDRAL>
0

>  <SCORE.SYSTEM.SOLV>
0

>  <SCORE.SYSTEM.norm>
0

>  <SCORE.heavy>
10

>  <SCORE.norm>
-1.19191

>  <RMSD>
26.262

$$$$
ligand
 OpenBabel11021811423D
libRbt.so/2013.1/901 2013/11/27
 10 11  0  0  0  0  0  0  0  0999 V2000
   28.9316  -20.7971   10.4709 N   0  0  0  0  0  0  0  0  0  0  0  0
   28.9679  -21.7206   11.4764 C   0  0  0  0  0  0  0  0  0  0  0  0
   29.1261  -23.0466   11.2265 N   0  0  0  0  0  0  0  0  0  0  0  0
   29.2484  -23.3275    9.8971 C   0  0  0  0  0  0  0  0  0  0  0  0
   29.2214  -22.4376    8.8491 C   0  0  0  0  0  0  0  0  0  0  0  0
   29.0517  -21.0726    9.0976 C   0  0  0  0  0  0  0  0  0  0  0  0
   28.9987  -20.1470    8.3150 O   0  0  0  0  0  0  0  0  0  0  0  0
   29.3800  -23.1336    7.6812 N   0  0  0  0  0  0  0  0  0  0  0  0
   29.5003  -24.4155    8.0104 C   0  0  0  0  0  0  0  0  0  0  0  0
   29.4225  -24.5870    9.3798 N   0  0  0  0  0  0  0  0  0  0  0  0
  1  2  1  0  0  0  0
  1  6  1  0  0  0  0
  2  3  2  0  0  0  0
  3  4  1  0  0  0  0
  4  5  2  0  0  0  0
  4 10  1  0  0  0  0
  5  6  1  0  0  0  0
  5  8  1  0  0  0  0
  6  7  2  0  0  0  0
  8  9  1  0  0  0  0
  9 10  2  0  0  0  0
M  END
>  <CHROM.1>
29.18104328,-22.42394496,9.42147440,2.91322748,1.44130862,-1.02740453

>  <Name>
ligand

>  <RI>
0

>  <Rbt.Current_Directory>
/home/itssahil/PROJECTS/Mol_Feturizer/New_Systems/rnas/2EEV

>  <Rbt.Executable>
rbdock ($Id: //depot/dev/client3/rdock/2013.1/src/exe/rbdock.cxx#4 $)

>  <Rbt.Library>
libRbt.so (2013.1, Build901 2013/11/27)

>  <Rbt.Parameter_File>
/export/apps/rDock/src/rDock_2013.1_src/data/scripts/dock_solv.prm

>  <Rbt.Receptor>
prm/blind_docking_40.prm

>  <SCORE>
-11.9154

>  <SCORE.INTER>
-11.9468

>  <SCORE.INTER.CONST>
1

>  <SCORE.INTER.POLAR>
0

>  <SCORE.INTER.ROT>
0

>  <SCORE.INTER.SOLV>
5.49392

>  <SCORE.INTER.VDW>
-13.3958

>  <SCORE.INTER.norm>
-1.19468

>  <SCORE.INTRA>
0

>  <SCORE.INTRA.DIHEDRAL>
0

>  <SCORE.INTRA.DIHEDRAL.0>
0

>  <SCORE.INTRA.POLAR>
0

>  <SCORE.INTRA.POLAR.0>
0

>  <SCORE.INTRA.REPUL>
0

>  <SCORE.INTRA.REPUL.0>
0

>  <SCORE.INTRA.SOLV>
0

>  <SCORE.INTRA.SOLV.lig_0>
-4.25352

>  <SCORE.INTRA.VDW>
0

>  <SCORE.INTRA.VDW.0>
0

>  <SCORE.INTRA.norm>
0

>  <SCORE.RESTR>
0.0313768

>  <SCORE.RESTR.CAVITY>
0.0313768

>  <SCORE.RESTR.norm>
0.00313768

>  <SCORE.SYSTEM>
0

>  <SCORE.SYSTEM.CONST>
0

>  <SCORE.SYSTEM.DIHEDRAL>
0

>  <SCORE.SYSTEM.SOLV>
0

>  <SCORE.SYSTEM.norm>
0

>  <SCORE.heavy>
10

>  <SCORE.norm>
-1.19154

>  <RMSD>
26.262

$$$$
ligand
 OpenBabel11021811423D
libRbt.so/2013.1/901 2013/11/27
 10 11  0  0  0  0  0  0  0  0999 V2000
   29.2183  -20.7729   10.0239 N   0  0  0  0  0  0  0  0  0  0  0  0
   29.0840  -20.4515    8.7034 C   0  0  0  0  0  0  0  0  0  0  0  0
   29.0824  -21.4004    7.7312 N   0  0  0  0  0  0  0  0  0  0  0  0
   29.2176  -22.6662    8.2217 C   0  0  0  0  0  0  0  0  0  0  0  0
   29.3530  -23.0425    9.5373 C   0  0  0  0  0  0  0  0  0  0  0  0
   29.3629  -22.0715   10.5428 C   0  0  0  0  0  0  0  0  0  0  0  0
   29.4746  -22.2058   11.7434 O   0  0  0  0  0  0  0  0  0  0  0  0
   29.4590  -24.4060    9.5928 N   0  0  0  0  0  0  0  0  0  0  0  0
   29.3900  -24.8486    8.3416 C   0  0  0  0  0  0  0  0  0  0  0  0
   29.2417  -23.8018    7.4510 N   0  0  0  0  0  0  0  0  0  0  0  0
  1  2  1  0  0  0  0
  1  6  1  0  0  0  0
  2  3  2  0  0  0  0
  3  4  1  0  0  0  0
  4  5  2  0  0  0  0
  4 10  1  0  0  0  0
  5  6  1  0  0  0  0
  5  8  1  0  0  0  0
  6  7  2  0  0  0  0
  8  9  1  0  0  0  0
  9 10  2  0  0  0  0
M  END
>  <CHROM.1>
29.29167827,-22.55753674,9.23650329,1.64507545,-1.45912756,0.74542289

>  <Name>
ligand

>  <RI>
0

>  <Rbt.Current_Directory>
/home/itssahil/PROJECTS/Mol_Feturizer/New_Systems/rnas/2EEV

>  <Rbt.Executable>
rbdock ($Id: //depot/dev/client3/rdock/2013.1/src/exe/rbdock.cxx#4 $)

>  <Rbt.Library>
libRbt.so (2013.1, Build901 2013/11/27)

>  <Rbt.Parameter_File>
/export/apps/rDock/src/rDock_2013.1_src/data/scripts/dock_solv.prm

>  <Rbt.Receptor>
prm/blind_docking_40.prm

>  <SCORE>
-11.8408

>  <SCORE.INTER>
-11.9842

>  <SCORE.INTER.CONST>
1

>  <SCORE.INTER.POLAR>
0

>  <SCORE.INTER.ROT>
0

>  <SCORE.INTER.SOLV>
4.54254

>  <SCORE.INTER.VDW>
-13.1036

>  <SCORE.INTER.norm>
-1.19842

>  <SCORE.INTRA>
0

>  <SCORE.INTRA.DIHEDRAL>
0

>  <SCORE.INTRA.DIHEDRAL.0>
0

>  <SCORE.INTRA.POLAR>
0

>  <SCORE.INTRA.POLAR.0>
0

>  <SCORE.INTRA.REPUL>
0

>  <SCORE.INTRA.REPUL.0>
0

>  <SCORE.INTRA.SOLV>
0

>  <SCORE.INTRA.SOLV.lig_0>
-4.25352

>  <SCORE.INTRA.VDW>
0

>  <SCORE.INTRA.VDW.0>
0

>  <SCORE.INTRA.norm>
0

>  <SCORE.RESTR>
0.143446

>  <SCORE.RESTR.CAVITY>
0.143446

>  <SCORE.RESTR.norm>
0.0143446

>  <SCORE.SYSTEM>
0

>  <SCORE.SYSTEM.CONST>
0

>  <SCORE.SYSTEM.DIHEDRAL>
0

>  <SCORE.SYSTEM.SOLV>
0

>  <SCORE.SYSTEM.norm>
0

>  <SCORE.heavy>
10

>  <SCORE.norm>
-1.18408

>  <RMSD>
26.262

$$$$
ligand
 OpenBabel11021811423D
libRbt.so/2013.1/901 2013/11/27
 10 11  0  0  0  0  0  0  0  0999 V2000
   28.9342  -20.7970   10.4628 N   0  0  0  0  0  0  0  0  0  0  0  0
   28.9715  -21.7214   11.4675 C   0  0  0  0  0  0  0  0  0  0  0  0
   29.1274  -23.0473   11.2161 N   0  0  0  0  0  0  0  0  0  0  0  0
   29.2463  -23.3273    9.8861 C   0  0  0  0  0  0  0  0  0  0  0  0
   29.2180  -22.4365    8.8390 C   0  0  0  0  0  0  0  0  0  0  0  0
   29.0507  -21.0715    9.0890 C   0  0  0  0  0  0  0  0  0  0  0  0
   28.9970  -20.1452    8.3073 O   0  0  0  0  0  0  0  0  0  0  0  0
   29.3729  -23.1317    7.6701 N   0  0  0  0  0  0  0  0  0  0  0  0
   29.4923  -24.4140    7.9979 C   0  0  0  0  0  0  0  0  0  0  0  0
   29.4174  -24.5866    9.3674 N   0  0  0  0  0  0  0  0  0  0  0  0
  1  2  1  0  0  0  0
  1  6  1  0  0  0  0
  2  3  2  0  0  0  0
  3  4  1  0  0  0  0
  4  5  2  0  0  0  0
  4 10  1  0  0  0  0
  5  6  1  0  0  0  0
  5  8  1  0  0  0  0
  6  7  2  0  0  0  0
  8  9  1  0  0  0  0
  9 10  2  0  0  0  0
M  END
>  <CHROM.1>
29.17898046,-22.42325764,9.41144822,2.92369249,1.44364711,-1.03695448

>  <Name>
ligand

>  <RI>
0

>  <Rbt.Current_Directory>
/home/itssahil/PROJECTS/Mol_Feturizer/New_Systems/rnas/2EEV

>  <Rbt.Executable>
rbdock ($Id: //depot/dev/client3/rdock/2013.1/src/exe/rbdock.cxx#4 $)

>  <Rbt.Library>
libRbt.so (2013.1, Build901 2013/11/27)

>  <Rbt.Parameter_File>
/export/apps/rDock/src/rDock_2013.1_src/data/scripts/dock_solv.prm

>  <Rbt.Receptor>
prm/blind_docking_40.prm

>  <SCORE>
-11.9353

>  <SCORE.INTER>
-11.9725

>  <SCORE.INTER.CONST>
1

>  <SCORE.INTER.POLAR>
0

>  <SCORE.INTER.ROT>
0

>  <SCORE.INTER.SOLV>
5.50152

>  <SCORE.INTER.VDW>
-13.4155

>  <SCORE.INTER.norm>
-1.19725

>  <SCORE.INTRA>
0

>  <SCORE.INTRA.DIHEDRAL>
0

>  <SCORE.INTRA.DIHEDRAL.0>
0

>  <SCORE.INTRA.POLAR>
0

>  <SCORE.INTRA.POLAR.0>
0

>  <SCORE.INTRA.REPUL>
0

>  <SCORE.INTRA.REPUL.0>
0

>  <SCORE.INTRA.SOLV>
0

>  <SCORE.INTRA.SOLV.lig_0>
-4.25352

>  <SCORE.INTRA.VDW>
0

>  <SCORE.INTRA.VDW.0>
0

>  <SCORE.INTRA.norm>
0

>  <SCORE.RESTR>
0.0371099

>  <SCORE.RESTR.CAVITY>
0.0371099

>  <SCORE.RESTR.norm>
0.00371099

>  <SCORE.SYSTEM>
0

>  <SCORE.SYSTEM.CONST>
0

>  <SCORE.SYSTEM.DIHEDRAL>
0

>  <SCORE.SYSTEM.SOLV>
0

>  <SCORE.SYSTEM.norm>
0

>  <SCORE.heavy>
10

>  <SCORE.norm>
-1.19353

>  <RMSD>
26.263

$$$$
ligand
 OpenBabel11021811423D
libRbt.so/2013.1/901 2013/11/27
 10 11  0  0  0  0  0  0  0  0999 V2000
   28.9267  -20.7948   10.4667 N   0  0  0  0  0  0  0  0  0  0  0  0
   28.9744  -21.7161   11.4737 C   0  0  0  0  0  0  0  0  0  0  0  0
   29.1382  -23.0417   11.2255 N   0  0  0  0  0  0  0  0  0  0  0  0
   29.2537  -23.3245    9.8958 C   0  0  0  0  0  0  0  0  0  0  0  0
   29.2152  -22.4370    8.8463 C   0  0  0  0  0  0  0  0  0  0  0  0
   29.0396  -21.0724    9.0931 C   0  0  0  0  0  0  0  0  0  0  0  0
   28.9766  -20.1487    8.3091 O   0  0  0  0  0  0  0  0  0  0  0  0
   29.3702  -23.1344    7.6788 N   0  0  0  0  0  0  0  0  0  0  0  0
   29.4995  -24.4150    8.0097 C   0  0  0  0  0  0  0  0  0  0  0  0
   29.4313  -24.5841    9.3800 N   0  0  0  0  0  0  0  0  0  0  0  0
  1  2  1  0  0  0  0
  1  6  1  0  0  0  0
  2  3  2  0  0  0  0
  3  4  1  0  0  0  0
  4  5  2  0  0  0  0
  4 10  1  0  0  0  0
  5  6  1  0  0  0  0
  5  8  1  0  0  0  0
  6  7  2  0  0  0  0
  8  9  1  0  0  0  0
  9 10  2  0  0  0  0
M  END
>  <CHROM.1>
29.17838161,-22.42234425,9.41888187,2.97616795,1.43965697,-1.09180707

>  <Name>
ligand

>  <RI>
0

>  <Rbt.Current_Directory>
/home/itssahil/PROJECTS/Mol_Feturizer/New_Systems/rnas/2EEV

>  <Rbt.Executable>
rbdock ($Id: //depot/dev/client3/rdock/2013.1/src/exe/rbdock.cxx#4 $)

>  <Rbt.Library>
libRbt.so (2013.1, Build901 2013/11/27)

>  <Rbt.Parameter_File>
/export/apps/rDock/src/rDock_2013.1_src/data/scripts/dock_solv.prm

>  <Rbt.Receptor>
prm/blind_docking_40.prm

>  <SCORE>
-11.9281

>  <SCORE.INTER>
-11.9659

>  <SCORE.INTER.CONST>
1

>  <SCORE.INTER.POLAR>
0

>  <SCORE.INTER.ROT>
0

>  <SCORE.INTER.SOLV>
5.50841

>  <SCORE.INTER.VDW>
-13.4134

>  <SCORE.INTER.norm>
-1.19659

>  <SCORE.INTRA>
0

>  <SCORE.INTRA.DIHEDRAL>
0

>  <SCORE.INTRA.DIHEDRAL.0>
0

>  <SCORE.INTRA.POLAR>
0

>  <SCORE.INTRA.POLAR.0>
0

>  <SCORE.INTRA.REPUL>
0

>  <SCORE.INTRA.REPUL.0>
0

>  <SCORE.INTRA.SOLV>
0

>  <SCORE.INTRA.SOLV.lig_0>
-4.25352

>  <SCORE.INTRA.VDW>
0

>  <SCORE.INTRA.VDW.0>
0

>  <SCORE.INTRA.norm>
0

>  <SCORE.RESTR>
0.0377719

>  <SCORE.RESTR.CAVITY>
0.0377719

>  <SCORE.RESTR.norm>
0.00377719

>  <SCORE.SYSTEM>
0

>  <SCORE.SYSTEM.CONST>
0

>  <SCORE.SYSTEM.DIHEDRAL>
0

>  <SCORE.SYSTEM.SOLV>
0

>  <SCORE.SYSTEM.norm>
0

>  <SCORE.heavy>
10

>  <SCORE.norm>
-1.19281

>  <RMSD>
26.263

$$$$
ligand
 OpenBabel11021811423D
libRbt.so/2013.1/901 2013/11/27
 10 11  0  0  0  0  0  0  0  0999 V2000
   28.9294  -20.7993   10.4582 N   0  0  0  0  0  0  0  0  0  0  0  0
   28.9684  -21.7234   11.4631 C   0  0  0  0  0  0  0  0  0  0  0  0
   29.1276  -23.0490   11.2121 N   0  0  0  0  0  0  0  0  0  0  0  0
   29.2480  -23.3289    9.8823 C   0  0  0  0  0  0  0  0  0  0  0  0
   29.2183  -22.4385    8.8349 C   0  0  0  0  0  0  0  0  0  0  0  0
   29.0475  -21.0738    9.0845 C   0  0  0  0  0  0  0  0  0  0  0  0
   28.9921  -20.1478    8.3026 O   0  0  0  0  0  0  0  0  0  0  0  0
   29.3756  -23.1336    7.6663 N   0  0  0  0  0  0  0  0  0  0  0  0
   29.4978  -24.4155    7.9945 C   0  0  0  0  0  0  0  0  0  0  0  0
   29.4225  -24.5879    9.3640 N   0  0  0  0  0  0  0  0  0  0  0  0
  1  2  1  0  0  0  0
  1  6  1  0  0  0  0
  2  3  2  0  0  0  0
  3  4  1  0  0  0  0
  4  5  2  0  0  0  0
  4 10  1  0  0  0  0
  5  6  1  0  0  0  0
  5  8  1  0  0  0  0
  6  7  2  0  0  0  0
  8  9  1  0  0  0  0
  9 10  2  0  0  0  0
M  END
>  <CHROM.1>
29.17886166,-22.42520397,9.40736782,2.92875056,1.44124635,-1.04219216

>  <Name>
ligand

>  <RI>
0

>  <Rbt.Current_Directory>
/home/itssahil/PROJECTS/Mol_Feturizer/New_Systems/rnas/2EEV

>  <Rbt.Executable>
rbdock ($Id: //depot/dev/client3/rdock/2013.1/src/exe/rbdock.cxx#4 $)

>  <Rbt.Library>
libRbt.so (2013.1, Build901 2013/11/27)

>  <Rbt.Parameter_File>
/export/apps/rDock/src/rDock_2013.1_src/data/scripts/dock_solv.prm

>  <Rbt.Receptor>
prm/blind_docking_40.prm

>  <SCORE>
-11.9487

>  <SCORE.INTER>
-11.9888

>  <SCORE.INTER.CONST>
1

>  <SCORE.INTER.POLAR>
0

>  <SCORE.INTER.ROT>
0

>  <SCORE.INTER.SOLV>
5.5102

>  <SCORE.INTER.VDW>
-13.4293

>  <SCORE.INTER.norm>
-1.19888

>  <SCORE.INTRA>
0

>  <SCORE.INTRA.DIHEDRAL>
0

>  <SCORE.INTRA.DIHEDRAL.0>
0

>  <SCORE.INTRA.POLAR>
0

>  <SCORE.INTRA.POLAR.0>
0

>  <SCORE.INTRA.REPUL>
0

>  <SCORE.INTRA.REPUL.0>
0

>  <SCORE.INTRA.SOLV>
0

>  <SCORE.INTRA.SOLV.lig_0>
-4.25352

>  <SCORE.INTRA.VDW>
0

>  <SCORE.INTRA.VDW.0>
0

>  <SCORE.INTRA.norm>
0

>  <SCORE.RESTR>
0.040044

>  <SCORE.RESTR.CAVITY>
0.040044

>  <SCORE.RESTR.norm>
0.0040044

>  <SCORE.SYSTEM>
0

>  <SCORE.SYSTEM.CONST>
0

>  <SCORE.SYSTEM.DIHEDRAL>
0

>  <SCORE.SYSTEM.SOLV>
0

>  <SCORE.SYSTEM.norm>
0

>  <SCORE.heavy>
10

>  <SCORE.norm>
-1.19487

>  <RMSD>
26.263

$$$$
ligand
 OpenBabel11021811423D
libRbt.so/2013.1/901 2013/11/27
 10 11  0  0  0  0  0  0  0  0999 V2000
   28.9292  -20.7986   10.4677 N   0  0  0  0  0  0  0  0  0  0  0  0
   28.9662  -21.7230   11.4724 C   0  0  0  0  0  0  0  0  0  0  0  0
   29.1248  -23.0487   11.2213 N   0  0  0  0  0  0  0  0  0  0  0  0
   29.2466  -23.3284    9.8916 C   0  0  0  0  0  0  0  0  0  0  0  0
   29.2189  -22.4376    8.8444 C   0  0  0  0  0  0  0  0  0  0  0  0
   29.0488  -21.0729    9.0941 C   0  0  0  0  0  0  0  0  0  0  0  0
   28.9951  -20.1466    8.3123 O   0  0  0  0  0  0  0  0  0  0  0  0
   29.3772  -23.1325    7.6758 N   0  0  0  0  0  0  0  0  0  0  0  0
   29.4981  -24.4147    8.0038 C   0  0  0  0  0  0  0  0  0  0  0  0
   29.4209  -24.5873    9.3732 N   0  0  0  0  0  0  0  0  0  0  0  0
  1  2  1  0  0  0  0
  1  6  1  0  0  0  0
  2  3  2  0  0  0  0
  3  4  1  0  0  0  0
  4  5  2  0  0  0  0
  4 10  1  0  0  0  0
  5  6  1  0  0  0  0
  5  8  1  0  0  0  0
  6  7  2  0  0  0  0
  8  9  1  0  0  0  0
  9 10  2  0  0  0  0
M  END
>  <CHROM.1>
29.17874906,-22.42444763,9.41678281,2.91734769,1.44122964,-1.03063009

>  <Name>
ligand

>  <RI>
0

>  <Rbt.Current_Directory>
/home/itssahil/PROJECTS/Mol_Feturizer/New_Systems/rnas/2EEV

>  <Rbt.Executable>
rbdock ($Id: //depot/dev/client3/rdock/2013.1/src/exe/rbdock.cxx#4 $)

>  <Rbt.Library>
libRbt.so (2013.1, Build901 2013/11/27)

>  <Rbt.Parameter_File>
/export/apps/rDock/src/rDock_2013.1_src/data/scripts/dock_solv.prm

>  <Rbt.Receptor>
prm/blind_docking_40.prm

>  <SCORE>
-11.9257

>  <SCORE.INTER>
-11.9597

>  <SCORE.INTER.CONST>
1

>  <SCORE.INTER.POLAR>
0

>  <SCORE.INTER.ROT>
0

>  <SCORE.INTER.SOLV>
5.50122

>  <SCORE.INTER.VDW>
-13.4069

>  <SCORE.INTER.norm>
-1.19597

>  <SCORE.INTRA>
0

>  <SCORE.INTRA.DIHEDRAL>
0

>  <SCORE.INTRA.DIHEDRAL.0>
0

>  <SCORE.INTRA.POLAR>
0

>  <SCORE.INTRA.POLAR.0>
0

>  <SCORE.INTRA.REPUL>
0

>  <SCORE.INTRA.REPUL.0>
0

>  <SCORE.INTRA.SOLV>
0

>  <SCORE.INTRA.SOLV.lig_0>
-4.25352

>  <SCORE.INTRA.VDW>
0

>  <SCORE.INTRA.VDW.0>
0

>  <SCORE.INTRA.norm>
0

>  <SCORE.RESTR>
0.033929

>  <SCORE.RESTR.CAVITY>
0.033929

>  <SCORE.RESTR.norm>
0.0033929

>  <SCORE.SYSTEM>
0

>  <SCORE.SYSTEM.CONST>
0

>  <SCORE.SYSTEM.DIHEDRAL>
0

>  <SCORE.SYSTEM.SOLV>
0

>  <SCORE.SYSTEM.norm>
0

>  <SCORE.heavy>
10

>  <SCORE.norm>
-1.19257

>  <RMSD>
26.264

$$$$
ligand
 OpenBabel11021811423D
libRbt.so/2013.1/901 2013/11/27
 10 11  0  0  0  0  0  0  0  0999 V2000
   28.9293  -20.7986   10.4628 N   0  0  0  0  0  0  0  0  0  0  0  0
   28.9664  -21.7231   11.4673 C   0  0  0  0  0  0  0  0  0  0  0  0
   29.1247  -23.0488   11.2159 N   0  0  0  0  0  0  0  0  0  0  0  0
   29.2462  -23.3283    9.8861 C   0  0  0  0  0  0  0  0  0  0  0  0
   29.2183  -22.4374    8.8391 C   0  0  0  0  0  0  0  0  0  0  0  0
   29.0485  -21.0726    9.0891 C   0  0  0  0  0  0  0  0  0  0  0  0
   28.9948  -20.1463    8.3075 O   0  0  0  0  0  0  0  0  0  0  0  0
   29.3762  -23.1321    7.6703 N   0  0  0  0  0  0  0  0  0  0  0  0
   29.4970  -24.4143    7.9981 C   0  0  0  0  0  0  0  0  0  0  0  0
   29.4201  -24.5872    9.3674 N   0  0  0  0  0  0  0  0  0  0  0  0
  1  2  1  0  0  0  0
  1  6  1  0  0  0  0
  2  3  2  0  0  0  0
  3  4  1  0  0  0  0
  4  5  2  0  0  0  0
  4 10  1  0  0  0  0
  5  6  1  0  0  0  0
  5  8  1  0  0  0  0
  6  7  2  0  0  0  0
  8  9  1  0  0  0  0
  9 10  2  0  0  0  0
M  END
>  <CHROM.1>
29.17834049,-22.42428492,9.41149071,2.91830761,1.44150873,-1.03140509

>  <Name>
ligand

>  <RI>
0

>  <Rbt.Current_Directory>
/home/itssahil/PROJECTS/Mol_Feturizer/New_Systems/rnas/2EEV

>  <Rbt.Executable>
rbdock ($Id: //depot/dev/client3/rdock/2013.1/src/exe/rbdock.cxx#4 $)

>  <Rbt.Library>
libRbt.so (2013.1, Build901 2013/11/27)

>  <Rbt.Parameter_File>
/export/apps/rDock/src/rDock_2013.1_src/data/scripts/dock_solv.prm

>  <Rbt.Receptor>
prm/blind_docking_40.prm

>  <SCORE>
-11.9368

>  <SCORE.INTER>
-11.9736

>  <SCORE.INTER.CONST>
1

>  <SCORE.INTER.POLAR>
0

>  <SCORE.INTER.ROT>
0

>  <SCORE.INTER.SOLV>
5.50613

>  <SCORE.INTER.VDW>
-13.4178

>  <SCORE.INTER.norm>
-1.19736

>  <SCORE.INTRA>
0

>  <SCORE.INTRA.DIHEDRAL>
0

>  <SCORE.INTRA.DIHEDRAL.0>
0

>  <SCORE.INTRA.POLAR>
0

>  <SCORE.INTRA.POLAR.0>
0

>  <SCORE.INTRA.REPUL>
0

>  <SCORE.INTRA.REPUL.0>
0

>  <SCORE.INTRA.SOLV>
0

>  <SCORE.INTRA.SOLV.lig_0>
-4.25352

>  <SCORE.INTRA.VDW>
0

>  <SCORE.INTRA.VDW.0>
0

>  <SCORE.INTRA.norm>
0

>  <SCORE.RESTR>
0.0367953

>  <SCORE.RESTR.CAVITY>
0.0367953

>  <SCORE.RESTR.norm>
0.00367953

>  <SCORE.SYSTEM>
0

>  <SCORE.SYSTEM.CONST>
0

>  <SCORE.SYSTEM.DIHEDRAL>
0

>  <SCORE.SYSTEM.SOLV>
0

>  <SCORE.SYSTEM.norm>
0

>  <SCORE.heavy>
10

>  <SCORE.norm>
-1.19368

>  <RMSD>
26.264

$$$$
ligand
 OpenBabel11021811423D
libRbt.so/2013.1/901 2013/11/27
 10 11  0  0  0  0  0  0  0  0999 V2000
   28.9363  -20.7983   10.4613 N   0  0  0  0  0  0  0  0  0  0  0  0
   28.9726  -21.7207   11.4678 C   0  0  0  0  0  0  0  0  0  0  0  0
   29.1270  -23.0474   11.2191 N   0  0  0  0  0  0  0  0  0  0  0  0
   29.2455  -23.3301    9.8896 C   0  0  0  0  0  0  0  0  0  0  0  0
   29.2183  -22.4414    8.8407 C   0  0  0  0  0  0  0  0  0  0  0  0
   29.0525  -21.0757    9.0880 C   0  0  0  0  0  0  0  0  0  0  0  0
   28.9999  -20.1509    8.3044 O   0  0  0  0  0  0  0  0  0  0  0  0
   29.3723  -23.1391    7.6732 N   0  0  0  0  0  0  0  0  0  0  0  0
   29.4903  -24.4209    8.0036 C   0  0  0  0  0  0  0  0  0  0  0  0
   29.4152  -24.5906    9.3735 N   0  0  0  0  0  0  0  0  0  0  0  0
  1  2  1  0  0  0  0
  1  6  1  0  0  0  0
  2  3  2  0  0  0  0
  3  4  1  0  0  0  0
  4  5  2  0  0  0  0
  4 10  1  0  0  0  0
  5  6  1  0  0  0  0
  5  8  1  0  0  0  0
  6  7  2  0  0  0  0
  8  9  1  0  0  0  0
  9 10  2  0  0  0  0
M  END
>  <CHROM.1>
29.17926205,-22.42694300,9.41315364,2.91907298,1.44463801,-1.03437059

>  <Name>
ligand

>  <RI>
0

>  <Rbt.Current_Directory>
/home/itssahil/PROJECTS/Mol_Feturizer/New_Systems/rnas/2EEV

>  <Rbt.Executable>
rbdock ($Id: //depot/dev/client3/rdock/2013.1/src/exe/rbdock.cxx#4 $)

>  <Rbt.Library>
libRbt.so (2013.1, Build901 2013/11/27)

>  <Rbt.Parameter_File>
/export/apps/rDock/src/rDock_2013.1_src/data/scripts/dock_solv.prm

>  <Rbt.Receptor>
prm/blind_docking_40.prm

>  <SCORE>
-11.9368

>  <SCORE.INTER>
-11.9734

>  <SCORE.INTER.CONST>
1

>  <SCORE.INTER.POLAR>
0

>  <SCORE.INTER.ROT>
0

>  <SCORE.INTER.SOLV>
5.49707

>  <SCORE.INTER.VDW>
-13.4146

>  <SCORE.INTER.norm>
-1.19734

>  <SCORE.INTRA>
0

>  <SCORE.INTRA.DIHEDRAL>
0

>  <SCORE.INTRA.DIHEDRAL.0>
0

>  <SCORE.INTRA.POLAR>
0

>  <SCORE.INTRA.POLAR.0>
0

>  <SCORE.INTRA.REPUL>
0

>  <SCORE.INTRA.REPUL.0>
0

>  <SCORE.INTRA.SOLV>
0

>  <SCORE.INTRA.SOLV.lig_0>
-4.25352

>  <SCORE.INTRA.VDW>
0

>  <SCORE.INTRA.VDW.0>
0

>  <SCORE.INTRA.norm>
0

>  <SCORE.RESTR>
0.0365798

>  <SCORE.RESTR.CAVITY>
0.0365798

>  <SCORE.RESTR.norm>
0.00365798

>  <SCORE.SYSTEM>
0

>  <SCORE.SYSTEM.CONST>
0

>  <SCORE.SYSTEM.DIHEDRAL>
0

>  <SCORE.SYSTEM.SOLV>
0

>  <SCORE.SYSTEM.norm>
0

>  <SCORE.heavy>
10

>  <SCORE.norm>
-1.19368

>  <RMSD>
26.264

$$$$
ligand
 OpenBabel11021811423D
libRbt.so/2013.1/901 2013/11/27
 10 11  0  0  0  0  0  0  0  0999 V2000
   28.9320  -20.7994   10.4646 N   0  0  0  0  0  0  0  0  0  0  0  0
   28.9673  -21.7240   11.4692 C   0  0  0  0  0  0  0  0  0  0  0  0
   29.1230  -23.0500   11.2179 N   0  0  0  0  0  0  0  0  0  0  0  0
   29.2439  -23.3298    9.8881 C   0  0  0  0  0  0  0  0  0  0  0  0
   29.2177  -22.4389    8.8410 C   0  0  0  0  0  0  0  0  0  0  0  0
   29.0506  -21.0738    9.0909 C   0  0  0  0  0  0  0  0  0  0  0  0
   28.9986  -20.1474    8.3092 O   0  0  0  0  0  0  0  0  0  0  0  0
   29.3741  -23.1340    7.6723 N   0  0  0  0  0  0  0  0  0  0  0  0
   29.4924  -24.4165    8.0002 C   0  0  0  0  0  0  0  0  0  0  0  0
   29.4152  -24.5891    9.3695 N   0  0  0  0  0  0  0  0  0  0  0  0
  1  2  1  0  0  0  0
  1  6  1  0  0  0  0
  2  3  2  0  0  0  0
  3  4  1  0  0  0  0
  4  5  2  0  0  0  0
  4 10  1  0  0  0  0
  5  6  1  0  0  0  0
  5  8  1  0  0  0  0
  6  7  2  0  0  0  0
  8  9  1  0  0  0  0
  9 10  2  0  0  0  0
M  END
>  <CHROM.1>
29.17774825,-22.42569713,9.41340230,2.91087307,1.44322125,-1.02411255

>  <Name>
ligand

>  <RI>
0

>  <Rbt.Current_Directory>
/home/itssahil/PROJECTS/Mol_Feturizer/New_Systems/rnas/2EEV

>  <Rbt.Executable>
rbdock ($Id: //depot/dev/client3/rdock/2013.1/src/exe/rbdock.cxx#4 $)

>  <Rbt.Library>
libRbt.so (2013.1, Build901 2013/11/27)

>  <Rbt.Parameter_File>
/export/apps/rDock/src/rDock_2013.1_src/data/scripts/dock_solv.prm

>  <Rbt.Receptor>
prm/blind_docking_40.prm

>  <SCORE>
-11.931

>  <SCORE.INTER>
-11.9661

>  <SCORE.INTER.CONST>
1

>  <SCORE.INTER.POLAR>
0

>  <SCORE.INTER.ROT>
0

>  <SCORE.INTER.SOLV>
5.50076

>  <SCORE.INTER.VDW>
-13.411

>  <SCORE.INTER.norm>
-1.19661

>  <SCORE.INTRA>
0

>  <SCORE.INTRA.DIHEDRAL>
0

>  <SCORE.INTRA.DIHEDRAL.0>
0

>  <SCORE.INTRA.POLAR>
0

>  <SCORE.INTRA.POLAR.0>
0

>  <SCORE.INTRA.REPUL>
0

>  <SCORE.INTRA.REPUL.0>
0

>  <SCORE.INTRA.SOLV>
0

>  <SCORE.INTRA.SOLV.lig_0>
-4.25352

>  <SCORE.INTRA.VDW>
0

>  <SCORE.INTRA.VDW.0>
0

>  <SCORE.INTRA.norm>
0

>  <SCORE.RESTR>
0.0351485

>  <SCORE.RESTR.CAVITY>
0.0351485

>  <SCORE.RESTR.norm>
0.00351485

>  <SCORE.SYSTEM>
0

>  <SCORE.SYSTEM.CONST>
0

>  <SCORE.SYSTEM.DIHEDRAL>
0

>  <SCORE.SYSTEM.SOLV>
0

>  <SCORE.SYSTEM.norm>
0

>  <SCORE.heavy>
10

>  <SCORE.norm>
-1.1931

>  <RMSD>
26.265

$$$$
ligand
 OpenBabel11021811423D
libRbt.so/2013.1/901 2013/11/27
 10 11  0  0  0  0  0  0  0  0999 V2000
   28.9315  -20.7986   10.4670 N   0  0  0  0  0  0  0  0  0  0  0  0
   28.9659  -21.7221   11.4726 C   0  0  0  0  0  0  0  0  0  0  0  0
   29.1220  -23.0483   11.2228 N   0  0  0  0  0  0  0  0  0  0  0  0
   29.2444  -23.3295    9.8934 C   0  0  0  0  0  0  0  0  0  0  0  0
   29.2192  -22.4397    8.8454 C   0  0  0  0  0  0  0  0  0  0  0  0
   29.0517  -21.0744    9.0937 C   0  0  0  0  0  0  0  0  0  0  0  0
   29.0005  -20.1488    8.3110 O   0  0  0  0  0  0  0  0  0  0  0  0
   29.3770  -23.1360    7.6776 N   0  0  0  0  0  0  0  0  0  0  0  0
   29.4951  -24.4181    8.0069 C   0  0  0  0  0  0  0  0  0  0  0  0
   29.4165  -24.5893    9.3763 N   0  0  0  0  0  0  0  0  0  0  0  0
  1  2  1  0  0  0  0
  1  6  1  0  0  0  0
  2  3  2  0  0  0  0
  3  4  1  0  0  0  0
  4  5  2  0  0  0  0
  4 10  1  0  0  0  0
  5  6  1  0  0  0  0
  5  8  1  0  0  0  0
  6  7  2  0  0  0  0
  8  9  1  0  0  0  0
  9 10  2  0  0  0  0
M  END
>  <CHROM.1>
29.17864425,-22.42589753,9.41775447,2.90404424,1.44254457,-1.01836460

>  <Name>
ligand

>  <RI>
0

>  <Rbt.Current_Directory>
/home/itssahil/PROJECTS/Mol_Feturizer/New_Systems/rnas/2EEV

>  <Rbt.Executable>
rbdock ($Id: //depot/dev/client3/rdock/2013.1/src/exe/rbdock.cxx#4 $)

>  <Rbt.Library>
libRbt.so (2013.1, Build901 2013/11/27)

>  <Rbt.Parameter_File>
/export/apps/rDock/src/rDock_2013.1_src/data/scripts/dock_solv.prm

>  <Rbt.Receptor>
prm/blind_docking_40.prm

>  <SCORE>
-11.9224

>  <SCORE.INTER>
-11.9552

>  <SCORE.INTER.CONST>
1

>  <SCORE.INTER.POLAR>
0

>  <SCORE.INTER.ROT>
0

>  <SCORE.INTER.SOLV>
5.49691

>  <SCORE.INTER.VDW>
-13.4024

>  <SCORE.INTER.norm>
-1.19552

>  <SCORE.INTRA>
0

>  <SCORE.INTRA.DIHEDRAL>
0

>  <SCORE.INTRA.DIHEDRAL.0>
0

>  <SCORE.INTRA.POLAR>
0

>  <SCORE.INTRA.POLAR.0>
0

>  <SCORE.INTRA.REPUL>
0

>  <SCORE.INTRA.REPUL.0>
0

>  <SCORE.INTRA.SOLV>
0

>  <SCORE.INTRA.SOLV.lig_0>
-4.25352

>  <SCORE.INTRA.VDW>
0

>  <SCORE.INTRA.VDW.0>
0

>  <SCORE.INTRA.norm>
0

>  <SCORE.RESTR>
0.0327999

>  <SCORE.RESTR.CAVITY>
0.0327999

>  <SCORE.RESTR.norm>
0.00327999

>  <SCORE.SYSTEM>
0

>  <SCORE.SYSTEM.CONST>
0

>  <SCORE.SYSTEM.DIHEDRAL>
0

>  <SCORE.SYSTEM.SOLV>
0

>  <SCORE.SYSTEM.norm>
0

>  <SCORE.heavy>
10

>  <SCORE.norm>
-1.19224

>  <RMSD>
26.265

$$$$
ligand
 OpenBabel11021811423D
libRbt.so/2013.1/901 2013/11/27
 10 11  0  0  0  0  0  0  0  0999 V2000
   28.9292  -20.8007   10.4589 N   0  0  0  0  0  0  0  0  0  0  0  0
   28.9650  -21.7253   11.4634 C   0  0  0  0  0  0  0  0  0  0  0  0
   29.1227  -23.0511   11.2120 N   0  0  0  0  0  0  0  0  0  0  0  0
   29.2450  -23.3305    9.8822 C   0  0  0  0  0  0  0  0  0  0  0  0
   29.2184  -22.4395    8.8352 C   0  0  0  0  0  0  0  0  0  0  0  0
   29.0493  -21.0747    9.0853 C   0  0  0  0  0  0  0  0  0  0  0  0
   28.9966  -20.1482    8.3037 O   0  0  0  0  0  0  0  0  0  0  0  0
   29.3767  -23.1342    7.6666 N   0  0  0  0  0  0  0  0  0  0  0  0
   29.4965  -24.4165    7.9943 C   0  0  0  0  0  0  0  0  0  0  0  0
   29.4186  -24.5895    9.3636 N   0  0  0  0  0  0  0  0  0  0  0  0
  1  2  1  0  0  0  0
  1  6  1  0  0  0  0
  2  3  2  0  0  0  0
  3  4  1  0  0  0  0
  4  5  2  0  0  0  0
  4 10  1  0  0  0  0
  5  6  1  0  0  0  0
  5  8  1  0  0  0  0
  6  7  2  0  0  0  0
  8  9  1  0  0  0  0
  9 10  2  0  0  0  0
M  END
>  <CHROM.1>
29.17803483,-22.42642750,9.40763400,2.91122298,1.44163366,-1.02429603

>  <Name>
ligand

>  <RI>
0

>  <Rbt.Current_Directory>
/home/itssahil/PROJECTS/Mol_Feturizer/New_Systems/rnas/2EEV

>  <Rbt.Executable>
rbdock ($Id: //depot/dev/client3/rdock/2013.1/src/exe/rbdock.cxx#4 $)

>  <Rbt.Library>
libRbt.so (2013.1, Build901 2013/11/27)

>  <Rbt.Parameter_File>
/export/apps/rDock/src/rDock_2013.1_src/data/scripts/dock_solv.prm

>  <Rbt.Receptor>
prm/blind_docking_40.prm

>  <SCORE>
-11.9444

>  <SCORE.INTER>
-11.983

>  <SCORE.INTER.CONST>
1

>  <SCORE.INTER.POLAR>
0

>  <SCORE.INTER.ROT>
0

>  <SCORE.INTER.SOLV>
5.5088

>  <SCORE.INTER.VDW>
-13.4249

>  <SCORE.INTER.norm>
-1.1983

>  <SCORE.INTRA>
0

>  <SCORE.INTRA.DIHEDRAL>
0

>  <SCORE.INTRA.DIHEDRAL.0>
0

>  <SCORE.INTRA.POLAR>
0

>  <SCORE.INTRA.POLAR.0>
0

>  <SCORE.INTRA.REPUL>
0

>  <SCORE.INTRA.REPUL.0>
0

>  <SCORE.INTRA.SOLV>
0

>  <SCORE.INTRA.SOLV.lig_0>
-4.25352

>  <SCORE.INTRA.VDW>
0

>  <SCORE.INTRA.VDW.0>
0

>  <SCORE.INTRA.norm>
0

>  <SCORE.RESTR>
0.0385329

>  <SCORE.RESTR.CAVITY>
0.0385329

>  <SCORE.RESTR.norm>
0.00385329

>  <SCORE.SYSTEM>
0

>  <SCORE.SYSTEM.CONST>
0

>  <SCORE.SYSTEM.DIHEDRAL>
0

>  <SCORE.SYSTEM.SOLV>
0

>  <SCORE.SYSTEM.norm>
0

>  <SCORE.heavy>
10

>  <SCORE.norm>
-1.19444

>  <RMSD>
26.265

$$$$
ligand
 OpenBabel11021811423D
libRbt.so/2013.1/901 2013/11/27
 10 11  0  0  0  0  0  0  0  0999 V2000
   28.9274  -20.7999   10.4690 N   0  0  0  0  0  0  0  0  0  0  0  0
   28.9618  -21.7246   11.4735 C   0  0  0  0  0  0  0  0  0  0  0  0
   29.1196  -23.0504   11.2223 N   0  0  0  0  0  0  0  0  0  0  0  0
   29.2436  -23.3298    9.8927 C   0  0  0  0  0  0  0  0  0  0  0  0
   29.2185  -22.4388    8.8457 C   0  0  0  0  0  0  0  0  0  0  0  0
   29.0492  -21.0740    9.0955 C   0  0  0  0  0  0  0  0  0  0  0  0
   28.9977  -20.1475    8.3139 O   0  0  0  0  0  0  0  0  0  0  0  0
   29.3782  -23.1335    7.6772 N   0  0  0  0  0  0  0  0  0  0  0  0
   29.4974  -24.4159    8.0051 C   0  0  0  0  0  0  0  0  0  0  0  0
   29.4176  -24.5888    9.3742 N   0  0  0  0  0  0  0  0  0  0  0  0
  1  2  1  0  0  0  0
  1  6  1  0  0  0  0
  2  3  2  0  0  0  0
  3  4  1  0  0  0  0
  4  5  2  0  0  0  0
  4 10  1  0  0  0  0
  5  6  1  0  0  0  0
  5  8  1  0  0  0  0
  6  7  2  0  0  0  0
  8  9  1  0  0  0  0
  9 10  2  0  0  0  0
M  END
>  <CHROM.1>
29.17734780,-22.42573240,9.41802491,2.90202308,1.44108834,-1.01516118

>  <Name>
ligand

>  <RI>
0

>  <Rbt.Current_Directory>
/home/itssahil/PROJECTS/Mol_Feturizer/New_Systems/rnas/2EEV

>  <Rbt.Executable>
rbdock ($Id: //depot/dev/client3/rdock/2013.1/src/exe/rbdock.cxx#4 $)

>  <Rbt.Library>
libRbt.so (2013.1, Build901 2013/11/27)

>  <Rbt.Parameter_File>
/export/apps/rDock/src/rDock_2013.1_src/data/scripts/dock_solv.prm

>  <Rbt.Receptor>
prm/blind_docking_40.prm

>  <SCORE>
-11.9193

>  <SCORE.INTER>
-11.9513

>  <SCORE.INTER.CONST>
1

>  <SCORE.INTER.POLAR>
0

>  <SCORE.INTER.ROT>
0

>  <SCORE.INTER.SOLV>
5.50077

>  <SCORE.INTER.VDW>
-13.4011

>  <SCORE.INTER.norm>
-1.19513

>  <SCORE.INTRA>
0

>  <SCORE.INTRA.DIHEDRAL>
0

>  <SCORE.INTRA.DIHEDRAL.0>
0

>  <SCORE.INTRA.POLAR>
0

>  <SCORE.INTRA.POLAR.0>
0

>  <SCORE.INTRA.REPUL>
0

>  <SCORE.INTRA.REPUL.0>
0

>  <SCORE.INTRA.SOLV>
0

>  <SCORE.INTRA.SOLV.lig_0>
-4.25352

>  <SCORE.INTRA.VDW>
0

>  <SCORE.INTRA.VDW.0>
0

>  <SCORE.INTRA.norm>
0

>  <SCORE.RESTR>
0.0319312

>  <SCORE.RESTR.CAVITY>
0.0319312

>  <SCORE.RESTR.norm>
0.00319312

>  <SCORE.SYSTEM>
0

>  <SCORE.SYSTEM.CONST>
0

>  <SCORE.SYSTEM.DIHEDRAL>
0

>  <SCORE.SYSTEM.SOLV>
0

>  <SCORE.SYSTEM.norm>
0

>  <SCORE.heavy>
10

>  <SCORE.norm>
-1.19193

>  <RMSD>
26.266

$$$$
ligand
 OpenBabel11021811423D
libRbt.so/2013.1/901 2013/11/27
 10 11  0  0  0  0  0  0  0  0999 V2000
   28.9282  -20.8011   10.4645 N   0  0  0  0  0  0  0  0  0  0  0  0
   28.9617  -21.7250   11.4698 C   0  0  0  0  0  0  0  0  0  0  0  0
   29.1183  -23.0511   11.2197 N   0  0  0  0  0  0  0  0  0  0  0  0
   29.2420  -23.3318    9.8904 C   0  0  0  0  0  0  0  0  0  0  0  0
   29.2178  -22.4417    8.8426 C   0  0  0  0  0  0  0  0  0  0  0  0
   29.0497  -21.0765    9.0912 C   0  0  0  0  0  0  0  0  0  0  0  0
   28.9991  -20.1506    8.3088 O   0  0  0  0  0  0  0  0  0  0  0  0
   29.3769  -23.1376    7.6747 N   0  0  0  0  0  0  0  0  0  0  0  0
   29.4948  -24.4197    8.0037 C   0  0  0  0  0  0  0  0  0  0  0  0
   29.4149  -24.5914    9.3730 N   0  0  0  0  0  0  0  0  0  0  0  0
  1  2  1  0  0  0  0
  1  6  1  0  0  0  0
  2  3  2  0  0  0  0
  3  4  1  0  0  0  0
  4  5  2  0  0  0  0
  4 10  1  0  0  0  0
  5  6  1  0  0  0  0
  5  8  1  0  0  0  0
  6  7  2  0  0  0  0
  8  9  1  0  0  0  0
  9 10  2  0  0  0  0
M  END
>  <CHROM.1>
29.17663064,-22.42806960,9.41494263,2.89821744,1.44185897,-1.01225465

>  <Name>
ligand

>  <RI>
0

>  <Rbt.Current_Directory>
/home/itssahil/PROJECTS/Mol_Feturizer/New_Systems/rnas/2EEV

>  <Rbt.Executable>
rbdock ($Id: //depot/dev/client3/rdock/2013.1/src/exe/rbdock.cxx#4 $)

>  <Rbt.Library>
libRbt.so (2013.1, Build901 2013/11/27)

>  <Rbt.Parameter_File>
/export/apps/rDock/src/rDock_2013.1_src/data/scripts/dock_solv.prm

>  <Rbt.Receptor>
prm/blind_docking_40.prm

>  <SCORE>
-11.9278

>  <SCORE.INTER>
-11.9615

>  <SCORE.INTER.CONST>
1

>  <SCORE.INTER.POLAR>
0

>  <SCORE.INTER.ROT>
0

>  <SCORE.INTER.SOLV>
5.50261

>  <SCORE.INTER.VDW>
-13.4086

>  <SCORE.INTER.norm>
-1.19615

>  <SCORE.INTRA>
0

>  <SCORE.INTRA.DIHEDRAL>
0

>  <SCORE.INTRA.DIHEDRAL.0>
0

>  <SCORE.INTRA.POLAR>
0

>  <SCORE.INTRA.POLAR.0>
0

>  <SCORE.INTRA.REPUL>
0

>  <SCORE.INTRA.REPUL.0>
0

>  <SCORE.INTRA.SOLV>
0

>  <SCORE.INTRA.SOLV.lig_0>
-4.25352

>  <SCORE.INTRA.VDW>
0

>  <SCORE.INTRA.VDW.0>
0

>  <SCORE.INTRA.norm>
0

>  <SCORE.RESTR>
0.0337186

>  <SCORE.RESTR.CAVITY>
0.0337186

>  <SCORE.RESTR.norm>
0.00337186

>  <SCORE.SYSTEM>
0

>  <SCORE.SYSTEM.CONST>
0

>  <SCORE.SYSTEM.DIHEDRAL>
0

>  <SCORE.SYSTEM.SOLV>
0

>  <SCORE.SYSTEM.norm>
0

>  <SCORE.heavy>
10

>  <SCORE.norm>
-1.19278

>  <RMSD>
26.267

$$$$
ligand
 OpenBabel11021811423D
libRbt.so/2013.1/901 2013/11/27
 10 11  0  0  0  0  0  0  0  0999 V2000
   29.2176  -20.7571   10.0638 N   0  0  0  0  0  0  0  0  0  0  0  0
   29.0910  -20.4320    8.7434 C   0  0  0  0  0  0  0  0  0  0  0  0
   29.0871  -21.3789    7.7692 N   0  0  0  0  0  0  0  0  0  0  0  0
   29.2118  -22.6466    8.2578 C   0  0  0  0  0  0  0  0  0  0  0  0
   29.3392  -23.0264    9.5732 C   0  0  0  0  0  0  0  0  0  0  0  0
   29.3514  -22.0576   10.5807 C   0  0  0  0  0  0  0  0  0  0  0  0
   29.4571  -22.1950   11.7815 O   0  0  0  0  0  0  0  0  0  0  0  0
   29.4359  -24.3908    9.6263 N   0  0  0  0  0  0  0  0  0  0  0  0
   29.3691  -24.8303    8.3739 C   0  0  0  0  0  0  0  0  0  0  0  0
   29.2315  -23.7808    7.4849 N   0  0  0  0  0  0  0  0  0  0  0  0
  1  2  1  0  0  0  0
  1  6  1  0  0  0  0
  2  3  2  0  0  0  0
  3  4  1  0  0  0  0
  4  5  2  0  0  0  0
  4 10  1  0  0  0  0
  5  6  1  0  0  0  0
  5  8  1  0  0  0  0
  6  7  2  0  0  0  0
  8  9  1  0  0  0  0
  9 10  2  0  0  0  0
M  END
>  <CHROM.1>
29.28235810,-22.54050215,9.27306516,1.62522358,-1.46669070,0.72771777

>  <Name>
ligand

>  <RI>
0

>  <Rbt.Current_Directory>
/home/itssahil/PROJECTS/Mol_Feturizer/New_Systems/rnas/2EEV

>  <Rbt.Executable>
rbdock ($Id: //depot/dev/client3/rdock/2013.1/src/exe/rbdock.cxx#4 $)

>  <Rbt.Library>
libRbt.so (2013.1, Build901 2013/11/27)

>  <Rbt.Parameter_File>
/export/apps/rDock/src/rDock_2013.1_src/data/scripts/dock_solv.prm

>  <Rbt.Receptor>
prm/blind_docking_40.prm

>  <SCORE>
-12.0847

>  <SCORE.INTER>
-12.2873

>  <SCORE.INTER.CONST>
1

>  <SCORE.INTER.POLAR>
0

>  <SCORE.INTER.ROT>
0

>  <SCORE.INTER.SOLV>
4.58681

>  <SCORE.INTER.VDW>
-13.3205

>  <SCORE.INTER.norm>
-1.22873

>  <SCORE.INTRA>
0

>  <SCORE.INTRA.DIHEDRAL>
0

>  <SCORE.INTRA.DIHEDRAL.0>
0

>  <SCORE.INTRA.POLAR>
0

>  <SCORE.INTRA.POLAR.0>
0

>  <SCORE.INTRA.REPUL>
0

>  <SCORE.INTRA.REPUL.0>
0

>  <SCORE.INTRA.SOLV>
0

>  <SCORE.INTRA.SOLV.lig_0>
-4.25352

>  <SCORE.INTRA.VDW>
0

>  <SCORE.INTRA.VDW.0>
0

>  <SCORE.INTRA.norm>
0

>  <SCORE.RESTR>
0.202547

>  <SCORE.RESTR.CAVITY>
0.202547

>  <SCORE.RESTR.norm>
0.0202547

>  <SCORE.SYSTEM>
0

>  <SCORE.SYSTEM.CONST>
0

>  <SCORE.SYSTEM.DIHEDRAL>
0

>  <SCORE.SYSTEM.SOLV>
0

>  <SCORE.SYSTEM.norm>
0

>  <SCORE.heavy>
10

>  <SCORE.norm>
-1.20847

>  <RMSD>
26.267

$$$$
ligand
 OpenBabel11021811423D
libRbt.so/2013.1/901 2013/11/27
 10 11  0  0  0  0  0  0  0  0999 V2000
   28.9253  -20.8002   10.4652 N   0  0  0  0  0  0  0  0  0  0  0  0
   28.9636  -21.7245   11.4699 C   0  0  0  0  0  0  0  0  0  0  0  0
   29.1225  -23.0502   11.2188 N   0  0  0  0  0  0  0  0  0  0  0  0
   29.2433  -23.3299    9.8890 C   0  0  0  0  0  0  0  0  0  0  0  0
   29.2142  -22.4393    8.8417 C   0  0  0  0  0  0  0  0  0  0  0  0
   29.0438  -21.0746    9.0915 C   0  0  0  0  0  0  0  0  0  0  0  0
   28.9890  -20.1484    8.3097 O   0  0  0  0  0  0  0  0  0  0  0  0
   29.3717  -23.1342    7.6731 N   0  0  0  0  0  0  0  0  0  0  0  0
   29.4935  -24.4163    8.0011 C   0  0  0  0  0  0  0  0  0  0  0  0
   29.4176  -24.5889    9.3705 N   0  0  0  0  0  0  0  0  0  0  0  0
  1  2  1  0  0  0  0
  1  6  1  0  0  0  0
  2  3  2  0  0  0  0
  3  4  1  0  0  0  0
  4  5  2  0  0  0  0
  4 10  1  0  0  0  0
  5  6  1  0  0  0  0
  5  8  1  0  0  0  0
  6  7  2  0  0  0  0
  8  9  1  0  0  0  0
  9 10  2  0  0  0  0
M  END
>  <CHROM.1>
29.17459410,-22.42608357,9.41414838,2.92504806,1.44133675,-1.03834862

>  <Name>
ligand

>  <RI>
0

>  <Rbt.Current_Directory>
/home/itssahil/PROJECTS/Mol_Feturizer/New_Systems/rnas/2EEV

>  <Rbt.Executable>
rbdock ($Id: //depot/dev/client3/rdock/2013.1/src/exe/rbdock.cxx#4 $)

>  <Rbt.Library>
libRbt.so (2013.1, Build901 2013/11/27)

>  <Rbt.Parameter_File>
/export/apps/rDock/src/rDock_2013.1_src/data/scripts/dock_solv.prm

>  <Rbt.Receptor>
prm/blind_docking_40.prm

>  <SCORE>
-11.9301

>  <SCORE.INTER>
-11.9658

>  <SCORE.INTER.CONST>
1

>  <SCORE.INTER.POLAR>
0

>  <SCORE.INTER.ROT>
0

>  <SCORE.INTER.SOLV>
5.50923

>  <SCORE.INTER.VDW>
-13.4136

>  <SCORE.INTER.norm>
-1.19658

>  <SCORE.INTRA>
0

>  <SCORE.INTRA.DIHEDRAL>
0

>  <SCORE.INTRA.DIHEDRAL.0>
0

>  <SCORE.INTRA.POLAR>
0

>  <SCORE.INTRA.POLAR.0>
0

>  <SCORE.INTRA.REPUL>
0

>  <SCORE.INTRA.REPUL.0>
0

>  <SCORE.INTRA.SOLV>
0

>  <SCORE.INTRA.SOLV.lig_0>
-4.25352

>  <SCORE.INTRA.VDW>
0

>  <SCORE.INTRA.VDW.0>
0

>  <SCORE.INTRA.norm>
0

>  <SCORE.RESTR>
0.0357108

>  <SCORE.RESTR.CAVITY>
0.0357108

>  <SCORE.RESTR.norm>
0.00357108

>  <SCORE.SYSTEM>
0

>  <SCORE.SYSTEM.CONST>
0

>  <SCORE.SYSTEM.DIHEDRAL>
0

>  <SCORE.SYSTEM.SOLV>
0

>  <SCORE.SYSTEM.norm>
0

>  <SCORE.heavy>
10

>  <SCORE.norm>
-1.19301

>  <RMSD>
26.268

$$$$
ligand
 OpenBabel11021811423D
libRbt.so/2013.1/901 2013/11/27
 10 11  0  0  0  0  0  0  0  0999 V2000
   29.1998  -20.7750   10.0690 N   0  0  0  0  0  0  0  0  0  0  0  0
   29.0737  -20.4464    8.7494 C   0  0  0  0  0  0  0  0  0  0  0  0
   29.0808  -21.3898    7.7718 N   0  0  0  0  0  0  0  0  0  0  0  0
   29.2154  -22.6581    8.2562 C   0  0  0  0  0  0  0  0  0  0  0  0
   29.3428  -23.0415    9.5706 C   0  0  0  0  0  0  0  0  0  0  0  0
   29.3437  -22.0762   10.5815 C   0  0  0  0  0  0  0  0  0  0  0  0
   29.4476  -22.2169   11.7821 O   0  0  0  0  0  0  0  0  0  0  0  0
   29.4514  -24.4051    9.6191 N   0  0  0  0  0  0  0  0  0  0  0  0
   29.3918  -24.8407    8.3650 C   0  0  0  0  0  0  0  0  0  0  0  0
   29.2472  -23.7893    7.4793 N   0  0  0  0  0  0  0  0  0  0  0  0
  1  2  1  0  0  0  0
  1  6  1  0  0  0  0
  2  3  2  0  0  0  0
  3  4  1  0  0  0  0
  4  5  2  0  0  0  0
  4 10  1  0  0  0  0
  5  6  1  0  0  0  0
  5  8  1  0  0  0  0
  6  7  2  0  0  0  0
  8  9  1  0  0  0  0
  9 10  2  0  0  0  0
M  END
>  <CHROM.1>
29.28240501,-22.55497420,9.27204760,1.70243506,-1.46242471,0.80805543

>  <Name>
ligand

>  <RI>
0

>  <Rbt.Current_Directory>
/home/itssahil/PROJECTS/Mol_Feturizer/New_Systems/rnas/2EEV

>  <Rbt.Executable>
rbdock ($Id: //depot/dev/client3/rdock/2013.1/src/exe/rbdock.cxx#4 $)

>  <Rbt.Library>
libRbt.so (2013.1, Build901 2013/11/27)

>  <Rbt.Parameter_File>
/export/apps/rDock/src/rDock_2013.1_src/data/scripts/dock_solv.prm

>  <Rbt.Receptor>
prm/blind_docking_40.prm

>  <SCORE>
-12.0619

>  <SCORE.INTER>
-12.2542

>  <SCORE.INTER.CONST>
1

>  <SCORE.INTER.POLAR>
0

>  <SCORE.INTER.ROT>
0

>  <SCORE.INTER.SOLV>
4.6021

>  <SCORE.INTER.VDW>
-13.3035

>  <SCORE.INTER.norm>
-1.22542

>  <SCORE.INTRA>
0

>  <SCORE.INTRA.DIHEDRAL>
0

>  <SCORE.INTRA.DIHEDRAL.0>
0

>  <SCORE.INTRA.POLAR>
0

>  <SCORE.INTRA.POLAR.0>
0

>  <SCORE.INTRA.REPUL>
0

>  <SCORE.INTRA.REPUL.0>
0

>  <SCORE.INTRA.SOLV>
0

>  <SCORE.INTRA.SOLV.lig_0>
-4.25352

>  <SCORE.INTRA.VDW>
0

>  <SCORE.INTRA.VDW.0>
0

>  <SCORE.INTRA.norm>
0

>  <SCORE.RESTR>
0.192312

>  <SCORE.RESTR.CAVITY>
0.192312

>  <SCORE.RESTR.norm>
0.0192312

>  <SCORE.SYSTEM>
0

>  <SCORE.SYSTEM.CONST>
0

>  <SCORE.SYSTEM.DIHEDRAL>
0

>  <SCORE.SYSTEM.SOLV>
0

>  <SCORE.SYSTEM.norm>
0

>  <SCORE.heavy>
10

>  <SCORE.norm>
-1.20619

>  <RMSD>
26.271

$$$$
ligand
 OpenBabel11021811423D
libRbt.so/2013.1/901 2013/11/27
 10 11  0  0  0  0  0  0  0  0999 V2000
   29.2182  -20.7940   10.0677 N   0  0  0  0  0  0  0  0  0  0  0  0
   29.0973  -20.4598    8.7490 C   0  0  0  0  0  0  0  0  0  0  0  0
   29.0973  -21.4000    7.7683 N   0  0  0  0  0  0  0  0  0  0  0  0
   29.2194  -22.6711    8.2487 C   0  0  0  0  0  0  0  0  0  0  0  0
   29.3411  -23.0600    9.5620 C   0  0  0  0  0  0  0  0  0  0  0  0
   29.3493  -22.0981   10.5761 C   0  0  0  0  0  0  0  0  0  0  0  0
   29.4499  -22.2438   11.7764 O   0  0  0  0  0  0  0  0  0  0  0  0
   29.4370  -24.4247    9.6060 N   0  0  0  0  0  0  0  0  0  0  0  0
   29.3754  -24.8556    8.3504 C   0  0  0  0  0  0  0  0  0  0  0  0
   29.2420  -23.7999    7.4681 N   0  0  0  0  0  0  0  0  0  0  0  0
  1  2  1  0  0  0  0
  1  6  1  0  0  0  0
  2  3  2  0  0  0  0
  3  4  1  0  0  0  0
  4  5  2  0  0  0  0
  4 10  1  0  0  0  0
  5  6  1  0  0  0  0
  5  8  1  0  0  0  0
  6  7  2  0  0  0  0
  8  9  1  0  0  0  0
  9 10  2  0  0  0  0
M  END
>  <CHROM.1>
29.28567997,-22.57198229,9.26496080,1.65052651,-1.47007813,0.75977391

>  <Name>
ligand

>  <RI>
0

>  <Rbt.Current_Directory>
/home/itssahil/PROJECTS/Mol_Feturizer/New_Systems/rnas/2EEV

>  <Rbt.Executable>
rbdock ($Id: //depot/dev/client3/rdock/2013.1/src/exe/rbdock.cxx#4 $)

>  <Rbt.Library>
libRbt.so (2013.1, Build901 2013/11/27)

>  <Rbt.Parameter_File>
/export/apps/rDock/src/rDock_2013.1_src/data/scripts/dock_solv.prm

>  <Rbt.Receptor>
prm/blind_docking_40.prm

>  <SCORE>
-11.9745

>  <SCORE.INTER>
-12.151

>  <SCORE.INTER.CONST>
1

>  <SCORE.INTER.POLAR>
0

>  <SCORE.INTER.ROT>
0

>  <SCORE.INTER.SOLV>
4.59805

>  <SCORE.INTER.VDW>
-13.2333

>  <SCORE.INTER.norm>
-1.2151

>  <SCORE.INTRA>
0

>  <SCORE.INTRA.DIHEDRAL>
0

>  <SCORE.INTRA.DIHEDRAL.0>
0

>  <SCORE.INTRA.POLAR>
0

>  <SCORE.INTRA.POLAR.0>
0

>  <SCORE.INTRA.REPUL>
0

>  <SCORE.INTRA.REPUL.0>
0

>  <SCORE.INTRA.SOLV>
0

>  <SCORE.INTRA.SOLV.lig_0>
-4.25352

>  <SCORE.INTRA.VDW>
0

>  <SCORE.INTRA.VDW.0>
0

>  <SCORE.INTRA.norm>
0

>  <SCORE.RESTR>
0.176406

>  <SCORE.RESTR.CAVITY>
0.176406

>  <SCORE.RESTR.norm>
0.0176406

>  <SCORE.SYSTEM>
0

>  <SCORE.SYSTEM.CONST>
0

>  <SCORE.SYSTEM.DIHEDRAL>
0

>  <SCORE.SYSTEM.SOLV>
0

>  <SCORE.SYSTEM.norm>
0

>  <SCORE.heavy>
10

>  <SCORE.norm>
-1.19745

>  <RMSD>
26.273

$$$$
ligand
 OpenBabel11021811423D
libRbt.so/2013.1/901 2013/11/27
 10 11  0  0  0  0  0  0  0  0999 V2000
   29.1661  -20.7881   10.0963 N   0  0  0  0  0  0  0  0  0  0  0  0
   29.0636  -20.4492    8.7773 C   0  0  0  0  0  0  0  0  0  0  0  0
   29.0934  -21.3845    7.7924 N   0  0  0  0  0  0  0  0  0  0  0  0
   29.2245  -22.6561    8.2688 C   0  0  0  0  0  0  0  0  0  0  0  0
   29.3287  -23.0498    9.5822 C   0  0  0  0  0  0  0  0  0  0  0  0
   29.3062  -22.0928   10.6009 C   0  0  0  0  0  0  0  0  0  0  0  0
   29.3879  -22.2430   11.8020 O   0  0  0  0  0  0  0  0  0  0  0  0
   29.4424  -24.4132    9.6217 N   0  0  0  0  0  0  0  0  0  0  0  0
   29.4085  -24.8388    8.3632 C   0  0  0  0  0  0  0  0  0  0  0  0
   29.2760  -23.7807    7.4835 N   0  0  0  0  0  0  0  0  0  0  0  0
  1  2  1  0  0  0  0
  1  6  1  0  0  0  0
  2  3  2  0  0  0  0
  3  4  1  0  0  0  0
  4  5  2  0  0  0  0
  4 10  1  0  0  0  0
  5  6  1  0  0  0  0
  5  8  1  0  0  0  0
  6  7  2  0  0  0  0
  8  9  1  0  0  0  0
  9 10  2  0  0  0  0
M  END
>  <CHROM.1>
29.27177565,-22.56110153,9.28660619,1.87129142,-1.47087300,0.98420872

>  <Name>
ligand

>  <RI>
0

>  <Rbt.Current_Directory>
/home/itssahil/PROJECTS/Mol_Feturizer/New_Systems/rnas/2EEV

>  <Rbt.Executable>
rbdock ($Id: //depot/dev/client3/rdock/2013.1/src/exe/rbdock.cxx#4 $)

>  <Rbt.Library>
libRbt.so (2013.1, Build901 2013/11/27)

>  <Rbt.Parameter_File>
/export/apps/rDock/src/rDock_2013.1_src/data/scripts/dock_solv.prm

>  <Rbt.Receptor>
prm/blind_docking_40.prm

>  <SCORE>
-12.1357

>  <SCORE.INTER>
-12.3532

>  <SCORE.INTER.CONST>
1

>  <SCORE.INTER.POLAR>
0

>  <SCORE.INTER.ROT>
0

>  <SCORE.INTER.SOLV>
4.67975

>  <SCORE.INTER.VDW>
-13.3954

>  <SCORE.INTER.norm>
-1.23532

>  <SCORE.INTRA>
0

>  <SCORE.INTRA.DIHEDRAL>
0

>  <SCORE.INTRA.DIHEDRAL.0>
0

>  <SCORE.INTRA.POLAR>
0

>  <SCORE.INTRA.POLAR.0>
0

>  <SCORE.INTRA.REPUL>
0

>  <SCORE.INTRA.REPUL.0>
0

>  <SCORE.INTRA.SOLV>
0

>  <SCORE.INTRA.SOLV.lig_0>
-4.25352

>  <SCORE.INTRA.VDW>
0

>  <SCORE.INTRA.VDW.0>
0

>  <SCORE.INTRA.norm>
0

>  <SCORE.RESTR>
0.217556

>  <SCORE.RESTR.CAVITY>
0.217556

>  <SCORE.RESTR.norm>
0.0217556

>  <SCORE.SYSTEM>
0

>  <SCORE.SYSTEM.CONST>
0

>  <SCORE.SYSTEM.DIHEDRAL>
0

>  <SCORE.SYSTEM.SOLV>
0

>  <SCORE.SYSTEM.norm>
0

>  <SCORE.heavy>
10

>  <SCORE.norm>
-1.21357

>  <RMSD>
26.283

$$$$
ligand
 OpenBabel11021811423D
libRbt.so/2013.1/901 2013/11/27
 10 11  0  0  0  0  0  0  0  0999 V2000
   29.2220  -20.8528   10.1260 N   0  0  0  0  0  0  0  0  0  0  0  0
   29.0931  -20.4830    8.8176 C   0  0  0  0  0  0  0  0  0  0  0  0
   29.0882  -21.3962    7.8117 N   0  0  0  0  0  0  0  0  0  0  0  0
   29.2144  -22.6798    8.2566 C   0  0  0  0  0  0  0  0  0  0  0  0
   29.3441  -23.1041    9.5581 C   0  0  0  0  0  0  0  0  0  0  0  0
   29.3573  -22.1701   10.5980 C   0  0  0  0  0  0  0  0  0  0  0  0
   29.4651  -22.3482   11.7933 O   0  0  0  0  0  0  0  0  0  0  0  0
   29.4416  -24.4693    9.5646 N   0  0  0  0  0  0  0  0  0  0  0  0
   29.3731  -24.8661    8.2981 C   0  0  0  0  0  0  0  0  0  0  0  0
   29.2335  -23.7870    7.4455 N   0  0  0  0  0  0  0  0  0  0  0  0
  1  2  1  0  0  0  0
  1  6  1  0  0  0  0
  2  3  2  0  0  0  0
  3  4  1  0  0  0  0
  4  5  2  0  0  0  0
  4 10  1  0  0  0  0
  5  6  1  0  0  0  0
  5  8  1  0  0  0  0
  6  7  2  0  0  0  0
  8  9  1  0  0  0  0
  9 10  2  0  0  0  0
M  END
>  <CHROM.1>
29.28649156,-22.60821239,9.27483965,1.61904598,-1.46514015,0.75562770

>  <Name>
ligand

>  <RI>
0

>  <Rbt.Current_Directory>
/home/itssahil/PROJECTS/Mol_Feturizer/New_Systems/rnas/2EEV

>  <Rbt.Executable>
rbdock ($Id: //depot/dev/client3/rdock/2013.1/src/exe/rbdock.cxx#4 $)

>  <Rbt.Library>
libRbt.so (2013.1, Build901 2013/11/27)

>  <Rbt.Parameter_File>
/export/apps/rDock/src/rDock_2013.1_src/data/scripts/dock_solv.prm

>  <Rbt.Receptor>
prm/blind_docking_40.prm

>  <SCORE>
-12.0433

>  <SCORE.INTER>
-12.2403

>  <SCORE.INTER.CONST>
1

>  <SCORE.INTER.POLAR>
0

>  <SCORE.INTER.ROT>
0

>  <SCORE.INTER.SOLV>
4.62418

>  <SCORE.INTER.VDW>
-13.3016

>  <SCORE.INTER.norm>
-1.22403

>  <SCORE.INTRA>
0

>  <SCORE.INTRA.DIHEDRAL>
0

>  <SCORE.INTRA.DIHEDRAL.0>
0

>  <SCORE.INTRA.POLAR>
0

>  <SCORE.INTRA.POLAR.0>
0

>  <SCORE.INTRA.REPUL>
0

>  <SCORE.INTRA.REPUL.0>
0

>  <SCORE.INTRA.SOLV>
0

>  <SCORE.INTRA.SOLV.lig_0>
-4.25352

>  <SCORE.INTRA.VDW>
0

>  <SCORE.INTRA.VDW.0>
0

>  <SCORE.INTRA.norm>
0

>  <SCORE.RESTR>
0.197053

>  <SCORE.RESTR.CAVITY>
0.197053

>  <SCORE.RESTR.norm>
0.0197053

>  <SCORE.SYSTEM>
0

>  <SCORE.SYSTEM.CONST>
0

>  <SCORE.SYSTEM.DIHEDRAL>
0

>  <SCORE.SYSTEM.SOLV>
0

>  <SCORE.SYSTEM.norm>
0

>  <SCORE.heavy>
10

>  <SCORE.norm>
-1.20433

>  <RMSD>
26.284

$$$$
ligand
 OpenBabel11021811423D
libRbt.so/2013.1/901 2013/11/27
 10 11  0  0  0  0  0  0  0  0999 V2000
   29.1648  -20.7943   10.0908 N   0  0  0  0  0  0  0  0  0  0  0  0
   29.0610  -20.4527    8.7725 C   0  0  0  0  0  0  0  0  0  0  0  0
   29.0898  -21.3860    7.7857 N   0  0  0  0  0  0  0  0  0  0  0  0
   29.2213  -22.6586    8.2595 C   0  0  0  0  0  0  0  0  0  0  0  0
   29.3267  -23.0549    9.5720 C   0  0  0  0  0  0  0  0  0  0  0  0
   29.3052  -22.1000   10.5925 C   0  0  0  0  0  0  0  0  0  0  0  0
   29.3882  -22.2527   11.7933 O   0  0  0  0  0  0  0  0  0  0  0  0
   29.4404  -24.4185    9.6085 N   0  0  0  0  0  0  0  0  0  0  0  0
   29.4052  -24.8415    8.3492 C   0  0  0  0  0  0  0  0  0  0  0  0
   29.2720  -23.7817    7.4718 N   0  0  0  0  0  0  0  0  0  0  0  0
  1  2  1  0  0  0  0
  1  6  1  0  0  0  0
  2  3  2  0  0  0  0
  3  4  1  0  0  0  0
  4  5  2  0  0  0  0
  4 10  1  0  0  0  0
  5  6  1  0  0  0  0
  5  8  1  0  0  0  0
  6  7  2  0  0  0  0
  8  9  1  0  0  0  0
  9 10  2  0  0  0  0
M  END
>  <CHROM.1>
29.26954547,-22.56565451,9.27736674,1.86287066,-1.47034986,0.97784223

>  <Name>
ligand

>  <RI>
0

>  <Rbt.Current_Directory>
/home/itssahil/PROJECTS/Mol_Feturizer/New_Systems/rnas/2EEV

>  <Rbt.Executable>
rbdock ($Id: //depot/dev/client3/rdock/2013.1/src/exe/rbdock.cxx#4 $)

>  <Rbt.Library>
libRbt.so (2013.1, Build901 2013/11/27)

>  <Rbt.Parameter_File>
/export/apps/rDock/src/rDock_2013.1_src/data/scripts/dock_solv.prm

>  <Rbt.Receptor>
prm/blind_docking_40.prm

>  <SCORE>
-12.1014

>  <SCORE.INTER>
-12.3087

>  <SCORE.INTER.CONST>
1

>  <SCORE.INTER.POLAR>
0

>  <SCORE.INTER.ROT>
0

>  <SCORE.INTER.SOLV>
4.67583

>  <SCORE.INTER.VDW>
-13.3644

>  <SCORE.INTER.norm>
-1.23087

>  <SCORE.INTRA>
0

>  <SCORE.INTRA.DIHEDRAL>
0

>  <SCORE.INTRA.DIHEDRAL.0>
0

>  <SCORE.INTRA.POLAR>
0

>  <SCORE.INTRA.POLAR.0>
0

>  <SCORE.INTRA.REPUL>
0

>  <SCORE.INTRA.REPUL.0>
0

>  <SCORE.INTRA.SOLV>
0

>  <SCORE.INTRA.SOLV.lig_0>
-4.25352

>  <SCORE.INTRA.VDW>
0

>  <SCORE.INTRA.VDW.0>
0

>  <SCORE.INTRA.norm>
0

>  <SCORE.RESTR>
0.207292

>  <SCORE.RESTR.CAVITY>
0.207292

>  <SCORE.RESTR.norm>
0.0207292

>  <SCORE.SYSTEM>
0

>  <SCORE.SYSTEM.CONST>
0

>  <SCORE.SYSTEM.DIHEDRAL>
0

>  <SCORE.SYSTEM.SOLV>
0

>  <SCORE.SYSTEM.norm>
0

>  <SCORE.heavy>
10

>  <SCORE.norm>
-1.21014

>  <RMSD>
26.286

$$$$
ligand
 OpenBabel11021811423D
libRbt.so/2013.1/901 2013/11/27
 10 11  0  0  0  0  0  0  0  0999 V2000
   29.1678  -20.7928   10.0897 N   0  0  0  0  0  0  0  0  0  0  0  0
   29.0625  -20.4537    8.7709 C   0  0  0  0  0  0  0  0  0  0  0  0
   29.0869  -21.3892    7.7860 N   0  0  0  0  0  0  0  0  0  0  0  0
   29.2158  -22.6611    8.2622 C   0  0  0  0  0  0  0  0  0  0  0  0
   29.3226  -23.0549    9.5753 C   0  0  0  0  0  0  0  0  0  0  0  0
   29.3057  -22.0979   10.5939 C   0  0  0  0  0  0  0  0  0  0  0  0
   29.3904  -22.2482   11.7949 O   0  0  0  0  0  0  0  0  0  0  0  0
   29.4327  -24.4187    9.6146 N   0  0  0  0  0  0  0  0  0  0  0  0
   29.3940  -24.8443    8.3562 C   0  0  0  0  0  0  0  0  0  0  0  0
   29.2619  -23.7859    7.4768 N   0  0  0  0  0  0  0  0  0  0  0  0
  1  2  1  0  0  0  0
  1  6  1  0  0  0  0
  2  3  2  0  0  0  0
  3  4  1  0  0  0  0
  4  5  2  0  0  0  0
  4 10  1  0  0  0  0
  5  6  1  0  0  0  0
  5  8  1  0  0  0  0
  6  7  2  0  0  0  0
  8  9  1  0  0  0  0
  9 10  2  0  0  0  0
M  END
>  <CHROM.1>
29.26622220,-22.56614228,9.27982019,1.83180565,-1.47151750,0.94482294

>  <Name>
ligand

>  <RI>
0

>  <Rbt.Current_Directory>
/home/itssahil/PROJECTS/Mol_Feturizer/New_Systems/rnas/2EEV

>  <Rbt.Executable>
rbdock ($Id: //depot/dev/client3/rdock/2013.1/src/exe/rbdock.cxx#4 $)

>  <Rbt.Library>
libRbt.so (2013.1, Build901 2013/11/27)

>  <Rbt.Parameter_File>
/export/apps/rDock/src/rDock_2013.1_src/data/scripts/dock_solv.prm

>  <Rbt.Receptor>
prm/blind_docking_40.prm

>  <SCORE>
-12.107

>  <SCORE.INTER>
-12.3127

>  <SCORE.INTER.CONST>
1

>  <SCORE.INTER.POLAR>
0

>  <SCORE.INTER.ROT>
0

>  <SCORE.INTER.SOLV>
4.67422

>  <SCORE.INTER.VDW>
-13.3665

>  <SCORE.INTER.norm>
-1.23127

>  <SCORE.INTRA>
0

>  <SCORE.INTRA.DIHEDRAL>
0

>  <SCORE.INTRA.DIHEDRAL.0>
0

>  <SCORE.INTRA.POLAR>
0

>  <SCORE.INTRA.POLAR.0>
0

>  <SCORE.INTRA.REPUL>
0

>  <SCORE.INTRA.REPUL.0>
0

>  <SCORE.INTRA.SOLV>
0

>  <SCORE.INTRA.SOLV.lig_0>
-4.25352

>  <SCORE.INTRA.VDW>
0

>  <SCORE.INTRA.VDW.0>
0

>  <SCORE.INTRA.norm>
0

>  <SCORE.RESTR>
0.205707

>  <SCORE.RESTR.CAVITY>
0.205707

>  <SCORE.RESTR.norm>
0.0205707

>  <SCORE.SYSTEM>
0

>  <SCORE.SYSTEM.CONST>
0

>  <SCORE.SYSTEM.DIHEDRAL>
0

>  <SCORE.SYSTEM.SOLV>
0

>  <SCORE.SYSTEM.norm>
0

>  <SCORE.heavy>
10

>  <SCORE.norm>
-1.2107

>  <RMSD>
26.289

$$$$
ligand
 OpenBabel11021811423D
libRbt.so/2013.1/901 2013/11/27
 10 11  0  0  0  0  0  0  0  0999 V2000
   29.1655  -20.7884   10.0914 N   0  0  0  0  0  0  0  0  0  0  0  0
   29.0638  -20.4506    8.7720 C   0  0  0  0  0  0  0  0  0  0  0  0
   29.0895  -21.3871    7.7882 N   0  0  0  0  0  0  0  0  0  0  0  0
   29.2159  -22.6587    8.2660 C   0  0  0  0  0  0  0  0  0  0  0  0
   29.3191  -23.0512    9.5798 C   0  0  0  0  0  0  0  0  0  0  0  0
   29.3007  -22.0931   10.5974 C   0  0  0  0  0  0  0  0  0  0  0  0
   29.3824  -22.2422   11.7987 O   0  0  0  0  0  0  0  0  0  0  0  0
   29.4276  -24.4151    9.6208 N   0  0  0  0  0  0  0  0  0  0  0  0
   29.3915  -24.8420    8.3628 C   0  0  0  0  0  0  0  0  0  0  0  0
   29.2628  -23.7844    7.4820 N   0  0  0  0  0  0  0  0  0  0  0  0
  1  2  1  0  0  0  0
  1  6  1  0  0  0  0
  2  3  2  0  0  0  0
  3  4  1  0  0  0  0
  4  5  2  0  0  0  0
  4 10  1  0  0  0  0
  5  6  1  0  0  0  0
  5  8  1  0  0  0  0
  6  7  2  0  0  0  0
  8  9  1  0  0  0  0
  9 10  2  0  0  0  0
M  END
>  <CHROM.1>
29.26397747,-22.56270434,9.28366731,1.84561721,-1.47382532,0.95749836

>  <Name>
ligand

>  <RI>
0

>  <Rbt.Current_Directory>
/home/itssahil/PROJECTS/Mol_Feturizer/New_Systems/rnas/2EEV

>  <Rbt.Executable>
rbdock ($Id: //depot/dev/client3/rdock/2013.1/src/exe/rbdock.cxx#4 $)

>  <Rbt.Library>
libRbt.so (2013.1, Build901 2013/11/27)

>  <Rbt.Parameter_File>
/export/apps/rDock/src/rDock_2013.1_src/data/scripts/dock_solv.prm

>  <Rbt.Receptor>
prm/blind_docking_40.prm

>  <SCORE>
-12.1229

>  <SCORE.INTER>
-12.3345

>  <SCORE.INTER.CONST>
1

>  <SCORE.INTER.POLAR>
0

>  <SCORE.INTER.ROT>
0

>  <SCORE.INTER.SOLV>
4.68265

>  <SCORE.INTER.VDW>
-13.3839

>  <SCORE.INTER.norm>
-1.23345

>  <SCORE.INTRA>
0

>  <SCORE.INTRA.DIHEDRAL>
0

>  <SCORE.INTRA.DIHEDRAL.0>
0

>  <SCORE.INTRA.POLAR>
0

>  <SCORE.INTRA.POLAR.0>
0

>  <SCORE.INTRA.REPUL>
0

>  <SCORE.INTRA.REPUL.0>
0

>  <SCORE.INTRA.SOLV>
0

>  <SCORE.INTRA.SOLV.lig_0>
-4.25352

>  <SCORE.INTRA.VDW>
0

>  <SCORE.INTRA.VDW.0>
0

>  <SCORE.INTRA.norm>
0

>  <SCORE.RESTR>
0.211541

>  <SCORE.RESTR.CAVITY>
0.211541

>  <SCORE.RESTR.norm>
0.0211541

>  <SCORE.SYSTEM>
0

>  <SCORE.SYSTEM.CONST>
0

>  <SCORE.SYSTEM.DIHEDRAL>
0

>  <SCORE.SYSTEM.SOLV>
0

>  <SCORE.SYSTEM.norm>
0

>  <SCORE.heavy>
10

>  <SCORE.norm>
-1.21229

>  <RMSD>
26.290

$$$$
ligand
 OpenBabel11021811423D
libRbt.so/2013.1/901 2013/11/27
 10 11  0  0  0  0  0  0  0  0999 V2000
   29.1720  -20.7994   10.0784 N   0  0  0  0  0  0  0  0  0  0  0  0
   29.0797  -20.4624    8.7581 C   0  0  0  0  0  0  0  0  0  0  0  0
   29.1072  -21.4001    7.7754 N   0  0  0  0  0  0  0  0  0  0  0  0
   29.2250  -22.6717    8.2552 C   0  0  0  0  0  0  0  0  0  0  0  0
   29.3185  -23.0634    9.5700 C   0  0  0  0  0  0  0  0  0  0  0  0
   29.2983  -22.1041   10.5865 C   0  0  0  0  0  0  0  0  0  0  0  0
   29.3720  -22.2524   11.7884 O   0  0  0  0  0  0  0  0  0  0  0  0
   29.4206  -24.4277    9.6129 N   0  0  0  0  0  0  0  0  0  0  0  0
   29.3902  -24.8557    8.3552 C   0  0  0  0  0  0  0  0  0  0  0  0
   29.2715  -23.7984    7.4726 N   0  0  0  0  0  0  0  0  0  0  0  0
  1  2  1  0  0  0  0
  1  6  1  0  0  0  0
  2  3  2  0  0  0  0
  3  4  1  0  0  0  0
  4  5  2  0  0  0  0
  4 10  1  0  0  0  0
  5  6  1  0  0  0  0
  5  8  1  0  0  0  0
  6  7  2  0  0  0  0
  8  9  1  0  0  0  0
  9 10  2  0  0  0  0
M  END
>  <CHROM.1>
29.26736045,-22.57492263,9.27302764,1.87172855,-1.48094169,0.98251613

>  <Name>
ligand

>  <RI>
0

>  <Rbt.Current_Directory>
/home/itssahil/PROJECTS/Mol_Feturizer/New_Systems/rnas/2EEV

>  <Rbt.Executable>
rbdock ($Id: //depot/dev/client3/rdock/2013.1/src/exe/rbdock.cxx#4 $)

>  <Rbt.Library>
libRbt.so (2013.1, Build901 2013/11/27)

>  <Rbt.Parameter_File>
/export/apps/rDock/src/rDock_2013.1_src/data/scripts/dock_solv.prm

>  <Rbt.Receptor>
prm/blind_docking_40.prm

>  <SCORE>
-12.0216

>  <SCORE.INTER>
-12.21

>  <SCORE.INTER.CONST>
1

>  <SCORE.INTER.POLAR>
0

>  <SCORE.INTER.ROT>
0

>  <SCORE.INTER.SOLV>
4.6818

>  <SCORE.INTER.VDW>
-13.3006

>  <SCORE.INTER.norm>
-1.221

>  <SCORE.INTRA>
0

>  <SCORE.INTRA.DIHEDRAL>
0

>  <SCORE.INTRA.DIHEDRAL.0>
0

>  <SCORE.INTRA.POLAR>
0

>  <SCORE.INTRA.POLAR.0>
0

>  <SCORE.INTRA.REPUL>
0

>  <SCORE.INTRA.REPUL.0>
0

>  <SCORE.INTRA.SOLV>
0

>  <SCORE.INTRA.SOLV.lig_0>
-4.25352

>  <SCORE.INTRA.VDW>
0

>  <SCORE.INTRA.VDW.0>
0

>  <SCORE.INTRA.norm>
0

>  <SCORE.RESTR>
0.188382

>  <SCORE.RESTR.CAVITY>
0.188382

>  <SCORE.RESTR.norm>
0.0188382

>  <SCORE.SYSTEM>
0

>  <SCORE.SYSTEM.CONST>
0

>  <SCORE.SYSTEM.DIHEDRAL>
0

>  <SCORE.SYSTEM.SOLV>
0

>  <SCORE.SYSTEM.norm>
0

>  <SCORE.heavy>
10

>  <SCORE.norm>
-1.20216

>  <RMSD>
26.290

$$$$
ligand
 OpenBabel11021811423D
libRbt.so/2013.1/901 2013/11/27
 10 11  0  0  0  0  0  0  0  0999 V2000
   29.1468  -20.7688   10.0784 N   0  0  0  0  0  0  0  0  0  0  0  0
   29.0571  -20.4494    8.7536 C   0  0  0  0  0  0  0  0  0  0  0  0
   29.0969  -21.3991    7.7829 N   0  0  0  0  0  0  0  0  0  0  0  0
   29.2238  -22.6635    8.2793 C   0  0  0  0  0  0  0  0  0  0  0  0
   29.3152  -23.0377    9.5993 C   0  0  0  0  0  0  0  0  0  0  0  0
   29.2824  -22.0659   10.6034 C   0  0  0  0  0  0  0  0  0  0  0  0
   29.3524  -22.1983   11.8074 O   0  0  0  0  0  0  0  0  0  0  0  0
   29.4290  -24.4004    9.6599 N   0  0  0  0  0  0  0  0  0  0  0  0
   29.4076  -24.8445    8.4076 C   0  0  0  0  0  0  0  0  0  0  0  0
   29.2833  -23.7996    7.5112 N   0  0  0  0  0  0  0  0  0  0  0  0
  1  2  1  0  0  0  0
  1  6  1  0  0  0  0
  2  3  2  0  0  0  0
  3  4  1  0  0  0  0
  4  5  2  0  0  0  0
  4 10  1  0  0  0  0
  5  6  1  0  0  0  0
  5  8  1  0  0  0  0
  6  7  2  0  0  0  0
  8  9  1  0  0  0  0
  9 10  2  0  0  0  0
M  END
>  <CHROM.1>
29.26101024,-22.55349712,9.29595135,1.95928621,-1.47563062,1.05704544

>  <Name>
ligand

>  <RI>
0

>  <Rbt.Current_Directory>
/home/itssahil/PROJECTS/Mol_Feturizer/New_Systems/rnas/2EEV

>  <Rbt.Executable>
rbdock ($Id: //depot/dev/client3/rdock/2013.1/src/exe/rbdock.cxx#4 $)

>  <Rbt.Library>
libRbt.so (2013.1, Build901 2013/11/27)

>  <Rbt.Parameter_File>
/export/apps/rDock/src/rDock_2013.1_src/data/scripts/dock_solv.prm

>  <Rbt.Receptor>
prm/blind_docking_40.prm

>  <SCORE>
-12.0797

>  <SCORE.INTER>
-12.288

>  <SCORE.INTER.CONST>
1

>  <SCORE.INTER.POLAR>
0

>  <SCORE.INTER.ROT>
0

>  <SCORE.INTER.SOLV>
4.70162

>  <SCORE.INTER.VDW>
-13.3592

>  <SCORE.INTER.norm>
-1.2288

>  <SCORE.INTRA>
0

>  <SCORE.INTRA.DIHEDRAL>
0

>  <SCORE.INTRA.DIHEDRAL.0>
0

>  <SCORE.INTRA.POLAR>
0

>  <SCORE.INTRA.POLAR.0>
0

>  <SCORE.INTRA.REPUL>
0

>  <SCORE.INTRA.REPUL.0>
0

>  <SCORE.INTRA.SOLV>
0

>  <SCORE.INTRA.SOLV.lig_0>
-4.25352

>  <SCORE.INTRA.VDW>
0

>  <SCORE.INTRA.VDW.0>
0

>  <SCORE.INTRA.norm>
0

>  <SCORE.RESTR>
0.208321

>  <SCORE.RESTR.CAVITY>
0.208321

>  <SCORE.RESTR.norm>
0.0208321

>  <SCORE.SYSTEM>
0

>  <SCORE.SYSTEM.CONST>
0

>  <SCORE.SYSTEM.DIHEDRAL>
0

>  <SCORE.SYSTEM.SOLV>
0

>  <SCORE.SYSTEM.norm>
0

>  <SCORE.heavy>
10

>  <SCORE.norm>
-1.20797

>  <RMSD>
26.291

$$$$
ligand
 OpenBabel11021811423D
libRbt.so/2013.1/901 2013/11/27
 10 11  0  0  0  0  0  0  0  0999 V2000
   29.1528  -20.7928   10.0979 N   0  0  0  0  0  0  0  0  0  0  0  0
   29.0564  -20.4527    8.7788 C   0  0  0  0  0  0  0  0  0  0  0  0
   29.0912  -21.3871    7.7932 N   0  0  0  0  0  0  0  0  0  0  0  0
   29.2204  -22.6591    8.2691 C   0  0  0  0  0  0  0  0  0  0  0  0
   29.3185  -23.0539    9.5826 C   0  0  0  0  0  0  0  0  0  0  0  0
   29.2909  -22.0979   10.6020 C   0  0  0  0  0  0  0  0  0  0  0  0
   29.3671  -22.2491   11.8034 O   0  0  0  0  0  0  0  0  0  0  0  0
   29.4325  -24.4174    9.6213 N   0  0  0  0  0  0  0  0  0  0  0  0
   29.4046  -24.8418    8.3623 C   0  0  0  0  0  0  0  0  0  0  0  0
   29.2760  -23.7830    7.4830 N   0  0  0  0  0  0  0  0  0  0  0  0
  1  2  1  0  0  0  0
  1  6  1  0  0  0  0
  2  3  2  0  0  0  0
  3  4  1  0  0  0  0
  4  5  2  0  0  0  0
  4 10  1  0  0  0  0
  5  6  1  0  0  0  0
  5  8  1  0  0  0  0
  6  7  2  0  0  0  0
  8  9  1  0  0  0  0
  9 10  2  0  0  0  0
M  END
>  <CHROM.1>
29.26285520,-22.56498753,9.28713510,1.91323565,-1.47312285,1.02684259

>  <Name>
ligand

>  <RI>
0

>  <Rbt.Current_Directory>
/home/itssahil/PROJECTS/Mol_Feturizer/New_Systems/rnas/2EEV

>  <Rbt.Executable>
rbdock ($Id: //depot/dev/client3/rdock/2013.1/src/exe/rbdock.cxx#4 $)

>  <Rbt.Library>
libRbt.so (2013.1, Build901 2013/11/27)

>  <Rbt.Parameter_File>
/export/apps/rDock/src/rDock_2013.1_src/data/scripts/dock_solv.prm

>  <Rbt.Receptor>
prm/blind_docking_40.prm

>  <SCORE>
-12.1134

>  <SCORE.INTER>
-12.3297

>  <SCORE.INTER.CONST>
1

>  <SCORE.INTER.POLAR>
0

>  <SCORE.INTER.ROT>
0

>  <SCORE.INTER.SOLV>
4.70317

>  <SCORE.INTER.VDW>
-13.3875

>  <SCORE.INTER.norm>
-1.23297

>  <SCORE.INTRA>
0

>  <SCORE.INTRA.DIHEDRAL>
0

>  <SCORE.INTRA.DIHEDRAL.0>
0

>  <SCORE.INTRA.POLAR>
0

>  <SCORE.INTRA.POLAR.0>
0

>  <SCORE.INTRA.REPUL>
0

>  <SCORE.INTRA.REPUL.0>
0

>  <SCORE.INTRA.SOLV>
0

>  <SCORE.INTRA.SOLV.lig_0>
-4.25352

>  <SCORE.INTRA.VDW>
0

>  <SCORE.INTRA.VDW.0>
0

>  <SCORE.INTRA.norm>
0

>  <SCORE.RESTR>
0.21628

>  <SCORE.RESTR.CAVITY>
0.21628

>  <SCORE.RESTR.norm>
0.021628

>  <SCORE.SYSTEM>
0

>  <SCORE.SYSTEM.CONST>
0

>  <SCORE.SYSTEM.DIHEDRAL>
0

>  <SCORE.SYSTEM.SOLV>
0

>  <SCORE.SYSTEM.norm>
0

>  <SCORE.heavy>
10

>  <SCORE.norm>
-1.21134

>  <RMSD>
26.292

$$$$
ligand
 OpenBabel11021811423D
libRbt.so/2013.1/901 2013/11/27
 10 11  0  0  0  0  0  0  0  0999 V2000
   29.1738  -20.7909   10.0759 N   0  0  0  0  0  0  0  0  0  0  0  0
   29.0835  -20.4586    8.7543 C   0  0  0  0  0  0  0  0  0  0  0  0
   29.1079  -21.4000    7.7751 N   0  0  0  0  0  0  0  0  0  0  0  0
   29.2205  -22.6703    8.2599 C   0  0  0  0  0  0  0  0  0  0  0  0
   29.3118  -23.0574    9.5762 C   0  0  0  0  0  0  0  0  0  0  0  0
   29.2948  -22.0942   10.5890 C   0  0  0  0  0  0  0  0  0  0  0  0
   29.3673  -22.2382   11.7915 O   0  0  0  0  0  0  0  0  0  0  0  0
   29.4086  -24.4218    9.6243 N   0  0  0  0  0  0  0  0  0  0  0  0
   29.3772  -24.8545    8.3682 C   0  0  0  0  0  0  0  0  0  0  0  0
   29.2631  -23.8001    7.4815 N   0  0  0  0  0  0  0  0  0  0  0  0
  1  2  1  0  0  0  0
  1  6  1  0  0  0  0
  2  3  2  0  0  0  0
  3  4  1  0  0  0  0
  4  5  2  0  0  0  0
  4 10  1  0  0  0  0
  5  6  1  0  0  0  0
  5  8  1  0  0  0  0
  6  7  2  0  0  0  0
  8  9  1  0  0  0  0
  9 10  2  0  0  0  0
M  END
>  <CHROM.1>
29.26270313,-22.56980174,9.27731783,1.85181685,-1.48442265,0.95889319

>  <Name>
ligand

>  <RI>
0

>  <Rbt.Current_Directory>
/home/itssahil/PROJECTS/Mol_Feturizer/New_Systems/rnas/2EEV

>  <Rbt.Executable>
rbdock ($Id: //depot/dev/client3/rdock/2013.1/src/exe/rbdock.cxx#4 $)

>  <Rbt.Library>
libRbt.so (2013.1, Build901 2013/11/27)

>  <Rbt.Parameter_File>
/export/apps/rDock/src/rDock_2013.1_src/data/scripts/dock_solv.prm

>  <Rbt.Receptor>
prm/blind_docking_40.prm

>  <SCORE>
-12.0379

>  <SCORE.INTER>
-12.2294

>  <SCORE.INTER.CONST>
1

>  <SCORE.INTER.POLAR>
0

>  <SCORE.INTER.ROT>
0

>  <SCORE.INTER.SOLV>
4.68455

>  <SCORE.INTER.VDW>
-13.3144

>  <SCORE.INTER.norm>
-1.22294

>  <SCORE.INTRA>
0

>  <SCORE.INTRA.DIHEDRAL>
0

>  <SCORE.INTRA.DIHEDRAL.0>
0

>  <SCORE.INTRA.POLAR>
0

>  <SCORE.INTRA.POLAR.0>
0

>  <SCORE.INTRA.REPUL>
0

>  <SCORE.INTRA.REPUL.0>
0

>  <SCORE.INTRA.SOLV>
0

>  <SCORE.INTRA.SOLV.lig_0>
-4.25352

>  <SCORE.INTRA.VDW>
0

>  <SCORE.INTRA.VDW.0>
0

>  <SCORE.INTRA.norm>
0

>  <SCORE.RESTR>
0.191488

>  <SCORE.RESTR.CAVITY>
0.191488

>  <SCORE.RESTR.norm>
0.0191488

>  <SCORE.SYSTEM>
0

>  <SCORE.SYSTEM.CONST>
0

>  <SCORE.SYSTEM.DIHEDRAL>
0

>  <SCORE.SYSTEM.SOLV>
0

>  <SCORE.SYSTEM.norm>
0

>  <SCORE.heavy>
10

>  <SCORE.norm>
-1.20379

>  <RMSD>
26.293

$$$$
ligand
 OpenBabel11021811423D
libRbt.so/2013.1/901 2013/11/27
 10 11  0  0  0  0  0  0  0  0999 V2000
   29.1976  -20.8168   10.0911 N   0  0  0  0  0  0  0  0  0  0  0  0
   29.0962  -20.4688    8.7743 C   0  0  0  0  0  0  0  0  0  0  0  0
   29.1049  -21.3992    7.7844 N   0  0  0  0  0  0  0  0  0  0  0  0
   29.2142  -22.6756    8.2535 C   0  0  0  0  0  0  0  0  0  0  0  0
   29.3162  -23.0782    9.5643 C   0  0  0  0  0  0  0  0  0  0  0  0
   29.3153  -22.1265   10.5881 C   0  0  0  0  0  0  0  0  0  0  0  0
   29.3989  -22.2847   11.7881 O   0  0  0  0  0  0  0  0  0  0  0  0
   29.4047  -24.4437    9.5960 N   0  0  0  0  0  0  0  0  0  0  0  0
   29.3581  -24.8618    8.3354 C   0  0  0  0  0  0  0  0  0  0  0  0
   29.2418  -23.7967    7.4620 N   0  0  0  0  0  0  0  0  0  0  0  0
  1  2  1  0  0  0  0
  1  6  1  0  0  0  0
  2  3  2  0  0  0  0
  3  4  1  0  0  0  0
  4  5  2  0  0  0  0
  4 10  1  0  0  0  0
  5  6  1  0  0  0  0
  5  8  1  0  0  0  0
  6  7  2  0  0  0  0
  8  9  1  0  0  0  0
  9 10  2  0  0  0  0
M  END
>  <CHROM.1>
29.26718567,-22.58696520,9.27154132,1.71662242,-1.48312018,0.83558306

>  <Name>
ligand

>  <RI>
0

>  <Rbt.Current_Directory>
/home/itssahil/PROJECTS/Mol_Feturizer/New_Systems/rnas/2EEV

>  <Rbt.Executable>
rbdock ($Id: //depot/dev/client3/rdock/2013.1/src/exe/rbdock.cxx#4 $)

>  <Rbt.Library>
libRbt.so (2013.1, Build901 2013/11/27)

>  <Rbt.Parameter_File>
/export/apps/rDock/src/rDock_2013.1_src/data/scripts/dock_solv.prm

>  <Rbt.Receptor>
prm/blind_docking_40.prm

>  <SCORE>
-12.0253

>  <SCORE.INTER>
-12.2143

>  <SCORE.INTER.CONST>
1

>  <SCORE.INTER.POLAR>
0

>  <SCORE.INTER.ROT>
0

>  <SCORE.INTER.SOLV>
4.66559

>  <SCORE.INTER.VDW>
-13.2981

>  <SCORE.INTER.norm>
-1.22143

>  <SCORE.INTRA>
0

>  <SCORE.INTRA.DIHEDRAL>
0

>  <SCORE.INTRA.DIHEDRAL.0>
0

>  <SCORE.INTRA.POLAR>
0

>  <SCORE.INTRA.POLAR.0>
0

>  <SCORE.INTRA.REPUL>
0

>  <SCORE.INTRA.REPUL.0>
0

>  <SCORE.INTRA.SOLV>
0

>  <SCORE.INTRA.SOLV.lig_0>
-4.25352

>  <SCORE.INTRA.VDW>
0

>  <SCORE.INTRA.VDW.0>
0

>  <SCORE.INTRA.norm>
0

>  <SCORE.RESTR>
0.188964

>  <SCORE.RESTR.CAVITY>
0.188964

>  <SCORE.RESTR.norm>
0.0188964

>  <SCORE.SYSTEM>
0

>  <SCORE.SYSTEM.CONST>
0

>  <SCORE.SYSTEM.DIHEDRAL>
0

>  <SCORE.SYSTEM.SOLV>
0

>  <SCORE.SYSTEM.norm>
0

>  <SCORE.heavy>
10

>  <SCORE.norm>
-1.20253

>  <RMSD>
26.295

$$$$
ligand
 OpenBabel11021811423D
libRbt.so/2013.1/901 2013/11/27
 10 11  0  0  0  0  0  0  0  0999 V2000
   29.1902  -20.8193   10.0879 N   0  0  0  0  0  0  0  0  0  0  0  0
   29.0893  -20.4704    8.7714 C   0  0  0  0  0  0  0  0  0  0  0  0
   29.1016  -21.3998    7.7805 N   0  0  0  0  0  0  0  0  0  0  0  0
   29.2140  -22.6763    8.2485 C   0  0  0  0  0  0  0  0  0  0  0  0
   29.3157  -23.0799    9.5591 C   0  0  0  0  0  0  0  0  0  0  0  0
   29.3111  -22.1292   10.5838 C   0  0  0  0  0  0  0  0  0  0  0  0
   29.3939  -22.2883   11.7838 O   0  0  0  0  0  0  0  0  0  0  0  0
   29.4080  -24.4452    9.5896 N   0  0  0  0  0  0  0  0  0  0  0  0
   29.3639  -24.8622    8.3285 C   0  0  0  0  0  0  0  0  0  0  0  0
   29.2456  -23.7966    7.4560 N   0  0  0  0  0  0  0  0  0  0  0  0
  1  2  1  0  0  0  0
  1  6  1  0  0  0  0
  2  3  2  0  0  0  0
  3  4  1  0  0  0  0
  4  5  2  0  0  0  0
  4 10  1  0  0  0  0
  5  6  1  0  0  0  0
  5  8  1  0  0  0  0
  6  7  2  0  0  0  0
  8  9  1  0  0  0  0
  9 10  2  0  0  0  0
M  END
>  <CHROM.1>
29.26565126,-22.58853297,9.26673524,1.74639244,-1.48171852,0.86619853

>  <Name>
ligand

>  <RI>
0

>  <Rbt.Current_Directory>
/home/itssahil/PROJECTS/Mol_Feturizer/New_Systems/rnas/2EEV

>  <Rbt.Executable>
rbdock ($Id: //depot/dev/client3/rdock/2013.1/src/exe/rbdock.cxx#4 $)

>  <Rbt.Library>
libRbt.so (2013.1, Build901 2013/11/27)

>  <Rbt.Parameter_File>
/export/apps/rDock/src/rDock_2013.1_src/data/scripts/dock_solv.prm

>  <Rbt.Receptor>
prm/blind_docking_40.prm

>  <SCORE>
-12.0023

>  <SCORE.INTER>
-12.1863

>  <SCORE.INTER.CONST>
1

>  <SCORE.INTER.POLAR>
0

>  <SCORE.INTER.ROT>
0

>  <SCORE.INTER.SOLV>
4.66782

>  <SCORE.INTER.VDW>
-13.2801

>  <SCORE.INTER.norm>
-1.21863

>  <SCORE.INTRA>
0

>  <SCORE.INTRA.DIHEDRAL>
0

>  <SCORE.INTRA.DIHEDRAL.0>
0

>  <SCORE.INTRA.POLAR>
0

>  <SCORE.INTRA.POLAR.0>
0

>  <SCORE.INTRA.REPUL>
0

>  <SCORE.INTRA.REPUL.0>
0

>  <SCORE.INTRA.SOLV>
0

>  <SCORE.INTRA.SOLV.lig_0>
-4.25352

>  <SCORE.INTRA.VDW>
0

>  <SCORE.INTRA.VDW.0>
0

>  <SCORE.INTRA.norm>
0

>  <SCORE.RESTR>
0.183991

>  <SCORE.RESTR.CAVITY>
0.183991

>  <SCORE.RESTR.norm>
0.0183991

>  <SCORE.SYSTEM>
0

>  <SCORE.SYSTEM.CONST>
0

>  <SCORE.SYSTEM.DIHEDRAL>
0

>  <SCORE.SYSTEM.SOLV>
0

>  <SCORE.SYSTEM.norm>
0

>  <SCORE.heavy>
10

>  <SCORE.norm>
-1.20023

>  <RMSD>
26.296

$$$$
ligand
 OpenBabel11021811423D
libRbt.so/2013.1/901 2013/11/27
 10 11  0  0  0  0  0  0  0  0999 V2000
   29.1932  -20.8229   10.0904 N   0  0  0  0  0  0  0  0  0  0  0  0
   29.0912  -20.4721    8.7745 C   0  0  0  0  0  0  0  0  0  0  0  0
   29.1020  -21.4001    7.7823 N   0  0  0  0  0  0  0  0  0  0  0  0
   29.2142  -22.6774    8.2484 C   0  0  0  0  0  0  0  0  0  0  0  0
   29.3169  -23.0828    9.5583 C   0  0  0  0  0  0  0  0  0  0  0  0
   29.3139  -22.1336   10.5844 C   0  0  0  0  0  0  0  0  0  0  0  0
   29.3978  -22.2945   11.7840 O   0  0  0  0  0  0  0  0  0  0  0  0
   29.4086  -24.4482    9.5868 N   0  0  0  0  0  0  0  0  0  0  0  0
   29.3629  -24.8634    8.3252 C   0  0  0  0  0  0  0  0  0  0  0  0
   29.2444  -23.7965    7.4542 N   0  0  0  0  0  0  0  0  0  0  0  0
  1  2  1  0  0  0  0
  1  6  1  0  0  0  0
  2  3  2  0  0  0  0
  3  4  1  0  0  0  0
  4  5  2  0  0  0  0
  4 10  1  0  0  0  0
  5  6  1  0  0  0  0
  5  8  1  0  0  0  0
  6  7  2  0  0  0  0
  8  9  1  0  0  0  0
  9 10  2  0  0  0  0
M  END
>  <CHROM.1>
29.26687380,-22.59103219,9.26666766,1.73418094,-1.48148627,0.85544813

>  <Name>
ligand

>  <RI>
0

>  <Rbt.Current_Directory>
/home/itssahil/PROJECTS/Mol_Feturizer/New_Systems/rnas/2EEV

>  <Rbt.Executable>
rbdock ($Id: //depot/dev/client3/rdock/2013.1/src/exe/rbdock.cxx#4 $)

>  <Rbt.Library>
libRbt.so (2013.1, Build901 2013/11/27)

>  <Rbt.Parameter_File>
/export/apps/rDock/src/rDock_2013.1_src/data/scripts/dock_solv.prm

>  <Rbt.Receptor>
prm/blind_docking_40.prm

>  <SCORE>
-12.0044

>  <SCORE.INTER>
-12.1884

>  <SCORE.INTER.CONST>
1

>  <SCORE.INTER.POLAR>
0

>  <SCORE.INTER.ROT>
0

>  <SCORE.INTER.SOLV>
4.6659

>  <SCORE.INTER.VDW>
-13.2809

>  <SCORE.INTER.norm>
-1.21884

>  <SCORE.INTRA>
0

>  <SCORE.INTRA.DIHEDRAL>
0

>  <SCORE.INTRA.DIHEDRAL.0>
0

>  <SCORE.INTRA.POLAR>
0

>  <SCORE.INTRA.POLAR.0>
0

>  <SCORE.INTRA.REPUL>
0

>  <SCORE.INTRA.REPUL.0>
0

>  <SCORE.INTRA.SOLV>
0

>  <SCORE.INTRA.SOLV.lig_0>
-4.25352

>  <SCORE.INTRA.VDW>
0

>  <SCORE.INTRA.VDW.0>
0

>  <SCORE.INTRA.norm>
0

>  <SCORE.RESTR>
0.183983

>  <SCORE.RESTR.CAVITY>
0.183983

>  <SCORE.RESTR.norm>
0.0183983

>  <SCORE.SYSTEM>
0

>  <SCORE.SYSTEM.CONST>
0

>  <SCORE.SYSTEM.DIHEDRAL>
0

>  <SCORE.SYSTEM.SOLV>
0

>  <SCORE.SYSTEM.norm>
0

>  <SCORE.heavy>
10

>  <SCORE.norm>
-1.20044

>  <RMSD>
26.296

$$$$
ligand
 OpenBabel11021811423D
libRbt.so/2013.1/901 2013/11/27
 10 11  0  0  0  0  0  0  0  0999 V2000
   29.1960  -20.8128   10.0992 N   0  0  0  0  0  0  0  0  0  0  0  0
   29.0910  -20.4573    8.7847 C   0  0  0  0  0  0  0  0  0  0  0  0
   29.0947  -21.3821    7.7895 N   0  0  0  0  0  0  0  0  0  0  0  0
   29.2032  -22.6613    8.2511 C   0  0  0  0  0  0  0  0  0  0  0  0
   29.3086  -23.0715    9.5593 C   0  0  0  0  0  0  0  0  0  0  0  0
   29.3129  -22.1256   10.5884 C   0  0  0  0  0  0  0  0  0  0  0  0
   29.4001  -22.2906   11.7873 O   0  0  0  0  0  0  0  0  0  0  0  0
   29.3947  -24.4373    9.5831 N   0  0  0  0  0  0  0  0  0  0  0  0
   29.3432  -24.8482    8.3203 C   0  0  0  0  0  0  0  0  0  0  0  0
   29.2261  -23.7780    7.4532 N   0  0  0  0  0  0  0  0  0  0  0  0
  1  2  1  0  0  0  0
  1  6  1  0  0  0  0
  2  3  2  0  0  0  0
  3  4  1  0  0  0  0
  4  5  2  0  0  0  0
  4 10  1  0  0  0  0
  5  6  1  0  0  0  0
  5  8  1  0  0  0  0
  6  7  2  0  0  0  0
  8  9  1  0  0  0  0
  9 10  2  0  0  0  0
M  END
>  <CHROM.1>
29.25961547,-22.57850993,9.26945276,1.67514346,-1.48225866,0.79986639

>  <Name>
ligand

>  <RI>
0

>  <Rbt.Current_Directory>
/home/itssahil/PROJECTS/Mol_Feturizer/New_Systems/rnas/2EEV

>  <Rbt.Executable>
rbdock ($Id: //depot/dev/client3/rdock/2013.1/src/exe/rbdock.cxx#4 $)

>  <Rbt.Library>
libRbt.so (2013.1, Build901 2013/11/27)

>  <Rbt.Parameter_File>
/export/apps/rDock/src/rDock_2013.1_src/data/scripts/dock_solv.prm

>  <Rbt.Receptor>
prm/blind_docking_40.prm

>  <SCORE>
-12.0722

>  <SCORE.INTER>
-12.2774

>  <SCORE.INTER.CONST>
1

>  <SCORE.INTER.POLAR>
0

>  <SCORE.INTER.ROT>
0

>  <SCORE.INTER.SOLV>
4.66802

>  <SCORE.INTER.VDW>
-13.3409

>  <SCORE.INTER.norm>
-1.22774

>  <SCORE.INTRA>
0

>  <SCORE.INTRA.DIHEDRAL>
0

>  <SCORE.INTRA.DIHEDRAL.0>
0

>  <SCORE.INTRA.POLAR>
0

>  <SCORE.INTRA.POLAR.0>
0

>  <SCORE.INTRA.REPUL>
0

>  <SCORE.INTRA.REPUL.0>
0

>  <SCORE.INTRA.SOLV>
0

>  <SCORE.INTRA.SOLV.lig_0>
-4.25352

>  <SCORE.INTRA.VDW>
0

>  <SCORE.INTRA.VDW.0>
0

>  <SCORE.INTRA.norm>
0

>  <SCORE.RESTR>
0.205157

>  <SCORE.RESTR.CAVITY>
0.205157

>  <SCORE.RESTR.norm>
0.0205157

>  <SCORE.SYSTEM>
0

>  <SCORE.SYSTEM.CONST>
0

>  <SCORE.SYSTEM.DIHEDRAL>
0

>  <SCORE.SYSTEM.SOLV>
0

>  <SCORE.SYSTEM.norm>
0

>  <SCORE.heavy>
10

>  <SCORE.norm>
-1.20722

>  <RMSD>
26.299

$$$$
