@<TRIPOS>MOLECULE
2EEV_rdock.pdb
 1423 1590 0 0 0
SMALL
GASTEIGER

@<TRIPOS>ATOM
      1  C5'       60.8000   -7.0580   21.8740 C.3    15  G15         0.2141
      2  O5'       61.8630   -7.3110   20.9400 O.3    15  G15        -0.2176
      3  C4'       60.5220   -5.5850   22.1310 C.3    15  G15         0.1802
      4  O4'       61.7180   -4.9390   22.6660 O.3    15  G15        -0.3306
      5  C3'       60.1200   -4.7130   20.9470 C.3    15  G15         0.1861
      6  O3'       58.7890   -4.9700   20.4680 O.3    15  G15        -0.3112
      7  C2'       60.5070   -3.3190   21.4410 C.3    15  G15         0.2309
      8  O2'       59.6370   -2.7920   22.4260 O.3    15  G15        -0.2156
      9  C1'       61.8420   -3.6310   22.1200 C.3    15  G15         0.2408
     10  N1        64.8820   -0.9780   18.9970 N.ar   15  G15        -0.1709
     11  C2        63.9300   -0.5160   19.8820 C.ar   15  G15         0.2606
     12  N2        63.7640    0.8170   19.9340 N.pl3  15  G15        -0.0859
     13  N3        63.1960   -1.3060   20.6590 N.ar   15  G15        -0.1918
     14  C4        63.4960   -2.6140   20.4780 C.ar   15  G15         0.1723
     15  C5        64.4270   -3.1750   19.6230 C.ar   15  G15         0.1748
     16  C6        65.2050   -2.3180   18.7950 C.ar   15  G15         0.3023
     17  O6        66.0780   -2.6290   17.9760 O.2    15  G15        -0.2633
     18  N7        64.4370   -4.5600   19.7420 N.ar   15  G15        -0.2173
     19  C8        63.5300   -4.8130   20.6460 C.ar   15  G15         0.1817
     20  N9        62.9140   -3.6800   21.1300 N.ar   15  G15        -0.2693
     21  P         57.5990   -3.9050   20.6910 P.3    16  G16         0.2141
     22  C5'       57.2730   -1.4030   20.0700 C.3    16  G16         0.1812
     23  O5'       58.1530   -2.5120   20.1570 O.3    16  G16        -0.3114
     24  C4'       57.9940   -0.1700   19.5930 C.3    16  G16         0.1773
     25  O4'       59.4310   -0.3230   19.7730 O.3    16  G16        -0.3307
     26  C3'       57.8640    0.0550   18.1030 C.3    16  G16         0.1860
     27  O3'       56.6000    0.6050   17.7690 O.3    16  G16        -0.3112
     28  C2'       59.0570    0.9570   17.8090 C.3    16  G16         0.2309
     29  O2'       58.8210    2.2970   18.2010 O.3    16  G16        -0.2156
     30  C1'       60.1170    0.3530   18.7280 C.3    16  G16         0.2408
     31  N1        63.9650   -0.1700   15.4550 N.ar   16  G16        -0.1709
     32  C2        63.3060    0.9680   15.8570 C.ar   16  G16         0.2606
     33  N2        63.7360    2.1210   15.3270 N.pl3  16  G16        -0.0859
     34  N3        62.2970    0.9750   16.7200 N.ar   16  G16        -0.1918
     35  C4        61.9950   -0.2670   17.1530 C.ar   16  G16         0.1723
     36  C5        62.5890   -1.4680   16.8140 C.ar   16  G16         0.1748
     37  C6        63.6740   -1.4600   15.8890 C.ar   16  G16         0.3023
     38  O6        64.3380   -2.4160   15.4670 O.2    16  G16        -0.2633
     39  N7        61.9800   -2.5230   17.4810 N.ar   16  G16        -0.2173
     40  C8        61.0480   -1.9560   18.2020 C.ar   16  G16         0.1817
     41  N9        61.0090   -0.5880   18.0560 N.ar   16  G16        -0.2693
     42  OP1       57.3180   -3.7690   22.1420 O.3    16  G16        -0.4373
     43  OP2       56.5010   -4.2980   19.7690 O.co2  16  G16        -0.5172
     44  P         55.8990    0.1780   16.3900 P.3    17  A17         0.2141
     45  C5'       57.0590    2.3970   15.6070 C.3    17  A17         0.1812
     46  O5'       56.6780    1.0530   15.3090 O.3    17  A17        -0.3114
     47  C4'       57.8730    2.9650   14.4780 C.3    17  A17         0.1773
     48  O4'       59.2790    2.6920   14.7110 O.3    17  A17        -0.3307
     49  C3'       57.5860    2.3390   13.1270 C.3    17  A17         0.1860
     50  O3'       56.4580    2.9680   12.5410 O.3    17  A17        -0.3112
     51  C2'       58.8820    2.6000   12.3670 C.3    17  A17         0.2309
     52  O2'       58.9770    3.8890   11.7860 O.3    17  A17        -0.2156
     53  C1'       59.9220    2.4160   13.4780 C.3    17  A17         0.2408
     54  N1        63.4800   -0.8550   11.7690 N.ar   17  A17        -0.2040
     55  C2        63.2390    0.4310   11.5000 C.ar   17  A17         0.2016
     56  N3        62.2900    1.2260   11.9810 N.ar   17  A17        -0.2048
     57  C4        61.5100    0.5590   12.8490 C.ar   17  A17         0.1692
     58  C5        61.6320   -0.7650   13.2280 C.ar   17  A17         0.1518
     59  C6        62.6830   -1.4960   12.6470 C.ar   17  A17         0.1919
     60  N6        62.9350   -2.7780   12.9180 N.pl3  17  A17        -0.1054
     61  N7        60.6470   -1.1060   14.1460 N.ar   17  A17        -0.2193
     62  C8        59.9640    0.0020   14.2990 C.ar   17  A17         0.1816
     63  N9        60.4350    1.0500   13.5450 N.ar   17  A17        -0.2693
     64  OP1       54.4740    0.6180   16.4190 O.3    17  A17        -0.4373
     65  OP2       56.2230   -1.2540   16.1560 O.co2  17  A17        -0.5172
     66  P         55.5280    2.1420   11.5320 P.3    18  C18         0.2141
     67  C5'       56.5250    1.4610    9.2610 C.3    18  C18         0.1812
     68  O5'       56.1540    2.4960   10.1230 O.3    18  C18        -0.3114
     69  C4'       57.8500    1.7550    8.6300 C.3    18  C18         0.1773
     70  O4'       58.9200    1.5520    9.5810 O.3    18  C18        -0.3307
     71  C3'       58.1680    0.8460    7.4690 C.3    18  C18         0.1860
     72  O3'       57.5150    1.3830    6.3390 O.3    18  C18        -0.3112
     73  C2'       59.6870    0.9010    7.4290 C.3    18  C18         0.2309
     74  O2'       60.1840    2.0440    6.7590 O.3    18  C18        -0.2156
     75  C1'       60.0160    0.9340    8.9270 C.3    18  C18         0.2420
     76  N1        60.1300   -0.4130    9.5060 N.ar   18  C18        -0.2535
     77  C2        61.1780   -1.2390    9.1140 C.ar   18  C18         0.3532
     78  O2        61.9880   -0.8210    8.2650 O.2    18  C18        -0.2443
     79  N3        61.2880   -2.4690    9.6700 N.ar   18  C18        -0.1739
     80  C4        60.4050   -2.8740   10.5820 C.ar   18  C18         0.1759
     81  N4        60.5670   -4.0840   11.1100 N.pl3  18  C18        -0.1070
     82  C5        59.3210   -2.0550   10.9930 C.ar   18  C18         0.0566
     83  C6        59.2190   -0.8440   10.4330 C.ar   18  C18         0.0850
     84  OP1       54.1400    2.6700   11.5630 O.2    18  C18        -0.5172
     85  OP2       55.7680    0.6940   11.7830 O.co2  18  C18        -0.4373
     86  P         56.4220    0.4980    5.5760 P.3    19  A19         0.2141
     87  C5'       58.4600    0.2870    3.9740 C.3    19  A19         0.1812
     88  O5'       57.3360   -0.3410    4.5810 O.3    19  A19        -0.3114
     89  C4'       59.4480   -0.7320    3.4570 C.3    19  A19         0.1773
     90  O4'       60.3370   -1.1270    4.5370 O.3    19  A19        -0.3307
     91  C3'       58.8400   -2.0440    3.0000 C.3    19  A19         0.1860
     92  O3'       58.3660   -1.9550    1.6650 O.3    19  A19        -0.3112
     93  C2'       60.0240   -2.9910    3.1060 C.3    19  A19         0.2309
     94  O2'       60.9200   -2.8000    2.0380 O.3    19  A19        -0.2156
     95  C1'       60.7030   -2.4860    4.3730 C.3    19  A19         0.2408
     96  N1        61.6550   -6.7180    7.1290 N.ar   19  A19        -0.2040
     97  C2        62.1490   -6.2670    5.9820 C.ar   19  A19         0.2016
     98  N3        61.8500   -5.1500    5.3140 N.ar   19  A19        -0.2048
     99  C4        60.9040   -4.4430    5.9560 C.ar   19  A19         0.1692
    100  C5        60.2970   -4.7780    7.1410 C.ar   19  A19         0.1518
    101  C6        60.7110   -5.9840    7.7540 C.ar   19  A19         0.1919
    102  N6        60.2240   -6.4280    8.9150 N.pl3  19  A19        -0.1054
    103  N7        59.3670   -3.8150    7.5030 N.ar   19  A19        -0.2193
    104  C8        59.4400   -2.9240    6.5410 C.ar   19  A19         0.1816
    105  N9        60.3490   -3.2390    5.5750 N.ar   19  A19        -0.2693
    106  OP1       55.5860    1.4200    4.7780 O.2    19  A19        -0.5172
    107  OP2       55.7840   -0.4070    6.5630 O.co2  19  A19        -0.4373
    108  P         57.1550   -2.9020    1.1860 P.3    20  U20         0.2141
    109  C5'       58.9010   -4.5860    0.2180 C.3    20  U20         0.1812
    110  O5'       57.8230   -4.3440    1.1150 O.3    20  U20        -0.3114
    111  C4'       59.4310   -5.9910    0.3760 C.3    20  U20         0.1773
    112  O4'       60.1340   -6.0990    1.6460 O.3    20  U20        -0.3307
    113  C3'       58.3710   -7.0830    0.4670 C.3    20  U20         0.1860
    114  O3'       57.8930   -7.4670   -0.8190 O.3    20  U20        -0.3112
    115  C2'       59.1370   -8.1960    1.1650 C.3    20  U20         0.2309
    116  O2'       60.0170   -8.8720    0.3000 O.3    20  U20        -0.2156
    117  C1'       59.9720   -7.4050    2.1670 C.3    20  U20         0.2420
    118  N1        59.3300   -7.3300    3.4850 N.ar   20  U20        -0.2534
    119  C2        59.5990   -8.3580    4.3620 C.ar   20  U20         0.3546
    120  O2        60.3220   -9.2980    4.0700 O.2    20  U20        -0.2443
    121  N3        58.9910   -8.2540    5.5870 N.ar   20  U20        -0.1530
    122  C4        58.1530   -7.2600    6.0100 C.ar   20  U20         0.2846
    123  O4        57.6640   -7.3230    7.1420 O.2    20  U20        -0.2650
    124  C5        57.9130   -6.2380    5.0410 C.ar   20  U20         0.0814
    125  C6        58.5030   -6.3080    3.8370 C.ar   20  U20         0.0870
    126  OP1       56.7680   -2.5300   -0.2070 O.2    20  U20        -0.5172
    127  OP2       56.1430   -2.8520    2.2670 O.co2  20  U20        -0.4373
    128  P         56.3980   -8.0470   -0.9920 P.3    21  A21         0.2141
    129  C5'       57.1180  -10.4990   -0.4210 C.3    21  A21         0.1812
    130  O5'       56.3650   -9.3410   -0.0610 O.3    21  A21        -0.3114
    131  C4'       56.8890  -11.6510    0.5460 C.3    21  A21         0.1773
    132  O4'       57.5340  -11.3740    1.8200 O.3    21  A21        -0.3307
    133  C3'       55.4350  -11.8500    0.9580 C.3    21  A21         0.1860
    134  O3'       54.7610  -12.6560    0.0040 O.3    21  A21        -0.3112
    135  C2'       55.5640  -12.6250    2.2660 C.3    21  A21         0.2309
    136  O2'       55.7310  -14.0030    2.0780 O.3    21  A21        -0.2156
    137  C1'       56.8370  -12.0380    2.8620 C.3    21  A21         0.2408
    138  N1        56.5060  -11.5850    7.9680 N.ar   21  A21        -0.2040
    139  C2        56.9530  -12.5760    7.1760 C.ar   21  A21         0.2016
    140  N3        57.0610  -12.6080    5.8400 N.ar   21  A21        -0.2048
    141  C4        56.6380  -11.4480    5.2980 C.ar   21  A21         0.1692
    142  C5        56.1610  -10.3410    5.9770 C.ar   21  A21         0.1518
    143  C6        56.0960  -10.4310    7.3910 C.ar   21  A21         0.1919
    144  N6        55.6530   -9.4500    8.1790 N.pl3  21  A21        -0.1054
    145  N7        55.8370   -9.3280    5.0820 N.ar   21  A21        -0.2193
    146  C8        56.0990   -9.8440    3.9100 C.ar   21  A21         0.1816
    147  N9        56.5580  -11.1310    3.9650 N.ar   21  A21        -0.2693
    148  OP1       56.3520   -8.5270   -2.3980 O.2    21  A21        -0.5172
    149  OP2       55.3950   -7.0510   -0.5200 O.co2  21  A21        -0.4373
    150  P         53.4740  -12.0860   -0.7480 P.3    22  C22         0.2141
    151  C5'       51.3180  -10.9870    0.3230 C.3    22  C22         0.1812
    152  O5'       52.3870  -11.9320    0.4200 O.3    22  C22        -0.3114
    153  C4'       50.7390  -10.6660    1.6960 C.3    22  C22         0.1773
    154  O4'       50.2750  -11.9170    2.2980 O.3    22  C22        -0.3307
    155  C3'       51.7760  -10.1090    2.6830 C.3    22  C22         0.1860
    156  O3'       51.1980   -9.3360    3.7330 O.3    22  C22        -0.3112
    157  C2'       52.3380  -11.3740    3.3180 C.3    22  C22         0.2309
    158  O2'       52.8880  -11.1770    4.6140 O.3    22  C22        -0.2156
    159  C1'       51.0710  -12.2270    3.4100 C.3    22  C22         0.2420
    160  N1        51.3090  -13.6640    3.4520 N.ar   22  C22        -0.2535
    161  C2        51.0980  -14.3470    4.6740 C.ar   22  C22         0.3532
    162  O2        50.6680  -13.6990    5.6800 O.2    22  C22        -0.2443
    163  N3        51.3860  -15.6690    4.7350 N.ar   22  C22        -0.1739
    164  C4        51.8870  -16.2950    3.6640 C.ar   22  C22         0.1759
    165  N4        52.2470  -17.5720    3.7950 N.pl3  22  C22        -0.1070
    166  C5        52.0700  -15.6320    2.4140 C.ar   22  C22         0.0566
    167  C6        51.7660  -14.3310    2.3530 C.ar   22  C22         0.0850
    168  OP1       53.0780  -13.1730   -1.6520 O.2    22  C22        -0.5172
    169  OP2       53.7490  -10.7290   -1.3030 O.co2  22  C22        -0.4373
    170  P         50.5600   -7.8870    3.4380 P.3    23  A23         0.2141
    171  C5'       48.3200   -9.1030    3.9370 C.3    23  A23         0.1812
    172  O5'       49.0450   -8.2000    3.1220 O.3    23  A23        -0.3114
    173  C4'       47.0970   -9.5500    3.2130 C.3    23  A23         0.1773
    174  O4'       47.4920  -10.1280    1.9450 O.3    23  A23        -0.3307
    175  C3'       46.3090  -10.6640    3.8780 C.3    23  A23         0.1860
    176  O3'       45.4740  -10.1120    4.8960 O.3    23  A23        -0.3112
    177  C2'       45.5110  -11.2090    2.6930 C.3    23  A23         0.2309
    178  O2'       44.3440  -10.4530    2.4370 O.3    23  A23        -0.2156
    179  C1'       46.5180  -11.0630    1.5410 C.3    23  A23         0.2408
    180  N1        48.4690  -15.5440    3.2020 N.ar   23  A23        -0.2040
    181  C2        47.9760  -14.4740    3.8590 C.ar   23  A23         0.2016
    182  N3        47.5180  -13.3240    3.3710 N.ar   23  A23        -0.2048
    183  C4        47.6030  -13.3090    2.0220 C.ar   23  A23         0.1692
    184  C5        48.1050  -14.3130    1.2110 C.ar   23  A23         0.1518
    185  C6        48.5400  -15.4950    1.8510 C.ar   23  A23         0.1919
    186  N6        49.0010  -16.5650    1.2040 N.pl3  23  A23        -0.1054
    187  N7        48.0800  -13.9250   -0.1240 N.ar   23  A23        -0.2193
    188  C8        47.5380  -12.7300   -0.0940 C.ar   23  A23         0.1816
    189  N9        47.2010  -12.3040    1.1690 N.ar   23  A23        -0.2693
    190  OP1       51.2090   -7.3340    2.2290 O.2    23  A23        -0.5172
    191  OP2       50.5800   -7.1100    4.7050 O.co2  23  A23        -0.4373
    192  P         45.8040  -10.4080    6.4510 P.3    24  A24         0.2141
    193  C5'       46.2780  -12.9990    6.3230 C.3    24  A24         0.1812
    194  O5'       45.3720  -11.9410    6.5850 O.3    24  A24        -0.3114
    195  C4'       46.4040  -13.8770    7.5470 C.3    24  A24         0.1773
    196  O4'       47.2620  -13.2090    8.5090 O.3    24  A24        -0.3307
    197  C3'       45.1300  -14.0840    8.3530 C.3    24  A24         0.1860
    198  O3'       44.3320  -15.1080    7.7800 O.3    24  A24        -0.3112
    199  C2'       45.7080  -14.5560    9.6830 C.3    24  A24         0.2309
    200  O2'       46.1400  -15.9050    9.6100 O.3    24  A24        -0.2156
    201  C1'       46.9340  -13.6500    9.8150 C.3    24  A24         0.2408
    202  N1        46.4210  -11.8710   14.5890 N.ar   24  A24        -0.2040
    203  C2        46.5250  -13.1170   14.0960 C.ar   24  A24         0.2016
    204  N3        46.6350  -13.5150   12.8400 N.ar   24  A24        -0.2048
    205  C4        46.6160  -12.4570   12.0140 C.ar   24  A24         0.1692
    206  C5        46.5030  -11.1270   12.3680 C.ar   24  A24         0.1518
    207  C6        46.4150  -10.8350   13.7210 C.ar   24  A24         0.1919
    208  N6        46.3400   -9.5970   14.1940 N.pl3  24  A24        -0.1054
    209  N7        46.5150  -10.3150   11.2490 N.ar   24  A24        -0.2193
    210  C8        46.6450  -11.1620   10.2530 C.ar   24  A24         0.1816
    211  N9        46.7280  -12.4730   10.6490 N.ar   24  A24        -0.2693
    212  OP1       44.8860   -9.5640    7.2690 O.3    24  A24        -0.4373
    213  OP2       47.2490  -10.2650    6.6330 O.co2  24  A24        -0.5172
    214  P         42.7760  -14.8400    7.4470 P.3    25  U25         0.2141
    215  C5'       42.8550  -13.6810    5.0920 C.3    25  U25         0.1812
    216  O5'       42.7280  -14.8610    5.8560 O.3    25  U25        -0.3114
    217  C4'       43.3300  -14.0330    3.7050 C.3    25  U25         0.1773
    218  O4'       44.7020  -14.5290    3.7630 O.3    25  U25        -0.3307
    219  C3'       42.5470  -15.1500    3.0530 C.3    25  U25         0.1860
    220  O3'       41.3390  -14.6250    2.4770 O.3    25  U25        -0.3112
    221  C2'       43.5680  -15.7000    2.0470 C.3    25  U25         0.2309
    222  O2'       43.7410  -14.8720    0.9220 O.3    25  U25        -0.2156
    223  C1'       44.8640  -15.6020    2.8550 C.3    25  U25         0.2420
    224  N1        45.2590  -16.8100    3.6060 N.ar   25  U25        -0.2534
    225  C2        45.6730  -17.8860    2.8810 C.ar   25  U25         0.3546
    226  O2        45.7460  -17.8600    1.6750 O.2    25  U25        -0.2443
    227  N3        46.0220  -18.9930    3.6140 N.ar   25  U25        -0.1530
    228  C4        46.0100  -19.1160    4.9770 C.ar   25  U25         0.2846
    229  O4        46.3720  -20.1740    5.4830 O.2    25  U25        -0.2650
    230  C5        45.5880  -17.9470    5.6770 C.ar   25  U25         0.0814
    231  C6        45.2350  -16.8580    4.9870 C.ar   25  U25         0.0870
    232  OP1       42.3830  -13.5180    8.0140 O.3    25  U25        -0.4373
    233  OP2       42.0100  -16.0310    7.8160 O.co2  25  U25        -0.5172
    234  P         39.9460  -15.4430    2.6250 P.3    26  C26         0.2141
    235  C5'       40.6750  -16.7730    0.5280 C.3    26  C26         0.1812
    236  O5'       40.2350  -16.8040    1.8620 O.3    26  C26        -0.3114
    237  C4'       41.1760  -18.1250    0.1200 C.3    26  C26         0.1773
    238  O4'       42.4930  -18.3560    0.6780 O.3    26  C26        -0.3307
    239  C3'       40.3590  -19.2900    0.6570 C.3    26  C26         0.1860
    240  O3'       39.2360  -19.4950   -0.1820 O.3    26  C26        -0.3112
    241  C2'       41.3580  -20.4300    0.5180 C.3    26  C26         0.2309
    242  O2'       41.4870  -20.8560   -0.8200 O.3    26  C26        -0.2156
    243  C1'       42.6510  -19.7390    0.9700 C.3    26  C26         0.2420
    244  N1        42.8110  -19.9030    2.4240 N.ar   26  C26        -0.2535
    245  C2        43.4120  -21.0660    2.8910 C.ar   26  C26         0.3532
    246  O2        43.8740  -21.8720    2.0560 O.2    26  C26        -0.2443
    247  N3        43.4720  -21.2860    4.2270 N.ar   26  C26        -0.1739
    248  C4        42.9620  -20.3880    5.0740 C.ar   26  C26         0.1759
    249  N4        42.9840  -20.6680    6.3770 N.pl3  26  C26        -0.1070
    250  C5        42.3950  -19.1680    4.6240 C.ar   26  C26         0.0566
    251  C6        42.3450  -18.9640    3.3020 C.ar   26  C26         0.0850
    252  OP1       38.9330  -14.6960    1.8370 O.2    26  C26        -0.5172
    253  OP2       39.6800  -15.7270    4.0680 O.co2  26  C26        -0.4373
    254  P         37.8470  -20.0100    0.4460 P.3    27  G27         0.2141
    255  C5'       37.9940  -21.4380   -1.7340 C.3    27  G27         0.1812
    256  O5'       37.6000  -21.3510   -0.3750 O.3    27  G27        -0.3114
    257  C4'       38.0240  -22.8870   -2.1910 C.3    27  G27         0.1773
    258  O4'       39.4220  -23.3010   -2.3040 O.3    27  G27        -0.3307
    259  C3'       37.3540  -23.9750   -1.3370 C.3    27  G27         0.1860
    260  O3'       35.9620  -24.1870   -1.6730 O.3    27  G27        -0.3112
    261  C2'       38.1300  -25.2000   -1.8080 C.3    27  G27         0.2309
    262  O2'       37.6140  -25.5570   -3.0830 O.3    27  G27        -0.2156
    263  C1'       39.5710  -24.6570   -1.8610 C.3    27  G27         0.2408
    264  N1        42.2530  -27.1950    1.8180 N.ar   27  G27        -0.1709
    265  C2        41.9850  -27.6080    0.5290 C.ar   27  G27         0.2606
    266  N2        42.4120  -28.8420    0.2390 N.pl3  27  G27        -0.0859
    267  N3        41.3460  -26.8600   -0.3920 N.ar   27  G27        -0.1918
    268  C4        40.9920  -25.6360    0.1040 C.ar   27  G27         0.1723
    269  C5        41.2400  -25.1270    1.3730 C.ar   27  G27         0.1748
    270  C6        41.9160  -25.9520    2.3420 C.ar   27  G27         0.3023
    271  O6        42.2000  -25.6920    3.5210 O.2    27  G27        -0.2633
    272  N7        40.7550  -23.8220    1.4860 N.ar   27  G27        -0.2173
    273  C8        40.1930  -23.5680    0.3330 C.ar   27  G27         0.1817
    274  N9        40.2460  -24.6270   -0.5500 N.ar   27  G27        -0.2693
    275  OP1       36.8180  -18.9770    0.1030 O.2    27  G27        -0.5172
    276  OP2       38.0510  -20.3880    1.8760 O.co2  27  G27        -0.4373
    277  P         34.9280  -24.8330   -0.5680 P.3    28  C28         0.2141
    278  C5'       35.8900  -27.1520   -1.4470 C.3    28  C28         0.1812
    279  O5'       35.4680  -26.3350   -0.3300 O.3    28  C28        -0.3114
    280  C4'       36.6060  -28.4400   -1.0100 C.3    28  C28         0.1773
    281  O4'       38.0190  -28.2240   -0.7550 O.3    28  C28        -0.3307
    282  C3'       36.1030  -29.2640    0.1690 C.3    28  C28         0.1860
    283  O3'       35.0210  -30.0650   -0.2660 O.3    28  C28        -0.3112
    284  C2'       37.3300  -30.1250    0.4480 C.3    28  C28         0.2309
    285  O2'       37.5200  -31.1160   -0.5260 O.3    28  C28        -0.2156
    286  C1'       38.4510  -29.0970    0.2860 C.3    28  C28         0.2420
    287  N1        38.6660  -28.3270    1.5440 N.ar   28  C28        -0.2535
    288  C2        39.4080  -28.9550    2.5990 C.ar   28  C28         0.3532
    289  O2        39.8780  -30.1050    2.4200 O.2    28  C28        -0.2443
    290  N3        39.5840  -28.2980    3.7690 N.ar   28  C28        -0.1739
    291  C4        39.0670  -27.0790    3.9450 C.ar   28  C28         0.1759
    292  N4        39.2480  -26.5020    5.1440 N.pl3  28  C28        -0.1070
    293  C5        38.3330  -26.4030    2.8980 C.ar   28  C28         0.0566
    294  C6        38.1590  -27.0680    1.7170 C.ar   28  C28         0.0850
    295  OP1       33.5820  -24.8820   -1.1780 O.2    28  C28        -0.5172
    296  OP2       35.1150  -24.0650    0.7080 O.co2  28  C28        -0.4373
    297  P         33.9100  -30.5620    0.7590 P.3    29  G29         0.2141
    298  C5'       35.0280  -32.9400    0.9010 C.3    29  G29         0.1812
    299  O5'       34.6540  -31.7310    1.5470 O.3    29  G29        -0.3114
    300  C4'       35.7410  -33.8390    1.8770 C.3    29  G29         0.1773
    301  O4'       36.9770  -33.2050    2.3140 O.3    29  G29        -0.3307
    302  C3'       34.9710  -34.0810    3.1550 C.3    29  G29         0.1860
    303  O3'       34.0260  -35.1170    2.9860 O.3    29  G29        -0.3112
    304  C2'       36.0950  -34.4820    4.0930 C.3    29  G29         0.2309
    305  O2'       36.5600  -35.7700    3.8250 O.3    29  G29        -0.2156
    306  C1'       37.1860  -33.4820    3.6940 C.3    29  G29         0.2408
    307  N1        38.3720  -31.1210    8.0360 N.ar   29  G29        -0.1709
    308  C2        38.5290  -32.4380    7.6780 C.ar   29  G29         0.2606
    309  N2        39.0970  -33.2410    8.5980 N.pl3  29  G29        -0.0859
    310  N3        38.1540  -32.9400    6.5110 N.ar   29  G29        -0.1918
    311  C4        37.5750  -32.0190    5.7270 C.ar   29  G29         0.1723
    312  C5        37.3460  -30.6830    5.9930 C.ar   29  G29         0.1748
    313  C6        37.7780  -30.1450    7.2410 C.ar   29  G29         0.3023
    314  O6        37.6850  -28.9900    7.6520 O.2    29  G29        -0.2633
    315  N7        36.7070  -30.0710    4.9340 N.ar   29  G29        -0.2173
    316  C8        36.5960  -31.0230    4.0330 C.ar   29  G29         0.1817
    317  N9        37.1170  -32.2260    4.4510 N.ar   29  G29        -0.2693
    318  OP1       32.7750  -31.1480    0.0140 O.2    29  G29        -0.5172
    319  OP2       33.6190  -29.5170    1.7660 O.co2  29  G29        -0.4373
    320  P         32.5370  -34.9430    3.5490 P.3    30  U30         0.2141
    321  C5'       32.8890  -36.6300    5.4910 C.3    30  U30         0.1812
    322  O5'       32.6570  -35.2940    5.0900 O.3    30  U30        -0.3114
    323  C4'       33.2840  -36.6520    6.9410 C.3    30  U30         0.1773
    324  O4'       34.5710  -35.9860    7.1130 O.3    30  U30        -0.3307
    325  C3'       32.3520  -35.8580    7.8400 C.3    30  U30         0.1860
    326  O3'       31.1680  -36.6230    8.1140 O.3    30  U30        -0.3112
    327  C2'       33.2440  -35.6630    9.0560 C.3    30  U30         0.2309
    328  O2'       33.3740  -36.8820    9.7410 O.3    30  U30        -0.2156
    329  C1'       34.5830  -35.3290    8.3810 C.3    30  U30         0.2420
    330  N1        34.7180  -33.8770    8.1860 N.ar   30  U30        -0.2534
    331  C2        35.1080  -33.1290    9.2860 C.ar   30  U30         0.3546
    332  O2        35.4120  -33.6500   10.3560 O.2    30  U30        -0.2443
    333  N3        35.1200  -31.7560    9.0830 N.ar   30  U30        -0.1530
    334  C4        34.8030  -31.0860    7.9020 C.ar   30  U30         0.2846
    335  O4        34.8190  -29.8500    7.8610 O.2    30  U30        -0.2650
    336  C5        34.4500  -31.9480    6.8110 C.ar   30  U30         0.0814
    337  C6        34.4250  -33.2690    6.9830 C.ar   30  U30         0.0870
    338  OP1       31.7120  -36.0010    2.9150 O.2    30  U30        -0.5172
    339  OP2       32.1040  -33.5370    3.4900 O.co2  30  U30        -0.4373
    340  P         29.7870  -35.8770    8.4360 P.3    31  G31         0.2141
    341  C5'       30.2640  -36.2630   10.9810 C.3    31  G31         0.1812
    342  O5'       29.9790  -35.3650    9.9290 O.3    31  G31        -0.3114
    343  C4'       30.8190  -35.5080   12.1580 C.3    31  G31         0.1773
    344  O4'       32.1000  -34.9010   11.8230 O.3    31  G31        -0.3307
    345  C3'       29.9980  -34.3320   12.6670 C.3    31  G31         0.1860
    346  O3'       28.9590  -34.7650   13.5370 O.3    31  G31        -0.3112
    347  C2'       31.0420  -33.6240   13.5010 C.3    31  G31         0.2309
    348  O2'       31.3210  -34.4010   14.6380 O.3    31  G31        -0.2156
    349  C1'       32.2400  -33.6870   12.5570 C.3    31  G31         0.2408
    350  N1        32.7710  -28.6780   12.3390 N.ar   31  G31        -0.1709
    351  C2        32.9460  -29.5500   13.4010 C.ar   31  G31         0.2606
    352  N2        33.2310  -29.0230   14.6070 N.pl3  31  G31        -0.0859
    353  N3        32.8300  -30.8550   13.2990 N.ar   31  G31        -0.1918
    354  C4        32.4660  -31.2450   12.0460 C.ar   31  G31         0.1723
    355  C5        32.2410  -30.4720   10.9320 C.ar   31  G31         0.1748
    356  C6        32.4180  -29.0600   11.0360 C.ar   31  G31         0.3023
    357  O6        32.3060  -28.2200   10.1510 O.2    31  G31        -0.2633
    358  N7        31.8610  -31.2560    9.8500 N.ar   31  G31        -0.2173
    359  C8        31.8550  -32.4790   10.3280 C.ar   31  G31         0.1817
    360  N9        32.1960  -32.5330   11.6610 N.ar   31  G31        -0.2693
    361  OP1       28.7080  -36.8730    8.3580 O.3    31  G31        -0.4373
    362  OP2       29.6840  -34.6560    7.6200 O.co2  31  G31        -0.5172
    363  P         27.6680  -33.8260   13.7850 P.3    32  G32         0.2141
    364  C5'       28.7870  -32.7020   15.8970 C.3    32  G32         0.1812
    365  O5'       28.1930  -32.5600   14.6150 O.3    32  G32        -0.3114
    366  C4'       29.1420  -31.3530   16.4460 C.3    32  G32         0.1773
    367  O4'       30.2270  -30.7640   15.6740 O.3    32  G32        -0.3307
    368  C3'       28.0380  -30.3180   16.3700 C.3    32  G32         0.1860
    369  O3'       27.1240  -30.5010   17.4390 O.3    32  G32        -0.3112
    370  C2'       28.8320  -29.0270   16.4560 C.3    32  G32         0.2309
    371  O2'       29.3790  -28.8030   17.7440 O.3    32  G32        -0.2156
    372  C1'       30.0130  -29.3640   15.5400 C.3    32  G32         0.2408
    373  N1        29.5150  -25.7220   11.9880 N.ar   32  G32        -0.1709
    374  C2        29.8100  -25.5930   13.3250 C.ar   32  G32         0.2606
    375  N2        29.8920  -24.3310   13.7790 N.pl3  32  G32        -0.0859
    376  N3        29.9720  -26.6330   14.1610 N.ar   32  G32        -0.1918
    377  C4        29.7440  -27.8110   13.5430 C.ar   32  G32         0.1723
    378  C5        29.4010  -28.0310   12.2290 C.ar   32  G32         0.1748
    379  C6        29.2830  -26.9230   11.3380 C.ar   32  G32         0.3023
    380  O6        29.0140  -26.9400   10.1080 O.2    32  G32        -0.2633
    381  N7        29.2150  -29.3840   11.9890 N.ar   32  G32        -0.2173
    382  C8        29.4460  -29.9540   13.1470 C.ar   32  G32         0.1817
    383  N9        29.7560  -29.0590   14.1320 N.ar   32  G32        -0.2693
    384  OP1       26.7880  -34.6300   14.6760 O.3    32  G32        -0.4373
    385  OP2       27.1090  -33.2350   12.5500 O.co2  32  G32        -0.5172
    386  P         25.6350  -29.9430   17.3060 P.3    33  A33         0.2141
    387  C5'       26.3070  -27.7730   18.6650 C.3    33  A33         0.1812
    388  O5'       25.7990  -28.3510   17.4640 O.3    33  A33        -0.3114
    389  C4'       26.4170  -26.2720   18.5170 C.3    33  A33         0.1773
    390  O4'       27.4030  -25.9220   17.5110 O.3    33  A33        -0.3307
    391  C3'       25.1670  -25.5800   18.0180 C.3    33  A33         0.1860
    392  O3'       24.2160  -25.4800   19.0700 O.3    33  A33        -0.3112
    393  C2'       25.7410  -24.2340   17.5920 C.3    33  A33         0.2309
    394  O2'       26.0920  -23.3780   18.6810 O.3    33  A33        -0.2156
    395  C1'       27.0220  -24.6890   16.8980 C.3    33  A33         0.2408
    396  N1        26.3480  -22.2370   12.4590 N.ar   33  A33        -0.2040
    397  C2        26.4670  -21.8170   13.7250 C.ar   33  A33         0.2016
    398  N3        26.6160  -22.5280   14.8390 N.ar   33  A33        -0.2048
    399  C4        26.6310  -23.8470   14.5680 C.ar   33  A33         0.1692
    400  C5        26.5170  -24.4350   13.3220 C.ar   33  A33         0.1518
    401  C6        26.3900  -23.5660   12.2140 C.ar   33  A33         0.1919
    402  N6        26.3420  -23.9830   10.9470 N.pl3  33  A33        -0.1054
    403  N7        26.5720  -25.8130   13.4250 N.ar   33  A33        -0.2193
    404  C8        26.7420  -26.0320   14.7120 C.ar   33  A33         0.1816
    405  N9        26.8020  -24.8790   15.4600 N.ar   33  A33        -0.2693
    406  OP1       24.8790  -30.4990   18.4520 O.3    33  A33        -0.4373
    407  OP2       25.1050  -30.1200   15.9390 O.co2  33  A33        -0.5172
    408  P         22.6550  -25.5680   18.7480 P.3    34  U34         0.2141
    409  C5'       22.8740  -22.9990   18.5470 C.3    34  U34         0.1812
    410  O5'       22.3120  -24.1850   18.0290 O.3    34  U34        -0.3114
    411  C4'       22.6160  -21.8000   17.6580 C.3    34  U34         0.1773
    412  O4'       23.3470  -21.9750   16.4140 O.3    34  U34        -0.3307
    413  C3'       21.1570  -21.6350   17.2390 C.3    34  U34         0.1860
    414  O3'       20.7860  -20.2910   17.0830 O.3    34  U34        -0.3112
    415  C2'       21.0670  -22.3660   15.9130 C.3    34  U34         0.2309
    416  O2'       20.1300  -21.7860   15.0370 O.3    34  U34        -0.2156
    417  C1'       22.4400  -22.0750   15.3330 C.3    34  U34         0.2420
    418  N1        22.8810  -23.0770   14.3540 N.ar   34  U34        -0.2534
    419  C2        23.0000  -22.6620   13.0400 C.ar   34  U34         0.3546
    420  O2        22.9230  -21.5160   12.7070 O.2    34  U34        -0.2443
    421  N3        23.2400  -23.6570   12.1350 N.ar   34  U34        -0.1530
    422  C4        23.4150  -24.9830   12.4100 C.ar   34  U34         0.2846
    423  O4        23.5480  -25.7680   11.4830 O.2    34  U34        -0.2650
    424  C5        23.3540  -25.3240   13.8020 C.ar   34  U34         0.0814
    425  C6        23.0970  -24.3750   14.7010 C.ar   34  U34         0.0870
    426  OP1       22.0000  -25.5490   20.0880 O.3    34  U34        -0.4373
    427  OP2       22.4610  -26.7110   17.8130 O.co2  34  U34        -0.5172
    428  P         19.7030  -19.6380   18.0860 P.3    35  A35         0.2141
    429  C5'       21.1670  -17.4930   18.0550 C.3    35  A35         0.1812
    430  O5'       19.9150  -18.0900   17.8320 O.3    35  A35        -0.3114
    431  C4'       21.0290  -15.9970   18.0390 C.3    35  A35         0.1773
    432  O4'       21.1420  -15.5280   16.6690 O.3    35  A35        -0.3307
    433  C3'       19.6930  -15.4710   18.5190 C.3    35  A35         0.1860
    434  O3'       19.8610  -14.1990   19.0930 O.3    35  A35        -0.3112
    435  C2'       18.8490  -15.4330   17.2510 C.3    35  A35         0.2309
    436  O2'       17.8350  -14.4380   17.2790 O.3    35  A35        -0.2156
    437  C1'       19.8900  -15.0750   16.1930 C.3    35  A35         0.2408
    438  N1        17.6650  -14.6680   11.6020 N.ar   35  A35        -0.2040
    439  C2        17.8480  -13.7880   12.6020 C.ar   35  A35         0.2016
    440  N3        18.4580  -13.9590   13.7610 N.ar   35  A35        -0.2048
    441  C4        18.9410  -15.2100   13.8650 C.ar   35  A35         0.1692
    442  C5        18.8360  -16.2270   12.9250 C.ar   35  A35         0.1518
    443  C6        18.1440  -15.9210   11.7350 C.ar   35  A35         0.1919
    444  N6        17.9320  -16.8020   10.7450 N.pl3  35  A35        -0.1054
    445  N7        19.4500  -17.3850   13.3800 N.ar   35  A35        -0.2193
    446  C8        19.9070  -17.0510   14.5700 C.ar   35  A35         0.1816
    447  N9        19.6110  -15.7540   14.9310 N.ar   35  A35        -0.2693
    448  OP1       20.1290  -19.9670   19.4720 O.3    35  A35        -0.4373
    449  OP2       18.3320  -19.9720   17.6440 O.co2  35  A35        -0.5172
    450  P         19.9490  -14.0660   20.6870 P.3    36  U36         0.2141
    451  C5'       22.4970  -14.2630   21.3090 C.3    36  U36         0.1812
    452  O5'       21.2380  -14.8970   21.0860 O.3    36  U36        -0.3114
    453  C4'       23.2830  -15.0480   22.3370 C.3    36  U36         0.1773
    454  O4'       22.5110  -15.0810   23.5780 O.3    36  U36        -0.3307
    455  C3'       23.5480  -16.5110   21.9830 C.3    36  U36         0.1860
    456  O3'       24.7280  -16.9640   22.5990 O.3    36  U36        -0.3112
    457  C2'       22.4110  -17.2270   22.6920 C.3    36  U36         0.2309
    458  O2'       22.7750  -18.5440   23.0180 O.3    36  U36        -0.2156
    459  C1'       22.3200  -16.4100   23.9820 C.3    36  U36         0.2420
    460  N1        21.0250  -16.5280   24.6730 N.ar   36  U36        -0.2534
    461  C2        21.0280  -17.1380   25.9220 C.ar   36  U36         0.3546
    462  O2        22.0300  -17.5890   26.4270 O.2    36  U36        -0.2443
    463  N3        19.8030  -17.2010   26.5400 N.ar   36  U36        -0.1530
    464  C4        18.6020  -16.7450   26.0540 C.ar   36  U36         0.2846
    465  O4        17.5740  -16.8950   26.7320 O.2    36  U36        -0.2650
    466  C5        18.6730  -16.1510   24.7420 C.ar   36  U36         0.0814
    467  C6        19.8500  -16.0680   24.1210 C.ar   36  U36         0.0870
    468  OP1       18.7300  -14.7310   21.2110 O.3    36  U36        -0.4373
    469  OP2       20.2110  -12.6360   20.9850 O.co2  36  U36        -0.5172
    470  P         26.1360  -16.7830   21.8720 P.3    37  G37         0.2141
    471  C5'       26.2050  -19.2810   21.0380 C.3    37  G37         0.1812
    472  O5'       26.1260  -17.9110   20.7410 O.3    37  G37        -0.3114
    473  C4'       26.2510  -20.0610   19.7350 C.3    37  G37         0.1773
    474  O4'       25.0080  -19.8730   19.0130 O.3    37  G37        -0.3307
    475  C3'       27.3060  -19.5240   18.7770 C.3    37  G37         0.1860
    476  O3'       28.5660  -20.0660   19.1450 O.3    37  G37        -0.3112
    477  C2'       26.7610  -19.9760   17.4170 C.3    37  G37         0.2309
    478  O2'       27.0130  -21.3510   17.1880 O.3    37  G37        -0.2156
    479  C1'       25.2640  -19.7330   17.6090 C.3    37  G37         0.2408
    480  N1        23.4140  -16.6880   13.9380 N.ar   37  G37        -0.1709
    481  C2        23.6630  -18.0290   13.8950 C.ar   37  G37         0.2606
    482  N2        23.3100  -18.6570   12.7560 N.pl3  37  G37        -0.0859
    483  N3        24.2040  -18.7240   14.9030 N.ar   37  G37        -0.1918
    484  C4        24.4020  -17.9600   15.9950 C.ar   37  G37         0.1723
    485  C5        24.1650  -16.6070   16.1450 C.ar   37  G37         0.1748
    486  C6        23.6640  -15.8700   15.0480 C.ar   37  G37         0.3023
    487  O6        23.4590  -14.6740   14.9870 O.2    37  G37        -0.2633
    488  N7        24.4720  -16.1890   17.4230 N.ar   37  G37        -0.2173
    489  C8        24.8800  -17.2700   18.0270 C.ar   37  G37         0.1817
    490  N9        24.8600  -18.3850   17.2160 N.ar   37  G37        -0.2693
    491  OP1       27.2300  -17.0900   22.8000 O.3    37  G37        -0.4373
    492  OP2       26.1350  -15.5170   21.1360 O.co2  37  G37        -0.5172
    493  P         29.9200  -19.2680   18.8040 P.3    38  G38         0.2141
    494  C5'       30.2310  -20.5260   16.4940 C.3    38  G38         0.1812
    495  O5'       29.9360  -19.3170   17.2030 O.3    38  G38        -0.3114
    496  C4'       30.1040  -20.2810   14.9870 C.3    38  G38         0.1773
    497  O4'       28.7310  -19.9450   14.6730 O.3    38  G38        -0.3307
    498  C3'       30.9160  -19.1070   14.4750 C.3    38  G38         0.1860
    499  O3'       32.2030  -19.6120   14.1630 O.3    38  G38        -0.3112
    500  C2'       30.1350  -18.7050   13.2240 C.3    38  G38         0.2309
    501  O2'       30.3540  -19.5470   12.1090 O.3    38  G38        -0.2156
    502  C1'       28.7000  -18.9480   13.6680 C.3    38  G38         0.2408
    503  N1        25.9230  -14.8840   12.6100 N.ar   38  G38        -0.1709
    504  C2        26.0960  -16.0380   11.8800 C.ar   38  G38         0.2606
    505  N2        25.5410  -16.0790   10.6710 N.pl3  38  G38        -0.0859
    506  N3        26.7810  -17.0760   12.3080 N.ar   38  G38        -0.1918
    507  C4        27.2820  -16.8760   13.5420 C.ar   38  G38         0.1723
    508  C5        27.1540  -15.7760   14.3610 C.ar   38  G38         0.1748
    509  C6        26.4500  -14.6580   13.8930 C.ar   38  G38         0.3023
    510  O6        26.2900  -13.5700   14.4580 O.2    38  G38        -0.2633
    511  N7        27.8170  -15.9700   15.5590 N.ar   38  G38        -0.2173
    512  C8        28.3540  -17.1530   15.4430 C.ar   38  G38         0.1817
    513  N9        28.1140  -17.7290   14.2100 N.ar   38  G38        -0.2693
    514  OP1       31.0240  -20.0620   19.3190 O.3    38  G38        -0.4373
    515  OP2       29.8090  -17.8170   19.1330 O.co2  38  G38        -0.5172
    516  P         33.5280  -18.7520   14.4560 P.3    39  C39         0.2141
    517  C5'       34.6200  -20.2760   16.3620 C.3    39  C39         0.1812
    518  O5'       34.5840  -19.8160   15.0380 O.3    39  C39        -0.3114
    519  C4'       34.5470  -21.8170   16.4260 C.3    39  C39         0.1773
    520  O4'       33.4380  -22.3090   15.6310 O.3    39  C39        -0.3307
    521  C3'       35.6490  -22.8130   16.0340 C.3    39  C39         0.1860
    522  O3'       36.7820  -22.8410   16.9040 O.3    39  C39        -0.3112
    523  C2'       34.8580  -24.1010   16.2270 C.3    39  C39         0.2309
    524  O2'       34.6070  -24.3450   17.6060 O.3    39  C39        -0.2156
    525  C1'       33.5180  -23.7240   15.5790 C.3    39  C39         0.2420
    526  N1        33.3560  -24.1550   14.1830 N.ar   39  C39        -0.2535
    527  C2        33.2220  -25.5230   13.9170 C.ar   39  C39         0.3532
    528  O2        33.2510  -26.3150   14.8660 O.2    39  C39        -0.2443
    529  N3        33.0560  -25.9350   12.6350 N.ar   39  C39        -0.1739
    530  C4        33.0010  -25.0300   11.6440 C.ar   39  C39         0.1759
    531  N4        32.8010  -25.4700   10.3920 N.pl3  39  C39        -0.1070
    532  C5        33.1410  -23.6260   11.8910 C.ar   39  C39         0.0566
    533  C6        33.3210  -23.2410   13.1560 C.ar   39  C39         0.0850
    534  OP1       33.2190  -17.5840   15.3080 O.3    39  C39        -0.4373
    535  OP2       34.1070  -18.5170   13.1350 O.co2  39  C39        -0.5172
    536  P         38.1320  -23.6150   16.4760 P.3    40  A40         0.2141
    537  C5'       37.7180  -25.8020   17.9470 C.3    40  A40         0.1812
    538  O5'       37.8050  -25.1860   16.6720 O.3    40  A40        -0.3114
    539  C4'       37.6700  -27.3200   17.7920 C.3    40  A40         0.1773
    540  O4'       36.4440  -27.7430   17.1120 O.3    40  A40        -0.3307
    541  C3'       38.7680  -27.8830   16.9180 C.3    40  A40         0.1860
    542  O3'       39.9790  -28.0210   17.6180 O.3    40  A40        -0.3112
    543  C2'       38.1860  -29.2090   16.4730 C.3    40  A40         0.2309
    544  O2'       38.2900  -30.2250   17.4490 O.3    40  A40        -0.2156
    545  C1'       36.7380  -28.8140   16.2150 C.3    40  A40         0.2408
    546  N1        35.6950  -30.2780   11.3150 N.ar   40  A40        -0.2040
    547  C2        35.9450  -30.9930   12.4450 C.ar   40  A40         0.2016
    548  N3        36.2500  -30.5560   13.6810 N.ar   40  A40        -0.2048
    549  C4        36.2890  -29.2100   13.7180 C.ar   40  A40         0.1692
    550  C5        36.0900  -28.3500   12.6350 C.ar   40  A40         0.1518
    551  C6        35.7810  -28.9310   11.3780 C.ar   40  A40         0.1919
    552  N6        35.5720  -28.2030   10.2430 N.pl3  40  A40        -0.1054
    553  N7        36.2420  -27.0310   13.0230 N.ar   40  A40        -0.2193
    554  C8        36.4940  -27.1030   14.3230 C.ar   40  A40         0.1816
    555  N9        36.5210  -28.3900   14.8190 N.ar   40  A40        -0.2693
    556  OP1       39.1760  -23.2370   17.4500 O.3    40  A40        -0.4373
    557  OP2       38.4440  -23.4690   15.0390 O.co2  40  A40        -0.5172
    558  P         41.3610  -27.8640   16.8400 P.3    41  C41         0.2141
    559  C5'       41.4890  -30.4820   16.6070 C.3    41  C41         0.1812
    560  O5'       41.5010  -29.1910   15.9580 O.3    41  C41        -0.3114
    561  C4'       41.2910  -31.5850   15.5800 C.3    41  C41         0.1773
    562  O4'       39.9690  -31.4740   14.9960 O.3    41  C41        -0.3307
    563  C3'       42.1780  -31.5170   14.3490 C.3    41  C41         0.1860
    564  O3'       43.5000  -31.9590   14.6210 O.3    41  C41        -0.3112
    565  C2'       41.4340  -32.4600   13.4390 C.3    41  C41         0.2309
    566  O2'       41.5060  -33.8240   13.8360 O.3    41  C41        -0.2156
    567  C1'       40.0110  -31.9510   13.6620 C.3    41  C41         0.2420
    568  N1        39.6890  -30.8410   12.7340 N.ar   41  C41        -0.2535
    569  C2        39.3490  -31.1830   11.4360 C.ar   41  C41         0.3532
    570  O2        39.3160  -32.4050   11.1340 O.2    41  C41        -0.2443
    571  N3        39.0710  -30.1970   10.5500 N.ar   41  C41        -0.1739
    572  C4        39.1320  -28.9070   10.9320 C.ar   41  C41         0.1759
    573  N4        38.8440  -27.9560   10.0210 N.pl3  41  C41        -0.1070
    574  C5        39.4840  -28.5340   12.2610 C.ar   41  C41         0.0566
    575  C6        39.7390  -29.5260   13.1220 C.ar   41  C41         0.0850
    576  OP1       42.4080  -27.8470   17.8690 O.3    41  C41        -0.4373
    577  OP2       41.2570  -26.7130   15.8930 O.co2  41  C41        -0.5172
    578  P         44.7320  -31.3610   13.7990 P.3    42  G42         0.2141
    579  C5'       44.6960  -33.4090   12.1540 C.3    42  G42         0.1812
    580  O5'       44.5880  -32.0030   12.3440 O.3    42  G42        -0.3114
    581  C4'       44.2650  -33.7830   10.7510 C.3    42  G42         0.1773
    582  O4'       42.9000  -33.3490   10.5280 O.3    42  G42        -0.3307
    583  C3'       45.0100  -33.1220    9.6010 C.3    42  G42         0.1860
    584  O3'       46.2430  -33.7670    9.3400 O.3    42  G42        -0.3112
    585  C2'       44.0350  -33.3700    8.4580 C.3    42  G42         0.2309
    586  O2'       44.0760  -34.6940    7.9960 O.3    42  G42        -0.2156
    587  C1'       42.7040  -33.0940    9.1460 C.3    42  G42         0.2408
    588  N1        40.7640  -29.6870    5.9780 N.ar   42  G42        -0.1709
    589  C2        40.9600  -31.0380    5.8060 C.ar   42  G42         0.2606
    590  N2        40.6240  -31.5610    4.6100 N.pl3  42  G42        -0.0859
    591  N3        41.4560  -31.8310    6.7430 N.ar   42  G42        -0.1918
    592  C4        41.7630  -31.1550    7.8610 C.ar   42  G42         0.1723
    593  C5        41.6140  -29.8050    8.1310 C.ar   42  G42         0.1748
    594  C6        41.0660  -28.9740    7.1440 C.ar   42  G42         0.3023
    595  O6        40.8370  -27.7650    7.2080 O.2    42  G42        -0.2633
    596  N7        42.0560  -29.5080    9.4090 N.ar   42  G42        -0.2173
    597  C8        42.4680  -30.6560    9.8800 C.ar   42  G42         0.1817
    598  N9        42.3240  -31.6920    8.9800 N.ar   42  G42        -0.2693
    599  OP1       45.9570  -31.8660   14.4170 O.3    42  G42        -0.4373
    600  OP2       44.5560  -29.9000   13.6390 O.co2  42  G42        -0.5172
    601  P         47.3940  -32.9980    8.5310 P.3    43  C43         0.2141
    602  C5'       46.5550  -34.2570    6.4050 C.3    43  C43         0.1812
    603  O5'       46.9520  -33.0340    7.0090 O.3    43  C43        -0.3114
    604  C4'       46.0480  -34.0020    5.0130 C.3    43  C43         0.1773
    605  O4'       44.7180  -33.4340    5.0630 O.3    43  C43        -0.3307
    606  C3'       46.8250  -32.9990    4.1780 C.3    43  C43         0.1860
    607  O3'       48.0000  -33.6100    3.6490 O.3    43  C43        -0.3112
    608  C2'       45.8040  -32.7200    3.0800 C.3    43  C43         0.2309
    609  O2'       45.6860  -33.7760    2.1400 O.3    43  C43        -0.2156
    610  C1'       44.5140  -32.6360    3.9060 C.3    43  C43         0.2420
    611  N1        44.2670  -31.2560    4.3340 N.ar   43  C43        -0.2535
    612  C2        43.6990  -30.3740    3.4160 C.ar   43  C43         0.3532
    613  O2        43.4730  -30.7740    2.2530 O.2    43  C43        -0.2443
    614  N3        43.4300  -29.1070    3.8010 N.ar   43  C43        -0.1739
    615  C4        43.7440  -28.7010    5.0270 C.ar   43  C43         0.1759
    616  N4        43.4690  -27.4360    5.3460 N.pl3  43  C43        -0.1070
    617  C5        44.3530  -29.5710    5.9750 C.ar   43  C43         0.0566
    618  C6        44.5880  -30.8310    5.5930 C.ar   43  C43         0.0850
    619  OP1       48.6410  -33.7630    8.6590 O.2    43  C43        -0.5172
    620  OP2       47.3500  -31.5910    8.9220 O.co2  43  C43        -0.4373
    621  P         49.3230  -32.7340    3.3960 P.3    44  A44         0.2141
    622  C5'       48.8230  -31.9450    0.9300 C.3    44  A44         0.1812
    623  O5'       48.8640  -31.6360    2.3200 O.3    44  A44        -0.3114
    624  C4'       48.1530  -30.8400    0.1250 C.3    44  A44         0.1773
    625  O4'       46.8260  -30.4840    0.6130 O.3    44  A44        -0.3307
    626  C3'       48.8070  -29.4790   -0.0320 C.3    44  A44         0.1860
    627  O3'       49.9700  -29.5150   -0.8700 O.3    44  A44        -0.3112
    628  C2'       47.6720  -28.7660   -0.7480 C.3    44  A44         0.2309
    629  O2'       47.5250  -29.2840   -2.0500 O.3    44  A44        -0.2156
    630  C1'       46.4740  -29.2060    0.1000 C.3    44  A44         0.2408
    631  N1        44.8420  -24.5690    1.7080 N.ar   44  A44        -0.2040
    632  C2        44.7520  -25.1830    0.5160 C.ar   44  A44         0.2016
    633  N3        45.1620  -26.4000    0.1610 N.ar   44  A44        -0.2048
    634  C4        45.7210  -27.0410    1.2070 C.ar   44  A44         0.1692
    635  C5        45.8720  -26.5490    2.4890 C.ar   44  A44         0.1518
    636  C6        45.4160  -25.2400    2.7350 C.ar   44  A44         0.1919
    637  N6        45.5300  -24.6320    3.9270 N.pl3  44  A44        -0.1054
    638  N7        46.4870  -27.4870    3.3070 N.ar   44  A44        -0.2193
    639  C8        46.7000  -28.5030    2.5140 C.ar   44  A44         0.1816
    640  N9        46.2870  -28.2950    1.2240 N.ar   44  A44        -0.2693
    641  OP1       50.2960  -33.6720    2.7920 O.2    44  A44        -0.5172
    642  OP2       49.6990  -32.0050    4.6250 O.co2  44  A44        -0.4373
    643  P         51.0980  -28.3630   -0.7350 P.3    45  A45         0.2141
    644  C5'       50.0940  -26.9850   -2.7200 C.3    45  A45         0.1812
    645  O5'       50.3990  -27.0610   -1.3320 O.3    45  A45        -0.3114
    646  C4'       49.2530  -25.7710   -2.9970 C.3    45  A45         0.1773
    647  O4'       48.1610  -25.7370   -2.0450 O.3    45  A45        -0.3307
    648  C3'       49.9640  -24.4640   -2.7330 C.3    45  A45         0.1860
    649  O3'       50.7920  -24.1080   -3.8170 O.3    45  A45        -0.3112
    650  C2'       48.8030  -23.5090   -2.5400 C.3    45  A45         0.2309
    651  O2'       48.1660  -23.1030   -3.7280 O.3    45  A45        -0.2156
    652  C1'       47.8600  -24.3880   -1.7310 C.3    45  A45         0.2408
    653  N1        47.0320  -21.2080    2.1230 N.ar   45  A45        -0.2040
    654  C2        46.8940  -21.0910    0.8030 C.ar   45  A45         0.2016
    655  N3        47.2080  -21.9450   -0.1520 N.ar   45  A45        -0.2048
    656  C4        47.7300  -23.0580    0.3680 C.ar   45  A45         0.1692
    657  C5        47.9690  -23.3200    1.6970 C.ar   45  A45         0.1518
    658  C6        47.5790  -22.3340    2.6130 C.ar   45  A45         0.1919
    659  N6        47.7080  -22.4500    3.9230 N.pl3  45  A45        -0.1054
    660  N7        48.5440  -24.5670    1.8490 N.ar   45  A45        -0.2193
    661  C8        48.6000  -25.0430    0.6240 C.ar   45  A45         0.1816
    662  N9        48.0820  -24.1940   -0.3090 N.ar   45  A45        -0.2693
    663  OP1       52.2170  -28.7520   -1.6270 O.2    45  A45        -0.5172
    664  OP2       51.3770  -28.0670    0.6940 O.co2  45  A45        -0.4373
    665  P         52.1980  -23.4050   -3.5330 P.3    46  G46         0.2141
    666  C5'       51.1660  -21.0030   -3.6650 C.3    46  G46         0.1812
    667  O5'       51.7990  -22.0120   -2.8750 O.3    46  G46        -0.3114
    668  C4'       50.7400  -19.8300   -2.8070 C.3    46  G46         0.1773
    669  O4'       49.8830  -20.2950   -1.7410 O.3    46  G46        -0.3307
    670  C3'       51.8630  -19.1170   -2.0840 C.3    46  G46         0.1860
    671  O3'       52.5340  -18.2110   -2.9590 O.3    46  G46        -0.3112
    672  C2'       51.1220  -18.4310   -0.9460 C.3    46  G46         0.2309
    673  O2'       50.4450  -17.2470   -1.3390 O.3    46  G46        -0.2156
    674  C1'       50.0960  -19.5050   -0.5780 C.3    46  G46         0.2408
    675  N1        50.1880  -20.3130    4.4710 N.ar   46  G46        -0.1709
    676  C2        49.6430  -19.2560    3.7670 C.ar   46  G46         0.2606
    677  N2        49.0350  -18.3160    4.4900 N.pl3  46  G46        -0.0859
    678  N3        49.6970  -19.1400    2.4410 N.ar   46  G46        -0.1918
    679  C4        50.3390  -20.1890    1.8670 C.ar   46  G46         0.1723
    680  C5        50.9130  -21.2820    2.4740 C.ar   46  G46         0.1748
    681  C6        50.8580  -21.3970    3.8920 C.ar   46  G46         0.3023
    682  O6        51.3110  -22.3070    4.6100 O.2    46  G46        -0.2633
    683  N7        51.4720  -22.1360    1.5250 N.ar   46  G46        -0.2173
    684  C8        51.2200  -21.5670    0.3780 C.ar   46  G46         0.1817
    685  N9        50.5360  -20.3840    0.5050 N.ar   46  G46        -0.2693
    686  OP1       52.7580  -23.1730   -4.8930 O.2    46  G46        -0.5172
    687  OP2       52.9650  -24.2080   -2.5410 O.co2  46  G46        -0.4373
    688  P         54.1170  -18.3650   -3.1780 P.3    47  U47         0.2141
    689  C5'       54.4180  -16.2300   -1.7320 C.3    47  U47         0.1812
    690  O5'       54.7310  -17.5910   -1.9390 O.3    47  U47        -0.3114
    691  C4'       55.4470  -15.5900   -0.8410 C.3    47  U47         0.1773
    692  O4'       55.1460  -15.9180    0.5490 O.3    47  U47        -0.3307
    693  C3'       56.8530  -16.1250   -1.0760 C.3    47  U47         0.1860
    694  O3'       57.7600  -15.1080   -0.7020 O.3    47  U47        -0.3112
    695  C2'       56.9250  -17.3220   -0.1270 C.3    47  U47         0.2309
    696  O2'       58.2100  -17.6880    0.3190 O.3    47  U47        -0.2156
    697  C1'       56.1300  -16.7970    1.0600 C.3    47  U47         0.2420
    698  N1        55.5110  -17.8360    1.8910 N.ar   47  U47        -0.2534
    699  C2        55.6120  -17.6910    3.2540 C.ar   47  U47         0.3546
    700  O2        56.1300  -16.7250    3.7770 O.2    47  U47        -0.2443
    701  N3        55.0810  -18.7220    3.9870 N.ar   47  U47        -0.1530
    702  C4        54.4730  -19.8480    3.5070 C.ar   47  U47         0.2846
    703  O4        54.1830  -20.7360    4.2880 O.2    47  U47        -0.2650
    704  C5        54.3720  -19.9150    2.0820 C.ar   47  U47         0.0814
    705  C6        54.8800  -18.9330    1.3420 C.ar   47  U47         0.0870
    706  OP1       54.4680  -17.6140   -4.3980 O.2    47  U47        -0.5172
    707  OP2       54.4550  -19.8090   -3.0720 O.co2  47  U47        -0.4373
    708  P         58.4850  -14.2250   -1.8360 P.3    48  U48         0.2141
    709  C5'       60.3900  -15.9360   -1.5990 C.3    48  U48         0.1812
    710  O5'       59.4920  -15.2750   -2.4620 O.3    48  U48        -0.3114
    711  C4'       61.2470  -16.9040   -2.3570 C.3    48  U48         0.1773
    712  O4'       62.1030  -16.1830   -3.2750 O.3    48  U48        -0.3307
    713  C3'       62.1680  -17.6940   -1.4360 C.3    48  U48         0.1860
    714  O3'       61.9760  -19.0700   -1.6860 O.3    48  U48        -0.3112
    715  C2'       63.5790  -17.2370   -1.8110 C.3    48  U48         0.2309
    716  O2'       64.5220  -18.2960   -1.7500 O.3    48  U48        -0.2156
    717  C1'       63.3880  -16.7600   -3.2490 C.3    48  U48         0.2420
    718  N1        64.3580  -15.7430   -3.6830 N.ar   48  U48        -0.2534
    719  C2        65.1510  -16.0400   -4.7730 C.ar   48  U48         0.3546
    720  O2        65.0750  -17.1000   -5.3750 O.2    48  U48        -0.2443
    721  N3        66.0340  -15.0530   -5.1320 N.ar   48  U48        -0.1530
    722  C4        66.1950  -13.8160   -4.5200 C.ar   48  U48         0.2846
    723  O4        67.0270  -13.0240   -4.9620 O.2    48  U48        -0.2650
    724  C5        65.3350  -13.5880   -3.4000 C.ar   48  U48         0.0814
    725  C6        64.4700  -14.5350   -3.0290 C.ar   48  U48         0.0870
    726  OP1       59.3010  -13.2360   -1.1080 O.3    48  U48        -0.4373
    727  OP2       57.5230  -13.7730   -2.8570 O.co2  48  U48        -0.5172
    728  P         60.7640  -19.8410   -0.9770 P.3    49  U49         0.2141
    729  C5'       61.9800  -19.8680    1.3410 C.3    49  U49         0.1812
    730  O5'       60.8870  -19.4340    0.5610 O.3    49  U49        -0.3114
    731  C4'       61.6250  -19.9320    2.8140 C.3    49  U49         0.1773
    732  O4'       61.7800  -18.5990    3.3930 O.3    49  U49        -0.3307
    733  C3'       60.1720  -20.3270    3.1330 C.3    49  U49         0.1860
    734  O3'       60.1280  -21.0370    4.3770 O.3    49  U49        -0.3112
    735  C2'       59.4470  -18.9770    3.1880 C.3    49  U49         0.2309
    736  O2'       58.3440  -18.9220    4.0720 O.3    49  U49        -0.2156
    737  C1'       60.5240  -18.1120    3.8100 C.3    49  U49         0.2420
    738  N1        60.4270  -16.6510    3.6690 N.ar   49  U49        -0.2534
    739  C2        60.7820  -15.8940    4.7700 C.ar   49  U49         0.3546
    740  O2        61.2100  -16.3900    5.7970 O.2    49  U49        -0.2443
    741  N3        60.6140  -14.5430    4.6290 N.ar   49  U49        -0.1530
    742  C4        60.1460  -13.8790    3.5020 C.ar   49  U49         0.2846
    743  O4        60.1230  -12.6440    3.4860 O.2    49  U49        -0.2650
    744  C5        59.8250  -14.7330    2.4020 C.ar   49  U49         0.0814
    745  C6        59.9730  -16.0510    2.5170 C.ar   49  U49         0.0870
    746  OP1       61.0730  -21.2850   -1.1440 O.3    49  U49        -0.4373
    747  OP2       59.4720  -19.3050   -1.4630 O.co2  49  U49        -0.5172
    748  P         58.9370  -22.0880    4.6730 P.3    50  C50         0.2141
    749  C5'       60.3410  -23.2360    6.5580 C.3    50  C50         0.1812
    750  O5'       59.1940  -22.4970    6.1880 O.3    50  C50        -0.3114
    751  C4'       60.6750  -22.9640    7.9960 C.3    50  C50         0.1773
    752  O4'       61.3050  -21.6570    8.0900 O.3    50  C50        -0.3307
    753  C3'       59.4870  -22.8400    8.9350 C.3    50  C50         0.1860
    754  O3'       58.9990  -24.1210    9.3280 O.3    50  C50        -0.3112
    755  C2'       60.1140  -22.0590   10.0870 C.3    50  C50         0.2309
    756  O2'       60.9810  -22.8410   10.8760 O.3    50  C50        -0.2156
    757  C1'       60.9450  -21.0380    9.3150 C.3    50  C50         0.2420
    758  N1        60.2110  -19.8060    9.0020 N.ar   50  C50        -0.2535
    759  C2        59.9520  -18.9150   10.0330 C.ar   50  C50         0.3532
    760  O2        60.3430  -19.2090   11.1740 O.2    50  C50        -0.2443
    761  N3        59.2880  -17.7540    9.7640 N.ar   50  C50        -0.1739
    762  C4        58.8960  -17.4810    8.5170 C.ar   50  C50         0.1759
    763  N4        58.2560  -16.3340    8.3010 N.pl3  50  C50        -0.1070
    764  C5        59.1460  -18.3800    7.4370 C.ar   50  C50         0.0566
    765  C6        59.7970  -19.5260    7.7240 C.ar   50  C50         0.0850
    766  OP1       59.1170  -23.3000    3.8160 O.2    50  C50        -0.5172
    767  OP2       57.6380  -21.3630    4.6270 O.co2  50  C50        -0.4373
    768  P         57.4210  -24.3500    9.5250 P.3    51  U51         0.2141
    769  C5'       57.4280  -23.1830   11.8820 C.3    51  U51         0.1812
    770  O5'       56.9650  -23.2020   10.5350 O.3    51  U51        -0.3114
    771  C4'       56.9410  -21.9380   12.5910 C.3    51  U51         0.1773
    772  O4'       57.5230  -20.7530   11.9840 O.3    51  U51        -0.3307
    773  C3'       55.4460  -21.6960   12.5110 C.3    51  U51         0.1860
    774  O3'       54.7660  -22.5210   13.4570 O.3    51  U51        -0.3112
    775  C2'       55.3580  -20.1910   12.7640 C.3    51  U51         0.2309
    776  O2'       55.5450  -19.7700   14.1060 O.3    51  U51        -0.2156
    777  C1'       56.5660  -19.7030   11.9650 C.3    51  U51         0.2420
    778  N1        56.2420  -19.3950   10.5670 N.ar   51  U51        -0.2534
    779  C2        55.6320  -18.1940   10.3120 C.ar   51  U51         0.3546
    780  O2        55.3030  -17.4320   11.1950 O.2    51  U51        -0.2443
    781  N3        55.4010  -17.9290    8.9860 N.ar   51  U51        -0.1530
    782  C4        55.6950  -18.7460    7.9170 C.ar   51  U51         0.2846
    783  O4        55.4940  -18.3440    6.7790 O.2    51  U51        -0.2650
    784  C5        56.2910  -19.9970    8.2680 C.ar   51  U51         0.0814
    785  C6        56.5440  -20.2700    9.5500 C.ar   51  U51         0.0870
    786  OP1       57.2290  -25.6560   10.2050 O.3    51  U51        -0.4373
    787  OP2       56.7470  -24.1100    8.2260 O.co2  51  U51        -0.5172
    788  P         53.2710  -23.0150   13.1490 P.3    52  G52         0.2141
    789  C5'       52.2450  -20.9460   14.3620 C.3    52  G52         0.1812
    790  O5'       52.4410  -21.6550   13.1550 O.3    52  G52        -0.3114
    791  C4'       51.5180  -19.6610   14.0950 C.3    52  G52         0.1773
    792  O4'       52.2960  -18.8360   13.1800 O.3    52  G52        -0.3307
    793  C3'       50.1800  -19.8300   13.4100 C.3    52  G52         0.1860
    794  O3'       49.1800  -20.1400   14.3790 O.3    52  G52        -0.3112
    795  C2'       50.0020  -18.4520   12.7700 C.3    52  G52         0.2309
    796  O2'       49.6990  -17.4620   13.7230 O.3    52  G52        -0.2156
    797  C1'       51.4230  -18.1600   12.2910 C.3    52  G52         0.2408
    798  N1        51.4020  -16.8700    7.3580 N.ar   52  G52        -0.1709
    799  C2        50.9990  -16.1450    8.4630 C.ar   52  G52         0.2606
    800  N2        50.5630  -14.8920    8.2400 N.pl3  52  G52        -0.0859
    801  N3        51.0410  -16.6040    9.7030 N.ar   52  G52        -0.1918
    802  C4        51.5290  -17.8530    9.7650 C.ar   52  G52         0.1723
    803  C5        51.9680  -18.6570    8.7400 C.ar   52  G52         0.1748
    804  C6        51.9370  -18.1530    7.4070 C.ar   52  G52         0.3023
    805  O6        52.3300  -18.7000    6.3680 O.2    52  G52        -0.2633
    806  N7        52.3860  -19.8900    9.2250 N.ar   52  G52        -0.2173
    807  C8        52.2190  -19.8090   10.5240 C.ar   52  G52         0.1817
    808  N9        51.7080  -18.5990   10.9240 N.ar   52  G52        -0.2693
    809  OP1       52.7900  -23.8300   14.2990 O.3    52  G52        -0.4373
    810  OP2       53.2120  -23.5670   11.7850 O.co2  52  G52        -0.5172
    811  P         48.0800  -21.2820   14.0710 P.3    53  C53         0.2141
    812  C5'       46.5180  -19.4670   12.9930 C.3    53  C53         0.1812
    813  O5'       47.2050  -20.6980   12.8690 O.3    53  C53        -0.3114
    814  C4'       46.1290  -18.9540   11.6250 C.3    53  C53         0.1773
    815  O4'       47.3600  -18.6400   10.9260 O.3    53  C53        -0.3307
    816  C3'       45.3900  -19.8940   10.6700 C.3    53  C53         0.1860
    817  O3'       43.9640  -19.8650   10.8670 O.3    53  C53        -0.3112
    818  C2'       45.7260  -19.2530    9.3180 C.3    53  C53         0.2309
    819  O2'       44.9300  -18.1100    9.0360 O.3    53  C53        -0.2156
    820  C1'       47.1790  -18.8100    9.5290 C.3    53  C53         0.2420
    821  N1        48.1570  -19.7990    9.0340 N.ar   53  C53        -0.2535
    822  C2        48.7410  -19.6070    7.7630 C.ar   53  C53         0.3532
    823  O2        48.5480  -18.5480    7.1700 O.2    53  C53        -0.2443
    824  N3        49.5050  -20.5860    7.2370 N.ar   53  C53        -0.1739
    825  C4        49.7270  -21.7040    7.9330 C.ar   53  C53         0.1759
    826  N4        50.4300  -22.6740    7.3490 N.pl3  53  C53        -0.1070
    827  C5        49.2240  -21.8830    9.2560 C.ar   53  C53         0.0566
    828  C6        48.4560  -20.9130    9.7630 C.ar   53  C53         0.0850
    829  OP1       47.1950  -21.3830   15.2480 O.3    53  C53        -0.4373
    830  OP2       48.7020  -22.5110   13.4990 O.co2  53  C53        -0.5172
    831  P         43.2130  -21.0340   11.7060 P.3    54  C54         0.2141
    832  C5'       42.7680  -20.3170   14.1790 C.3    54  C54         0.1812
    833  O5'       42.4020  -20.2300   12.8250 O.3    54  C54        -0.3114
    834  C4'       43.0150  -18.9450   14.7830 C.3    54  C54         0.1773
    835  O4'       43.7880  -18.0690   13.9300 O.3    54  C54        -0.3307
    836  C3'       41.8790  -18.0320   15.2390 C.3    54  C54         0.1860
    837  O3'       41.1760  -18.5690   16.3730 O.3    54  C54        -0.3112
    838  C2'       42.7050  -16.8180   15.6410 C.3    54  C54         0.2309
    839  O2'       43.3630  -16.9840   16.8720 O.3    54  C54        -0.2156
    840  C1'       43.7450  -16.7670   14.5080 C.3    54  C54         0.2420
    841  N1        43.3790  -15.7710   13.4700 N.ar   54  C54        -0.2535
    842  C2        43.4050  -14.4340   13.8140 C.ar   54  C54         0.3532
    843  O2        43.7060  -14.1450   14.9710 O.2    54  C54        -0.2443
    844  N3        43.1050  -13.4890   12.8720 N.ar   54  C54        -0.1739
    845  C4        42.8000  -13.8750   11.6230 C.ar   54  C54         0.1759
    846  N4        42.5580  -12.9380   10.7040 N.pl3  54  C54        -0.1070
    847  C5        42.7450  -15.2520   11.2550 C.ar   54  C54         0.0566
    848  C6        43.0350  -16.1550   12.2040 C.ar   54  C54         0.0850
    849  OP1       44.2450  -21.8480   12.3320 O.3    54  C54        -0.4373
    850  OP2       42.2110  -21.6760   10.8400 O.co2  54  C54        -0.5172
    851  P         39.7410  -17.9550   16.8370 P.3    55  G55         0.2141
    852  C5'       40.4260  -16.4600   18.8480 C.3    55  G55         0.1812
    853  O5'       40.0660  -16.5390   17.4880 O.3    55  G55        -0.3114
    854  C4'       40.4810  -15.0330   19.2990 C.3    55  G55         0.1773
    855  O4'       41.3740  -14.2640   18.4550 O.3    55  G55        -0.3307
    856  C3'       39.1730  -14.2810   19.2300 C.3    55  G55         0.1860
    857  O3'       38.3740  -14.5970   20.3580 O.3    55  G55        -0.3112
    858  C2'       39.6550  -12.8460   19.2510 C.3    55  G55         0.2309
    859  O2'       40.0700  -12.3920   20.5260 O.3    55  G55        -0.2156
    860  C1'       40.8650  -12.9480   18.3250 C.3    55  G55         0.2408
    861  N1        40.1320   -9.5400   14.6970 N.ar   55  G55        -0.1709
    862  C2        40.3470   -9.3390   16.0330 C.ar   55  G55         0.2606
    863  N2        40.4210   -8.0550   16.4550 N.pl3  55  G55        -0.0859
    864  N3        40.4800  -10.3230   16.9090 N.ar   55  G55        -0.1918
    865  C4        40.3610  -11.5310   16.3150 C.ar   55  G55         0.1723
    866  C5        40.1210  -11.8230   14.9880 C.ar   55  G55         0.1748
    867  C6        40.0120  -10.7840   14.0760 C.ar   55  G55         0.3023
    868  O6        39.8570  -10.8650   12.8590 O.2    55  G55        -0.2633
    869  N7        40.0480  -13.1840   14.7880 N.ar   55  G55        -0.2173
    870  C8        40.2580  -13.6940   15.9770 C.ar   55  G55         0.1817
    871  N9        40.4970  -12.7400   16.9320 N.ar   55  G55        -0.2693
    872  OP1       39.3350  -18.8070   17.9760 O.3    55  G55        -0.4373
    873  OP2       38.8310  -17.7840   15.7120 O.co2  55  G55        -0.5172
    874  P         36.8110  -14.8460   20.1630 P.3    56  G56         0.2141
    875  C5'       36.2600  -12.6140   21.4330 C.3    56  G56         0.1812
    876  O5'       36.2000  -13.3760   20.2300 O.3    56  G56        -0.3114
    877  C4'       36.2150  -11.1400   21.1100 C.3    56  G56         0.1773
    878  O4'       37.3370  -10.8200   20.2440 O.3    56  G56        -0.3307
    879  C3'       35.0100  -10.6750   20.3060 C.3    56  G56         0.1860
    880  O3'       33.8900  -10.4700   21.1550 O.3    56  G56        -0.3112
    881  C2'       35.5430   -9.3720   19.7340 C.3    56  G56         0.2309
    882  O2'       35.6360   -8.3440   20.6970 O.3    56  G56        -0.2156
    883  C1'       36.9450   -9.8080   19.3190 C.3    56  G56         0.2408
    884  N1        36.8250   -8.7180   14.3690 N.ar   56  G56        -0.1709
    885  C2        36.8750   -7.8700   15.4470 C.ar   56  G56         0.2606
    886  N2        36.8690   -6.5460   15.1840 N.pl3  56  G56        -0.0859
    887  N3        36.9260   -8.2840   16.6990 N.ar   56  G56        -0.1918
    888  C4        36.9210   -9.6410   16.7940 C.ar   56  G56         0.1723
    889  C5        36.8600  -10.5760   15.7890 C.ar   56  G56         0.1748
    890  C6        36.7940  -10.1240   14.4410 C.ar   56  G56         0.3023
    891  O6        36.6910  -10.8020   13.3880 O.2    56  G56        -0.2633
    892  N7        36.8480  -11.8640   16.3130 N.ar   56  G56        -0.2173
    893  C8        36.9050  -11.6910   17.6040 C.ar   56  G56         0.1817
    894  N9        36.9350  -10.3640   17.9650 N.ar   56  G56        -0.2693
    895  OP1       36.3390  -15.6350   21.3370 O.3    56  G56        -0.4373
    896  OP2       36.5590  -15.3440   18.7810 O.co2  56  G56        -0.5172
    897  P         32.4300  -10.3460   20.5280 P.3    57  G57         0.2141
    898  C5'       32.3760   -7.7350   20.4760 C.3    57  G57         0.1812
    899  O5'       32.3960   -8.9430   19.7630 O.3    57  G57        -0.3114
    900  C4'       32.4420   -6.5730   19.5310 C.3    57  G57         0.1773
    901  O4'       33.6370   -6.6510   18.6990 O.3    57  G57        -0.3307
    902  C3'       31.3050   -6.4780   18.5380 C.3    57  G57         0.1860
    903  O3'       30.1590   -5.8730   19.1550 O.3    57  G57        -0.3112
    904  C2'       31.9280   -5.5440   17.5180 C.3    57  G57         0.2309
    905  O2'       31.9690   -4.2420   18.0520 O.3    57  G57        -0.2156
    906  C1'       33.3330   -6.1440   17.3970 C.3    57  G57         0.2408
    907  N1        33.4580   -7.3220   12.4250 N.ar   57  G57        -0.1709
    908  C2        33.3450   -6.1050   13.0390 C.ar   57  G57         0.2606
    909  N2        33.2290   -5.0440   12.2230 N.pl3  57  G57        -0.0859
    910  N3        33.3320   -5.9300   14.3630 N.ar   57  G57        -0.1918
    911  C4        33.4150   -7.0930   15.0330 C.ar   57  G57         0.1723
    912  C5        33.5120   -8.3720   14.5220 C.ar   57  G57         0.1748
    913  C6        33.5320   -8.5400   13.0890 C.ar   57  G57         0.3023
    914  O6        33.5830   -9.5820   12.4350 O.2    57  G57        -0.2633
    915  N7        33.5780   -9.3090   15.5450 N.ar   57  G57        -0.2173
    916  C8        33.5210   -8.5960   16.6500 C.ar   57  G57         0.1817
    917  N9        33.4210   -7.2390   16.4110 N.ar   57  G57        -0.2693
    918  OP1       31.4640  -10.3070   21.6120 O.3    57  G57        -0.4373
    919  OP2       32.3350  -11.3850   19.4630 O.co2  57  G57        -0.5172
    920  P         28.6780   -6.3110   18.7300 P.3    58  C58         0.2141
    921  C5'       28.4010   -4.5340   16.8210 C.3    58  C58         0.1812
    922  O5'       28.5610   -5.8920   17.1970 O.3    58  C58        -0.3114
    923  C4'       28.5770   -4.4080   15.3270 C.3    58  C58         0.1773
    924  O4'       29.8570   -4.9760   14.9410 O.3    58  C58        -0.3307
    925  C3'       27.6100   -5.2170   14.4990 C.3    58  C58         0.1860
    926  O3'       26.3370   -4.6050   14.4460 O.3    58  C58        -0.3112
    927  C2'       28.3230   -5.2270   13.1580 C.3    58  C58         0.2309
    928  O2'       28.2610   -3.9760   12.5220 O.3    58  C58        -0.2156
    929  C1'       29.7570   -5.5270   13.6190 C.3    58  C58         0.2420
    930  N1        30.0050   -6.9890   13.6820 N.ar   58  C58        -0.2535
    931  C2        30.2200   -7.6610   12.4940 C.ar   58  C58         0.3532
    932  O2        30.1550   -6.9990   11.4280 O.2    58  C58        -0.2443
    933  N3        30.4670   -9.0100   12.5270 N.ar   58  C58        -0.1739
    934  C4        30.4850   -9.6580   13.6930 C.ar   58  C58         0.1759
    935  N4        30.7700  -10.9580   13.7000 N.pl3  58  C58        -0.1070
    936  C5        30.2240   -8.9870   14.9290 C.ar   58  C58         0.0566
    937  C6        30.0030   -7.6680   14.8750 C.ar   58  C58         0.0850
    938  OP1       27.7270   -5.4570   19.4620 O.3    58  C58        -0.4373
    939  OP2       28.5530   -7.7770   18.8290 O.co2  58  C58        -0.5172
    940  P         25.0300   -5.5010   14.2900 P.3    59  A59         0.2141
    941  C5'       24.8520   -5.0050   11.6940 C.3    59  A59         0.1812
    942  O5'       25.0090   -5.9410   12.7440 O.3    59  A59        -0.3114
    943  C4'       25.2150   -5.6450   10.3610 C.3    59  A59         0.1773
    944  O4'       26.5330   -6.2360   10.4560 O.3    59  A59        -0.3307
    945  C3'       24.3190   -6.7710    9.8570 C.3    59  A59         0.1860
    946  O3'       23.2600   -6.2290    9.0690 O.3    59  A59        -0.3112
    947  C2'       25.2520   -7.5310    8.9200 C.3    59  A59         0.2309
    948  O2'       25.4030   -6.9090    7.6690 O.3    59  A59        -0.2156
    949  C1'       26.5730   -7.4240    9.6630 C.3    59  A59         0.2408
    950  N1        27.8670  -12.3760    9.8250 N.ar   59  A59        -0.2040
    951  C2        27.5740  -11.5800    8.8160 C.ar   59  A59         0.2016
    952  N3        27.2140  -10.2990    8.8400 N.ar   59  A59        -0.2048
    953  C4        27.1330   -9.8510   10.1030 C.ar   59  A59         0.1692
    954  C5        27.3820  -10.5700   11.2420 C.ar   59  A59         0.1518
    955  C6        27.8030  -11.8740   11.0830 C.ar   59  A59         0.1919
    956  N6        28.1740  -12.6390   12.1040 N.pl3  59  A59        -0.1054
    957  N7        27.1810   -9.7910   12.3680 N.ar   59  A59        -0.2193
    958  C8        26.8450   -8.6260   11.8900 C.ar   59  A59         0.1816
    959  N9        26.8240   -8.5810   10.5260 N.ar   59  A59        -0.2693
    960  OP1       23.8870   -4.6380   14.5940 O.2    59  A59        -0.5172
    961  OP2       25.1650   -6.7990   14.9990 O.co2  59  A59        -0.4373
    962  P         21.7920   -6.8410    9.1600 P.3    60  C60         0.2141
    963  C5'       22.4550   -8.3350    7.0610 C.3    60  C60         0.1812
    964  O5'       21.8690   -8.2420    8.3790 O.3    60  C60        -0.3114
    965  C4'       22.8530   -9.7790    6.7360 C.3    60  C60         0.1773
    966  O4'       24.0780  -10.1560    7.4400 O.3    60  C60        -0.3307
    967  C3'       21.8490  -10.8270    7.1730 C.3    60  C60         0.1860
    968  O3'       20.7730  -10.9610    6.2600 O.3    60  C60        -0.3112
    969  C2'       22.7110  -12.0800    7.3040 C.3    60  C60         0.2309
    970  O2'       23.0820  -12.6750    6.0860 O.3    60  C60        -0.2156
    971  C1'       23.9710  -11.4920    7.9210 C.3    60  C60         0.2420
    972  N1        23.9710  -11.5060    9.4080 N.ar   60  C60        -0.2535
    973  C2        24.4750  -12.6500   10.0530 C.ar   60  C60         0.3532
    974  O2        24.7990  -13.6290    9.3620 O.2    60  C60        -0.2443
    975  N3        24.5970  -12.6520   11.4020 N.ar   60  C60        -0.1739
    976  C4        24.2180  -11.5720   12.1130 C.ar   60  C60         0.1759
    977  N4        24.4190  -11.5880   13.4560 N.pl3  60  C60        -0.1070
    978  C5        23.6340  -10.4310   11.4900 C.ar   60  C60         0.0566
    979  C6        23.5290  -10.4400   10.1440 C.ar   60  C60         0.0850
    980  OP1       20.9430   -5.9280    8.3780 O.2    60  C60        -0.5172
    981  OP2       21.4330   -7.1550   10.5640 O.co2  60  C60        -0.4373
    982  P         19.3790  -11.5540    6.7720 P.3    61  C61         0.2141
    983  C5'       19.9620  -13.9110    5.7730 C.3    61  C61         0.1812
    984  O5'       19.6000  -13.1240    6.8980 O.3    61  C61        -0.3114
    985  C4'       20.4240  -15.2620    6.2450 C.3    61  C61         0.1773
    986  O4'       21.5330  -15.0760    7.1560 O.3    61  C61        -0.3307
    987  C3'       19.3910  -15.9940    7.0770 C.3    61  C61         0.1860
    988  O3'       18.5250  -16.6710    6.2130 O.3    61  C61        -0.3112
    989  C2'       20.2470  -16.9250    7.9270 C.3    61  C61         0.2309
    990  O2'       20.7020  -18.0790    7.2500 O.3    61  C61        -0.2156
    991  C1'       21.4520  -16.0310    8.2090 C.3    61  C61         0.2420
    992  N1        21.4210  -15.3210    9.5080 N.ar   61  C61        -0.2535
    993  C2        21.8850  -16.0030   10.6280 C.ar   61  C61         0.3532
    994  O2        22.1920  -17.2010   10.5070 O.2    61  C61        -0.2443
    995  N3        21.9820  -15.3580   11.8040 N.ar   61  C61        -0.1739
    996  C4        21.5910  -14.0730   11.8990 C.ar   61  C61         0.1759
    997  N4        21.7240  -13.4730   13.0820 N.pl3  61  C61        -0.1070
    998  C5        21.0560  -13.3620   10.7830 C.ar   61  C61         0.0566
    999  C6        20.9870  -14.0270    9.6130 C.ar   61  C61         0.0850
   1000  OP1       18.3570  -11.3140    5.7080 O.2    61  C61        -0.5172
   1001  OP2       19.1280  -11.0840    8.1610 O.co2  61  C61        -0.4373
   1002  P         16.9540  -16.3570    6.2540 P.3    62  G62         0.2141
   1003  C5'       15.0540  -17.2150    7.7840 C.3    62  G62         0.1812
   1004  O5'       16.3870  -17.3570    7.3350 O.3    62  G62        -0.3114
   1005  C4'       14.8770  -17.9260    9.0830 C.3    62  G62         0.1773
   1006  O4'       15.0980  -16.9870   10.1710 O.3    62  G62        -0.3307
   1007  C3'       13.4630  -18.4390    9.2820 C.3    62  G62         0.1860
   1008  O3'       13.5440  -19.5050   10.1940 O.3    62  G62        -0.3112
   1009  C2'       12.7560  -17.2550    9.9320 C.3    62  G62         0.2309
   1010  O2'       11.6990  -17.6950   10.7620 O.3    62  G62        -0.2156
   1011  C1'       13.8740  -16.7030   10.8130 C.3    62  G62         0.2408
   1012  N1        14.9090  -13.2880   14.3980 N.ar   62  G62        -0.1709
   1013  C2        15.0720  -14.6490   14.4090 C.ar   62  G62         0.2606
   1014  N2        15.5900  -15.1810   15.5290 N.pl3  62  G62        -0.0859
   1015  N3        14.7540  -15.4360   13.3990 N.ar   62  G62        -0.1918
   1016  C4        14.2510  -14.7440   12.3490 C.ar   62  G62         0.1723
   1017  C5        14.0540  -13.3890   12.2280 C.ar   62  G62         0.1748
   1018  C6        14.4040  -12.5480   13.3300 C.ar   62  G62         0.3023
   1019  O6        14.3140  -11.3240   13.4260 O.2    62  G62        -0.2633
   1020  N7        13.5260  -13.0790   10.9810 N.ar   62  G62        -0.2173
   1021  C8        13.4110  -14.2350   10.3790 C.ar   62  G62         0.1817
   1022  N9        13.8370  -15.2850   11.1530 N.ar   62  G62        -0.2693
   1023  OP1       16.3950  -16.7360    4.9340 O.2    62  G62        -0.5172
   1024  OP2       16.7640  -14.9880    6.7650 O.co2  62  G62        -0.4373
   1025  P         12.6120  -20.7760   10.0050 P.3    63  U63         0.2141
   1026  C5'       14.9560  -21.8860    9.7430 C.3    63  U63         0.1812
   1027  O5'       13.6010  -22.0030   10.1560 O.3    63  U63        -0.3114
   1028  C4'       15.7650  -22.9740   10.3750 C.3    63  U63         0.1773
   1029  O4'       16.7740  -22.3230   11.2100 O.3    63  U63        -0.3307
   1030  C3'       14.9220  -23.7730   11.3530 C.3    63  U63         0.1860
   1031  O3'       14.5570  -25.1360   11.1150 O.3    63  U63        -0.3112
   1032  C2'       15.0680  -23.0770   12.7080 C.3    63  U63         0.2309
   1033  O2'       15.0160  -23.9180   13.8430 O.3    63  U63        -0.2156
   1034  C1'       16.4740  -22.4860   12.5950 C.3    63  U63         0.2420
   1035  N1        16.5740  -21.1760   13.2660 N.ar   63  U63        -0.2534
   1036  C2        17.1400  -21.1520   14.5200 C.ar   63  U63         0.3546
   1037  O2        17.5760  -22.1530   15.0570 O.2    63  U63        -0.2443
   1038  N3        17.1700  -19.9150   15.1270 N.ar   63  U63        -0.1530
   1039  C4        16.6930  -18.7240   14.6180 C.ar   63  U63         0.2846
   1040  O4        16.6790  -17.7190   15.3360 O.2    63  U63        -0.2650
   1041  C5        16.1390  -18.8230   13.3010 C.ar   63  U63         0.0814
   1042  C6        16.1020  -20.0170   12.6840 C.ar   63  U63         0.0870
   1043  OP1       12.1340  -20.6930    8.6030 O.2    63  U63        -0.5172
   1044  OP2       11.6440  -20.7940   11.1350 O.co2  63  U63        -0.4373
   1045  P         15.6770  -26.2740   10.9980 P.3    64  A64         0.2141
   1046  C5'       17.3130  -26.8950    9.0840 C.3    64  A64         0.1812
   1047  O5'       16.1130  -26.2520    9.4720 O.3    64  A64        -0.3114
   1048  C4'       17.9650  -26.1580    7.9400 C.3    64  A64         0.1773
   1049  O4'       17.7640  -24.7280    8.0600 O.3    64  A64        -0.3307
   1050  C3'       19.4670  -26.3640    7.8790 C.3    64  A64         0.1860
   1051  O3'       19.6920  -27.5070    7.0810 O.3    64  A64        -0.3112
   1052  C2'       19.9610  -25.0820    7.2210 C.3    64  A64         0.2309
   1053  O2'       19.8710  -25.1690    5.8200 O.3    64  A64        -0.2156
   1054  C1'       18.9740  -24.0460    7.7730 C.3    64  A64         0.2408
   1055  N1        18.9080  -19.5760   10.2720 N.ar   64  A64        -0.2040
   1056  C2        18.5990  -19.9200    9.0160 C.ar   64  A64         0.2016
   1057  N3        18.7030  -21.1100    8.4140 N.ar   64  A64        -0.2048
   1058  C4        19.2020  -22.0190    9.2500 C.ar   64  A64         0.1692
   1059  C5        19.5810  -21.8210   10.5610 C.ar   64  A64         0.1518
   1060  C6        19.4040  -20.5240   11.0930 C.ar   64  A64         0.1919
   1061  N6        19.6810  -20.1860   12.3650 N.pl3  64  A64        -0.1054
   1062  N7        20.0490  -23.0050   11.1160 N.ar   64  A64        -0.2193
   1063  C8        19.9160  -23.8790   10.1470 C.ar   64  A64         0.1816
   1064  N9        19.3750  -23.3540    9.0030 N.ar   64  A64        -0.2693
   1065  OP1       15.0210  -27.5680   11.2800 O.2    64  A64        -0.5172
   1066  OP2       16.8530  -25.8620   11.8020 O.co2  64  A64        -0.4373
   1067  P         21.0660  -28.3200    7.2140 P.3    65  A65         0.2141
   1068  C5'       22.1450  -27.2180    5.1200 C.3    65  A65         0.1812
   1069  O5'       22.1540  -27.3770    6.5280 O.3    65  A65        -0.3114
   1070  C4'       23.1760  -26.2120    4.6600 C.3    65  A65         0.1773
   1071  O4'       22.9340  -24.9240    5.3080 O.3    65  A65        -0.3307
   1072  C3'       24.6130  -26.5760    5.0250 C.3    65  A65         0.1860
   1073  O3'       25.4580  -25.8920    4.1080 O.3    65  A65        -0.3112
   1074  C2'       24.7470  -25.9430    6.4110 C.3    65  A65         0.2309
   1075  O2'       26.0550  -25.6200    6.8130 O.3    65  A65        -0.2156
   1076  C1'       23.9950  -24.6420    6.1740 C.3    65  A65         0.2408
   1077  N1        22.5680  -19.9920    7.7590 N.ar   65  A65        -0.2040
   1078  C2        22.7850  -20.5100    6.5300 C.ar   65  A65         0.2016
   1079  N3        23.0930  -21.7600    6.1910 N.ar   65  A65        -0.2048
   1080  C4        23.1780  -22.5410    7.2790 C.ar   65  A65         0.1692
   1081  C5        22.9600  -22.1700    8.5910 C.ar   65  A65         0.1518
   1082  C6        22.6400  -20.8080    8.8290 C.ar   65  A65         0.1919
   1083  N6        22.3990  -20.2880   10.0580 N.pl3  65  A65        -0.1054
   1084  N7        23.1130  -23.2640    9.4450 N.ar   65  A65        -0.2193
   1085  C8        23.4440  -24.2480    8.6440 C.ar   65  A65         0.1816
   1086  N9        23.5380  -23.8690    7.3210 N.ar   65  A65        -0.2693
   1087  OP1       20.9600  -29.5020    6.3270 O.2    65  A65        -0.5172
   1088  OP2       21.3540  -28.4960    8.6670 O.co2  65  A65        -0.4373
   1089  P         26.7210  -26.6290    3.4470 P.3    66  A66         0.2141
   1090  C5'       28.1540  -24.6620    4.4220 C.3    66  A66         0.1812
   1091  O5'       27.7910  -25.4660    3.3070 O.3    66  A66        -0.3114
   1092  C4'       27.8860  -23.2160    4.1100 C.3    66  A66         0.1773
   1093  O4'       26.5510  -22.8560    4.5530 O.3    66  A66        -0.3307
   1094  C3'       28.7590  -22.2160    4.8250 C.3    66  A66         0.1860
   1095  O3'       30.0700  -22.1560    4.2720 O.3    66  A66        -0.3112
   1096  C2'       27.9430  -20.9520    4.6370 C.3    66  A66         0.2309
   1097  O2'       27.9970  -20.4700    3.3080 O.3    66  A66        -0.2156
   1098  C1'       26.5490  -21.4860    4.9640 C.3    66  A66         0.2408
   1099  N1        25.8120  -18.2690    8.8640 N.ar   66  A66        -0.2040
   1100  C2        25.7700  -18.1180    7.5340 C.ar   66  A66         0.2016
   1101  N3        25.9110  -19.0470    6.5690 N.ar   66  A66        -0.2048
   1102  C4        26.1030  -20.2620    7.0980 C.ar   66  A66         0.1692
   1103  C5        26.1530  -20.5920    8.4400 C.ar   66  A66         0.1518
   1104  C6        26.0100  -19.5070    9.3710 C.ar   66  A66         0.1919
   1105  N6        26.0620  -19.6430   10.7100 N.pl3  66  A66        -0.1054
   1106  N7        26.3740  -21.9640    8.5990 N.ar   66  A66        -0.2193
   1107  C8        26.4710  -22.4070    7.3710 C.ar   66  A66         0.1816
   1108  N9        26.3590  -21.4220    6.4150 N.ar   66  A66        -0.2693
   1109  OP1       26.3430  -27.0330    2.0490 O.2    66  A66        -0.5172
   1110  OP2       27.2050  -27.6710    4.4110 O.co2  66  A66        -0.4373
   1111  P         31.3240  -22.1760    5.2430 P.3    67  U67         0.2141
   1112  C5'       31.6490  -19.7480    6.1980 C.3    67  U67         0.1812
   1113  O5'       30.9900  -21.0060    6.2750 O.3    67  U67        -0.3114
   1114  C4'       30.7710  -18.7210    5.4810 C.3    67  U67         0.1773
   1115  O4'       29.5160  -18.5360    6.2100 O.3    67  U67        -0.3307
   1116  C3'       31.3620  -17.3150    5.3870 C.3    67  U67         0.1860
   1117  O3'       32.1810  -17.1660    4.2190 O.3    67  U67        -0.3112
   1118  C2'       30.1080  -16.4730    5.2300 C.3    67  U67         0.2309
   1119  O2'       29.5960  -16.6410    3.9320 O.3    67  U67        -0.2156
   1120  C1'       29.1530  -17.1530    6.2120 C.3    67  U67         0.2420
   1121  N1        29.1920  -16.6610    7.5970 N.ar   67  U67        -0.2534
   1122  C2        28.7400  -15.3650    7.8790 C.ar   67  U67         0.3546
   1123  O2        28.3220  -14.5840    7.0190 O.2    67  U67        -0.2443
   1124  N3        28.7950  -15.0170    9.2180 N.ar   67  U67        -0.1530
   1125  C4        29.2590  -15.8020   10.2700 C.ar   67  U67         0.2846
   1126  O4        29.3640  -15.3110   11.4080 O.2    67  U67        -0.2650
   1127  C5        29.6970  -17.1130    9.8830 C.ar   67  U67         0.0814
   1128  C6        29.6480  -17.4820    8.6040 C.ar   67  U67         0.0870
   1129  OP1       32.5440  -21.8490    4.5040 O.2    67  U67        -0.5172
   1130  OP2       31.2670  -23.4570    5.9980 O.co2  67  U67        -0.4373
   1131  P         33.5250  -16.2770    4.2710 P.3    68  G68         0.2141
   1132  C5'       32.2450  -14.2960    3.1440 C.3    68  G68         0.1812
   1133  O5'       32.9500  -14.7890    4.2830 O.3    68  G68        -0.3114
   1134  C4'       31.6380  -12.9490    3.4410 C.3    68  G68         0.1773
   1135  O4'       30.7170  -13.1030    4.5460 O.3    68  G68        -0.3307
   1136  C3'       32.6180  -11.9030    3.9320 C.3    68  G68         0.1860
   1137  O3'       33.3180  -11.2810    2.8550 O.3    68  G68        -0.3112
   1138  C2'       31.7000  -10.9420    4.6690 C.3    68  G68         0.2309
   1139  O2'       30.9570  -10.1070    3.8140 O.3    68  G68        -0.2156
   1140  C1'       30.7190  -11.9060    5.3200 C.3    68  G68         0.2408
   1141  N1        30.7560  -10.2420   10.0980 N.ar   68  G68        -0.1709
   1142  C2        30.4500   -9.5620    8.9320 C.ar   68  G68         0.2606
   1143  N2        30.0940   -8.2530    9.0170 N.pl3  68  G68        -0.0859
   1144  N3        30.5120  -10.1140    7.7400 N.ar   68  G68        -0.1918
   1145  C4        30.9280  -11.3920    7.7830 C.ar   68  G68         0.1723
   1146  C5        31.2850  -12.1450    8.8670 C.ar   68  G68         0.1748
   1147  C6        31.2100  -11.5710   10.1540 C.ar   68  G68         0.3023
   1148  O6        31.5130  -12.1010   11.2510 O.2    68  G68        -0.2633
   1149  N7        31.7000  -13.4100    8.4700 N.ar   68  G68        -0.2173
   1150  C8        31.5540  -13.4070    7.1760 C.ar   68  G68         0.1817
   1151  N9        31.0650  -12.2250    6.6990 N.ar   68  G68        -0.2693
   1152  OP1       34.2570  -16.4220    2.9980 O.2    68  G68        -0.5172
   1153  OP2       34.2540  -16.5480    5.5410 O.co2  68  G68        -0.4373
   1154  P         34.7730  -10.6600    3.1060 P.3    69  U69         0.2141
   1155  C5'       33.6900   -8.2960    3.6460 C.3    69  U69         0.1812
   1156  O5'       34.4840   -9.4070    4.0710 O.3    69  U69        -0.3114
   1157  C4'       33.4660   -7.3350    4.8140 C.3    69  U69         0.1773
   1158  O4'       32.6750   -7.9900    5.8390 O.3    69  U69        -0.3307
   1159  C3'       34.7090   -6.9250    5.5600 C.3    69  U69         0.1860
   1160  O3'       35.3580   -5.8790    4.8820 O.3    69  U69        -0.3112
   1161  C2'       34.1360   -6.4640    6.8950 C.3    69  U69         0.2309
   1162  O2'       33.4570   -5.2250    6.8240 O.3    69  U69        -0.2156
   1163  C1'       33.0890   -7.5480    7.1230 C.3    69  U69         0.2420
   1164  N1        33.5940   -8.6990    7.8800 N.ar   69  U69        -0.2534
   1165  C2        33.6080   -8.5780    9.2450 C.ar   69  U69         0.3546
   1166  O2        33.3220   -7.5070    9.8010 O.2    69  U69        -0.2443
   1167  N3        34.0010   -9.7220    9.9310 N.ar   69  U69        -0.1530
   1168  C4        34.4190  -10.9240    9.3660 C.ar   69  U69         0.2846
   1169  O4        34.7190  -11.9100   10.0980 O.2    69  U69        -0.2650
   1170  C5        34.4210  -10.9250    7.9250 C.ar   69  U69         0.0814
   1171  C6        34.0200   -9.8580    7.2580 C.ar   69  U69         0.0870
   1172  OP1       35.3300  -10.1940    1.8040 O.2    69  U69        -0.5172
   1173  OP2       35.5510  -11.5790    3.9330 O.co2  69  U69        -0.4373
   1174  P         36.9300   -5.6640    5.0650 P.3    70  C70         0.2141
   1175  C5'       36.4970   -3.5940    6.6460 C.3    70  C70         0.1812
   1176  O5'       37.0330   -4.9110    6.4800 O.3    70  C70        -0.3114
   1177  C4'       36.4860   -3.2090    8.1050 C.3    70  C70         0.1773
   1178  O4'       35.6420   -4.1170    8.8670 O.3    70  C70        -0.3307
   1179  C3'       37.8290   -3.2780    8.8070 C.3    70  C70         0.1860
   1180  O3'       38.5380   -2.0800    8.5660 O.3    70  C70        -0.3112
   1181  C2'       37.4050   -3.4010   10.2710 C.3    70  C70         0.2309
   1182  O2'       36.9000   -2.2040   10.8150 O.3    70  C70        -0.2156
   1183  C1'       36.2280   -4.3540   10.1460 C.3    70  C70         0.2420
   1184  N1        36.5870   -5.7790   10.2760 N.ar   70  C70        -0.2535
   1185  C2        36.6320   -6.3330   11.5600 C.ar   70  C70         0.3532
   1186  O2        36.5070   -5.5860   12.5400 O.2    70  C70        -0.2443
   1187  N3        36.8200   -7.6570   11.7000 N.ar   70  C70        -0.1739
   1188  C4        36.9830   -8.4330   10.6130 C.ar   70  C70         0.1759
   1189  N4        37.0610   -9.7460   10.7970 N.pl3  70  C70        -0.1070
   1190  C5        37.0410   -7.8850    9.3040 C.ar   70  C70         0.0566
   1191  C6        36.8380   -6.5610    9.1800 C.ar   70  C70         0.0850
   1192  OP1       37.2870   -4.7380    3.9480 O.2    70  C70        -0.5172
   1193  OP2       37.6440   -6.9680    5.2110 O.co2  70  C70        -0.4373
   1194  P         40.1130   -2.1180    8.2940 P.3    71  C71         0.2141
   1195  C5'       41.0110   -1.2470   10.5910 C.3    71  C71         0.1812
   1196  O5'       40.7660   -2.3390    9.7280 O.3    71  C71        -0.3114
   1197  C4'       40.9780   -1.7150   12.0280 C.3    71  C71         0.1773
   1198  O4'       39.8850   -2.6460   12.2050 O.3    71  C71        -0.3307
   1199  C3'       42.1640   -2.5270   12.4880 C.3    71  C71         0.1860
   1200  O3'       43.2850   -1.6890   12.7730 O.3    71  C71        -0.3112
   1201  C2'       41.5820   -3.1750   13.7320 C.3    71  C71         0.2309
   1202  O2'       41.4130   -2.2290   14.7770 O.3    71  C71        -0.2156
   1203  C1'       40.2110   -3.5890   13.2100 C.3    71  C71         0.2420
   1204  N1        40.1870   -4.9470   12.6160 N.ar   71  C71        -0.2535
   1205  C2        40.1100   -6.0810   13.4860 C.ar   71  C71         0.3532
   1206  O2        40.0720   -5.8930   14.7360 O.2    71  C71        -0.2443
   1207  N3        40.0890   -7.3270   12.9350 N.ar   71  C71        -0.1739
   1208  C4        40.1590   -7.4690   11.5990 C.ar   71  C71         0.1759
   1209  N4        40.1910   -8.7060   11.0850 N.pl3  71  C71        -0.1070
   1210  C5        40.2240   -6.3330   10.7160 C.ar   71  C71         0.0566
   1211  C6        40.2390   -5.1200   11.2640 C.ar   71  C71         0.0850
   1212  OP1       40.5130   -0.7790    7.8190 O.3    71  C71        -0.4373
   1213  OP2       40.4280   -3.3100    7.4790 O.co2  71  C71        -0.5172
   1214  P         44.7690   -2.2780   12.6720 P.3    72  G72         0.2141
   1215  C5'       44.8510   -3.0440   15.1630 C.3    72  G72         0.1812
   1216  O5'       44.8090   -3.4040   13.8050 O.3    72  G72        -0.3114
   1217  C4'       44.8320   -4.2830   16.0050 C.3    72  G72         0.1773
   1218  O4'       43.6090   -5.0300   15.7250 O.3    72  G72        -0.3307
   1219  C3'       45.9350   -5.2730   15.6820 C.3    72  G72         0.1860
   1220  O3'       47.1190   -4.8930   16.3580 O.3    72  G72        -0.3112
   1221  C2'       45.3400   -6.5520   16.2530 C.3    72  G72         0.2309
   1222  O2'       45.4350   -6.5630   17.6650 O.3    72  G72        -0.2156
   1223  C1'       43.8740   -6.4050   15.8360 C.3    72  G72         0.2408
   1224  N1        43.2060  -10.8340   13.6150 N.ar   72  G72        -0.1709
   1225  C2        43.3070  -10.5030   14.9550 C.ar   72  G72         0.2606
   1226  N2        43.3240  -11.5100   15.8420 N.pl3  72  G72        -0.0859
   1227  N3        43.4070   -9.2700   15.3990 N.ar   72  G72        -0.1918
   1228  C4        43.4380   -8.3750   14.3970 C.ar   72  G72         0.1723
   1229  C5        43.3570   -8.5850   13.0300 C.ar   72  G72         0.1748
   1230  C6        43.2380   -9.9160   12.5540 C.ar   72  G72         0.3023
   1231  O6        43.1880  -10.3150   11.3640 O.2    72  G72        -0.2633
   1232  N7        43.4230   -7.3800   12.3420 N.ar   72  G72        -0.2173
   1233  C8        43.5670   -6.4860   13.2900 C.ar   72  G72         0.1817
   1234  N9        43.6190   -7.0410   14.5520 N.ar   72  G72        -0.2693
   1235  OP1       45.7580   -1.2660   13.0980 O.3    72  G72        -0.4373
   1236  OP2       44.9510   -3.0120   11.4070 O.co2  72  G72        -0.5172
   1237  P         48.5540   -5.1950   15.7100 P.3    73  A73         0.2141
   1238  C5'       48.8400   -7.3690   17.1550 C.3    73  A73         0.1812
   1239  O5'       48.8140   -6.7600   15.8740 O.3    73  A73        -0.3114
   1240  C4'       49.2800   -8.8180   17.0520 C.3    73  A73         0.1773
   1241  O4'       48.5540   -9.5350   16.0120 O.3    73  A73        -0.3307
   1242  C3'       50.7340   -9.0930   16.7330 C.3    73  A73         0.1860
   1243  O3'       51.5330   -8.9610   17.9140 O.3    73  A73        -0.3112
   1244  C2'       50.6600  -10.5630   16.3160 C.3    73  A73         0.2309
   1245  O2'       50.4300  -11.4130   17.4220 O.3    73  A73        -0.2156
   1246  C1'       49.3780  -10.5760   15.4960 C.3    73  A73         0.2408
   1247  N1        50.1170  -12.7910   10.9230 N.ar   73  A73        -0.2040
   1248  C2        50.0960  -13.2960   12.1760 C.ar   73  A73         0.2016
   1249  N3        49.9420  -12.6570   13.3310 N.ar   73  A73        -0.2048
   1250  C4        49.7940  -11.3330   13.1230 C.ar   73  A73         0.1692
   1251  C5        49.8080  -10.6760   11.9050 C.ar   73  A73         0.1518
   1252  C6        49.9730  -11.4590   10.7640 C.ar   73  A73         0.1919
   1253  N6        49.9880  -10.9520    9.5490 N.pl3  73  A73        -0.1054
   1254  N7        49.6520   -9.3040   12.0740 N.ar   73  A73        -0.2193
   1255  C8        49.5340   -9.1630   13.3760 C.ar   73  A73         0.1816
   1256  N9        49.5780  -10.3580   14.0690 N.ar   73  A73        -0.2693
   1257  OP1       49.5410   -4.4920   16.5620 O.3    73  A73        -0.4373
   1258  OP2       48.5100   -4.9470   14.2470 O.co2  73  A73        -0.5172
   1259  P         53.1080   -8.6510   17.7840 P.3    74  C74         0.2141
   1260  C5'       53.7130  -11.1700   18.2570 C.3    74  C74         0.1812
   1261  O5'       53.7890  -10.0400   17.3860 O.3    74  C74        -0.3114
   1262  C4'       53.8460  -12.4560   17.4650 C.3    74  C74         0.1773
   1263  O4'       52.8920  -12.4500   16.3700 O.3    74  C74        -0.3307
   1264  C3'       55.1710  -12.6610   16.7500 C.3    74  C74         0.1860
   1265  O3'       56.1540  -13.1510   17.6440 O.3    74  C74        -0.3112
   1266  C2'       54.8010  -13.7050   15.7080 C.3    74  C74         0.2309
   1267  O2'       54.7210  -15.0140   16.2620 O.3    74  C74        -0.2156
   1268  C1'       53.4070  -13.2170   15.2890 C.3    74  C74         0.2420
   1269  N1        53.3860  -12.3740   14.0820 N.ar   74  C74        -0.2535
   1270  C2        53.5010  -12.9790   12.8140 C.ar   74  C74         0.3532
   1271  O2        53.6160  -14.2250   12.7410 O.2    74  C74        -0.2443
   1272  N3        53.4700  -12.1920   11.7070 N.ar   74  C74        -0.1739
   1273  C4        53.3150  -10.8740   11.8340 C.ar   74  C74         0.1759
   1274  N4        53.2570  -10.1350   10.7250 N.pl3  74  C74        -0.1070
   1275  C5        53.2050  -10.2470   13.1060 C.ar   74  C74         0.0566
   1276  C6        53.2490  -11.0230   14.1880 C.ar   74  C74         0.0850
   1277  OP1       53.5220   -8.2790   19.1660 O.3    74  C74        -0.4373
   1278  OP2       53.3170   -7.6930   16.6710 O.co2  74  C74        -0.5172
   1279  P         57.7110  -12.9130   17.3280 P.3    75  U75         0.2141
   1280  C5'       58.0400  -15.2150   16.1240 C.3    75  U75         0.1812
   1281  O5'       58.0290  -13.8020   16.0420 O.3    75  U75        -0.3114
   1282  C4'       58.1660  -15.8170   14.7480 C.3    75  U75         0.1773
   1283  O4'       57.0070  -15.4510   13.9570 O.3    75  U75        -0.3307
   1284  C3'       59.3360  -15.3010   13.9290 C.3    75  U75         0.1860
   1285  O3'       60.5210  -16.0010   14.2460 O.3    75  U75        -0.3112
   1286  C2'       58.8780  -15.5750   12.5060 C.3    75  U75         0.2309
   1287  O2'       58.9690  -16.9340   12.1580 O.3    75  U75        -0.2156
   1288  C1'       57.4020  -15.2320   12.6150 C.3    75  U75         0.2420
   1289  N1        57.1550  -13.8300   12.2630 N.ar   75  U75        -0.2534
   1290  C2        57.0120  -13.5460   10.9260 C.ar   75  U75         0.3546
   1291  O2        57.1330  -14.3890   10.0500 O.2    75  U75        -0.2443
   1292  N3        56.7270  -12.2480   10.6410 N.ar   75  U75        -0.1530
   1293  C4        56.5930  -11.2260   11.5230 C.ar   75  U75         0.2846
   1294  O4        56.2950  -10.1190   11.1010 O.2    75  U75        -0.2650
   1295  C5        56.7870  -11.5830   12.8980 C.ar   75  U75         0.0814
   1296  C6        57.0540  -12.8450   13.2130 C.ar   75  U75         0.0870
   1297  OP1       58.4380  -13.4860   18.4790 O.3    75  U75        -0.4373
   1298  OP2       57.8970  -11.4950   16.9710 O.co2  75  U75        -0.5172
   1299  P         61.9310  -15.2520   14.1350 P.3    76  A76         0.2141
   1300  C5'       62.3350  -16.5260   11.8950 C.3    76  A76         0.1812
   1301  O5'       62.2680  -15.2950   12.5860 O.3    76  A76        -0.3114
   1302  C4'       62.5650  -16.2800   10.4260 C.3    76  A76         0.1773
   1303  O4'       61.3290  -15.8010    9.8220 O.3    76  A76        -0.3307
   1304  C3'       63.5580  -15.1810   10.1080 C.3    76  A76         0.1860
   1305  O3'       64.9110  -15.5970   10.2830 O.3    76  A76        -0.3112
   1306  C2'       63.1440  -14.7910    8.6920 C.3    76  A76         0.2309
   1307  O2'       63.5130  -15.7740    7.7370 O.3    76  A76        -0.2156
   1308  C1'       61.6190  -14.8470    8.8150 C.3    76  A76         0.2408
   1309  N1        59.5570  -10.4330    7.1620 N.ar   76  A76        -0.2040
   1310  C2        60.0790  -11.4770    6.5190 C.ar   76  A76         0.2016
   1311  N3        60.5910  -12.5960    7.0100 N.ar   76  A76        -0.2048
   1312  C4        60.5460  -12.5920    8.3500 C.ar   76  A76         0.1692
   1313  C5        60.0370  -11.5970    9.1540 C.ar   76  A76         0.1518
   1314  C6        59.5100  -10.4650    8.5090 C.ar   76  A76         0.1919
   1315  N6        58.9620   -9.4250    9.1460 N.pl3  76  A76        -0.1054
   1316  N7        60.1650  -11.9420   10.4980 N.ar   76  A76        -0.2193
   1317  C8        60.7390  -13.1210   10.4700 C.ar   76  A76         0.1816
   1318  N9        61.0010  -13.5760    9.2040 N.ar   76  A76        -0.2693
   1319  OP1       62.8880  -16.1110   14.8640 O.3    76  A76        -0.4373
   1320  OP2       61.7480  -13.8430   14.5500 O.co2  76  A76        -0.5172
   1321  P         65.9730  -14.5730   10.9400 P.3    77  U77         0.2141
   1322  C5'       66.8050  -14.1470    8.5090 C.3    77  U77         0.1812
   1323  O5'       66.3400  -13.6050    9.7330 O.3    77  U77        -0.3114
   1324  C4'       66.7720  -13.1050    7.4240 C.3    77  U77         0.1773
   1325  O4'       65.3890  -12.8380    7.0580 O.3    77  U77        -0.3307
   1326  C3'       67.2940  -11.7380    7.8250 C.3    77  U77         0.1860
   1327  O3'       68.7160  -11.6980    7.7880 O.3    77  U77        -0.3112
   1328  C2'       66.6160  -10.8300    6.8010 C.3    77  U77         0.2309
   1329  O2'       67.2240  -10.8970    5.5290 O.3    77  U77        -0.2156
   1330  C1'       65.2350  -11.4750    6.7000 C.3    77  U77         0.2420
   1331  N1        64.2660  -10.8520    7.6090 N.ar   77  U77        -0.2534
   1332  C2        63.5890   -9.7430    7.1410 C.ar   77  U77         0.3546
   1333  O2        63.7200   -9.3260    6.0140 O.2    77  U77        -0.2443
   1334  N3        62.7500   -9.1460    8.0470 N.ar   77  U77        -0.1530
   1335  C4        62.5160   -9.5510    9.3480 C.ar   77  U77         0.2846
   1336  O4        61.7420   -8.9010   10.0510 O.2    77  U77        -0.2650
   1337  C5        63.2310  -10.7310    9.7450 C.ar   77  U77         0.0814
   1338  C6        64.0580  -11.3280    8.8780 C.ar   77  U77         0.0870
   1339  OP1       67.1850  -15.3310   11.3170 O.2    77  U77        -0.5172
   1340  OP2       65.2660  -13.7740   11.9710 O.co2  77  U77        -0.4373
   1341  P         69.5050  -10.5620    8.6170 P.3    78  G78         0.2141
   1342  C5'       69.5360   -9.0480    6.4950 C.3    78  G78         0.1812
   1343  O5'       69.1440   -9.2150    7.8460 O.3    78  G78        -0.3114
   1344  C4'       68.9830   -7.7630    5.9250 C.3    78  G78         0.1773
   1345  O4'       67.5290   -7.8390    5.8730 O.3    78  G78        -0.3307
   1346  C3'       69.2320   -6.5130    6.7500 C.3    78  G78         0.1860
   1347  O3'       70.5190   -5.9560    6.5460 O.3    78  G78        -0.3112
   1348  C2'       68.1470   -5.5840    6.2420 C.3    78  G78         0.2309
   1349  O2'       68.4910   -5.0830    4.9620 O.3    78  G78        -0.2156
   1350  C1'       66.9790   -6.5520    6.0990 C.3    78  G78         0.2408
   1351  N1        63.3590   -4.1650    8.7210 N.ar   78  G78        -0.1709
   1352  C2        63.9520   -3.8150    7.5350 C.ar   78  G78         0.2606
   1353  N2        63.5220   -2.6800    6.9730 N.pl3  78  G78        -0.0859
   1354  N3        64.9040   -4.5310    6.9440 N.ar   78  G78        -0.1918
   1355  C4        65.2200   -5.6410    7.6550 C.ar   78  G78         0.1723
   1356  C5        64.6930   -6.0770    8.8510 C.ar   78  G78         0.1748
   1357  C6        63.6690   -5.3000    9.4690 C.ar   78  G78         0.3023
   1358  O6        63.0720   -5.5180   10.5250 O.2    78  G78        -0.2633
   1359  N7        65.2920   -7.2670    9.2500 N.ar   78  G78        -0.2173
   1360  C8        66.1520   -7.5300    8.3020 C.ar   78  G78         0.1817
   1361  N9        66.1560   -6.5810    7.3040 N.ar   78  G78        -0.2693
   1362  OP1       70.9410  -10.8510    8.4150 O.2    78  G78        -0.5172
   1363  OP2       68.9550  -10.4500    9.9950 O.co2  78  G78        -0.4373
   1364  P         71.1500   -5.0050    7.6760 P.3    79  U79         0.2141
   1365  C5'       70.3180   -2.9460    6.2810 C.3    79  U79         0.1812
   1366  O5'       70.3390   -3.6440    7.5250 O.3    79  U79        -0.3114
   1367  C4'       69.5300   -1.6610    6.4100 C.3    79  U79         0.1773
   1368  O4'       68.1110   -1.9710    6.4600 O.3    79  U79        -0.3307
   1369  C3'       69.7860   -0.8480    7.6720 C.3    79  U79         0.1860
   1370  O3'       70.8920    0.0240    7.5030 O.3    79  U79        -0.3112
   1371  C2'       68.4950   -0.0500    7.8040 C.3    79  U79         0.2309
   1372  O2'       68.4540    1.1050    6.9910 O.3    79  U79        -0.2156
   1373  C1'       67.4600   -1.0770    7.3450 C.3    79  U79         0.2420
   1374  N1        66.9650   -1.8440    8.4910 N.ar   79  U79        -0.2534
   1375  C2        65.9760   -1.2620    9.2370 C.ar   79  U79         0.3546
   1376  O2        65.5180   -0.1620    8.9660 O.2    79  U79        -0.2443
   1377  N3        65.5440   -2.0030   10.3050 N.ar   79  U79        -0.1530
   1378  C4        66.0000   -3.2450   10.6910 C.ar   79  U79         0.2846
   1379  O4        65.5120   -3.7920   11.6830 O.2    79  U79        -0.2650
   1380  C5        67.0340   -3.7820    9.8580 C.ar   79  U79         0.0814
   1381  C6        67.4680   -3.0780    8.8090 C.ar   79  U79         0.0870
   1382  OP1       72.5590   -4.7750    7.2820 O.2    79  U79        -0.5172
   1383  OP2       70.8430   -5.5980    8.9950 O.co2  79  U79        -0.4373
   1384  P         71.4560    0.8510    8.7600 P.3    80  C80         0.2141
   1385  C5'       70.5990    2.9810   10.0300 C.3    80  C80         0.1812
   1386  O5'       70.3810    1.9980    9.0180 O.3    80  C80        -0.3114
   1387  C4'       69.2910    3.6180   10.4380 C.3    80  C80         0.1773
   1388  O4'       68.1960    2.7130   10.1390 O.3    80  C80        -0.3307
   1389  C3'       69.1420    3.9220   11.9210 C.3    80  C80         0.1860
   1390  O3'       69.7210    5.1790   12.2570 O.3    80  C80        -0.3112
   1391  C2'       67.6280    3.9380   12.0900 C.3    80  C80         0.2309
   1392  O2'       67.0450    5.1580   11.6690 O.3    80  C80        -0.2156
   1393  C1'       67.2140    2.8000   11.1560 C.3    80  C80         0.2420
   1394  N1        67.1500    1.4970   11.8410 N.ar   80  C80        -0.2535
   1395  C2        66.1800    1.3040   12.8300 C.ar   80  C80         0.3532
   1396  O2        65.4130    2.2430   13.1070 O.2    80  C80        -0.2443
   1397  N3        66.1010    0.1040   13.4550 N.ar   80  C80        -0.1739
   1398  C4        66.9440   -0.8780   13.1260 C.ar   80  C80         0.1759
   1399  N4        66.8230   -2.0450   13.7620 N.pl3  80  C80        -0.1070
   1400  C5        67.9470   -0.7060   12.1280 C.ar   80  C80         0.0566
   1401  C6        68.0150    0.4860   11.5170 C.ar   80  C80         0.0850
   1402  OP1       72.7110    1.5010    8.3030 O.2    80  C80        -0.5172
   1403  OP2       71.4740   -0.0320    9.9600 O.co2  80  C80        -0.4373
   1404  P         70.7180    5.2870   13.5190 P.3    81  C81         0.2141
   1405  C5'       69.5360    6.0290   15.7530 C.3    81  C81         0.1813
   1406  O5'       69.7940    5.0030   14.7910 O.3    81  C81        -0.3114
   1407  C4'       68.0770    6.0170   16.1540 C.3    81  C81         0.1801
   1408  O4'       67.3780    4.9950   15.3900 O.3    81  C81        -0.3306
   1409  C3'       67.7660    5.6960   17.6110 C.3    81  C81         0.2161
   1410  O3'       67.9720    6.7820   18.5400 O.3    81  C81        -0.2175
   1411  C2'       66.3410    5.1610   17.5200 C.3    81  C81         0.2338
   1412  O2'       65.3810    6.1890   17.3970 O.3    81  C81        -0.2155
   1413  C1'       66.4110    4.3590   16.2140 C.3    81  C81         0.2421
   1414  N1        66.8600    2.9690   16.4200 N.ar   81  C81        -0.2535
   1415  C2        66.1170    2.1260   17.2610 C.ar   81  C81         0.3532
   1416  O2        65.0880    2.5690   17.8010 O.2    81  C81        -0.2443
   1417  N3        66.5400    0.8540   17.4600 N.ar   81  C81        -0.1739
   1418  C4        67.6550    0.4180   16.8570 C.ar   81  C81         0.1759
   1419  N4        68.0430   -0.8430   17.0820 N.pl3  81  C81        -0.1070
   1420  C5        68.4240    1.2540   15.9940 C.ar   81  C81         0.0566
   1421  C6        67.9940    2.5080   15.8050 C.ar   81  C81         0.0850
   1422  OP1       71.1810    6.7000   13.5950 O.3    81  C81        -0.4373
   1423  OP2       71.7190    4.1880   13.3940 O.co2  81  C81        -0.5172
@<TRIPOS>BOND
     1   720   719    2
     2   721   719   ar
     3   721   722   ar
     4   723   722    2
     5   686   665    2
     6   719   718   ar
     7   722   724   ar
     8   706   688    2
     9   649   665    1
    10   649   648    1
    11   651   650    1
    12   718   717    1
    13   718   725   ar
    14   666   667    1
    15   666   668    1
    16   665   667    1
    17   665   687    1
    18   724   725   ar
    19   712   717    1
    20   712   711    1
    21   717   715    1
    22   688   707    1
    23   688   671    1
    24   688   690    1
    25   262   261    1
    26   646   648    1
    27   646   644    1
    28   646   647    1
    29   671   670    1
    30   727   708    2
    31   668   670    1
    32   668   669    1
    33   648   650    1
    34   644   645    1
    35   650   652    1
    36   710   708    1
    37   710   709    1
    38   148   128    2
    39   711   709    1
    40   711   713    1
    41   258   257    1
    42   258   263    1
    43   257   255    1
    44   257   259    1
    45   670   672    1
    46   629   628    1
    47   647   652    1
    48   690   689    1
    49   263   261    1
    50   263   274    1
    51   708   726    1
    52   708   694    1
    53   715   716    1
    54   715   713    1
    55   261   259    1
    56   669   674    1
    57   255   256    1
    58   689   691    1
    59   652   662    1
    60   714   713    1
    61   714   728    1
    62   260   259    1
    63   260   277    1
    64   168   150    2
    65   663   643    2
    66   747   728    2
    67   278   280    1
    68   278   279    1
    69   673   672    1
    70   645   643    1
    71   169   150    1
    72   295   277    2
    73   746   728    1
    74   693   691    1
    75   693   694    1
    76   693   695    1
    77   280   281    1
    78   280   282    1
    79   128   114    1
    80   128   149    1
    81   128   130    1
    82   728   730    1
    83   672   674    1
    84   627   643    1
    85   627   626    1
    86   691   692    1
    87   242   241    1
    88   114   113    1
    89   281   286    1
    90   628   626    1
    91   628   630    1
    92   150   134    1
    93   150   152    1
    94   643   664    1
    95   674   685    1
    96   277   279    1
    97   277   296    1
    98   274   268   ar
    99   274   273   ar
   100   285   284    1
   101   129   130    1
   102   129   131    1
   103   267   268   ar
   104   267   265   ar
   105   256   254    1
   106   662   656   ar
   107   662   661   ar
   108   283   282    1
   109   283   297    1
   110   126   108    2
   111   240   254    1
   112   240   239    1
   113   655   656   ar
   114   655   654   ar
   115   695   696    1
   116   695   697    1
   117   187   188   ar
   118   187   184   ar
   119   188   189   ar
   120   626   624    1
   121   134   133    1
   122   318   297    2
   123   630   625    1
   124   630   640    1
   125   275   254    2
   126   268   269   ar
   127   237   235    1
   128   237   239    1
   129   237   238    1
   130   624   625    1
   131   624   622    1
   132   633   632   ar
   133   633   634   ar
   134   282   284    1
   135   109   111    1
   136   109   110    1
   137   266   265    1
   138   286   284    1
   139   286   287    1
   140   116   115    1
   141   151   152    1
   142   151   153    1
   143   273   272   ar
   144   656   657   ar
   145   111   113    1
   146   111   112    1
   147   684   685   ar
   148   684   683   ar
   149   254   276    1
   150   113   115    1
   151   685   679   ar
   152   632   631   ar
   153   241   239    1
   154   241   243    1
   155   235   236    1
   156   265   264   ar
   157   131   133    1
   158   131   132    1
   159   692   697    1
   160   730   729    1
   161   661   660   ar
   162   238   243    1
   163   297   299    1
   164   297   319    1
   165   654   653   ar
   166   298   299    1
   167   298   300    1
   168   222   221    1
   169   622   623    1
   170   133   135    1
   171   243   244    1
   172   697   698    1
   173   110   108    1
   174   115   117    1
   175   189   179    1
   176   189   183   ar
   177   108    92    1
   178   108   127    1
   179   186   185    1
   180   634   640   ar
   181   634   635   ar
   182   184   185   ar
   183   184   183   ar
   184   640   639   ar
   185   729   731    1
   186   705   698   ar
   187   705   704   ar
   188   269   272   ar
   189   269   270   ar
   190   683   680   ar
   191   179   174    1
   192   179   177    1
   193   287   294   ar
   194   287   288   ar
   195   112   117    1
   196    92    91    1
   197   226   225    2
   198   153   154    1
   199   153   155    1
   200   657   660   ar
   201   657   658   ar
   202   631   636   ar
   203   294   293   ar
   204  1172  1154    2
   205   264   270   ar
   206   132   137    1
   207   252   234    2
   208   185   180   ar
   209   236   234    1
   210   679   678   ar
   211   679   680   ar
   212   300   301    1
   213   300   302    1
   214   698   699   ar
   215   174   173    1
   216   183   182   ar
   217    94    93    1
   218   221   223    1
   219   221   219    1
   220  1109  1089    2
   221   246   245    2
   222   136   135    1
   223   704   702   ar
   224   653   658   ar
   225   609   608    1
   226   117   118    1
   227   190   170    2
   228   613   612    2
   229   135   137    1
   230   154   159    1
   231   301   306    1
   232   623   621    1
   233   270   271    2
   234   167   166   ar
   235   167   160   ar
   236   744   745   ar
   237   744   742   ar
   238   166   164   ar
   239   289   288    2
   240   244   245   ar
   241   244   251   ar
   242   178   177    1
   243   678   676   ar
   244   680   681   ar
   245   220   234    1
   246   220   219    1
   247   635   636   ar
   248   635   638   ar
   249   639   638   ar
   250   745   738   ar
   251   288   290   ar
   252   658   659    1
   253   234   253    1
   254   155   157    1
   255   155   156    1
   256   177   175    1
   257   636   637    1
   258   641   621    2
   259   731   733    1
   260   731   732    1
   261   223   224    1
   262   223   218    1
   263  1137  1154    1
   264  1137  1136    1
   265   137   147    1
   266   225   224   ar
   267   225   227   ar
   268   245   247   ar
   269   293   291   ar
   270   338   320    2
   271   303   302    1
   272   303   320    1
   273  1152  1131    2
   274    91    93    1
   275    91    89    1
   276   219   217    1
   277   608   610    1
   278   608   606    1
   279  1154  1173    1
   280  1154  1156    1
   281    93    95    1
   282   172   170    1
   283   172   171    1
   284   733   735    1
   285   733   734    1
   286  1132  1134    1
   287  1132  1133    1
   288   302   304    1
   289   735   737    1
   290   735   736    1
   291   180   181   ar
   292   173   175    1
   293   173   171    1
   294   699   700    2
   295   699   701   ar
   296   251   250   ar
   297  1091  1089    1
   298  1091  1090    1
   299  1097  1096    1
   300   157   159    1
   301   157   158    1
   302   182   181   ar
   303   732   737    1
   304   621   607    1
   305   621   642    1
   306   159   160    1
   307   612   614   ar
   308   612   611   ar
   309   170   156    1
   310   170   191    1
   311  1134  1136    1
   312  1134  1135    1
   313  1089  1073    1
   314  1089  1110    1
   315   160   161   ar
   316    89    87    1
   317    89    90    1
   318   118   125   ar
   319   118   119   ar
   320   743   742    2
   321   339   320    1
   322   742   741   ar
   323   702   701   ar
   324   702   703    2
   325   320   322    1
   326   224   231   ar
   327   227   228   ar
   328  1155  1156    1
   329  1155  1157    1
   330   607   606    1
   331   164   165    1
   332   164   163   ar
   333   738   737    1
   334   738   739   ar
   335   306   304    1
   336   306   317    1
   337   217   218    1
   338   217   215    1
   339   676   675   ar
   340   676   677    1
   341   290   291   ar
   342   614   615   ar
   343  1139  1138    1
   344   766   748    2
   345   305   304    1
   346   125   124   ar
   347   175   176    1
   348   681   675   ar
   349   681   682    2
   350   610   611    1
   351   610   605    1
   352   146   147   ar
   353   146   145   ar
   354  1136  1138    1
   355  1119  1118    1
   356   291   292    1
   357  1192  1174    2
   358   147   141   ar
   359    87    88    1
   360   316   317   ar
   361   316   315   ar
   362   120   119    2
   363  1073  1072    1
   364  1092  1090    1
   365  1092  1093    1
   366  1092  1094    1
   367   606   604    1
   368  1117  1131    1
   369  1117  1116    1
   370   247   248   ar
   371  1131  1133    1
   372  1131  1153    1
   373  1095  1094    1
   374  1095  1111    1
   375   611   618   ar
   376   119   121   ar
   377    95    90    1
   378    95   105    1
   379   734   748    1
   380   317   311   ar
   381  1129  1111    2
   382  1135  1140    1
   383  1093  1098    1
   384    88    86    1
   385   590   589    1
   386   250   248   ar
   387   767   748    1
   388   741   739   ar
   389  1096  1094    1
   390  1096  1098    1
   391  1070  1072    1
   392  1070  1068    1
   393  1070  1071    1
   394  1138  1140    1
   395   748   750    1
   396   161   163   ar
   397   161   162    2
   398   739   740    2
   399   106    86    2
   400  1157  1159    1
   401  1157  1158    1
   402  1160  1174    1
   403  1160  1159    1
   404   176   192    1
   405   315   312   ar
   406  1023  1002    2
   407  1349  1348    1
   408  1098  1108    1
   409   228   229    2
   410   228   230   ar
   411   231   230   ar
   412   604   605    1
   413   604   602    1
   414  1072  1074    1
   415   615   616    1
   416   615   617   ar
   417   124   122   ar
   418  1174  1193    1
   419  1174  1176    1
   420   248   249    1
   421   145   142   ar
   422   322   321    1
   423   215   216    1
   424  1068  1069    1
   425  1118  1116    1
   426  1118  1120    1
   427  1111  1130    1
   428  1111  1113    1
   429   141   140   ar
   430   141   142   ar
   431  1071  1076    1
   432    98    99   ar
   433    98    97   ar
   434  1140  1151    1
   435  1116  1114    1
   436  1114  1112    1
   437  1114  1115    1
   438   321   323    1
   439  1329  1328    1
   440  1159  1161    1
   441   105    99   ar
   442   105   104   ar
   443    86    72    1
   444    86   107    1
   445   121   122   ar
   446   618   617   ar
   447  1000   982    2
   448   311   312   ar
   449   311   310   ar
   450   983   985    1
   451   983   984    1
   452   589   588   ar
   453   589   591   ar
   454  1053  1052    1
   455  1158  1163    1
   456   140   139   ar
   457   216   214    1
   458  1345  1344    1
   459  1345  1350    1
   460  1344  1342    1
   461  1344  1346    1
   462    99   100   ar
   463   142   143   ar
   464   588   594   ar
   465    97    96   ar
   466   312   313   ar
   467   122   123    2
   468  1333  1332    2
   469   970   969    1
   470  1350  1348    1
   471  1350  1361    1
   472  1076  1074    1
   473  1076  1086    1
   474   750   749    1
   475  1079  1078   ar
   476  1079  1080   ar
   477  1112  1113    1
   478  1115  1120    1
   479  1120  1121    1
   480   988  1002    1
   481   988   987    1
   482  1348  1346    1
   483   985   987    1
   484   985   986    1
   485  1002  1024    1
   486  1002  1004    1
   487   968   982    1
   488   968   967    1
   489  1365  1367    1
   490  1365  1366    1
   491   193   194    1
   492   193   195    1
   493  1087  1067    2
   494    72    71    1
   495   805   804    2
   496   602   603    1
   497  1367  1368    1
   498  1367  1369    1
   499  1074  1075    1
   500  1108  1102   ar
   501  1108  1107   ar
   502   192   194    1
   503   192   213    2
   504   192   212    1
   505  1368  1373    1
   506  1176  1175    1
   507  1342  1343    1
   508   310   308   ar
   509  1310  1311   ar
   510  1310  1309   ar
   511  1069  1067    1
   512  1078  1077   ar
   513   104   103   ar
   514  1347  1346    1
   515  1347  1364    1
   516   749   751    1
   517  1101  1102   ar
   518  1101  1100   ar
   519  1175  1177    1
   520  1151  1150   ar
   521  1151  1145   ar
   522  1330  1328    1
   523  1330  1325    1
   524  1330  1331    1
   525   965   963    1
   526   965   967    1
   527   965   966    1
   528   591   592   ar
   529    74    73    1
   530   982   984    1
   531   982  1001    1
   532   783   782    2
   533  1328  1326    1
   534   336   337   ar
   535   336   334   ar
   536  1162  1161    1
   537  1161  1163    1
   538   323   324    1
   539   323   325    1
   540  1354  1352   ar
   541  1354  1355   ar
   542  1353  1352    1
   543   337   330   ar
   544  1372  1371    1
   545   603   601    1
   546  1311  1312   ar
   547  1123  1122    2
   548  1325  1324    1
   549   963   964    1
   550   987   989    1
   551  1051  1067    1
   552  1051  1050    1
   553  1102  1103   ar
   554   324   329    1
   555  1163  1164    1
   556    96   101   ar
   557   100   103   ar
   558   100   101   ar
   559  1332  1331   ar
   560  1332  1334   ar
   561   594   595    2
   562   594   593   ar
   563   986   991    1
   564  1309  1314   ar
   565   823   822    2
   566   967   969    1
   567  1150  1149   ar
   568   139   138   ar
   569  1067  1088    1
   570  1052  1054    1
   571  1052  1050    1
   572   824   822   ar
   573   824   825   ar
   574   313   314    2
   575   313   307   ar
   576   990   989    1
   577  1171  1164   ar
   578  1171  1170   ar
   579  1080  1086   ar
   580  1080  1081   ar
   581  1382  1364    2
   582   969   971    1
   583  1361  1355   ar
   584  1361  1360   ar
   585  1086  1085   ar
   586  1004  1003    1
   587  1373  1371    1
   588  1373  1374    1
   589   826   825    1
   590   798   804   ar
   591   798   799   ar
   592  1107  1106   ar
   593   143   138   ar
   594   143   144    1
   595   804   803   ar
   596  1324  1326    1
   597  1324  1322    1
   598    73    71    1
   599    73    75    1
   600   764   765   ar
   601   764   762   ar
   602   966   971    1
   603   214   198    1
   604   214   233    2
   605   214   232    1
   606    71    69    1
   607  1213  1194    2
   608  1370  1369    1
   609  1370  1384    1
   610  1366  1364    1
   611  1100  1099   ar
   612  1352  1351   ar
   613   195   197    1
   614   195   196    1
   615  1121  1122   ar
   616  1121  1128   ar
   617  1331  1338   ar
   618   362   340    2
   619  1355  1356   ar
   620   948   947    1
   621  1369  1371    1
   622  1364  1383    1
   623   308   307   ar
   624   308   309    1
   625   765   758   ar
   626  1307  1306    1
   627  1144  1145   ar
   628  1144  1142   ar
   629   101   102    1
   630  1077  1082   ar
   631   822   821   ar
   632  1054  1049    1
   633  1054  1064    1
   634   198   197    1
   635  1145  1146   ar
   636  1003  1005    1
   637  1327  1326    1
   638  1327  1341    1
   639  1212  1194    1
   640   325   326    1
   641   325   327    1
   642  1343  1341    1
   643   592   593   ar
   644   592   598   ar
   645   335   334    2
   646  1050  1048    1
   647  1122  1124   ar
   648  1164  1165   ar
   649   334   333   ar
   650   782   784   ar
   651   782   781   ar
   652   971   972    1
   653  1170  1168   ar
   654   989   991    1
   655   825   827   ar
   656  1048  1049    1
   657  1048  1046    1
   658   586   585    1
   659   751   752    1
   660   751   753    1
   661  1334  1335   ar
   662   752   757    1
   663  1177  1179    1
   664  1177  1178    1
   665   326   340    1
   666   593   596   ar
   667   330   329    1
   668   330   331   ar
   669   991   992    1
   670   787   768    2
   671   800   799    1
   672    78    77    2
   673   784   785   ar
   674  1194  1180    1
   675  1194  1196    1
   676   763   762    1
   677  1360  1359   ar
   678  1402  1384    2
   679  1312  1313   ar
   680  1312  1318   ar
   681   197   199    1
   682   361   340    1
   683   980   962    2
   684   964   962    1
   685   329   327    1
   686  1057  1056   ar
   687  1057  1058   ar
   688  1362  1341    2
   689   340   342    1
   690  1103  1106   ar
   691  1103  1104   ar
   692   585   587    1
   693   585   583    1
   694   799   801   ar
   695  1149  1146   ar
   696  1374  1381   ar
   697  1374  1375   ar
   698  1314  1315    1
   699  1314  1313   ar
   700   196   201    1
   701  1322  1323    1
   702   762   761   ar
   703   601   619    2
   704   601   620    1
   705   601   584    1
   706  1180  1179    1
   707  1081  1082   ar
   708  1081  1084   ar
   709  1043  1025    2
   710  1128  1127   ar
   711  1341  1363    1
   712    69    67    1
   713    69    70    1
   714  1085  1084   ar
   715  1306  1308    1
   716  1306  1304    1
   717  1351  1357   ar
   718   803   806   ar
   719   803   802   ar
   720  1384  1386    1
   721  1384  1403    1
   722  1179  1181    1
   723  1381  1380   ar
   724  1308  1318    1
   725  1308  1303    1
   726   951   952   ar
   727   951   950   ar
   728  1082  1083    1
   729   952   953   ar
   730  1356  1359   ar
   731  1356  1357   ar
   732  1099  1104   ar
   733  1178  1183    1
   734  1146  1147   ar
   735  1338  1337   ar
   736   947   949    1
   737   947   945    1
   738    75    76    1
   739    75    70    1
   740  1142  1143    1
   741  1142  1141   ar
   742   753   754    1
   743   753   755    1
   744  1376  1375    2
   745   598   587    1
   746   598   597   ar
   747   781   779   ar
   748   758   757    1
   749   758   759   ar
   750  1064  1058   ar
   751  1064  1063   ar
   752  1056  1055   ar
   753  1386  1385    1
   754   821   820    1
   755   821   828   ar
   756   819   818    1
   757   327   328    1
   758   946   962    1
   759   946   945    1
   760  1005  1007    1
   761  1005  1006    1
   762   333   331   ar
   763  1046  1047    1
   764    77    76   ar
   765    77    79   ar
   766   587   582    1
   767  1313  1316   ar
   768   962   981    1
   769  1191  1190   ar
   770  1191  1184   ar
   771  1318  1317   ar
   772  1124  1125   ar
   773   806   807   ar
   774  1375  1377   ar
   775  1165  1166    2
   776  1165  1167   ar
   777  1058  1059   ar
   778   827   828   ar
   779    67    68    1
   780  1007  1009    1
   781  1007  1008    1
   782   331   332    2
   783  1190  1188   ar
   784   757   755    1
   785   818   820    1
   786   818   816    1
   787   754   768    1
   788   584   583    1
   789  1335  1337   ar
   790  1335  1336    2
   791   974   973    2
   792  1168  1167   ar
   793  1168  1169    2
   794  1104  1105    1
   795   972   973   ar
   796   972   979   ar
   797   596   597   ar
   798  1357  1358    2
   799  1047  1045    1
   800    76    83   ar
   801   992   999   ar
   802   992   993   ar
   803   768   786    1
   804   768   770    1
   805   820   815    1
   806  1253  1252    1
   807   785   778   ar
   808   583   581    1
   809   200   199    1
   810   999   998   ar
   811   949   944    1
   812   949   959    1
   813    79    80   ar
   814   199   201    1
   815   801   802   ar
   816  1196  1195    1
   817  1323  1321    1
   818  1026  1027    1
   819  1026  1028    1
   820   761   759   ar
   821   802   808   ar
   822   201   211    1
   823  1303  1302    1
   824   950   955   ar
   825   358   359   ar
   826   358   355   ar
   827   945   943    1
   828  1380  1378   ar
   829  1127  1125   ar
   830   342   341    1
   831  1009  1010    1
   832  1009  1011    1
   833  1025  1027    1
   834  1025  1008    1
   835  1025  1044    1
   836   573   572    1
   837  1385  1387    1
   838   759   760    2
   839  1291  1290    2
   840   973   975   ar
   841   755   756    1
   842  1141  1147   ar
   843   953   959   ar
   844   953   954   ar
   845  1304  1305    1
   846  1304  1302    1
   847   380   379    2
   848    68    66    1
   849  1388  1387    1
   850  1388  1393    1
   851   979   978   ar
   852  1183  1181    1
   853  1183  1184    1
   854  1063  1062   ar
   855   357   356    2
   856  1147  1148    2
   857  1006  1011    1
   858   552   551    1
   859   210   211   ar
   860   210   209   ar
   861  1125  1126    2
   862  1181  1182    1
   863  1055  1060   ar
   864  1184  1185   ar
   865  1305  1321    1
   866  1377  1378   ar
   867   779   778   ar
   868   779   780    2
   869   359   360   ar
   870   943   944    1
   871   943   941    1
   872  1028  1029    1
   873  1028  1030    1
   874  1021  1020   ar
   875  1021  1022   ar
   876   531   530    1
   877  1302  1300    1
   878    83    82   ar
   879  1387  1389    1
   880  1317  1316   ar
   881   994   993    2
   882   807   808   ar
   883   959   958   ar
   884   582   581    1
   885   770   769    1
   886   571   572   ar
   887   571   569   ar
   888  1059  1060   ar
   889  1059  1062   ar
   890   778   777    1
   891    80    82   ar
   892    80    81    1
   893  1195  1197    1
   894  1188  1189    1
   895  1188  1187   ar
   896   993   995   ar
   897  1292  1290   ar
   898  1292  1293   ar
   899   211   205   ar
   900   816   817    1
   901   816   814    1
   902   505   504    1
   903  1378  1379    2
   904   846   845    1
   905  1210  1211   ar
   906  1210  1208   ar
   907  1274  1273    1
   908   444   443    1
   909   581   579    1
   910  1252  1247   ar
   911  1252  1251   ar
   912   998   996   ar
   913  1011  1022    1
   914   850   831    2
   915   817   831    1
   916  1247  1248   ar
   917   808   797    1
   918   815   814    1
   919  1290  1289   ar
   920   572   574   ar
   921   355   356   ar
   922   355   354   ar
   923  1321  1339    2
   924  1321  1340    1
   925   402   401    1
   926   341   343    1
   927  1020  1017   ar
   928  1045  1031    1
   929  1045  1065    2
   930  1045  1066    1
   931   356   350   ar
   932   955   954   ar
   933   955   956    1
   934  1209  1208    1
   935  1060  1061    1
   936  1294  1293    2
   937  1031  1030    1
   938   570   569    2
   939  1022  1016   ar
   940  1393  1394    1
   941  1393  1391    1
   942  1029  1034    1
   943   954   957   ar
   944   209   206   ar
   945   847   845   ar
   946   847   848   ar
   947  1211  1204   ar
   948   546   551   ar
   949   546   547   ar
   950   379   373   ar
   951   379   378   ar
   952  1030  1032    1
   953  1231  1230    2
   954   551   550   ar
   955   975   976   ar
   956  1236  1214    2
   957   932   931    2
   958   569   568   ar
   959   423   422    2
   960   978   976   ar
   961    55    54   ar
   962    55    56   ar
   963  1401  1394   ar
   964  1401  1400   ar
   965  1293  1295   ar
   966    66    84    2
   967    66    85    1
   968    66    50    1
   969  1185  1187   ar
   970  1185  1186    2
   971  1208  1207   ar
   972   438   443   ar
   973   438   439   ar
   974   845   844   ar
   975   814   812    1
   976   530   532   ar
   977   530   529   ar
   978   360   354   ar
   979   360   349    1
   980  1392  1391    1
   981   941   942    1
   982   831   849    1
   983   831   833    1
   984  1272  1273   ar
   985  1272  1270   ar
   986   443   442   ar
   987    54    59   ar
   988   810   788    2
   989    52    51    1
   990   995   996   ar
   991   344   343    1
   992   344   349    1
   993  1273  1275   ar
   994  1394  1395   ar
   995   504   506   ar
   996   504   503   ar
   997   769   771    1
   998   958   957   ar
   999   532   533   ar
  1000  1300  1301    1
  1001   996   997    1
  1002  1251  1254   ar
  1003  1251  1250   ar
  1004  1389  1391    1
  1005  1389  1390    1
  1006   777   772    1
  1007   777   775    1
  1008    56    57   ar
  1009   772   771    1
  1010   373   374   ar
  1011   381   378   ar
  1012   381   382   ar
  1013   205   206   ar
  1014   205   204   ar
  1015  1197  1198    1
  1016  1197  1199    1
  1017   354   353   ar
  1018  1254  1255   ar
  1019   501   500    1
  1020   976   977    1
  1021  1400  1398   ar
  1022   421   422   ar
  1023   421   419   ar
  1024   579   580    1
  1025  1287  1286    1
  1026   343   345    1
  1027  1248  1249   ar
  1028   848   841   ar
  1029  1198  1203    1
  1030   401   396   ar
  1031   401   400   ar
  1032   909   908    1
  1033  1017  1016   ar
  1034  1017  1018   ar
  1035   378   377   ar
  1036  1390  1404    1
  1037   574   575   ar
  1038  1289  1288    1
  1039  1289  1296   ar
  1040   797   795    1
  1041   797   792    1
  1042   506   507   ar
  1043   350   351   ar
  1044  1232  1229   ar
  1045  1232  1233   ar
  1046   580   578    1
  1047  1016  1015   ar
  1048    51    49    1
  1049    51    53    1
  1050   206   207   ar
  1051   422   424   ar
  1052   907   908   ar
  1053   907   913   ar
  1054   914   913    2
  1055   547   548   ar
  1056   396   397   ar
  1057  1199  1200    1
  1058  1199  1201    1
  1059   931   933   ar
  1060   931   930   ar
  1061  1286  1288    1
  1062  1286  1284    1
  1063   773   771    1
  1064   773   775    1
  1065   773   774    1
  1066   928   927    1
  1067   933   934   ar
  1068    50    49    1
  1069   385   363    2
  1070  1230  1229   ar
  1071  1230  1224   ar
  1072   349   347    1
  1073  1301  1299    1
  1074  1034  1032    1
  1075  1034  1035    1
  1076   439   440   ar
  1077   503   509   ar
  1078  1288  1283    1
  1079  1204  1203    1
  1080  1204  1205   ar
  1081   550   553   ar
  1082   550   549   ar
  1083   529   527   ar
  1084    59    60    1
  1085    59    58   ar
  1086   345   347    1
  1087   345   346    1
  1088  1214  1200    1
  1089  1214  1235    1
  1090  1214  1216    1
  1091  1042  1035   ar
  1092  1042  1041   ar
  1093   420   419    2
  1094  1032  1033    1
  1095   568   575   ar
  1096   568   567    1
  1097  1271  1270    2
  1098   942   940    1
  1099   482   481    1
  1100   775   776    1
  1101   795   793    1
  1102   795   796    1
  1103  1270  1269   ar
  1104   833   832    1
  1105  1395  1396    2
  1106  1395  1397   ar
  1107   204   203   ar
  1108    57    58   ar
  1109    57    63   ar
  1110   868   867    2
  1111   813   812    1
  1112   813   811    1
  1113   844   842   ar
  1114  1295  1296   ar
  1115   442   445   ar
  1116   442   441   ar
  1117  1207  1205   ar
  1118   553   554   ar
  1119  1229  1228   ar
  1120   908   910   ar
  1121   419   418   ar
  1122   913   912   ar
  1123  1275  1276   ar
  1124  1250  1249   ar
  1125  1250  1256   ar
  1126  1398  1397   ar
  1127  1398  1399    1
  1128    49    47    1
  1129   535   516    2
  1130   382   383   ar
  1131   788   790    1
  1132   788   774    1
  1133   788   809    1
  1134   790   789    1
  1135   533   526   ar
  1136   927   929    1
  1137   927   925    1
  1138   792   791    1
  1139  1203  1201    1
  1140   500   502    1
  1141   500   498    1
  1142    58    61   ar
  1143  1035  1036   ar
  1144  1233  1234   ar
  1145   353   351   ar
  1146  1041  1039   ar
  1147   400   403   ar
  1148   400   399   ar
  1149   374   375    1
  1150   374   376   ar
  1151  1018  1019    2
  1152  1018  1012   ar
  1153  1255  1256   ar
  1154   445   446   ar
  1155   891   890    2
  1156  1423  1404    2
  1157  1015  1013   ar
  1158   351   352    1
  1159   793   791    1
  1160   793   794    1
  1161   403   404   ar
  1162   565   567    1
  1163   565   566    1
  1164   565   563    1
  1165   841   842   ar
  1166   841   840    1
  1167    53    63    1
  1168    53    48    1
  1169  1205  1206    2
  1170   830   811    2
  1171   347   348    1
  1172  1404  1422    1
  1173  1404  1406    1
  1174   346   363    1
  1175   507   513   ar
  1176   507   508   ar
  1177   377   383   ar
  1178   377   376   ar
  1179    63    62   ar
  1180  1224  1225   ar
  1181   929   930    1
  1182   929   924    1
  1183   600   578    2
  1184   567   562    1
  1185   502   513    1
  1186   502   497    1
  1187   548   549   ar
  1188   930   937   ar
  1189   934   935    1
  1190   934   936   ar
  1191   549   555   ar
  1192   207   208    1
  1193   207   202   ar
  1194   397   398   ar
  1195  1201  1202    1
  1196   440   441   ar
  1197   363   365    1
  1198   363   384    1
  1199   578   599    1
  1200   578   564    1
  1201   424   425   ar
  1202  1216  1215    1
  1203   842   843    2
  1204   441   447   ar
  1205   509   508   ar
  1206   509   510    2
  1207   481   480   ar
  1208   481   483   ar
  1209   527   526   ar
  1210   527   528    2
  1211  1284  1285    1
  1212  1284  1282    1
  1213   835   840    1
  1214   835   834    1
  1215   480   486   ar
  1216  1283  1282    1
  1217  1256  1246    1
  1218   811   794    1
  1219   811   829    1
  1220   867   861   ar
  1221   867   866   ar
  1222  1269  1276   ar
  1223  1269  1268    1
  1224   791   789    1
  1225   203   202   ar
  1226   383   372    1
  1227  1299  1285    1
  1228  1299  1320    2
  1229  1299  1319    1
  1230    61    62   ar
  1231   499   516    1
  1232   499   498    1
  1233   832   834    1
  1234   526   525    1
  1235   513   512   ar
  1236  1258  1237    2
  1237   940   926    1
  1238   940   960    2
  1239   940   961    1
  1240   554   555   ar
  1241   563   564    1
  1242   563   561    1
  1243   418   425   ar
  1244   418   417    1
  1245   508   511   ar
  1246   910   911   ar
  1247   884   890   ar
  1248   884   885   ar
  1249  1228  1234   ar
  1250  1228  1227   ar
  1251  1012  1013   ar
  1252  1013  1014    1
  1253   890   889   ar
  1254   926   925    1
  1255   516   518    1
  1256   516   534    1
  1257   498   496    1
  1258    47    48    1
  1259    47    45    1
  1260   925   923    1
  1261   840   838    1
  1262  1036  1037    2
  1263  1036  1038   ar
  1264   912   911   ar
  1265   912   915   ar
  1266  1234  1223    1
  1267   399   398   ar
  1268   399   405   ar
  1269   446   447   ar
  1270   365   364    1
  1271  1039  1038   ar
  1272  1039  1040    2
  1273   497   496    1
  1274   861   862   ar
  1275   404   405   ar
  1276  1282  1280    1
  1277   834   836    1
  1278   869   866   ar
  1279   869   870   ar
  1280  1406  1405    1
  1281   555   545    1
  1282   937   936   ar
  1283   483   484   ar
  1284   447   437    1
  1285   924   923    1
  1286  1225  1227   ar
  1287  1225  1226    1
  1288   487   486    2
  1289   496   494    1
  1290   866   865   ar
  1291   562   561    1
  1292   911   917   ar
  1293   416   415    1
  1294   518   517    1
  1295   557   536    2
  1296   486   485   ar
  1297  1215  1217    1
  1298   886   885    1
  1299   836   838    1
  1300   836   837    1
  1301  1268  1266    1
  1302  1268  1263    1
  1303    46    45    1
  1304    46    44    1
  1305   923   921    1
  1306    33    32    1
  1307   417   415    1
  1308   417   412    1
  1309  1408  1407    1
  1310  1408  1413    1
  1311   512   511   ar
  1312   885   887   ar
  1313    31    32   ar
  1314    31    37   ar
  1315   405   395    1
  1316    38    37    2
  1317  1246  1241    1
  1318  1246  1244    1
  1319   372   367    1
  1320   372   370    1
  1321   915   916   ar
  1322   525   520    1
  1323   525   523    1
  1324   561   559    1
  1325   520   519    1
  1326   838   839    1
  1327   367   366    1
  1328  1219  1217    1
  1329  1219  1221    1
  1330  1219  1220    1
  1331  1266  1267    1
  1332  1266  1264    1
  1333  1237  1239    1
  1334  1237  1220    1
  1335  1237  1257    1
  1336   873   851    2
  1337  1218  1223    1
  1338  1218  1217    1
  1339  1405  1407    1
  1340   889   892   ar
  1341   889   888   ar
  1342  1421  1420   ar
  1343  1421  1414   ar
  1344  1223  1221    1
  1345    32    34   ar
  1346  1239  1238    1
  1347    37    36   ar
  1348   577   558    2
  1349   364   366    1
  1350   415   413    1
  1351   407   386    2
  1352   560   559    1
  1353   560   558    1
  1354   870   871   ar
  1355  1420  1418   ar
  1356   484   485   ar
  1357   484   490   ar
  1358  1241  1240    1
  1359   862   863    1
  1360   862   864   ar
  1361   521   523    1
  1362   521   519    1
  1363   521   522    1
  1364  1281  1280    1
  1365  1281  1279    1
  1366   485   488   ar
  1367  1407  1409    1
  1368    65    44    2
  1369   437   432    1
  1370   437   435    1
  1371  1413  1414    1
  1372  1413  1411    1
  1373   545   543    1
  1374   545   540    1
  1375   523   524    1
  1376  1221  1222    1
  1377   892   893   ar
  1378   865   864   ar
  1379   865   871   ar
  1380  1244  1242    1
  1381  1244  1245    1
  1382   517   519    1
  1383   368   366    1
  1384   368   370    1
  1385   368   369    1
  1386  1263  1262    1
  1387   837   851    1
  1388    44    64    1
  1389    44    27    1
  1390   917   916   ar
  1391   917   906    1
  1392   412   411    1
  1393  1414  1415   ar
  1394   370   371    1
  1395   543   541    1
  1396   543   544    1
  1397   536   538    1
  1398   536   522    1
  1399   536   556    1
  1400   494   495    1
  1401   432   431    1
  1402  1278  1259    2
  1403   538   537    1
  1404   887   888   ar
  1405    34    35   ar
  1406  1242  1240    1
  1407  1242  1243    1
  1408  1264  1262    1
  1409  1264  1265    1
  1410   888   894   ar
  1411    36    35   ar
  1412    36    39   ar
  1413   921   922    1
  1414   851   853    1
  1415   851   872    1
  1416   558   542    1
  1417   558   576    1
  1418  1418  1419    1
  1419  1418  1417   ar
  1420   395   390    1
  1421   395   393    1
  1422   541   542    1
  1423   541   539    1
  1424   871   860    1
  1425  1298  1279    2
  1426  1240  1238    1
  1427   414   413    1
  1428   414   428    1
  1429   540   539    1
  1430    35    41   ar
  1431   478   477    1
  1432   922   920    1
  1433   495   493    1
  1434   490   479    1
  1435   490   489   ar
  1436   413   411    1
  1437   435   436    1
  1438   435   433    1
  1439  1415  1417   ar
  1440  1415  1416    2
  1441   386   369    1
  1442   386   388    1
  1443   386   406    1
  1444  1279  1265    1
  1445  1279  1297    1
  1446  1261  1259    1
  1447  1261  1260    1
  1448  1412  1411    1
  1449   906   904    1
  1450   906   901    1
  1451   477   479    1
  1452   477   475    1
  1453   488   489   ar
  1454   388   387    1
  1455  1262  1260    1
  1456    39    40   ar
  1457   853   852    1
  1458   390   389    1
  1459   904   905    1
  1460   904   902    1
  1461  1411  1409    1
  1462   393   391    1
  1463   393   394    1
  1464   893   894   ar
  1465   479   474    1
  1466  1409  1410    1
  1467   449   428    2
  1468   411   409    1
  1469    27    26    1
  1470  1259  1243    1
  1471  1259  1277    1
  1472   539   537    1
  1473    28    26    1
  1474    28    29    1
  1475    28    30    1
  1476   427   408    2
  1477   430   429    1
  1478   430   428    1
  1479   894   883    1
  1480    17    16    2
  1481   391   389    1
  1482   391   392    1
  1483   410   409    1
  1484   410   408    1
  1485   431   429    1
  1486   431   433    1
  1487    41    40   ar
  1488    41    30    1
  1489   428   448    1
  1490    26    24    1
  1491   860   855    1
  1492   860   858    1
  1493   855   854    1
  1494   389   387    1
  1495   433   434    1
  1496   902   903    1
  1497   902   900    1
  1498   901   900    1
  1499    30    25    1
  1500   920   939    2
  1501   920   903    1
  1502   920   938    1
  1503   408   392    1
  1504   408   426    1
  1505   475   476    1
  1506   475   473    1
  1507   896   874    2
  1508    16    10   ar
  1509    16    15   ar
  1510   493   515    2
  1511   493   476    1
  1512   493   514    1
  1513   852   854    1
  1514    10    11   ar
  1515   474   473    1
  1516   434   450    1
  1517   856   858    1
  1518   856   854    1
  1519   856   857    1
  1520   858   859    1
  1521   883   881    1
  1522   883   878    1
  1523   919   897    2
  1524   900   898    1
  1525    24    25    1
  1526    24    22    1
  1527    15    18   ar
  1528    15    14   ar
  1529   881   879    1
  1530   881   882    1
  1531   473   471    1
  1532    18    19   ar
  1533   899   898    1
  1534   899   897    1
  1535    43    21    2
  1536    11    12    1
  1537    11    13   ar
  1538    22    23    1
  1539    23    21    1
  1540   874   876    1
  1541   874   857    1
  1542   874   895    1
  1543   876   875    1
  1544   878   877    1
  1545   879   877    1
  1546   879   880    1
  1547     6    21    1
  1548     6     5    1
  1549    14    13   ar
  1550    14    20   ar
  1551   897   880    1
  1552   897   918    1
  1553    19    20   ar
  1554   450   469    2
  1555   450   452    1
  1556   450   468    1
  1557    21    42    1
  1558   472   471    1
  1559   472   470    1
  1560     2     1    1
  1561     5     7    1
  1562     5     3    1
  1563   452   451    1
  1564   877   875    1
  1565    20     9    1
  1566   492   470    2
  1567   451   453    1
  1568     7     9    1
  1569     7     8    1
  1570   470   456    1
  1571   470   491    1
  1572     1     3    1
  1573   455   453    1
  1574   455   456    1
  1575   455   457    1
  1576     9     4    1
  1577     3     4    1
  1578   453   454    1
  1579   457   458    1
  1580   457   459    1
  1581   454   459    1
  1582   459   460    1
  1583   467   460   ar
  1584   467   466   ar
  1585   460   461   ar
  1586   466   464   ar
  1587   461   462    2
  1588   461   463   ar
  1589   464   463   ar
  1590   464   465    2
